ligand
 OpenBabel11021811473D
libRbt.so/2013.1/901 2013/11/27
 31 33  0  0  0  0  0  0  0  0999 V2000
   26.5237   43.0891   16.6792 P   0  0  1  0  0  0  0  0  0  0  0  0
   27.5469   44.1830   16.8517 O   0  0  0  0  0  0  0  0  0  0  0  0
   25.1786   43.6155   17.1040 O   0  5  0  0  0  0  0  0  0  0  0  0
   26.5496   42.7031   15.2258 O   0  0  0  0  0  0  0  0  0  0  0  0
   28.1438   41.2290   17.5659 C   0  0  0  0  0  0  0  0  0  0  0  0
   26.8456   41.7854   17.5596 O   0  0  0  0  0  0  0  0  0  0  0  0
   28.1886   40.0695   18.5576 C   0  0  1  0  0  0  0  0  0  0  0  0
   27.7072   40.4985   19.8158 O   0  0  0  0  0  0  0  0  0  0  0  0
   27.3209   38.9258   18.0597 C   0  0  1  0  0  0  0  0  0  0  0  0
   27.9801   38.3016   16.9906 O   0  0  0  0  0  0  0  0  0  0  0  0
   27.0425   37.8911   19.1371 C   0  0  1  0  0  0  0  0  0  0  0  0
   26.2224   36.8949   18.5886 O   0  0  0  0  0  0  0  0  0  0  0  0
   28.3340   37.2604   19.6306 C   0  0  0  0  0  0  0  0  0  0  0  0
   28.3431   34.4911   19.1297 N   0  0  0  0  0  0  0  0  0  0  0  0
   28.3028   33.1490   18.8201 C   0  0  0  0  0  0  0  0  0  0  0  0
   28.5979   32.7682   17.6910 O   0  0  0  0  0  0  0  0  0  0  0  0
   27.9302   32.2249   19.7694 N   0  0  0  0  0  0  0  0  0  0  0  0
   27.6038   32.6346   21.0475 C   0  0  0  0  0  0  0  0  0  0  0  0
   27.6408   33.9869   21.3689 C   0  0  1  0  0  0  0  0  0  0  0  0
   27.2889   31.8012   21.8994 O   0  0  0  0  0  0  0  0  0  0  0  0
   27.3534   35.7478   22.9614 C   0  0  2  0  0  0  0  0  0  0  0  0
   27.3140   34.4035   22.6438 N   0  0  0  0  0  0  0  0  0  0  0  0
   27.0226   36.1676   24.2503 C   0  0  0  0  0  0  0  0  0  0  0  0
   27.0539   37.5178   24.5789 C   0  0  1  0  0  0  0  0  0  0  0  0
   26.6896   37.9314   25.9696 C   0  0  0  0  0  0  0  0  0  0  0  0
   27.4251   38.4624   23.6101 C   0  0  1  0  0  0  0  0  0  0  0  0
   27.4805   39.9316   23.9273 C   0  0  0  0  0  0  0  0  0  0  0  0
   27.7530   38.0405   22.3243 C   0  0  0  0  0  0  0  0  0  0  0  0
   27.7178   36.6851   21.9919 C   0  0  1  0  0  0  0  0  0  0  0  0
   28.0097   34.9173   20.3995 C   0  0  1  0  0  0  0  0  0  0  0  0
   28.0418   36.2631   20.7112 N   0  0  0  0  0  0  0  0  0  0  0  0
  1  2  1  1  0  0  0
  1  3  1  0  0  0  0
  1  4  2  0  0  0  0
  1  6  1  0  0  0  0
  5  6  1  0  0  0  0
  7  5  1  6  0  0  0
  7  8  1  0  0  0  0
  7  9  1  0  0  0  0
  9 10  1  6  0  0  0
  9 11  1  0  0  0  0
 11 12  1  6  0  0  0
 11 13  1  0  0  0  0
 13 31  1  0  0  0  0
 14 15  1  0  0  0  0
 15 16  2  0  0  0  0
 15 17  1  0  0  0  0
 17 18  1  0  0  0  0
 18 20  2  0  0  0  0
 19 18  1  1  0  0  0
 19 22  1  0  0  0  0
 19 30  1  0  0  0  0
 21 23  1  6  0  0  0
 21 29  1  0  0  0  0
 21 22  1  0  0  0  0
 23 24  1  0  0  0  0
 24 25  1  1  0  0  0
 24 26  1  0  0  0  0
 26 27  1  1  0  0  0
 26 28  1  0  0  0  0
 29 28  1  1  0  0  0
 29 31  1  0  0  0  0
 30 14  1  1  0  0  0
 30 31  1  0  0  0  0
M  CHG  1   3  -1
M  END
>  <CHROM.1>
175.93699916,-47.51476296,-52.61415224,73.60619224,179.07472643,178.87072436
-75.65672392,27.39915474,37.88773593,19.88178971,-2.24241843,-1.43262114
1.96932782

>  <Name>
ligand

>  <RI>
0

>  <Rbt.Current_Directory>
/home/itssahil/PROJECTS/Mol_Feturizer/New_Systems/rnas/3F2T

>  <Rbt.Executable>
rbdock ($Id: //depot/dev/client3/rdock/2013.1/src/exe/rbdock.cxx#4 $)

>  <Rbt.Library>
libRbt.so (2013.1, Build901 2013/11/27)

>  <Rbt.Parameter_File>
/export/apps/rDock/src/rDock_2013.1_src/data/scripts/dock_solv.prm

>  <Rbt.Receptor>
prm/pocket_docking_2.prm

>  <SCORE>
-32.879

>  <SCORE.INTER>
-31.6152

>  <SCORE.INTER.CONST>
1

>  <SCORE.INTER.POLAR>
0

>  <SCORE.INTER.ROT>
7

>  <SCORE.INTER.SOLV>
19.0127

>  <SCORE.INTER.VDW>
-35.681

>  <SCORE.INTER.norm>
-1.01985

>  <SCORE.INTRA>
-1.26443

>  <SCORE.INTRA.DIHEDRAL>
-2.38862

>  <SCORE.INTRA.DIHEDRAL.0>
4.64198

>  <SCORE.INTRA.POLAR>
0

>  <SCORE.INTRA.POLAR.0>
0

>  <SCORE.INTRA.REPUL>
0

>  <SCORE.INTRA.REPUL.0>
0

>  <SCORE.INTRA.SOLV>
-0.449379

>  <SCORE.INTRA.SOLV.lig_0>
-49.3611

>  <SCORE.INTRA.VDW>
0.154572

>  <SCORE.INTRA.VDW.0>
-1.91858

>  <SCORE.INTRA.norm>
-0.040788

>  <SCORE.RESTR>
0.0006093

>  <SCORE.RESTR.CAVITY>
0.0006093

>  <SCORE.RESTR.norm>
1.96548e-05

>  <SCORE.SYSTEM>
0

>  <SCORE.SYSTEM.CONST>
0

>  <SCORE.SYSTEM.DIHEDRAL>
0

>  <SCORE.SYSTEM.SOLV>
0

>  <SCORE.SYSTEM.norm>
0

>  <SCORE.heavy>
31

>  <SCORE.norm>
-1.06061

>  <RMSD>
0.718

$$$$
ligand
 OpenBabel11021811473D
libRbt.so/2013.1/901 2013/11/27
 31 33  0  0  0  0  0  0  0  0999 V2000
   26.6878   43.4195   16.5266 P   0  0  1  0  0  0  0  0  0  0  0  0
   26.4173   44.7244   17.2319 O   0  0  0  0  0  0  0  0  0  0  0  0
   25.5513   43.1384   15.5799 O   0  5  0  0  0  0  0  0  0  0  0  0
   27.9986   43.5844   15.8078 O   0  0  0  0  0  0  0  0  0  0  0  0
   27.1489   40.8929   17.0503 C   0  0  0  0  0  0  0  0  0  0  0  0
   26.8113   42.1759   17.5349 O   0  0  0  0  0  0  0  0  0  0  0  0
   27.1589   39.9035   18.2127 C   0  0  1  0  0  0  0  0  0  0  0  0
   26.0029   40.0871   19.0058 O   0  0  0  0  0  0  0  0  0  0  0  0
   27.1744   38.4795   17.6831 C   0  0  1  0  0  0  0  0  0  0  0  0
   28.4248   38.2382   17.0953 O   0  0  0  0  0  0  0  0  0  0  0  0
   26.9361   37.4477   18.7727 C   0  0  1  0  0  0  0  0  0  0  0  0
   26.5917   36.2338   18.1612 O   0  0  0  0  0  0  0  0  0  0  0  0
   28.1862   37.2474   19.6133 C   0  0  0  0  0  0  0  0  0  0  0  0
   28.2616   34.4744   19.1397 N   0  0  0  0  0  0  0  0  0  0  0  0
   28.2533   33.1286   18.8435 C   0  0  0  0  0  0  0  0  0  0  0  0
   28.5547   32.7440   17.7174 O   0  0  0  0  0  0  0  0  0  0  0  0
   27.9059   32.2052   19.8029 N   0  0  0  0  0  0  0  0  0  0  0  0
   27.5728   32.6195   21.0778 C   0  0  0  0  0  0  0  0  0  0  0  0
   27.5777   33.9754   21.3858 C   0  0  1  0  0  0  0  0  0  0  0  0
   27.2807   31.7871   21.9388 O   0  0  0  0  0  0  0  0  0  0  0  0
   27.2514   35.7445   22.9616 C   0  0  2  0  0  0  0  0  0  0  0  0
   27.2441   34.3966   22.6574 N   0  0  0  0  0  0  0  0  0  0  0  0
   26.9139   36.1689   24.2472 C   0  0  0  0  0  0  0  0  0  0  0  0
   26.9131   37.5226   24.5624 C   0  0  1  0  0  0  0  0  0  0  0  0
   26.5424   37.9410   25.9501 C   0  0  0  0  0  0  0  0  0  0  0  0
   27.2586   38.4664   23.5833 C   0  0  1  0  0  0  0  0  0  0  0  0
   27.2789   39.9396   23.8859 C   0  0  0  0  0  0  0  0  0  0  0  0
   27.5933   38.0399   22.3008 C   0  0  0  0  0  0  0  0  0  0  0  0
   27.5904   36.6807   21.9819 C   0  0  1  0  0  0  0  0  0  0  0  0
   27.9212   34.9049   20.4062 C   0  0  1  0  0  0  0  0  0  0  0  0
   27.9213   36.2541   20.7045 N   0  0  0  0  0  0  0  0  0  0  0  0
  1  2  1  1  0  0  0
  1  3  1  0  0  0  0
  1  4  2  0  0  0  0
  1  6  1  0  0  0  0
  5  6  1  0  0  0  0
  7  5  1  6  0  0  0
  7  8  1  0  0  0  0
  7  9  1  0  0  0  0
  9 10  1  1  0  0  0
  9 11  1  0  0  0  0
 11 12  1  6  0  0  0
 11 13  1  0  0  0  0
 13 31  1  0  0  0  0
 14 15  1  0  0  0  0
 15 16  2  0  0  0  0
 15 17  1  0  0  0  0
 17 18  1  0  0  0  0
 18 20  2  0  0  0  0
 19 18  1  1  0  0  0
 19 22  1  0  0  0  0
 19 30  1  0  0  0  0
 21 23  1  6  0  0  0
 21 29  1  0  0  0  0
 21 22  1  0  0  0  0
 23 24  1  0  0  0  0
 24 25  1  1  0  0  0
 24 26  1  0  0  0  0
 26 27  1  1  0  0  0
 26 28  1  0  0  0  0
 29 28  1  1  0  0  0
 29 31  1  0  0  0  0
 30 14  1  1  0  0  0
 30 31  1  0  0  0  0
M  CHG  1   3  -1
M  END
>  <CHROM.1>
-178.51150767,-175.90878186,46.04569365,69.64692529,163.46863822,178.49781744
-96.92369749,27.27860415,37.87217881,19.76349650,-2.12231496,-1.41284861
2.08220169

>  <Name>
ligand

>  <RI>
0

>  <Rbt.Current_Directory>
/home/itssahil/PROJECTS/Mol_Feturizer/New_Systems/rnas/3F2T

>  <Rbt.Executable>
rbdock ($Id: //depot/dev/client3/rdock/2013.1/src/exe/rbdock.cxx#4 $)

>  <Rbt.Library>
libRbt.so (2013.1, Build901 2013/11/27)

>  <Rbt.Parameter_File>
/export/apps/rDock/src/rDock_2013.1_src/data/scripts/dock_solv.prm

>  <Rbt.Receptor>
prm/pocket_docking_2.prm

>  <SCORE>
-31.7027

>  <SCORE.INTER>
-31.7124

>  <SCORE.INTER.CONST>
1

>  <SCORE.INTER.POLAR>
0

>  <SCORE.INTER.ROT>
7

>  <SCORE.INTER.SOLV>
21.3032

>  <SCORE.INTER.VDW>
-36.5093

>  <SCORE.INTER.norm>
-1.02298

>  <SCORE.INTRA>
0.00971016

>  <SCORE.INTRA.DIHEDRAL>
-1.55871

>  <SCORE.INTRA.DIHEDRAL.0>
4.64198

>  <SCORE.INTRA.POLAR>
0

>  <SCORE.INTRA.POLAR.0>
0

>  <SCORE.INTRA.REPUL>
0

>  <SCORE.INTRA.REPUL.0>
0

>  <SCORE.INTRA.SOLV>
0.00131624

>  <SCORE.INTRA.SOLV.lig_0>
-49.3611

>  <SCORE.INTRA.VDW>
0.788406

>  <SCORE.INTRA.VDW.0>
-1.91858

>  <SCORE.INTRA.norm>
0.000313231

>  <SCORE.RESTR>
0

>  <SCORE.RESTR.CAVITY>
0

>  <SCORE.RESTR.norm>
0

>  <SCORE.SYSTEM>
0

>  <SCORE.SYSTEM.CONST>
0

>  <SCORE.SYSTEM.DIHEDRAL>
0

>  <SCORE.SYSTEM.SOLV>
0

>  <SCORE.SYSTEM.norm>
0

>  <SCORE.heavy>
31

>  <SCORE.norm>
-1.02267

>  <RMSD>
0.759

$$$$
ligand
 OpenBabel11021811473D
libRbt.so/2013.1/901 2013/11/27
 31 33  0  0  0  0  0  0  0  0999 V2000
   26.6940   43.0999   16.7563 P   0  0  1  0  0  0  0  0  0  0  0  0
   27.9993   43.8482   16.6581 O   0  0  0  0  0  0  0  0  0  0  0  0
   25.7034   43.9540   17.5021 O   0  5  0  0  0  0  0  0  0  0  0  0
   26.2536   42.8192   15.3459 O   0  0  0  0  0  0  0  0  0  0  0  0
   27.9769   41.4250   18.3117 C   0  0  0  0  0  0  0  0  0  0  0  0
   26.8295   41.7031   17.5365 O   0  0  0  0  0  0  0  0  0  0  0  0
   27.7411   40.1510   19.1189 C   0  0  1  0  0  0  0  0  0  0  0  0
   26.6206   40.3218   19.9639 O   0  0  0  0  0  0  0  0  0  0  0  0
   27.4812   38.9830   18.1825 C   0  0  1  0  0  0  0  0  0  0  0  0
   28.6012   38.8209   17.3538 O   0  0  0  0  0  0  0  0  0  0  0  0
   27.2277   37.6825   18.9263 C   0  0  1  0  0  0  0  0  0  0  0  0
   26.8584   36.7056   17.9907 O   0  0  0  0  0  0  0  0  0  0  0  0
   28.4770   37.2248   19.6607 C   0  0  0  0  0  0  0  0  0  0  0  0
   28.4642   34.4541   19.1680 N   0  0  0  0  0  0  0  0  0  0  0  0
   28.4166   33.1118   18.8602 C   0  0  0  0  0  0  0  0  0  0  0  0
   28.7603   32.7224   17.7479 O   0  0  0  0  0  0  0  0  0  0  0  0
   27.9826   32.1972   19.7924 N   0  0  0  0  0  0  0  0  0  0  0  0
   27.6008   32.6166   21.0519 C   0  0  0  0  0  0  0  0  0  0  0  0
   27.6447   33.9692   21.3713 C   0  0  1  0  0  0  0  0  0  0  0  0
   27.2307   31.7914   21.8895 O   0  0  0  0  0  0  0  0  0  0  0  0
   27.3091   35.7400   22.9433 C   0  0  2  0  0  0  0  0  0  0  0  0
   27.2629   34.3955   22.6276 N   0  0  0  0  0  0  0  0  0  0  0  0
   26.9228   36.1696   24.2133 C   0  0  0  0  0  0  0  0  0  0  0  0
   26.9605   37.5201   24.5397 C   0  0  1  0  0  0  0  0  0  0  0  0
   26.5355   37.9444   25.9098 C   0  0  0  0  0  0  0  0  0  0  0  0
   27.3945   38.4552   23.5878 C   0  0  1  0  0  0  0  0  0  0  0  0
   27.4589   39.9243   23.9036 C   0  0  0  0  0  0  0  0  0  0  0  0
   27.7778   38.0236   22.3207 C   0  0  0  0  0  0  0  0  0  0  0  0
   27.7363   36.6678   21.9904 C   0  0  1  0  0  0  0  0  0  0  0  0
   28.0761   34.8901   20.4188 C   0  0  1  0  0  0  0  0  0  0  0  0
   28.1155   36.2362   20.7282 N   0  0  0  0  0  0  0  0  0  0  0  0
  1  2  1  6  0  0  0
  1  3  1  0  0  0  0
  1  4  2  0  0  0  0
  1  6  1  0  0  0  0
  5  6  1  0  0  0  0
  7  5  1  6  0  0  0
  7  8  1  0  0  0  0
  7  9  1  0  0  0  0
  9 10  1  6  0  0  0
  9 11  1  0  0  0  0
 11 12  1  6  0  0  0
 11 13  1  0  0  0  0
 13 31  1  0  0  0  0
 14 15  1  0  0  0  0
 15 16  2  0  0  0  0
 15 17  1  0  0  0  0
 17 18  1  0  0  0  0
 18 20  2  0  0  0  0
 19 18  1  1  0  0  0
 19 22  1  0  0  0  0
 19 30  1  0  0  0  0
 21 23  1  6  0  0  0
 21 29  1  0  0  0  0
 21 22  1  0  0  0  0
 23 24  1  0  0  0  0
 24 25  1  1  0  0  0
 24 26  1  0  0  0  0
 26 27  1  1  0  0  0
 26 28  1  0  0  0  0
 29 28  1  1  0  0  0
 29 31  1  0  0  0  0
 30 14  1  1  0  0  0
 30 31  1  0  0  0  0
M  CHG  1   3  -1
M  END
>  <CHROM.1>
170.59054758,14.78118161,-59.52387435,59.86335896,173.71102776,161.20959388
-86.17540755,27.43980620,37.88949216,19.93215421,-2.07430446,-1.40455580
2.16641540

>  <Name>
ligand

>  <RI>
0

>  <Rbt.Current_Directory>
/home/itssahil/PROJECTS/Mol_Feturizer/New_Systems/rnas/3F2T

>  <Rbt.Executable>
rbdock ($Id: //depot/dev/client3/rdock/2013.1/src/exe/rbdock.cxx#4 $)

>  <Rbt.Library>
libRbt.so (2013.1, Build901 2013/11/27)

>  <Rbt.Parameter_File>
/export/apps/rDock/src/rDock_2013.1_src/data/scripts/dock_solv.prm

>  <Rbt.Receptor>
prm/pocket_docking_2.prm

>  <SCORE>
-32.1203

>  <SCORE.INTER>
-32.0313

>  <SCORE.INTER.CONST>
1

>  <SCORE.INTER.POLAR>
0

>  <SCORE.INTER.ROT>
7

>  <SCORE.INTER.SOLV>
18.7814

>  <SCORE.INTER.VDW>
-35.8814

>  <SCORE.INTER.norm>
-1.03327

>  <SCORE.INTRA>
-0.0989277

>  <SCORE.INTRA.DIHEDRAL>
0.264455

>  <SCORE.INTRA.DIHEDRAL.0>
4.64198

>  <SCORE.INTRA.POLAR>
0

>  <SCORE.INTRA.POLAR.0>
0

>  <SCORE.INTRA.REPUL>
0

>  <SCORE.INTRA.REPUL.0>
0

>  <SCORE.INTRA.SOLV>
-0.601205

>  <SCORE.INTRA.SOLV.lig_0>
-49.3611

>  <SCORE.INTRA.VDW>
0.0694472

>  <SCORE.INTRA.VDW.0>
-1.91858

>  <SCORE.INTRA.norm>
-0.00319121

>  <SCORE.RESTR>
0.00997276

>  <SCORE.RESTR.CAVITY>
0.00997276

>  <SCORE.RESTR.norm>
0.000321702

>  <SCORE.SYSTEM>
0

>  <SCORE.SYSTEM.CONST>
0

>  <SCORE.SYSTEM.DIHEDRAL>
0

>  <SCORE.SYSTEM.SOLV>
0

>  <SCORE.SYSTEM.norm>
0

>  <SCORE.heavy>
31

>  <SCORE.norm>
-1.03614

>  <RMSD>
0.782

$$$$
ligand
 OpenBabel11021811473D
libRbt.so/2013.1/901 2013/11/27
 31 33  0  0  0  0  0  0  0  0999 V2000
   26.3975   43.0050   16.6075 P   0  0  1  0  0  0  0  0  0  0  0  0
   25.0031   43.0835   16.0395 O   0  0  0  0  0  0  0  0  0  0  0  0
   27.3712   42.8273   15.4729 O   0  5  0  0  0  0  0  0  0  0  0  0
   26.6276   44.2879   17.3580 O   0  0  0  0  0  0  0  0  0  0  0  0
   27.8362   41.5633   18.2574 C   0  0  0  0  0  0  0  0  0  0  0  0
   26.5922   41.7771   17.6237 O   0  0  0  0  0  0  0  0  0  0  0  0
   27.7576   40.2952   19.1036 C   0  0  1  0  0  0  0  0  0  0  0  0
   26.7563   40.4415   20.0909 O   0  0  0  0  0  0  0  0  0  0  0  0
   27.4153   39.1041   18.2245 C   0  0  1  0  0  0  0  0  0  0  0  0
   28.4886   38.8740   17.3513 O   0  0  0  0  0  0  0  0  0  0  0  0
   27.1550   37.8405   19.0272 C   0  0  1  0  0  0  0  0  0  0  0  0
   26.7070   36.8450   18.1473 O   0  0  0  0  0  0  0  0  0  0  0  0
   28.4230   37.3649   19.7169 C   0  0  0  0  0  0  0  0  0  0  0  0
   28.4102   34.5992   19.1968 N   0  0  0  0  0  0  0  0  0  0  0  0
   28.3613   33.2598   18.8766 C   0  0  0  0  0  0  0  0  0  0  0  0
   28.6832   32.8829   17.7536 O   0  0  0  0  0  0  0  0  0  0  0  0
   27.9501   32.3343   19.8085 N   0  0  0  0  0  0  0  0  0  0  0  0
   27.5930   32.7397   21.0797 C   0  0  0  0  0  0  0  0  0  0  0  0
   27.6385   34.0891   21.4117 C   0  0  1  0  0  0  0  0  0  0  0  0
   27.2435   31.9047   21.9165 O   0  0  0  0  0  0  0  0  0  0  0  0
   27.3290   35.8429   23.0079 C   0  0  2  0  0  0  0  0  0  0  0  0
   27.2812   34.5014   22.6798 N   0  0  0  0  0  0  0  0  0  0  0  0
   26.9675   36.2583   24.2900 C   0  0  0  0  0  0  0  0  0  0  0  0
   27.0070   37.6057   24.6289 C   0  0  1  0  0  0  0  0  0  0  0  0
   26.6089   38.0146   26.0118 C   0  0  0  0  0  0  0  0  0  0  0  0
   27.4176   38.5519   23.6777 C   0  0  1  0  0  0  0  0  0  0  0  0
   27.4831   40.0181   24.0068 C   0  0  0  0  0  0  0  0  0  0  0  0
   27.7762   38.1344   22.3987 C   0  0  0  0  0  0  0  0  0  0  0  0
   27.7329   36.7818   22.0558 C   0  0  1  0  0  0  0  0  0  0  0  0
   28.0466   35.0212   20.4597 C   0  0  1  0  0  0  0  0  0  0  0  0
   28.0874   36.3643   20.7817 N   0  0  0  0  0  0  0  0  0  0  0  0
  1  2  1  6  0  0  0
  1  3  1  0  0  0  0
  1  4  2  0  0  0  0
  1  6  1  0  0  0  0
  5  6  1  0  0  0  0
  7  5  1  6  0  0  0
  7  8  1  0  0  0  0
  7  9  1  0  0  0  0
  9 10  1  6  0  0  0
  9 11  1  0  0  0  0
 11 12  1  6  0  0  0
 11 13  1  0  0  0  0
 13 31  1  0  0  0  0
 14 15  1  0  0  0  0
 15 16  2  0  0  0  0
 15 17  1  0  0  0  0
 17 18  1  0  0  0  0
 18 20  2  0  0  0  0
 19 18  1  1  0  0  0
 19 22  1  0  0  0  0
 19 30  1  0  0  0  0
 21 23  1  6  0  0  0
 21 29  1  0  0  0  0
 21 22  1  0  0  0  0
 23 24  1  0  0  0  0
 24 25  1  1  0  0  0
 24 26  1  0  0  0  0
 26 27  1  1  0  0  0
 26 28  1  0  0  0  0
 29 28  1  1  0  0  0
 29 31  1  0  0  0  0
 30 14  1  1  0  0  0
 30 31  1  0  0  0  0
M  CHG  1   3  -1
M  END
>  <CHROM.1>
-177.05042875,-179.41645798,-60.53146904,66.42795501,173.58377923,164.63897979
-85.32770435,27.36136075,37.96405826,19.94463381,-2.27597872,-1.40885376
1.92877835

>  <Name>
ligand

>  <RI>
0

>  <Rbt.Current_Directory>
/home/itssahil/PROJECTS/Mol_Feturizer/New_Systems/rnas/3F2T

>  <Rbt.Executable>
rbdock ($Id: //depot/dev/client3/rdock/2013.1/src/exe/rbdock.cxx#4 $)

>  <Rbt.Library>
libRbt.so (2013.1, Build901 2013/11/27)

>  <Rbt.Parameter_File>
/export/apps/rDock/src/rDock_2013.1_src/data/scripts/dock_solv.prm

>  <Rbt.Receptor>
prm/pocket_docking_2.prm

>  <SCORE>
-32.5167

>  <SCORE.INTER>
-31.3296

>  <SCORE.INTER.CONST>
1

>  <SCORE.INTER.POLAR>
0

>  <SCORE.INTER.ROT>
7

>  <SCORE.INTER.SOLV>
19.1112

>  <SCORE.INTER.VDW>
-35.5234

>  <SCORE.INTER.norm>
-1.01063

>  <SCORE.INTRA>
-1.18798

>  <SCORE.INTRA.DIHEDRAL>
-2.42004

>  <SCORE.INTRA.DIHEDRAL.0>
4.64198

>  <SCORE.INTRA.POLAR>
0

>  <SCORE.INTRA.POLAR.0>
0

>  <SCORE.INTRA.REPUL>
0

>  <SCORE.INTRA.REPUL.0>
0

>  <SCORE.INTRA.SOLV>
0.174864

>  <SCORE.INTRA.SOLV.lig_0>
-49.3611

>  <SCORE.INTRA.VDW>
-0.0653895

>  <SCORE.INTRA.VDW.0>
-1.91858

>  <SCORE.INTRA.norm>
-0.0383218

>  <SCORE.RESTR>
0.000833072

>  <SCORE.RESTR.CAVITY>
0.000833072

>  <SCORE.RESTR.norm>
2.68733e-05

>  <SCORE.SYSTEM>
0

>  <SCORE.SYSTEM.CONST>
0

>  <SCORE.SYSTEM.DIHEDRAL>
0

>  <SCORE.SYSTEM.SOLV>
0

>  <SCORE.SYSTEM.norm>
0

>  <SCORE.heavy>
31

>  <SCORE.norm>
-1.04893

>  <RMSD>
0.794

$$$$
ligand
 OpenBabel11021811473D
libRbt.so/2013.1/901 2013/11/27
 31 33  0  0  0  0  0  0  0  0999 V2000
   27.6001   42.7932   16.2502 P   0  0  1  0  0  0  0  0  0  0  0  0
   27.7847   44.1488   16.8838 O   0  0  0  0  0  0  0  0  0  0  0  0
   26.3639   42.8266   15.3912 O   0  5  0  0  0  0  0  0  0  0  0  0
   28.8427   42.5224   15.4473 O   0  0  0  0  0  0  0  0  0  0  0  0
   28.5031   41.2310   18.1514 C   0  0  0  0  0  0  0  0  0  0  0  0
   27.4222   41.6165   17.3282 O   0  0  0  0  0  0  0  0  0  0  0  0
   28.0532   40.1025   19.0756 C   0  0  1  0  0  0  0  0  0  0  0  0
   27.0320   40.5679   19.9353 O   0  0  0  0  0  0  0  0  0  0  0  0
   27.5181   38.9409   18.2552 C   0  0  1  0  0  0  0  0  0  0  0  0
   28.4916   38.5771   17.3133 O   0  0  0  0  0  0  0  0  0  0  0  0
   27.1816   37.7289   19.1076 C   0  0  1  0  0  0  0  0  0  0  0  0
   26.6164   36.7505   18.2774 O   0  0  0  0  0  0  0  0  0  0  0  0
   28.4298   37.1655   19.7666 C   0  0  0  0  0  0  0  0  0  0  0  0
   28.4095   34.3894   19.3054 N   0  0  0  0  0  0  0  0  0  0  0  0
   28.3591   33.0439   19.0123 C   0  0  0  0  0  0  0  0  0  0  0  0
   28.7137   32.6403   17.9086 O   0  0  0  0  0  0  0  0  0  0  0  0
   27.9100   32.1421   19.9499 N   0  0  0  0  0  0  0  0  0  0  0  0
   27.5158   32.5776   21.2000 C   0  0  0  0  0  0  0  0  0  0  0  0
   27.5624   33.9335   21.5045 C   0  0  1  0  0  0  0  0  0  0  0  0
   27.1322   31.7638   22.0426 O   0  0  0  0  0  0  0  0  0  0  0  0
   27.2171   35.7238   23.0522 C   0  0  2  0  0  0  0  0  0  0  0  0
   27.1681   34.3760   22.7513 N   0  0  0  0  0  0  0  0  0  0  0  0
   26.8182   36.1696   24.3127 C   0  0  0  0  0  0  0  0  0  0  0  0
   26.8586   37.5236   24.6240 C   0  0  1  0  0  0  0  0  0  0  0  0
   26.4198   37.9655   25.9842 C   0  0  0  0  0  0  0  0  0  0  0  0
   27.3079   38.4457   23.6666 C   0  0  1  0  0  0  0  0  0  0  0  0
   27.3756   39.9181   23.9664 C   0  0  0  0  0  0  0  0  0  0  0  0
   27.7038   37.9979   22.4091 C   0  0  0  0  0  0  0  0  0  0  0  0
   27.6597   36.6386   22.0938 C   0  0  1  0  0  0  0  0  0  0  0  0
   28.0091   34.8415   20.5465 C   0  0  1  0  0  0  0  0  0  0  0  0
   28.0513   36.1909   20.8411 N   0  0  0  0  0  0  0  0  0  0  0  0
  1  2  1  1  0  0  0
  1  3  1  0  0  0  0
  1  4  2  0  0  0  0
  1  6  1  0  0  0  0
  5  6  1  0  0  0  0
  7  5  1  6  0  0  0
  7  8  1  0  0  0  0
  7  9  1  0  0  0  0
  9 10  1  6  0  0  0
  9 11  1  0  0  0  0
 11 12  1  6  0  0  0
 11 13  1  0  0  0  0
 13 31  1  0  0  0  0
 14 15  1  0  0  0  0
 15 16  2  0  0  0  0
 15 17  1  0  0  0  0
 17 18  1  0  0  0  0
 18 20  2  0  0  0  0
 19 18  1  1  0  0  0
 19 22  1  0  0  0  0
 19 30  1  0  0  0  0
 21 23  1  6  0  0  0
 21 29  1  0  0  0  0
 21 22  1  0  0  0  0
 23 24  1  0  0  0  0
 24 25  1  1  0  0  0
 24 26  1  0  0  0  0
 26 27  1  1  0  0  0
 26 28  1  0  0  0  0
 29 28  1  1  0  0  0
 29 31  1  0  0  0  0
 30 14  1  1  0  0  0
 30 31  1  0  0  0  0
M  CHG  1   3  -1
M  END
>  <CHROM.1>
179.84891399,-68.50059668,-63.29471496,53.70909495,176.13341385,166.73707283
-80.37179988,27.61484397,37.80120815,19.90078774,-1.46720153,-1.41235890
2.67855058

>  <Name>
ligand

>  <RI>
0

>  <Rbt.Current_Directory>
/home/itssahil/PROJECTS/Mol_Feturizer/New_Systems/rnas/3F2T

>  <Rbt.Executable>
rbdock ($Id: //depot/dev/client3/rdock/2013.1/src/exe/rbdock.cxx#4 $)

>  <Rbt.Library>
libRbt.so (2013.1, Build901 2013/11/27)

>  <Rbt.Parameter_File>
/export/apps/rDock/src/rDock_2013.1_src/data/scripts/dock_solv.prm

>  <Rbt.Receptor>
prm/pocket_docking_5.prm

>  <SCORE>
-32.9928

>  <SCORE.INTER>
-31.8152

>  <SCORE.INTER.CONST>
1

>  <SCORE.INTER.POLAR>
0

>  <SCORE.INTER.ROT>
7

>  <SCORE.INTER.SOLV>
22.7513

>  <SCORE.INTER.VDW>
-37.0605

>  <SCORE.INTER.norm>
-1.0263

>  <SCORE.INTRA>
-1.17766

>  <SCORE.INTRA.DIHEDRAL>
-2.57574

>  <SCORE.INTRA.DIHEDRAL.0>
4.64198

>  <SCORE.INTRA.POLAR>
0

>  <SCORE.INTRA.POLAR.0>
0

>  <SCORE.INTRA.REPUL>
0

>  <SCORE.INTRA.REPUL.0>
0

>  <SCORE.INTRA.SOLV>
-0.312572

>  <SCORE.INTRA.SOLV.lig_0>
-49.3611

>  <SCORE.INTRA.VDW>
0.266496

>  <SCORE.INTRA.VDW.0>
-1.91858

>  <SCORE.INTRA.norm>
-0.037989

>  <SCORE.RESTR>
0

>  <SCORE.RESTR.CAVITY>
0

>  <SCORE.RESTR.norm>
0

>  <SCORE.SYSTEM>
0

>  <SCORE.SYSTEM.CONST>
0

>  <SCORE.SYSTEM.DIHEDRAL>
0

>  <SCORE.SYSTEM.SOLV>
0

>  <SCORE.SYSTEM.norm>
0

>  <SCORE.heavy>
31

>  <SCORE.norm>
-1.06428

>  <RMSD>
0.810

$$$$
ligand
 OpenBabel11021811473D
libRbt.so/2013.1/901 2013/11/27
 31 33  0  0  0  0  0  0  0  0999 V2000
   26.9133   43.1638   16.7728 P   0  0  1  0  0  0  0  0  0  0  0  0
   28.0823   44.1123   16.6884 O   0  0  0  0  0  0  0  0  0  0  0  0
   25.7262   43.9091   17.3226 O   0  5  0  0  0  0  0  0  0  0  0  0
   26.6701   42.6578   15.3776 O   0  0  0  0  0  0  0  0  0  0  0  0
   28.4438   41.2473   17.6976 C   0  0  0  0  0  0  0  0  0  0  0  0
   27.1948   41.9059   17.7303 O   0  0  0  0  0  0  0  0  0  0  0  0
   28.4276   40.0899   18.6928 C   0  0  1  0  0  0  0  0  0  0  0  0
   28.0431   40.5626   19.9685 O   0  0  0  0  0  0  0  0  0  0  0  0
   27.4389   39.0287   18.2398 C   0  0  1  0  0  0  0  0  0  0  0  0
   27.9810   38.3612   17.1317 O   0  0  0  0  0  0  0  0  0  0  0  0
   27.1348   38.0109   19.3263 C   0  0  1  0  0  0  0  0  0  0  0  0
   26.1525   37.1339   18.8449 O   0  0  0  0  0  0  0  0  0  0  0  0
   28.3788   37.2176   19.6903 C   0  0  0  0  0  0  0  0  0  0  0  0
   28.3796   34.4436   19.2160 N   0  0  0  0  0  0  0  0  0  0  0  0
   28.3363   33.0988   18.9186 C   0  0  0  0  0  0  0  0  0  0  0  0
   28.6468   32.7055   17.7980 O   0  0  0  0  0  0  0  0  0  0  0  0
   27.9435   32.1860   19.8708 N   0  0  0  0  0  0  0  0  0  0  0  0
   27.5995   32.6099   21.1396 C   0  0  0  0  0  0  0  0  0  0  0  0
   27.6395   33.9649   21.4487 C   0  0  1  0  0  0  0  0  0  0  0  0
   27.2666   31.7865   21.9944 O   0  0  0  0  0  0  0  0  0  0  0  0
   27.3374   35.7427   23.0196 C   0  0  2  0  0  0  0  0  0  0  0  0
   27.2952   34.3957   22.7142 N   0  0  0  0  0  0  0  0  0  0  0  0
   26.9890   36.1768   24.2990 C   0  0  0  0  0  0  0  0  0  0  0  0
   27.0231   37.5299   24.6152 C   0  0  1  0  0  0  0  0  0  0  0  0
   26.6394   37.9589   25.9961 C   0  0  0  0  0  0  0  0  0  0  0  0
   27.4148   38.4630   23.6434 C   0  0  1  0  0  0  0  0  0  0  0  0
   27.4738   39.9349   23.9474 C   0  0  0  0  0  0  0  0  0  0  0  0
   27.7603   38.0269   22.3670 C   0  0  0  0  0  0  0  0  0  0  0  0
   27.7225   36.6685   22.0470 C   0  0  1  0  0  0  0  0  0  0  0  0
   28.0288   34.8839   20.4763 C   0  0  1  0  0  0  0  0  0  0  0  0
   28.0640   36.2324   20.7756 N   0  0  0  0  0  0  0  0  0  0  0  0
  1  2  1  6  0  0  0
  1  3  1  0  0  0  0
  1  4  2  0  0  0  0
  1  6  1  0  0  0  0
  5  6  1  0  0  0  0
  7  5  1  6  0  0  0
  7  8  1  0  0  0  0
  7  9  1  0  0  0  0
  9 10  1  6  0  0  0
  9 11  1  0  0  0  0
 11 12  1  6  0  0  0
 11 13  1  0  0  0  0
 13 31  1  0  0  0  0
 14 15  1  0  0  0  0
 15 16  2  0  0  0  0
 15 17  1  0  0  0  0
 17 18  1  0  0  0  0
 18 20  2  0  0  0  0
 19 18  1  1  0  0  0
 19 22  1  0  0  0  0
 19 30  1  0  0  0  0
 21 23  1  6  0  0  0
 21 29  1  0  0  0  0
 21 22  1  0  0  0  0
 23 24  1  0  0  0  0
 24 25  1  1  0  0  0
 24 26  1  0  0  0  0
 26 27  1  1  0  0  0
 26 28  1  0  0  0  0
 29 28  1  1  0  0  0
 29 31  1  0  0  0  0
 30 14  1  1  0  0  0
 30 31  1  0  0  0  0
M  CHG  1   3  -1
M  END
>  <CHROM.1>
-179.45844222,-41.85780198,-53.52523173,72.59923471,176.08804745,179.23165640
-66.56275593,27.51469230,37.91329031,19.97752931,-1.94638328,-1.43925605
2.27580665

>  <Name>
ligand

>  <RI>
0

>  <Rbt.Current_Directory>
/home/itssahil/PROJECTS/Mol_Feturizer/New_Systems/rnas/3F2T

>  <Rbt.Executable>
rbdock ($Id: //depot/dev/client3/rdock/2013.1/src/exe/rbdock.cxx#4 $)

>  <Rbt.Library>
libRbt.so (2013.1, Build901 2013/11/27)

>  <Rbt.Parameter_File>
/export/apps/rDock/src/rDock_2013.1_src/data/scripts/dock_solv.prm

>  <Rbt.Receptor>
prm/pocket_docking_5.prm

>  <SCORE>
-33.2166

>  <SCORE.INTER>
-32.0763

>  <SCORE.INTER.CONST>
1

>  <SCORE.INTER.POLAR>
0

>  <SCORE.INTER.ROT>
7

>  <SCORE.INTER.SOLV>
19.3646

>  <SCORE.INTER.VDW>
-36.1058

>  <SCORE.INTER.norm>
-1.03472

>  <SCORE.INTRA>
-1.14032

>  <SCORE.INTRA.DIHEDRAL>
-2.25809

>  <SCORE.INTRA.DIHEDRAL.0>
4.64198

>  <SCORE.INTRA.POLAR>
0

>  <SCORE.INTRA.POLAR.0>
0

>  <SCORE.INTRA.REPUL>
0

>  <SCORE.INTRA.REPUL.0>
0

>  <SCORE.INTRA.SOLV>
-0.48991

>  <SCORE.INTRA.SOLV.lig_0>
-49.3611

>  <SCORE.INTRA.VDW>
0.233684

>  <SCORE.INTRA.VDW.0>
-1.91858

>  <SCORE.INTRA.norm>
-0.0367844

>  <SCORE.RESTR>
0

>  <SCORE.RESTR.CAVITY>
0

>  <SCORE.RESTR.norm>
0

>  <SCORE.SYSTEM>
0

>  <SCORE.SYSTEM.CONST>
0

>  <SCORE.SYSTEM.DIHEDRAL>
0

>  <SCORE.SYSTEM.SOLV>
0

>  <SCORE.SYSTEM.norm>
0

>  <SCORE.heavy>
31

>  <SCORE.norm>
-1.0715

>  <RMSD>
0.839

$$$$
ligand
 OpenBabel11021811473D
libRbt.so/2013.1/901 2013/11/27
 31 33  0  0  0  0  0  0  0  0999 V2000
   26.0835   42.9014   16.7100 P   0  0  1  0  0  0  0  0  0  0  0  0
   24.6084   43.0326   16.4272 O   0  0  0  0  0  0  0  0  0  0  0  0
   26.8130   42.7421   15.4026 O   0  5  0  0  0  0  0  0  0  0  0  0
   26.4927   44.1509   17.4404 O   0  0  0  0  0  0  0  0  0  0  0  0
   27.7641   41.3972   18.0455 C   0  0  0  0  0  0  0  0  0  0  0  0
   26.4349   41.6336   17.6306 O   0  0  0  0  0  0  0  0  0  0  0  0
   27.8021   40.1486   18.9227 C   0  0  1  0  0  0  0  0  0  0  0  0
   26.9505   40.3225   20.0378 O   0  0  0  0  0  0  0  0  0  0  0  0
   27.3358   38.9405   18.1279 C   0  0  1  0  0  0  0  0  0  0  0  0
   28.3264   38.6179   17.1887 O   0  0  0  0  0  0  0  0  0  0  0  0
   27.0768   37.7275   19.0055 C   0  0  1  0  0  0  0  0  0  0  0  0
   26.5685   36.7005   18.1975 O   0  0  0  0  0  0  0  0  0  0  0  0
   28.3594   37.2538   19.6690 C   0  0  0  0  0  0  0  0  0  0  0  0
   28.3963   34.4858   19.1625 N   0  0  0  0  0  0  0  0  0  0  0  0
   28.3712   33.1442   18.8491 C   0  0  0  0  0  0  0  0  0  0  0  0
   28.6952   32.7677   17.7265 O   0  0  0  0  0  0  0  0  0  0  0  0
   27.9816   32.2158   19.7873 N   0  0  0  0  0  0  0  0  0  0  0  0
   27.6226   32.6207   21.0581 C   0  0  0  0  0  0  0  0  0  0  0  0
   27.6442   33.9724   21.3833 C   0  0  1  0  0  0  0  0  0  0  0  0
   27.2925   31.7835   21.9006 O   0  0  0  0  0  0  0  0  0  0  0  0
   27.3088   35.7280   22.9723 C   0  0  2  0  0  0  0  0  0  0  0  0
   27.2848   34.3843   22.6510 N   0  0  0  0  0  0  0  0  0  0  0  0
   26.9453   36.1430   24.2539 C   0  0  0  0  0  0  0  0  0  0  0  0
   26.9609   37.4925   24.5861 C   0  0  1  0  0  0  0  0  0  0  0  0
   26.5614   37.9008   25.9687 C   0  0  0  0  0  0  0  0  0  0  0  0
   27.3495   38.4415   23.6284 C   0  0  1  0  0  0  0  0  0  0  0  0
   27.3888   39.9103   23.9500 C   0  0  0  0  0  0  0  0  0  0  0  0
   27.7102   38.0244   22.3498 C   0  0  0  0  0  0  0  0  0  0  0  0
   27.6908   36.6696   22.0137 C   0  0  1  0  0  0  0  0  0  0  0  0
   28.0305   34.9072   20.4249 C   0  0  1  0  0  0  0  0  0  0  0  0
   28.0474   36.2525   20.7402 N   0  0  0  0  0  0  0  0  0  0  0  0
  1  2  1  6  0  0  0
  1  3  1  0  0  0  0
  1  4  2  0  0  0  0
  1  6  1  0  0  0  0
  5  6  1  0  0  0  0
  7  5  1  6  0  0  0
  7  8  1  0  0  0  0
  7  9  1  0  0  0  0
  9 10  1  6  0  0  0
  9 11  1  0  0  0  0
 11 12  1  6  0  0  0
 11 13  1  0  0  0  0
 13 31  1  0  0  0  0
 14 15  1  0  0  0  0
 15 16  2  0  0  0  0
 15 17  1  0  0  0  0
 17 18  1  0  0  0  0
 18 20  2  0  0  0  0
 19 18  1  1  0  0  0
 19 22  1  0  0  0  0
 19 30  1  0  0  0  0
 21 23  1  6  0  0  0
 21 29  1  0  0  0  0
 21 22  1  0  0  0  0
 23 24  1  0  0  0  0
 24 25  1  1  0  0  0
 24 26  1  0  0  0  0
 26 27  1  1  0  0  0
 26 28  1  0  0  0  0
 29 28  1  1  0  0  0
 29 31  1  0  0  0  0
 30 14  1  1  0  0  0
 30 31  1  0  0  0  0
M  CHG  1   3  -1
M  END
>  <CHROM.1>
179.02392707,-176.97942725,-58.31109164,71.19523782,176.09899530,168.21473749
-83.95051025,27.27440256,37.84168646,19.92485047,-2.38500572,-1.38803851
1.83560097

>  <Name>
ligand

>  <RI>
0

>  <Rbt.Current_Directory>
/home/itssahil/PROJECTS/Mol_Feturizer/New_Systems/rnas/3F2T

>  <Rbt.Executable>
rbdock ($Id: //depot/dev/client3/rdock/2013.1/src/exe/rbdock.cxx#4 $)

>  <Rbt.Library>
libRbt.so (2013.1, Build901 2013/11/27)

>  <Rbt.Parameter_File>
/export/apps/rDock/src/rDock_2013.1_src/data/scripts/dock_solv.prm

>  <Rbt.Receptor>
prm/pocket_docking_2.prm

>  <SCORE>
-32.559

>  <SCORE.INTER>
-31.3381

>  <SCORE.INTER.CONST>
1

>  <SCORE.INTER.POLAR>
0

>  <SCORE.INTER.ROT>
7

>  <SCORE.INTER.SOLV>
19.1099

>  <SCORE.INTER.VDW>
-35.5287

>  <SCORE.INTER.norm>
-1.01091

>  <SCORE.INTRA>
-1.2219

>  <SCORE.INTRA.DIHEDRAL>
-2.55679

>  <SCORE.INTRA.DIHEDRAL.0>
4.64198

>  <SCORE.INTRA.POLAR>
0

>  <SCORE.INTRA.POLAR.0>
0

>  <SCORE.INTRA.REPUL>
0

>  <SCORE.INTRA.REPUL.0>
0

>  <SCORE.INTRA.SOLV>
0.173778

>  <SCORE.INTRA.SOLV.lig_0>
-49.3611

>  <SCORE.INTRA.VDW>
-0.0303969

>  <SCORE.INTRA.VDW.0>
-1.91858

>  <SCORE.INTRA.norm>
-0.0394163

>  <SCORE.RESTR>
0.00102989

>  <SCORE.RESTR.CAVITY>
0.00102989

>  <SCORE.RESTR.norm>
3.32223e-05

>  <SCORE.SYSTEM>
0

>  <SCORE.SYSTEM.CONST>
0

>  <SCORE.SYSTEM.DIHEDRAL>
0

>  <SCORE.SYSTEM.SOLV>
0

>  <SCORE.SYSTEM.norm>
0

>  <SCORE.heavy>
31

>  <SCORE.norm>
-1.05029

>  <RMSD>
0.843

$$$$
ligand
 OpenBabel11021811473D
libRbt.so/2013.1/901 2013/11/27
 31 33  0  0  0  0  0  0  0  0999 V2000
   26.0802   42.9581   16.6397 P   0  0  1  0  0  0  0  0  0  0  0  0
   24.6159   43.1196   16.3184 O   0  0  0  0  0  0  0  0  0  0  0  0
   26.8355   42.7472   15.3544 O   0  5  0  0  0  0  0  0  0  0  0  0
   26.5047   44.2149   17.3485 O   0  0  0  0  0  0  0  0  0  0  0  0
   27.7012   41.3914   17.9769 C   0  0  0  0  0  0  0  0  0  0  0  0
   26.3769   41.7055   17.5995 O   0  0  0  0  0  0  0  0  0  0  0  0
   27.6852   40.1781   18.9032 C   0  0  1  0  0  0  0  0  0  0  0  0
   26.8373   40.4305   20.0059 O   0  0  0  0  0  0  0  0  0  0  0  0
   27.1731   38.9592   18.1543 C   0  0  1  0  0  0  0  0  0  0  0  0
   28.1153   38.6119   17.1750 O   0  0  0  0  0  0  0  0  0  0  0  0
   26.9484   37.7645   19.0659 C   0  0  1  0  0  0  0  0  0  0  0  0
   26.3866   36.7299   18.3046 O   0  0  0  0  0  0  0  0  0  0  0  0
   28.2595   37.2873   19.6683 C   0  0  0  0  0  0  0  0  0  0  0  0
   28.3197   34.5184   19.1691 N   0  0  0  0  0  0  0  0  0  0  0  0
   28.3036   33.1755   18.8607 C   0  0  0  0  0  0  0  0  0  0  0  0
   28.5973   32.7998   17.7295 O   0  0  0  0  0  0  0  0  0  0  0  0
   27.9570   32.2449   19.8135 N   0  0  0  0  0  0  0  0  0  0  0  0
   27.6325   32.6491   21.0938 C   0  0  0  0  0  0  0  0  0  0  0  0
   27.6452   34.0021   21.4141 C   0  0  1  0  0  0  0  0  0  0  0  0
   27.3410   31.8102   21.9487 O   0  0  0  0  0  0  0  0  0  0  0  0
   27.3353   35.7582   23.0077 C   0  0  2  0  0  0  0  0  0  0  0  0
   27.3202   34.4132   22.6912 N   0  0  0  0  0  0  0  0  0  0  0  0
   27.0065   36.1724   24.2988 C   0  0  0  0  0  0  0  0  0  0  0  0
   27.0136   37.5232   24.6263 C   0  0  1  0  0  0  0  0  0  0  0  0
   26.6520   37.9305   26.0197 C   0  0  0  0  0  0  0  0  0  0  0  0
   27.3583   38.4742   23.6540 C   0  0  1  0  0  0  0  0  0  0  0  0
   27.3870   39.9445   23.9699 C   0  0  0  0  0  0  0  0  0  0  0  0
   27.6843   38.0579   22.3660 C   0  0  0  0  0  0  0  0  0  0  0  0
   27.6735   36.7018   22.0347 C   0  0  1  0  0  0  0  0  0  0  0  0
   27.9878   34.9389   20.4412 C   0  0  1  0  0  0  0  0  0  0  0  0
   27.9957   36.2853   20.7518 N   0  0  0  0  0  0  0  0  0  0  0  0
  1  2  1  6  0  0  0
  1  3  1  0  0  0  0
  1  4  2  0  0  0  0
  1  6  1  0  0  0  0
  5  6  1  0  0  0  0
  7  5  1  6  0  0  0
  7  8  1  0  0  0  0
  7  9  1  0  0  0  0
  9 10  1  6  0  0  0
  9 11  1  0  0  0  0
 11 12  1  6  0  0  0
 11 13  1  0  0  0  0
 13 31  1  0  0  0  0
 14 15  1  0  0  0  0
 15 16  2  0  0  0  0
 15 17  1  0  0  0  0
 17 18  1  0  0  0  0
 18 20  2  0  0  0  0
 19 18  1  1  0  0  0
 19 22  1  0  0  0  0
 19 30  1  0  0  0  0
 21 23  1  6  0  0  0
 21 29  1  0  0  0  0
 21 22  1  0  0  0  0
 23 24  1  0  0  0  0
 24 25  1  1  0  0  0
 24 26  1  0  0  0  0
 26 27  1  1  0  0  0
 26 28  1  0  0  0  0
 29 28  1  1  0  0  0
 29 31  1  0  0  0  0
 30 14  1  1  0  0  0
 30 31  1  0  0  0  0
M  CHG  1   3  -1
M  END
>  <CHROM.1>
179.05158493,178.62541262,-55.40193995,67.43274737,175.69948067,169.46333640
-82.65227757,27.23631831,37.87816910,19.92627329,-2.46245903,-1.39775289
1.74480322

>  <Name>
ligand

>  <RI>
0

>  <Rbt.Current_Directory>
/home/itssahil/PROJECTS/Mol_Feturizer/New_Systems/rnas/3F2T

>  <Rbt.Executable>
rbdock ($Id: //depot/dev/client3/rdock/2013.1/src/exe/rbdock.cxx#4 $)

>  <Rbt.Library>
libRbt.so (2013.1, Build901 2013/11/27)

>  <Rbt.Parameter_File>
/export/apps/rDock/src/rDock_2013.1_src/data/scripts/dock_solv.prm

>  <Rbt.Receptor>
prm/pocket_docking_3.prm

>  <SCORE>
-32.5813

>  <SCORE.INTER>
-31.2229

>  <SCORE.INTER.CONST>
1

>  <SCORE.INTER.POLAR>
0

>  <SCORE.INTER.ROT>
7

>  <SCORE.INTER.SOLV>
19.2955

>  <SCORE.INTER.VDW>
-35.5138

>  <SCORE.INTER.norm>
-1.00719

>  <SCORE.INTRA>
-1.35838

>  <SCORE.INTRA.DIHEDRAL>
-2.82109

>  <SCORE.INTRA.DIHEDRAL.0>
4.64198

>  <SCORE.INTRA.POLAR>
0

>  <SCORE.INTRA.POLAR.0>
0

>  <SCORE.INTRA.REPUL>
0

>  <SCORE.INTRA.REPUL.0>
0

>  <SCORE.INTRA.SOLV>
0.143315

>  <SCORE.INTRA.SOLV.lig_0>
-49.3611

>  <SCORE.INTRA.VDW>
-0.0194967

>  <SCORE.INTRA.VDW.0>
-1.91858

>  <SCORE.INTRA.norm>
-0.0438188

>  <SCORE.RESTR>
0

>  <SCORE.RESTR.CAVITY>
0

>  <SCORE.RESTR.norm>
0

>  <SCORE.SYSTEM>
0

>  <SCORE.SYSTEM.CONST>
0

>  <SCORE.SYSTEM.DIHEDRAL>
0

>  <SCORE.SYSTEM.SOLV>
0

>  <SCORE.SYSTEM.norm>
0

>  <SCORE.heavy>
31

>  <SCORE.norm>
-1.05101

>  <RMSD>
0.851

$$$$
ligand
 OpenBabel11021811473D
libRbt.so/2013.1/901 2013/11/27
 31 33  0  0  0  0  0  0  0  0999 V2000
   26.2919   43.0228   16.6088 P   0  0  1  0  0  0  0  0  0  0  0  0
   26.5848   42.8531   15.1396 O   0  0  0  0  0  0  0  0  0  0  0  0
   27.1550   44.1327   17.1475 O   0  5  0  0  0  0  0  0  0  0  0  0
   24.8256   43.3384   16.7200 O   0  0  0  0  0  0  0  0  0  0  0  0
   27.9243   41.2577   17.6529 C   0  0  0  0  0  0  0  0  0  0  0  0
   26.5958   41.6992   17.4655 O   0  0  0  0  0  0  0  0  0  0  0  0
   27.9344   40.1066   18.6554 C   0  0  1  0  0  0  0  0  0  0  0  0
   27.2577   40.4946   19.8346 O   0  0  0  0  0  0  0  0  0  0  0  0
   27.2378   38.8939   18.0615 C   0  0  1  0  0  0  0  0  0  0  0  0
   28.0510   38.3674   17.0473 O   0  0  0  0  0  0  0  0  0  0  0  0
   26.9725   37.8090   19.0918 C   0  0  1  0  0  0  0  0  0  0  0  0
   26.2417   36.7846   18.4735 O   0  0  0  0  0  0  0  0  0  0  0  0
   28.2755   37.2402   19.6287 C   0  0  0  0  0  0  0  0  0  0  0  0
   28.3330   34.4678   19.1491 N   0  0  0  0  0  0  0  0  0  0  0  0
   28.3165   33.1228   18.8496 C   0  0  0  0  0  0  0  0  0  0  0  0
   28.6223   32.7386   17.7246 O   0  0  0  0  0  0  0  0  0  0  0  0
   27.9560   32.1998   19.8046 N   0  0  0  0  0  0  0  0  0  0  0  0
   27.6179   32.6137   21.0783 C   0  0  0  0  0  0  0  0  0  0  0  0
   27.6309   33.9688   21.3895 C   0  0  1  0  0  0  0  0  0  0  0  0
   27.3139   31.7815   21.9354 O   0  0  0  0  0  0  0  0  0  0  0  0
   27.3078   35.7367   22.9674 C   0  0  2  0  0  0  0  0  0  0  0  0
   27.2923   34.3895   22.6600 N   0  0  0  0  0  0  0  0  0  0  0  0
   26.9652   36.1606   24.2518 C   0  0  0  0  0  0  0  0  0  0  0  0
   26.9725   37.5135   24.5702 C   0  0  1  0  0  0  0  0  0  0  0  0
   26.5960   37.9314   25.9564 C   0  0  0  0  0  0  0  0  0  0  0  0
   27.3314   38.4569   23.5956 C   0  0  1  0  0  0  0  0  0  0  0  0
   27.3608   39.9292   23.9017 C   0  0  0  0  0  0  0  0  0  0  0  0
   27.6712   38.0309   22.3143 C   0  0  0  0  0  0  0  0  0  0  0  0
   27.6601   36.6725   21.9921 C   0  0  1  0  0  0  0  0  0  0  0  0
   27.9877   34.8979   20.4143 C   0  0  1  0  0  0  0  0  0  0  0  0
   27.9960   36.2464   20.7158 N   0  0  0  0  0  0  0  0  0  0  0  0
  1  2  1  6  0  0  0
  1  3  1  0  0  0  0
  1  4  2  0  0  0  0
  1  6  1  0  0  0  0
  5  6  1  0  0  0  0
  7  5  1  6  0  0  0
  7  8  1  0  0  0  0
  7  9  1  0  0  0  0
  9 10  1  6  0  0  0
  9 11  1  0  0  0  0
 11 12  1  6  0  0  0
 11 13  1  0  0  0  0
 13 31  1  0  0  0  0
 14 15  1  0  0  0  0
 15 16  2  0  0  0  0
 15 17  1  0  0  0  0
 17 18  1  0  0  0  0
 18 20  2  0  0  0  0
 19 18  1  1  0  0  0
 19 22  1  0  0  0  0
 19 30  1  0  0  0  0
 21 23  1  6  0  0  0
 21 29  1  0  0  0  0
 21 22  1  0  0  0  0
 23 24  1  0  0  0  0
 24 25  1  1  0  0  0
 24 26  1  0  0  0  0
 26 27  1  1  0  0  0
 26 28  1  0  0  0  0
 29 28  1  1  0  0  0
 29 31  1  0  0  0  0
 30 14  1  1  0  0  0
 30 31  1  0  0  0  0
M  CHG  1   3  -1
M  END
>  <CHROM.1>
172.14791881,68.85641592,-52.87531064,70.58915891,175.57446187,175.76673151
-77.65503493,27.29723076,37.86213843,19.87559756,-2.31833300,-1.40953505
1.88861915

>  <Name>
ligand

>  <RI>
0

>  <Rbt.Current_Directory>
/home/itssahil/PROJECTS/Mol_Feturizer/New_Systems/rnas/3F2T

>  <Rbt.Executable>
rbdock ($Id: //depot/dev/client3/rdock/2013.1/src/exe/rbdock.cxx#4 $)

>  <Rbt.Library>
libRbt.so (2013.1, Build901 2013/11/27)

>  <Rbt.Parameter_File>
/export/apps/rDock/src/rDock_2013.1_src/data/scripts/dock_solv.prm

>  <Rbt.Receptor>
prm/pocket_docking_2.prm

>  <SCORE>
-33.5136

>  <SCORE.INTER>
-32.2522

>  <SCORE.INTER.CONST>
1

>  <SCORE.INTER.POLAR>
0

>  <SCORE.INTER.ROT>
7

>  <SCORE.INTER.SOLV>
18.1541

>  <SCORE.INTER.VDW>
-35.8195

>  <SCORE.INTER.norm>
-1.04039

>  <SCORE.INTRA>
-1.26964

>  <SCORE.INTRA.DIHEDRAL>
-2.42663

>  <SCORE.INTRA.DIHEDRAL.0>
4.64198

>  <SCORE.INTRA.POLAR>
0

>  <SCORE.INTRA.POLAR.0>
0

>  <SCORE.INTRA.REPUL>
0

>  <SCORE.INTRA.REPUL.0>
0

>  <SCORE.INTRA.SOLV>
-0.282593

>  <SCORE.INTRA.SOLV.lig_0>
-49.3611

>  <SCORE.INTRA.VDW>
0.084972

>  <SCORE.INTRA.VDW.0>
-1.91858

>  <SCORE.INTRA.norm>
-0.0409561

>  <SCORE.RESTR>
0.00819453

>  <SCORE.RESTR.CAVITY>
0.00819453

>  <SCORE.RESTR.norm>
0.00026434

>  <SCORE.SYSTEM>
0

>  <SCORE.SYSTEM.CONST>
0

>  <SCORE.SYSTEM.DIHEDRAL>
0

>  <SCORE.SYSTEM.SOLV>
0

>  <SCORE.SYSTEM.norm>
0

>  <SCORE.heavy>
31

>  <SCORE.norm>
-1.08109

>  <RMSD>
0.855

$$$$
ligand
 OpenBabel11021811473D
libRbt.so/2013.1/901 2013/11/27
 31 33  0  0  0  0  0  0  0  0999 V2000
   27.7212   42.7255   16.2944 P   0  0  1  0  0  0  0  0  0  0  0  0
   27.9332   44.0674   16.9483 O   0  0  0  0  0  0  0  0  0  0  0  0
   26.4703   42.7884   15.4589 O   0  5  0  0  0  0  0  0  0  0  0  0
   28.9459   42.4549   15.4644 O   0  0  0  0  0  0  0  0  0  0  0  0
   28.6028   41.1981   18.2336 C   0  0  0  0  0  0  0  0  0  0  0  0
   27.5489   41.5319   17.3546 O   0  0  0  0  0  0  0  0  0  0  0  0
   28.1694   40.0314   19.1174 C   0  0  1  0  0  0  0  0  0  0  0  0
   27.1190   40.4427   19.9697 O   0  0  0  0  0  0  0  0  0  0  0  0
   27.6840   38.8784   18.2551 C   0  0  1  0  0  0  0  0  0  0  0  0
   28.7071   38.5321   17.3603 O   0  0  0  0  0  0  0  0  0  0  0  0
   27.3106   37.6534   19.0728 C   0  0  1  0  0  0  0  0  0  0  0  0
   26.7484   36.7027   18.2091 O   0  0  0  0  0  0  0  0  0  0  0  0
   28.5354   37.0559   19.7454 C   0  0  0  0  0  0  0  0  0  0  0  0
   28.4693   34.2809   19.2819 N   0  0  0  0  0  0  0  0  0  0  0  0
   28.3980   32.9367   18.9870 C   0  0  0  0  0  0  0  0  0  0  0  0
   28.7647   32.5266   17.8896 O   0  0  0  0  0  0  0  0  0  0  0  0
   27.9144   32.0435   19.9155 N   0  0  0  0  0  0  0  0  0  0  0  0
   27.5060   32.4862   21.1586 C   0  0  0  0  0  0  0  0  0  0  0  0
   27.5736   33.8408   21.4648 C   0  0  1  0  0  0  0  0  0  0  0  0
   27.0912   31.6796   21.9934 O   0  0  0  0  0  0  0  0  0  0  0  0
   27.2351   35.6369   23.0073 C   0  0  2  0  0  0  0  0  0  0  0  0
   27.1653   34.2904   22.7046 N   0  0  0  0  0  0  0  0  0  0  0  0
   26.8221   36.0900   24.2606 C   0  0  0  0  0  0  0  0  0  0  0  0
   26.8832   37.4428   24.5736 C   0  0  1  0  0  0  0  0  0  0  0  0
   26.4284   37.8927   25.9259 C   0  0  0  0  0  0  0  0  0  0  0  0
   27.3679   38.3563   23.6253 C   0  0  1  0  0  0  0  0  0  0  0  0
   27.4588   39.8270   23.9273 C   0  0  0  0  0  0  0  0  0  0  0  0
   27.7778   37.9013   22.3748 C   0  0  0  0  0  0  0  0  0  0  0  0
   27.7129   36.5433   22.0578 C   0  0  1  0  0  0  0  0  0  0  0  0
   28.0553   34.7402   20.5159 C   0  0  1  0  0  0  0  0  0  0  0  0
   28.1185   36.0884   20.8121 N   0  0  0  0  0  0  0  0  0  0  0  0
  1  2  1  1  0  0  0
  1  3  1  0  0  0  0
  1  4  2  0  0  0  0
  1  6  1  0  0  0  0
  5  6  1  0  0  0  0
  7  5  1  6  0  0  0
  7  8  1  0  0  0  0
  7  9  1  0  0  0  0
  9 10  1  6  0  0  0
  9 11  1  0  0  0  0
 11 12  1  6  0  0  0
 11 13  1  0  0  0  0
 13 31  1  0  0  0  0
 14 15  1  0  0  0  0
 15 16  2  0  0  0  0
 15 17  1  0  0  0  0
 17 18  1  0  0  0  0
 18 20  2  0  0  0  0
 19 18  1  1  0  0  0
 19 22  1  0  0  0  0
 19 30  1  0  0  0  0
 21 23  1  6  0  0  0
 21 29  1  0  0  0  0
 21 22  1  0  0  0  0
 23 24  1  0  0  0  0
 24 25  1  1  0  0  0
 24 26  1  0  0  0  0
 26 27  1  1  0  0  0
 26 28  1  0  0  0  0
 29 28  1  1  0  0  0
 29 31  1  0  0  0  0
 30 14  1  1  0  0  0
 30 31  1  0  0  0  0
M  CHG  1   3  -1
M  END
>  <CHROM.1>
-179.67083104,-62.85669247,-66.17080823,56.18982156,173.95040831,165.38078736
-79.85061490,27.69041972,37.71892988,19.89221348,-1.40356170,-1.40637641
2.75491569

>  <Name>
ligand

>  <RI>
0

>  <Rbt.Current_Directory>
/home/itssahil/PROJECTS/Mol_Feturizer/New_Systems/rnas/3F2T

>  <Rbt.Executable>
rbdock ($Id: //depot/dev/client3/rdock/2013.1/src/exe/rbdock.cxx#4 $)

>  <Rbt.Library>
libRbt.so (2013.1, Build901 2013/11/27)

>  <Rbt.Parameter_File>
/export/apps/rDock/src/rDock_2013.1_src/data/scripts/dock_solv.prm

>  <Rbt.Receptor>
prm/blind_docking_60.prm

>  <SCORE>
-32.7663

>  <SCORE.INTER>
-31.5223

>  <SCORE.INTER.CONST>
1

>  <SCORE.INTER.POLAR>
0

>  <SCORE.INTER.ROT>
7

>  <SCORE.INTER.SOLV>
22.6404

>  <SCORE.INTER.VDW>
-36.8283

>  <SCORE.INTER.norm>
-1.01685

>  <SCORE.INTRA>
-1.24402

>  <SCORE.INTRA.DIHEDRAL>
-2.48062

>  <SCORE.INTRA.DIHEDRAL.0>
4.64198

>  <SCORE.INTRA.POLAR>
0

>  <SCORE.INTRA.POLAR.0>
0

>  <SCORE.INTRA.REPUL>
0

>  <SCORE.INTRA.REPUL.0>
0

>  <SCORE.INTRA.SOLV>
-0.330203

>  <SCORE.INTRA.SOLV.lig_0>
-49.3611

>  <SCORE.INTRA.VDW>
0.161393

>  <SCORE.INTRA.VDW.0>
-1.91858

>  <SCORE.INTRA.norm>
-0.0401296

>  <SCORE.RESTR>
0

>  <SCORE.RESTR.CAVITY>
0

>  <SCORE.RESTR.norm>
0

>  <SCORE.SYSTEM>
0

>  <SCORE.SYSTEM.CONST>
0

>  <SCORE.SYSTEM.DIHEDRAL>
0

>  <SCORE.SYSTEM.SOLV>
0

>  <SCORE.SYSTEM.norm>
0

>  <SCORE.heavy>
31

>  <SCORE.norm>
-1.05698

>  <RMSD>
0.864

$$$$
ligand
 OpenBabel11021811473D
libRbt.so/2013.1/901 2013/11/27
 31 33  0  0  0  0  0  0  0  0999 V2000
   26.5575   43.0484   16.6927 P   0  0  1  0  0  0  0  0  0  0  0  0
   26.4752   42.7093   15.2259 O   0  0  0  0  0  0  0  0  0  0  0  0
   27.6402   44.0759   16.8901 O   0  5  0  0  0  0  0  0  0  0  0  0
   25.2027   43.5673   17.0894 O   0  0  0  0  0  0  0  0  0  0  0  0
   28.1906   41.1915   17.5617 C   0  0  0  0  0  0  0  0  0  0  0  0
   26.9069   41.7784   17.6109 O   0  0  0  0  0  0  0  0  0  0  0  0
   28.2447   40.0190   18.5377 C   0  0  1  0  0  0  0  0  0  0  0  0
   27.8786   40.4573   19.8311 O   0  0  0  0  0  0  0  0  0  0  0  0
   27.2837   38.9288   18.0944 C   0  0  1  0  0  0  0  0  0  0  0  0
   27.8410   38.2683   16.9897 O   0  0  0  0  0  0  0  0  0  0  0  0
   27.0090   37.9109   19.1885 C   0  0  1  0  0  0  0  0  0  0  0  0
   26.0875   36.9752   18.6975 O   0  0  0  0  0  0  0  0  0  0  0  0
   28.2850   37.1915   19.5933 C   0  0  0  0  0  0  0  0  0  0  0  0
   28.3280   34.4161   19.1294 N   0  0  0  0  0  0  0  0  0  0  0  0
   28.3045   33.0696   18.8375 C   0  0  0  0  0  0  0  0  0  0  0  0
   28.6103   32.6773   17.7153 O   0  0  0  0  0  0  0  0  0  0  0  0
   27.9368   32.1541   19.7970 N   0  0  0  0  0  0  0  0  0  0  0  0
   27.5985   32.5770   21.0676 C   0  0  0  0  0  0  0  0  0  0  0  0
   27.6186   33.9338   21.3712 C   0  0  1  0  0  0  0  0  0  0  0  0
   27.2881   31.7515   21.9288 O   0  0  0  0  0  0  0  0  0  0  0  0
   27.3022   35.7124   22.9384 C   0  0  2  0  0  0  0  0  0  0  0  0
   27.2797   34.3636   22.6386 N   0  0  0  0  0  0  0  0  0  0  0  0
   26.9594   36.1455   24.2197 C   0  0  0  0  0  0  0  0  0  0  0  0
   26.9737   37.5002   24.5305 C   0  0  1  0  0  0  0  0  0  0  0  0
   26.5968   37.9280   25.9135 C   0  0  0  0  0  0  0  0  0  0  0  0
   27.3399   38.4360   23.5512 C   0  0  1  0  0  0  0  0  0  0  0  0
   27.3770   39.9098   23.8491 C   0  0  0  0  0  0  0  0  0  0  0  0
   27.6798   38.0008   22.2730 C   0  0  0  0  0  0  0  0  0  0  0  0
   27.6618   36.6407   21.9585 C   0  0  1  0  0  0  0  0  0  0  0  0
   27.9825   34.8554   20.3915 C   0  0  1  0  0  0  0  0  0  0  0  0
   27.9978   36.2055   20.6854 N   0  0  0  0  0  0  0  0  0  0  0  0
  1  2  1  6  0  0  0
  1  3  1  0  0  0  0
  1  4  2  0  0  0  0
  1  6  1  0  0  0  0
  5  6  1  0  0  0  0
  7  5  1  6  0  0  0
  7  8  1  0  0  0  0
  7  9  1  0  0  0  0
  9 10  1  6  0  0  0
  9 11  1  0  0  0  0
 11 12  1  6  0  0  0
 11 13  1  0  0  0  0
 13 31  1  0  0  0  0
 14 15  1  0  0  0  0
 15 16  2  0  0  0  0
 15 17  1  0  0  0  0
 17 18  1  0  0  0  0
 18 20  2  0  0  0  0
 19 18  1  1  0  0  0
 19 22  1  0  0  0  0
 19 30  1  0  0  0  0
 21 23  1  6  0  0  0
 21 29  1  0  0  0  0
 21 22  1  0  0  0  0
 23 24  1  0  0  0  0
 24 25  1  1  0  0  0
 24 26  1  0  0  0  0
 26 27  1  1  0  0  0
 26 28  1  0  0  0  0
 29 28  1  1  0  0  0
 29 31  1  0  0  0  0
 30 14  1  1  0  0  0
 30 31  1  0  0  0  0
M  CHG  1   3  -1
M  END
>  <CHROM.1>
179.56407189,69.69311427,-55.20620093,74.64559196,178.30181248,179.24049979
-69.51737582,27.37979099,37.85022697,19.88201076,-2.17287682,-1.42800000
2.04598801

>  <Name>
ligand

>  <RI>
0

>  <Rbt.Current_Directory>
/home/itssahil/PROJECTS/Mol_Feturizer/New_Systems/rnas/3F2T

>  <Rbt.Executable>
rbdock ($Id: //depot/dev/client3/rdock/2013.1/src/exe/rbdock.cxx#4 $)

>  <Rbt.Library>
libRbt.so (2013.1, Build901 2013/11/27)

>  <Rbt.Parameter_File>
/export/apps/rDock/src/rDock_2013.1_src/data/scripts/dock_solv.prm

>  <Rbt.Receptor>
prm/pocket_docking_2.prm

>  <SCORE>
-33.4021

>  <SCORE.INTER>
-32.2738

>  <SCORE.INTER.CONST>
1

>  <SCORE.INTER.POLAR>
0

>  <SCORE.INTER.ROT>
7

>  <SCORE.INTER.SOLV>
18.2849

>  <SCORE.INTER.VDW>
-35.8775

>  <SCORE.INTER.norm>
-1.04109

>  <SCORE.INTRA>
-1.1544

>  <SCORE.INTRA.DIHEDRAL>
-2.5362

>  <SCORE.INTRA.DIHEDRAL.0>
4.64198

>  <SCORE.INTRA.POLAR>
0

>  <SCORE.INTRA.POLAR.0>
0

>  <SCORE.INTRA.REPUL>
0

>  <SCORE.INTRA.REPUL.0>
0

>  <SCORE.INTRA.SOLV>
-0.298632

>  <SCORE.INTRA.SOLV.lig_0>
-49.3611

>  <SCORE.INTRA.VDW>
0.263018

>  <SCORE.INTRA.VDW.0>
-1.91858

>  <SCORE.INTRA.norm>
-0.0372386

>  <SCORE.RESTR>
0.026086

>  <SCORE.RESTR.CAVITY>
0.026086

>  <SCORE.RESTR.norm>
0.000841485

>  <SCORE.SYSTEM>
0

>  <SCORE.SYSTEM.CONST>
0

>  <SCORE.SYSTEM.DIHEDRAL>
0

>  <SCORE.SYSTEM.SOLV>
0

>  <SCORE.SYSTEM.norm>
0

>  <SCORE.heavy>
31

>  <SCORE.norm>
-1.07749

>  <RMSD>
0.884

$$$$
ligand
 OpenBabel11021811473D
libRbt.so/2013.1/901 2013/11/27
 31 33  0  0  0  0  0  0  0  0999 V2000
   26.5032   43.8588   16.6422 P   0  0  1  0  0  0  0  0  0  0  0  0
   25.8009   45.1208   17.0750 O   0  0  0  0  0  0  0  0  0  0  0  0
   25.8151   43.3202   15.4161 O   0  5  0  0  0  0  0  0  0  0  0  0
   27.9339   44.2356   16.3714 O   0  0  0  0  0  0  0  0  0  0  0  0
   27.2384   41.5318   17.5989 C   0  0  0  0  0  0  0  0  0  0  0  0
   26.4811   42.7123   17.7661 O   0  0  0  0  0  0  0  0  0  0  0  0
   26.9889   40.6027   18.7841 C   0  0  1  0  0  0  0  0  0  0  0  0
   25.6229   40.2410   18.8278 O   0  0  0  0  0  0  0  0  0  0  0  0
   27.8295   39.3448   18.6444 C   0  0  1  0  0  0  0  0  0  0  0  0
   29.1643   39.6693   18.9278 O   0  0  0  0  0  0  0  0  0  0  0  0
   27.3833   38.2361   19.5827 C   0  0  1  0  0  0  0  0  0  0  0  0
   26.2369   37.6369   19.0418 O   0  0  0  0  0  0  0  0  0  0  0  0
   28.4708   37.1859   19.7379 C   0  0  0  0  0  0  0  0  0  0  0  0
   28.4336   34.4159   19.2422 N   0  0  0  0  0  0  0  0  0  0  0  0
   28.3748   33.0745   18.9326 C   0  0  0  0  0  0  0  0  0  0  0  0
   28.7249   32.6825   17.8232 O   0  0  0  0  0  0  0  0  0  0  0  0
   27.9225   32.1636   19.8598 N   0  0  0  0  0  0  0  0  0  0  0  0
   27.5333   32.5859   21.1160 C   0  0  0  0  0  0  0  0  0  0  0  0
   27.5884   33.9376   21.4372 C   0  0  1  0  0  0  0  0  0  0  0  0
   27.1467   31.7638   21.9493 O   0  0  0  0  0  0  0  0  0  0  0  0
   27.2566   35.7104   23.0078 C   0  0  2  0  0  0  0  0  0  0  0  0
   27.1992   34.3668   22.6903 N   0  0  0  0  0  0  0  0  0  0  0  0
   26.8628   36.1429   24.2746 C   0  0  0  0  0  0  0  0  0  0  0  0
   26.9116   37.4926   24.6026 C   0  0  1  0  0  0  0  0  0  0  0  0
   26.4782   37.9200   25.9691 C   0  0  0  0  0  0  0  0  0  0  0  0
   27.3643   38.4239   23.6558 C   0  0  1  0  0  0  0  0  0  0  0  0
   27.4411   39.8921   23.9738 C   0  0  0  0  0  0  0  0  0  0  0  0
   27.7550   37.9895   22.3920 C   0  0  0  0  0  0  0  0  0  0  0  0
   27.7024   36.6345   22.0600 C   0  0  1  0  0  0  0  0  0  0  0  0
   28.0384   34.8548   20.4897 C   0  0  1  0  0  0  0  0  0  0  0  0
   28.0890   36.2002   20.8009 N   0  0  0  0  0  0  0  0  0  0  0  0
  1  2  1  1  0  0  0
  1  3  1  0  0  0  0
  1  4  2  0  0  0  0
  1  6  1  0  0  0  0
  5  6  1  0  0  0  0
  7  5  1  6  0  0  0
  7  8  1  0  0  0  0
  7  9  1  0  0  0  0
  9 10  1  1  0  0  0
  9 11  1  0  0  0  0
 11 12  1  6  0  0  0
 11 13  1  0  0  0  0
 13 31  1  0  0  0  0
 14 15  1  0  0  0  0
 15 16  2  0  0  0  0
 15 17  1  0  0  0  0
 17 18  1  0  0  0  0
 18 20  2  0  0  0  0
 19 18  1  1  0  0  0
 19 22  1  0  0  0  0
 19 30  1  0  0  0  0
 21 23  1  6  0  0  0
 21 29  1  0  0  0  0
 21 22  1  0  0  0  0
 23 24  1  0  0  0  0
 24 25  1  1  0  0  0
 24 26  1  0  0  0  0
 26 27  1  1  0  0  0
 26 28  1  0  0  0  0
 29 28  1  1  0  0  0
 29 31  1  0  0  0  0
 30 14  1  1  0  0  0
 30 31  1  0  0  0  0
M  CHG  1   3  -1
M  END
>  <CHROM.1>
-177.84159567,-171.73911582,61.87804986,73.86579412,77.89045689,172.52117901
-51.91901182,27.30694521,38.13667874,20.00129029,-2.16878406,-1.39592961
2.08622716

>  <Name>
ligand

>  <RI>
0

>  <Rbt.Current_Directory>
/home/itssahil/PROJECTS/Mol_Feturizer/New_Systems/rnas/3F2T

>  <Rbt.Executable>
rbdock ($Id: //depot/dev/client3/rdock/2013.1/src/exe/rbdock.cxx#4 $)

>  <Rbt.Library>
libRbt.so (2013.1, Build901 2013/11/27)

>  <Rbt.Parameter_File>
/export/apps/rDock/src/rDock_2013.1_src/data/scripts/dock_solv.prm

>  <Rbt.Receptor>
prm/pocket_docking_5.prm

>  <SCORE>
-31.4389

>  <SCORE.INTER>
-32.0723

>  <SCORE.INTER.CONST>
1

>  <SCORE.INTER.POLAR>
0

>  <SCORE.INTER.ROT>
7

>  <SCORE.INTER.SOLV>
22.0501

>  <SCORE.INTER.VDW>
-36.9983

>  <SCORE.INTER.norm>
-1.03459

>  <SCORE.INTRA>
0.633428

>  <SCORE.INTRA.DIHEDRAL>
-1.29578

>  <SCORE.INTRA.DIHEDRAL.0>
4.64198

>  <SCORE.INTRA.POLAR>
0

>  <SCORE.INTRA.POLAR.0>
0

>  <SCORE.INTRA.REPUL>
0

>  <SCORE.INTRA.REPUL.0>
0

>  <SCORE.INTRA.SOLV>
-0.10622

>  <SCORE.INTRA.SOLV.lig_0>
-49.3611

>  <SCORE.INTRA.VDW>
1.33443

>  <SCORE.INTRA.VDW.0>
-1.91858

>  <SCORE.INTRA.norm>
0.0204332

>  <SCORE.RESTR>
0

>  <SCORE.RESTR.CAVITY>
0

>  <SCORE.RESTR.norm>
0

>  <SCORE.SYSTEM>
0

>  <SCORE.SYSTEM.CONST>
0

>  <SCORE.SYSTEM.DIHEDRAL>
0

>  <SCORE.SYSTEM.SOLV>
0

>  <SCORE.SYSTEM.norm>
0

>  <SCORE.heavy>
31

>  <SCORE.norm>
-1.01416

>  <RMSD>
0.893

$$$$
ligand
 OpenBabel11021811473D
libRbt.so/2013.1/901 2013/11/27
 31 33  0  0  0  0  0  0  0  0999 V2000
   26.9163   43.1291   16.8412 P   0  0  1  0  0  0  0  0  0  0  0  0
   28.1210   44.0287   16.7292 O   0  0  0  0  0  0  0  0  0  0  0  0
   25.7647   43.9309   17.3868 O   0  5  0  0  0  0  0  0  0  0  0  0
   26.6405   42.6075   15.4577 O   0  0  0  0  0  0  0  0  0  0  0  0
   28.4131   41.2355   17.8632 C   0  0  0  0  0  0  0  0  0  0  0  0
   27.1565   41.8788   17.8197 O   0  0  0  0  0  0  0  0  0  0  0  0
   28.3474   40.0709   18.8479 C   0  0  1  0  0  0  0  0  0  0  0  0
   27.8838   40.5313   20.1016 O   0  0  0  0  0  0  0  0  0  0  0  0
   27.3964   39.0051   18.3297 C   0  0  1  0  0  0  0  0  0  0  0  0
   27.9887   38.3831   17.2208 O   0  0  0  0  0  0  0  0  0  0  0  0
   27.0774   37.9484   19.3739 C   0  0  1  0  0  0  0  0  0  0  0  0
   26.1549   37.0486   18.8213 O   0  0  0  0  0  0  0  0  0  0  0  0
   28.3310   37.1924   19.7816 C   0  0  0  0  0  0  0  0  0  0  0  0
   28.3318   34.4102   19.3581 N   0  0  0  0  0  0  0  0  0  0  0  0
   28.2886   33.0602   19.0854 C   0  0  0  0  0  0  0  0  0  0  0  0
   28.5990   32.6466   17.9721 O   0  0  0  0  0  0  0  0  0  0  0  0
   27.8960   32.1650   20.0541 N   0  0  0  0  0  0  0  0  0  0  0  0
   27.5520   32.6120   21.3149 C   0  0  0  0  0  0  0  0  0  0  0  0
   27.5919   33.9724   21.5992 C   0  0  1  0  0  0  0  0  0  0  0  0
   27.2191   31.8043   22.1847 O   0  0  0  0  0  0  0  0  0  0  0  0
   27.2899   35.7786   23.1374 C   0  0  2  0  0  0  0  0  0  0  0  0
   27.2477   34.4263   22.8567 N   0  0  0  0  0  0  0  0  0  0  0  0
   26.9416   36.2360   24.4087 C   0  0  0  0  0  0  0  0  0  0  0  0
   26.9756   37.5946   24.7001 C   0  0  1  0  0  0  0  0  0  0  0  0
   26.5920   38.0488   26.0729 C   0  0  0  0  0  0  0  0  0  0  0  0
   27.3672   38.5098   23.7114 C   0  0  1  0  0  0  0  0  0  0  0  0
   27.4262   39.9870   23.9885 C   0  0  0  0  0  0  0  0  0  0  0  0
   27.7126   38.0505   22.4431 C   0  0  0  0  0  0  0  0  0  0  0  0
   27.6748   36.6865   22.1480 C   0  0  1  0  0  0  0  0  0  0  0  0
   27.9812   34.8735   20.6102 C   0  0  1  0  0  0  0  0  0  0  0  0
   28.0163   36.2273   20.8848 N   0  0  0  0  0  0  0  0  0  0  0  0
  1  2  1  6  0  0  0
  1  3  1  0  0  0  0
  1  4  2  0  0  0  0
  1  6  1  0  0  0  0
  5  6  1  0  0  0  0
  7  5  1  6  0  0  0
  7  8  1  0  0  0  0
  7  9  1  0  0  0  0
  9 10  1  6  0  0  0
  9 11  1  0  0  0  0
 11 12  1  6  0  0  0
 11 13  1  0  0  0  0
 13 31  1  0  0  0  0
 14 15  1  0  0  0  0
 15 16  2  0  0  0  0
 15 17  1  0  0  0  0
 17 18  1  0  0  0  0
 18 20  2  0  0  0  0
 19 18  1  1  0  0  0
 19 22  1  0  0  0  0
 19 30  1  0  0  0  0
 21 23  1  6  0  0  0
 21 29  1  0  0  0  0
 21 22  1  0  0  0  0
 23 24  1  0  0  0  0
 24 25  1  1  0  0  0
 24 26  1  0  0  0  0
 26 27  1  1  0  0  0
 26 28  1  0  0  0  0
 29 28  1  1  0  0  0
 29 31  1  0  0  0  0
 30 14  1  1  0  0  0
 30 31  1  0  0  0  0
M  CHG  1   3  -1
M  END
>  <CHROM.1>
-178.72168298,-36.93084403,-53.88372351,70.47270618,177.53487007,175.73617625
-68.30899743,27.47693372,37.90632441,20.08238326,-1.92310019,-1.44032706
2.29469274

>  <Name>
ligand

>  <RI>
0

>  <Rbt.Current_Directory>
/home/itssahil/PROJECTS/Mol_Feturizer/New_Systems/rnas/3F2T

>  <Rbt.Executable>
rbdock ($Id: //depot/dev/client3/rdock/2013.1/src/exe/rbdock.cxx#4 $)

>  <Rbt.Library>
libRbt.so (2013.1, Build901 2013/11/27)

>  <Rbt.Parameter_File>
/export/apps/rDock/src/rDock_2013.1_src/data/scripts/dock_solv.prm

>  <Rbt.Receptor>
prm/pocket_docking_5.prm

>  <SCORE>
-33.2675

>  <SCORE.INTER>
-32.1148

>  <SCORE.INTER.CONST>
1

>  <SCORE.INTER.POLAR>
0

>  <SCORE.INTER.ROT>
7

>  <SCORE.INTER.SOLV>
19.4188

>  <SCORE.INTER.VDW>
-36.1494

>  <SCORE.INTER.norm>
-1.03596

>  <SCORE.INTRA>
-1.15269

>  <SCORE.INTRA.DIHEDRAL>
-2.15463

>  <SCORE.INTRA.DIHEDRAL.0>
4.64198

>  <SCORE.INTRA.POLAR>
0

>  <SCORE.INTRA.POLAR.0>
0

>  <SCORE.INTRA.REPUL>
0

>  <SCORE.INTRA.REPUL.0>
0

>  <SCORE.INTRA.SOLV>
-0.495669

>  <SCORE.INTRA.SOLV.lig_0>
-49.3611

>  <SCORE.INTRA.VDW>
0.17246

>  <SCORE.INTRA.VDW.0>
-1.91858

>  <SCORE.INTRA.norm>
-0.0371835

>  <SCORE.RESTR>
0

>  <SCORE.RESTR.CAVITY>
0

>  <SCORE.RESTR.norm>
0

>  <SCORE.SYSTEM>
0

>  <SCORE.SYSTEM.CONST>
0

>  <SCORE.SYSTEM.DIHEDRAL>
0

>  <SCORE.SYSTEM.SOLV>
0

>  <SCORE.SYSTEM.norm>
0

>  <SCORE.heavy>
31

>  <SCORE.norm>
-1.07314

>  <RMSD>
0.899

$$$$
ligand
 OpenBabel11021811473D
libRbt.so/2013.1/901 2013/11/27
 31 33  0  0  0  0  0  0  0  0999 V2000
   27.3085   42.8962   16.2829 P   0  0  1  0  0  0  0  0  0  0  0  0
   26.1678   42.9128   15.2970 O   0  0  0  0  0  0  0  0  0  0  0  0
   28.6023   42.7818   15.5215 O   0  5  0  0  0  0  0  0  0  0  0  0
   27.2197   44.1791   17.0628 O   0  0  0  0  0  0  0  0  0  0  0  0
   28.3304   41.3547   18.1403 C   0  0  0  0  0  0  0  0  0  0  0  0
   27.2295   41.6663   17.3122 O   0  0  0  0  0  0  0  0  0  0  0  0
   27.9651   40.1762   19.0391 C   0  0  1  0  0  0  0  0  0  0  0  0
   26.8923   40.5365   19.8864 O   0  0  0  0  0  0  0  0  0  0  0  0
   27.5481   38.9859   18.1918 C   0  0  1  0  0  0  0  0  0  0  0  0
   28.5939   38.6822   17.3079 O   0  0  0  0  0  0  0  0  0  0  0  0
   27.2363   37.7548   19.0260 C   0  0  1  0  0  0  0  0  0  0  0  0
   26.7137   36.7689   18.1768 O   0  0  0  0  0  0  0  0  0  0  0  0
   28.4912   37.2225   19.6979 C   0  0  0  0  0  0  0  0  0  0  0  0
   28.4644   34.4517   19.2057 N   0  0  0  0  0  0  0  0  0  0  0  0
   28.4100   33.1096   18.8982 C   0  0  0  0  0  0  0  0  0  0  0  0
   28.7505   32.7184   17.7857 O   0  0  0  0  0  0  0  0  0  0  0  0
   27.9726   32.1973   19.8312 N   0  0  0  0  0  0  0  0  0  0  0  0
   27.5943   32.6188   21.0910 C   0  0  0  0  0  0  0  0  0  0  0  0
   27.6452   33.9712   21.4101 C   0  0  1  0  0  0  0  0  0  0  0  0
   27.2212   31.7956   21.9292 O   0  0  0  0  0  0  0  0  0  0  0  0
   27.3199   35.7440   22.9821 C   0  0  2  0  0  0  0  0  0  0  0  0
   27.2668   34.3996   22.6667 N   0  0  0  0  0  0  0  0  0  0  0  0
   26.9371   36.1757   24.2525 C   0  0  0  0  0  0  0  0  0  0  0  0
   26.9818   37.5261   24.5785 C   0  0  1  0  0  0  0  0  0  0  0  0
   26.5604   37.9526   25.9491 C   0  0  0  0  0  0  0  0  0  0  0  0
   27.4192   38.4588   23.6260 C   0  0  1  0  0  0  0  0  0  0  0  0
   27.4910   39.9277   23.9414 C   0  0  0  0  0  0  0  0  0  0  0  0
   27.7990   38.0251   22.3585 C   0  0  0  0  0  0  0  0  0  0  0  0
   27.7505   36.6695   22.0286 C   0  0  1  0  0  0  0  0  0  0  0  0
   28.0799   34.8899   20.4569 C   0  0  1  0  0  0  0  0  0  0  0  0
   28.1262   36.2358   20.7660 N   0  0  0  0  0  0  0  0  0  0  0  0
  1  2  1  6  0  0  0
  1  3  1  0  0  0  0
  1  4  2  0  0  0  0
  1  6  1  0  0  0  0
  5  6  1  0  0  0  0
  7  5  1  6  0  0  0
  7  8  1  0  0  0  0
  7  9  1  0  0  0  0
  9 10  1  6  0  0  0
  9 11  1  0  0  0  0
 11 12  1  6  0  0  0
 11 13  1  0  0  0  0
 13 31  1  0  0  0  0
 14 15  1  0  0  0  0
 15 16  2  0  0  0  0
 15 17  1  0  0  0  0
 17 18  1  0  0  0  0
 18 20  2  0  0  0  0
 19 18  1  1  0  0  0
 19 22  1  0  0  0  0
 19 30  1  0  0  0  0
 21 23  1  6  0  0  0
 21 29  1  0  0  0  0
 21 22  1  0  0  0  0
 23 24  1  0  0  0  0
 24 25  1  1  0  0  0
 24 26  1  0  0  0  0
 26 27  1  1  0  0  0
 26 28  1  0  0  0  0
 29 28  1  1  0  0  0
 29 31  1  0  0  0  0
 30 14  1  1  0  0  0
 30 31  1  0  0  0  0
M  CHG  1   3  -1
M  END
>  <CHROM.1>
178.34396522,168.45278615,-62.71393068,56.61387176,173.12459409,166.12953620
-82.46698603,27.59758371,37.85413288,19.85278512,-1.71171540,-1.42347650
2.45291439

>  <Name>
ligand

>  <RI>
0

>  <Rbt.Current_Directory>
/home/itssahil/PROJECTS/Mol_Feturizer/New_Systems/rnas/3F2T

>  <Rbt.Executable>
rbdock ($Id: //depot/dev/client3/rdock/2013.1/src/exe/rbdock.cxx#4 $)

>  <Rbt.Library>
libRbt.so (2013.1, Build901 2013/11/27)

>  <Rbt.Parameter_File>
/export/apps/rDock/src/rDock_2013.1_src/data/scripts/dock_solv.prm

>  <Rbt.Receptor>
prm/pocket_docking_3.prm

>  <SCORE>
-32.9622

>  <SCORE.INTER>
-32.008

>  <SCORE.INTER.CONST>
1

>  <SCORE.INTER.POLAR>
0

>  <SCORE.INTER.ROT>
7

>  <SCORE.INTER.SOLV>
21.032

>  <SCORE.INTER.VDW>
-36.616

>  <SCORE.INTER.norm>
-1.03252

>  <SCORE.INTRA>
-0.954205

>  <SCORE.INTRA.DIHEDRAL>
-2.40762

>  <SCORE.INTRA.DIHEDRAL.0>
4.64198

>  <SCORE.INTRA.POLAR>
0

>  <SCORE.INTRA.POLAR.0>
0

>  <SCORE.INTRA.REPUL>
0

>  <SCORE.INTRA.REPUL.0>
0

>  <SCORE.INTRA.SOLV>
0.0683564

>  <SCORE.INTRA.SOLV.lig_0>
-49.3611

>  <SCORE.INTRA.VDW>
0.215429

>  <SCORE.INTRA.VDW.0>
-1.91858

>  <SCORE.INTRA.norm>
-0.0307808

>  <SCORE.RESTR>
0

>  <SCORE.RESTR.CAVITY>
0

>  <SCORE.RESTR.norm>
0

>  <SCORE.SYSTEM>
0

>  <SCORE.SYSTEM.CONST>
0

>  <SCORE.SYSTEM.DIHEDRAL>
0

>  <SCORE.SYSTEM.SOLV>
0

>  <SCORE.SYSTEM.norm>
0

>  <SCORE.heavy>
31

>  <SCORE.norm>
-1.0633

>  <RMSD>
0.906

$$$$
ligand
 OpenBabel11021811473D
libRbt.so/2013.1/901 2013/11/27
 31 33  0  0  0  0  0  0  0  0999 V2000
   26.2108   43.0114   16.5615 P   0  0  1  0  0  0  0  0  0  0  0  0
   24.7032   43.0347   16.5547 O   0  0  0  0  0  0  0  0  0  0  0  0
   26.6994   43.0070   15.1373 O   0  5  0  0  0  0  0  0  0  0  0  0
   26.6551   44.2374   17.3108 O   0  0  0  0  0  0  0  0  0  0  0  0
   26.3893   41.3701   18.5973 C   0  0  0  0  0  0  0  0  0  0  0  0
   26.8143   41.7174   17.2959 O   0  0  0  0  0  0  0  0  0  0  0  0
   27.1817   40.1570   19.0776 C   0  0  1  0  0  0  0  0  0  0  0  0
   26.8118   39.8401   20.4048 O   0  0  0  0  0  0  0  0  0  0  0  0
   26.8940   38.9615   18.1850 C   0  0  1  0  0  0  0  0  0  0  0  0
   27.9230   38.8573   17.2376 O   0  0  0  0  0  0  0  0  0  0  0  0
   26.8076   37.6588   18.9623 C   0  0  1  0  0  0  0  0  0  0  0  0
   26.4735   36.6334   18.0662 O   0  0  0  0  0  0  0  0  0  0  0  0
   28.1364   37.3321   19.6235 C   0  0  0  0  0  0  0  0  0  0  0  0
   28.2179   34.5609   19.1400 N   0  0  0  0  0  0  0  0  0  0  0  0
   28.2094   33.2158   18.8411 C   0  0  0  0  0  0  0  0  0  0  0  0
   28.4606   32.8366   17.7010 O   0  0  0  0  0  0  0  0  0  0  0  0
   27.9179   32.2868   19.8138 N   0  0  0  0  0  0  0  0  0  0  0  0
   27.6419   32.6951   21.1041 C   0  0  0  0  0  0  0  0  0  0  0  0
   27.6473   34.0504   21.4149 C   0  0  1  0  0  0  0  0  0  0  0  0
   27.3999   31.8580   21.9761 O   0  0  0  0  0  0  0  0  0  0  0  0
   27.3784   35.8129   23.0089 C   0  0  2  0  0  0  0  0  0  0  0  0
   27.3705   34.4656   22.7021 N   0  0  0  0  0  0  0  0  0  0  0  0
   27.0983   36.2312   24.3102 C   0  0  0  0  0  0  0  0  0  0  0  0
   27.0985   37.5842   24.6285 C   0  0  1  0  0  0  0  0  0  0  0  0
   26.7902   37.9958   26.0333 C   0  0  0  0  0  0  0  0  0  0  0  0
   27.3869   38.5334   23.6363 C   0  0  1  0  0  0  0  0  0  0  0  0
   27.4064   40.0061   23.9412 C   0  0  0  0  0  0  0  0  0  0  0  0
   27.6644   38.1130   22.3382 C   0  0  0  0  0  0  0  0  0  0  0  0
   27.6604   36.7545   22.0164 C   0  0  1  0  0  0  0  0  0  0  0  0
   27.9339   34.9854   20.4223 C   0  0  1  0  0  0  0  0  0  0  0  0
   27.9342   36.3339   20.7236 N   0  0  0  0  0  0  0  0  0  0  0  0
  1  2  1  1  0  0  0
  1  3  1  0  0  0  0
  1  4  2  0  0  0  0
  1  6  1  0  0  0  0
  5  6  1  0  0  0  0
  7  5  1  6  0  0  0
  7  8  1  0  0  0  0
  7  9  1  0  0  0  0
  9 10  1  6  0  0  0
  9 11  1  0  0  0  0
 11 12  1  6  0  0  0
 11 13  1  0  0  0  0
 13 31  1  0  0  0  0
 14 15  1  0  0  0  0
 15 16  2  0  0  0  0
 15 17  1  0  0  0  0
 17 18  1  0  0  0  0
 18 20  2  0  0  0  0
 19 18  1  1  0  0  0
 19 22  1  0  0  0  0
 19 30  1  0  0  0  0
 21 23  1  6  0  0  0
 21 29  1  0  0  0  0
 21 22  1  0  0  0  0
 23 24  1  0  0  0  0
 24 25  1  1  0  0  0
 24 26  1  0  0  0  0
 26 27  1  1  0  0  0
 26 28  1  0  0  0  0
 29 28  1  1  0  0  0
 29 31  1  0  0  0  0
 30 14  1  1  0  0  0
 30 31  1  0  0  0  0
M  CHG  1   3  -1
M  END
>  <CHROM.1>
-176.62929579,-51.81996588,177.12612771,97.68071224,177.02331498,161.35765884
-89.46759580,27.18806089,37.89775393,19.93425084,-2.58179312,-1.40837890
1.61903873

>  <Name>
ligand

>  <RI>
0

>  <Rbt.Current_Directory>
/home/itssahil/PROJECTS/Mol_Feturizer/New_Systems/rnas/3F2T

>  <Rbt.Executable>
rbdock ($Id: //depot/dev/client3/rdock/2013.1/src/exe/rbdock.cxx#4 $)

>  <Rbt.Library>
libRbt.so (2013.1, Build901 2013/11/27)

>  <Rbt.Parameter_File>
/export/apps/rDock/src/rDock_2013.1_src/data/scripts/dock_solv.prm

>  <Rbt.Receptor>
prm/pocket_docking_3.prm

>  <SCORE>
-29.3884

>  <SCORE.INTER>
-30.8448

>  <SCORE.INTER.CONST>
1

>  <SCORE.INTER.POLAR>
0

>  <SCORE.INTER.ROT>
7

>  <SCORE.INTER.SOLV>
19.8452

>  <SCORE.INTER.VDW>
-35.4449

>  <SCORE.INTER.norm>
-0.994994

>  <SCORE.INTRA>
1.45642

>  <SCORE.INTRA.DIHEDRAL>
1.5453

>  <SCORE.INTRA.DIHEDRAL.0>
4.64198

>  <SCORE.INTRA.POLAR>
0

>  <SCORE.INTRA.POLAR.0>
0

>  <SCORE.INTRA.REPUL>
0

>  <SCORE.INTRA.REPUL.0>
0

>  <SCORE.INTRA.SOLV>
-0.240639

>  <SCORE.INTRA.SOLV.lig_0>
-49.3611

>  <SCORE.INTRA.VDW>
0.80409

>  <SCORE.INTRA.VDW.0>
-1.91858

>  <SCORE.INTRA.norm>
0.0469814

>  <SCORE.RESTR>
0

>  <SCORE.RESTR.CAVITY>
0

>  <SCORE.RESTR.norm>
0

>  <SCORE.SYSTEM>
0

>  <SCORE.SYSTEM.CONST>
0

>  <SCORE.SYSTEM.DIHEDRAL>
0

>  <SCORE.SYSTEM.SOLV>
0

>  <SCORE.SYSTEM.norm>
0

>  <SCORE.heavy>
31

>  <SCORE.norm>
-0.948012

>  <RMSD>
0.916

$$$$
ligand
 OpenBabel11021811473D
libRbt.so/2013.1/901 2013/11/27
 31 33  0  0  0  0  0  0  0  0999 V2000
   26.5427   42.8555   16.6942 P   0  0  1  0  0  0  0  0  0  0  0  0
   28.0391   42.9897   16.8207 O   0  0  0  0  0  0  0  0  0  0  0  0
   25.8901   43.9184   17.5377 O   0  5  0  0  0  0  0  0  0  0  0  0
   26.2202   43.0118   15.2335 O   0  0  0  0  0  0  0  0  0  0  0  0
   26.1786   41.0170   18.5267 C   0  0  0  0  0  0  0  0  0  0  0  0
   25.9975   41.4281   17.1876 O   0  0  0  0  0  0  0  0  0  0  0  0
   27.6539   40.7019   18.7602 C   0  0  1  0  0  0  0  0  0  0  0  0
   27.9632   40.8537   20.1314 O   0  0  0  0  0  0  0  0  0  0  0  0
   27.9526   39.2723   18.3410 C   0  0  1  0  0  0  0  0  0  0  0  0
   29.3328   39.1534   18.1215 O   0  0  0  0  0  0  0  0  0  0  0  0
   27.5323   38.2556   19.3891 C   0  0  1  0  0  0  0  0  0  0  0  0
   26.3632   37.6225   18.9437 O   0  0  0  0  0  0  0  0  0  0  0  0
   28.6172   37.2124   19.5991 C   0  0  0  0  0  0  0  0  0  0  0  0
   28.5125   34.4377   19.1405 N   0  0  0  0  0  0  0  0  0  0  0  0
   28.4213   33.0941   18.8488 C   0  0  0  0  0  0  0  0  0  0  0  0
   28.7645   32.6786   17.7458 O   0  0  0  0  0  0  0  0  0  0  0  0
   27.9438   32.2073   19.7867 N   0  0  0  0  0  0  0  0  0  0  0  0
   27.5618   32.6561   21.0360 C   0  0  0  0  0  0  0  0  0  0  0  0
   27.6496   34.0102   21.3392 C   0  0  1  0  0  0  0  0  0  0  0  0
   27.1525   31.8551   21.8790 O   0  0  0  0  0  0  0  0  0  0  0  0
   27.3576   35.8117   22.8847 C   0  0  2  0  0  0  0  0  0  0  0  0
   27.2677   34.4658   22.5851 N   0  0  0  0  0  0  0  0  0  0  0  0
   26.9712   36.2709   24.1444 C   0  0  0  0  0  0  0  0  0  0  0  0
   27.0527   37.6234   24.4544 C   0  0  1  0  0  0  0  0  0  0  0  0
   26.6262   38.0798   25.8137 C   0  0  0  0  0  0  0  0  0  0  0  0
   27.5310   38.5303   23.4966 C   0  0  1  0  0  0  0  0  0  0  0  0
   27.6435   40.0002   23.7950 C   0  0  0  0  0  0  0  0  0  0  0  0
   27.9143   38.0692   22.2399 C   0  0  0  0  0  0  0  0  0  0  0  0
   27.8289   36.7116   21.9259 C   0  0  1  0  0  0  0  0  0  0  0  0
   28.1249   34.9031   20.3808 C   0  0  1  0  0  0  0  0  0  0  0  0
   28.2080   36.2508   20.6741 N   0  0  0  0  0  0  0  0  0  0  0  0
  1  2  1  1  0  0  0
  1  3  1  0  0  0  0
  1  4  2  0  0  0  0
  1  6  1  0  0  0  0
  5  6  1  0  0  0  0
  7  5  1  1  0  0  0
  7  8  1  0  0  0  0
  7  9  1  0  0  0  0
  9 10  1  1  0  0  0
  9 11  1  0  0  0  0
 11 12  1  6  0  0  0
 11 13  1  0  0  0  0
 13 31  1  0  0  0  0
 14 15  1  0  0  0  0
 15 16  2  0  0  0  0
 15 17  1  0  0  0  0
 17 18  1  0  0  0  0
 18 20  2  0  0  0  0
 19 18  1  1  0  0  0
 19 22  1  0  0  0  0
 19 30  1  0  0  0  0
 21 23  1  6  0  0  0
 21 29  1  0  0  0  0
 21 22  1  0  0  0  0
 23 24  1  0  0  0  0
 24 25  1  1  0  0  0
 24 26  1  0  0  0  0
 26 27  1  1  0  0  0
 26 28  1  0  0  0  0
 29 28  1  1  0  0  0
 29 31  1  0  0  0  0
 30 14  1  1  0  0  0
 30 31  1  0  0  0  0
M  CHG  1   3  -1
M  END
>  <CHROM.1>
-71.05817161,61.50842251,154.94034458,159.74929843,105.06334471,177.75341539
-54.10888026,27.45634134,37.95332049,19.97225877,-2.24909031,-1.41252366
1.99384562

>  <Name>
ligand

>  <RI>
0

>  <Rbt.Current_Directory>
/home/itssahil/PROJECTS/Mol_Feturizer/New_Systems/rnas/3F2T

>  <Rbt.Executable>
rbdock ($Id: //depot/dev/client3/rdock/2013.1/src/exe/rbdock.cxx#4 $)

>  <Rbt.Library>
libRbt.so (2013.1, Build901 2013/11/27)

>  <Rbt.Parameter_File>
/export/apps/rDock/src/rDock_2013.1_src/data/scripts/dock_solv.prm

>  <Rbt.Receptor>
prm/pocket_docking_2.prm

>  <SCORE>
-26.1426

>  <SCORE.INTER>
-31.0982

>  <SCORE.INTER.CONST>
1

>  <SCORE.INTER.POLAR>
0

>  <SCORE.INTER.ROT>
7

>  <SCORE.INTER.SOLV>
18.6903

>  <SCORE.INTER.VDW>
-35.2289

>  <SCORE.INTER.norm>
-1.00317

>  <SCORE.INTRA>
4.9242

>  <SCORE.INTRA.DIHEDRAL>
5.15237

>  <SCORE.INTRA.DIHEDRAL.0>
4.64198

>  <SCORE.INTRA.POLAR>
0

>  <SCORE.INTRA.POLAR.0>
0

>  <SCORE.INTRA.REPUL>
0

>  <SCORE.INTRA.REPUL.0>
0

>  <SCORE.INTRA.SOLV>
0.49623

>  <SCORE.INTRA.SOLV.lig_0>
-49.3611

>  <SCORE.INTRA.VDW>
2.0999

>  <SCORE.INTRA.VDW.0>
-1.91858

>  <SCORE.INTRA.norm>
0.158845

>  <SCORE.RESTR>
0.0313529

>  <SCORE.RESTR.CAVITY>
0.0313529

>  <SCORE.RESTR.norm>
0.00101138

>  <SCORE.SYSTEM>
0

>  <SCORE.SYSTEM.CONST>
0

>  <SCORE.SYSTEM.DIHEDRAL>
0

>  <SCORE.SYSTEM.SOLV>
0

>  <SCORE.SYSTEM.norm>
0

>  <SCORE.heavy>
31

>  <SCORE.norm>
-0.84331

>  <RMSD>
0.950

$$$$
ligand
 OpenBabel11021811473D
libRbt.so/2013.1/901 2013/11/27
 31 33  0  0  0  0  0  0  0  0999 V2000
   26.4990   43.5221   16.4164 P   0  0  1  0  0  0  0  0  0  0  0  0
   25.3777   43.1967   15.4624 O   0  0  0  0  0  0  0  0  0  0  0  0
   27.7552   43.7597   15.6210 O   0  5  0  0  0  0  0  0  0  0  0  0
   26.0706   44.7445   17.1806 O   0  0  0  0  0  0  0  0  0  0  0  0
   27.0249   41.0241   17.0114 C   0  0  0  0  0  0  0  0  0  0  0  0
   26.7927   42.3416   17.4644 O   0  0  0  0  0  0  0  0  0  0  0  0
   27.1046   40.0863   18.2133 C   0  0  1  0  0  0  0  0  0  0  0  0
   26.0009   40.3106   19.0678 O   0  0  0  0  0  0  0  0  0  0  0  0
   27.0833   38.6405   17.7467 C   0  0  1  0  0  0  0  0  0  0  0  0
   28.3152   38.3512   17.1416 O   0  0  0  0  0  0  0  0  0  0  0  0
   26.8535   37.6617   18.8860 C   0  0  1  0  0  0  0  0  0  0  0  0
   26.5445   36.4100   18.3348 O   0  0  0  0  0  0  0  0  0  0  0  0
   28.0964   37.5344   19.7512 C   0  0  0  0  0  0  0  0  0  0  0  0
   28.1717   34.7777   19.1898 N   0  0  0  0  0  0  0  0  0  0  0  0
   28.1609   33.4416   18.8527 C   0  0  0  0  0  0  0  0  0  0  0  0
   28.4227   33.0939   17.7049 O   0  0  0  0  0  0  0  0  0  0  0  0
   27.8551   32.4867   19.7954 N   0  0  0  0  0  0  0  0  0  0  0  0
   27.5670   32.8594   21.0938 C   0  0  0  0  0  0  0  0  0  0  0  0
   27.5747   34.2052   21.4431 C   0  0  1  0  0  0  0  0  0  0  0  0
   27.3122   31.9988   21.9389 O   0  0  0  0  0  0  0  0  0  0  0  0
   27.2959   35.9228   23.0837 C   0  0  2  0  0  0  0  0  0  0  0  0
   27.2858   34.5848   22.7386 N   0  0  0  0  0  0  0  0  0  0  0  0
   27.0036   36.3051   24.3934 C   0  0  0  0  0  0  0  0  0  0  0  0
   27.0059   37.6485   24.7500 C   0  0  1  0  0  0  0  0  0  0  0  0
   26.6842   38.0214   26.1626 C   0  0  0  0  0  0  0  0  0  0  0  0
   27.3088   38.6243   23.7884 C   0  0  1  0  0  0  0  0  0  0  0  0
   27.3311   40.0877   24.1353 C   0  0  0  0  0  0  0  0  0  0  0  0
   27.5985   38.2397   22.4819 C   0  0  0  0  0  0  0  0  0  0  0  0
   27.5924   36.8910   22.1215 C   0  0  1  0  0  0  0  0  0  0  0  0
   27.8757   35.1668   20.4806 C   0  0  1  0  0  0  0  0  0  0  0  0
   27.8783   36.5062   20.8202 N   0  0  0  0  0  0  0  0  0  0  0  0
  1  2  1  6  0  0  0
  1  3  1  0  0  0  0
  1  4  2  0  0  0  0
  1  6  1  0  0  0  0
  5  6  1  0  0  0  0
  7  5  1  6  0  0  0
  7  8  1  0  0  0  0
  7  9  1  0  0  0  0
  9 10  1  1  0  0  0
  9 11  1  0  0  0  0
 11 12  1  6  0  0  0
 11 13  1  0  0  0  0
 13 31  1  0  0  0  0
 14 15  1  0  0  0  0
 15 16  2  0  0  0  0
 15 17  1  0  0  0  0
 17 18  1  0  0  0  0
 18 20  2  0  0  0  0
 19 18  1  1  0  0  0
 19 22  1  0  0  0  0
 19 30  1  0  0  0  0
 21 23  1  6  0  0  0
 21 29  1  0  0  0  0
 21 22  1  0  0  0  0
 23 24  1  0  0  0  0
 24 25  1  1  0  0  0
 24 26  1  0  0  0  0
 26 27  1  1  0  0  0
 26 28  1  0  0  0  0
 29 28  1  1  0  0  0
 29 31  1  0  0  0  0
 30 14  1  1  0  0  0
 30 31  1  0  0  0  0
M  CHG  1   3  -1
M  END
>  <CHROM.1>
-173.15895478,52.82692606,49.15596648,72.00544601,166.60575726,-176.68525036
-101.92780780,27.22082608,38.05655744,19.81202873,2.28829426,1.42093802,-1.26646477

>  <Name>
ligand

>  <RI>
0

>  <Rbt.Current_Directory>
/home/itssahil/PROJECTS/Mol_Feturizer/New_Systems/rnas/3F2T

>  <Rbt.Executable>
rbdock ($Id: //depot/dev/client3/rdock/2013.1/src/exe/rbdock.cxx#4 $)

>  <Rbt.Library>
libRbt.so (2013.1, Build901 2013/11/27)

>  <Rbt.Parameter_File>
/export/apps/rDock/src/rDock_2013.1_src/data/scripts/dock_solv.prm

>  <Rbt.Receptor>
prm/pocket_docking_2.prm

>  <SCORE>
-30.6415

>  <SCORE.INTER>
-30.9482

>  <SCORE.INTER.CONST>
1

>  <SCORE.INTER.POLAR>
0

>  <SCORE.INTER.ROT>
7

>  <SCORE.INTER.SOLV>
20.6887

>  <SCORE.INTER.VDW>
-35.7951

>  <SCORE.INTER.norm>
-0.99833

>  <SCORE.INTRA>
0.29349

>  <SCORE.INTRA.DIHEDRAL>
-1.59911

>  <SCORE.INTRA.DIHEDRAL.0>
4.64198

>  <SCORE.INTRA.POLAR>
0

>  <SCORE.INTRA.POLAR.0>
0

>  <SCORE.INTRA.REPUL>
0

>  <SCORE.INTRA.REPUL.0>
0

>  <SCORE.INTRA.SOLV>
-0.467537

>  <SCORE.INTRA.SOLV.lig_0>
-49.3611

>  <SCORE.INTRA.VDW>
1.32681

>  <SCORE.INTRA.VDW.0>
-1.91858

>  <SCORE.INTRA.norm>
0.00946742

>  <SCORE.RESTR>
0.0132254

>  <SCORE.RESTR.CAVITY>
0.0132254

>  <SCORE.RESTR.norm>
0.000426624

>  <SCORE.SYSTEM>
0

>  <SCORE.SYSTEM.CONST>
0

>  <SCORE.SYSTEM.DIHEDRAL>
0

>  <SCORE.SYSTEM.SOLV>
0

>  <SCORE.SYSTEM.norm>
0

>  <SCORE.heavy>
31

>  <SCORE.norm>
-0.988436

>  <RMSD>
0.962

$$$$
ligand
 OpenBabel11021811473D
libRbt.so/2013.1/901 2013/11/27
 31 33  0  0  0  0  0  0  0  0999 V2000
   26.6176   42.5730   16.8465 P   0  0  1  0  0  0  0  0  0  0  0  0
   27.0349   43.7767   17.6529 O   0  0  0  0  0  0  0  0  0  0  0  0
   25.3706   42.9173   16.0762 O   0  5  0  0  0  0  0  0  0  0  0  0
   27.7719   42.2427   15.9406 O   0  0  0  0  0  0  0  0  0  0  0  0
   27.3268   40.6623   18.4947 C   0  0  0  0  0  0  0  0  0  0  0  0
   26.2988   41.2889   17.7562 O   0  0  0  0  0  0  0  0  0  0  0  0
   28.0608   39.6724   17.5939 C   0  0  1  0  0  0  0  0  0  0  0  0
   29.3565   39.4315   18.1055 O   0  0  0  0  0  0  0  0  0  0  0  0
   27.2994   38.3587   17.5364 C   0  0  1  0  0  0  0  0  0  0  0  0
   28.0696   37.4304   16.8206 O   0  0  0  0  0  0  0  0  0  0  0  0
   27.0041   37.7931   18.9154 C   0  0  1  0  0  0  0  0  0  0  0  0
   26.1776   36.6709   18.7627 O   0  0  0  0  0  0  0  0  0  0  0  0
   28.2863   37.3783   19.6178 C   0  0  0  0  0  0  0  0  0  0  0  0
   28.3359   34.6193   19.0651 N   0  0  0  0  0  0  0  0  0  0  0  0
   28.3163   33.2829   18.7297 C   0  0  0  0  0  0  0  0  0  0  0  0
   28.6334   32.9271   17.5985 O   0  0  0  0  0  0  0  0  0  0  0  0
   27.9400   32.3367   19.6555 N   0  0  0  0  0  0  0  0  0  0  0  0
   27.5889   32.7183   20.9357 C   0  0  0  0  0  0  0  0  0  0  0  0
   27.6049   34.0646   21.2831 C   0  0  1  0  0  0  0  0  0  0  0  0
   27.2707   31.8653   21.7668 O   0  0  0  0  0  0  0  0  0  0  0  0
   27.2719   35.7915   22.9037 C   0  0  2  0  0  0  0  0  0  0  0  0
   27.2534   34.4532   22.5603 N   0  0  0  0  0  0  0  0  0  0  0  0
   26.9163   36.1830   24.1949 C   0  0  0  0  0  0  0  0  0  0  0  0
   26.9265   37.5269   24.5493 C   0  0  1  0  0  0  0  0  0  0  0  0
   26.5357   37.9098   25.9417 C   0  0  0  0  0  0  0  0  0  0  0  0
   27.3015   38.4940   23.6044 C   0  0  1  0  0  0  0  0  0  0  0  0
   27.3346   39.9574   23.9500 C   0  0  0  0  0  0  0  0  0  0  0  0
   27.6543   38.1004   22.3162 C   0  0  0  0  0  0  0  0  0  0  0  0
   27.6404   36.7512   21.9579 C   0  0  1  0  0  0  0  0  0  0  0  0
   27.9778   35.0175   20.3373 C   0  0  1  0  0  0  0  0  0  0  0  0
   27.9892   36.3574   20.6747 N   0  0  0  0  0  0  0  0  0  0  0  0
  1  2  1  1  0  0  0
  1  3  1  0  0  0  0
  1  4  2  0  0  0  0
  1  6  1  0  0  0  0
  5  6  1  0  0  0  0
  7  5  1  1  0  0  0
  7  8  1  0  0  0  0
  7  9  1  0  0  0  0
  9 10  1  6  0  0  0
  9 11  1  0  0  0  0
 11 12  1  6  0  0  0
 11 13  1  0  0  0  0
 13 31  1  0  0  0  0
 14 15  1  0  0  0  0
 15 16  2  0  0  0  0
 15 17  1  0  0  0  0
 17 18  1  0  0  0  0
 18 20  2  0  0  0  0
 19 18  1  1  0  0  0
 19 22  1  0  0  0  0
 19 30  1  0  0  0  0
 21 23  1  6  0  0  0
 21 29  1  0  0  0  0
 21 22  1  0  0  0  0
 23 24  1  0  0  0  0
 24 25  1  1  0  0  0
 24 26  1  0  0  0  0
 26 27  1  1  0  0  0
 26 28  1  0  0  0  0
 29 28  1  1  0  0  0
 29 31  1  0  0  0  0
 30 14  1  1  0  0  0
 30 31  1  0  0  0  0
M  CHG  1   3  -1
M  END
>  <CHROM.1>
-84.50596362,-65.85959583,157.43515407,-173.78620149,173.51381917,-157.27161927
-87.35215814,27.41505404,37.69318272,19.80391432,2.02648410,1.40405673,-0.98628880

>  <Name>
ligand

>  <RI>
0

>  <Rbt.Current_Directory>
/home/itssahil/PROJECTS/Mol_Feturizer/New_Systems/rnas/3F2T

>  <Rbt.Executable>
rbdock ($Id: //depot/dev/client3/rdock/2013.1/src/exe/rbdock.cxx#4 $)

>  <Rbt.Library>
libRbt.so (2013.1, Build901 2013/11/27)

>  <Rbt.Parameter_File>
/export/apps/rDock/src/rDock_2013.1_src/data/scripts/dock_solv.prm

>  <Rbt.Receptor>
prm/pocket_docking_2.prm

>  <SCORE>
-27.2038

>  <SCORE.INTER>
-30.5155

>  <SCORE.INTER.CONST>
1

>  <SCORE.INTER.POLAR>
0

>  <SCORE.INTER.ROT>
7

>  <SCORE.INTER.SOLV>
18.4161

>  <SCORE.INTER.VDW>
-34.749

>  <SCORE.INTER.norm>
-0.98437

>  <SCORE.INTRA>
3.29884

>  <SCORE.INTRA.DIHEDRAL>
2.67282

>  <SCORE.INTRA.DIHEDRAL.0>
4.64198

>  <SCORE.INTRA.POLAR>
0

>  <SCORE.INTRA.POLAR.0>
0

>  <SCORE.INTRA.REPUL>
0

>  <SCORE.INTRA.REPUL.0>
0

>  <SCORE.INTRA.SOLV>
1.25967

>  <SCORE.INTRA.SOLV.lig_0>
-49.3611

>  <SCORE.INTRA.VDW>
1.3326

>  <SCORE.INTRA.VDW.0>
-1.91858

>  <SCORE.INTRA.norm>
0.106414

>  <SCORE.RESTR>
0.0128143

>  <SCORE.RESTR.CAVITY>
0.0128143

>  <SCORE.RESTR.norm>
0.000413364

>  <SCORE.SYSTEM>
0

>  <SCORE.SYSTEM.CONST>
0

>  <SCORE.SYSTEM.DIHEDRAL>
0

>  <SCORE.SYSTEM.SOLV>
0

>  <SCORE.SYSTEM.norm>
0

>  <SCORE.heavy>
31

>  <SCORE.norm>
-0.877542

>  <RMSD>
0.978

$$$$
ligand
 OpenBabel11021811473D
libRbt.so/2013.1/901 2013/11/27
 31 33  0  0  0  0  0  0  0  0999 V2000
   28.0482   42.6532   16.3181 P   0  0  1  0  0  0  0  0  0  0  0  0
   28.3263   44.0034   16.9287 O   0  0  0  0  0  0  0  0  0  0  0  0
   26.8397   42.7665   15.4272 O   0  5  0  0  0  0  0  0  0  0  0  0
   29.2838   42.2659   15.5530 O   0  0  0  0  0  0  0  0  0  0  0  0
   28.7667   41.0927   18.2978 C   0  0  0  0  0  0  0  0  0  0  0  0
   27.7501   41.5188   17.4147 O   0  0  0  0  0  0  0  0  0  0  0  0
   28.2275   39.9699   19.1802 C   0  0  1  0  0  0  0  0  0  0  0  0
   27.2180   40.4748   20.0316 O   0  0  0  0  0  0  0  0  0  0  0  0
   27.6400   38.8665   18.3165 C   0  0  1  0  0  0  0  0  0  0  0  0
   28.5870   38.5122   17.3444 O   0  0  0  0  0  0  0  0  0  0  0  0
   27.2721   37.6294   19.1183 C   0  0  1  0  0  0  0  0  0  0  0  0
   26.6891   36.6980   18.2473 O   0  0  0  0  0  0  0  0  0  0  0  0
   28.5040   37.0120   19.7594 C   0  0  0  0  0  0  0  0  0  0  0  0
   28.4587   34.2345   19.3086 N   0  0  0  0  0  0  0  0  0  0  0  0
   28.3971   32.8884   19.0201 C   0  0  0  0  0  0  0  0  0  0  0  0
   28.7631   32.4763   17.9233 O   0  0  0  0  0  0  0  0  0  0  0  0
   27.9242   31.9956   19.9545 N   0  0  0  0  0  0  0  0  0  0  0  0
   27.5168   32.4406   21.1970 C   0  0  0  0  0  0  0  0  0  0  0  0
   27.5746   33.7971   21.4969 C   0  0  1  0  0  0  0  0  0  0  0  0
   27.1117   31.6346   22.0371 O   0  0  0  0  0  0  0  0  0  0  0  0
   27.2273   35.5974   23.0324 C   0  0  2  0  0  0  0  0  0  0  0  0
   27.1673   34.2491   22.7361 N   0  0  0  0  0  0  0  0  0  0  0  0
   26.8152   36.0529   24.2853 C   0  0  0  0  0  0  0  0  0  0  0  0
   26.8666   37.4076   24.5919 C   0  0  1  0  0  0  0  0  0  0  0  0
   26.4132   37.8600   25.9438 C   0  0  0  0  0  0  0  0  0  0  0  0
   27.3403   38.3207   23.6376 C   0  0  1  0  0  0  0  0  0  0  0  0
   27.4205   39.7934   23.9326 C   0  0  0  0  0  0  0  0  0  0  0  0
   27.7493   37.8633   22.3877 C   0  0  0  0  0  0  0  0  0  0  0  0
   27.6942   36.5033   22.0771 C   0  0  1  0  0  0  0  0  0  0  0  0
   28.0455   34.6961   20.5421 C   0  0  1  0  0  0  0  0  0  0  0  0
   28.0989   36.0461   20.8320 N   0  0  0  0  0  0  0  0  0  0  0  0
  1  2  1  1  0  0  0
  1  3  1  0  0  0  0
  1  4  2  0  0  0  0
  1  6  1  0  0  0  0
  5  6  1  0  0  0  0
  7  5  1  6  0  0  0
  7  8  1  0  0  0  0
  7  9  1  0  0  0  0
  9 10  1  6  0  0  0
  9 11  1  0  0  0  0
 11 12  1  6  0  0  0
 11 13  1  0  0  0  0
 13 31  1  0  0  0  0
 14 15  1  0  0  0  0
 15 16  2  0  0  0  0
 15 17  1  0  0  0  0
 17 18  1  0  0  0  0
 18 20  2  0  0  0  0
 19 18  1  1  0  0  0
 19 22  1  0  0  0  0
 19 30  1  0  0  0  0
 21 23  1  6  0  0  0
 21 29  1  0  0  0  0
 21 22  1  0  0  0  0
 23 24  1  0  0  0  0
 24 25  1  1  0  0  0
 24 26  1  0  0  0  0
 26 27  1  1  0  0  0
 26 28  1  0  0  0  0
 29 28  1  1  0  0  0
 29 31  1  0  0  0  0
 30 14  1  1  0  0  0
 30 31  1  0  0  0  0
M  CHG  1   3  -1
M  END
>  <CHROM.1>
-177.36934551,-66.73721856,-66.36648390,50.95231000,177.48129354,164.38696979
-78.07233772,27.75551579,37.67433561,19.92139868,-1.24440135,-1.39399841
2.90855895

>  <Name>
ligand

>  <RI>
0

>  <Rbt.Current_Directory>
/home/itssahil/PROJECTS/Mol_Feturizer/New_Systems/rnas/3F2T

>  <Rbt.Executable>
rbdock ($Id: //depot/dev/client3/rdock/2013.1/src/exe/rbdock.cxx#4 $)

>  <Rbt.Library>
libRbt.so (2013.1, Build901 2013/11/27)

>  <Rbt.Parameter_File>
/export/apps/rDock/src/rDock_2013.1_src/data/scripts/dock_solv.prm

>  <Rbt.Receptor>
prm/pocket_docking_6.prm

>  <SCORE>
-32.6636

>  <SCORE.INTER>
-31.8518

>  <SCORE.INTER.CONST>
1

>  <SCORE.INTER.POLAR>
0

>  <SCORE.INTER.ROT>
7

>  <SCORE.INTER.SOLV>
22.8463

>  <SCORE.INTER.VDW>
-37.1166

>  <SCORE.INTER.norm>
-1.02748

>  <SCORE.INTRA>
-0.814571

>  <SCORE.INTRA.DIHEDRAL>
-2.13286

>  <SCORE.INTRA.DIHEDRAL.0>
4.64198

>  <SCORE.INTRA.POLAR>
0

>  <SCORE.INTRA.POLAR.0>
0

>  <SCORE.INTRA.REPUL>
0

>  <SCORE.INTRA.REPUL.0>
0

>  <SCORE.INTRA.SOLV>
-0.145147

>  <SCORE.INTRA.SOLV.lig_0>
-49.3611

>  <SCORE.INTRA.VDW>
0.324433

>  <SCORE.INTRA.VDW.0>
-1.91858

>  <SCORE.INTRA.norm>
-0.0262765

>  <SCORE.RESTR>
0.00279564

>  <SCORE.RESTR.CAVITY>
0.00279564

>  <SCORE.RESTR.norm>
9.01819e-05

>  <SCORE.SYSTEM>
0

>  <SCORE.SYSTEM.CONST>
0

>  <SCORE.SYSTEM.DIHEDRAL>
0

>  <SCORE.SYSTEM.SOLV>
0

>  <SCORE.SYSTEM.norm>
0

>  <SCORE.heavy>
31

>  <SCORE.norm>
-1.05366

>  <RMSD>
0.994

$$$$
ligand
 OpenBabel11021811473D
libRbt.so/2013.1/901 2013/11/27
 31 33  0  0  0  0  0  0  0  0999 V2000
   26.4784   42.9851   16.7173 P   0  0  1  0  0  0  0  0  0  0  0  0
   25.1939   42.4282   17.2769 O   0  0  0  0  0  0  0  0  0  0  0  0
   26.3852   42.9958   15.2146 O   0  5  0  0  0  0  0  0  0  0  0  0
   26.6298   44.3688   17.2869 O   0  0  0  0  0  0  0  0  0  0  0  0
   27.8303   40.7421   16.8246 C   0  0  0  0  0  0  0  0  0  0  0  0
   27.7677   42.1203   17.1271 O   0  0  0  0  0  0  0  0  0  0  0  0
   27.5005   39.9369   18.0789 C   0  0  1  0  0  0  0  0  0  0  0  0
   26.3650   40.4885   18.7154 O   0  0  0  0  0  0  0  0  0  0  0  0
   27.2070   38.4931   17.7074 C   0  0  1  0  0  0  0  0  0  0  0  0
   28.3153   37.9777   17.0195 O   0  0  0  0  0  0  0  0  0  0  0  0
   26.9329   37.6212   18.9213 C   0  0  1  0  0  0  0  0  0  0  0  0
   26.3233   36.4369   18.4834 O   0  0  0  0  0  0  0  0  0  0  0  0
   28.2237   37.2806   19.6475 C   0  0  0  0  0  0  0  0  0  0  0  0
   28.2797   34.5137   19.1364 N   0  0  0  0  0  0  0  0  0  0  0  0
   28.2615   33.1721   18.8223 C   0  0  0  0  0  0  0  0  0  0  0  0
   28.5542   32.8009   17.6894 O   0  0  0  0  0  0  0  0  0  0  0  0
   27.9141   32.2380   19.7713 N   0  0  0  0  0  0  0  0  0  0  0  0
   27.5908   32.6372   21.0535 C   0  0  0  0  0  0  0  0  0  0  0  0
   27.6056   33.9888   21.3795 C   0  0  1  0  0  0  0  0  0  0  0  0
   27.2986   31.7951   21.9050 O   0  0  0  0  0  0  0  0  0  0  0  0
   27.2990   35.7385   22.9808 C   0  0  2  0  0  0  0  0  0  0  0  0
   27.2818   34.3949   22.6586 N   0  0  0  0  0  0  0  0  0  0  0  0
   26.9714   36.1476   24.2739 C   0  0  0  0  0  0  0  0  0  0  0  0
   26.9805   37.4970   24.6071 C   0  0  1  0  0  0  0  0  0  0  0  0
   26.6203   37.8989   26.0024 C   0  0  0  0  0  0  0  0  0  0  0  0
   27.3261   38.4517   23.6387 C   0  0  1  0  0  0  0  0  0  0  0  0
   27.3570   39.9206   23.9609 C   0  0  0  0  0  0  0  0  0  0  0  0
   27.6509   38.0404   22.3487 C   0  0  0  0  0  0  0  0  0  0  0  0
   27.6380   36.6857   22.0117 C   0  0  1  0  0  0  0  0  0  0  0  0
   27.9491   34.9293   20.4105 C   0  0  1  0  0  0  0  0  0  0  0  0
   27.9590   36.2743   20.7268 N   0  0  0  0  0  0  0  0  0  0  0  0
  1  2  1  1  0  0  0
  1  3  1  0  0  0  0
  1  4  2  0  0  0  0
  1  6  1  0  0  0  0
  5  6  1  0  0  0  0
  7  5  1  6  0  0  0
  7  8  1  0  0  0  0
  7  9  1  0  0  0  0
  9 10  1  1  0  0  0
  9 11  1  0  0  0  0
 11 12  1  6  0  0  0
 11 13  1  0  0  0  0
 13 31  1  0  0  0  0
 14 15  1  0  0  0  0
 15 16  2  0  0  0  0
 15 17  1  0  0  0  0
 17 18  1  0  0  0  0
 18 20  2  0  0  0  0
 19 18  1  1  0  0  0
 19 22  1  0  0  0  0
 19 30  1  0  0  0  0
 21 23  1  6  0  0  0
 21 29  1  0  0  0  0
 21 22  1  0  0  0  0
 23 24  1  0  0  0  0
 24 25  1  1  0  0  0
 24 26  1  0  0  0  0
 26 27  1  1  0  0  0
 26 28  1  0  0  0  0
 29 28  1  1  0  0  0
 29 31  1  0  0  0  0
 30 14  1  1  0  0  0
 30 31  1  0  0  0  0
M  CHG  1   3  -1
M  END
>  <CHROM.1>
-100.88045040,56.26153709,45.42257266,56.79765072,163.94832271,-172.36769710
-90.31134877,27.28868574,37.80020930,19.80347186,-2.21461942,-1.40813149
1.97578406

>  <Name>
ligand

>  <RI>
0

>  <Rbt.Current_Directory>
/home/itssahil/PROJECTS/Mol_Feturizer/New_Systems/rnas/3F2T

>  <Rbt.Executable>
rbdock ($Id: //depot/dev/client3/rdock/2013.1/src/exe/rbdock.cxx#4 $)

>  <Rbt.Library>
libRbt.so (2013.1, Build901 2013/11/27)

>  <Rbt.Parameter_File>
/export/apps/rDock/src/rDock_2013.1_src/data/scripts/dock_solv.prm

>  <Rbt.Receptor>
prm/pocket_docking_2.prm

>  <SCORE>
-29.6656

>  <SCORE.INTER>
-32.2943

>  <SCORE.INTER.CONST>
1

>  <SCORE.INTER.POLAR>
0

>  <SCORE.INTER.ROT>
7

>  <SCORE.INTER.SOLV>
19.6056

>  <SCORE.INTER.VDW>
-36.3314

>  <SCORE.INTER.norm>
-1.04175

>  <SCORE.INTRA>
2.62472

>  <SCORE.INTRA.DIHEDRAL>
3.8847

>  <SCORE.INTRA.DIHEDRAL.0>
4.64198

>  <SCORE.INTRA.POLAR>
0

>  <SCORE.INTRA.POLAR.0>
0

>  <SCORE.INTRA.REPUL>
0

>  <SCORE.INTRA.REPUL.0>
0

>  <SCORE.INTRA.SOLV>
0.508523

>  <SCORE.INTRA.SOLV.lig_0>
-49.3611

>  <SCORE.INTRA.VDW>
0.428108

>  <SCORE.INTRA.VDW.0>
-1.91858

>  <SCORE.INTRA.norm>
0.0846684

>  <SCORE.RESTR>
0.00394617

>  <SCORE.RESTR.CAVITY>
0.00394617

>  <SCORE.RESTR.norm>
0.000127296

>  <SCORE.SYSTEM>
0

>  <SCORE.SYSTEM.CONST>
0

>  <SCORE.SYSTEM.DIHEDRAL>
0

>  <SCORE.SYSTEM.SOLV>
0

>  <SCORE.SYSTEM.norm>
0

>  <SCORE.heavy>
31

>  <SCORE.norm>
-0.956956

>  <RMSD>
1.001

$$$$
ligand
 OpenBabel11021811473D
libRbt.so/2013.1/901 2013/11/27
 31 33  0  0  0  0  0  0  0  0999 V2000
   26.7679   43.0956   17.0682 P   0  0  1  0  0  0  0  0  0  0  0  0
   26.4476   42.5049   15.7186 O   0  0  0  0  0  0  0  0  0  0  0  0
   28.2628   43.1065   17.2474 O   0  5  0  0  0  0  0  0  0  0  0  0
   26.1843   44.4817   17.0791 O   0  0  0  0  0  0  0  0  0  0  0  0
   26.2974   40.8629   18.3583 C   0  0  0  0  0  0  0  0  0  0  0  0
   26.1297   42.2634   18.2841 O   0  0  0  0  0  0  0  0  0  0  0  0
   27.7619   40.5471   18.6513 C   0  0  1  0  0  0  0  0  0  0  0  0
   28.0425   40.8041   20.0129 O   0  0  0  0  0  0  0  0  0  0  0  0
   28.0476   39.0846   18.3547 C   0  0  1  0  0  0  0  0  0  0  0  0
   29.4219   38.9408   18.1143 O   0  0  0  0  0  0  0  0  0  0  0  0
   27.6502   38.1674   19.4991 C   0  0  1  0  0  0  0  0  0  0  0  0
   26.3829   37.6374   19.2181 O   0  0  0  0  0  0  0  0  0  0  0  0
   28.6455   37.0294   19.6533 C   0  0  0  0  0  0  0  0  0  0  0  0
   28.4962   34.2488   19.2458 N   0  0  0  0  0  0  0  0  0  0  0  0
   28.3846   32.9017   18.9781 C   0  0  0  0  0  0  0  0  0  0  0  0
   28.7392   32.4587   17.8896 O   0  0  0  0  0  0  0  0  0  0  0  0
   27.8741   32.0423   19.9240 N   0  0  0  0  0  0  0  0  0  0  0  0
   27.4788   32.5222   21.1575 C   0  0  0  0  0  0  0  0  0  0  0  0
   27.5870   33.8800   21.4364 C   0  0  1  0  0  0  0  0  0  0  0  0
   27.0398   31.7455   22.0081 O   0  0  0  0  0  0  0  0  0  0  0  0
   27.3022   35.7163   22.9420 C   0  0  2  0  0  0  0  0  0  0  0  0
   27.1921   34.3667   22.6664 N   0  0  0  0  0  0  0  0  0  0  0  0
   26.9026   36.2068   24.1855 C   0  0  0  0  0  0  0  0  0  0  0  0
   27.0043   37.5633   24.4712 C   0  0  1  0  0  0  0  0  0  0  0  0
   26.5628   38.0538   25.8138 C   0  0  0  0  0  0  0  0  0  0  0  0
   27.5164   38.4424   23.5050 C   0  0  1  0  0  0  0  0  0  0  0  0
   27.6515   39.9155   23.7774 C   0  0  0  0  0  0  0  0  0  0  0  0
   27.9128   37.9501   22.2644 C   0  0  0  0  0  0  0  0  0  0  0  0
   27.8073   36.5885   21.9748 C   0  0  1  0  0  0  0  0  0  0  0  0
   28.0958   34.7452   20.4699 C   0  0  1  0  0  0  0  0  0  0  0  0
   28.1994   36.0966   20.7389 N   0  0  0  0  0  0  0  0  0  0  0  0
  1  2  1  6  0  0  0
  1  3  1  0  0  0  0
  1  4  2  0  0  0  0
  1  6  1  0  0  0  0
  5  6  1  0  0  0  0
  7  5  1  1  0  0  0
  7  8  1  0  0  0  0
  7  9  1  0  0  0  0
  9 10  1  1  0  0  0
  9 11  1  0  0  0  0
 11 12  1  6  0  0  0
 11 13  1  0  0  0  0
 13 31  1  0  0  0  0
 14 15  1  0  0  0  0
 15 16  2  0  0  0  0
 15 17  1  0  0  0  0
 17 18  1  0  0  0  0
 18 20  2  0  0  0  0
 19 18  1  1  0  0  0
 19 22  1  0  0  0  0
 19 30  1  0  0  0  0
 21 23  1  6  0  0  0
 21 29  1  0  0  0  0
 21 22  1  0  0  0  0
 23 24  1  0  0  0  0
 24 25  1  1  0  0  0
 24 26  1  0  0  0  0
 26 27  1  1  0  0  0
 26 28  1  0  0  0  0
 29 28  1  1  0  0  0
 29 31  1  0  0  0  0
 30 14  1  1  0  0  0
 30 31  1  0  0  0  0
M  CHG  1   3  -1
M  END
>  <CHROM.1>
68.72423119,49.65222663,75.85747242,156.92918176,97.36177678,-177.06483315
-48.48600442,27.50045539,37.90838244,20.09387010,-2.03866491,-1.40657986
2.25222646

>  <Name>
ligand

>  <RI>
0

>  <Rbt.Current_Directory>
/home/itssahil/PROJECTS/Mol_Feturizer/New_Systems/rnas/3F2T

>  <Rbt.Executable>
rbdock ($Id: //depot/dev/client3/rdock/2013.1/src/exe/rbdock.cxx#4 $)

>  <Rbt.Library>
libRbt.so (2013.1, Build901 2013/11/27)

>  <Rbt.Parameter_File>
/export/apps/rDock/src/rDock_2013.1_src/data/scripts/dock_solv.prm

>  <Rbt.Receptor>
prm/pocket_docking_2.prm

>  <SCORE>
-26.612

>  <SCORE.INTER>
-31.5431

>  <SCORE.INTER.CONST>
1

>  <SCORE.INTER.POLAR>
0

>  <SCORE.INTER.ROT>
7

>  <SCORE.INTER.SOLV>
17.4476

>  <SCORE.INTER.VDW>
-35.1113

>  <SCORE.INTER.norm>
-1.01752

>  <SCORE.INTRA>
4.93102

>  <SCORE.INTRA.DIHEDRAL>
3.53686

>  <SCORE.INTRA.DIHEDRAL.0>
4.64198

>  <SCORE.INTRA.POLAR>
0

>  <SCORE.INTRA.POLAR.0>
0

>  <SCORE.INTRA.REPUL>
0

>  <SCORE.INTRA.REPUL.0>
0

>  <SCORE.INTRA.SOLV>
1.65641

>  <SCORE.INTRA.SOLV.lig_0>
-49.3611

>  <SCORE.INTRA.VDW>
2.33438

>  <SCORE.INTRA.VDW.0>
-1.91858

>  <SCORE.INTRA.norm>
0.159065

>  <SCORE.RESTR>
0

>  <SCORE.RESTR.CAVITY>
0

>  <SCORE.RESTR.norm>
0

>  <SCORE.SYSTEM>
0

>  <SCORE.SYSTEM.CONST>
0

>  <SCORE.SYSTEM.DIHEDRAL>
0

>  <SCORE.SYSTEM.SOLV>
0

>  <SCORE.SYSTEM.norm>
0

>  <SCORE.heavy>
31

>  <SCORE.norm>
-0.858453

>  <RMSD>
1.042

$$$$
ligand
 OpenBabel11021811473D
libRbt.so/2013.1/901 2013/11/27
 31 33  0  0  0  0  0  0  0  0999 V2000
   26.4788   43.3835   17.1887 P   0  0  1  0  0  0  0  0  0  0  0  0
   26.1645   44.8396   16.9562 O   0  0  0  0  0  0  0  0  0  0  0  0
   25.1873   42.6101   17.2183 O   0  5  0  0  0  0  0  0  0  0  0  0
   27.3735   42.9523   16.0593 O   0  0  0  0  0  0  0  0  0  0  0  0
   28.1635   42.0553   18.6948 C   0  0  0  0  0  0  0  0  0  0  0  0
   27.2447   43.1213   18.5754 O   0  0  0  0  0  0  0  0  0  0  0  0
   27.3988   40.7592   18.9508 C   0  0  1  0  0  0  0  0  0  0  0  0
   26.5940   40.4504   17.8302 O   0  0  0  0  0  0  0  0  0  0  0  0
   28.3741   39.6186   19.1888 C   0  0  1  0  0  0  0  0  0  0  0  0
   29.2841   40.0125   20.1807 O   0  0  0  0  0  0  0  0  0  0  0  0
   27.6825   38.3414   19.6354 C   0  0  1  0  0  0  0  0  0  0  0  0
   26.6990   38.0199   18.6892 O   0  0  0  0  0  0  0  0  0  0  0  0
   28.6740   37.1941   19.7361 C   0  0  0  0  0  0  0  0  0  0  0  0
   28.5529   34.4258   19.2447 N   0  0  0  0  0  0  0  0  0  0  0  0
   28.4551   33.0863   18.9364 C   0  0  0  0  0  0  0  0  0  0  0  0
   28.8150   32.6799   17.8354 O   0  0  0  0  0  0  0  0  0  0  0  0
   27.9524   32.1937   19.8554 N   0  0  0  0  0  0  0  0  0  0  0  0
   27.5513   32.6321   21.1023 C   0  0  0  0  0  0  0  0  0  0  0  0
   27.6456   33.9820   21.4222 C   0  0  1  0  0  0  0  0  0  0  0  0
   27.1194   31.8258   21.9286 O   0  0  0  0  0  0  0  0  0  0  0  0
   27.3412   35.7690   22.9821 C   0  0  2  0  0  0  0  0  0  0  0  0
   27.2448   34.4273   22.6659 N   0  0  0  0  0  0  0  0  0  0  0  0
   26.9356   36.2178   24.2395 C   0  0  0  0  0  0  0  0  0  0  0  0
   27.0234   37.5660   24.5660 C   0  0  1  0  0  0  0  0  0  0  0  0
   26.5759   38.0113   25.9223 C   0  0  0  0  0  0  0  0  0  0  0  0
   27.5275   38.4790   23.6274 C   0  0  1  0  0  0  0  0  0  0  0  0
   27.6476   39.9444   23.9442 C   0  0  0  0  0  0  0  0  0  0  0  0
   27.9299   38.0283   22.3729 C   0  0  0  0  0  0  0  0  0  0  0  0
   27.8382   36.6751   22.0423 C   0  0  1  0  0  0  0  0  0  0  0  0
   28.1466   34.8810   20.4828 C   0  0  1  0  0  0  0  0  0  0  0  0
   28.2363   36.2246   20.7926 N   0  0  0  0  0  0  0  0  0  0  0  0
  1  2  1  6  0  0  0
  1  3  1  0  0  0  0
  1  4  2  0  0  0  0
  1  6  1  0  0  0  0
  5  6  1  0  0  0  0
  7  5  1  6  0  0  0
  7  8  1  0  0  0  0
  7  9  1  0  0  0  0
  9 10  1  1  0  0  0
  9 11  1  0  0  0  0
 11 12  1  6  0  0  0
 11 13  1  0  0  0  0
 13 31  1  0  0  0  0
 14 15  1  0  0  0  0
 15 16  2  0  0  0  0
 15 17  1  0  0  0  0
 17 18  1  0  0  0  0
 18 20  2  0  0  0  0
 19 18  1  1  0  0  0
 19 22  1  0  0  0  0
 19 30  1  0  0  0  0
 21 23  1  6  0  0  0
 21 29  1  0  0  0  0
 21 22  1  0  0  0  0
 23 24  1  0  0  0  0
 24 25  1  1  0  0  0
 24 26  1  0  0  0  0
 26 27  1  1  0  0  0
 26 28  1  0  0  0  0
 29 28  1  1  0  0  0
 29 31  1  0  0  0  0
 30 14  1  1  0  0  0
 30 31  1  0  0  0  0
M  CHG  1   3  -1
M  END
>  <CHROM.1>
-81.37382631,-148.91904601,64.43343505,51.64673408,54.85699748,150.14337275
-47.30466718,27.48033064,38.12626188,20.16066388,-2.33252483,-1.42875928
1.97152638

>  <Name>
ligand

>  <RI>
0

>  <Rbt.Current_Directory>
/home/itssahil/PROJECTS/Mol_Feturizer/New_Systems/rnas/3F2T

>  <Rbt.Executable>
rbdock ($Id: //depot/dev/client3/rdock/2013.1/src/exe/rbdock.cxx#4 $)

>  <Rbt.Library>
libRbt.so (2013.1, Build901 2013/11/27)

>  <Rbt.Parameter_File>
/export/apps/rDock/src/rDock_2013.1_src/data/scripts/dock_solv.prm

>  <Rbt.Receptor>
prm/pocket_docking_3.prm

>  <SCORE>
-28.3569

>  <SCORE.INTER>
-32.9567

>  <SCORE.INTER.CONST>
1

>  <SCORE.INTER.POLAR>
0

>  <SCORE.INTER.ROT>
7

>  <SCORE.INTER.SOLV>
17.7875

>  <SCORE.INTER.VDW>
-36.167

>  <SCORE.INTER.norm>
-1.06312

>  <SCORE.INTRA>
4.59984

>  <SCORE.INTRA.DIHEDRAL>
2.92021

>  <SCORE.INTRA.DIHEDRAL.0>
4.64198

>  <SCORE.INTRA.POLAR>
0

>  <SCORE.INTRA.POLAR.0>
0

>  <SCORE.INTRA.REPUL>
0

>  <SCORE.INTRA.REPUL.0>
0

>  <SCORE.INTRA.SOLV>
3.39314

>  <SCORE.INTRA.SOLV.lig_0>
-49.3611

>  <SCORE.INTRA.VDW>
1.44316

>  <SCORE.INTRA.VDW.0>
-1.91858

>  <SCORE.INTRA.norm>
0.148382

>  <SCORE.RESTR>
0

>  <SCORE.RESTR.CAVITY>
0

>  <SCORE.RESTR.norm>
0

>  <SCORE.SYSTEM>
0

>  <SCORE.SYSTEM.CONST>
0

>  <SCORE.SYSTEM.DIHEDRAL>
0

>  <SCORE.SYSTEM.SOLV>
0

>  <SCORE.SYSTEM.norm>
0

>  <SCORE.heavy>
31

>  <SCORE.norm>
-0.914738

>  <RMSD>
1.047

$$$$
ligand
 OpenBabel11021811473D
libRbt.so/2013.1/901 2013/11/27
 31 33  0  0  0  0  0  0  0  0999 V2000
   26.2203   43.7809   16.5813 P   0  0  1  0  0  0  0  0  0  0  0  0
   25.7474   43.2726   15.2430 O   0  0  0  0  0  0  0  0  0  0  0  0
   27.6195   44.3151   16.4273 O   0  5  0  0  0  0  0  0  0  0  0  0
   25.2479   44.8481   17.0026 O   0  0  0  0  0  0  0  0  0  0  0  0
   27.0730   41.5040   17.5607 C   0  0  0  0  0  0  0  0  0  0  0  0
   26.2476   42.6402   17.7111 O   0  0  0  0  0  0  0  0  0  0  0  0
   26.9025   40.5949   18.7751 C   0  0  1  0  0  0  0  0  0  0  0  0
   25.5504   40.1976   18.8878 O   0  0  0  0  0  0  0  0  0  0  0  0
   27.7709   39.3573   18.6239 C   0  0  1  0  0  0  0  0  0  0  0  0
   29.0996   39.7109   18.9011 O   0  0  0  0  0  0  0  0  0  0  0  0
   27.3559   38.2340   19.5591 C   0  0  1  0  0  0  0  0  0  0  0  0
   26.2212   37.6103   19.0210 O   0  0  0  0  0  0  0  0  0  0  0  0
   28.4687   37.2092   19.7038 C   0  0  0  0  0  0  0  0  0  0  0  0
   28.4362   34.4391   19.2085 N   0  0  0  0  0  0  0  0  0  0  0  0
   28.3778   33.0973   18.9003 C   0  0  0  0  0  0  0  0  0  0  0  0
   28.6986   32.7079   17.7812 O   0  0  0  0  0  0  0  0  0  0  0  0
   27.9584   32.1833   19.8398 N   0  0  0  0  0  0  0  0  0  0  0  0
   27.6025   32.6027   21.1068 C   0  0  0  0  0  0  0  0  0  0  0  0
   27.6575   33.9547   21.4267 C   0  0  1  0  0  0  0  0  0  0  0  0
   27.2455   31.7779   21.9505 O   0  0  0  0  0  0  0  0  0  0  0  0
   27.3587   35.7250   23.0067 C   0  0  2  0  0  0  0  0  0  0  0  0
   27.3014   34.3810   22.6905 N   0  0  0  0  0  0  0  0  0  0  0  0
   26.9984   36.1546   24.2844 C   0  0  0  0  0  0  0  0  0  0  0  0
   27.0474   37.5046   24.6113 C   0  0  1  0  0  0  0  0  0  0  0  0
   26.6504   37.9289   25.9898 C   0  0  0  0  0  0  0  0  0  0  0  0
   27.4664   38.4391   23.6523 C   0  0  1  0  0  0  0  0  0  0  0  0
   27.5423   39.9077   23.9683 C   0  0  0  0  0  0  0  0  0  0  0  0
   27.8238   38.0076   22.3776 C   0  0  0  0  0  0  0  0  0  0  0  0
   27.7709   36.6523   22.0468 C   0  0  1  0  0  0  0  0  0  0  0  0
   28.0739   34.8751   20.4670 C   0  0  1  0  0  0  0  0  0  0  0  0
   28.1242   36.2207   20.7771 N   0  0  0  0  0  0  0  0  0  0  0  0
  1  2  1  6  0  0  0
  1  3  1  0  0  0  0
  1  4  2  0  0  0  0
  1  6  1  0  0  0  0
  5  6  1  0  0  0  0
  7  5  1  6  0  0  0
  7  8  1  0  0  0  0
  7  9  1  0  0  0  0
  9 10  1  1  0  0  0
  9 11  1  0  0  0  0
 11 12  1  6  0  0  0
 11 13  1  0  0  0  0
 13 31  1  0  0  0  0
 14 15  1  0  0  0  0
 15 16  2  0  0  0  0
 15 17  1  0  0  0  0
 17 18  1  0  0  0  0
 18 20  2  0  0  0  0
 19 18  1  1  0  0  0
 19 22  1  0  0  0  0
 19 30  1  0  0  0  0
 21 23  1  6  0  0  0
 21 29  1  0  0  0  0
 21 22  1  0  0  0  0
 23 24  1  0  0  0  0
 24 25  1  1  0  0  0
 24 26  1  0  0  0  0
 26 27  1  1  0  0  0
 26 28  1  0  0  0  0
 29 28  1  1  0  0  0
 29 31  1  0  0  0  0
 30 14  1  1  0  0  0
 30 31  1  0  0  0  0
M  CHG  1   3  -1
M  END
>  <CHROM.1>
179.87316329,61.39042583,59.40346365,76.57323650,77.96562074,171.74472684
-53.17136586,27.26839043,38.12817416,19.97926243,-2.40657621,-1.39466888
1.83876966

>  <Name>
ligand

>  <RI>
0

>  <Rbt.Current_Directory>
/home/itssahil/PROJECTS/Mol_Feturizer/New_Systems/rnas/3F2T

>  <Rbt.Executable>
rbdock ($Id: //depot/dev/client3/rdock/2013.1/src/exe/rbdock.cxx#4 $)

>  <Rbt.Library>
libRbt.so (2013.1, Build901 2013/11/27)

>  <Rbt.Parameter_File>
/export/apps/rDock/src/rDock_2013.1_src/data/scripts/dock_solv.prm

>  <Rbt.Receptor>
prm/blind_docking_60.prm

>  <SCORE>
-31.9308

>  <SCORE.INTER>
-32.3506

>  <SCORE.INTER.CONST>
1

>  <SCORE.INTER.POLAR>
0

>  <SCORE.INTER.ROT>
7

>  <SCORE.INTER.SOLV>
20.5073

>  <SCORE.INTER.VDW>
-36.6695

>  <SCORE.INTER.norm>
-1.04357

>  <SCORE.INTRA>
0.419862

>  <SCORE.INTRA.DIHEDRAL>
-1.10511

>  <SCORE.INTRA.DIHEDRAL.0>
4.64198

>  <SCORE.INTRA.POLAR>
0

>  <SCORE.INTRA.POLAR.0>
0

>  <SCORE.INTRA.REPUL>
0

>  <SCORE.INTRA.REPUL.0>
0

>  <SCORE.INTRA.SOLV>
-0.601842

>  <SCORE.INTRA.SOLV.lig_0>
-49.3611

>  <SCORE.INTRA.VDW>
1.27334

>  <SCORE.INTRA.VDW.0>
-1.91858

>  <SCORE.INTRA.norm>
0.0135439

>  <SCORE.RESTR>
0

>  <SCORE.RESTR.CAVITY>
0

>  <SCORE.RESTR.norm>
0

>  <SCORE.SYSTEM>
0

>  <SCORE.SYSTEM.CONST>
0

>  <SCORE.SYSTEM.DIHEDRAL>
0

>  <SCORE.SYSTEM.SOLV>
0

>  <SCORE.SYSTEM.norm>
0

>  <SCORE.heavy>
31

>  <SCORE.norm>
-1.03002

>  <RMSD>
1.059

$$$$
ligand
 OpenBabel11021811473D
libRbt.so/2013.1/901 2013/11/27
 31 33  0  0  0  0  0  0  0  0999 V2000
   27.0601   42.8773   17.1188 P   0  0  1  0  0  0  0  0  0  0  0  0
   26.6521   42.2355   15.8170 O   0  0  0  0  0  0  0  0  0  0  0  0
   28.5550   42.7693   17.2621 O   0  5  0  0  0  0  0  0  0  0  0  0
   26.5972   44.3070   17.0556 O   0  0  0  0  0  0  0  0  0  0  0  0
   26.2304   40.7767   18.4490 C   0  0  0  0  0  0  0  0  0  0  0  0
   26.3884   42.1793   18.3994 O   0  0  0  0  0  0  0  0  0  0  0  0
   27.6066   40.1165   18.4687 C   0  0  1  0  0  0  0  0  0  0  0  0
   28.1106   40.1030   19.7895 O   0  0  0  0  0  0  0  0  0  0  0  0
   27.5047   38.6871   17.9635 C   0  0  1  0  0  0  0  0  0  0  0  0
   28.7406   38.3233   17.4089 O   0  0  0  0  0  0  0  0  0  0  0  0
   27.1507   37.7016   19.0644 C   0  0  1  0  0  0  0  0  0  0  0  0
   26.5540   36.5784   18.4740 O   0  0  0  0  0  0  0  0  0  0  0  0
   28.3932   37.2669   19.8238 C   0  0  0  0  0  0  0  0  0  0  0  0
   28.4111   34.4904   19.3648 N   0  0  0  0  0  0  0  0  0  0  0  0
   28.3794   33.1441   19.0728 C   0  0  0  0  0  0  0  0  0  0  0  0
   28.7416   32.7443   17.9701 O   0  0  0  0  0  0  0  0  0  0  0  0
   27.9405   32.2370   20.0102 N   0  0  0  0  0  0  0  0  0  0  0  0
   27.5380   32.6683   21.2591 C   0  0  0  0  0  0  0  0  0  0  0  0
   27.5658   34.0249   21.5626 C   0  0  1  0  0  0  0  0  0  0  0  0
   27.1636   31.8500   22.1016 O   0  0  0  0  0  0  0  0  0  0  0  0
   27.1934   35.8116   23.1081 C   0  0  2  0  0  0  0  0  0  0  0  0
   27.1631   34.4630   22.8082 N   0  0  0  0  0  0  0  0  0  0  0  0
   26.7859   36.2531   24.3674 C   0  0  0  0  0  0  0  0  0  0  0  0
   26.8076   37.6077   24.6777 C   0  0  1  0  0  0  0  0  0  0  0  0
   26.3601   38.0447   26.0367 C   0  0  0  0  0  0  0  0  0  0  0  0
   27.2464   38.5350   23.7205 C   0  0  1  0  0  0  0  0  0  0  0  0
   27.2938   40.0084   24.0192 C   0  0  0  0  0  0  0  0  0  0  0  0
   27.6508   38.0915   22.4641 C   0  0  0  0  0  0  0  0  0  0  0  0
   27.6255   36.7315   22.1499 C   0  0  1  0  0  0  0  0  0  0  0  0
   28.0022   34.9380   20.6048 C   0  0  1  0  0  0  0  0  0  0  0  0
   28.0257   36.2881   20.8983 N   0  0  0  0  0  0  0  0  0  0  0  0
  1  2  1  6  0  0  0
  1  3  1  0  0  0  0
  1  4  2  0  0  0  0
  1  6  1  0  0  0  0
  5  6  1  0  0  0  0
  7  5  1  1  0  0  0
  7  8  1  0  0  0  0
  7  9  1  0  0  0  0
  9 10  1  1  0  0  0
  9 11  1  0  0  0  0
 11 12  1  6  0  0  0
 11 13  1  0  0  0  0
 13 31  1  0  0  0  0
 14 15  1  0  0  0  0
 15 16  2  0  0  0  0
 15 17  1  0  0  0  0
 17 18  1  0  0  0  0
 18 20  2  0  0  0  0
 19 18  1  1  0  0  0
 19 22  1  0  0  0  0
 19 30  1  0  0  0  0
 21 23  1  6  0  0  0
 21 29  1  0  0  0  0
 21 22  1  0  0  0  0
 23 24  1  0  0  0  0
 24 25  1  1  0  0  0
 24 26  1  0  0  0  0
 26 27  1  1  0  0  0
 26 28  1  0  0  0  0
 29 28  1  1  0  0  0
 29 31  1  0  0  0  0
 30 14  1  1  0  0  0
 30 31  1  0  0  0  0
M  CHG  1   3  -1
M  END
>  <CHROM.1>
64.89198879,38.59376167,82.97536697,152.85459754,156.11496806,-179.59052135
-86.33395384,27.44850592,37.81860348,20.10439312,-1.85557482,-1.39813177
2.37968040

>  <Name>
ligand

>  <RI>
0

>  <Rbt.Current_Directory>
/home/itssahil/PROJECTS/Mol_Feturizer/New_Systems/rnas/3F2T

>  <Rbt.Executable>
rbdock ($Id: //depot/dev/client3/rdock/2013.1/src/exe/rbdock.cxx#4 $)

>  <Rbt.Library>
libRbt.so (2013.1, Build901 2013/11/27)

>  <Rbt.Parameter_File>
/export/apps/rDock/src/rDock_2013.1_src/data/scripts/dock_solv.prm

>  <Rbt.Receptor>
prm/pocket_docking_2.prm

>  <SCORE>
-28.8321

>  <SCORE.INTER>
-32.0917

>  <SCORE.INTER.CONST>
1

>  <SCORE.INTER.POLAR>
0

>  <SCORE.INTER.ROT>
7

>  <SCORE.INTER.SOLV>
17.0704

>  <SCORE.INTER.VDW>
-35.3512

>  <SCORE.INTER.norm>
-1.03522

>  <SCORE.INTRA>
3.23306

>  <SCORE.INTRA.DIHEDRAL>
3.11062

>  <SCORE.INTRA.DIHEDRAL.0>
4.64198

>  <SCORE.INTRA.POLAR>
0

>  <SCORE.INTRA.POLAR.0>
0

>  <SCORE.INTRA.REPUL>
0

>  <SCORE.INTRA.REPUL.0>
0

>  <SCORE.INTRA.SOLV>
1.46858

>  <SCORE.INTRA.SOLV.lig_0>
-49.3611

>  <SCORE.INTRA.VDW>
0.943457

>  <SCORE.INTRA.VDW.0>
-1.91858

>  <SCORE.INTRA.norm>
0.104292

>  <SCORE.RESTR>
0.026479

>  <SCORE.RESTR.CAVITY>
0.026479

>  <SCORE.RESTR.norm>
0.000854163

>  <SCORE.SYSTEM>
0

>  <SCORE.SYSTEM.CONST>
0

>  <SCORE.SYSTEM.DIHEDRAL>
0

>  <SCORE.SYSTEM.SOLV>
0

>  <SCORE.SYSTEM.norm>
0

>  <SCORE.heavy>
31

>  <SCORE.norm>
-0.930069

>  <RMSD>
1.071

$$$$
ligand
 OpenBabel11021811473D
libRbt.so/2013.1/901 2013/11/27
 31 33  0  0  0  0  0  0  0  0999 V2000
   26.2755   43.3492   16.9308 P   0  0  1  0  0  0  0  0  0  0  0  0
   26.5192   44.8184   17.1659 O   0  0  0  0  0  0  0  0  0  0  0  0
   24.7958   43.1265   16.7637 O   0  5  0  0  0  0  0  0  0  0  0  0
   27.0489   42.9786   15.6953 O   0  0  0  0  0  0  0  0  0  0  0  0
   26.1151   41.2204   18.4518 C   0  0  0  0  0  0  0  0  0  0  0  0
   26.7806   42.4278   18.1449 O   0  0  0  0  0  0  0  0  0  0  0  0
   26.7265   40.0873   17.6318 C   0  0  1  0  0  0  0  0  0  0  0  0
   27.1636   40.5842   16.3824 O   0  0  0  0  0  0  0  0  0  0  0  0
   27.9137   39.4930   18.3706 C   0  0  1  0  0  0  0  0  0  0  0  0
   28.6188   40.5360   18.9890 O   0  0  0  0  0  0  0  0  0  0  0  0
   27.4988   38.4849   19.4290 C   0  0  1  0  0  0  0  0  0  0  0  0
   26.4903   37.6726   18.8913 O   0  0  0  0  0  0  0  0  0  0  0  0
   28.6751   37.6153   19.8409 C   0  0  0  0  0  0  0  0  0  0  0  0
   28.5837   34.8779   19.1943 N   0  0  0  0  0  0  0  0  0  0  0  0
   28.5012   33.5570   18.8104 C   0  0  0  0  0  0  0  0  0  0  0  0
   28.8785   33.2156   17.6933 O   0  0  0  0  0  0  0  0  0  0  0  0
   27.9943   32.6106   19.6714 N   0  0  0  0  0  0  0  0  0  0  0  0
   27.5737   32.9755   20.9355 C   0  0  0  0  0  0  0  0  0  0  0  0
   27.6525   34.3061   21.3314 C   0  0  1  0  0  0  0  0  0  0  0  0
   27.1380   32.1209   21.7097 O   0  0  0  0  0  0  0  0  0  0  0  0
   27.3130   36.0007   22.9845 C   0  0  2  0  0  0  0  0  0  0  0  0
   27.2320   34.6780   22.5926 N   0  0  0  0  0  0  0  0  0  0  0  0
   26.8877   36.3753   24.2594 C   0  0  0  0  0  0  0  0  0  0  0  0
   26.9600   37.7038   24.6618 C   0  0  1  0  0  0  0  0  0  0  0  0
   26.4914   38.0691   26.0348 C   0  0  0  0  0  0  0  0  0  0  0  0
   27.4683   38.6717   23.7824 C   0  0  1  0  0  0  0  0  0  0  0  0
   27.5719   40.1180   24.1820 C   0  0  0  0  0  0  0  0  0  0  0  0
   27.8904   38.2950   22.5101 C   0  0  0  0  0  0  0  0  0  0  0  0
   27.8144   36.9617   22.1033 C   0  0  1  0  0  0  0  0  0  0  0  0
   28.1577   35.2600   20.4503 C   0  0  1  0  0  0  0  0  0  0  0  0
   28.2322   36.5849   20.8358 N   0  0  0  0  0  0  0  0  0  0  0  0
  1  2  1  1  0  0  0
  1  3  1  0  0  0  0
  1  4  2  0  0  0  0
  1  6  1  0  0  0  0
  5  6  1  0  0  0  0
  7  5  1  1  0  0  0
  7  8  1  0  0  0  0
  7  9  1  0  0  0  0
  9 10  1  1  0  0  0
  9 11  1  0  0  0  0
 11 12  1  6  0  0  0
 11 13  1  0  0  0  0
 13 31  1  0  0  0  0
 14 15  1  0  0  0  0
 15 16  2  0  0  0  0
 15 17  1  0  0  0  0
 17 18  1  0  0  0  0
 18 20  2  0  0  0  0
 19 18  1  1  0  0  0
 19 22  1  0  0  0  0
 19 30  1  0  0  0  0
 21 23  1  6  0  0  0
 21 29  1  0  0  0  0
 21 22  1  0  0  0  0
 23 24  1  0  0  0  0
 24 25  1  1  0  0  0
 24 26  1  0  0  0  0
 26 27  1  1  0  0  0
 26 28  1  0  0  0  0
 29 28  1  1  0  0  0
 29 31  1  0  0  0  0
 30 14  1  1  0  0  0
 30 31  1  0  0  0  0
M  CHG  1   3  -1
M  END
>  <CHROM.1>
88.52658068,148.60045744,-32.55197541,-38.69852991,42.83688016,-177.28409177
-66.97007837,27.31827264,38.25529416,19.93844997,-2.33345959,-1.38649860
1.87933510

>  <Name>
ligand

>  <RI>
0

>  <Rbt.Current_Directory>
/home/itssahil/PROJECTS/Mol_Feturizer/New_Systems/rnas/3F2T

>  <Rbt.Executable>
rbdock ($Id: //depot/dev/client3/rdock/2013.1/src/exe/rbdock.cxx#4 $)

>  <Rbt.Library>
libRbt.so (2013.1, Build901 2013/11/27)

>  <Rbt.Parameter_File>
/export/apps/rDock/src/rDock_2013.1_src/data/scripts/dock_solv.prm

>  <Rbt.Receptor>
prm/pocket_docking_2.prm

>  <SCORE>
-23.6488

>  <SCORE.INTER>
-30.3172

>  <SCORE.INTER.CONST>
1

>  <SCORE.INTER.POLAR>
0

>  <SCORE.INTER.ROT>
7

>  <SCORE.INTER.SOLV>
18.5317

>  <SCORE.INTER.VDW>
-34.6553

>  <SCORE.INTER.norm>
-0.977973

>  <SCORE.INTRA>
6.64975

>  <SCORE.INTRA.DIHEDRAL>
6.00328

>  <SCORE.INTRA.DIHEDRAL.0>
4.64198

>  <SCORE.INTRA.POLAR>
0

>  <SCORE.INTRA.POLAR.0>
0

>  <SCORE.INTRA.REPUL>
0

>  <SCORE.INTRA.REPUL.0>
0

>  <SCORE.INTRA.SOLV>
3.5145

>  <SCORE.INTRA.SOLV.lig_0>
-49.3611

>  <SCORE.INTRA.VDW>
1.89086

>  <SCORE.INTRA.VDW.0>
-1.91858

>  <SCORE.INTRA.norm>
0.214508

>  <SCORE.RESTR>
0.018648

>  <SCORE.RESTR.CAVITY>
0.018648

>  <SCORE.RESTR.norm>
0.000601547

>  <SCORE.SYSTEM>
0

>  <SCORE.SYSTEM.CONST>
0

>  <SCORE.SYSTEM.DIHEDRAL>
0

>  <SCORE.SYSTEM.SOLV>
0

>  <SCORE.SYSTEM.norm>
0

>  <SCORE.heavy>
31

>  <SCORE.norm>
-0.762863

>  <RMSD>
1.073

$$$$
ligand
 OpenBabel11021811473D
libRbt.so/2013.1/901 2013/11/27
 31 33  0  0  0  0  0  0  0  0999 V2000
   26.4214   43.8003   16.6021 P   0  0  1  0  0  0  0  0  0  0  0  0
   27.8058   44.3692   16.4197 O   0  0  0  0  0  0  0  0  0  0  0  0
   25.4980   44.9080   17.0347 O   0  5  0  0  0  0  0  0  0  0  0  0
   26.0216   43.2123   15.2768 O   0  0  0  0  0  0  0  0  0  0  0  0
   27.1603   41.4857   17.5855 C   0  0  0  0  0  0  0  0  0  0  0  0
   26.3607   42.6429   17.7134 O   0  0  0  0  0  0  0  0  0  0  0  0
   26.9275   40.5785   18.7908 C   0  0  1  0  0  0  0  0  0  0  0  0
   25.5755   40.1664   18.8242 O   0  0  0  0  0  0  0  0  0  0  0  0
   27.8168   39.3501   18.6963 C   0  0  1  0  0  0  0  0  0  0  0  0
   29.1307   39.7283   19.0094 O   0  0  0  0  0  0  0  0  0  0  0  0
   27.3857   38.2418   19.6422 C   0  0  1  0  0  0  0  0  0  0  0  0
   26.2331   37.6397   19.1177 O   0  0  0  0  0  0  0  0  0  0  0  0
   28.4772   37.1940   19.7839 C   0  0  0  0  0  0  0  0  0  0  0  0
   28.3966   34.4182   19.3277 N   0  0  0  0  0  0  0  0  0  0  0  0
   28.3143   33.0734   19.0387 C   0  0  0  0  0  0  0  0  0  0  0  0
   28.6197   32.6634   17.9227 O   0  0  0  0  0  0  0  0  0  0  0  0
   27.8880   32.1793   19.9942 N   0  0  0  0  0  0  0  0  0  0  0  0
   27.5491   32.6219   21.2580 C   0  0  0  0  0  0  0  0  0  0  0  0
   27.6283   33.9772   21.5585 C   0  0  1  0  0  0  0  0  0  0  0  0
   27.1859   31.8147   22.1160 O   0  0  0  0  0  0  0  0  0  0  0  0
   27.3706   35.7738   23.1159 C   0  0  2  0  0  0  0  0  0  0  0  0
   27.2893   34.4267   22.8190 N   0  0  0  0  0  0  0  0  0  0  0  0
   27.0276   36.2268   24.3903 C   0  0  0  0  0  0  0  0  0  0  0  0
   27.1008   37.5803   24.6978 C   0  0  1  0  0  0  0  0  0  0  0  0
   26.7218   38.0299   26.0734 C   0  0  0  0  0  0  0  0  0  0  0  0
   27.5268   38.4945   23.7225 C   0  0  1  0  0  0  0  0  0  0  0  0
   27.6287   39.9659   24.0174 C   0  0  0  0  0  0  0  0  0  0  0  0
   27.8668   38.0396   22.4512 C   0  0  0  0  0  0  0  0  0  0  0  0
   27.7897   36.6810   22.1398 C   0  0  1  0  0  0  0  0  0  0  0  0
   28.0515   34.8774   20.5828 C   0  0  1  0  0  0  0  0  0  0  0  0
   28.1258   36.2262   20.8736 N   0  0  0  0  0  0  0  0  0  0  0  0
  1  2  1  6  0  0  0
  1  3  1  0  0  0  0
  1  4  2  0  0  0  0
  1  6  1  0  0  0  0
  5  6  1  0  0  0  0
  7  5  1  6  0  0  0
  7  8  1  0  0  0  0
  7  9  1  0  0  0  0
  9 10  1  1  0  0  0
  9 11  1  0  0  0  0
 11 12  1  6  0  0  0
 11 13  1  0  0  0  0
 13 31  1  0  0  0  0
 14 15  1  0  0  0  0
 15 16  2  0  0  0  0
 15 17  1  0  0  0  0
 17 18  1  0  0  0  0
 18 20  2  0  0  0  0
 19 18  1  1  0  0  0
 19 22  1  0  0  0  0
 19 30  1  0  0  0  0
 21 23  1  6  0  0  0
 21 29  1  0  0  0  0
 21 22  1  0  0  0  0
 23 24  1  0  0  0  0
 24 25  1  1  0  0  0
 24 26  1  0  0  0  0
 26 27  1  1  0  0  0
 26 28  1  0  0  0  0
 29 28  1  1  0  0  0
 29 31  1  0  0  0  0
 30 14  1  1  0  0  0
 30 31  1  0  0  0  0
M  CHG  1   3  -1
M  END
>  <CHROM.1>
178.63305926,-58.11228820,62.10366484,74.70962861,74.69095961,171.30345598
-52.65651871,27.31792124,38.14538252,20.05597294,-2.38422856,-1.41928341
1.84930133

>  <Name>
ligand

>  <RI>
0

>  <Rbt.Current_Directory>
/home/itssahil/PROJECTS/Mol_Feturizer/New_Systems/rnas/3F2T

>  <Rbt.Executable>
rbdock ($Id: //depot/dev/client3/rdock/2013.1/src/exe/rbdock.cxx#4 $)

>  <Rbt.Library>
libRbt.so (2013.1, Build901 2013/11/27)

>  <Rbt.Parameter_File>
/export/apps/rDock/src/rDock_2013.1_src/data/scripts/dock_solv.prm

>  <Rbt.Receptor>
prm/pocket_docking_6.prm

>  <SCORE>
-32.2259

>  <SCORE.INTER>
-32.2988

>  <SCORE.INTER.CONST>
1

>  <SCORE.INTER.POLAR>
0

>  <SCORE.INTER.ROT>
7

>  <SCORE.INTER.SOLV>
20.7614

>  <SCORE.INTER.VDW>
-36.7197

>  <SCORE.INTER.norm>
-1.0419

>  <SCORE.INTRA>
0.0728623

>  <SCORE.INTRA.DIHEDRAL>
-1.59056

>  <SCORE.INTRA.DIHEDRAL.0>
4.64198

>  <SCORE.INTRA.POLAR>
0

>  <SCORE.INTRA.POLAR.0>
0

>  <SCORE.INTRA.REPUL>
0

>  <SCORE.INTRA.REPUL.0>
0

>  <SCORE.INTRA.SOLV>
-0.634062

>  <SCORE.INTRA.SOLV.lig_0>
-49.3611

>  <SCORE.INTRA.VDW>
1.18517

>  <SCORE.INTRA.VDW.0>
-1.91858

>  <SCORE.INTRA.norm>
0.0023504

>  <SCORE.RESTR>
0

>  <SCORE.RESTR.CAVITY>
0

>  <SCORE.RESTR.norm>
0

>  <SCORE.SYSTEM>
0

>  <SCORE.SYSTEM.CONST>
0

>  <SCORE.SYSTEM.DIHEDRAL>
0

>  <SCORE.SYSTEM.SOLV>
0

>  <SCORE.SYSTEM.norm>
0

>  <SCORE.heavy>
31

>  <SCORE.norm>
-1.03955

>  <RMSD>
1.075

$$$$
ligand
 OpenBabel11021811473D
libRbt.so/2013.1/901 2013/11/27
 31 33  0  0  0  0  0  0  0  0999 V2000
   26.4492   42.6204   17.2324 P   0  0  1  0  0  0  0  0  0  0  0  0
   26.9475   44.0433   17.2537 O   0  0  0  0  0  0  0  0  0  0  0  0
   24.9438   42.6368   17.2169 O   0  5  0  0  0  0  0  0  0  0  0  0
   27.0232   41.9836   15.9967 O   0  0  0  0  0  0  0  0  0  0  0  0
   26.6160   40.3963   18.6094 C   0  0  0  0  0  0  0  0  0  0  0  0
   26.9219   41.7716   18.5109 O   0  0  0  0  0  0  0  0  0  0  0  0
   27.4873   39.6163   17.6282 C   0  0  1  0  0  0  0  0  0  0  0  0
   28.8198   39.5780   18.0993 O   0  0  0  0  0  0  0  0  0  0  0  0
   26.9701   38.1942   17.4907 C   0  0  1  0  0  0  0  0  0  0  0  0
   27.8929   37.4577   16.7335 O   0  0  0  0  0  0  0  0  0  0  0  0
   26.7781   37.5094   18.8335 C   0  0  1  0  0  0  0  0  0  0  0  0
   26.0479   36.3307   18.6255 O   0  0  0  0  0  0  0  0  0  0  0  0
   28.1175   37.1638   19.4628 C   0  0  0  0  0  0  0  0  0  0  0  0
   28.2069   34.3799   19.0607 N   0  0  0  0  0  0  0  0  0  0  0  0
   28.2020   33.0265   18.8016 C   0  0  0  0  0  0  0  0  0  0  0  0
   28.4500   32.6148   17.6720 O   0  0  0  0  0  0  0  0  0  0  0  0
   27.9176   32.1256   19.8023 N   0  0  0  0  0  0  0  0  0  0  0  0
   27.6453   32.5707   21.0812 C   0  0  0  0  0  0  0  0  0  0  0  0
   27.6472   33.9345   21.3520 C   0  0  1  0  0  0  0  0  0  0  0  0
   27.4097   31.7587   21.9783 O   0  0  0  0  0  0  0  0  0  0  0  0
   27.3784   35.7422   22.8946 C   0  0  2  0  0  0  0  0  0  0  0  0
   27.3741   34.3864   22.6275 N   0  0  0  0  0  0  0  0  0  0  0  0
   27.1020   36.1976   24.1842 C   0  0  0  0  0  0  0  0  0  0  0  0
   27.0987   37.5594   24.4625 C   0  0  1  0  0  0  0  0  0  0  0  0
   26.7945   38.0111   25.8558 C   0  0  0  0  0  0  0  0  0  0  0  0
   27.3798   38.4800   23.4416 C   0  0  1  0  0  0  0  0  0  0  0  0
   27.3952   39.9611   23.7030 C   0  0  0  0  0  0  0  0  0  0  0  0
   27.6536   38.0225   22.1554 C   0  0  0  0  0  0  0  0  0  0  0  0
   27.6531   36.6552   21.8737 C   0  0  1  0  0  0  0  0  0  0  0  0
   27.9265   34.8409   20.3312 C   0  0  1  0  0  0  0  0  0  0  0  0
   27.9233   36.1977   20.5927 N   0  0  0  0  0  0  0  0  0  0  0  0
  1  2  1  1  0  0  0
  1  3  1  0  0  0  0
  1  4  2  0  0  0  0
  1  6  1  0  0  0  0
  5  6  1  0  0  0  0
  7  5  1  1  0  0  0
  7  8  1  0  0  0  0
  7  9  1  0  0  0  0
  9 10  1  6  0  0  0
  9 11  1  0  0  0  0
 11 12  1  6  0  0  0
 11 13  1  0  0  0  0
 13 31  1  0  0  0  0
 14 15  1  0  0  0  0
 15 16  2  0  0  0  0
 15 17  1  0  0  0  0
 17 18  1  0  0  0  0
 18 20  2  0  0  0  0
 19 18  1  1  0  0  0
 19 22  1  0  0  0  0
 19 30  1  0  0  0  0
 21 23  1  6  0  0  0
 21 29  1  0  0  0  0
 21 22  1  0  0  0  0
 23 24  1  0  0  0  0
 24 25  1  1  0  0  0
 24 26  1  0  0  0  0
 26 27  1  1  0  0  0
 26 28  1  0  0  0  0
 29 28  1  1  0  0  0
 29 31  1  0  0  0  0
 30 14  1  1  0  0  0
 30 31  1  0  0  0  0
M  CHG  1   3  -1
M  END
>  <CHROM.1>
72.83316866,-175.93509552,72.61265707,-171.93640053,167.86159402,-165.71014744
-87.20237622,27.30936179,37.61160698,19.87050979,-2.41658772,-1.42505532
1.83902113

>  <Name>
ligand

>  <RI>
0

>  <Rbt.Current_Directory>
/home/itssahil/PROJECTS/Mol_Feturizer/New_Systems/rnas/3F2T

>  <Rbt.Executable>
rbdock ($Id: //depot/dev/client3/rdock/2013.1/src/exe/rbdock.cxx#4 $)

>  <Rbt.Library>
libRbt.so (2013.1, Build901 2013/11/27)

>  <Rbt.Parameter_File>
/export/apps/rDock/src/rDock_2013.1_src/data/scripts/dock_solv.prm

>  <Rbt.Receptor>
prm/pocket_docking_2.prm

>  <SCORE>
-28.8116

>  <SCORE.INTER>
-30.8763

>  <SCORE.INTER.CONST>
1

>  <SCORE.INTER.POLAR>
0

>  <SCORE.INTER.ROT>
7

>  <SCORE.INTER.SOLV>
17.8922

>  <SCORE.INTER.VDW>
-34.815

>  <SCORE.INTER.norm>
-0.996011

>  <SCORE.INTRA>
2.06211

>  <SCORE.INTRA.DIHEDRAL>
-0.743493

>  <SCORE.INTRA.DIHEDRAL.0>
4.64198

>  <SCORE.INTRA.POLAR>
0

>  <SCORE.INTRA.POLAR.0>
0

>  <SCORE.INTRA.REPUL>
0

>  <SCORE.INTRA.REPUL.0>
0

>  <SCORE.INTRA.SOLV>
2.35787

>  <SCORE.INTRA.SOLV.lig_0>
-49.3611

>  <SCORE.INTRA.VDW>
1.25492

>  <SCORE.INTRA.VDW.0>
-1.91858

>  <SCORE.INTRA.norm>
0.0665198

>  <SCORE.RESTR>
0.0026691

>  <SCORE.RESTR.CAVITY>
0.0026691

>  <SCORE.RESTR.norm>
8.61001e-05

>  <SCORE.SYSTEM>
0

>  <SCORE.SYSTEM.CONST>
0

>  <SCORE.SYSTEM.DIHEDRAL>
0

>  <SCORE.SYSTEM.SOLV>
0

>  <SCORE.SYSTEM.norm>
0

>  <SCORE.heavy>
31

>  <SCORE.norm>
-0.929405

>  <RMSD>
1.078

$$$$
ligand
 OpenBabel11021811473D
libRbt.so/2013.1/901 2013/11/27
 31 33  0  0  0  0  0  0  0  0999 V2000
   26.2466   43.8314   16.6909 P   0  0  1  0  0  0  0  0  0  0  0  0
   27.6015   44.4667   16.5067 O   0  0  0  0  0  0  0  0  0  0  0  0
   25.2699   44.8941   17.1194 O   0  5  0  0  0  0  0  0  0  0  0  0
   25.8764   43.2197   15.3678 O   0  0  0  0  0  0  0  0  0  0  0  0
   27.0877   41.5525   17.6757 C   0  0  0  0  0  0  0  0  0  0  0  0
   26.2424   42.6764   17.8064 O   0  0  0  0  0  0  0  0  0  0  0  0
   26.8566   40.6103   18.8543 C   0  0  1  0  0  0  0  0  0  0  0  0
   25.5116   40.1747   18.8606 O   0  0  0  0  0  0  0  0  0  0  0  0
   27.7680   39.4001   18.7388 C   0  0  1  0  0  0  0  0  0  0  0  0
   29.0691   39.7894   19.0893 O   0  0  0  0  0  0  0  0  0  0  0  0
   27.3376   38.2556   19.6408 C   0  0  1  0  0  0  0  0  0  0  0  0
   26.2299   37.6265   19.0548 O   0  0  0  0  0  0  0  0  0  0  0  0
   28.4588   37.2431   19.8055 C   0  0  0  0  0  0  0  0  0  0  0  0
   28.3966   34.4713   19.3228 N   0  0  0  0  0  0  0  0  0  0  0  0
   28.3232   33.1287   19.0212 C   0  0  0  0  0  0  0  0  0  0  0  0
   28.6306   32.7315   17.9011 O   0  0  0  0  0  0  0  0  0  0  0  0
   27.9037   32.2228   19.9684 N   0  0  0  0  0  0  0  0  0  0  0  0
   27.5627   32.6510   21.2365 C   0  0  0  0  0  0  0  0  0  0  0  0
   27.6330   34.0038   21.5499 C   0  0  1  0  0  0  0  0  0  0  0  0
   27.2056   31.8332   22.0870 O   0  0  0  0  0  0  0  0  0  0  0  0
   27.3643   35.7837   23.1245 C   0  0  2  0  0  0  0  0  0  0  0  0
   27.2919   34.4390   22.8149 N   0  0  0  0  0  0  0  0  0  0  0  0
   27.0192   36.2222   24.4033 C   0  0  0  0  0  0  0  0  0  0  0  0
   27.0834   37.5732   24.7238 C   0  0  1  0  0  0  0  0  0  0  0  0
   26.7024   38.0071   26.1038 C   0  0  0  0  0  0  0  0  0  0  0  0
   27.5025   38.4996   23.7569 C   0  0  1  0  0  0  0  0  0  0  0  0
   27.5946   39.9688   24.0657 C   0  0  0  0  0  0  0  0  0  0  0  0
   27.8447   38.0591   22.4811 C   0  0  0  0  0  0  0  0  0  0  0  0
   27.7765   36.7030   22.1569 C   0  0  1  0  0  0  0  0  0  0  0  0
   28.0494   34.9161   20.5825 C   0  0  1  0  0  0  0  0  0  0  0  0
   28.1147   36.2626   20.8861 N   0  0  0  0  0  0  0  0  0  0  0  0
  1  2  1  6  0  0  0
  1  3  1  0  0  0  0
  1  4  2  0  0  0  0
  1  6  1  0  0  0  0
  5  6  1  0  0  0  0
  7  5  1  6  0  0  0
  7  8  1  0  0  0  0
  7  9  1  0  0  0  0
  9 10  1  1  0  0  0
  9 11  1  0  0  0  0
 11 12  1  6  0  0  0
 11 13  1  0  0  0  0
 13 31  1  0  0  0  0
 14 15  1  0  0  0  0
 15 16  2  0  0  0  0
 15 17  1  0  0  0  0
 17 18  1  0  0  0  0
 18 20  2  0  0  0  0
 19 18  1  1  0  0  0
 19 22  1  0  0  0  0
 19 30  1  0  0  0  0
 21 23  1  6  0  0  0
 21 29  1  0  0  0  0
 21 22  1  0  0  0  0
 23 24  1  0  0  0  0
 24 25  1  1  0  0  0
 24 26  1  0  0  0  0
 26 27  1  1  0  0  0
 26 28  1  0  0  0  0
 29 28  1  1  0  0  0
 29 31  1  0  0  0  0
 30 14  1  1  0  0  0
 30 31  1  0  0  0  0
M  CHG  1   3  -1
M  END
>  <CHROM.1>
-178.85741509,-58.77446436,60.64670228,75.24540573,76.44227331,169.61577250
-54.66298919,27.26643093,38.17255320,20.08555839,-2.46156554,-1.40873345
1.78116915

>  <Name>
ligand

>  <RI>
0

>  <Rbt.Current_Directory>
/home/itssahil/PROJECTS/Mol_Feturizer/New_Systems/rnas/3F2T

>  <Rbt.Executable>
rbdock ($Id: //depot/dev/client3/rdock/2013.1/src/exe/rbdock.cxx#4 $)

>  <Rbt.Library>
libRbt.so (2013.1, Build901 2013/11/27)

>  <Rbt.Parameter_File>
/export/apps/rDock/src/rDock_2013.1_src/data/scripts/dock_solv.prm

>  <Rbt.Receptor>
prm/pocket_docking_4.prm

>  <SCORE>
-32.1881

>  <SCORE.INTER>
-32.3249

>  <SCORE.INTER.CONST>
1

>  <SCORE.INTER.POLAR>
0

>  <SCORE.INTER.ROT>
7

>  <SCORE.INTER.SOLV>
20.0901

>  <SCORE.INTER.VDW>
-36.5133

>  <SCORE.INTER.norm>
-1.04274

>  <SCORE.INTRA>
0.13679

>  <SCORE.INTRA.DIHEDRAL>
-1.27896

>  <SCORE.INTRA.DIHEDRAL.0>
4.64198

>  <SCORE.INTRA.POLAR>
0

>  <SCORE.INTRA.POLAR.0>
0

>  <SCORE.INTRA.REPUL>
0

>  <SCORE.INTRA.REPUL.0>
0

>  <SCORE.INTRA.SOLV>
-0.621989

>  <SCORE.INTRA.SOLV.lig_0>
-49.3611

>  <SCORE.INTRA.VDW>
1.08727

>  <SCORE.INTRA.VDW.0>
-1.91858

>  <SCORE.INTRA.norm>
0.00441257

>  <SCORE.RESTR>
0

>  <SCORE.RESTR.CAVITY>
0

>  <SCORE.RESTR.norm>
0

>  <SCORE.SYSTEM>
0

>  <SCORE.SYSTEM.CONST>
0

>  <SCORE.SYSTEM.DIHEDRAL>
0

>  <SCORE.SYSTEM.SOLV>
0

>  <SCORE.SYSTEM.norm>
0

>  <SCORE.heavy>
31

>  <SCORE.norm>
-1.03833

>  <RMSD>
1.079

$$$$
ligand
 OpenBabel11021811473D
libRbt.so/2013.1/901 2013/11/27
 31 33  0  0  0  0  0  0  0  0999 V2000
   25.7550   43.1155   16.6805 P   0  0  1  0  0  0  0  0  0  0  0  0
   24.6374   42.1684   17.0371 O   0  0  0  0  0  0  0  0  0  0  0  0
   25.3944   43.8284   15.4043 O   0  5  0  0  0  0  0  0  0  0  0  0
   25.9000   44.0633   17.8392 O   0  0  0  0  0  0  0  0  0  0  0  0
   27.2375   40.9612   16.5021 C   0  0  0  0  0  0  0  0  0  0  0  0
   27.1589   42.3705   16.4515 O   0  0  0  0  0  0  0  0  0  0  0  0
   27.2426   40.5103   17.9604 C   0  0  1  0  0  0  0  0  0  0  0  0
   25.9197   40.4910   18.4588 O   0  0  0  0  0  0  0  0  0  0  0  0
   27.8333   39.1147   18.0710 C   0  0  1  0  0  0  0  0  0  0  0  0
   29.2246   39.2085   17.9205 O   0  0  0  0  0  0  0  0  0  0  0  0
   27.5265   38.4538   19.4043 C   0  0  1  0  0  0  0  0  0  0  0  0
   26.4393   37.5867   19.2255 O   0  0  0  0  0  0  0  0  0  0  0  0
   28.7222   37.6604   19.9046 C   0  0  0  0  0  0  0  0  0  0  0  0
   28.6008   34.9360   19.2096 N   0  0  0  0  0  0  0  0  0  0  0  0
   28.5032   33.6231   18.8026 C   0  0  0  0  0  0  0  0  0  0  0  0
   28.8700   33.2983   17.6771 O   0  0  0  0  0  0  0  0  0  0  0  0
   27.9932   32.6661   19.6500 N   0  0  0  0  0  0  0  0  0  0  0  0
   27.5843   33.0121   20.9231 C   0  0  0  0  0  0  0  0  0  0  0  0
   27.6783   34.3345   21.3423 C   0  0  1  0  0  0  0  0  0  0  0  0
   27.1458   32.1478   21.6849 O   0  0  0  0  0  0  0  0  0  0  0  0
   27.3657   36.0022   23.0278 C   0  0  2  0  0  0  0  0  0  0  0  0
   27.2697   34.6876   22.6128 N   0  0  0  0  0  0  0  0  0  0  0  0
   26.9523   36.3578   24.3121 C   0  0  0  0  0  0  0  0  0  0  0  0
   27.0398   37.6780   24.7378 C   0  0  1  0  0  0  0  0  0  0  0  0
   26.5837   38.0230   26.1202 C   0  0  0  0  0  0  0  0  0  0  0  0
   27.5514   38.6568   23.8724 C   0  0  1  0  0  0  0  0  0  0  0  0
   27.6712   40.0947   24.2972 C   0  0  0  0  0  0  0  0  0  0  0  0
   27.9616   38.2992   22.5908 C   0  0  0  0  0  0  0  0  0  0  0  0
   27.8703   36.9742   22.1606 C   0  0  1  0  0  0  0  0  0  0  0  0
   28.1867   35.2994   20.4751 C   0  0  1  0  0  0  0  0  0  0  0  0
   28.2762   36.6164   20.8837 N   0  0  0  0  0  0  0  0  0  0  0  0
  1  2  1  1  0  0  0
  1  3  1  0  0  0  0
  1  4  2  0  0  0  0
  1  6  1  0  0  0  0
  5  6  1  0  0  0  0
  7  5  1  6  0  0  0
  7  8  1  0  0  0  0
  7  9  1  0  0  0  0
  9 10  1  1  0  0  0
  9 11  1  0  0  0  0
 11 12  1  6  0  0  0
 11 13  1  0  0  0  0
 13 31  1  0  0  0  0
 14 15  1  0  0  0  0
 15 16  2  0  0  0  0
 15 17  1  0  0  0  0
 17 18  1  0  0  0  0
 18 20  2  0  0  0  0
 19 18  1  1  0  0  0
 19 22  1  0  0  0  0
 19 30  1  0  0  0  0
 21 23  1  6  0  0  0
 21 29  1  0  0  0  0
 21 22  1  0  0  0  0
 23 24  1  0  0  0  0
 24 25  1  1  0  0  0
 24 26  1  0  0  0  0
 26 27  1  1  0  0  0
 26 28  1  0  0  0  0
 29 28  1  1  0  0  0
 29 31  1  0  0  0  0
 30 14  1  1  0  0  0
 30 31  1  0  0  0  0
M  CHG  1   3  -1
M  END
>  <CHROM.1>
-78.45795621,4.17712724,81.13841705,75.23666929,98.96348065,-158.00731839
-72.93666935,27.25663225,38.15612535,19.89145743,2.41316746,1.33993391,-1.39309981

>  <Name>
ligand

>  <RI>
0

>  <Rbt.Current_Directory>
/home/itssahil/PROJECTS/Mol_Feturizer/New_Systems/rnas/3F2T

>  <Rbt.Executable>
rbdock ($Id: //depot/dev/client3/rdock/2013.1/src/exe/rbdock.cxx#4 $)

>  <Rbt.Library>
libRbt.so (2013.1, Build901 2013/11/27)

>  <Rbt.Parameter_File>
/export/apps/rDock/src/rDock_2013.1_src/data/scripts/dock_solv.prm

>  <Rbt.Receptor>
prm/pocket_docking_2.prm

>  <SCORE>
-22.4347

>  <SCORE.INTER>
-28.9953

>  <SCORE.INTER.CONST>
1

>  <SCORE.INTER.POLAR>
0

>  <SCORE.INTER.ROT>
7

>  <SCORE.INTER.SOLV>
18.0276

>  <SCORE.INTER.VDW>
-33.606

>  <SCORE.INTER.norm>
-0.935332

>  <SCORE.INTRA>
6.5606

>  <SCORE.INTRA.DIHEDRAL>
8.15504

>  <SCORE.INTRA.DIHEDRAL.0>
4.64198

>  <SCORE.INTRA.POLAR>
0

>  <SCORE.INTRA.POLAR.0>
0

>  <SCORE.INTRA.REPUL>
0

>  <SCORE.INTRA.REPUL.0>
0

>  <SCORE.INTRA.SOLV>
0.992562

>  <SCORE.INTRA.SOLV.lig_0>
-49.3611

>  <SCORE.INTRA.VDW>
1.9868

>  <SCORE.INTRA.VDW.0>
-1.91858

>  <SCORE.INTRA.norm>
0.211632

>  <SCORE.RESTR>
0

>  <SCORE.RESTR.CAVITY>
0

>  <SCORE.RESTR.norm>
0

>  <SCORE.SYSTEM>
0

>  <SCORE.SYSTEM.CONST>
0

>  <SCORE.SYSTEM.DIHEDRAL>
0

>  <SCORE.SYSTEM.SOLV>
0

>  <SCORE.SYSTEM.norm>
0

>  <SCORE.heavy>
31

>  <SCORE.norm>
-0.723699

>  <RMSD>
1.084

$$$$
ligand
 OpenBabel11021811473D
libRbt.so/2013.1/901 2013/11/27
 31 33  0  0  0  0  0  0  0  0999 V2000
   28.2311   42.4743   16.2311 P   0  0  1  0  0  0  0  0  0  0  0  0
   28.5166   43.7720   16.9436 O   0  0  0  0  0  0  0  0  0  0  0  0
   26.9101   42.5957   15.5189 O   0  5  0  0  0  0  0  0  0  0  0  0
   29.3720   42.2486   15.2776 O   0  0  0  0  0  0  0  0  0  0  0  0
   27.4052   41.3091   18.4290 C   0  0  0  0  0  0  0  0  0  0  0  0
   28.1425   41.2184   17.2277 O   0  0  0  0  0  0  0  0  0  0  0  0
   27.5286   39.9942   19.1946 C   0  0  1  0  0  0  0  0  0  0  0  0
   26.7253   40.0415   20.3571 O   0  0  0  0  0  0  0  0  0  0  0  0
   27.0678   38.8392   18.3215 C   0  0  1  0  0  0  0  0  0  0  0  0
   28.0233   38.6348   17.3153 O   0  0  0  0  0  0  0  0  0  0  0  0
   26.8938   37.5482   19.1037 C   0  0  1  0  0  0  0  0  0  0  0  0
   26.4810   36.5468   18.2133 O   0  0  0  0  0  0  0  0  0  0  0  0
   28.2002   37.1292   19.7572 C   0  0  0  0  0  0  0  0  0  0  0  0
   28.2331   34.3447   19.3504 N   0  0  0  0  0  0  0  0  0  0  0  0
   28.2035   32.9924   19.0870 C   0  0  0  0  0  0  0  0  0  0  0  0
   28.4880   32.5766   17.9677 O   0  0  0  0  0  0  0  0  0  0  0  0
   27.8536   32.0973   20.0721 N   0  0  0  0  0  0  0  0  0  0  0  0
   27.5394   32.5469   21.3398 C   0  0  0  0  0  0  0  0  0  0  0  0
   27.5658   33.9096   21.6147 C   0  0  1  0  0  0  0  0  0  0  0  0
   27.2449   31.7397   22.2237 O   0  0  0  0  0  0  0  0  0  0  0  0
   27.2799   35.7207   23.1502 C   0  0  2  0  0  0  0  0  0  0  0  0
   27.2511   34.3660   22.8790 N   0  0  0  0  0  0  0  0  0  0  0  0
   26.9615   36.1806   24.4285 C   0  0  0  0  0  0  0  0  0  0  0  0
   26.9823   37.5414   24.7107 C   0  0  1  0  0  0  0  0  0  0  0  0
   26.6317   37.9983   26.0914 C   0  0  0  0  0  0  0  0  0  0  0  0
   27.3303   38.4564   23.7055 C   0  0  1  0  0  0  0  0  0  0  0  0
   27.3738   39.9360   23.9719 C   0  0  0  0  0  0  0  0  0  0  0  0
   27.6460   37.9944   22.4304 C   0  0  0  0  0  0  0  0  0  0  0  0
   27.6214   36.6282   22.1447 C   0  0  1  0  0  0  0  0  0  0  0  0
   27.9117   34.8104   20.6094 C   0  0  1  0  0  0  0  0  0  0  0  0
   27.9332   36.1663   20.8748 N   0  0  0  0  0  0  0  0  0  0  0  0
  1  2  1  1  0  0  0
  1  3  1  0  0  0  0
  1  4  2  0  0  0  0
  1  6  1  0  0  0  0
  5  6  1  0  0  0  0
  7  5  1  6  0  0  0
  7  8  1  0  0  0  0
  7  9  1  0  0  0  0
  9 10  1  6  0  0  0
  9 11  1  0  0  0  0
 11 12  1  6  0  0  0
 11 13  1  0  0  0  0
 13 31  1  0  0  0  0
 14 15  1  0  0  0  0
 15 16  2  0  0  0  0
 15 17  1  0  0  0  0
 17 18  1  0  0  0  0
 18 20  2  0  0  0  0
 19 18  1  1  0  0  0
 19 22  1  0  0  0  0
 19 30  1  0  0  0  0
 21 23  1  6  0  0  0
 21 29  1  0  0  0  0
 21 22  1  0  0  0  0
 23 24  1  0  0  0  0
 24 25  1  1  0  0  0
 24 26  1  0  0  0  0
 26 27  1  1  0  0  0
 26 28  1  0  0  0  0
 29 28  1  1  0  0  0
 29 31  1  0  0  0  0
 30 14  1  1  0  0  0
 30 31  1  0  0  0  0
M  CHG  1   3  -1
M  END
>  <CHROM.1>
-178.24988738,45.54098063,-176.25410983,71.18615243,-179.48174815,160.54721639
-85.27089024,27.63339852,37.69108137,19.96704911,-1.17616399,-1.42441846
2.93549254

>  <Name>
ligand

>  <RI>
0

>  <Rbt.Current_Directory>
/home/itssahil/PROJECTS/Mol_Feturizer/New_Systems/rnas/3F2T

>  <Rbt.Executable>
rbdock ($Id: //depot/dev/client3/rdock/2013.1/src/exe/rbdock.cxx#4 $)

>  <Rbt.Library>
libRbt.so (2013.1, Build901 2013/11/27)

>  <Rbt.Parameter_File>
/export/apps/rDock/src/rDock_2013.1_src/data/scripts/dock_solv.prm

>  <Rbt.Receptor>
prm/pocket_docking_4.prm

>  <SCORE>
-31.5917

>  <SCORE.INTER>
-31.0658

>  <SCORE.INTER.CONST>
1

>  <SCORE.INTER.POLAR>
0

>  <SCORE.INTER.ROT>
7

>  <SCORE.INTER.SOLV>
23.646

>  <SCORE.INTER.VDW>
-36.8592

>  <SCORE.INTER.norm>
-1.00212

>  <SCORE.INTRA>
-0.639185

>  <SCORE.INTRA.DIHEDRAL>
-1.44606

>  <SCORE.INTRA.DIHEDRAL.0>
4.64198

>  <SCORE.INTRA.POLAR>
0

>  <SCORE.INTRA.POLAR.0>
0

>  <SCORE.INTRA.REPUL>
0

>  <SCORE.INTRA.REPUL.0>
0

>  <SCORE.INTRA.SOLV>
-0.119834

>  <SCORE.INTRA.SOLV.lig_0>
-49.3611

>  <SCORE.INTRA.VDW>
0.143763

>  <SCORE.INTRA.VDW.0>
-1.91858

>  <SCORE.INTRA.norm>
-0.0206189

>  <SCORE.RESTR>
0.113266

>  <SCORE.RESTR.CAVITY>
0.113266

>  <SCORE.RESTR.norm>
0.00365373

>  <SCORE.SYSTEM>
0

>  <SCORE.SYSTEM.CONST>
0

>  <SCORE.SYSTEM.DIHEDRAL>
0

>  <SCORE.SYSTEM.SOLV>
0

>  <SCORE.SYSTEM.norm>
0

>  <SCORE.heavy>
31

>  <SCORE.norm>
-1.01909

>  <RMSD>
1.085

$$$$
ligand
 OpenBabel11021811473D
libRbt.so/2013.1/901 2013/11/27
 31 33  0  0  0  0  0  0  0  0999 V2000
   25.9768   43.7270   16.4894 P   0  0  1  0  0  0  0  0  0  0  0  0
   26.1069   43.1644   15.0967 O   0  0  0  0  0  0  0  0  0  0  0  0
   27.1214   44.6735   16.7362 O   0  5  0  0  0  0  0  0  0  0  0  0
   24.6434   44.4202   16.5490 O   0  0  0  0  0  0  0  0  0  0  0  0
   26.9850   41.5697   17.5849 C   0  0  0  0  0  0  0  0  0  0  0  0
   26.0155   42.5958   17.6284 O   0  0  0  0  0  0  0  0  0  0  0  0
   26.7977   40.6502   18.7889 C   0  0  1  0  0  0  0  0  0  0  0  0
   25.4620   40.1890   18.8342 O   0  0  0  0  0  0  0  0  0  0  0  0
   27.7301   39.4554   18.6806 C   0  0  1  0  0  0  0  0  0  0  0  0
   29.0232   39.8682   19.0337 O   0  0  0  0  0  0  0  0  0  0  0  0
   27.3165   38.3069   19.5853 C   0  0  1  0  0  0  0  0  0  0  0  0
   26.2255   37.6531   18.9951 O   0  0  0  0  0  0  0  0  0  0  0  0
   28.4566   37.3177   19.7623 C   0  0  0  0  0  0  0  0  0  0  0  0
   28.3823   34.5504   19.2560 N   0  0  0  0  0  0  0  0  0  0  0  0
   28.3024   33.2107   18.9432 C   0  0  0  0  0  0  0  0  0  0  0  0
   28.5981   32.8226   17.8169 O   0  0  0  0  0  0  0  0  0  0  0  0
   27.8893   32.2976   19.8864 N   0  0  0  0  0  0  0  0  0  0  0  0
   27.5615   32.7155   21.1614 C   0  0  0  0  0  0  0  0  0  0  0  0
   27.6383   34.0654   21.4859 C   0  0  1  0  0  0  0  0  0  0  0  0
   27.2102   31.8913   22.0080 O   0  0  0  0  0  0  0  0  0  0  0  0
   27.3893   35.8321   23.0785 C   0  0  2  0  0  0  0  0  0  0  0  0
   27.3104   34.4903   22.7578 N   0  0  0  0  0  0  0  0  0  0  0  0
   27.0574   36.2602   24.3644 C   0  0  0  0  0  0  0  0  0  0  0  0
   27.1284   37.6081   24.6960 C   0  0  1  0  0  0  0  0  0  0  0  0
   26.7615   38.0309   26.0833 C   0  0  0  0  0  0  0  0  0  0  0  0
   27.5409   38.5419   23.7334 C   0  0  1  0  0  0  0  0  0  0  0  0
   27.6399   40.0080   24.0542 C   0  0  0  0  0  0  0  0  0  0  0  0
   27.8699   38.1118   22.4507 C   0  0  0  0  0  0  0  0  0  0  0  0
   27.7950   36.7587   22.1152 C   0  0  1  0  0  0  0  0  0  0  0  0
   28.0481   34.9851   20.5227 C   0  0  1  0  0  0  0  0  0  0  0  0
   28.1200   36.3286   20.8374 N   0  0  0  0  0  0  0  0  0  0  0  0
  1  2  1  6  0  0  0
  1  3  1  0  0  0  0
  1  4  2  0  0  0  0
  1  6  1  0  0  0  0
  5  6  1  0  0  0  0
  7  5  1  6  0  0  0
  7  8  1  0  0  0  0
  7  9  1  0  0  0  0
  9 10  1  1  0  0  0
  9 11  1  0  0  0  0
 11 12  1  6  0  0  0
 11 13  1  0  0  0  0
 13 31  1  0  0  0  0
 14 15  1  0  0  0  0
 15 16  2  0  0  0  0
 15 17  1  0  0  0  0
 17 18  1  0  0  0  0
 18 20  2  0  0  0  0
 19 18  1  1  0  0  0
 19 22  1  0  0  0  0
 19 30  1  0  0  0  0
 21 23  1  6  0  0  0
 21 29  1  0  0  0  0
 21 22  1  0  0  0  0
 23 24  1  0  0  0  0
 24 25  1  1  0  0  0
 24 26  1  0  0  0  0
 26 27  1  1  0  0  0
 26 28  1  0  0  0  0
 29 28  1  1  0  0  0
 29 31  1  0  0  0  0
 30 14  1  1  0  0  0
 30 31  1  0  0  0  0
M  CHG  1   3  -1
M  END
>  <CHROM.1>
179.44135046,45.48972822,53.90423531,77.03103328,76.70539197,170.09200496
-56.53657773,27.20510984,38.19297312,20.00113517,-2.63077068,-1.39849287
1.58754311

>  <Name>
ligand

>  <RI>
0

>  <Rbt.Current_Directory>
/home/itssahil/PROJECTS/Mol_Feturizer/New_Systems/rnas/3F2T

>  <Rbt.Executable>
rbdock ($Id: //depot/dev/client3/rdock/2013.1/src/exe/rbdock.cxx#4 $)

>  <Rbt.Library>
libRbt.so (2013.1, Build901 2013/11/27)

>  <Rbt.Parameter_File>
/export/apps/rDock/src/rDock_2013.1_src/data/scripts/dock_solv.prm

>  <Rbt.Receptor>
prm/pocket_docking_3.prm

>  <SCORE>
-31.604

>  <SCORE.INTER>
-31.9869

>  <SCORE.INTER.CONST>
1

>  <SCORE.INTER.POLAR>
0

>  <SCORE.INTER.ROT>
7

>  <SCORE.INTER.SOLV>
18.7939

>  <SCORE.INTER.VDW>
-35.8559

>  <SCORE.INTER.norm>
-1.03184

>  <SCORE.INTRA>
0.382944

>  <SCORE.INTRA.DIHEDRAL>
-0.619522

>  <SCORE.INTRA.DIHEDRAL.0>
4.64198

>  <SCORE.INTRA.POLAR>
0

>  <SCORE.INTRA.POLAR.0>
0

>  <SCORE.INTRA.REPUL>
0

>  <SCORE.INTRA.REPUL.0>
0

>  <SCORE.INTRA.SOLV>
-0.680255

>  <SCORE.INTRA.SOLV.lig_0>
-49.3611

>  <SCORE.INTRA.VDW>
1.03283

>  <SCORE.INTRA.VDW.0>
-1.91858

>  <SCORE.INTRA.norm>
0.012353

>  <SCORE.RESTR>
0

>  <SCORE.RESTR.CAVITY>
0

>  <SCORE.RESTR.norm>
0

>  <SCORE.SYSTEM>
0

>  <SCORE.SYSTEM.CONST>
0

>  <SCORE.SYSTEM.DIHEDRAL>
0

>  <SCORE.SYSTEM.SOLV>
0

>  <SCORE.SYSTEM.norm>
0

>  <SCORE.heavy>
31

>  <SCORE.norm>
-1.01948

>  <RMSD>
1.087

$$$$
ligand
 OpenBabel11021811473D
libRbt.so/2013.1/901 2013/11/27
 31 33  0  0  0  0  0  0  0  0999 V2000
   26.3754   43.7593   16.5860 P   0  0  1  0  0  0  0  0  0  0  0  0
   25.7279   43.3062   15.3020 O   0  0  0  0  0  0  0  0  0  0  0  0
   27.8088   44.1219   16.3015 O   0  5  0  0  0  0  0  0  0  0  0  0
   25.5781   44.9366   17.0761 O   0  0  0  0  0  0  0  0  0  0  0  0
   27.1030   41.4341   17.5527 C   0  0  0  0  0  0  0  0  0  0  0  0
   26.3678   42.6277   17.7252 O   0  0  0  0  0  0  0  0  0  0  0  0
   26.9087   40.5431   18.7769 C   0  0  1  0  0  0  0  0  0  0  0  0
   25.5536   40.1514   18.8721 O   0  0  0  0  0  0  0  0  0  0  0  0
   27.7756   39.3008   18.6584 C   0  0  1  0  0  0  0  0  0  0  0  0
   29.0996   39.6533   18.9583 O   0  0  0  0  0  0  0  0  0  0  0  0
   27.3376   38.1903   19.5985 C   0  0  1  0  0  0  0  0  0  0  0  0
   26.2041   37.5724   19.0513 O   0  0  0  0  0  0  0  0  0  0  0  0
   28.4385   37.1565   19.7674 C   0  0  0  0  0  0  0  0  0  0  0  0
   28.3820   34.3785   19.3208 N   0  0  0  0  0  0  0  0  0  0  0  0
   28.3124   33.0321   19.0359 C   0  0  0  0  0  0  0  0  0  0  0  0
   28.6365   32.6198   17.9260 O   0  0  0  0  0  0  0  0  0  0  0  0
   27.8780   32.1389   19.9886 N   0  0  0  0  0  0  0  0  0  0  0  0
   27.5181   32.5841   21.2456 C   0  0  0  0  0  0  0  0  0  0  0  0
   27.5843   33.9410   21.5420 C   0  0  1  0  0  0  0  0  0  0  0  0
   27.1476   31.7779   22.1013 O   0  0  0  0  0  0  0  0  0  0  0  0
   27.2928   35.7418   23.0885 C   0  0  2  0  0  0  0  0  0  0  0  0
   27.2243   34.3931   22.7957 N   0  0  0  0  0  0  0  0  0  0  0  0
   26.9285   36.1974   24.3560 C   0  0  0  0  0  0  0  0  0  0  0  0
   26.9886   37.5525   24.6594 C   0  0  1  0  0  0  0  0  0  0  0  0
   26.5869   38.0049   26.0276 C   0  0  0  0  0  0  0  0  0  0  0  0
   27.4230   38.4657   23.6868 C   0  0  1  0  0  0  0  0  0  0  0  0
   27.5112   39.9389   23.9774 C   0  0  0  0  0  0  0  0  0  0  0  0
   27.7842   38.0082   22.4224 C   0  0  0  0  0  0  0  0  0  0  0  0
   27.7202   36.6479   22.1151 C   0  0  1  0  0  0  0  0  0  0  0  0
   28.0159   34.8402   20.5690 C   0  0  1  0  0  0  0  0  0  0  0  0
   28.0774   36.1905   20.8556 N   0  0  0  0  0  0  0  0  0  0  0  0
  1  2  1  6  0  0  0
  1  3  1  0  0  0  0
  1  4  2  0  0  0  0
  1  6  1  0  0  0  0
  5  6  1  0  0  0  0
  7  5  1  6  0  0  0
  7  8  1  0  0  0  0
  7  9  1  0  0  0  0
  9 10  1  1  0  0  0
  9 11  1  0  0  0  0
 11 12  1  6  0  0  0
 11 13  1  0  0  0  0
 13 31  1  0  0  0  0
 14 15  1  0  0  0  0
 15 16  2  0  0  0  0
 15 17  1  0  0  0  0
 17 18  1  0  0  0  0
 18 20  2  0  0  0  0
 19 18  1  1  0  0  0
 19 22  1  0  0  0  0
 19 30  1  0  0  0  0
 21 23  1  6  0  0  0
 21 29  1  0  0  0  0
 21 22  1  0  0  0  0
 23 24  1  0  0  0  0
 24 25  1  1  0  0  0
 24 26  1  0  0  0  0
 26 27  1  1  0  0  0
 26 28  1  0  0  0  0
 29 28  1  1  0  0  0
 29 31  1  0  0  0  0
 30 14  1  1  0  0  0
 30 31  1  0  0  0  0
M  CHG  1   3  -1
M  END
>  <CHROM.1>
-179.64234715,65.26862938,64.39428274,76.79699237,77.40081066,171.11550209
-53.09672483,27.26724588,38.10692836,20.03539618,-2.31234866,-1.40646465
1.92401130

>  <Name>
ligand

>  <RI>
0

>  <Rbt.Current_Directory>
/home/itssahil/PROJECTS/Mol_Feturizer/New_Systems/rnas/3F2T

>  <Rbt.Executable>
rbdock ($Id: //depot/dev/client3/rdock/2013.1/src/exe/rbdock.cxx#4 $)

>  <Rbt.Library>
libRbt.so (2013.1, Build901 2013/11/27)

>  <Rbt.Parameter_File>
/export/apps/rDock/src/rDock_2013.1_src/data/scripts/dock_solv.prm

>  <Rbt.Receptor>
prm/pocket_docking_3.prm

>  <SCORE>
-31.8222

>  <SCORE.INTER>
-32.2691

>  <SCORE.INTER.CONST>
1

>  <SCORE.INTER.POLAR>
0

>  <SCORE.INTER.ROT>
7

>  <SCORE.INTER.SOLV>
21.5626

>  <SCORE.INTER.VDW>
-36.9669

>  <SCORE.INTER.norm>
-1.04094

>  <SCORE.INTRA>
0.443493

>  <SCORE.INTRA.DIHEDRAL>
-1.00482

>  <SCORE.INTRA.DIHEDRAL.0>
4.64198

>  <SCORE.INTRA.POLAR>
0

>  <SCORE.INTRA.POLAR.0>
0

>  <SCORE.INTRA.REPUL>
0

>  <SCORE.INTRA.REPUL.0>
0

>  <SCORE.INTRA.SOLV>
-0.60032

>  <SCORE.INTRA.SOLV.lig_0>
-49.3611

>  <SCORE.INTRA.VDW>
1.24606

>  <SCORE.INTRA.VDW.0>
-1.91858

>  <SCORE.INTRA.norm>
0.0143062

>  <SCORE.RESTR>
0.00337639

>  <SCORE.RESTR.CAVITY>
0.00337639

>  <SCORE.RESTR.norm>
0.000108916

>  <SCORE.SYSTEM>
0

>  <SCORE.SYSTEM.CONST>
0

>  <SCORE.SYSTEM.DIHEDRAL>
0

>  <SCORE.SYSTEM.SOLV>
0

>  <SCORE.SYSTEM.norm>
0

>  <SCORE.heavy>
31

>  <SCORE.norm>
-1.02652

>  <RMSD>
1.094

$$$$
ligand
 OpenBabel11021811473D
libRbt.so/2013.1/901 2013/11/27
 31 33  0  0  0  0  0  0  0  0999 V2000
   26.5807   42.0798   17.2800 P   0  0  1  0  0  0  0  0  0  0  0  0
   26.8220   41.1122   16.1492 O   0  0  0  0  0  0  0  0  0  0  0  0
   26.0628   43.3721   16.7066 O   0  5  0  0  0  0  0  0  0  0  0  0
   25.5849   41.4264   18.1984 O   0  0  0  0  0  0  0  0  0  0  0  0
   28.9824   41.4893   18.1479 C   0  0  0  0  0  0  0  0  0  0  0  0
   27.9101   42.4079   18.1187 O   0  0  0  0  0  0  0  0  0  0  0  0
   28.6567   40.3679   19.1311 C   0  0  1  0  0  0  0  0  0  0  0  0
   28.0259   40.9056   20.2764 O   0  0  0  0  0  0  0  0  0  0  0  0
   27.7243   39.3603   18.4800 C   0  0  1  0  0  0  0  0  0  0  0  0
   28.3747   38.8090   17.3662 O   0  0  0  0  0  0  0  0  0  0  0  0
   27.3268   38.2370   19.4229 C   0  0  1  0  0  0  0  0  0  0  0  0
   26.3775   37.4340   18.7748 O   0  0  0  0  0  0  0  0  0  0  0  0
   28.5313   37.3876   19.7933 C   0  0  0  0  0  0  0  0  0  0  0  0
   28.4708   34.6249   19.2608 N   0  0  0  0  0  0  0  0  0  0  0  0
   28.3999   33.2882   18.9338 C   0  0  0  0  0  0  0  0  0  0  0  0
   28.7348   32.9091   17.8153 O   0  0  0  0  0  0  0  0  0  0  0  0
   27.9523   32.3677   19.8537 N   0  0  0  0  0  0  0  0  0  0  0  0
   27.5800   32.7752   21.1199 C   0  0  0  0  0  0  0  0  0  0  0  0
   27.6474   34.1221   21.4586 C   0  0  1  0  0  0  0  0  0  0  0  0
   27.1976   31.9444   21.9463 O   0  0  0  0  0  0  0  0  0  0  0  0
   27.3448   35.8755   23.0567 C   0  0  2  0  0  0  0  0  0  0  0  0
   27.2752   34.5366   22.7217 N   0  0  0  0  0  0  0  0  0  0  0  0
   26.9681   36.2931   24.3336 C   0  0  0  0  0  0  0  0  0  0  0  0
   27.0293   37.6380   24.6792 C   0  0  1  0  0  0  0  0  0  0  0  0
   26.6141   38.0495   26.0563 C   0  0  0  0  0  0  0  0  0  0  0  0
   27.4772   38.5792   23.7400 C   0  0  1  0  0  0  0  0  0  0  0  0
   27.5670   40.0424   24.0768 C   0  0  0  0  0  0  0  0  0  0  0  0
   27.8508   38.1596   22.4660 C   0  0  0  0  0  0  0  0  0  0  0  0
   27.7858   36.8096   22.1164 C   0  0  1  0  0  0  0  0  0  0  0  0
   28.0925   35.0493   20.5185 C   0  0  1  0  0  0  0  0  0  0  0  0
   28.1552   36.3899   20.8473 N   0  0  0  0  0  0  0  0  0  0  0  0
  1  2  1  6  0  0  0
  1  3  1  0  0  0  0
  1  4  2  0  0  0  0
  1  6  1  0  0  0  0
  5  6  1  0  0  0  0
  7  5  1  6  0  0  0
  7  8  1  0  0  0  0
  7  9  1  0  0  0  0
  9 10  1  6  0  0  0
  9 11  1  0  0  0  0
 11 12  1  6  0  0  0
 11 13  1  0  0  0  0
 13 31  1  0  0  0  0
 14 15  1  0  0  0  0
 15 16  2  0  0  0  0
 15 17  1  0  0  0  0
 17 18  1  0  0  0  0
 18 20  2  0  0  0  0
 19 18  1  1  0  0  0
 19 22  1  0  0  0  0
 19 30  1  0  0  0  0
 21 23  1  6  0  0  0
 21 29  1  0  0  0  0
 21 22  1  0  0  0  0
 23 24  1  0  0  0  0
 24 25  1  1  0  0  0
 24 26  1  0  0  0  0
 26 27  1  1  0  0  0
 26 28  1  0  0  0  0
 29 28  1  1  0  0  0
 29 31  1  0  0  0  0
 30 14  1  1  0  0  0
 30 31  1  0  0  0  0
M  CHG  1   3  -1
M  END
>  <CHROM.1>
-78.87850912,-24.70384300,-40.03875012,61.16328486,174.67117697,173.24571816
-65.70791623,27.52616368,37.84060046,20.16316334,-2.10704416,-1.43886369
2.11973047

>  <Name>
ligand

>  <RI>
0

>  <Rbt.Current_Directory>
/home/itssahil/PROJECTS/Mol_Feturizer/New_Systems/rnas/3F2T

>  <Rbt.Executable>
rbdock ($Id: //depot/dev/client3/rdock/2013.1/src/exe/rbdock.cxx#4 $)

>  <Rbt.Library>
libRbt.so (2013.1, Build901 2013/11/27)

>  <Rbt.Parameter_File>
/export/apps/rDock/src/rDock_2013.1_src/data/scripts/dock_solv.prm

>  <Rbt.Receptor>
prm/pocket_docking_4.prm

>  <SCORE>
-30.0308

>  <SCORE.INTER>
-32.0129

>  <SCORE.INTER.CONST>
1

>  <SCORE.INTER.POLAR>
0

>  <SCORE.INTER.ROT>
7

>  <SCORE.INTER.SOLV>
13.8963

>  <SCORE.INTER.VDW>
-34.2407

>  <SCORE.INTER.norm>
-1.03267

>  <SCORE.INTRA>
1.98206

>  <SCORE.INTRA.DIHEDRAL>
1.19741

>  <SCORE.INTRA.DIHEDRAL.0>
4.64198

>  <SCORE.INTRA.POLAR>
0

>  <SCORE.INTRA.POLAR.0>
0

>  <SCORE.INTRA.REPUL>
0

>  <SCORE.INTRA.REPUL.0>
0

>  <SCORE.INTRA.SOLV>
3.66685

>  <SCORE.INTRA.SOLV.lig_0>
-49.3611

>  <SCORE.INTRA.VDW>
-0.450072

>  <SCORE.INTRA.VDW.0>
-1.91858

>  <SCORE.INTRA.norm>
0.0639373

>  <SCORE.RESTR>
0

>  <SCORE.RESTR.CAVITY>
0

>  <SCORE.RESTR.norm>
0

>  <SCORE.SYSTEM>
0

>  <SCORE.SYSTEM.CONST>
0

>  <SCORE.SYSTEM.DIHEDRAL>
0

>  <SCORE.SYSTEM.SOLV>
0

>  <SCORE.SYSTEM.norm>
0

>  <SCORE.heavy>
31

>  <SCORE.norm>
-0.968736

>  <RMSD>
1.098

$$$$
ligand
 OpenBabel11021811473D
libRbt.so/2013.1/901 2013/11/27
 31 33  0  0  0  0  0  0  0  0999 V2000
   27.8538   42.7567   16.2452 P   0  0  1  0  0  0  0  0  0  0  0  0
   29.0057   42.4983   15.3073 O   0  0  0  0  0  0  0  0  0  0  0  0
   28.0600   44.0941   16.9053 O   0  5  0  0  0  0  0  0  0  0  0  0
   26.6041   42.7224   15.4091 O   0  0  0  0  0  0  0  0  0  0  0  0
   28.8797   41.1490   18.0435 C   0  0  0  0  0  0  0  0  0  0  0  0
   27.7257   41.6490   17.4006 O   0  0  0  0  0  0  0  0  0  0  0  0
   28.4707   40.0679   19.0406 C   0  0  1  0  0  0  0  0  0  0  0  0
   27.6854   40.6388   20.0682 O   0  0  0  0  0  0  0  0  0  0  0  0
   27.6596   38.9925   18.3376 C   0  0  1  0  0  0  0  0  0  0  0  0
   28.4321   38.4665   17.2917 O   0  0  0  0  0  0  0  0  0  0  0  0
   27.2573   37.8611   19.2686 C   0  0  1  0  0  0  0  0  0  0  0  0
   26.4417   36.9723   18.5539 O   0  0  0  0  0  0  0  0  0  0  0  0
   28.4803   37.1175   19.7792 C   0  0  0  0  0  0  0  0  0  0  0  0
   28.4448   34.3391   19.3328 N   0  0  0  0  0  0  0  0  0  0  0  0
   28.3876   32.9924   19.0467 C   0  0  0  0  0  0  0  0  0  0  0  0
   28.7493   32.5802   17.9484 O   0  0  0  0  0  0  0  0  0  0  0  0
   27.9238   32.0988   19.9850 N   0  0  0  0  0  0  0  0  0  0  0  0
   27.5213   32.5440   21.2291 C   0  0  0  0  0  0  0  0  0  0  0  0
   27.5747   33.9012   21.5266 C   0  0  1  0  0  0  0  0  0  0  0  0
   27.1244   31.7374   22.0726 O   0  0  0  0  0  0  0  0  0  0  0  0
   27.2280   35.7023   23.0614 C   0  0  2  0  0  0  0  0  0  0  0  0
   27.1723   34.3532   22.7674 N   0  0  0  0  0  0  0  0  0  0  0  0
   26.8208   36.1578   24.3158 C   0  0  0  0  0  0  0  0  0  0  0  0
   26.8679   37.5132   24.6201 C   0  0  1  0  0  0  0  0  0  0  0  0
   26.4200   37.9655   25.9739 C   0  0  0  0  0  0  0  0  0  0  0  0
   27.3323   38.4268   23.6619 C   0  0  1  0  0  0  0  0  0  0  0  0
   27.4076   39.9003   23.9542 C   0  0  0  0  0  0  0  0  0  0  0  0
   27.7364   37.9694   22.4104 C   0  0  0  0  0  0  0  0  0  0  0  0
   27.6856   36.6087   22.1021 C   0  0  1  0  0  0  0  0  0  0  0  0
   28.0364   34.8008   20.5679 C   0  0  1  0  0  0  0  0  0  0  0  0
   28.0854   36.1514   20.8554 N   0  0  0  0  0  0  0  0  0  0  0  0
  1  2  1  6  0  0  0
  1  3  1  0  0  0  0
  1  4  2  0  0  0  0
  1  6  1  0  0  0  0
  5  6  1  0  0  0  0
  7  5  1  6  0  0  0
  7  8  1  0  0  0  0
  7  9  1  0  0  0  0
  9 10  1  6  0  0  0
  9 11  1  0  0  0  0
 11 12  1  6  0  0  0
 11 13  1  0  0  0  0
 13 31  1  0  0  0  0
 14 15  1  0  0  0  0
 15 16  2  0  0  0  0
 15 17  1  0  0  0  0
 17 18  1  0  0  0  0
 18 20  2  0  0  0  0
 19 18  1  1  0  0  0
 19 22  1  0  0  0  0
 19 30  1  0  0  0  0
 21 23  1  6  0  0  0
 21 29  1  0  0  0  0
 21 22  1  0  0  0  0
 23 24  1  0  0  0  0
 24 25  1  1  0  0  0
 24 26  1  0  0  0  0
 26 27  1  1  0  0  0
 26 28  1  0  0  0  0
 29 28  1  1  0  0  0
 29 31  1  0  0  0  0
 30 14  1  1  0  0  0
 30 31  1  0  0  0  0
M  CHG  1   3  -1
M  END
>  <CHROM.1>
-177.21197880,40.96509938,-64.89932978,57.62920956,176.03509334,171.14424322
-70.73478630,27.72378051,37.78404211,19.92421867,-1.29691041,-1.40723601
2.84334580

>  <Name>
ligand

>  <RI>
0

>  <Rbt.Current_Directory>
/home/itssahil/PROJECTS/Mol_Feturizer/New_Systems/rnas/3F2T

>  <Rbt.Executable>
rbdock ($Id: //depot/dev/client3/rdock/2013.1/src/exe/rbdock.cxx#4 $)

>  <Rbt.Library>
libRbt.so (2013.1, Build901 2013/11/27)

>  <Rbt.Parameter_File>
/export/apps/rDock/src/rDock_2013.1_src/data/scripts/dock_solv.prm

>  <Rbt.Receptor>
prm/pocket_docking_5.prm

>  <SCORE>
-32.705

>  <SCORE.INTER>
-31.4295

>  <SCORE.INTER.CONST>
1

>  <SCORE.INTER.POLAR>
0

>  <SCORE.INTER.ROT>
7

>  <SCORE.INTER.SOLV>
23.15

>  <SCORE.INTER.VDW>
-36.9363

>  <SCORE.INTER.norm>
-1.01386

>  <SCORE.INTRA>
-1.27552

>  <SCORE.INTRA.DIHEDRAL>
-2.4537

>  <SCORE.INTRA.DIHEDRAL.0>
4.64198

>  <SCORE.INTRA.POLAR>
0

>  <SCORE.INTRA.POLAR.0>
0

>  <SCORE.INTRA.REPUL>
0

>  <SCORE.INTRA.REPUL.0>
0

>  <SCORE.INTRA.SOLV>
-0.523826

>  <SCORE.INTRA.SOLV.lig_0>
-49.3611

>  <SCORE.INTRA.VDW>
0.213244

>  <SCORE.INTRA.VDW.0>
-1.91858

>  <SCORE.INTRA.norm>
-0.0411458

>  <SCORE.RESTR>
0

>  <SCORE.RESTR.CAVITY>
0

>  <SCORE.RESTR.norm>
0

>  <SCORE.SYSTEM>
0

>  <SCORE.SYSTEM.CONST>
0

>  <SCORE.SYSTEM.DIHEDRAL>
0

>  <SCORE.SYSTEM.SOLV>
0

>  <SCORE.SYSTEM.norm>
0

>  <SCORE.heavy>
31

>  <SCORE.norm>
-1.055

>  <RMSD>
1.101

$$$$
ligand
 OpenBabel11021811473D
libRbt.so/2013.1/901 2013/11/27
 31 33  0  0  0  0  0  0  0  0999 V2000
   27.1385   42.8286   17.1345 P   0  0  1  0  0  0  0  0  0  0  0  0
   25.9748   43.7769   17.2745 O   0  0  0  0  0  0  0  0  0  0  0  0
   26.8557   41.8826   15.9978 O   0  5  0  0  0  0  0  0  0  0  0  0
   28.3542   43.6764   16.8790 O   0  0  0  0  0  0  0  0  0  0  0  0
   28.4004   40.9601   18.4713 C   0  0  0  0  0  0  0  0  0  0  0  0
   27.3955   41.9524   18.4554 O   0  0  0  0  0  0  0  0  0  0  0  0
   28.3994   40.2659   19.8308 C   0  0  1  0  0  0  0  0  0  0  0  0
   28.3289   41.2323   20.8602 O   0  0  0  0  0  0  0  0  0  0  0  0
   27.2007   39.3385   19.9400 C   0  0  1  0  0  0  0  0  0  0  0  0
   26.0845   39.9900   19.3952 O   0  0  0  0  0  0  0  0  0  0  0  0
   27.4094   38.0243   19.2064 C   0  0  1  0  0  0  0  0  0  0  0  0
   27.6009   38.3055   17.8462 O   0  0  0  0  0  0  0  0  0  0  0  0
   28.6280   37.2913   19.7422 C   0  0  0  0  0  0  0  0  0  0  0  0
   28.5386   34.5319   19.1963 N   0  0  0  0  0  0  0  0  0  0  0  0
   28.4554   33.1977   18.8619 C   0  0  0  0  0  0  0  0  0  0  0  0
   28.8086   32.8184   17.7492 O   0  0  0  0  0  0  0  0  0  0  0  0
   27.9747   32.2801   19.7680 N   0  0  0  0  0  0  0  0  0  0  0  0
   27.5814   32.6879   21.0277 C   0  0  0  0  0  0  0  0  0  0  0  0
   27.6611   34.0322   21.3738 C   0  0  1  0  0  0  0  0  0  0  0  0
   27.1693   31.8594   21.8421 O   0  0  0  0  0  0  0  0  0  0  0  0
   27.3498   35.7833   22.9727 C   0  0  2  0  0  0  0  0  0  0  0  0
   27.2680   34.4470   22.6305 N   0  0  0  0  0  0  0  0  0  0  0  0
   26.9520   36.2012   24.2431 C   0  0  0  0  0  0  0  0  0  0  0  0
   27.0254   37.5436   24.5959 C   0  0  1  0  0  0  0  0  0  0  0  0
   26.5868   37.9555   25.9656 C   0  0  0  0  0  0  0  0  0  0  0  0
   27.5070   38.4820   23.6707 C   0  0  1  0  0  0  0  0  0  0  0  0
   27.6108   39.9423   24.0158 C   0  0  0  0  0  0  0  0  0  0  0  0
   27.9016   38.0621   22.4031 C   0  0  0  0  0  0  0  0  0  0  0  0
   27.8245   36.7147   22.0462 C   0  0  1  0  0  0  0  0  0  0  0  0
   28.1397   34.9567   20.4475 C   0  0  1  0  0  0  0  0  0  0  0  0
   28.2149   36.2949   20.7834 N   0  0  0  0  0  0  0  0  0  0  0  0
  1  2  1  1  0  0  0
  1  3  1  0  0  0  0
  1  4  2  0  0  0  0
  1  6  1  0  0  0  0
  5  6  1  0  0  0  0
  7  5  1  6  0  0  0
  7  8  1  0  0  0  0
  7  9  1  0  0  0  0
  9 10  1  6  0  0  0
  9 11  1  0  0  0  0
 11 12  1  6  0  0  0
 11 13  1  0  0  0  0
 13 31  1  0  0  0  0
 14 15  1  0  0  0  0
 15 16  2  0  0  0  0
 15 17  1  0  0  0  0
 17 18  1  0  0  0  0
 18 20  2  0  0  0  0
 19 18  1  1  0  0  0
 19 22  1  0  0  0  0
 19 30  1  0  0  0  0
 21 23  1  6  0  0  0
 21 29  1  0  0  0  0
 21 22  1  0  0  0  0
 23 24  1  0  0  0  0
 24 25  1  1  0  0  0
 24 26  1  0  0  0  0
 26 27  1  1  0  0  0
 26 28  1  0  0  0  0
 29 28  1  1  0  0  0
 29 31  1  0  0  0  0
 30 14  1  1  0  0  0
 30 31  1  0  0  0  0
M  CHG  1   3  -1
M  END
>  <CHROM.1>
-178.58565958,176.47900348,-45.88880102,-41.76369616,-61.32069358,95.14561797
-73.75715456,27.59309478,38.00483694,20.21636322,-1.92650431,-1.43769224
2.36303240

>  <Name>
ligand

>  <RI>
0

>  <Rbt.Current_Directory>
/home/itssahil/PROJECTS/Mol_Feturizer/New_Systems/rnas/3F2T

>  <Rbt.Executable>
rbdock ($Id: //depot/dev/client3/rdock/2013.1/src/exe/rbdock.cxx#4 $)

>  <Rbt.Library>
libRbt.so (2013.1, Build901 2013/11/27)

>  <Rbt.Parameter_File>
/export/apps/rDock/src/rDock_2013.1_src/data/scripts/dock_solv.prm

>  <Rbt.Receptor>
prm/pocket_docking_3.prm

>  <SCORE>
-27.3321

>  <SCORE.INTER>
-30.2473

>  <SCORE.INTER.CONST>
1

>  <SCORE.INTER.POLAR>
0

>  <SCORE.INTER.ROT>
7

>  <SCORE.INTER.SOLV>
20.021

>  <SCORE.INTER.VDW>
-35.1052

>  <SCORE.INTER.norm>
-0.975721

>  <SCORE.INTRA>
2.9152

>  <SCORE.INTRA.DIHEDRAL>
1.68012

>  <SCORE.INTRA.DIHEDRAL.0>
4.64198

>  <SCORE.INTRA.POLAR>
0

>  <SCORE.INTRA.POLAR.0>
0

>  <SCORE.INTRA.REPUL>
0

>  <SCORE.INTRA.REPUL.0>
0

>  <SCORE.INTRA.SOLV>
1.18321

>  <SCORE.INTRA.SOLV.lig_0>
-49.3611

>  <SCORE.INTRA.VDW>
1.48354

>  <SCORE.INTRA.VDW.0>
-1.91858

>  <SCORE.INTRA.norm>
0.0940387

>  <SCORE.RESTR>
0

>  <SCORE.RESTR.CAVITY>
0

>  <SCORE.RESTR.norm>
0

>  <SCORE.SYSTEM>
0

>  <SCORE.SYSTEM.CONST>
0

>  <SCORE.SYSTEM.DIHEDRAL>
0

>  <SCORE.SYSTEM.SOLV>
0

>  <SCORE.SYSTEM.norm>
0

>  <SCORE.heavy>
31

>  <SCORE.norm>
-0.881682

>  <RMSD>
1.123

$$$$
ligand
 OpenBabel11021811473D
libRbt.so/2013.1/901 2013/11/27
 31 33  0  0  0  0  0  0  0  0999 V2000
   26.6668   43.3919   16.6493 P   0  0  1  0  0  0  0  0  0  0  0  0
   28.0599   43.9683   16.6363 O   0  0  0  0  0  0  0  0  0  0  0  0
   25.7214   44.4276   17.1975 O   0  5  0  0  0  0  0  0  0  0  0  0
   26.3425   43.0222   15.2280 O   0  0  0  0  0  0  0  0  0  0  0  0
   26.8848   42.1184   18.9299 C   0  0  0  0  0  0  0  0  0  0  0  0
   26.5416   42.0757   17.5606 O   0  0  0  0  0  0  0  0  0  0  0  0
   26.5094   40.7910   19.5835 C   0  0  1  0  0  0  0  0  0  0  0  0
   25.2348   40.3796   19.1310 O   0  0  0  0  0  0  0  0  0  0  0  0
   27.5306   39.7259   19.2208 C   0  0  1  0  0  0  0  0  0  0  0  0
   28.7274   40.0110   19.8943 O   0  0  0  0  0  0  0  0  0  0  0  0
   27.0752   38.3264   19.5987 C   0  0  1  0  0  0  0  0  0  0  0  0
   26.2361   37.8476   18.5826 O   0  0  0  0  0  0  0  0  0  0  0  0
   28.2635   37.3910   19.7485 C   0  0  0  0  0  0  0  0  0  0  0  0
   28.2517   34.6209   19.2521 N   0  0  0  0  0  0  0  0  0  0  0  0
   28.1992   33.2784   18.9460 C   0  0  0  0  0  0  0  0  0  0  0  0
   28.4583   32.8953   17.8089 O   0  0  0  0  0  0  0  0  0  0  0  0
   27.8546   32.3564   19.9079 N   0  0  0  0  0  0  0  0  0  0  0  0
   27.5689   32.7688   21.1949 C   0  0  0  0  0  0  0  0  0  0  0  0
   27.6186   34.1215   21.5129 C   0  0  1  0  0  0  0  0  0  0  0  0
   27.2792   31.9373   22.0575 O   0  0  0  0  0  0  0  0  0  0  0  0
   27.3842   35.8854   23.1107 C   0  0  2  0  0  0  0  0  0  0  0  0
   27.3324   34.5408   22.7966 N   0  0  0  0  0  0  0  0  0  0  0  0
   27.0946   36.3079   24.4086 C   0  0  0  0  0  0  0  0  0  0  0  0
   27.1386   37.6585   24.7339 C   0  0  1  0  0  0  0  0  0  0  0  0
   26.8186   38.0749   26.1347 C   0  0  0  0  0  0  0  0  0  0  0  0
   27.4813   38.6009   23.7525 C   0  0  1  0  0  0  0  0  0  0  0  0
   27.5493   40.0705   24.0655 C   0  0  0  0  0  0  0  0  0  0  0  0
   27.7681   38.1764   22.4578 C   0  0  0  0  0  0  0  0  0  0  0  0
   27.7201   36.8205   22.1288 C   0  0  1  0  0  0  0  0  0  0  0  0
   27.9588   35.0497   20.5309 C   0  0  1  0  0  0  0  0  0  0  0  0
   28.0032   36.3959   20.8393 N   0  0  0  0  0  0  0  0  0  0  0  0
  1  2  1  1  0  0  0
  1  3  1  0  0  0  0
  1  4  2  0  0  0  0
  1  6  1  0  0  0  0
  5  6  1  0  0  0  0
  7  5  1  6  0  0  0
  7  8  1  0  0  0  0
  7  9  1  0  0  0  0
  9 10  1  1  0  0  0
  9 11  1  0  0  0  0
 11 12  1  6  0  0  0
 11 13  1  0  0  0  0
 13 31  1  0  0  0  0
 14 15  1  0  0  0  0
 15 16  2  0  0  0  0
 15 17  1  0  0  0  0
 17 18  1  0  0  0  0
 18 20  2  0  0  0  0
 19 18  1  1  0  0  0
 19 22  1  0  0  0  0
 19 30  1  0  0  0  0
 21 23  1  6  0  0  0
 21 29  1  0  0  0  0
 21 22  1  0  0  0  0
 23 24  1  0  0  0  0
 24 25  1  1  0  0  0
 24 26  1  0  0  0  0
 26 27  1  1  0  0  0
 26 28  1  0  0  0  0
 29 28  1  1  0  0  0
 29 31  1  0  0  0  0
 30 14  1  1  0  0  0
 30 31  1  0  0  0  0
M  CHG  1   3  -1
M  END
>  <CHROM.1>
173.07094817,57.59314305,-43.06494208,71.06720996,82.75262163,145.33723611
-57.71645081,27.28085034,38.20310836,20.15287006,-2.49007929,-1.44349876
1.74560742

>  <Name>
ligand

>  <RI>
0

>  <Rbt.Current_Directory>
/home/itssahil/PROJECTS/Mol_Feturizer/New_Systems/rnas/3F2T

>  <Rbt.Executable>
rbdock ($Id: //depot/dev/client3/rdock/2013.1/src/exe/rbdock.cxx#4 $)

>  <Rbt.Library>
libRbt.so (2013.1, Build901 2013/11/27)

>  <Rbt.Parameter_File>
/export/apps/rDock/src/rDock_2013.1_src/data/scripts/dock_solv.prm

>  <Rbt.Receptor>
prm/pocket_docking_3.prm

>  <SCORE>
-29.8844

>  <SCORE.INTER>
-32.1105

>  <SCORE.INTER.CONST>
1

>  <SCORE.INTER.POLAR>
0

>  <SCORE.INTER.ROT>
7

>  <SCORE.INTER.SOLV>
20.2144

>  <SCORE.INTER.VDW>
-36.4118

>  <SCORE.INTER.norm>
-1.03582

>  <SCORE.INTRA>
2.22604

>  <SCORE.INTRA.DIHEDRAL>
3.19235

>  <SCORE.INTRA.DIHEDRAL.0>
4.64198

>  <SCORE.INTRA.POLAR>
0

>  <SCORE.INTRA.POLAR.0>
0

>  <SCORE.INTRA.REPUL>
0

>  <SCORE.INTRA.REPUL.0>
0

>  <SCORE.INTRA.SOLV>
-0.388132

>  <SCORE.INTRA.SOLV.lig_0>
-49.3611

>  <SCORE.INTRA.VDW>
0.823931

>  <SCORE.INTRA.VDW.0>
-1.91858

>  <SCORE.INTRA.norm>
0.0718078

>  <SCORE.RESTR>
0

>  <SCORE.RESTR.CAVITY>
0

>  <SCORE.RESTR.norm>
0

>  <SCORE.SYSTEM>
0

>  <SCORE.SYSTEM.CONST>
0

>  <SCORE.SYSTEM.DIHEDRAL>
0

>  <SCORE.SYSTEM.SOLV>
0

>  <SCORE.SYSTEM.norm>
0

>  <SCORE.heavy>
31

>  <SCORE.norm>
-0.964015

>  <RMSD>
1.140

$$$$
ligand
 OpenBabel11021811473D
libRbt.so/2013.1/901 2013/11/27
 31 33  0  0  0  0  0  0  0  0999 V2000
   27.2436   42.7071   17.1205 P   0  0  1  0  0  0  0  0  0  0  0  0
   26.5756   42.1059   15.9099 O   0  0  0  0  0  0  0  0  0  0  0  0
   28.7358   42.6371   16.9324 O   0  5  0  0  0  0  0  0  0  0  0  0
   26.7498   44.1240   17.2233 O   0  0  0  0  0  0  0  0  0  0  0  0
   26.6034   40.5544   18.4720 C   0  0  0  0  0  0  0  0  0  0  0  0
   26.8800   41.9394   18.4831 O   0  0  0  0  0  0  0  0  0  0  0  0
   27.8261   39.8021   17.9531 C   0  0  1  0  0  0  0  0  0  0  0  0
   28.8521   39.8304   18.9254 O   0  0  0  0  0  0  0  0  0  0  0  0
   27.4615   38.3564   17.6607 C   0  0  1  0  0  0  0  0  0  0  0  0
   28.5471   37.7468   17.0149 O   0  0  0  0  0  0  0  0  0  0  0  0
   27.1333   37.5701   18.9188 C   0  0  1  0  0  0  0  0  0  0  0  0
   26.4176   36.4233   18.5466 O   0  0  0  0  0  0  0  0  0  0  0  0
   28.4017   37.1544   19.6454 C   0  0  0  0  0  0  0  0  0  0  0  0
   28.4126   34.3762   19.1964 N   0  0  0  0  0  0  0  0  0  0  0  0
   28.3750   33.0287   18.9107 C   0  0  0  0  0  0  0  0  0  0  0  0
   28.6991   32.6259   17.7974 O   0  0  0  0  0  0  0  0  0  0  0  0
   27.9729   32.1239   19.8665 N   0  0  0  0  0  0  0  0  0  0  0  0
   27.6136   32.5586   21.1274 C   0  0  0  0  0  0  0  0  0  0  0  0
   27.6476   33.9165   21.4246 C   0  0  1  0  0  0  0  0  0  0  0  0
   27.2722   31.7424   21.9857 O   0  0  0  0  0  0  0  0  0  0  0  0
   27.3244   35.7079   22.9757 C   0  0  2  0  0  0  0  0  0  0  0  0
   27.2880   34.3581   22.6821 N   0  0  0  0  0  0  0  0  0  0  0  0
   26.9605   36.1529   24.2471 C   0  0  0  0  0  0  0  0  0  0  0  0
   26.9886   37.5088   24.5513 C   0  0  1  0  0  0  0  0  0  0  0  0
   26.5883   37.9496   25.9237 C   0  0  0  0  0  0  0  0  0  0  0  0
   27.3900   38.4338   23.5756 C   0  0  1  0  0  0  0  0  0  0  0  0
   27.4429   39.9085   23.8670 C   0  0  0  0  0  0  0  0  0  0  0  0
   27.7509   37.9868   22.3073 C   0  0  0  0  0  0  0  0  0  0  0  0
   27.7191   36.6255   21.9993 C   0  0  1  0  0  0  0  0  0  0  0  0
   28.0466   34.8273   20.4485 C   0  0  1  0  0  0  0  0  0  0  0  0
   28.0760   36.1786   20.7359 N   0  0  0  0  0  0  0  0  0  0  0  0
  1  2  1  6  0  0  0
  1  3  1  0  0  0  0
  1  4  2  0  0  0  0
  1  6  1  0  0  0  0
  5  6  1  0  0  0  0
  7  5  1  1  0  0  0
  7  8  1  0  0  0  0
  7  9  1  0  0  0  0
  9 10  1  1  0  0  0
  9 11  1  0  0  0  0
 11 12  1  6  0  0  0
 11 13  1  0  0  0  0
 13 31  1  0  0  0  0
 14 15  1  0  0  0  0
 15 16  2  0  0  0  0
 15 17  1  0  0  0  0
 17 18  1  0  0  0  0
 18 20  2  0  0  0  0
 19 18  1  1  0  0  0
 19 22  1  0  0  0  0
 19 30  1  0  0  0  0
 21 23  1  6  0  0  0
 21 29  1  0  0  0  0
 21 22  1  0  0  0  0
 23 24  1  0  0  0  0
 24 25  1  1  0  0  0
 24 26  1  0  0  0  0
 26 27  1  1  0  0  0
 26 28  1  0  0  0  0
 29 28  1  1  0  0  0
 29 31  1  0  0  0  0
 30 14  1  1  0  0  0
 30 31  1  0  0  0  0
M  CHG  1   3  -1
M  END
>  <CHROM.1>
60.49745443,30.81011282,71.75837200,171.87532156,161.50332013,-169.79506954
-86.97124198,27.56806657,37.65675917,19.95387594,-1.80178187,-1.42271034
2.43562291

>  <Name>
ligand

>  <RI>
0

>  <Rbt.Current_Directory>
/home/itssahil/PROJECTS/Mol_Feturizer/New_Systems/rnas/3F2T

>  <Rbt.Executable>
rbdock ($Id: //depot/dev/client3/rdock/2013.1/src/exe/rbdock.cxx#4 $)

>  <Rbt.Library>
libRbt.so (2013.1, Build901 2013/11/27)

>  <Rbt.Parameter_File>
/export/apps/rDock/src/rDock_2013.1_src/data/scripts/dock_solv.prm

>  <Rbt.Receptor>
prm/pocket_docking_3.prm

>  <SCORE>
-30.4723

>  <SCORE.INTER>
-32.1657

>  <SCORE.INTER.CONST>
1

>  <SCORE.INTER.POLAR>
0

>  <SCORE.INTER.ROT>
7

>  <SCORE.INTER.SOLV>
16.7978

>  <SCORE.INTER.VDW>
-35.3097

>  <SCORE.INTER.norm>
-1.0376

>  <SCORE.INTRA>
1.69341

>  <SCORE.INTRA.DIHEDRAL>
-0.106265

>  <SCORE.INTRA.DIHEDRAL.0>
4.64198

>  <SCORE.INTRA.POLAR>
0

>  <SCORE.INTRA.POLAR.0>
0

>  <SCORE.INTRA.REPUL>
0

>  <SCORE.INTRA.REPUL.0>
0

>  <SCORE.INTRA.SOLV>
1.49105

>  <SCORE.INTRA.SOLV.lig_0>
-49.3611

>  <SCORE.INTRA.VDW>
1.00101

>  <SCORE.INTRA.VDW.0>
-1.91858

>  <SCORE.INTRA.norm>
0.054626

>  <SCORE.RESTR>
0

>  <SCORE.RESTR.CAVITY>
0

>  <SCORE.RESTR.norm>
0

>  <SCORE.SYSTEM>
0

>  <SCORE.SYSTEM.CONST>
0

>  <SCORE.SYSTEM.DIHEDRAL>
0

>  <SCORE.SYSTEM.SOLV>
0

>  <SCORE.SYSTEM.norm>
0

>  <SCORE.heavy>
31

>  <SCORE.norm>
-0.982976

>  <RMSD>
1.150

$$$$
ligand
 OpenBabel11021811473D
libRbt.so/2013.1/901 2013/11/27
 31 33  0  0  0  0  0  0  0  0999 V2000
   26.4846   43.3981   16.2222 P   0  0  1  0  0  0  0  0  0  0  0  0
   26.4245   44.3784   17.3662 O   0  0  0  0  0  0  0  0  0  0  0  0
   25.3605   43.7016   15.2676 O   0  5  0  0  0  0  0  0  0  0  0  0
   27.8349   43.5683   15.5823 O   0  0  0  0  0  0  0  0  0  0  0  0
   27.2294   41.3230   17.6398 C   0  0  0  0  0  0  0  0  0  0  0  0
   26.3329   41.8715   16.6963 O   0  0  0  0  0  0  0  0  0  0  0  0
   26.8286   39.8796   17.9335 C   0  0  1  0  0  0  0  0  0  0  0  0
   26.7870   39.1411   16.7287 O   0  0  0  0  0  0  0  0  0  0  0  0
   27.8390   39.2401   18.8710 C   0  0  1  0  0  0  0  0  0  0  0  0
   27.9679   40.0536   20.0063 O   0  0  0  0  0  0  0  0  0  0  0  0
   27.4278   37.8448   19.3102 C   0  0  1  0  0  0  0  0  0  0  0  0
   26.9128   37.1670   18.1961 O   0  0  0  0  0  0  0  0  0  0  0  0
   28.6184   37.0752   19.8576 C   0  0  0  0  0  0  0  0  0  0  0  0
   28.5035   34.3099   19.3482 N   0  0  0  0  0  0  0  0  0  0  0  0
   28.4096   32.9723   19.0307 C   0  0  0  0  0  0  0  0  0  0  0  0
   28.7840   32.5723   17.9322 O   0  0  0  0  0  0  0  0  0  0  0  0
   27.8945   32.0744   19.9376 N   0  0  0  0  0  0  0  0  0  0  0  0
   27.4769   32.5055   21.1816 C   0  0  0  0  0  0  0  0  0  0  0  0
   27.5671   33.8534   21.5107 C   0  0  1  0  0  0  0  0  0  0  0  0
   27.0339   31.6943   21.9973 O   0  0  0  0  0  0  0  0  0  0  0  0
   27.2422   35.6312   23.0771 C   0  0  2  0  0  0  0  0  0  0  0  0
   27.1499   34.2914   22.7516 N   0  0  0  0  0  0  0  0  0  0  0  0
   26.8200   36.0726   24.3315 C   0  0  0  0  0  0  0  0  0  0  0  0
   26.9037   37.4188   24.6672 C   0  0  1  0  0  0  0  0  0  0  0  0
   26.4382   37.8562   26.0200 C   0  0  0  0  0  0  0  0  0  0  0  0
   27.4204   38.3372   23.7409 C   0  0  1  0  0  0  0  0  0  0  0  0
   27.5364   39.8007   24.0680 C   0  0  0  0  0  0  0  0  0  0  0  0
   27.8394   37.8939   22.4892 C   0  0  0  0  0  0  0  0  0  0  0  0
   27.7519   36.5427   22.1494 C   0  0  1  0  0  0  0  0  0  0  0  0
   28.0807   34.7578   20.5835 C   0  0  1  0  0  0  0  0  0  0  0  0
   28.1666   36.0996   20.9024 N   0  0  0  0  0  0  0  0  0  0  0  0
  1  2  1  1  0  0  0
  1  3  1  0  0  0  0
  1  4  2  0  0  0  0
  1  6  1  0  0  0  0
  5  6  1  0  0  0  0
  7  5  1  6  0  0  0
  7  8  1  0  0  0  0
  7  9  1  0  0  0  0
  9 10  1  1  0  0  0
  9 11  1  0  0  0  0
 11 12  1  6  0  0  0
 11 13  1  0  0  0  0
 13 31  1  0  0  0  0
 14 15  1  0  0  0  0
 15 16  2  0  0  0  0
 15 17  1  0  0  0  0
 17 18  1  0  0  0  0
 18 20  2  0  0  0  0
 19 18  1  1  0  0  0
 19 22  1  0  0  0  0
 19 30  1  0  0  0  0
 21 23  1  6  0  0  0
 21 29  1  0  0  0  0
 21 22  1  0  0  0  0
 23 24  1  0  0  0  0
 24 25  1  1  0  0  0
 24 26  1  0  0  0  0
 26 27  1  1  0  0  0
 26 28  1  0  0  0  0
 29 28  1  1  0  0  0
 29 31  1  0  0  0  0
 30 14  1  1  0  0  0
 30 31  1  0  0  0  0
M  CHG  1   3  -1
M  END
>  <CHROM.1>
178.38355072,-57.47860475,56.06105491,53.91546200,41.95145468,149.75896480
-72.17301397,27.33255290,37.90414389,19.86595352,-2.27517612,-1.42236691
1.89456788

>  <Name>
ligand

>  <RI>
0

>  <Rbt.Current_Directory>
/home/itssahil/PROJECTS/Mol_Feturizer/New_Systems/rnas/3F2T

>  <Rbt.Executable>
rbdock ($Id: //depot/dev/client3/rdock/2013.1/src/exe/rbdock.cxx#4 $)

>  <Rbt.Library>
libRbt.so (2013.1, Build901 2013/11/27)

>  <Rbt.Parameter_File>
/export/apps/rDock/src/rDock_2013.1_src/data/scripts/dock_solv.prm

>  <Rbt.Receptor>
prm/pocket_docking_7.prm

>  <SCORE>
-30.4326

>  <SCORE.INTER>
-31.2388

>  <SCORE.INTER.CONST>
1

>  <SCORE.INTER.POLAR>
0

>  <SCORE.INTER.ROT>
7

>  <SCORE.INTER.SOLV>
22.5529

>  <SCORE.INTER.VDW>
-36.6101

>  <SCORE.INTER.norm>
-1.0077

>  <SCORE.INTRA>
0.806191

>  <SCORE.INTRA.DIHEDRAL>
0.469881

>  <SCORE.INTRA.DIHEDRAL.0>
4.64198

>  <SCORE.INTRA.POLAR>
0

>  <SCORE.INTRA.POLAR.0>
0

>  <SCORE.INTRA.REPUL>
0

>  <SCORE.INTRA.REPUL.0>
0

>  <SCORE.INTRA.SOLV>
-0.443323

>  <SCORE.INTRA.SOLV.lig_0>
-49.3611

>  <SCORE.INTRA.VDW>
0.792912

>  <SCORE.INTRA.VDW.0>
-1.91858

>  <SCORE.INTRA.norm>
0.0260062

>  <SCORE.RESTR>
0

>  <SCORE.RESTR.CAVITY>
0

>  <SCORE.RESTR.norm>
0

>  <SCORE.SYSTEM>
0

>  <SCORE.SYSTEM.CONST>
0

>  <SCORE.SYSTEM.DIHEDRAL>
0

>  <SCORE.SYSTEM.SOLV>
0

>  <SCORE.SYSTEM.norm>
0

>  <SCORE.heavy>
31

>  <SCORE.norm>
-0.981696

>  <RMSD>
1.157

$$$$
ligand
 OpenBabel11021811473D
libRbt.so/2013.1/901 2013/11/27
 31 33  0  0  0  0  0  0  0  0999 V2000
   26.1122   43.5783   16.2034 P   0  0  1  0  0  0  0  0  0  0  0  0
   26.2219   44.5337   17.3646 O   0  0  0  0  0  0  0  0  0  0  0  0
   24.8277   43.8573   15.4691 O   0  5  0  0  0  0  0  0  0  0  0  0
   27.3220   43.8114   15.3407 O   0  0  0  0  0  0  0  0  0  0  0  0
   27.2178   41.4741   17.3082 C   0  0  0  0  0  0  0  0  0  0  0  0
   26.0982   42.0383   16.6578 O   0  0  0  0  0  0  0  0  0  0  0  0
   26.8752   40.0566   17.7592 C   0  0  1  0  0  0  0  0  0  0  0  0
   26.8383   39.1950   16.6390 O   0  0  0  0  0  0  0  0  0  0  0  0
   27.9252   39.5538   18.7357 C   0  0  1  0  0  0  0  0  0  0  0  0
   28.1058   40.5245   19.7319 O   0  0  0  0  0  0  0  0  0  0  0  0
   27.5316   38.2419   19.3933 C   0  0  1  0  0  0  0  0  0  0  0  0
   27.0750   37.3692   18.3953 O   0  0  0  0  0  0  0  0  0  0  0  0
   28.7191   37.6128   20.1030 C   0  0  0  0  0  0  0  0  0  0  0  0
   28.5870   34.8860   19.4194 N   0  0  0  0  0  0  0  0  0  0  0  0
   28.4856   33.5719   19.0173 C   0  0  0  0  0  0  0  0  0  0  0  0
   28.8687   33.2385   17.8998 O   0  0  0  0  0  0  0  0  0  0  0  0
   27.9534   32.6234   19.8606 N   0  0  0  0  0  0  0  0  0  0  0  0
   27.5259   32.9791   21.1249 C   0  0  0  0  0  0  0  0  0  0  0  0
   27.6236   34.3029   21.5391 C   0  0  1  0  0  0  0  0  0  0  0  0
   27.0673   32.1223   21.8833 O   0  0  0  0  0  0  0  0  0  0  0  0
   27.2962   35.9815   23.2108 C   0  0  2  0  0  0  0  0  0  0  0  0
   27.1964   34.6657   22.8007 N   0  0  0  0  0  0  0  0  0  0  0  0
   26.8640   36.3470   24.4861 C   0  0  0  0  0  0  0  0  0  0  0  0
   26.9551   37.6686   24.9067 C   0  0  1  0  0  0  0  0  0  0  0  0
   26.4786   38.0242   26.2795 C   0  0  0  0  0  0  0  0  0  0  0  0
   27.4894   38.6388   24.0454 C   0  0  1  0  0  0  0  0  0  0  0  0
   27.6138   40.0778   24.4651 C   0  0  0  0  0  0  0  0  0  0  0  0
   27.9183   38.2713   22.7727 C   0  0  0  0  0  0  0  0  0  0  0  0
   27.8234   36.9450   22.3476 C   0  0  1  0  0  0  0  0  0  0  0  0
   28.1546   35.2592   20.6760 C   0  0  1  0  0  0  0  0  0  0  0  0
   28.2480   36.5774   21.0796 N   0  0  0  0  0  0  0  0  0  0  0  0
  1  2  1  1  0  0  0
  1  3  1  0  0  0  0
  1  4  2  0  0  0  0
  1  6  1  0  0  0  0
  5  6  1  0  0  0  0
  7  5  1  6  0  0  0
  7  8  1  0  0  0  0
  7  9  1  0  0  0  0
  9 10  1  1  0  0  0
  9 11  1  0  0  0  0
 11 12  1  6  0  0  0
 11 13  1  0  0  0  0
 13 31  1  0  0  0  0
 14 15  1  0  0  0  0
 15 16  2  0  0  0  0
 15 17  1  0  0  0  0
 17 18  1  0  0  0  0
 18 20  2  0  0  0  0
 19 18  1  1  0  0  0
 19 22  1  0  0  0  0
 19 30  1  0  0  0  0
 21 23  1  6  0  0  0
 21 29  1  0  0  0  0
 21 22  1  0  0  0  0
 23 24  1  0  0  0  0
 24 25  1  1  0  0  0
 24 26  1  0  0  0  0
 26 27  1  1  0  0  0
 26 28  1  0  0  0  0
 29 28  1  1  0  0  0
 29 31  1  0  0  0  0
 30 14  1  1  0  0  0
 30 31  1  0  0  0  0
M  CHG  1   3  -1
M  END
>  <CHROM.1>
173.84050372,-63.28004065,73.44616181,50.25542600,47.04365966,162.57145761
-83.09188062,27.30943189,38.23799305,19.90688890,2.40592709,1.39790094,-1.42754189

>  <Name>
ligand

>  <RI>
0

>  <Rbt.Current_Directory>
/home/itssahil/PROJECTS/Mol_Feturizer/New_Systems/rnas/3F2T

>  <Rbt.Executable>
rbdock ($Id: //depot/dev/client3/rdock/2013.1/src/exe/rbdock.cxx#4 $)

>  <Rbt.Library>
libRbt.so (2013.1, Build901 2013/11/27)

>  <Rbt.Parameter_File>
/export/apps/rDock/src/rDock_2013.1_src/data/scripts/dock_solv.prm

>  <Rbt.Receptor>
prm/pocket_docking_2.prm

>  <SCORE>
-29.2471

>  <SCORE.INTER>
-29.1458

>  <SCORE.INTER.CONST>
1

>  <SCORE.INTER.POLAR>
0

>  <SCORE.INTER.ROT>
7

>  <SCORE.INTER.SOLV>
21.0628

>  <SCORE.INTER.VDW>
-34.7181

>  <SCORE.INTER.norm>
-0.940187

>  <SCORE.INTRA>
-0.156734

>  <SCORE.INTRA.DIHEDRAL>
-0.76222

>  <SCORE.INTRA.DIHEDRAL.0>
4.64198

>  <SCORE.INTRA.POLAR>
0

>  <SCORE.INTRA.POLAR.0>
0

>  <SCORE.INTRA.REPUL>
0

>  <SCORE.INTRA.REPUL.0>
0

>  <SCORE.INTRA.SOLV>
-0.602996

>  <SCORE.INTRA.SOLV.lig_0>
-49.3611

>  <SCORE.INTRA.VDW>
0.525875

>  <SCORE.INTRA.VDW.0>
-1.91858

>  <SCORE.INTRA.norm>
-0.00505592

>  <SCORE.RESTR>
0.0554456

>  <SCORE.RESTR.CAVITY>
0.0554456

>  <SCORE.RESTR.norm>
0.00178857

>  <SCORE.SYSTEM>
0

>  <SCORE.SYSTEM.CONST>
0

>  <SCORE.SYSTEM.DIHEDRAL>
0

>  <SCORE.SYSTEM.SOLV>
0

>  <SCORE.SYSTEM.norm>
0

>  <SCORE.heavy>
31

>  <SCORE.norm>
-0.943454

>  <RMSD>
1.158

$$$$
ligand
 OpenBabel11021811473D
libRbt.so/2013.1/901 2013/11/27
 31 33  0  0  0  0  0  0  0  0999 V2000
   27.3625   42.8173   17.2507 P   0  0  1  0  0  0  0  0  0  0  0  0
   28.3995   43.0525   18.3195 O   0  0  0  0  0  0  0  0  0  0  0  0
   26.5622   44.0797   17.0691 O   0  5  0  0  0  0  0  0  0  0  0  0
   28.1112   42.4350   16.0036 O   0  0  0  0  0  0  0  0  0  0  0  0
   26.7782   40.5205   18.3705 C   0  0  0  0  0  0  0  0  0  0  0  0
   26.3422   41.6328   17.6170 O   0  0  0  0  0  0  0  0  0  0  0  0
   27.7342   39.6840   17.5241 C   0  0  1  0  0  0  0  0  0  0  0  0
   29.0278   39.7151   18.0936 O   0  0  0  0  0  0  0  0  0  0  0  0
   27.2533   38.2438   17.4670 C   0  0  1  0  0  0  0  0  0  0  0  0
   28.2499   37.4669   16.8583 O   0  0  0  0  0  0  0  0  0  0  0  0
   26.9559   37.6716   18.8428 C   0  0  1  0  0  0  0  0  0  0  0  0
   26.2166   36.4917   18.6780 O   0  0  0  0  0  0  0  0  0  0  0  0
   28.2416   37.3563   19.5891 C   0  0  0  0  0  0  0  0  0  0  0  0
   28.2974   34.5945   19.0514 N   0  0  0  0  0  0  0  0  0  0  0  0
   28.2790   33.2560   18.7245 C   0  0  0  0  0  0  0  0  0  0  0  0
   28.5678   32.8958   17.5871 O   0  0  0  0  0  0  0  0  0  0  0  0
   27.9355   32.3126   19.6657 N   0  0  0  0  0  0  0  0  0  0  0  0
   27.6166   32.6993   20.9528 C   0  0  0  0  0  0  0  0  0  0  0  0
   27.6317   34.0477   21.2918 C   0  0  1  0  0  0  0  0  0  0  0  0
   27.3279   31.8489   21.7973 O   0  0  0  0  0  0  0  0  0  0  0  0
   27.3298   35.7819   22.9107 C   0  0  2  0  0  0  0  0  0  0  0  0
   27.3122   34.4413   22.5758 N   0  0  0  0  0  0  0  0  0  0  0  0
   27.0065   36.1784   24.2089 C   0  0  0  0  0  0  0  0  0  0  0  0
   27.0160   37.5245   24.5550 C   0  0  1  0  0  0  0  0  0  0  0  0
   26.6605   37.9128   25.9553 C   0  0  0  0  0  0  0  0  0  0  0  0
   27.3575   38.4886   23.5945 C   0  0  1  0  0  0  0  0  0  0  0  0
   27.3887   39.9544   23.9306 C   0  0  0  0  0  0  0  0  0  0  0  0
   27.6780   38.0899   22.2995 C   0  0  0  0  0  0  0  0  0  0  0  0
   27.6647   36.7385   21.9496 C   0  0  1  0  0  0  0  0  0  0  0  0
   27.9711   34.9976   20.3305 C   0  0  1  0  0  0  0  0  0  0  0  0
   27.9814   36.3396   20.6597 N   0  0  0  0  0  0  0  0  0  0  0  0
  1  2  1  1  0  0  0
  1  3  1  0  0  0  0
  1  4  2  0  0  0  0
  1  6  1  0  0  0  0
  5  6  1  0  0  0  0
  7  5  1  1  0  0  0
  7  8  1  0  0  0  0
  7  9  1  0  0  0  0
  9 10  1  1  0  0  0
  9 11  1  0  0  0  0
 11 12  1  6  0  0  0
 11 13  1  0  0  0  0
 13 31  1  0  0  0  0
 14 15  1  0  0  0  0
 15 16  2  0  0  0  0
 15 17  1  0  0  0  0
 17 18  1  0  0  0  0
 18 20  2  0  0  0  0
 19 18  1  1  0  0  0
 19 22  1  0  0  0  0
 19 30  1  0  0  0  0
 21 23  1  6  0  0  0
 21 29  1  0  0  0  0
 21 22  1  0  0  0  0
 23 24  1  0  0  0  0
 24 25  1  1  0  0  0
 24 26  1  0  0  0  0
 26 27  1  1  0  0  0
 26 28  1  0  0  0  0
 29 28  1  1  0  0  0
 29 31  1  0  0  0  0
 30 14  1  1  0  0  0
 30 31  1  0  0  0  0
M  CHG  1   3  -1
M  END
>  <CHROM.1>
-69.37088092,-33.04873693,114.51948278,-171.21575271,165.43204326,-157.98318696
-92.02806432,27.55210195,37.73062883,19.87584566,1.70651691,1.43911967,-0.60943710

>  <Name>
ligand

>  <RI>
0

>  <Rbt.Current_Directory>
/home/itssahil/PROJECTS/Mol_Feturizer/New_Systems/rnas/3F2T

>  <Rbt.Executable>
rbdock ($Id: //depot/dev/client3/rdock/2013.1/src/exe/rbdock.cxx#4 $)

>  <Rbt.Library>
libRbt.so (2013.1, Build901 2013/11/27)

>  <Rbt.Parameter_File>
/export/apps/rDock/src/rDock_2013.1_src/data/scripts/dock_solv.prm

>  <Rbt.Receptor>
prm/pocket_docking_2.prm

>  <SCORE>
-27.5027

>  <SCORE.INTER>
-32.2782

>  <SCORE.INTER.CONST>
1

>  <SCORE.INTER.POLAR>
0

>  <SCORE.INTER.ROT>
7

>  <SCORE.INTER.SOLV>
16.5965

>  <SCORE.INTER.VDW>
-35.3177

>  <SCORE.INTER.norm>
-1.04123

>  <SCORE.INTRA>
4.76323

>  <SCORE.INTRA.DIHEDRAL>
5.59091

>  <SCORE.INTRA.DIHEDRAL.0>
4.64198

>  <SCORE.INTRA.POLAR>
0

>  <SCORE.INTRA.POLAR.0>
0

>  <SCORE.INTRA.REPUL>
0

>  <SCORE.INTRA.REPUL.0>
0

>  <SCORE.INTRA.SOLV>
1.47126

>  <SCORE.INTRA.SOLV.lig_0>
-49.3611

>  <SCORE.INTRA.VDW>
1.23214

>  <SCORE.INTRA.VDW.0>
-1.91858

>  <SCORE.INTRA.norm>
0.153653

>  <SCORE.RESTR>
0.0123612

>  <SCORE.RESTR.CAVITY>
0.0123612

>  <SCORE.RESTR.norm>
0.000398749

>  <SCORE.SYSTEM>
0

>  <SCORE.SYSTEM.CONST>
0

>  <SCORE.SYSTEM.DIHEDRAL>
0

>  <SCORE.SYSTEM.SOLV>
0

>  <SCORE.SYSTEM.norm>
0

>  <SCORE.heavy>
31

>  <SCORE.norm>
-0.887182

>  <RMSD>
1.160

$$$$
ligand
 OpenBabel11021811473D
libRbt.so/2013.1/901 2013/11/27
 31 33  0  0  0  0  0  0  0  0999 V2000
   26.7899   43.0086   16.4289 P   0  0  1  0  0  0  0  0  0  0  0  0
   26.9791   43.7898   17.7045 O   0  0  0  0  0  0  0  0  0  0  0  0
   25.4105   43.2867   15.8932 O   0  5  0  0  0  0  0  0  0  0  0  0
   27.8685   43.4626   15.4842 O   0  0  0  0  0  0  0  0  0  0  0  0
   28.1699   40.8555   17.0036 C   0  0  0  0  0  0  0  0  0  0  0  0
   26.9290   41.4228   16.6387 O   0  0  0  0  0  0  0  0  0  0  0  0
   27.9614   39.3912   17.3810 C   0  0  1  0  0  0  0  0  0  0  0  0
   29.2056   38.7200   17.3949 O   0  0  0  0  0  0  0  0  0  0  0  0
   27.3316   39.2945   18.7604 C   0  0  1  0  0  0  0  0  0  0  0  0
   26.1151   39.9924   18.7427 O   0  0  0  0  0  0  0  0  0  0  0  0
   27.0687   37.8591   19.1839 C   0  0  1  0  0  0  0  0  0  0  0  0
   26.5861   37.1540   18.0722 O   0  0  0  0  0  0  0  0  0  0  0  0
   28.3435   37.1978   19.6809 C   0  0  0  0  0  0  0  0  0  0  0  0
   28.3739   34.4230   19.2127 N   0  0  0  0  0  0  0  0  0  0  0  0
   28.3458   33.0772   18.9177 C   0  0  0  0  0  0  0  0  0  0  0  0
   28.6721   32.6844   17.8014 O   0  0  0  0  0  0  0  0  0  0  0  0
   27.9505   32.1630   19.8674 N   0  0  0  0  0  0  0  0  0  0  0  0
   27.5887   32.5864   21.1314 C   0  0  0  0  0  0  0  0  0  0  0  0
   27.6133   33.9424   21.4380 C   0  0  1  0  0  0  0  0  0  0  0  0
   27.2535   31.7618   21.9842 O   0  0  0  0  0  0  0  0  0  0  0  0
   27.2782   35.7207   23.0016 C   0  0  2  0  0  0  0  0  0  0  0  0
   27.2512   34.3727   22.6987 N   0  0  0  0  0  0  0  0  0  0  0  0
   26.9118   36.1543   24.2762 C   0  0  0  0  0  0  0  0  0  0  0  0
   26.9305   37.5082   24.5899 C   0  0  1  0  0  0  0  0  0  0  0  0
   26.5278   37.9367   25.9655 C   0  0  0  0  0  0  0  0  0  0  0  0
   27.3248   38.4428   23.6204 C   0  0  1  0  0  0  0  0  0  0  0  0
   27.3675   39.9157   23.9219 C   0  0  0  0  0  0  0  0  0  0  0  0
   27.6882   38.0071   22.3489 C   0  0  0  0  0  0  0  0  0  0  0  0
   27.6659   36.6478   22.0314 C   0  0  1  0  0  0  0  0  0  0  0  0
   28.0053   34.8628   20.4680 C   0  0  1  0  0  0  0  0  0  0  0  0
   28.0253   36.2122   20.7648 N   0  0  0  0  0  0  0  0  0  0  0  0
  1  2  1  1  0  0  0
  1  3  1  0  0  0  0
  1  4  2  0  0  0  0
  1  6  1  0  0  0  0
  5  6  1  0  0  0  0
  7  5  1  1  0  0  0
  7  8  1  0  0  0  0
  7  9  1  0  0  0  0
  9 10  1  6  0  0  0
  9 11  1  0  0  0  0
 11 12  1  6  0  0  0
 11 13  1  0  0  0  0
 13 31  1  0  0  0  0
 14 15  1  0  0  0  0
 15 16  2  0  0  0  0
 15 17  1  0  0  0  0
 17 18  1  0  0  0  0
 18 20  2  0  0  0  0
 19 18  1  1  0  0  0
 19 22  1  0  0  0  0
 19 30  1  0  0  0  0
 21 23  1  6  0  0  0
 21 29  1  0  0  0  0
 21 22  1  0  0  0  0
 23 24  1  0  0  0  0
 24 25  1  1  0  0  0
 24 26  1  0  0  0  0
 26 27  1  1  0  0  0
 26 28  1  0  0  0  0
 29 28  1  1  0  0  0
 29 31  1  0  0  0  0
 30 14  1  1  0  0  0
 30 31  1  0  0  0  0
M  CHG  1   3  -1
M  END
>  <CHROM.1>
169.74236707,-66.34427852,164.21468693,58.16613020,-40.56333293,147.10195606
-73.41791639,27.42816066,37.83213134,19.78559904,-1.92998623,-1.39122756
2.22941894

>  <Name>
ligand

>  <RI>
0

>  <Rbt.Current_Directory>
/home/itssahil/PROJECTS/Mol_Feturizer/New_Systems/rnas/3F2T

>  <Rbt.Executable>
rbdock ($Id: //depot/dev/client3/rdock/2013.1/src/exe/rbdock.cxx#4 $)

>  <Rbt.Library>
libRbt.so (2013.1, Build901 2013/11/27)

>  <Rbt.Parameter_File>
/export/apps/rDock/src/rDock_2013.1_src/data/scripts/dock_solv.prm

>  <Rbt.Receptor>
prm/pocket_docking_2.prm

>  <SCORE>
-30.636

>  <SCORE.INTER>
-32.2598

>  <SCORE.INTER.CONST>
1

>  <SCORE.INTER.POLAR>
0

>  <SCORE.INTER.ROT>
7

>  <SCORE.INTER.SOLV>
21.2246

>  <SCORE.INTER.VDW>
-36.848

>  <SCORE.INTER.norm>
-1.04064

>  <SCORE.INTRA>
1.59872

>  <SCORE.INTRA.DIHEDRAL>
2.22665

>  <SCORE.INTRA.DIHEDRAL.0>
4.64198

>  <SCORE.INTRA.POLAR>
0

>  <SCORE.INTRA.POLAR.0>
0

>  <SCORE.INTRA.REPUL>
0

>  <SCORE.INTRA.REPUL.0>
0

>  <SCORE.INTRA.SOLV>
0.0493032

>  <SCORE.INTRA.SOLV.lig_0>
-49.3611

>  <SCORE.INTRA.VDW>
0.460739

>  <SCORE.INTRA.VDW.0>
-1.91858

>  <SCORE.INTRA.norm>
0.0515715

>  <SCORE.RESTR>
0.0250095

>  <SCORE.RESTR.CAVITY>
0.0250095

>  <SCORE.RESTR.norm>
0.000806757

>  <SCORE.SYSTEM>
0

>  <SCORE.SYSTEM.CONST>
0

>  <SCORE.SYSTEM.DIHEDRAL>
0

>  <SCORE.SYSTEM.SOLV>
0

>  <SCORE.SYSTEM.norm>
0

>  <SCORE.heavy>
31

>  <SCORE.norm>
-0.988259

>  <RMSD>
1.164

$$$$
ligand
 OpenBabel11021811473D
libRbt.so/2013.1/901 2013/11/27
 31 33  0  0  0  0  0  0  0  0999 V2000
   26.9890   42.9156   16.8783 P   0  0  1  0  0  0  0  0  0  0  0  0
   28.0433   43.9445   16.5570 O   0  0  0  0  0  0  0  0  0  0  0  0
   25.7779   43.6215   17.4277 O   0  5  0  0  0  0  0  0  0  0  0  0
   26.6909   42.1919   15.5940 O   0  0  0  0  0  0  0  0  0  0  0  0
   26.8676   40.5674   18.0365 C   0  0  0  0  0  0  0  0  0  0  0  0
   27.4733   41.8415   17.9692 O   0  0  0  0  0  0  0  0  0  0  0  0
   27.3664   39.8391   19.2819 C   0  0  1  0  0  0  0  0  0  0  0  0
   26.9593   40.5403   20.4401 O   0  0  0  0  0  0  0  0  0  0  0  0
   26.7917   38.4333   19.3271 C   0  0  1  0  0  0  0  0  0  0  0  0
   25.5593   38.4359   18.6574 O   0  0  0  0  0  0  0  0  0  0  0  0
   27.7035   37.4076   18.6749 C   0  0  1  0  0  0  0  0  0  0  0  0
   28.2377   37.9727   17.5082 O   0  0  0  0  0  0  0  0  0  0  0  0
   28.8385   37.0193   19.6079 C   0  0  0  0  0  0  0  0  0  0  0  0
   28.6334   34.2442   19.1874 N   0  0  0  0  0  0  0  0  0  0  0  0
   28.4970   32.9009   18.9123 C   0  0  0  0  0  0  0  0  0  0  0  0
   28.8743   32.4517   17.8340 O   0  0  0  0  0  0  0  0  0  0  0  0
   27.9361   32.0523   19.8393 N   0  0  0  0  0  0  0  0  0  0  0  0
   27.5146   32.5390   21.0613 C   0  0  0  0  0  0  0  0  0  0  0  0
   27.6475   33.8931   21.3476 C   0  0  1  0  0  0  0  0  0  0  0  0
   27.0302   31.7715   21.8955 O   0  0  0  0  0  0  0  0  0  0  0  0
   27.3613   35.7324   22.8491 C   0  0  2  0  0  0  0  0  0  0  0  0
   27.2265   34.3866   22.5662 N   0  0  0  0  0  0  0  0  0  0  0  0
   26.9354   36.2299   24.0812 C   0  0  0  0  0  0  0  0  0  0  0  0
   27.0616   37.5828   24.3740 C   0  0  1  0  0  0  0  0  0  0  0  0
   26.5907   38.0810   25.7036 C   0  0  0  0  0  0  0  0  0  0  0  0
   27.6251   38.4512   23.4269 C   0  0  1  0  0  0  0  0  0  0  0  0
   27.7880   39.9198   23.7078 C   0  0  0  0  0  0  0  0  0  0  0  0
   28.0478   37.9520   22.1977 C   0  0  0  0  0  0  0  0  0  0  0  0
   27.9177   36.5941   21.9008 C   0  0  1  0  0  0  0  0  0  0  0  0
   28.2074   34.7477   20.4000 C   0  0  1  0  0  0  0  0  0  0  0  0
   28.3359   36.0954   20.6762 N   0  0  0  0  0  0  0  0  0  0  0  0
  1  2  1  6  0  0  0
  1  3  1  0  0  0  0
  1  4  2  0  0  0  0
  1  6  1  0  0  0  0
  5  6  1  0  0  0  0
  7  5  1  6  0  0  0
  7  8  1  0  0  0  0
  7  9  1  0  0  0  0
  9 10  1  6  0  0  0
  9 11  1  0  0  0  0
 11 12  1  6  0  0  0
 11 13  1  0  0  0  0
 13 31  1  0  0  0  0
 14 15  1  0  0  0  0
 15 16  2  0  0  0  0
 15 17  1  0  0  0  0
 17 18  1  0  0  0  0
 18 20  2  0  0  0  0
 19 18  1  1  0  0  0
 19 22  1  0  0  0  0
 19 30  1  0  0  0  0
 21 23  1  6  0  0  0
 21 29  1  0  0  0  0
 21 22  1  0  0  0  0
 23 24  1  0  0  0  0
 24 25  1  1  0  0  0
 24 26  1  0  0  0  0
 26 27  1  1  0  0  0
 26 28  1  0  0  0  0
 29 28  1  1  0  0  0
 29 31  1  0  0  0  0
 30 14  1  1  0  0  0
 30 31  1  0  0  0  0
M  CHG  1   3  -1
M  END
>  <CHROM.1>
-171.50443751,-156.48485475,63.54221756,-28.16931275,-40.88834902,75.86908497
-93.52697104,27.46079989,37.78769528,19.99365463,-2.12236968,-1.41388792
2.15178294

>  <Name>
ligand

>  <RI>
0

>  <Rbt.Current_Directory>
/home/itssahil/PROJECTS/Mol_Feturizer/New_Systems/rnas/3F2T

>  <Rbt.Executable>
rbdock ($Id: //depot/dev/client3/rdock/2013.1/src/exe/rbdock.cxx#4 $)

>  <Rbt.Library>
libRbt.so (2013.1, Build901 2013/11/27)

>  <Rbt.Parameter_File>
/export/apps/rDock/src/rDock_2013.1_src/data/scripts/dock_solv.prm

>  <Rbt.Receptor>
prm/pocket_docking_2.prm

>  <SCORE>
-25.6743

>  <SCORE.INTER>
-28.6825

>  <SCORE.INTER.CONST>
1

>  <SCORE.INTER.POLAR>
0

>  <SCORE.INTER.ROT>
7

>  <SCORE.INTER.SOLV>
20.0321

>  <SCORE.INTER.VDW>
-34.0657

>  <SCORE.INTER.norm>
-0.925242

>  <SCORE.INTRA>
2.68534

>  <SCORE.INTRA.DIHEDRAL>
2.64013

>  <SCORE.INTRA.DIHEDRAL.0>
4.64198

>  <SCORE.INTRA.POLAR>
0

>  <SCORE.INTRA.POLAR.0>
0

>  <SCORE.INTRA.REPUL>
0

>  <SCORE.INTRA.REPUL.0>
0

>  <SCORE.INTRA.SOLV>
0.077517

>  <SCORE.INTRA.SOLV.lig_0>
-49.3611

>  <SCORE.INTRA.VDW>
1.32652

>  <SCORE.INTRA.VDW.0>
-1.91858

>  <SCORE.INTRA.norm>
0.086624

>  <SCORE.RESTR>
0.322863

>  <SCORE.RESTR.CAVITY>
0.322863

>  <SCORE.RESTR.norm>
0.0104149

>  <SCORE.SYSTEM>
0

>  <SCORE.SYSTEM.CONST>
0

>  <SCORE.SYSTEM.DIHEDRAL>
0

>  <SCORE.SYSTEM.SOLV>
0

>  <SCORE.SYSTEM.norm>
0

>  <SCORE.heavy>
31

>  <SCORE.norm>
-0.828203

>  <RMSD>
1.171

$$$$
ligand
 OpenBabel11021811473D
libRbt.so/2013.1/901 2013/11/27
 31 33  0  0  0  0  0  0  0  0999 V2000
   26.5232   42.8535   16.9875 P   0  0  1  0  0  0  0  0  0  0  0  0
   26.7835   42.1231   15.6944 O   0  0  0  0  0  0  0  0  0  0  0  0
   27.8422   43.2850   17.5715 O   0  5  0  0  0  0  0  0  0  0  0  0
   25.6416   44.0240   16.6489 O   0  0  0  0  0  0  0  0  0  0  0  0
   26.2325   40.6432   18.3661 C   0  0  0  0  0  0  0  0  0  0  0  0
   25.7715   41.9470   18.0790 O   0  0  0  0  0  0  0  0  0  0  0  0
   27.5207   40.7337   19.1801 C   0  0  1  0  0  0  0  0  0  0  0  0
   27.2098   40.9214   20.5465 O   0  0  0  0  0  0  0  0  0  0  0  0
   28.3235   39.4528   19.0269 C   0  0  1  0  0  0  0  0  0  0  0  0
   29.6022   39.6636   19.5633 O   0  0  0  0  0  0  0  0  0  0  0  0
   27.6816   38.2720   19.7359 C   0  0  1  0  0  0  0  0  0  0  0  0
   26.5359   37.8985   19.0191 O   0  0  0  0  0  0  0  0  0  0  0  0
   28.6379   37.0927   19.8008 C   0  0  0  0  0  0  0  0  0  0  0  0
   28.5150   34.3251   19.3054 N   0  0  0  0  0  0  0  0  0  0  0  0
   28.4167   32.9862   18.9949 C   0  0  0  0  0  0  0  0  0  0  0  0
   28.7834   32.5803   17.8959 O   0  0  0  0  0  0  0  0  0  0  0  0
   27.9061   32.0935   19.9094 N   0  0  0  0  0  0  0  0  0  0  0  0
   27.4972   32.5313   21.1540 C   0  0  0  0  0  0  0  0  0  0  0  0
   27.5919   33.8806   21.4761 C   0  0  1  0  0  0  0  0  0  0  0  0
   27.0581   31.7248   21.9764 O   0  0  0  0  0  0  0  0  0  0  0  0
   27.2801   35.6664   23.0359 C   0  0  2  0  0  0  0  0  0  0  0  0
   27.1834   34.3253   22.7175 N   0  0  0  0  0  0  0  0  0  0  0  0
   26.8667   36.1146   24.2910 C   0  0  0  0  0  0  0  0  0  0  0  0
   26.9549   37.4622   24.6197 C   0  0  1  0  0  0  0  0  0  0  0  0
   26.4989   37.9069   25.9733 C   0  0  0  0  0  0  0  0  0  0  0  0
   27.4671   38.3753   23.6856 C   0  0  1  0  0  0  0  0  0  0  0  0
   27.5878   39.8402   24.0049 C   0  0  0  0  0  0  0  0  0  0  0  0
   27.8773   37.9253   22.4334 C   0  0  0  0  0  0  0  0  0  0  0  0
   27.7853   36.5726   22.1006 C   0  0  1  0  0  0  0  0  0  0  0  0
   28.1010   34.7797   20.5412 C   0  0  1  0  0  0  0  0  0  0  0  0
   28.1911   36.1228   20.8531 N   0  0  0  0  0  0  0  0  0  0  0  0
  1  2  1  6  0  0  0
  1  3  1  0  0  0  0
  1  4  2  0  0  0  0
  1  6  1  0  0  0  0
  5  6  1  0  0  0  0
  7  5  1  6  0  0  0
  7  8  1  0  0  0  0
  7  9  1  0  0  0  0
  9 10  1  1  0  0  0
  9 11  1  0  0  0  0
 11 12  1  6  0  0  0
 11 13  1  0  0  0  0
 13 31  1  0  0  0  0
 14 15  1  0  0  0  0
 15 16  2  0  0  0  0
 15 17  1  0  0  0  0
 17 18  1  0  0  0  0
 18 20  2  0  0  0  0
 19 18  1  1  0  0  0
 19 22  1  0  0  0  0
 19 30  1  0  0  0  0
 21 23  1  6  0  0  0
 21 29  1  0  0  0  0
 21 22  1  0  0  0  0
 23 24  1  0  0  0  0
 24 25  1  1  0  0  0
 24 26  1  0  0  0  0
 26 27  1  1  0  0  0
 26 28  1  0  0  0  0
 29 28  1  1  0  0  0
 29 31  1  0  0  0  0
 30 14  1  1  0  0  0
 30 31  1  0  0  0  0
M  CHG  1   3  -1
M  END
>  <CHROM.1>
73.39056511,48.41582393,82.95325830,168.64391633,71.62492911,161.81100327
-44.87485610,27.42509080,37.90402347,20.23062191,-2.26430841,-1.41516798
2.01059703

>  <Name>
ligand

>  <RI>
0

>  <Rbt.Current_Directory>
/home/itssahil/PROJECTS/Mol_Feturizer/New_Systems/rnas/3F2T

>  <Rbt.Executable>
rbdock ($Id: //depot/dev/client3/rdock/2013.1/src/exe/rbdock.cxx#4 $)

>  <Rbt.Library>
libRbt.so (2013.1, Build901 2013/11/27)

>  <Rbt.Parameter_File>
/export/apps/rDock/src/rDock_2013.1_src/data/scripts/dock_solv.prm

>  <Rbt.Receptor>
prm/pocket_docking_3.prm

>  <SCORE>
-28.8747

>  <SCORE.INTER>
-31.8843

>  <SCORE.INTER.CONST>
1

>  <SCORE.INTER.POLAR>
0

>  <SCORE.INTER.ROT>
7

>  <SCORE.INTER.SOLV>
16.4234

>  <SCORE.INTER.VDW>
-34.9974

>  <SCORE.INTER.norm>
-1.02853

>  <SCORE.INTRA>
3.00964

>  <SCORE.INTRA.DIHEDRAL>
1.47826

>  <SCORE.INTRA.DIHEDRAL.0>
4.64198

>  <SCORE.INTRA.POLAR>
0

>  <SCORE.INTRA.POLAR.0>
0

>  <SCORE.INTRA.REPUL>
0

>  <SCORE.INTRA.REPUL.0>
0

>  <SCORE.INTRA.SOLV>
1.44754

>  <SCORE.INTRA.SOLV.lig_0>
-49.3611

>  <SCORE.INTRA.VDW>
1.54674

>  <SCORE.INTRA.VDW.0>
-1.91858

>  <SCORE.INTRA.norm>
0.097085

>  <SCORE.RESTR>
0

>  <SCORE.RESTR.CAVITY>
0

>  <SCORE.RESTR.norm>
0

>  <SCORE.SYSTEM>
0

>  <SCORE.SYSTEM.CONST>
0

>  <SCORE.SYSTEM.DIHEDRAL>
0

>  <SCORE.SYSTEM.SOLV>
0

>  <SCORE.SYSTEM.norm>
0

>  <SCORE.heavy>
31

>  <SCORE.norm>
-0.931442

>  <RMSD>
1.174

$$$$
ligand
 OpenBabel11021811473D
libRbt.so/2013.1/901 2013/11/27
 31 33  0  0  0  0  0  0  0  0999 V2000
   26.1313   43.5279   16.7408 P   0  0  1  0  0  0  0  0  0  0  0  0
   25.7362   43.2053   15.3219 O   0  0  0  0  0  0  0  0  0  0  0  0
   27.0721   44.7034   16.7240 O   0  5  0  0  0  0  0  0  0  0  0  0
   24.8581   43.8298   17.4823 O   0  0  0  0  0  0  0  0  0  0  0  0
   27.9237   41.6176   16.8328 C   0  0  0  0  0  0  0  0  0  0  0  0
   26.8744   42.3097   17.4769 O   0  0  0  0  0  0  0  0  0  0  0  0
   28.4826   40.5586   17.7796 C   0  0  1  0  0  0  0  0  0  0  0  0
   28.8374   41.1578   19.0100 O   0  0  0  0  0  0  0  0  0  0  0  0
   27.4373   39.4859   18.0350 C   0  0  1  0  0  0  0  0  0  0  0  0
   26.7831   39.2070   16.8261 O   0  0  0  0  0  0  0  0  0  0  0  0
   28.0391   38.2000   18.5763 C   0  0  1  0  0  0  0  0  0  0  0  0
   29.0607   37.7924   17.7067 O   0  0  0  0  0  0  0  0  0  0  0  0
   28.6196   38.4147   19.9643 C   0  0  0  0  0  0  0  0  0  0  0  0
   28.6781   35.7417   19.0858 N   0  0  0  0  0  0  0  0  0  0  0  0
   28.6679   34.4560   18.5901 C   0  0  0  0  0  0  0  0  0  0  0  0
   29.0620   34.2326   17.4493 O   0  0  0  0  0  0  0  0  0  0  0  0
   28.2150   33.4130   19.3654 N   0  0  0  0  0  0  0  0  0  0  0  0
   27.7765   33.6448   20.6545 C   0  0  0  0  0  0  0  0  0  0  0  0
   27.7824   34.9390   21.1630 C   0  0  1  0  0  0  0  0  0  0  0  0
   27.3895   32.7045   21.3514 O   0  0  0  0  0  0  0  0  0  0  0  0
   27.3524   36.4648   22.9536 C   0  0  2  0  0  0  0  0  0  0  0  0
   27.3438   35.1781   22.4499 N   0  0  0  0  0  0  0  0  0  0  0  0
   26.9086   36.7051   24.2545 C   0  0  0  0  0  0  0  0  0  0  0  0
   26.9082   37.9962   24.7692 C   0  0  1  0  0  0  0  0  0  0  0  0
   26.4220   38.2165   26.1667 C   0  0  0  0  0  0  0  0  0  0  0  0
   27.3614   39.0622   23.9774 C   0  0  1  0  0  0  0  0  0  0  0  0
   27.3857   40.4726   24.4996 C   0  0  0  0  0  0  0  0  0  0  0  0
   27.8020   38.8195   22.6791 C   0  0  0  0  0  0  0  0  0  0  0  0
   27.7990   37.5237   22.1596 C   0  0  1  0  0  0  0  0  0  0  0  0
   28.2334   35.9911   20.3684 C   0  0  1  0  0  0  0  0  0  0  0  0
   28.2353   37.2802   20.8659 N   0  0  0  0  0  0  0  0  0  0  0  0
  1  2  1  6  0  0  0
  1  3  1  0  0  0  0
  1  4  2  0  0  0  0
  1  6  1  0  0  0  0
  5  6  1  0  0  0  0
  7  5  1  6  0  0  0
  7  8  1  0  0  0  0
  7  9  1  0  0  0  0
  9 10  1  6  0  0  0
  9 11  1  0  0  0  0
 11 12  1  6  0  0  0
 11 13  1  0  0  0  0
 13 31  1  0  0  0  0
 14 15  1  0  0  0  0
 15 16  2  0  0  0  0
 15 17  1  0  0  0  0
 17 18  1  0  0  0  0
 18 20  2  0  0  0  0
 19 18  1  1  0  0  0
 19 22  1  0  0  0  0
 19 30  1  0  0  0  0
 21 23  1  6  0  0  0
 21 29  1  0  0  0  0
 21 22  1  0  0  0  0
 23 24  1  0  0  0  0
 24 25  1  1  0  0  0
 24 26  1  0  0  0  0
 26 27  1  1  0  0  0
 26 28  1  0  0  0  0
 29 28  1  1  0  0  0
 29 31  1  0  0  0  0
 30 14  1  1  0  0  0
 30 31  1  0  0  0  0
M  CHG  1   3  -1
M  END
>  <CHROM.1>
177.52048397,47.42741840,-53.45293843,40.71226680,-53.52650337,135.93587197
-135.99780898,27.51080895,38.62309512,19.76546666,2.11827871,1.33028536,-1.12609851

>  <Name>
ligand

>  <RI>
0

>  <Rbt.Current_Directory>
/home/itssahil/PROJECTS/Mol_Feturizer/New_Systems/rnas/3F2T

>  <Rbt.Executable>
rbdock ($Id: //depot/dev/client3/rdock/2013.1/src/exe/rbdock.cxx#4 $)

>  <Rbt.Library>
libRbt.so (2013.1, Build901 2013/11/27)

>  <Rbt.Parameter_File>
/export/apps/rDock/src/rDock_2013.1_src/data/scripts/dock_solv.prm

>  <Rbt.Receptor>
prm/pocket_docking_2.prm

>  <SCORE>
-22.7658

>  <SCORE.INTER>
-27.7999

>  <SCORE.INTER.CONST>
1

>  <SCORE.INTER.POLAR>
0

>  <SCORE.INTER.ROT>
7

>  <SCORE.INTER.SOLV>
17.5241

>  <SCORE.INTER.VDW>
-32.6413

>  <SCORE.INTER.norm>
-0.896772

>  <SCORE.INTRA>
4.87417

>  <SCORE.INTRA.DIHEDRAL>
2.96151

>  <SCORE.INTRA.DIHEDRAL.0>
4.64198

>  <SCORE.INTRA.POLAR>
0

>  <SCORE.INTRA.POLAR.0>
0

>  <SCORE.INTRA.REPUL>
0

>  <SCORE.INTRA.REPUL.0>
0

>  <SCORE.INTRA.SOLV>
0.0920134

>  <SCORE.INTRA.SOLV.lig_0>
-49.3611

>  <SCORE.INTRA.VDW>
3.34741

>  <SCORE.INTRA.VDW.0>
-1.91858

>  <SCORE.INTRA.norm>
0.157231

>  <SCORE.RESTR>
0.159932

>  <SCORE.RESTR.CAVITY>
0.159932

>  <SCORE.RESTR.norm>
0.0051591

>  <SCORE.SYSTEM>
0

>  <SCORE.SYSTEM.CONST>
0

>  <SCORE.SYSTEM.DIHEDRAL>
0

>  <SCORE.SYSTEM.SOLV>
0

>  <SCORE.SYSTEM.norm>
0

>  <SCORE.heavy>
31

>  <SCORE.norm>
-0.734382

>  <RMSD>
1.176

$$$$
ligand
 OpenBabel11021811473D
libRbt.so/2013.1/901 2013/11/27
 31 33  0  0  0  0  0  0  0  0999 V2000
   27.2528   42.3698   17.2222 P   0  0  1  0  0  0  0  0  0  0  0  0
   28.3323   43.2191   17.8439 O   0  0  0  0  0  0  0  0  0  0  0  0
   26.3323   41.8865   18.3113 O   0  5  0  0  0  0  0  0  0  0  0  0
   26.5427   43.2421   16.2238 O   0  0  0  0  0  0  0  0  0  0  0  0
   29.0266   40.4688   16.8901 C   0  0  0  0  0  0  0  0  0  0  0  0
   27.8312   41.0829   16.4557 O   0  0  0  0  0  0  0  0  0  0  0  0
   28.7511   39.6813   18.1684 C   0  0  1  0  0  0  0  0  0  0  0  0
   28.3896   40.5691   19.2075 O   0  0  0  0  0  0  0  0  0  0  0  0
   27.6146   38.6992   17.9391 C   0  0  1  0  0  0  0  0  0  0  0  0
   27.9801   37.8325   16.8987 O   0  0  0  0  0  0  0  0  0  0  0  0
   27.2949   37.8757   19.1755 C   0  0  1  0  0  0  0  0  0  0  0  0
   26.2981   36.9483   18.8405 O   0  0  0  0  0  0  0  0  0  0  0  0
   28.5262   37.1318   19.6653 C   0  0  0  0  0  0  0  0  0  0  0  0
   28.4650   34.3540   19.2180 N   0  0  0  0  0  0  0  0  0  0  0  0
   28.3939   33.0079   18.9322 C   0  0  0  0  0  0  0  0  0  0  0  0
   28.7290   32.5946   17.8260 O   0  0  0  0  0  0  0  0  0  0  0  0
   27.9457   32.1163   19.8799 N   0  0  0  0  0  0  0  0  0  0  0  0
   27.5732   32.5627   21.1328 C   0  0  0  0  0  0  0  0  0  0  0  0
   27.6409   33.9193   21.4300 C   0  0  1  0  0  0  0  0  0  0  0  0
   27.1903   31.7577   21.9843 O   0  0  0  0  0  0  0  0  0  0  0  0
   27.3383   35.7211   22.9733 C   0  0  2  0  0  0  0  0  0  0  0  0
   27.2684   34.3726   22.6797 N   0  0  0  0  0  0  0  0  0  0  0  0
   26.9614   36.1780   24.2367 C   0  0  0  0  0  0  0  0  0  0  0  0
   27.0229   37.5328   24.5408 C   0  0  1  0  0  0  0  0  0  0  0  0
   26.6074   37.9866   25.9044 C   0  0  0  0  0  0  0  0  0  0  0  0
   27.4713   38.4446   23.5732 C   0  0  1  0  0  0  0  0  0  0  0  0
   27.5615   39.9174   23.8649 C   0  0  0  0  0  0  0  0  0  0  0  0
   27.8452   37.9858   22.3128 C   0  0  0  0  0  0  0  0  0  0  0  0
   27.7798   36.6257   22.0048 C   0  0  1  0  0  0  0  0  0  0  0  0
   28.0865   34.8170   20.4620 C   0  0  1  0  0  0  0  0  0  0  0  0
   28.1495   36.1671   20.7494 N   0  0  0  0  0  0  0  0  0  0  0  0
  1  2  1  1  0  0  0
  1  3  1  0  0  0  0
  1  4  2  0  0  0  0
  1  6  1  0  0  0  0
  5  6  1  0  0  0  0
  7  5  1  6  0  0  0
  7  8  1  0  0  0  0
  7  9  1  0  0  0  0
  9 10  1  6  0  0  0
  9 11  1  0  0  0  0
 11 12  1  6  0  0  0
 11 13  1  0  0  0  0
 13 31  1  0  0  0  0
 14 15  1  0  0  0  0
 15 16  2  0  0  0  0
 15 17  1  0  0  0  0
 17 18  1  0  0  0  0
 18 20  2  0  0  0  0
 19 18  1  1  0  0  0
 19 22  1  0  0  0  0
 19 30  1  0  0  0  0
 21 23  1  6  0  0  0
 21 29  1  0  0  0  0
 21 22  1  0  0  0  0
 23 24  1  0  0  0  0
 24 25  1  1  0  0  0
 24 26  1  0  0  0  0
 26 27  1  1  0  0  0
 26 28  1  0  0  0  0
 29 28  1  1  0  0  0
 29 31  1  0  0  0  0
 30 14  1  1  0  0  0
 30 31  1  0  0  0  0
M  CHG  1   3  -1
M  END
>  <CHROM.1>
74.46998127,30.25834646,-65.08069150,59.10721300,-176.34302316,-171.33751334
-71.13544629,27.66008778,37.64586399,19.96296382,-1.62967776,-1.42369741
2.58402880

>  <Name>
ligand

>  <RI>
0

>  <Rbt.Current_Directory>
/home/itssahil/PROJECTS/Mol_Feturizer/New_Systems/rnas/3F2T

>  <Rbt.Executable>
rbdock ($Id: //depot/dev/client3/rdock/2013.1/src/exe/rbdock.cxx#4 $)

>  <Rbt.Library>
libRbt.so (2013.1, Build901 2013/11/27)

>  <Rbt.Parameter_File>
/export/apps/rDock/src/rDock_2013.1_src/data/scripts/dock_solv.prm

>  <Rbt.Receptor>
prm/pocket_docking_4.prm

>  <SCORE>
-32.0208

>  <SCORE.INTER>
-33.5814

>  <SCORE.INTER.CONST>
1

>  <SCORE.INTER.POLAR>
0

>  <SCORE.INTER.ROT>
7

>  <SCORE.INTER.SOLV>
14.8665

>  <SCORE.INTER.VDW>
-35.6097

>  <SCORE.INTER.norm>
-1.08327

>  <SCORE.INTRA>
1.56055

>  <SCORE.INTRA.DIHEDRAL>
-0.897374

>  <SCORE.INTRA.DIHEDRAL.0>
4.64198

>  <SCORE.INTRA.POLAR>
0

>  <SCORE.INTRA.POLAR.0>
0

>  <SCORE.INTRA.REPUL>
0

>  <SCORE.INTRA.REPUL.0>
0

>  <SCORE.INTRA.SOLV>
2.91548

>  <SCORE.INTRA.SOLV.lig_0>
-49.3611

>  <SCORE.INTRA.VDW>
0.551495

>  <SCORE.INTRA.VDW.0>
-1.91858

>  <SCORE.INTRA.norm>
0.0503403

>  <SCORE.RESTR>
0

>  <SCORE.RESTR.CAVITY>
0

>  <SCORE.RESTR.norm>
0

>  <SCORE.SYSTEM>
0

>  <SCORE.SYSTEM.CONST>
0

>  <SCORE.SYSTEM.DIHEDRAL>
0

>  <SCORE.SYSTEM.SOLV>
0

>  <SCORE.SYSTEM.norm>
0

>  <SCORE.heavy>
31

>  <SCORE.norm>
-1.03293

>  <RMSD>
1.176

$$$$
ligand
 OpenBabel11021811473D
libRbt.so/2013.1/901 2013/11/27
 31 33  0  0  0  0  0  0  0  0999 V2000
   26.9722   42.8315   17.0228 P   0  0  1  0  0  0  0  0  0  0  0  0
   26.7879   41.9959   15.7813 O   0  0  0  0  0  0  0  0  0  0  0  0
   28.1778   43.7138   16.8356 O   0  5  0  0  0  0  0  0  0  0  0  0
   25.7075   43.6267   17.1960 O   0  0  0  0  0  0  0  0  0  0  0  0
   28.2356   40.9835   18.3864 C   0  0  0  0  0  0  0  0  0  0  0  0
   27.2053   41.9486   18.3436 O   0  0  0  0  0  0  0  0  0  0  0  0
   28.2408   40.3148   19.7587 C   0  0  1  0  0  0  0  0  0  0  0  0
   28.0913   41.2940   20.7674 O   0  0  0  0  0  0  0  0  0  0  0  0
   27.0940   39.3231   19.8580 C   0  0  1  0  0  0  0  0  0  0  0  0
   25.9525   39.9061   19.2883 O   0  0  0  0  0  0  0  0  0  0  0  0
   27.3877   38.0157   19.1417 C   0  0  1  0  0  0  0  0  0  0  0  0
   27.6125   38.2974   17.7867 O   0  0  0  0  0  0  0  0  0  0  0  0
   28.6198   37.3429   19.7239 C   0  0  0  0  0  0  0  0  0  0  0  0
   28.5129   34.5853   19.1719 N   0  0  0  0  0  0  0  0  0  0  0  0
   28.4202   33.2523   18.8353 C   0  0  0  0  0  0  0  0  0  0  0  0
   28.7559   32.8748   17.7165 O   0  0  0  0  0  0  0  0  0  0  0  0
   27.9496   32.3340   19.7458 N   0  0  0  0  0  0  0  0  0  0  0  0
   27.5760   32.7397   21.0122 C   0  0  0  0  0  0  0  0  0  0  0  0
   27.6654   34.0828   21.3607 C   0  0  1  0  0  0  0  0  0  0  0  0
   27.1729   31.9103   21.8303 O   0  0  0  0  0  0  0  0  0  0  0  0
   27.3835   35.8305   22.9686 C   0  0  2  0  0  0  0  0  0  0  0  0
   27.2920   34.4955   22.6240 N   0  0  0  0  0  0  0  0  0  0  0  0
   27.0057   36.2464   24.2458 C   0  0  0  0  0  0  0  0  0  0  0  0
   27.0888   37.5875   24.6011 C   0  0  1  0  0  0  0  0  0  0  0  0
   26.6716   37.9972   25.9780 C   0  0  0  0  0  0  0  0  0  0  0  0
   27.5602   38.5268   23.6714 C   0  0  1  0  0  0  0  0  0  0  0  0
   27.6741   39.9858   24.0188 C   0  0  0  0  0  0  0  0  0  0  0  0
   27.9349   38.1090   22.3971 C   0  0  0  0  0  0  0  0  0  0  0  0
   27.8479   36.7628   22.0377 C   0  0  1  0  0  0  0  0  0  0  0  0
   28.1337   35.0080   20.4300 C   0  0  1  0  0  0  0  0  0  0  0  0
   28.2184   36.3451   20.7683 N   0  0  0  0  0  0  0  0  0  0  0  0
  1  2  1  6  0  0  0
  1  3  1  0  0  0  0
  1  4  2  0  0  0  0
  1  6  1  0  0  0  0
  5  6  1  0  0  0  0
  7  5  1  6  0  0  0
  7  8  1  0  0  0  0
  7  9  1  0  0  0  0
  9 10  1  6  0  0  0
  9 11  1  0  0  0  0
 11 12  1  6  0  0  0
 11 13  1  0  0  0  0
 13 31  1  0  0  0  0
 14 15  1  0  0  0  0
 15 16  2  0  0  0  0
 15 17  1  0  0  0  0
 17 18  1  0  0  0  0
 18 20  2  0  0  0  0
 19 18  1  1  0  0  0
 19 22  1  0  0  0  0
 19 30  1  0  0  0  0
 21 23  1  6  0  0  0
 21 29  1  0  0  0  0
 21 22  1  0  0  0  0
 23 24  1  0  0  0  0
 24 25  1  1  0  0  0
 24 26  1  0  0  0  0
 26 27  1  1  0  0  0
 26 28  1  0  0  0  0
 29 28  1  1  0  0  0
 29 31  1  0  0  0  0
 30 14  1  1  0  0  0
 30 31  1  0  0  0  0
M  CHG  1   3  -1
M  END
>  <CHROM.1>
179.13096173,54.38816959,-43.95041513,-42.40036092,-60.16404423,94.54211161
-77.52154036,27.53837857,38.03300855,20.16833144,-2.11290332,-1.44477211
2.15850990

>  <Name>
ligand

>  <RI>
0

>  <Rbt.Current_Directory>
/home/itssahil/PROJECTS/Mol_Feturizer/New_Systems/rnas/3F2T

>  <Rbt.Executable>
rbdock ($Id: //depot/dev/client3/rdock/2013.1/src/exe/rbdock.cxx#4 $)

>  <Rbt.Library>
libRbt.so (2013.1, Build901 2013/11/27)

>  <Rbt.Parameter_File>
/export/apps/rDock/src/rDock_2013.1_src/data/scripts/dock_solv.prm

>  <Rbt.Receptor>
prm/pocket_docking_4.prm

>  <SCORE>
-29.2801

>  <SCORE.INTER>
-31.4369

>  <SCORE.INTER.CONST>
1

>  <SCORE.INTER.POLAR>
0

>  <SCORE.INTER.ROT>
7

>  <SCORE.INTER.SOLV>
17.2459

>  <SCORE.INTER.VDW>
-34.9733

>  <SCORE.INTER.norm>
-1.01409

>  <SCORE.INTRA>
2.15682

>  <SCORE.INTRA.DIHEDRAL>
1.72454

>  <SCORE.INTRA.DIHEDRAL.0>
4.64198

>  <SCORE.INTRA.POLAR>
0

>  <SCORE.INTRA.POLAR.0>
0

>  <SCORE.INTRA.REPUL>
0

>  <SCORE.INTRA.REPUL.0>
0

>  <SCORE.INTRA.SOLV>
0.278342

>  <SCORE.INTRA.SOLV.lig_0>
-49.3611

>  <SCORE.INTRA.VDW>
1.15538

>  <SCORE.INTRA.VDW.0>
-1.91858

>  <SCORE.INTRA.norm>
0.0695749

>  <SCORE.RESTR>
0

>  <SCORE.RESTR.CAVITY>
0

>  <SCORE.RESTR.norm>
0

>  <SCORE.SYSTEM>
0

>  <SCORE.SYSTEM.CONST>
0

>  <SCORE.SYSTEM.DIHEDRAL>
0

>  <SCORE.SYSTEM.SOLV>
0

>  <SCORE.SYSTEM.norm>
0

>  <SCORE.heavy>
31

>  <SCORE.norm>
-0.944519

>  <RMSD>
1.186

$$$$
ligand
 OpenBabel11021811473D
libRbt.so/2013.1/901 2013/11/27
 31 33  0  0  0  0  0  0  0  0999 V2000
   27.1092   42.7072   17.2507 P   0  0  1  0  0  0  0  0  0  0  0  0
   27.1047   41.7281   16.1042 O   0  0  0  0  0  0  0  0  0  0  0  0
   28.3231   43.5893   17.1269 O   0  5  0  0  0  0  0  0  0  0  0  0
   25.8273   43.4877   17.1530 O   0  0  0  0  0  0  0  0  0  0  0  0
   26.8526   40.6185   18.8134 C   0  0  0  0  0  0  0  0  0  0  0  0
   27.1625   41.9906   18.6867 O   0  0  0  0  0  0  0  0  0  0  0  0
   27.9262   39.7938   18.1081 C   0  0  1  0  0  0  0  0  0  0  0  0
   29.0618   39.6754   18.9418 O   0  0  0  0  0  0  0  0  0  0  0  0
   27.3940   38.4051   17.7968 C   0  0  1  0  0  0  0  0  0  0  0  0
   28.3659   37.7121   17.0603 O   0  0  0  0  0  0  0  0  0  0  0  0
   27.0669   37.6098   19.0495 C   0  0  1  0  0  0  0  0  0  0  0  0
   26.2800   36.5100   18.6793 O   0  0  0  0  0  0  0  0  0  0  0  0
   28.3352   37.1133   19.7237 C   0  0  0  0  0  0  0  0  0  0  0  0
   28.3328   34.3318   19.2959 N   0  0  0  0  0  0  0  0  0  0  0  0
   28.2893   32.9824   19.0201 C   0  0  0  0  0  0  0  0  0  0  0  0
   28.6206   32.5691   17.9127 O   0  0  0  0  0  0  0  0  0  0  0  0
   27.8733   32.0874   19.9792 N   0  0  0  0  0  0  0  0  0  0  0  0
   27.5057   32.5339   21.2335 C   0  0  0  0  0  0  0  0  0  0  0  0
   27.5456   33.8938   21.5207 C   0  0  1  0  0  0  0  0  0  0  0  0
   27.1518   31.7263   22.0950 O   0  0  0  0  0  0  0  0  0  0  0  0
   27.2201   35.6989   23.0553 C   0  0  2  0  0  0  0  0  0  0  0  0
   27.1778   34.3471   22.7717 N   0  0  0  0  0  0  0  0  0  0  0  0
   26.8480   36.1558   24.3201 C   0  0  0  0  0  0  0  0  0  0  0  0
   26.8818   37.5138   24.6143 C   0  0  1  0  0  0  0  0  0  0  0  0
   26.4724   37.9675   25.9798 C   0  0  0  0  0  0  0  0  0  0  0  0
   27.2974   38.4288   23.6352 C   0  0  1  0  0  0  0  0  0  0  0  0
   27.3570   39.9053   23.9158 C   0  0  0  0  0  0  0  0  0  0  0  0
   27.6665   37.9700   22.3735 C   0  0  0  0  0  0  0  0  0  0  0  0
   27.6289   36.6066   22.0755 C   0  0  1  0  0  0  0  0  0  0  0  0
   27.9587   34.7947   20.5413 C   0  0  1  0  0  0  0  0  0  0  0  0
   27.9940   36.1479   20.8187 N   0  0  0  0  0  0  0  0  0  0  0  0
  1  2  1  6  0  0  0
  1  3  1  0  0  0  0
  1  4  2  0  0  0  0
  1  6  1  0  0  0  0
  5  6  1  0  0  0  0
  7  5  1  1  0  0  0
  7  8  1  0  0  0  0
  7  9  1  0  0  0  0
  9 10  1  1  0  0  0
  9 11  1  0  0  0  0
 11 12  1  6  0  0  0
 11 13  1  0  0  0  0
 13 31  1  0  0  0  0
 14 15  1  0  0  0  0
 15 16  2  0  0  0  0
 15 17  1  0  0  0  0
 17 18  1  0  0  0  0
 18 20  2  0  0  0  0
 19 18  1  1  0  0  0
 19 22  1  0  0  0  0
 19 30  1  0  0  0  0
 21 23  1  6  0  0  0
 21 29  1  0  0  0  0
 21 22  1  0  0  0  0
 23 24  1  0  0  0  0
 24 25  1  1  0  0  0
 24 26  1  0  0  0  0
 26 27  1  1  0  0  0
 26 28  1  0  0  0  0
 29 28  1  1  0  0  0
 29 31  1  0  0  0  0
 30 14  1  1  0  0  0
 30 31  1  0  0  0  0
M  CHG  1   3  -1
M  END
>  <CHROM.1>
67.20135981,-16.52809900,80.08733506,175.50965038,165.08945975,-170.63681628
-82.82097796,27.48935489,37.64531466,20.05940931,-1.78525595,-1.41808000
2.46301124

>  <Name>
ligand

>  <RI>
0

>  <Rbt.Current_Directory>
/home/itssahil/PROJECTS/Mol_Feturizer/New_Systems/rnas/3F2T

>  <Rbt.Executable>
rbdock ($Id: //depot/dev/client3/rdock/2013.1/src/exe/rbdock.cxx#4 $)

>  <Rbt.Library>
libRbt.so (2013.1, Build901 2013/11/27)

>  <Rbt.Parameter_File>
/export/apps/rDock/src/rDock_2013.1_src/data/scripts/dock_solv.prm

>  <Rbt.Receptor>
prm/pocket_docking_3.prm

>  <SCORE>
-30.3086

>  <SCORE.INTER>
-32.2706

>  <SCORE.INTER.CONST>
1

>  <SCORE.INTER.POLAR>
0

>  <SCORE.INTER.ROT>
7

>  <SCORE.INTER.SOLV>
17.0285

>  <SCORE.INTER.VDW>
-35.4566

>  <SCORE.INTER.norm>
-1.04099

>  <SCORE.INTRA>
1.96198

>  <SCORE.INTRA.DIHEDRAL>
1.12743

>  <SCORE.INTRA.DIHEDRAL.0>
4.64198

>  <SCORE.INTRA.POLAR>
0

>  <SCORE.INTRA.POLAR.0>
0

>  <SCORE.INTRA.REPUL>
0

>  <SCORE.INTRA.REPUL.0>
0

>  <SCORE.INTRA.SOLV>
0.45069

>  <SCORE.INTRA.SOLV.lig_0>
-49.3611

>  <SCORE.INTRA.VDW>
1.17292

>  <SCORE.INTRA.VDW.0>
-1.91858

>  <SCORE.INTRA.norm>
0.0632896

>  <SCORE.RESTR>
0

>  <SCORE.RESTR.CAVITY>
0

>  <SCORE.RESTR.norm>
0

>  <SCORE.SYSTEM>
0

>  <SCORE.SYSTEM.CONST>
0

>  <SCORE.SYSTEM.DIHEDRAL>
0

>  <SCORE.SYSTEM.SOLV>
0

>  <SCORE.SYSTEM.norm>
0

>  <SCORE.heavy>
31

>  <SCORE.norm>
-0.977698

>  <RMSD>
1.192

$$$$
ligand
 OpenBabel11021811473D
libRbt.so/2013.1/901 2013/11/27
 31 33  0  0  0  0  0  0  0  0999 V2000
   27.1172   42.0557   17.3187 P   0  0  1  0  0  0  0  0  0  0  0  0
   26.8139   41.0282   16.2578 O   0  0  0  0  0  0  0  0  0  0  0  0
   26.7501   43.4170   16.7906 O   0  5  0  0  0  0  0  0  0  0  0  0
   26.3051   41.6770   18.5267 O   0  0  0  0  0  0  0  0  0  0  0  0
   29.4551   40.9183   17.6519 C   0  0  0  0  0  0  0  0  0  0  0  0
   28.6676   42.0878   17.7352 O   0  0  0  0  0  0  0  0  0  0  0  0
   29.0465   39.9571   18.7652 C   0  0  1  0  0  0  0  0  0  0  0  0
   28.6967   40.6889   19.9232 O   0  0  0  0  0  0  0  0  0  0  0  0
   27.8517   39.1285   18.3240 C   0  0  1  0  0  0  0  0  0  0  0  0
   28.1882   38.4617   17.1368 O   0  0  0  0  0  0  0  0  0  0  0  0
   27.4364   38.1014   19.3639 C   0  0  1  0  0  0  0  0  0  0  0  0
   26.3663   37.3585   18.8452 O   0  0  0  0  0  0  0  0  0  0  0  0
   28.5863   37.1625   19.6888 C   0  0  0  0  0  0  0  0  0  0  0  0
   28.4888   34.3913   19.2085 N   0  0  0  0  0  0  0  0  0  0  0  0
   28.4013   33.0498   18.9060 C   0  0  0  0  0  0  0  0  0  0  0  0
   28.7494   32.6435   17.8012 O   0  0  0  0  0  0  0  0  0  0  0  0
   27.9222   32.1549   19.8353 N   0  0  0  0  0  0  0  0  0  0  0  0
   27.5346   32.5932   21.0866 C   0  0  0  0  0  0  0  0  0  0  0  0
   27.6186   33.9451   21.4005 C   0  0  1  0  0  0  0  0  0  0  0  0
   27.1239   31.7850   21.9218 O   0  0  0  0  0  0  0  0  0  0  0  0
   27.3174   35.7341   22.9589 C   0  0  2  0  0  0  0  0  0  0  0  0
   27.2313   34.3903   22.6486 N   0  0  0  0  0  0  0  0  0  0  0  0
   26.9254   36.1827   24.2206 C   0  0  0  0  0  0  0  0  0  0  0  0
   27.0031   37.5329   24.5414 C   0  0  1  0  0  0  0  0  0  0  0  0
   26.5707   37.9780   25.9026 C   0  0  0  0  0  0  0  0  0  0  0  0
   27.4831   38.4481   23.5924 C   0  0  1  0  0  0  0  0  0  0  0  0
   27.5915   39.9159   23.9026 C   0  0  0  0  0  0  0  0  0  0  0  0
   27.8720   37.9976   22.3336 C   0  0  0  0  0  0  0  0  0  0  0  0
   27.7905   36.6423   22.0088 C   0  0  1  0  0  0  0  0  0  0  0  0
   28.0957   34.8463   20.4509 C   0  0  1  0  0  0  0  0  0  0  0  0
   28.1751   36.1919   20.7549 N   0  0  0  0  0  0  0  0  0  0  0  0
  1  2  1  6  0  0  0
  1  3  1  0  0  0  0
  1  4  2  0  0  0  0
  1  6  1  0  0  0  0
  5  6  1  0  0  0  0
  7  5  1  6  0  0  0
  7  8  1  0  0  0  0
  7  9  1  0  0  0  0
  9 10  1  6  0  0  0
  9 11  1  0  0  0  0
 11 12  1  6  0  0  0
 11 13  1  0  0  0  0
 13 31  1  0  0  0  0
 14 15  1  0  0  0  0
 15 16  2  0  0  0  0
 15 17  1  0  0  0  0
 17 18  1  0  0  0  0
 18 20  2  0  0  0  0
 19 18  1  1  0  0  0
 19 22  1  0  0  0  0
 19 30  1  0  0  0  0
 21 23  1  6  0  0  0
 21 29  1  0  0  0  0
 21 22  1  0  0  0  0
 23 24  1  0  0  0  0
 24 25  1  1  0  0  0
 24 26  1  0  0  0  0
 26 27  1  1  0  0  0
 26 28  1  0  0  0  0
 29 28  1  1  0  0  0
 29 31  1  0  0  0  0
 30 14  1  1  0  0  0
 30 31  1  0  0  0  0
M  CHG  1   3  -1
M  END
>  <CHROM.1>
-72.22407610,-29.43598131,-35.23719504,56.62046316,-177.77564614,177.75481951
-60.95275580,27.68434112,37.67486206,20.07232241,-1.61951705,-1.42961128
2.61549279

>  <Name>
ligand

>  <RI>
0

>  <Rbt.Current_Directory>
/home/itssahil/PROJECTS/Mol_Feturizer/New_Systems/rnas/3F2T

>  <Rbt.Executable>
rbdock ($Id: //depot/dev/client3/rdock/2013.1/src/exe/rbdock.cxx#4 $)

>  <Rbt.Library>
libRbt.so (2013.1, Build901 2013/11/27)

>  <Rbt.Parameter_File>
/export/apps/rDock/src/rDock_2013.1_src/data/scripts/dock_solv.prm

>  <Rbt.Receptor>
prm/pocket_docking_3.prm

>  <SCORE>
-30.4485

>  <SCORE.INTER>
-32.7086

>  <SCORE.INTER.CONST>
1

>  <SCORE.INTER.POLAR>
0

>  <SCORE.INTER.ROT>
7

>  <SCORE.INTER.SOLV>
13.8417

>  <SCORE.INTER.VDW>
-34.6863

>  <SCORE.INTER.norm>
-1.05512

>  <SCORE.INTRA>
2.26014

>  <SCORE.INTRA.DIHEDRAL>
0.443419

>  <SCORE.INTRA.DIHEDRAL.0>
4.64198

>  <SCORE.INTRA.POLAR>
0

>  <SCORE.INTRA.POLAR.0>
0

>  <SCORE.INTRA.REPUL>
0

>  <SCORE.INTRA.REPUL.0>
0

>  <SCORE.INTRA.SOLV>
3.83067

>  <SCORE.INTRA.SOLV.lig_0>
-49.3611

>  <SCORE.INTRA.VDW>
0.123096

>  <SCORE.INTRA.VDW.0>
-1.91858

>  <SCORE.INTRA.norm>
0.0729078

>  <SCORE.RESTR>
0

>  <SCORE.RESTR.CAVITY>
0

>  <SCORE.RESTR.norm>
0

>  <SCORE.SYSTEM>
0

>  <SCORE.SYSTEM.CONST>
0

>  <SCORE.SYSTEM.DIHEDRAL>
0

>  <SCORE.SYSTEM.SOLV>
0

>  <SCORE.SYSTEM.norm>
0

>  <SCORE.heavy>
31

>  <SCORE.norm>
-0.982209

>  <RMSD>
1.193

$$$$
ligand
 OpenBabel11021811473D
libRbt.so/2013.1/901 2013/11/27
 31 33  0  0  0  0  0  0  0  0999 V2000
   27.1397   42.9257   17.5606 P   0  0  1  0  0  0  0  0  0  0  0  0
   25.6643   42.6366   17.4469 O   0  0  0  0  0  0  0  0  0  0  0  0
   27.4320   44.2255   16.8592 O   0  5  0  0  0  0  0  0  0  0  0  0
   27.4518   42.9905   19.0305 O   0  0  0  0  0  0  0  0  0  0  0  0
   27.5299   40.4982   16.6521 C   0  0  0  0  0  0  0  0  0  0  0  0
   28.0547   41.7869   16.8941 O   0  0  0  0  0  0  0  0  0  0  0  0
   27.4888   39.7180   17.9635 C   0  0  1  0  0  0  0  0  0  0  0  0
   26.5680   40.3224   18.8499 O   0  0  0  0  0  0  0  0  0  0  0  0
   27.0565   38.2850   17.7025 C   0  0  1  0  0  0  0  0  0  0  0  0
   28.0600   37.6472   16.9587 O   0  0  0  0  0  0  0  0  0  0  0  0
   26.8217   37.5025   18.9837 C   0  0  1  0  0  0  0  0  0  0  0  0
   26.1601   36.3105   18.6560 O   0  0  0  0  0  0  0  0  0  0  0  0
   28.1384   37.1723   19.6669 C   0  0  0  0  0  0  0  0  0  0  0  0
   28.2012   34.3918   19.2369 N   0  0  0  0  0  0  0  0  0  0  0  0
   28.1847   33.0413   18.9633 C   0  0  0  0  0  0  0  0  0  0  0  0
   28.4490   32.6384   17.8344 O   0  0  0  0  0  0  0  0  0  0  0  0
   27.8704   32.1337   19.9489 N   0  0  0  0  0  0  0  0  0  0  0  0
   27.5794   32.5688   21.2271 C   0  0  0  0  0  0  0  0  0  0  0  0
   27.5929   33.9296   21.5124 C   0  0  1  0  0  0  0  0  0  0  0  0
   27.3169   31.7506   22.1110 O   0  0  0  0  0  0  0  0  0  0  0  0
   27.3170   35.7243   23.0688 C   0  0  2  0  0  0  0  0  0  0  0  0
   27.3012   34.3716   22.7873 N   0  0  0  0  0  0  0  0  0  0  0  0
   27.0219   36.1697   24.3577 C   0  0  0  0  0  0  0  0  0  0  0  0
   27.0300   37.5284   24.6504 C   0  0  1  0  0  0  0  0  0  0  0  0
   26.7050   37.9694   26.0425 C   0  0  0  0  0  0  0  0  0  0  0  0
   27.3416   38.4561   23.6449 C   0  0  1  0  0  0  0  0  0  0  0  0
   27.3703   39.9341   23.9223 C   0  0  0  0  0  0  0  0  0  0  0  0
   27.6341   38.0086   22.3592 C   0  0  0  0  0  0  0  0  0  0  0  0
   27.6222   36.6444   22.0630 C   0  0  1  0  0  0  0  0  0  0  0  0
   27.9026   34.8430   20.5067 C   0  0  1  0  0  0  0  0  0  0  0  0
   27.9110   36.1970   20.7826 N   0  0  0  0  0  0  0  0  0  0  0  0
  1  2  1  6  0  0  0
  1  3  1  0  0  0  0
  1  4  2  0  0  0  0
  1  6  1  0  0  0  0
  5  6  1  0  0  0  0
  7  5  1  6  0  0  0
  7  8  1  0  0  0  0
  7  9  1  0  0  0  0
  9 10  1  6  0  0  0
  9 11  1  0  0  0  0
 11 12  1  6  0  0  0
 11 13  1  0  0  0  0
 13 31  1  0  0  0  0
 14 15  1  0  0  0  0
 15 16  2  0  0  0  0
 15 17  1  0  0  0  0
 17 18  1  0  0  0  0
 18 20  2  0  0  0  0
 19 18  1  1  0  0  0
 19 22  1  0  0  0  0
 19 30  1  0  0  0  0
 21 23  1  6  0  0  0
 21 29  1  0  0  0  0
 21 22  1  0  0  0  0
 23 24  1  0  0  0  0
 24 25  1  1  0  0  0
 24 26  1  0  0  0  0
 26 27  1  1  0  0  0
 26 28  1  0  0  0  0
 29 28  1  1  0  0  0
 29 31  1  0  0  0  0
 30 14  1  1  0  0  0
 30 31  1  0  0  0  0
M  CHG  1   3  -1
M  END
>  <CHROM.1>
-77.50015431,-19.31248931,65.63796495,66.82954743,167.45988913,-169.74825858
-89.24519449,27.39465152,37.71243208,20.03192740,1.99816500,1.45615943,-0.87279378

>  <Name>
ligand

>  <RI>
0

>  <Rbt.Current_Directory>
/home/itssahil/PROJECTS/Mol_Feturizer/New_Systems/rnas/3F2T

>  <Rbt.Executable>
rbdock ($Id: //depot/dev/client3/rdock/2013.1/src/exe/rbdock.cxx#4 $)

>  <Rbt.Library>
libRbt.so (2013.1, Build901 2013/11/27)

>  <Rbt.Parameter_File>
/export/apps/rDock/src/rDock_2013.1_src/data/scripts/dock_solv.prm

>  <Rbt.Receptor>
prm/pocket_docking_2.prm

>  <SCORE>
-29.5601

>  <SCORE.INTER>
-31.1039

>  <SCORE.INTER.CONST>
1

>  <SCORE.INTER.POLAR>
0

>  <SCORE.INTER.ROT>
7

>  <SCORE.INTER.SOLV>
18.8351

>  <SCORE.INTER.VDW>
-35.281

>  <SCORE.INTER.norm>
-1.00335

>  <SCORE.INTRA>
1.44146

>  <SCORE.INTRA.DIHEDRAL>
0.851886

>  <SCORE.INTRA.DIHEDRAL.0>
4.64198

>  <SCORE.INTRA.POLAR>
0

>  <SCORE.INTRA.POLAR.0>
0

>  <SCORE.INTRA.REPUL>
0

>  <SCORE.INTRA.REPUL.0>
0

>  <SCORE.INTRA.SOLV>
1.61082

>  <SCORE.INTRA.SOLV.lig_0>
-49.3611

>  <SCORE.INTRA.VDW>
0.210105

>  <SCORE.INTRA.VDW.0>
-1.91858

>  <SCORE.INTRA.norm>
0.0464987

>  <SCORE.RESTR>
0.102388

>  <SCORE.RESTR.CAVITY>
0.102388

>  <SCORE.RESTR.norm>
0.00330284

>  <SCORE.SYSTEM>
0

>  <SCORE.SYSTEM.CONST>
0

>  <SCORE.SYSTEM.DIHEDRAL>
0

>  <SCORE.SYSTEM.SOLV>
0

>  <SCORE.SYSTEM.norm>
0

>  <SCORE.heavy>
31

>  <SCORE.norm>
-0.953551

>  <RMSD>
1.197

$$$$
ligand
 OpenBabel11021811473D
libRbt.so/2013.1/901 2013/11/27
 31 33  0  0  0  0  0  0  0  0999 V2000
   26.4628   42.5828   17.2078 P   0  0  1  0  0  0  0  0  0  0  0  0
   27.0107   41.8234   16.0261 O   0  0  0  0  0  0  0  0  0  0  0  0
   27.1049   43.9441   17.2460 O   0  5  0  0  0  0  0  0  0  0  0  0
   24.9736   42.6623   17.0133 O   0  0  0  0  0  0  0  0  0  0  0  0
   26.5605   40.4658   18.7503 C   0  0  0  0  0  0  0  0  0  0  0  0
   26.7566   41.8574   18.6099 O   0  0  0  0  0  0  0  0  0  0  0  0
   27.6418   39.7246   17.9683 C   0  0  1  0  0  0  0  0  0  0  0  0
   28.8472   39.7204   18.7071 O   0  0  0  0  0  0  0  0  0  0  0  0
   27.2104   38.2895   17.7174 C   0  0  1  0  0  0  0  0  0  0  0  0
   28.2333   37.6349   17.0156 O   0  0  0  0  0  0  0  0  0  0  0  0
   26.9321   37.5292   19.0032 C   0  0  1  0  0  0  0  0  0  0  0  0
   26.2461   36.3505   18.6774 O   0  0  0  0  0  0  0  0  0  0  0  0
   28.2270   37.1741   19.7149 C   0  0  0  0  0  0  0  0  0  0  0  0
   28.2701   34.3934   19.2840 N   0  0  0  0  0  0  0  0  0  0  0  0
   28.2458   33.0435   19.0086 C   0  0  0  0  0  0  0  0  0  0  0  0
   28.5370   32.6383   17.8871 O   0  0  0  0  0  0  0  0  0  0  0  0
   27.8937   32.1387   19.9840 N   0  0  0  0  0  0  0  0  0  0  0  0
   27.5719   32.5762   21.2540 C   0  0  0  0  0  0  0  0  0  0  0  0
   27.5929   33.9366   21.5410 C   0  0  1  0  0  0  0  0  0  0  0  0
   27.2755   31.7604   22.1293 O   0  0  0  0  0  0  0  0  0  0  0  0
   27.2941   35.7332   23.0909 C   0  0  2  0  0  0  0  0  0  0  0  0
   27.2707   34.3809   22.8077 N   0  0  0  0  0  0  0  0  0  0  0  0
   26.9680   36.1810   24.3716 C   0  0  0  0  0  0  0  0  0  0  0  0
   26.9834   37.5393   24.6658 C   0  0  1  0  0  0  0  0  0  0  0  0
   26.6246   37.9830   26.0487 C   0  0  0  0  0  0  0  0  0  0  0  0
   27.3337   38.4641   23.6704 C   0  0  1  0  0  0  0  0  0  0  0  0
   27.3714   39.9415   23.9500 C   0  0  0  0  0  0  0  0  0  0  0  0
   27.6570   38.0143   22.3929 C   0  0  0  0  0  0  0  0  0  0  0  0
   27.6378   36.6505   22.0951 C   0  0  1  0  0  0  0  0  0  0  0  0
   27.9411   34.8471   20.5454 C   0  0  1  0  0  0  0  0  0  0  0  0
   27.9572   36.2007   20.8227 N   0  0  0  0  0  0  0  0  0  0  0  0
  1  2  1  6  0  0  0
  1  3  1  0  0  0  0
  1  4  2  0  0  0  0
  1  6  1  0  0  0  0
  5  6  1  0  0  0  0
  7  5  1  1  0  0  0
  7  8  1  0  0  0  0
  7  9  1  0  0  0  0
  9 10  1  1  0  0  0
  9 11  1  0  0  0  0
 11 12  1  6  0  0  0
 11 13  1  0  0  0  0
 13 31  1  0  0  0  0
 14 15  1  0  0  0  0
 15 16  2  0  0  0  0
 15 17  1  0  0  0  0
 17 18  1  0  0  0  0
 18 20  2  0  0  0  0
 19 18  1  1  0  0  0
 19 22  1  0  0  0  0
 19 30  1  0  0  0  0
 21 23  1  6  0  0  0
 21 29  1  0  0  0  0
 21 22  1  0  0  0  0
 23 24  1  0  0  0  0
 24 25  1  1  0  0  0
 24 26  1  0  0  0  0
 26 27  1  1  0  0  0
 26 28  1  0  0  0  0
 29 28  1  1  0  0  0
 29 31  1  0  0  0  0
 30 14  1  1  0  0  0
 30 31  1  0  0  0  0
M  CHG  1   3  -1
M  END
>  <CHROM.1>
70.99937418,-44.56018477,78.66844971,-179.15610907,166.05387021,-168.77802982
-88.75050370,27.32699989,37.62370181,20.04157592,-2.26112807,-1.41496863
1.96917298

>  <Name>
ligand

>  <RI>
0

>  <Rbt.Current_Directory>
/home/itssahil/PROJECTS/Mol_Feturizer/New_Systems/rnas/3F2T

>  <Rbt.Executable>
rbdock ($Id: //depot/dev/client3/rdock/2013.1/src/exe/rbdock.cxx#4 $)

>  <Rbt.Library>
libRbt.so (2013.1, Build901 2013/11/27)

>  <Rbt.Parameter_File>
/export/apps/rDock/src/rDock_2013.1_src/data/scripts/dock_solv.prm

>  <Rbt.Receptor>
prm/pocket_docking_3.prm

>  <SCORE>
-30.9531

>  <SCORE.INTER>
-32.0228

>  <SCORE.INTER.CONST>
1

>  <SCORE.INTER.POLAR>
0

>  <SCORE.INTER.ROT>
7

>  <SCORE.INTER.SOLV>
17.3485

>  <SCORE.INTER.VDW>
-35.3981

>  <SCORE.INTER.norm>
-1.033

>  <SCORE.INTRA>
1.06973

>  <SCORE.INTRA.DIHEDRAL>
-0.351538

>  <SCORE.INTRA.DIHEDRAL.0>
4.64198

>  <SCORE.INTRA.POLAR>
0

>  <SCORE.INTRA.POLAR.0>
0

>  <SCORE.INTRA.REPUL>
0

>  <SCORE.INTRA.REPUL.0>
0

>  <SCORE.INTRA.SOLV>
0.452922

>  <SCORE.INTRA.SOLV.lig_0>
-49.3611

>  <SCORE.INTRA.VDW>
1.01904

>  <SCORE.INTRA.VDW.0>
-1.91858

>  <SCORE.INTRA.norm>
0.0345074

>  <SCORE.RESTR>
0

>  <SCORE.RESTR.CAVITY>
0

>  <SCORE.RESTR.norm>
0

>  <SCORE.SYSTEM>
0

>  <SCORE.SYSTEM.CONST>
0

>  <SCORE.SYSTEM.DIHEDRAL>
0

>  <SCORE.SYSTEM.SOLV>
0

>  <SCORE.SYSTEM.norm>
0

>  <SCORE.heavy>
31

>  <SCORE.norm>
-0.998488

>  <RMSD>
1.197

$$$$
ligand
 OpenBabel11021811473D
libRbt.so/2013.1/901 2013/11/27
 31 33  0  0  0  0  0  0  0  0999 V2000
   28.0181   42.6529   16.4663 P   0  0  1  0  0  0  0  0  0  0  0  0
   28.2466   44.1266   16.6879 O   0  0  0  0  0  0  0  0  0  0  0  0
   26.6870   42.4679   15.7875 O   0  5  0  0  0  0  0  0  0  0  0  0
   29.1607   42.1645   15.6190 O   0  0  0  0  0  0  0  0  0  0  0  0
   27.5774   40.4612   17.8348 C   0  0  0  0  0  0  0  0  0  0  0  0
   27.9986   41.8093   17.8325 O   0  0  0  0  0  0  0  0  0  0  0  0
   27.6426   39.9170   19.2595 C   0  0  1  0  0  0  0  0  0  0  0  0
   27.1116   40.8695   20.1592 O   0  0  0  0  0  0  0  0  0  0  0  0
   26.8348   38.6343   19.3634 C   0  0  1  0  0  0  0  0  0  0  0  0
   25.6430   38.8008   18.6430 O   0  0  0  0  0  0  0  0  0  0  0  0
   27.5779   37.4289   18.8125 C   0  0  1  0  0  0  0  0  0  0  0  0
   28.0759   37.7611   17.5445 O   0  0  0  0  0  0  0  0  0  0  0  0
   28.7350   37.0437   19.7192 C   0  0  0  0  0  0  0  0  0  0  0  0
   28.5584   34.2698   19.2780 N   0  0  0  0  0  0  0  0  0  0  0  0
   28.4345   32.9273   18.9934 C   0  0  0  0  0  0  0  0  0  0  0  0
   28.7987   32.4923   17.9048 O   0  0  0  0  0  0  0  0  0  0  0  0
   27.9009   32.0635   19.9224 N   0  0  0  0  0  0  0  0  0  0  0  0
   27.4945   32.5341   21.1558 C   0  0  0  0  0  0  0  0  0  0  0  0
   27.6149   33.8874   21.4517 C   0  0  1  0  0  0  0  0  0  0  0  0
   27.0346   31.7532   21.9915 O   0  0  0  0  0  0  0  0  0  0  0  0
   27.3313   35.7098   22.9741 C   0  0  2  0  0  0  0  0  0  0  0  0
   27.2089   34.3648   22.6817 N   0  0  0  0  0  0  0  0  0  0  0  0
   26.9205   36.1911   24.2177 C   0  0  0  0  0  0  0  0  0  0  0  0
   27.0343   37.5429   24.5202 C   0  0  1  0  0  0  0  0  0  0  0  0
   26.5803   38.0236   25.8621 C   0  0  0  0  0  0  0  0  0  0  0  0
   27.5701   38.4267   23.5711 C   0  0  1  0  0  0  0  0  0  0  0  0
   27.7188   39.8949   23.8621 C   0  0  0  0  0  0  0  0  0  0  0  0
   27.9776   37.9437   22.3305 C   0  0  0  0  0  0  0  0  0  0  0  0
   27.8598   36.5868   22.0239 C   0  0  1  0  0  0  0  0  0  0  0  0
   28.1472   34.7572   20.5021 C   0  0  1  0  0  0  0  0  0  0  0  0
   28.2630   36.1042   20.7879 N   0  0  0  0  0  0  0  0  0  0  0  0
  1  2  1  1  0  0  0
  1  3  1  0  0  0  0
  1  4  2  0  0  0  0
  1  6  1  0  0  0  0
  5  6  1  0  0  0  0
  7  5  1  6  0  0  0
  7  8  1  0  0  0  0
  7  9  1  0  0  0  0
  9 10  1  6  0  0  0
  9 11  1  0  0  0  0
 11 12  1  6  0  0  0
 11 13  1  0  0  0  0
 13 31  1  0  0  0  0
 14 15  1  0  0  0  0
 15 16  2  0  0  0  0
 15 17  1  0  0  0  0
 17 18  1  0  0  0  0
 18 20  2  0  0  0  0
 19 18  1  1  0  0  0
 19 22  1  0  0  0  0
 19 30  1  0  0  0  0
 21 23  1  6  0  0  0
 21 29  1  0  0  0  0
 21 22  1  0  0  0  0
 23 24  1  0  0  0  0
 24 25  1  1  0  0  0
 24 26  1  0  0  0  0
 26 27  1  1  0  0  0
 26 28  1  0  0  0  0
 29 28  1  1  0  0  0
 29 31  1  0  0  0  0
 30 14  1  1  0  0  0
 30 31  1  0  0  0  0
M  CHG  1   3  -1
M  END
>  <CHROM.1>
-179.27727696,169.37350676,43.83235113,-41.62770159,-49.30971471,87.49171346
-93.32784260,27.68273347,37.75179280,19.96050239,-1.43578298,-1.41193378
2.74599631

>  <Name>
ligand

>  <RI>
0

>  <Rbt.Current_Directory>
/home/itssahil/PROJECTS/Mol_Feturizer/New_Systems/rnas/3F2T

>  <Rbt.Executable>
rbdock ($Id: //depot/dev/client3/rdock/2013.1/src/exe/rbdock.cxx#4 $)

>  <Rbt.Library>
libRbt.so (2013.1, Build901 2013/11/27)

>  <Rbt.Parameter_File>
/export/apps/rDock/src/rDock_2013.1_src/data/scripts/dock_solv.prm

>  <Rbt.Receptor>
prm/pocket_docking_4.prm

>  <SCORE>
-28.0581

>  <SCORE.INTER>
-30.0717

>  <SCORE.INTER.CONST>
1

>  <SCORE.INTER.POLAR>
0

>  <SCORE.INTER.ROT>
7

>  <SCORE.INTER.SOLV>
22.7655

>  <SCORE.INTER.VDW>
-35.903

>  <SCORE.INTER.norm>
-0.970056

>  <SCORE.INTRA>
2.01367

>  <SCORE.INTRA.DIHEDRAL>
1.39212

>  <SCORE.INTRA.DIHEDRAL.0>
4.64198

>  <SCORE.INTRA.POLAR>
0

>  <SCORE.INTRA.POLAR.0>
0

>  <SCORE.INTRA.REPUL>
0

>  <SCORE.INTRA.REPUL.0>
0

>  <SCORE.INTRA.SOLV>
0.0367666

>  <SCORE.INTRA.SOLV.lig_0>
-49.3611

>  <SCORE.INTRA.VDW>
1.29922

>  <SCORE.INTRA.VDW.0>
-1.91858

>  <SCORE.INTRA.norm>
0.0649569

>  <SCORE.RESTR>
0

>  <SCORE.RESTR.CAVITY>
0

>  <SCORE.RESTR.norm>
0

>  <SCORE.SYSTEM>
0

>  <SCORE.SYSTEM.CONST>
0

>  <SCORE.SYSTEM.DIHEDRAL>
0

>  <SCORE.SYSTEM.SOLV>
0

>  <SCORE.SYSTEM.norm>
0

>  <SCORE.heavy>
31

>  <SCORE.norm>
-0.905099

>  <RMSD>
1.197

$$$$
ligand
 OpenBabel11021811473D
libRbt.so/2013.1/901 2013/11/27
 31 33  0  0  0  0  0  0  0  0999 V2000
   26.0720   43.6421   16.6148 P   0  0  1  0  0  0  0  0  0  0  0  0
   26.8463   44.9359   16.6134 O   0  0  0  0  0  0  0  0  0  0  0  0
   24.6130   43.9535   16.8184 O   0  5  0  0  0  0  0  0  0  0  0  0
   26.3328   42.9850   15.2874 O   0  0  0  0  0  0  0  0  0  0  0  0
   27.8748   42.2116   17.8694 C   0  0  0  0  0  0  0  0  0  0  0  0
   26.5313   42.6381   17.7807 O   0  0  0  0  0  0  0  0  0  0  0  0
   27.9935   41.1484   18.9584 C   0  0  1  0  0  0  0  0  0  0  0  0
   27.3179   41.5802   20.1228 O   0  0  0  0  0  0  0  0  0  0  0  0
   27.3747   39.8451   18.4820 C   0  0  1  0  0  0  0  0  0  0  0  0
   28.2788   39.2158   17.6137 O   0  0  0  0  0  0  0  0  0  0  0  0
   27.0519   38.8985   19.6259 C   0  0  1  0  0  0  0  0  0  0  0  0
   26.5158   37.7213   19.0847 O   0  0  0  0  0  0  0  0  0  0  0  0
   28.3029   38.5599   20.4196 C   0  0  0  0  0  0  0  0  0  0  0  0
   28.3120   35.8526   19.6513 N   0  0  0  0  0  0  0  0  0  0  0  0
   28.2716   34.5470   19.2124 C   0  0  0  0  0  0  0  0  0  0  0  0
   28.5654   34.2781   18.0513 O   0  0  0  0  0  0  0  0  0  0  0  0
   27.9004   33.5346   20.0677 N   0  0  0  0  0  0  0  0  0  0  0  0
   27.5754   33.8178   21.3799 C   0  0  0  0  0  0  0  0  0  0  0  0
   27.6126   35.1324   21.8316 C   0  0  1  0  0  0  0  0  0  0  0  0
   27.2618   32.9052   22.1470 O   0  0  0  0  0  0  0  0  0  0  0  0
   27.3266   36.7297   23.5883 C   0  0  2  0  0  0  0  0  0  0  0  0
   27.2872   35.4227   23.1414 N   0  0  0  0  0  0  0  0  0  0  0  0
   26.9974   37.0218   24.9124 C   0  0  0  0  0  0  0  0  0  0  0  0
   27.0288   38.3336   25.3709 C   0  0  1  0  0  0  0  0  0  0  0  0
   26.6661   38.6095   26.7958 C   0  0  0  0  0  0  0  0  0  0  0  0
   27.3986   39.3682   24.4983 C   0  0  1  0  0  0  0  0  0  0  0  0
   27.4540   40.7995   24.9571 C   0  0  0  0  0  0  0  0  0  0  0  0
   27.7250   39.0737   23.1772 C   0  0  0  0  0  0  0  0  0  0  0  0
   27.6897   37.7571   22.7143 C   0  0  1  0  0  0  0  0  0  0  0  0
   27.9800   36.1530   20.9569 C   0  0  1  0  0  0  0  0  0  0  0  0
   28.0122   37.4620   21.3982 N   0  0  0  0  0  0  0  0  0  0  0  0
  1  2  1  1  0  0  0
  1  3  1  0  0  0  0
  1  4  2  0  0  0  0
  1  6  1  0  0  0  0
  5  6  1  0  0  0  0
  7  5  1  6  0  0  0
  7  8  1  0  0  0  0
  7  9  1  0  0  0  0
  9 10  1  6  0  0  0
  9 11  1  0  0  0  0
 11 12  1  6  0  0  0
 11 13  1  0  0  0  0
 13 31  1  0  0  0  0
 14 15  1  0  0  0  0
 15 16  2  0  0  0  0
 15 17  1  0  0  0  0
 17 18  1  0  0  0  0
 18 20  2  0  0  0  0
 19 18  1  1  0  0  0
 19 22  1  0  0  0  0
 19 30  1  0  0  0  0
 21 23  1  6  0  0  0
 21 29  1  0  0  0  0
 21 22  1  0  0  0  0
 23 24  1  0  0  0  0
 24 25  1  1  0  0  0
 24 26  1  0  0  0  0
 26 27  1  1  0  0  0
 26 28  1  0  0  0  0
 29 28  1  1  0  0  0
 29 31  1  0  0  0  0
 30 14  1  1  0  0  0
 30 31  1  0  0  0  0
M  CHG  1   3  -1
M  END
>  <CHROM.1>
-173.52638028,-57.45476544,-46.99818978,77.87207409,-178.73379202,-170.88801344
-95.78886144,27.28290835,38.84738489,20.30700582,2.35833357,1.40480413,-1.42805416

>  <Name>
ligand

>  <RI>
0

>  <Rbt.Current_Directory>
/home/itssahil/PROJECTS/Mol_Feturizer/New_Systems/rnas/3F2T

>  <Rbt.Executable>
rbdock ($Id: //depot/dev/client3/rdock/2013.1/src/exe/rbdock.cxx#4 $)

>  <Rbt.Library>
libRbt.so (2013.1, Build901 2013/11/27)

>  <Rbt.Parameter_File>
/export/apps/rDock/src/rDock_2013.1_src/data/scripts/dock_solv.prm

>  <Rbt.Receptor>
prm/pocket_docking_7.prm

>  <SCORE>
-29.2209

>  <SCORE.INTER>
-29.0708

>  <SCORE.INTER.CONST>
1

>  <SCORE.INTER.POLAR>
0

>  <SCORE.INTER.ROT>
7

>  <SCORE.INTER.SOLV>
16.819

>  <SCORE.INTER.VDW>
-33.2535

>  <SCORE.INTER.norm>
-0.937766

>  <SCORE.INTRA>
-0.150154

>  <SCORE.INTRA.DIHEDRAL>
-1.36454

>  <SCORE.INTRA.DIHEDRAL.0>
4.64198

>  <SCORE.INTRA.POLAR>
0

>  <SCORE.INTRA.POLAR.0>
0

>  <SCORE.INTRA.REPUL>
0

>  <SCORE.INTRA.REPUL.0>
0

>  <SCORE.INTRA.SOLV>
-0.236395

>  <SCORE.INTRA.SOLV.lig_0>
-49.3611

>  <SCORE.INTRA.VDW>
0.650316

>  <SCORE.INTRA.VDW.0>
-1.91858

>  <SCORE.INTRA.norm>
-0.00484368

>  <SCORE.RESTR>
0

>  <SCORE.RESTR.CAVITY>
0

>  <SCORE.RESTR.norm>
0

>  <SCORE.SYSTEM>
0

>  <SCORE.SYSTEM.CONST>
0

>  <SCORE.SYSTEM.DIHEDRAL>
0

>  <SCORE.SYSTEM.SOLV>
0

>  <SCORE.SYSTEM.norm>
0

>  <SCORE.heavy>
31

>  <SCORE.norm>
-0.94261

>  <RMSD>
1.207

$$$$
ligand
 OpenBabel11021811473D
libRbt.so/2013.1/901 2013/11/27
 31 33  0  0  0  0  0  0  0  0999 V2000
   26.4610   42.5629   17.1259 P   0  0  1  0  0  0  0  0  0  0  0  0
   26.9068   41.9216   15.8362 O   0  0  0  0  0  0  0  0  0  0  0  0
   27.0282   43.9560   17.1930 O   0  5  0  0  0  0  0  0  0  0  0  0
   24.9572   42.5620   17.1078 O   0  0  0  0  0  0  0  0  0  0  0  0
   26.6749   40.3871   18.5718 C   0  0  0  0  0  0  0  0  0  0  0  0
   26.9565   41.7635   18.4274 O   0  0  0  0  0  0  0  0  0  0  0  0
   27.5538   39.5909   17.6107 C   0  0  1  0  0  0  0  0  0  0  0  0
   28.8805   39.5524   18.0977 O   0  0  0  0  0  0  0  0  0  0  0  0
   27.0316   38.1696   17.4849 C   0  0  1  0  0  0  0  0  0  0  0  0
   27.9595   37.4195   16.7475 O   0  0  0  0  0  0  0  0  0  0  0  0
   26.8211   37.5024   18.8337 C   0  0  1  0  0  0  0  0  0  0  0  0
   26.1001   36.3172   18.6304 O   0  0  0  0  0  0  0  0  0  0  0  0
   28.1517   37.1723   19.4895 C   0  0  0  0  0  0  0  0  0  0  0  0
   28.2391   34.3904   19.0733 N   0  0  0  0  0  0  0  0  0  0  0  0
   28.2337   33.0384   18.8069 C   0  0  0  0  0  0  0  0  0  0  0  0
   28.4897   32.6322   17.6771 O   0  0  0  0  0  0  0  0  0  0  0  0
   27.9400   32.1327   19.8006 N   0  0  0  0  0  0  0  0  0  0  0  0
   27.6586   32.5716   21.0797 C   0  0  0  0  0  0  0  0  0  0  0  0
   27.6609   33.9339   21.3577 C   0  0  1  0  0  0  0  0  0  0  0  0
   27.4146   31.7553   21.9707 O   0  0  0  0  0  0  0  0  0  0  0  0
   27.3835   35.7339   22.9078 C   0  0  2  0  0  0  0  0  0  0  0  0
   27.3787   34.3796   22.6335 N   0  0  0  0  0  0  0  0  0  0  0  0
   27.0979   36.1830   24.1976 C   0  0  0  0  0  0  0  0  0  0  0  0
   27.0949   37.5433   24.4831 C   0  0  1  0  0  0  0  0  0  0  0  0
   26.7808   37.9882   25.8764 C   0  0  0  0  0  0  0  0  0  0  0  0
   27.3856   38.4688   23.4694 C   0  0  1  0  0  0  0  0  0  0  0  0
   27.4018   39.9485   23.7388 C   0  0  0  0  0  0  0  0  0  0  0  0
   27.6685   38.0176   22.1829 C   0  0  0  0  0  0  0  0  0  0  0  0
   27.6677   36.6518   21.8939 C   0  0  1  0  0  0  0  0  0  0  0  0
   27.9498   34.8452   20.3439 C   0  0  1  0  0  0  0  0  0  0  0  0
   27.9470   36.2006   20.6126 N   0  0  0  0  0  0  0  0  0  0  0  0
  1  2  1  6  0  0  0
  1  3  1  0  0  0  0
  1  4  2  0  0  0  0
  1  6  1  0  0  0  0
  5  6  1  0  0  0  0
  7  5  1  1  0  0  0
  7  8  1  0  0  0  0
  7  9  1  0  0  0  0
  9 10  1  6  0  0  0
  9 11  1  0  0  0  0
 11 12  1  6  0  0  0
 11 13  1  0  0  0  0
 13 31  1  0  0  0  0
 14 15  1  0  0  0  0
 15 16  2  0  0  0  0
 15 17  1  0  0  0  0
 17 18  1  0  0  0  0
 18 20  2  0  0  0  0
 19 18  1  1  0  0  0
 19 22  1  0  0  0  0
 19 30  1  0  0  0  0
 21 23  1  6  0  0  0
 21 29  1  0  0  0  0
 21 22  1  0  0  0  0
 23 24  1  0  0  0  0
 24 25  1  1  0  0  0
 24 26  1  0  0  0  0
 26 27  1  1  0  0  0
 26 28  1  0  0  0  0
 29 28  1  1  0  0  0
 29 31  1  0  0  0  0
 30 14  1  1  0  0  0
 30 31  1  0  0  0  0
M  CHG  1   3  -1
M  END
>  <CHROM.1>
72.87807696,-54.06776581,74.57013983,-171.94769217,168.47931861,-164.63079286
-88.32779398,27.33191788,37.59353214,19.85482672,-2.38478935,-1.42245887
1.85085545

>  <Name>
ligand

>  <RI>
0

>  <Rbt.Current_Directory>
/home/itssahil/PROJECTS/Mol_Feturizer/New_Systems/rnas/3F2T

>  <Rbt.Executable>
rbdock ($Id: //depot/dev/client3/rdock/2013.1/src/exe/rbdock.cxx#4 $)

>  <Rbt.Library>
libRbt.so (2013.1, Build901 2013/11/27)

>  <Rbt.Parameter_File>
/export/apps/rDock/src/rDock_2013.1_src/data/scripts/dock_solv.prm

>  <Rbt.Receptor>
prm/pocket_docking_2.prm

>  <SCORE>
-30.3363

>  <SCORE.INTER>
-31.5396

>  <SCORE.INTER.CONST>
1

>  <SCORE.INTER.POLAR>
0

>  <SCORE.INTER.ROT>
7

>  <SCORE.INTER.SOLV>
17.123

>  <SCORE.INTER.VDW>
-35.0007

>  <SCORE.INTER.norm>
-1.01741

>  <SCORE.INTRA>
1.19443

>  <SCORE.INTRA.DIHEDRAL>
-0.482511

>  <SCORE.INTRA.DIHEDRAL.0>
4.64198

>  <SCORE.INTRA.POLAR>
0

>  <SCORE.INTRA.POLAR.0>
0

>  <SCORE.INTRA.REPUL>
0

>  <SCORE.INTRA.REPUL.0>
0

>  <SCORE.INTRA.SOLV>
0.515883

>  <SCORE.INTRA.SOLV.lig_0>
-49.3611

>  <SCORE.INTRA.VDW>
1.17774

>  <SCORE.INTRA.VDW.0>
-1.91858

>  <SCORE.INTRA.norm>
0.03853

>  <SCORE.RESTR>
0.00890152

>  <SCORE.RESTR.CAVITY>
0.00890152

>  <SCORE.RESTR.norm>
0.000287146

>  <SCORE.SYSTEM>
0

>  <SCORE.SYSTEM.CONST>
0

>  <SCORE.SYSTEM.DIHEDRAL>
0

>  <SCORE.SYSTEM.SOLV>
0

>  <SCORE.SYSTEM.norm>
0

>  <SCORE.heavy>
31

>  <SCORE.norm>
-0.97859

>  <RMSD>
1.211

$$$$
ligand
 OpenBabel11021811473D
libRbt.so/2013.1/901 2013/11/27
 31 33  0  0  0  0  0  0  0  0999 V2000
   25.7680   42.9778   17.1437 P   0  0  1  0  0  0  0  0  0  0  0  0
   26.0299   42.6308   15.7000 O   0  0  0  0  0  0  0  0  0  0  0  0
   26.9623   43.7168   17.6864 O   0  5  0  0  0  0  0  0  0  0  0  0
   24.5219   43.8198   17.1630 O   0  0  0  0  0  0  0  0  0  0  0  0
   26.6123   40.8765   18.4637 C   0  0  0  0  0  0  0  0  0  0  0  0
   25.5252   41.6852   18.0649 O   0  0  0  0  0  0  0  0  0  0  0  0
   26.9036   39.8517   17.3705 C   0  0  1  0  0  0  0  0  0  0  0  0
   27.3617   40.5117   16.2072 O   0  0  0  0  0  0  0  0  0  0  0  0
   27.9723   38.8794   17.8410 C   0  0  1  0  0  0  0  0  0  0  0  0
   29.1438   39.6029   18.1081 O   0  0  0  0  0  0  0  0  0  0  0  0
   27.5645   38.1239   19.0946 C   0  0  1  0  0  0  0  0  0  0  0  0
   26.5466   37.2221   18.7530 O   0  0  0  0  0  0  0  0  0  0  0  0
   28.7413   37.3548   19.6717 C   0  0  0  0  0  0  0  0  0  0  0  0
   28.6073   34.6048   19.0892 N   0  0  0  0  0  0  0  0  0  0  0  0
   28.5054   33.2769   18.7356 C   0  0  0  0  0  0  0  0  0  0  0  0
   28.8955   32.9012   17.6340 O   0  0  0  0  0  0  0  0  0  0  0  0
   27.9649   32.3616   19.6097 N   0  0  0  0  0  0  0  0  0  0  0  0
   27.5294   32.7651   20.8569 C   0  0  0  0  0  0  0  0  0  0  0  0
   27.6274   34.1031   21.2222 C   0  0  1  0  0  0  0  0  0  0  0  0
   27.0634   31.9381   21.6433 O   0  0  0  0  0  0  0  0  0  0  0  0
   27.2926   35.8436   22.8279 C   0  0  2  0  0  0  0  0  0  0  0  0
   27.1923   34.5136   22.4664 N   0  0  0  0  0  0  0  0  0  0  0  0
   26.8523   36.2572   24.0856 C   0  0  0  0  0  0  0  0  0  0  0  0
   26.9438   37.5934   24.4574 C   0  0  1  0  0  0  0  0  0  0  0  0
   26.4585   38.0010   25.8125 C   0  0  0  0  0  0  0  0  0  0  0  0
   27.4865   38.5296   23.5643 C   0  0  1  0  0  0  0  0  0  0  0  0
   27.6116   39.9830   23.9311 C   0  0  0  0  0  0  0  0  0  0  0  0
   27.9234   38.1141   22.3093 C   0  0  0  0  0  0  0  0  0  0  0  0
   27.8282   36.7730   21.9332 C   0  0  1  0  0  0  0  0  0  0  0  0
   28.1669   35.0255   20.3279 C   0  0  1  0  0  0  0  0  0  0  0  0
   28.2607   36.3576   20.6828 N   0  0  0  0  0  0  0  0  0  0  0  0
  1  2  1  6  0  0  0
  1  3  1  0  0  0  0
  1  4  2  0  0  0  0
  1  6  1  0  0  0  0
  5  6  1  0  0  0  0
  7  5  1  1  0  0  0
  7  8  1  0  0  0  0
  7  9  1  0  0  0  0
  9 10  1  1  0  0  0
  9 11  1  0  0  0  0
 11 12  1  6  0  0  0
 11 13  1  0  0  0  0
 13 31  1  0  0  0  0
 14 15  1  0  0  0  0
 15 16  2  0  0  0  0
 15 17  1  0  0  0  0
 17 18  1  0  0  0  0
 18 20  2  0  0  0  0
 19 18  1  1  0  0  0
 19 22  1  0  0  0  0
 19 30  1  0  0  0  0
 21 23  1  6  0  0  0
 21 29  1  0  0  0  0
 21 22  1  0  0  0  0
 23 24  1  0  0  0  0
 24 25  1  1  0  0  0
 24 26  1  0  0  0  0
 26 27  1  1  0  0  0
 26 28  1  0  0  0  0
 29 28  1  1  0  0  0
 29 31  1  0  0  0  0
 30 14  1  1  0  0  0
 30 31  1  0  0  0  0
M  CHG  1   3  -1
M  END
>  <CHROM.1>
-85.35474746,75.94067078,66.01248098,-61.04428891,70.31316654,-165.82022816
-73.76309868,27.25821148,37.96810642,19.82834919,2.38836913,1.34238708,-1.28292577

>  <Name>
ligand

>  <RI>
0

>  <Rbt.Current_Directory>
/home/itssahil/PROJECTS/Mol_Feturizer/New_Systems/rnas/3F2T

>  <Rbt.Executable>
rbdock ($Id: //depot/dev/client3/rdock/2013.1/src/exe/rbdock.cxx#4 $)

>  <Rbt.Library>
libRbt.so (2013.1, Build901 2013/11/27)

>  <Rbt.Parameter_File>
/export/apps/rDock/src/rDock_2013.1_src/data/scripts/dock_solv.prm

>  <Rbt.Receptor>
prm/pocket_docking_2.prm

>  <SCORE>
-27.8263

>  <SCORE.INTER>
-29.6457

>  <SCORE.INTER.CONST>
1

>  <SCORE.INTER.POLAR>
0

>  <SCORE.INTER.ROT>
7

>  <SCORE.INTER.SOLV>
17.854

>  <SCORE.INTER.VDW>
-33.9818

>  <SCORE.INTER.norm>
-0.956314

>  <SCORE.INTRA>
1.80805

>  <SCORE.INTRA.DIHEDRAL>
0.767981

>  <SCORE.INTRA.DIHEDRAL.0>
4.64198

>  <SCORE.INTRA.POLAR>
0

>  <SCORE.INTRA.POLAR.0>
0

>  <SCORE.INTRA.REPUL>
0

>  <SCORE.INTRA.REPUL.0>
0

>  <SCORE.INTRA.SOLV>
1.06952

>  <SCORE.INTRA.SOLV.lig_0>
-49.3611

>  <SCORE.INTRA.VDW>
0.889305

>  <SCORE.INTRA.VDW.0>
-1.91858

>  <SCORE.INTRA.norm>
0.0583243

>  <SCORE.RESTR>
0.0113634

>  <SCORE.RESTR.CAVITY>
0.0113634

>  <SCORE.RESTR.norm>
0.000366561

>  <SCORE.SYSTEM>
0

>  <SCORE.SYSTEM.CONST>
0

>  <SCORE.SYSTEM.DIHEDRAL>
0

>  <SCORE.SYSTEM.SOLV>
0

>  <SCORE.SYSTEM.norm>
0

>  <SCORE.heavy>
31

>  <SCORE.norm>
-0.897623

>  <RMSD>
1.212

$$$$
ligand
 OpenBabel11021811473D
libRbt.so/2013.1/901 2013/11/27
 31 33  0  0  0  0  0  0  0  0999 V2000
   26.8179   43.3549   16.8780 P   0  0  1  0  0  0  0  0  0  0  0  0
   26.6650   42.1851   15.9391 O   0  0  0  0  0  0  0  0  0  0  0  0
   28.1070   44.0643   16.5585 O   0  5  0  0  0  0  0  0  0  0  0  0
   25.6171   44.2352   16.6653 O   0  0  0  0  0  0  0  0  0  0  0  0
   27.8175   41.9783   18.8721 C   0  0  0  0  0  0  0  0  0  0  0  0
   26.8632   42.9174   18.4223 O   0  0  0  0  0  0  0  0  0  0  0  0
   27.1712   40.5969   18.9363 C   0  0  1  0  0  0  0  0  0  0  0  0
   26.5882   40.2841   17.6869 O   0  0  0  0  0  0  0  0  0  0  0  0
   28.2188   39.5480   19.2699 C   0  0  1  0  0  0  0  0  0  0  0  0
   28.9199   39.9679   20.4098 O   0  0  0  0  0  0  0  0  0  0  0  0
   27.6123   38.1815   19.5414 C   0  0  1  0  0  0  0  0  0  0  0  0
   26.8718   37.7973   18.4145 O   0  0  0  0  0  0  0  0  0  0  0  0
   28.6962   37.1491   19.8037 C   0  0  0  0  0  0  0  0  0  0  0  0
   28.5570   34.3868   19.2840 N   0  0  0  0  0  0  0  0  0  0  0  0
   28.4512   33.0512   18.9616 C   0  0  0  0  0  0  0  0  0  0  0  0
   28.8198   32.6524   17.8607 O   0  0  0  0  0  0  0  0  0  0  0  0
   27.9308   32.1542   19.8663 N   0  0  0  0  0  0  0  0  0  0  0  0
   27.5196   32.5840   21.1129 C   0  0  0  0  0  0  0  0  0  0  0  0
   27.6219   33.9298   21.4469 C   0  0  1  0  0  0  0  0  0  0  0  0
   27.0717   31.7735   21.9265 O   0  0  0  0  0  0  0  0  0  0  0  0
   27.3153   35.7043   23.0208 C   0  0  2  0  0  0  0  0  0  0  0  0
   27.2111   34.3666   22.6904 N   0  0  0  0  0  0  0  0  0  0  0  0
   26.8997   36.1444   24.2779 C   0  0  0  0  0  0  0  0  0  0  0  0
   26.9954   37.4885   24.6185 C   0  0  1  0  0  0  0  0  0  0  0  0
   26.5366   37.9246   25.9740 C   0  0  0  0  0  0  0  0  0  0  0  0
   27.5176   38.4062   23.6945 C   0  0  1  0  0  0  0  0  0  0  0  0
   27.6466   39.8674   24.0269 C   0  0  0  0  0  0  0  0  0  0  0  0
   27.9300   37.9642   22.4402 C   0  0  0  0  0  0  0  0  0  0  0  0
   27.8305   36.6151   22.0954 C   0  0  1  0  0  0  0  0  0  0  0  0
   28.1408   34.8335   20.5219 C   0  0  1  0  0  0  0  0  0  0  0  0
   28.2386   36.1733   20.8458 N   0  0  0  0  0  0  0  0  0  0  0  0
  1  2  1  6  0  0  0
  1  3  1  0  0  0  0
  1  4  2  0  0  0  0
  1  6  1  0  0  0  0
  5  6  1  0  0  0  0
  7  5  1  6  0  0  0
  7  8  1  0  0  0  0
  7  9  1  0  0  0  0
  9 10  1  1  0  0  0
  9 11  1  0  0  0  0
 11 12  1  6  0  0  0
 11 13  1  0  0  0  0
 13 31  1  0  0  0  0
 14 15  1  0  0  0  0
 15 16  2  0  0  0  0
 15 17  1  0  0  0  0
 17 18  1  0  0  0  0
 18 20  2  0  0  0  0
 19 18  1  1  0  0  0
 19 22  1  0  0  0  0
 19 30  1  0  0  0  0
 21 23  1  6  0  0  0
 21 29  1  0  0  0  0
 21 22  1  0  0  0  0
 23 24  1  0  0  0  0
 24 25  1  1  0  0  0
 24 26  1  0  0  0  0
 26 27  1  1  0  0  0
 26 28  1  0  0  0  0
 29 28  1  1  0  0  0
 29 31  1  0  0  0  0
 30 14  1  1  0  0  0
 30 31  1  0  0  0  0
M  CHG  1   3  -1
M  END
>  <CHROM.1>
-97.64828457,55.75057599,53.87028582,51.36049805,57.40726066,143.88507714
-56.50210548,27.51017242,38.05902620,20.11613072,-2.17650267,-1.44229042
2.08856975

>  <Name>
ligand

>  <RI>
0

>  <Rbt.Current_Directory>
/home/itssahil/PROJECTS/Mol_Feturizer/New_Systems/rnas/3F2T

>  <Rbt.Executable>
rbdock ($Id: //depot/dev/client3/rdock/2013.1/src/exe/rbdock.cxx#4 $)

>  <Rbt.Library>
libRbt.so (2013.1, Build901 2013/11/27)

>  <Rbt.Parameter_File>
/export/apps/rDock/src/rDock_2013.1_src/data/scripts/dock_solv.prm

>  <Rbt.Receptor>
prm/pocket_docking_4.prm

>  <SCORE>
-28.7539

>  <SCORE.INTER>
-32.3657

>  <SCORE.INTER.CONST>
1

>  <SCORE.INTER.POLAR>
0

>  <SCORE.INTER.ROT>
7

>  <SCORE.INTER.SOLV>
19.1818

>  <SCORE.INTER.VDW>
-36.2377

>  <SCORE.INTER.norm>
-1.04406

>  <SCORE.INTRA>
3.61181

>  <SCORE.INTRA.DIHEDRAL>
5.51348

>  <SCORE.INTRA.DIHEDRAL.0>
4.64198

>  <SCORE.INTRA.POLAR>
0

>  <SCORE.INTRA.POLAR.0>
0

>  <SCORE.INTRA.REPUL>
0

>  <SCORE.INTRA.REPUL.0>
0

>  <SCORE.INTRA.SOLV>
0.706357

>  <SCORE.INTRA.SOLV.lig_0>
-49.3611

>  <SCORE.INTRA.VDW>
0.501894

>  <SCORE.INTRA.VDW.0>
-1.91858

>  <SCORE.INTRA.norm>
0.11651

>  <SCORE.RESTR>
0

>  <SCORE.RESTR.CAVITY>
0

>  <SCORE.RESTR.norm>
0

>  <SCORE.SYSTEM>
0

>  <SCORE.SYSTEM.CONST>
0

>  <SCORE.SYSTEM.DIHEDRAL>
0

>  <SCORE.SYSTEM.SOLV>
0

>  <SCORE.SYSTEM.norm>
0

>  <SCORE.heavy>
31

>  <SCORE.norm>
-0.927545

>  <RMSD>
1.215

$$$$
ligand
 OpenBabel11021811473D
libRbt.so/2013.1/901 2013/11/27
 31 33  0  0  0  0  0  0  0  0999 V2000
   27.1605   43.1002   16.4751 P   0  0  1  0  0  0  0  0  0  0  0  0
   26.5243   42.9434   15.1172 O   0  0  0  0  0  0  0  0  0  0  0  0
   28.6560   43.1408   16.3052 O   0  5  0  0  0  0  0  0  0  0  0  0
   26.6199   44.3774   17.0570 O   0  0  0  0  0  0  0  0  0  0  0  0
   27.0627   42.0153   18.8592 C   0  0  0  0  0  0  0  0  0  0  0  0
   26.8086   41.8943   17.4752 O   0  0  0  0  0  0  0  0  0  0  0  0
   26.6491   40.7243   19.5608 C   0  0  1  0  0  0  0  0  0  0  0  0
   25.3572   40.3413   19.1330 O   0  0  0  0  0  0  0  0  0  0  0  0
   27.6305   39.6135   19.2263 C   0  0  1  0  0  0  0  0  0  0  0  0
   28.8457   39.8859   19.8715 O   0  0  0  0  0  0  0  0  0  0  0  0
   27.1368   38.2452   19.6651 C   0  0  1  0  0  0  0  0  0  0  0  0
   26.2511   37.7638   18.6905 O   0  0  0  0  0  0  0  0  0  0  0  0
   28.2947   37.2722   19.8132 C   0  0  0  0  0  0  0  0  0  0  0  0
   28.3172   34.5017   19.3193 N   0  0  0  0  0  0  0  0  0  0  0  0
   28.2839   33.1587   19.0127 C   0  0  0  0  0  0  0  0  0  0  0  0
   28.5890   32.7763   17.8869 O   0  0  0  0  0  0  0  0  0  0  0  0
   27.9073   32.2357   19.9615 N   0  0  0  0  0  0  0  0  0  0  0  0
   27.5697   32.6474   21.2360 C   0  0  0  0  0  0  0  0  0  0  0  0
   27.5997   34.0006   21.5543 C   0  0  1  0  0  0  0  0  0  0  0  0
   27.2513   31.8149   22.0876 O   0  0  0  0  0  0  0  0  0  0  0  0
   27.2939   35.7644   23.1402 C   0  0  2  0  0  0  0  0  0  0  0  0
   27.2616   34.4192   22.8257 N   0  0  0  0  0  0  0  0  0  0  0  0
   26.9519   36.1862   24.4255 C   0  0  0  0  0  0  0  0  0  0  0  0
   26.9761   37.5373   24.7510 C   0  0  1  0  0  0  0  0  0  0  0  0
   26.5997   37.9530   26.1379 C   0  0  0  0  0  0  0  0  0  0  0  0
   27.3513   38.4808   23.7827 C   0  0  1  0  0  0  0  0  0  0  0  0
   27.3992   39.9510   24.0967 C   0  0  0  0  0  0  0  0  0  0  0  0
   27.6905   38.0569   22.5005 C   0  0  0  0  0  0  0  0  0  0  0  0
   27.6626   36.7005   22.1712 C   0  0  1  0  0  0  0  0  0  0  0  0
   27.9726   34.9299   20.5855 C   0  0  1  0  0  0  0  0  0  0  0  0
   27.9977   36.2766   20.8940 N   0  0  0  0  0  0  0  0  0  0  0  0
  1  2  1  6  0  0  0
  1  3  1  0  0  0  0
  1  4  2  0  0  0  0
  1  6  1  0  0  0  0
  5  6  1  0  0  0  0
  7  5  1  6  0  0  0
  7  8  1  0  0  0  0
  7  9  1  0  0  0  0
  9 10  1  1  0  0  0
  9 11  1  0  0  0  0
 11 12  1  6  0  0  0
 11 13  1  0  0  0  0
 13 31  1  0  0  0  0
 14 15  1  0  0  0  0
 15 16  2  0  0  0  0
 15 17  1  0  0  0  0
 17 18  1  0  0  0  0
 18 20  2  0  0  0  0
 19 18  1  1  0  0  0
 19 22  1  0  0  0  0
 19 30  1  0  0  0  0
 21 23  1  6  0  0  0
 21 29  1  0  0  0  0
 21 22  1  0  0  0  0
 23 24  1  0  0  0  0
 24 25  1  1  0  0  0
 24 26  1  0  0  0  0
 26 27  1  1  0  0  0
 26 28  1  0  0  0  0
 29 28  1  1  0  0  0
 29 31  1  0  0  0  0
 30 14  1  1  0  0  0
 30 31  1  0  0  0  0
M  CHG  1   3  -1
M  END
>  <CHROM.1>
-179.35984541,-165.82986783,-47.95285027,70.62044379,81.82147975,148.49356966
-54.83923744,27.38580241,38.05500099,20.14301003,-1.97186159,-1.42973936
2.23328781

>  <Name>
ligand

>  <RI>
0

>  <Rbt.Current_Directory>
/home/itssahil/PROJECTS/Mol_Feturizer/New_Systems/rnas/3F2T

>  <Rbt.Executable>
rbdock ($Id: //depot/dev/client3/rdock/2013.1/src/exe/rbdock.cxx#4 $)

>  <Rbt.Library>
libRbt.so (2013.1, Build901 2013/11/27)

>  <Rbt.Parameter_File>
/export/apps/rDock/src/rDock_2013.1_src/data/scripts/dock_solv.prm

>  <Rbt.Receptor>
prm/pocket_docking_4.prm

>  <SCORE>
-30.2807

>  <SCORE.INTER>
-32.4478

>  <SCORE.INTER.CONST>
1

>  <SCORE.INTER.POLAR>
0

>  <SCORE.INTER.ROT>
7

>  <SCORE.INTER.SOLV>
21.0903

>  <SCORE.INTER.VDW>
-36.9286

>  <SCORE.INTER.norm>
-1.0467

>  <SCORE.INTRA>
2.16706

>  <SCORE.INTRA.DIHEDRAL>
2.19941

>  <SCORE.INTRA.DIHEDRAL.0>
4.64198

>  <SCORE.INTRA.POLAR>
0

>  <SCORE.INTRA.POLAR.0>
0

>  <SCORE.INTRA.REPUL>
0

>  <SCORE.INTRA.REPUL.0>
0

>  <SCORE.INTRA.SOLV>
0.0855664

>  <SCORE.INTRA.SOLV.lig_0>
-49.3611

>  <SCORE.INTRA.VDW>
1.02458

>  <SCORE.INTRA.VDW.0>
-1.91858

>  <SCORE.INTRA.norm>
0.0699052

>  <SCORE.RESTR>
0

>  <SCORE.RESTR.CAVITY>
0

>  <SCORE.RESTR.norm>
0

>  <SCORE.SYSTEM>
0

>  <SCORE.SYSTEM.CONST>
0

>  <SCORE.SYSTEM.DIHEDRAL>
0

>  <SCORE.SYSTEM.SOLV>
0

>  <SCORE.SYSTEM.norm>
0

>  <SCORE.heavy>
31

>  <SCORE.norm>
-0.976798

>  <RMSD>
1.217

$$$$
ligand
 OpenBabel11021811473D
libRbt.so/2013.1/901 2013/11/27
 31 33  0  0  0  0  0  0  0  0999 V2000
   27.5261   42.5255   17.4099 P   0  0  1  0  0  0  0  0  0  0  0  0
   28.7209   43.4031   17.6847 O   0  0  0  0  0  0  0  0  0  0  0  0
   26.3516   43.4033   17.0678 O   0  5  0  0  0  0  0  0  0  0  0  0
   27.9108   41.6218   16.2710 O   0  0  0  0  0  0  0  0  0  0  0  0
   28.1012   40.9218   19.4019 C   0  0  0  0  0  0  0  0  0  0  0  0
   27.1144   41.6155   18.6672 O   0  0  0  0  0  0  0  0  0  0  0  0
   28.7781   39.8993   18.4929 C   0  0  1  0  0  0  0  0  0  0  0  0
   29.8905   39.3329   19.1567 O   0  0  0  0  0  0  0  0  0  0  0  0
   27.7995   38.7932   18.1354 C   0  0  1  0  0  0  0  0  0  0  0  0
   28.3846   37.9843   17.1502 O   0  0  0  0  0  0  0  0  0  0  0  0
   27.4343   37.9272   19.3294 C   0  0  1  0  0  0  0  0  0  0  0  0
   26.3241   37.1446   18.9817 O   0  0  0  0  0  0  0  0  0  0  0  0
   28.5886   37.0160   19.7123 C   0  0  0  0  0  0  0  0  0  0  0  0
   28.4692   34.2366   19.2872 N   0  0  0  0  0  0  0  0  0  0  0  0
   28.3714   32.8901   19.0114 C   0  0  0  0  0  0  0  0  0  0  0  0
   28.7219   32.4586   17.9169 O   0  0  0  0  0  0  0  0  0  0  0  0
   27.8794   32.0183   19.9558 N   0  0  0  0  0  0  0  0  0  0  0  0
   27.4890   32.4851   21.1958 C   0  0  0  0  0  0  0  0  0  0  0  0
   27.5833   33.8423   21.4830 C   0  0  1  0  0  0  0  0  0  0  0  0
   27.0666   31.6976   22.0448 O   0  0  0  0  0  0  0  0  0  0  0  0
   27.2895   35.6649   23.0033 C   0  0  2  0  0  0  0  0  0  0  0  0
   27.1931   34.3159   22.7196 N   0  0  0  0  0  0  0  0  0  0  0  0
   26.8947   36.1423   24.2535 C   0  0  0  0  0  0  0  0  0  0  0  0
   26.9826   37.4979   24.5475 C   0  0  1  0  0  0  0  0  0  0  0  0
   26.5468   37.9742   25.8970 C   0  0  0  0  0  0  0  0  0  0  0  0
   27.4758   38.3896   23.5830 C   0  0  1  0  0  0  0  0  0  0  0  0
   27.5956   39.8624   23.8641 C   0  0  0  0  0  0  0  0  0  0  0  0
   27.8675   37.9104   22.3357 C   0  0  0  0  0  0  0  0  0  0  0  0
   27.7757   36.5496   22.0378 C   0  0  1  0  0  0  0  0  0  0  0  0
   28.0734   34.7200   20.5181 C   0  0  1  0  0  0  0  0  0  0  0  0
   28.1631   36.0707   20.7953 N   0  0  0  0  0  0  0  0  0  0  0  0
  1  2  1  1  0  0  0
  1  3  1  0  0  0  0
  1  4  2  0  0  0  0
  1  6  1  0  0  0  0
  5  6  1  0  0  0  0
  7  5  1  1  0  0  0
  7  8  1  0  0  0  0
  7  9  1  0  0  0  0
  9 10  1  6  0  0  0
  9 11  1  0  0  0  0
 11 12  1  6  0  0  0
 11 13  1  0  0  0  0
 13 31  1  0  0  0  0
 14 15  1  0  0  0  0
 15 16  2  0  0  0  0
 15 17  1  0  0  0  0
 17 18  1  0  0  0  0
 18 20  2  0  0  0  0
 19 18  1  1  0  0  0
 19 22  1  0  0  0  0
 19 30  1  0  0  0  0
 21 23  1  6  0  0  0
 21 29  1  0  0  0  0
 21 22  1  0  0  0  0
 23 24  1  0  0  0  0
 24 25  1  1  0  0  0
 24 26  1  0  0  0  0
 26 27  1  1  0  0  0
 26 28  1  0  0  0  0
 29 28  1  1  0  0  0
 29 31  1  0  0  0  0
 30 14  1  1  0  0  0
 30 31  1  0  0  0  0
M  CHG  1   3  -1
M  END
>  <CHROM.1>
-63.20435861,-45.10269068,171.73715904,171.39533670,166.98422898,-174.06842321
-62.85366320,27.75115506,37.62831698,20.14061784,-1.47047760,-1.40513696
2.80434878

>  <Name>
ligand

>  <RI>
0

>  <Rbt.Current_Directory>
/home/itssahil/PROJECTS/Mol_Feturizer/New_Systems/rnas/3F2T

>  <Rbt.Executable>
rbdock ($Id: //depot/dev/client3/rdock/2013.1/src/exe/rbdock.cxx#4 $)

>  <Rbt.Library>
libRbt.so (2013.1, Build901 2013/11/27)

>  <Rbt.Parameter_File>
/export/apps/rDock/src/rDock_2013.1_src/data/scripts/dock_solv.prm

>  <Rbt.Receptor>
prm/pocket_docking_5.prm

>  <SCORE>
-30.91

>  <SCORE.INTER>
-32.1696

>  <SCORE.INTER.CONST>
1

>  <SCORE.INTER.POLAR>
0

>  <SCORE.INTER.ROT>
7

>  <SCORE.INTER.SOLV>
15.7959

>  <SCORE.INTER.VDW>
-34.9784

>  <SCORE.INTER.norm>
-1.03773

>  <SCORE.INTRA>
1.25964

>  <SCORE.INTRA.DIHEDRAL>
-1.86124

>  <SCORE.INTRA.DIHEDRAL.0>
4.64198

>  <SCORE.INTRA.POLAR>
0

>  <SCORE.INTRA.POLAR.0>
0

>  <SCORE.INTRA.REPUL>
0

>  <SCORE.INTRA.REPUL.0>
0

>  <SCORE.INTRA.SOLV>
1.90378

>  <SCORE.INTRA.SOLV.lig_0>
-49.3611

>  <SCORE.INTRA.VDW>
1.23837

>  <SCORE.INTRA.VDW.0>
-1.91858

>  <SCORE.INTRA.norm>
0.0406334

>  <SCORE.RESTR>
0

>  <SCORE.RESTR.CAVITY>
0

>  <SCORE.RESTR.norm>
0

>  <SCORE.SYSTEM>
0

>  <SCORE.SYSTEM.CONST>
0

>  <SCORE.SYSTEM.DIHEDRAL>
0

>  <SCORE.SYSTEM.SOLV>
0

>  <SCORE.SYSTEM.norm>
0

>  <SCORE.heavy>
31

>  <SCORE.norm>
-0.997095

>  <RMSD>
1.217

$$$$
ligand
 OpenBabel11021811473D
libRbt.so/2013.1/901 2013/11/27
 31 33  0  0  0  0  0  0  0  0999 V2000
   26.5307   42.8968   16.5360 P   0  0  1  0  0  0  0  0  0  0  0  0
   27.0041   43.7102   17.7140 O   0  0  0  0  0  0  0  0  0  0  0  0
   25.0690   43.1794   16.3111 O   0  5  0  0  0  0  0  0  0  0  0  0
   27.3763   43.3093   15.3626 O   0  0  0  0  0  0  0  0  0  0  0  0
   27.9785   40.7587   16.9862 C   0  0  0  0  0  0  0  0  0  0  0  0
   26.7009   41.3156   16.7573 O   0  0  0  0  0  0  0  0  0  0  0  0
   27.8236   39.2937   17.3864 C   0  0  1  0  0  0  0  0  0  0  0  0
   29.0852   38.6562   17.3619 O   0  0  0  0  0  0  0  0  0  0  0  0
   27.2471   39.1962   18.7889 C   0  0  1  0  0  0  0  0  0  0  0  0
   26.0241   39.8824   18.8147 O   0  0  0  0  0  0  0  0  0  0  0  0
   27.0143   37.7600   19.2268 C   0  0  1  0  0  0  0  0  0  0  0  0
   26.5595   37.0306   18.1191 O   0  0  0  0  0  0  0  0  0  0  0  0
   28.2995   37.1351   19.7439 C   0  0  0  0  0  0  0  0  0  0  0  0
   28.3274   34.3539   19.3150 N   0  0  0  0  0  0  0  0  0  0  0  0
   28.2972   33.0040   19.0397 C   0  0  0  0  0  0  0  0  0  0  0  0
   28.6107   32.5956   17.9254 O   0  0  0  0  0  0  0  0  0  0  0  0
   27.9143   32.1031   20.0070 N   0  0  0  0  0  0  0  0  0  0  0  0
   27.5671   32.5442   21.2690 C   0  0  0  0  0  0  0  0  0  0  0  0
   27.5938   33.9045   21.5559 C   0  0  1  0  0  0  0  0  0  0  0  0
   27.2430   31.7316   22.1375 O   0  0  0  0  0  0  0  0  0  0  0  0
   27.2753   35.7047   23.0978 C   0  0  2  0  0  0  0  0  0  0  0  0
   27.2462   34.3525   22.8146 N   0  0  0  0  0  0  0  0  0  0  0  0
   26.9237   36.1561   24.3703 C   0  0  0  0  0  0  0  0  0  0  0  0
   26.9445   37.5144   24.6643 C   0  0  1  0  0  0  0  0  0  0  0  0
   26.5578   37.9621   26.0384 C   0  0  0  0  0  0  0  0  0  0  0  0
   27.3263   38.4354   23.6770 C   0  0  1  0  0  0  0  0  0  0  0  0
   27.3709   39.9125   23.9569 C   0  0  0  0  0  0  0  0  0  0  0  0
   27.6750   37.9819   22.4076 C   0  0  0  0  0  0  0  0  0  0  0  0
   27.6504   36.6182   22.1099 C   0  0  1  0  0  0  0  0  0  0  0  0
   27.9733   34.8113   20.5683 C   0  0  1  0  0  0  0  0  0  0  0  0
   27.9952   36.1648   20.8455 N   0  0  0  0  0  0  0  0  0  0  0  0
  1  2  1  1  0  0  0
  1  3  1  0  0  0  0
  1  4  2  0  0  0  0
  1  6  1  0  0  0  0
  5  6  1  0  0  0  0
  7  5  1  1  0  0  0
  7  8  1  0  0  0  0
  7  9  1  0  0  0  0
  9 10  1  6  0  0  0
  9 11  1  0  0  0  0
 11 12  1  6  0  0  0
 11 13  1  0  0  0  0
 13 31  1  0  0  0  0
 14 15  1  0  0  0  0
 15 16  2  0  0  0  0
 15 17  1  0  0  0  0
 17 18  1  0  0  0  0
 18 20  2  0  0  0  0
 19 18  1  1  0  0  0
 19 22  1  0  0  0  0
 19 30  1  0  0  0  0
 21 23  1  6  0  0  0
 21 29  1  0  0  0  0
 21 22  1  0  0  0  0
 23 24  1  0  0  0  0
 24 25  1  1  0  0  0
 24 26  1  0  0  0  0
 26 27  1  1  0  0  0
 26 28  1  0  0  0  0
 29 28  1  1  0  0  0
 29 31  1  0  0  0  0
 30 14  1  1  0  0  0
 30 31  1  0  0  0  0
M  CHG  1   3  -1
M  END
>  <CHROM.1>
170.80186397,-60.10548817,168.53724867,57.08164508,-37.69134181,146.54856460
-74.95519222,27.34085351,37.76726254,19.86717117,-2.07327411,-1.39127934
2.08436334

>  <Name>
ligand

>  <RI>
0

>  <Rbt.Current_Directory>
/home/itssahil/PROJECTS/Mol_Feturizer/New_Systems/rnas/3F2T

>  <Rbt.Executable>
rbdock ($Id: //depot/dev/client3/rdock/2013.1/src/exe/rbdock.cxx#4 $)

>  <Rbt.Library>
libRbt.so (2013.1, Build901 2013/11/27)

>  <Rbt.Parameter_File>
/export/apps/rDock/src/rDock_2013.1_src/data/scripts/dock_solv.prm

>  <Rbt.Receptor>
prm/pocket_docking_5.prm

>  <SCORE>
-30.8951

>  <SCORE.INTER>
-32.534

>  <SCORE.INTER.CONST>
1

>  <SCORE.INTER.POLAR>
0

>  <SCORE.INTER.ROT>
7

>  <SCORE.INTER.SOLV>
20.9364

>  <SCORE.INTER.VDW>
-36.9348

>  <SCORE.INTER.norm>
-1.04948

>  <SCORE.INTRA>
1.63889

>  <SCORE.INTRA.DIHEDRAL>
2.10597

>  <SCORE.INTRA.DIHEDRAL.0>
4.64198

>  <SCORE.INTRA.POLAR>
0

>  <SCORE.INTRA.POLAR.0>
0

>  <SCORE.INTRA.REPUL>
0

>  <SCORE.INTRA.REPUL.0>
0

>  <SCORE.INTRA.SOLV>
0.132162

>  <SCORE.INTRA.SOLV.lig_0>
-49.3611

>  <SCORE.INTRA.VDW>
0.519821

>  <SCORE.INTRA.VDW.0>
-1.91858

>  <SCORE.INTRA.norm>
0.0528673

>  <SCORE.RESTR>
0

>  <SCORE.RESTR.CAVITY>
0

>  <SCORE.RESTR.norm>
0

>  <SCORE.SYSTEM>
0

>  <SCORE.SYSTEM.CONST>
0

>  <SCORE.SYSTEM.DIHEDRAL>
0

>  <SCORE.SYSTEM.SOLV>
0

>  <SCORE.SYSTEM.norm>
0

>  <SCORE.heavy>
31

>  <SCORE.norm>
-0.996618

>  <RMSD>
1.221

$$$$
ligand
 OpenBabel11021811473D
libRbt.so/2013.1/901 2013/11/27
 31 33  0  0  0  0  0  0  0  0999 V2000
   26.7120   42.9331   16.6288 P   0  0  1  0  0  0  0  0  0  0  0  0
   27.2460   43.6525   17.8414 O   0  0  0  0  0  0  0  0  0  0  0  0
   25.2526   43.2691   16.4725 O   0  5  0  0  0  0  0  0  0  0  0  0
   27.5313   43.4008   15.4575 O   0  0  0  0  0  0  0  0  0  0  0  0
   28.1080   40.7333   16.9161 C   0  0  0  0  0  0  0  0  0  0  0  0
   26.8433   41.3365   16.7388 O   0  0  0  0  0  0  0  0  0  0  0  0
   27.9162   39.2856   17.3606 C   0  0  1  0  0  0  0  0  0  0  0  0
   29.1642   38.6215   17.3755 O   0  0  0  0  0  0  0  0  0  0  0  0
   27.3178   39.2455   18.7567 C   0  0  1  0  0  0  0  0  0  0  0  0
   26.1084   39.9557   18.7417 O   0  0  0  0  0  0  0  0  0  0  0  0
   27.0502   37.8292   19.2377 C   0  0  1  0  0  0  0  0  0  0  0  0
   26.5589   37.0832   18.1570 O   0  0  0  0  0  0  0  0  0  0  0  0
   28.3242   37.1818   19.7546 C   0  0  0  0  0  0  0  0  0  0  0  0
   28.3314   34.4037   19.3053 N   0  0  0  0  0  0  0  0  0  0  0  0
   28.2919   33.0562   19.0197 C   0  0  0  0  0  0  0  0  0  0  0  0
   28.6118   32.6532   17.9052 O   0  0  0  0  0  0  0  0  0  0  0  0
   27.8924   32.1516   19.9767 N   0  0  0  0  0  0  0  0  0  0  0  0
   27.5377   32.5864   21.2389 C   0  0  0  0  0  0  0  0  0  0  0  0
   27.5738   33.9443   21.5361 C   0  0  1  0  0  0  0  0  0  0  0  0
   27.1987   31.7704   22.0983 O   0  0  0  0  0  0  0  0  0  0  0  0
   27.2574   35.7358   23.0885 C   0  0  2  0  0  0  0  0  0  0  0  0
   27.2189   34.3860   22.7949 N   0  0  0  0  0  0  0  0  0  0  0  0
   26.8982   36.1809   24.3612 C   0  0  0  0  0  0  0  0  0  0  0  0
   26.9284   37.5368   24.6655 C   0  0  1  0  0  0  0  0  0  0  0  0
   26.5332   37.9777   26.0393 C   0  0  0  0  0  0  0  0  0  0  0  0
   27.3271   38.4616   23.6885 C   0  0  1  0  0  0  0  0  0  0  0  0
   27.3822   39.9362   23.9798 C   0  0  0  0  0  0  0  0  0  0  0  0
   27.6833   38.0144   22.4189 C   0  0  0  0  0  0  0  0  0  0  0  0
   27.6494   36.6532   22.1108 C   0  0  1  0  0  0  0  0  0  0  0  0
   27.9701   34.8549   20.5587 C   0  0  1  0  0  0  0  0  0  0  0  0
   28.0015   36.2061   20.8462 N   0  0  0  0  0  0  0  0  0  0  0  0
  1  2  1  1  0  0  0
  1  3  1  0  0  0  0
  1  4  2  0  0  0  0
  1  6  1  0  0  0  0
  5  6  1  0  0  0  0
  7  5  1  1  0  0  0
  7  8  1  0  0  0  0
  7  9  1  0  0  0  0
  9 10  1  6  0  0  0
  9 11  1  0  0  0  0
 11 12  1  6  0  0  0
 11 13  1  0  0  0  0
 13 31  1  0  0  0  0
 14 15  1  0  0  0  0
 15 16  2  0  0  0  0
 15 17  1  0  0  0  0
 17 18  1  0  0  0  0
 18 20  2  0  0  0  0
 19 18  1  1  0  0  0
 19 22  1  0  0  0  0
 19 30  1  0  0  0  0
 21 23  1  6  0  0  0
 21 29  1  0  0  0  0
 21 22  1  0  0  0  0
 23 24  1  0  0  0  0
 24 25  1  1  0  0  0
 24 26  1  0  0  0  0
 26 27  1  1  0  0  0
 26 28  1  0  0  0  0
 29 28  1  1  0  0  0
 29 31  1  0  0  0  0
 30 14  1  1  0  0  0
 30 31  1  0  0  0  0
M  CHG  1   3  -1
M  END
>  <CHROM.1>
164.85965308,-58.72958097,172.51905996,57.17099144,-39.43682625,149.04315200
-74.54727360,27.38945842,37.80157891,19.87751123,-1.96558077,-1.39534091
2.19745038

>  <Name>
ligand

>  <RI>
0

>  <Rbt.Current_Directory>
/home/itssahil/PROJECTS/Mol_Feturizer/New_Systems/rnas/3F2T

>  <Rbt.Executable>
rbdock ($Id: //depot/dev/client3/rdock/2013.1/src/exe/rbdock.cxx#4 $)

>  <Rbt.Library>
libRbt.so (2013.1, Build901 2013/11/27)

>  <Rbt.Parameter_File>
/export/apps/rDock/src/rDock_2013.1_src/data/scripts/dock_solv.prm

>  <Rbt.Receptor>
prm/pocket_docking_3.prm

>  <SCORE>
-30.7348

>  <SCORE.INTER>
-32.532

>  <SCORE.INTER.CONST>
1

>  <SCORE.INTER.POLAR>
0

>  <SCORE.INTER.ROT>
7

>  <SCORE.INTER.SOLV>
20.1831

>  <SCORE.INTER.VDW>
-36.6824

>  <SCORE.INTER.norm>
-1.04942

>  <SCORE.INTRA>
1.7973

>  <SCORE.INTRA.DIHEDRAL>
1.94321

>  <SCORE.INTRA.DIHEDRAL.0>
4.64198

>  <SCORE.INTRA.POLAR>
0

>  <SCORE.INTRA.POLAR.0>
0

>  <SCORE.INTRA.REPUL>
0

>  <SCORE.INTRA.REPUL.0>
0

>  <SCORE.INTRA.SOLV>
0.30251

>  <SCORE.INTRA.SOLV.lig_0>
-49.3611

>  <SCORE.INTRA.VDW>
0.674433

>  <SCORE.INTRA.VDW.0>
-1.91858

>  <SCORE.INTRA.norm>
0.0579773

>  <SCORE.RESTR>
0

>  <SCORE.RESTR.CAVITY>
0

>  <SCORE.RESTR.norm>
0

>  <SCORE.SYSTEM>
0

>  <SCORE.SYSTEM.CONST>
0

>  <SCORE.SYSTEM.DIHEDRAL>
0

>  <SCORE.SYSTEM.SOLV>
0

>  <SCORE.SYSTEM.norm>
0

>  <SCORE.heavy>
31

>  <SCORE.norm>
-0.991444

>  <RMSD>
1.222

$$$$
ligand
 OpenBabel11021811473D
libRbt.so/2013.1/901 2013/11/27
 31 33  0  0  0  0  0  0  0  0999 V2000
   27.1969   43.2937   17.2017 P   0  0  1  0  0  0  0  0  0  0  0  0
   26.3584   44.5434   17.1103 O   0  0  0  0  0  0  0  0  0  0  0  0
   28.4030   43.4562   16.3153 O   0  5  0  0  0  0  0  0  0  0  0  0
   27.5729   43.1346   18.6493 O   0  0  0  0  0  0  0  0  0  0  0  0
   27.0449   40.7138   16.7635 C   0  0  0  0  0  0  0  0  0  0  0  0
   26.4105   41.9753   16.7307 O   0  0  0  0  0  0  0  0  0  0  0  0
   27.1367   40.2352   18.2101 C   0  0  1  0  0  0  0  0  0  0  0  0
   25.8402   39.9747   18.7100 O   0  0  0  0  0  0  0  0  0  0  0  0
   27.9609   38.9609   18.2846 C   0  0  1  0  0  0  0  0  0  0  0  0
   29.3150   39.3132   18.3815 O   0  0  0  0  0  0  0  0  0  0  0  0
   27.5918   38.0946   19.4772 C   0  0  1  0  0  0  0  0  0  0  0  0
   26.3722   37.4608   19.1997 O   0  0  0  0  0  0  0  0  0  0  0  0
   28.6565   37.0408   19.7328 C   0  0  0  0  0  0  0  0  0  0  0  0
   28.5204   34.2636   19.2986 N   0  0  0  0  0  0  0  0  0  0  0  0
   28.4160   32.9186   19.0176 C   0  0  0  0  0  0  0  0  0  0  0  0
   28.7835   32.4866   17.9289 O   0  0  0  0  0  0  0  0  0  0  0  0
   27.8983   32.0492   19.9503 N   0  0  0  0  0  0  0  0  0  0  0  0
   27.4885   32.5165   21.1837 C   0  0  0  0  0  0  0  0  0  0  0  0
   27.5893   33.8722   21.4760 C   0  0  1  0  0  0  0  0  0  0  0  0
   27.0430   31.7308   22.0226 O   0  0  0  0  0  0  0  0  0  0  0  0
   27.2828   35.6938   22.9950 C   0  0  2  0  0  0  0  0  0  0  0  0
   27.1799   34.3464   22.7062 N   0  0  0  0  0  0  0  0  0  0  0  0
   26.8685   36.1718   24.2387 C   0  0  0  0  0  0  0  0  0  0  0  0
   26.9628   37.5259   24.5376 C   0  0  1  0  0  0  0  0  0  0  0  0
   26.5056   38.0029   25.8798 C   0  0  0  0  0  0  0  0  0  0  0  0
   27.4823   38.4154   23.5849 C   0  0  1  0  0  0  0  0  0  0  0  0
   27.6097   39.8863   23.8720 C   0  0  0  0  0  0  0  0  0  0  0  0
   27.8933   37.9356   22.3442 C   0  0  0  0  0  0  0  0  0  0  0  0
   27.7952   36.5763   22.0412 C   0  0  1  0  0  0  0  0  0  0  0  0
   28.1056   34.7477   20.5228 C   0  0  1  0  0  0  0  0  0  0  0  0
   28.2019   36.0969   20.8051 N   0  0  0  0  0  0  0  0  0  0  0  0
  1  2  1  6  0  0  0
  1  3  1  0  0  0  0
  1  4  2  0  0  0  0
  1  6  1  0  0  0  0
  5  6  1  0  0  0  0
  7  5  1  6  0  0  0
  7  8  1  0  0  0  0
  7  9  1  0  0  0  0
  9 10  1  1  0  0  0
  9 11  1  0  0  0  0
 11 12  1  6  0  0  0
 11 13  1  0  0  0  0
 13 31  1  0  0  0  0
 14 15  1  0  0  0  0
 15 16  2  0  0  0  0
 15 17  1  0  0  0  0
 17 18  1  0  0  0  0
 18 20  2  0  0  0  0
 19 18  1  1  0  0  0
 19 22  1  0  0  0  0
 19 30  1  0  0  0  0
 21 23  1  6  0  0  0
 21 29  1  0  0  0  0
 21 22  1  0  0  0  0
 23 24  1  0  0  0  0
 24 25  1  1  0  0  0
 24 26  1  0  0  0  0
 26 27  1  1  0  0  0
 26 28  1  0  0  0  0
 29 28  1  1  0  0  0
 29 31  1  0  0  0  0
 30 14  1  1  0  0  0
 30 31  1  0  0  0  0
M  CHG  1   3  -1
M  END
>  <CHROM.1>
74.56357517,-179.44745103,66.79155910,85.91814164,75.25245714,-173.34027528
-54.38850100,27.50676509,37.90126562,20.04758714,-1.86344295,-1.40755813
2.40603107

>  <Name>
ligand

>  <RI>
0

>  <Rbt.Current_Directory>
/home/itssahil/PROJECTS/Mol_Feturizer/New_Systems/rnas/3F2T

>  <Rbt.Executable>
rbdock ($Id: //depot/dev/client3/rdock/2013.1/src/exe/rbdock.cxx#4 $)

>  <Rbt.Library>
libRbt.so (2013.1, Build901 2013/11/27)

>  <Rbt.Parameter_File>
/export/apps/rDock/src/rDock_2013.1_src/data/scripts/dock_solv.prm

>  <Rbt.Receptor>
prm/pocket_docking_5.prm

>  <SCORE>
-29.0133

>  <SCORE.INTER>
-31.8362

>  <SCORE.INTER.CONST>
1

>  <SCORE.INTER.POLAR>
0

>  <SCORE.INTER.ROT>
7

>  <SCORE.INTER.SOLV>
20.7594

>  <SCORE.INTER.VDW>
-36.4106

>  <SCORE.INTER.norm>
-1.02697

>  <SCORE.INTRA>
2.82294

>  <SCORE.INTRA.DIHEDRAL>
0.845875

>  <SCORE.INTRA.DIHEDRAL.0>
4.64198

>  <SCORE.INTRA.POLAR>
0

>  <SCORE.INTRA.POLAR.0>
0

>  <SCORE.INTRA.REPUL>
0

>  <SCORE.INTRA.REPUL.0>
0

>  <SCORE.INTRA.SOLV>
2.34468

>  <SCORE.INTRA.SOLV.lig_0>
-49.3611

>  <SCORE.INTRA.VDW>
1.22766

>  <SCORE.INTRA.VDW.0>
-1.91858

>  <SCORE.INTRA.norm>
0.0910626

>  <SCORE.RESTR>
0

>  <SCORE.RESTR.CAVITY>
0

>  <SCORE.RESTR.norm>
0

>  <SCORE.SYSTEM>
0

>  <SCORE.SYSTEM.CONST>
0

>  <SCORE.SYSTEM.DIHEDRAL>
0

>  <SCORE.SYSTEM.SOLV>
0

>  <SCORE.SYSTEM.norm>
0

>  <SCORE.heavy>
31

>  <SCORE.norm>
-0.935912

>  <RMSD>
1.224

$$$$
ligand
 OpenBabel11021811473D
libRbt.so/2013.1/901 2013/11/27
 31 33  0  0  0  0  0  0  0  0999 V2000
   26.7272   42.8910   16.5371 P   0  0  1  0  0  0  0  0  0  0  0  0
   27.1982   43.6490   17.7524 O   0  0  0  0  0  0  0  0  0  0  0  0
   25.2806   43.2275   16.2896 O   0  5  0  0  0  0  0  0  0  0  0  0
   27.6122   43.3152   15.3975 O   0  0  0  0  0  0  0  0  0  0  0  0
   28.1005   40.6909   16.9170 C   0  0  0  0  0  0  0  0  0  0  0  0
   26.8428   41.2986   16.7080 O   0  0  0  0  0  0  0  0  0  0  0  0
   27.8922   39.2493   17.3737 C   0  0  1  0  0  0  0  0  0  0  0  0
   29.1316   38.5692   17.3877 O   0  0  0  0  0  0  0  0  0  0  0  0
   27.3004   39.2278   18.7730 C   0  0  1  0  0  0  0  0  0  0  0  0
   26.0869   39.9309   18.7525 O   0  0  0  0  0  0  0  0  0  0  0  0
   27.0430   37.8178   19.2774 C   0  0  1  0  0  0  0  0  0  0  0  0
   26.5639   37.0485   18.2075 O   0  0  0  0  0  0  0  0  0  0  0  0
   28.3201   37.1910   19.8119 C   0  0  0  0  0  0  0  0  0  0  0  0
   28.3246   34.4120   19.3676 N   0  0  0  0  0  0  0  0  0  0  0  0
   28.2836   33.0641   19.0845 C   0  0  0  0  0  0  0  0  0  0  0  0
   28.6009   32.6589   17.9701 O   0  0  0  0  0  0  0  0  0  0  0  0
   27.8855   32.1615   20.0441 N   0  0  0  0  0  0  0  0  0  0  0  0
   27.5337   32.5989   21.3062 C   0  0  0  0  0  0  0  0  0  0  0  0
   27.5713   33.9572   21.6008 C   0  0  1  0  0  0  0  0  0  0  0  0
   27.1959   31.7846   22.1678 O   0  0  0  0  0  0  0  0  0  0  0  0
   27.2592   35.7518   23.1506 C   0  0  2  0  0  0  0  0  0  0  0  0
   27.2193   34.4015   22.8596 N   0  0  0  0  0  0  0  0  0  0  0  0
   26.9031   36.1995   24.4232 C   0  0  0  0  0  0  0  0  0  0  0  0
   26.9348   37.5559   24.7249 C   0  0  1  0  0  0  0  0  0  0  0  0
   26.5427   37.9996   26.0988 C   0  0  0  0  0  0  0  0  0  0  0  0
   27.3320   38.4786   23.7454 C   0  0  1  0  0  0  0  0  0  0  0  0
   27.3887   39.9537   24.0339 C   0  0  0  0  0  0  0  0  0  0  0  0
   27.6853   38.0289   22.4759 C   0  0  0  0  0  0  0  0  0  0  0  0
   27.6498   36.6671   22.1704 C   0  0  1  0  0  0  0  0  0  0  0  0
   27.9662   34.8658   20.6209 C   0  0  1  0  0  0  0  0  0  0  0  0
   27.9991   36.2175   20.9059 N   0  0  0  0  0  0  0  0  0  0  0  0
  1  2  1  1  0  0  0
  1  3  1  0  0  0  0
  1  4  2  0  0  0  0
  1  6  1  0  0  0  0
  5  6  1  0  0  0  0
  7  5  1  1  0  0  0
  7  8  1  0  0  0  0
  7  9  1  0  0  0  0
  9 10  1  6  0  0  0
  9 11  1  0  0  0  0
 11 12  1  6  0  0  0
 11 13  1  0  0  0  0
 13 31  1  0  0  0  0
 14 15  1  0  0  0  0
 15 16  2  0  0  0  0
 15 17  1  0  0  0  0
 17 18  1  0  0  0  0
 18 20  2  0  0  0  0
 19 18  1  1  0  0  0
 19 22  1  0  0  0  0
 19 30  1  0  0  0  0
 21 23  1  6  0  0  0
 21 29  1  0  0  0  0
 21 22  1  0  0  0  0
 23 24  1  0  0  0  0
 24 25  1  1  0  0  0
 24 26  1  0  0  0  0
 26 27  1  1  0  0  0
 26 28  1  0  0  0  0
 29 28  1  1  0  0  0
 29 31  1  0  0  0  0
 30 14  1  1  0  0  0
 30 31  1  0  0  0  0
M  CHG  1   3  -1
M  END
>  <CHROM.1>
166.55423358,-61.49075439,171.02228230,58.32862289,-38.84710306,149.82199140
-75.67548477,27.38875381,37.79300324,19.89772419,-1.96202799,-1.39876347
2.17982077

>  <Name>
ligand

>  <RI>
0

>  <Rbt.Current_Directory>
/home/itssahil/PROJECTS/Mol_Feturizer/New_Systems/rnas/3F2T

>  <Rbt.Executable>
rbdock ($Id: //depot/dev/client3/rdock/2013.1/src/exe/rbdock.cxx#4 $)

>  <Rbt.Library>
libRbt.so (2013.1, Build901 2013/11/27)

>  <Rbt.Parameter_File>
/export/apps/rDock/src/rDock_2013.1_src/data/scripts/dock_solv.prm

>  <Rbt.Receptor>
prm/blind_docking_80.prm

>  <SCORE>
-30.8937

>  <SCORE.INTER>
-32.4904

>  <SCORE.INTER.CONST>
1

>  <SCORE.INTER.POLAR>
0

>  <SCORE.INTER.ROT>
7

>  <SCORE.INTER.SOLV>
20.7622

>  <SCORE.INTER.VDW>
-36.8476

>  <SCORE.INTER.norm>
-1.04808

>  <SCORE.INTRA>
1.59667

>  <SCORE.INTRA.DIHEDRAL>
1.76211

>  <SCORE.INTRA.DIHEDRAL.0>
4.64198

>  <SCORE.INTRA.POLAR>
0

>  <SCORE.INTRA.POLAR.0>
0

>  <SCORE.INTRA.REPUL>
0

>  <SCORE.INTRA.REPUL.0>
0

>  <SCORE.INTRA.SOLV>
0.248452

>  <SCORE.INTRA.SOLV.lig_0>
-49.3611

>  <SCORE.INTRA.VDW>
0.591388

>  <SCORE.INTRA.VDW.0>
-1.91858

>  <SCORE.INTRA.norm>
0.0515055

>  <SCORE.RESTR>
0

>  <SCORE.RESTR.CAVITY>
0

>  <SCORE.RESTR.norm>
0

>  <SCORE.SYSTEM>
0

>  <SCORE.SYSTEM.CONST>
0

>  <SCORE.SYSTEM.DIHEDRAL>
0

>  <SCORE.SYSTEM.SOLV>
0

>  <SCORE.SYSTEM.norm>
0

>  <SCORE.heavy>
31

>  <SCORE.norm>
-0.99657

>  <RMSD>
1.239

$$$$
ligand
 OpenBabel11021811473D
libRbt.so/2013.1/901 2013/11/27
 31 33  0  0  0  0  0  0  0  0999 V2000
   27.7542   42.8133   16.4131 P   0  0  1  0  0  0  0  0  0  0  0  0
   28.8964   42.0522   15.7893 O   0  0  0  0  0  0  0  0  0  0  0  0
   28.1727   44.2482   16.5944 O   0  5  0  0  0  0  0  0  0  0  0  0
   26.5854   42.6764   15.4764 O   0  0  0  0  0  0  0  0  0  0  0  0
   26.3260   41.2464   17.9544 C   0  0  0  0  0  0  0  0  0  0  0  0
   27.3274   42.2370   17.8497 O   0  0  0  0  0  0  0  0  0  0  0  0
   26.9012   40.0237   18.6646 C   0  0  1  0  0  0  0  0  0  0  0  0
   25.8682   39.0954   18.9290 O   0  0  0  0  0  0  0  0  0  0  0  0
   27.9507   39.3599   17.7890 C   0  0  1  0  0  0  0  0  0  0  0  0
   29.1002   40.1635   17.7875 O   0  0  0  0  0  0  0  0  0  0  0  0
   28.3236   37.9695   18.2753 C   0  0  1  0  0  0  0  0  0  0  0  0
   29.2383   37.4168   17.3677 O   0  0  0  0  0  0  0  0  0  0  0  0
   28.9606   38.0293   19.6538 C   0  0  0  0  0  0  0  0  0  0  0  0
   28.9082   35.3864   18.6883 N   0  0  0  0  0  0  0  0  0  0  0  0
   28.8481   34.1197   18.1492 C   0  0  0  0  0  0  0  0  0  0  0  0
   29.2811   33.9097   17.0199 O   0  0  0  0  0  0  0  0  0  0  0  0
   28.3018   33.0809   18.8678 N   0  0  0  0  0  0  0  0  0  0  0  0
   27.8182   33.2971   20.1435 C   0  0  0  0  0  0  0  0  0  0  0  0
   27.8739   34.5721   20.6954 C   0  0  1  0  0  0  0  0  0  0  0  0
   27.3470   32.3594   20.7902 O   0  0  0  0  0  0  0  0  0  0  0  0
   27.4489   36.0633   22.5162 C   0  0  2  0  0  0  0  0  0  0  0  0
   27.3907   34.7957   21.9691 N   0  0  0  0  0  0  0  0  0  0  0  0
   26.9600   36.2879   23.8036 C   0  0  0  0  0  0  0  0  0  0  0  0
   27.0090   37.5601   24.3614 C   0  0  1  0  0  0  0  0  0  0  0  0
   26.4722   37.7642   25.7428 C   0  0  0  0  0  0  0  0  0  0  0  0
   27.5576   38.6224   23.6271 C   0  0  1  0  0  0  0  0  0  0  0  0
   27.6377   40.0118   24.1975 C   0  0  0  0  0  0  0  0  0  0  0  0
   28.0431   38.3954   22.3420 C   0  0  0  0  0  0  0  0  0  0  0  0
   27.9907   37.1189   21.7791 C   0  0  1  0  0  0  0  0  0  0  0  0
   28.4197   35.6207   19.9578 C   0  0  1  0  0  0  0  0  0  0  0  0
   28.4717   36.8913   20.4984 N   0  0  0  0  0  0  0  0  0  0  0  0
  1  2  1  6  0  0  0
  1  3  1  0  0  0  0
  1  4  2  0  0  0  0
  1  6  1  0  0  0  0
  5  6  1  0  0  0  0
  7  5  1  6  0  0  0
  7  8  1  0  0  0  0
  7  9  1  0  0  0  0
  9 10  1  1  0  0  0
  9 11  1  0  0  0  0
 11 12  1  6  0  0  0
 11 13  1  0  0  0  0
 13 31  1  0  0  0  0
 14 15  1  0  0  0  0
 15 16  2  0  0  0  0
 15 17  1  0  0  0  0
 17 18  1  0  0  0  0
 18 20  2  0  0  0  0
 19 18  1  1  0  0  0
 19 22  1  0  0  0  0
 19 30  1  0  0  0  0
 21 23  1  6  0  0  0
 21 29  1  0  0  0  0
 21 22  1  0  0  0  0
 23 24  1  0  0  0  0
 24 25  1  1  0  0  0
 24 26  1  0  0  0  0
 26 27  1  1  0  0  0
 26 28  1  0  0  0  0
 29 28  1  1  0  0  0
 29 31  1  0  0  0  0
 30 14  1  1  0  0  0
 30 31  1  0  0  0  0
M  CHG  1   3  -1
M  END
>  <CHROM.1>
122.45388285,-91.15671978,172.51906621,73.11874509,176.90216790,140.01441023
-130.37035909,27.84591692,38.16439328,19.52457310,1.59854887,1.34501737,-0.61498141

>  <Name>
ligand

>  <RI>
0

>  <Rbt.Current_Directory>
/home/itssahil/PROJECTS/Mol_Feturizer/New_Systems/rnas/3F2T

>  <Rbt.Executable>
rbdock ($Id: //depot/dev/client3/rdock/2013.1/src/exe/rbdock.cxx#4 $)

>  <Rbt.Library>
libRbt.so (2013.1, Build901 2013/11/27)

>  <Rbt.Parameter_File>
/export/apps/rDock/src/rDock_2013.1_src/data/scripts/dock_solv.prm

>  <Rbt.Receptor>
prm/pocket_docking_6.prm

>  <SCORE>
-19.9591

>  <SCORE.INTER>
-27.384

>  <SCORE.INTER.CONST>
1

>  <SCORE.INTER.POLAR>
0

>  <SCORE.INTER.ROT>
7

>  <SCORE.INTER.SOLV>
20.9662

>  <SCORE.INTER.VDW>
-33.5114

>  <SCORE.INTER.norm>
-0.883355

>  <SCORE.INTRA>
7.42487

>  <SCORE.INTRA.DIHEDRAL>
9.93171

>  <SCORE.INTRA.DIHEDRAL.0>
4.64198

>  <SCORE.INTRA.POLAR>
0

>  <SCORE.INTRA.POLAR.0>
0

>  <SCORE.INTRA.REPUL>
0

>  <SCORE.INTRA.REPUL.0>
0

>  <SCORE.INTRA.SOLV>
1.37415

>  <SCORE.INTRA.SOLV.lig_0>
-49.3611

>  <SCORE.INTRA.VDW>
1.77194

>  <SCORE.INTRA.VDW.0>
-1.91858

>  <SCORE.INTRA.norm>
0.239512

>  <SCORE.RESTR>
0

>  <SCORE.RESTR.CAVITY>
0

>  <SCORE.RESTR.norm>
0

>  <SCORE.SYSTEM>
0

>  <SCORE.SYSTEM.CONST>
0

>  <SCORE.SYSTEM.DIHEDRAL>
0

>  <SCORE.SYSTEM.SOLV>
0

>  <SCORE.SYSTEM.norm>
0

>  <SCORE.heavy>
31

>  <SCORE.norm>
-0.643843

>  <RMSD>
1.248

$$$$
ligand
 OpenBabel11021811473D
libRbt.so/2013.1/901 2013/11/27
 31 33  0  0  0  0  0  0  0  0999 V2000
   26.8012   43.1958   16.8404 P   0  0  1  0  0  0  0  0  0  0  0  0
   25.6123   42.8469   15.9814 O   0  0  0  0  0  0  0  0  0  0  0  0
   28.0568   42.9690   16.0410 O   0  5  0  0  0  0  0  0  0  0  0  0
   26.6341   44.6363   17.2392 O   0  0  0  0  0  0  0  0  0  0  0  0
   26.1152   41.1346   18.3072 C   0  0  0  0  0  0  0  0  0  0  0  0
   26.8949   42.3046   18.1727 O   0  0  0  0  0  0  0  0  0  0  0  0
   26.7840   39.9947   17.5434 C   0  0  1  0  0  0  0  0  0  0  0  0
   27.2660   40.4698   16.3022 O   0  0  0  0  0  0  0  0  0  0  0  0
   27.9489   39.4430   18.3481 C   0  0  1  0  0  0  0  0  0  0  0  0
   28.5729   40.5086   19.0133 O   0  0  0  0  0  0  0  0  0  0  0  0
   27.5138   38.4102   19.3741 C   0  0  1  0  0  0  0  0  0  0  0  0
   26.6926   37.4720   18.7328 O   0  0  0  0  0  0  0  0  0  0  0  0
   28.7164   37.6977   19.9706 C   0  0  0  0  0  0  0  0  0  0  0  0
   28.5924   34.9804   19.2489 N   0  0  0  0  0  0  0  0  0  0  0  0
   28.4939   33.6717   18.8289 C   0  0  0  0  0  0  0  0  0  0  0  0
   28.8636   33.3572   17.7014 O   0  0  0  0  0  0  0  0  0  0  0  0
   27.9796   32.7075   19.6654 N   0  0  0  0  0  0  0  0  0  0  0  0
   27.5673   33.0418   20.9405 C   0  0  0  0  0  0  0  0  0  0  0  0
   27.6621   34.3600   21.3728 C   0  0  1  0  0  0  0  0  0  0  0  0
   27.1248   32.1710   21.6925 O   0  0  0  0  0  0  0  0  0  0  0  0
   27.3472   36.0118   23.0733 C   0  0  2  0  0  0  0  0  0  0  0  0
   27.2502   34.7015   22.6453 N   0  0  0  0  0  0  0  0  0  0  0  0
   26.9303   36.3557   24.3597 C   0  0  0  0  0  0  0  0  0  0  0  0
   27.0187   37.6716   24.7984 C   0  0  1  0  0  0  0  0  0  0  0  0
   26.5589   38.0039   26.1827 C   0  0  0  0  0  0  0  0  0  0  0  0
   27.5347   38.6578   23.9442 C   0  0  1  0  0  0  0  0  0  0  0  0
   27.6557   40.0913   24.3833 C   0  0  0  0  0  0  0  0  0  0  0  0
   27.9484   38.3118   22.6604 C   0  0  0  0  0  0  0  0  0  0  0  0
   27.8562   36.9912   22.2172 C   0  0  1  0  0  0  0  0  0  0  0  0
   28.1750   35.3323   20.5166 C   0  0  1  0  0  0  0  0  0  0  0  0
   28.2655   36.6451   20.9382 N   0  0  0  0  0  0  0  0  0  0  0  0
  1  2  1  6  0  0  0
  1  3  1  0  0  0  0
  1  4  2  0  0  0  0
  1  6  1  0  0  0  0
  5  6  1  0  0  0  0
  7  5  1  1  0  0  0
  7  8  1  0  0  0  0
  7  9  1  0  0  0  0
  9 10  1  1  0  0  0
  9 11  1  0  0  0  0
 11 12  1  6  0  0  0
 11 13  1  0  0  0  0
 13 31  1  0  0  0  0
 14 15  1  0  0  0  0
 15 16  2  0  0  0  0
 15 17  1  0  0  0  0
 17 18  1  0  0  0  0
 18 20  2  0  0  0  0
 19 18  1  1  0  0  0
 19 22  1  0  0  0  0
 19 30  1  0  0  0  0
 21 23  1  6  0  0  0
 21 29  1  0  0  0  0
 21 22  1  0  0  0  0
 23 24  1  0  0  0  0
 24 25  1  1  0  0  0
 24 26  1  0  0  0  0
 26 27  1  1  0  0  0
 26 28  1  0  0  0  0
 29 28  1  1  0  0  0
 29 31  1  0  0  0  0
 30 14  1  1  0  0  0
 30 31  1  0  0  0  0
M  CHG  1   3  -1
M  END
>  <CHROM.1>
79.97221598,13.91923823,-41.92858341,-36.34838648,49.51573554,-177.69386681
-78.30131666,27.45547218,38.22546164,19.94869721,2.16087325,1.42202051,-1.14049896

>  <Name>
ligand

>  <RI>
0

>  <Rbt.Current_Directory>
/home/itssahil/PROJECTS/Mol_Feturizer/New_Systems/rnas/3F2T

>  <Rbt.Executable>
rbdock ($Id: //depot/dev/client3/rdock/2013.1/src/exe/rbdock.cxx#4 $)

>  <Rbt.Library>
libRbt.so (2013.1, Build901 2013/11/27)

>  <Rbt.Parameter_File>
/export/apps/rDock/src/rDock_2013.1_src/data/scripts/dock_solv.prm

>  <Rbt.Receptor>
prm/pocket_docking_2.prm

>  <SCORE>
-23.8289

>  <SCORE.INTER>
-28.6637

>  <SCORE.INTER.CONST>
1

>  <SCORE.INTER.POLAR>
0

>  <SCORE.INTER.ROT>
7

>  <SCORE.INTER.SOLV>
19.0439

>  <SCORE.INTER.VDW>
-33.7237

>  <SCORE.INTER.norm>
-0.924635

>  <SCORE.INTRA>
4.8348

>  <SCORE.INTRA.DIHEDRAL>
3.69329

>  <SCORE.INTRA.DIHEDRAL.0>
4.64198

>  <SCORE.INTRA.POLAR>
0

>  <SCORE.INTRA.POLAR.0>
0

>  <SCORE.INTRA.REPUL>
0

>  <SCORE.INTRA.REPUL.0>
0

>  <SCORE.INTRA.SOLV>
2.76279

>  <SCORE.INTRA.SOLV.lig_0>
-49.3611

>  <SCORE.INTRA.VDW>
1.60676

>  <SCORE.INTRA.VDW.0>
-1.91858

>  <SCORE.INTRA.norm>
0.155961

>  <SCORE.RESTR>
0

>  <SCORE.RESTR.CAVITY>
0

>  <SCORE.RESTR.norm>
0

>  <SCORE.SYSTEM>
0

>  <SCORE.SYSTEM.CONST>
0

>  <SCORE.SYSTEM.DIHEDRAL>
0

>  <SCORE.SYSTEM.SOLV>
0

>  <SCORE.SYSTEM.norm>
0

>  <SCORE.heavy>
31

>  <SCORE.norm>
-0.768673

>  <RMSD>
1.253

$$$$
ligand
 OpenBabel11021811473D
libRbt.so/2013.1/901 2013/11/27
 31 33  0  0  0  0  0  0  0  0999 V2000
   26.5440   43.0525   16.6503 P   0  0  1  0  0  0  0  0  0  0  0  0
   25.4229   43.7465   17.3814 O   0  0  0  0  0  0  0  0  0  0  0  0
   26.3372   43.2305   15.1696 O   0  5  0  0  0  0  0  0  0  0  0  0
   27.8226   43.6859   17.1256 O   0  0  0  0  0  0  0  0  0  0  0  0
   27.8446   40.7919   16.9127 C   0  0  0  0  0  0  0  0  0  0  0  0
   26.6104   41.4773   16.9550 O   0  0  0  0  0  0  0  0  0  0  0  0
   27.6286   39.3415   17.3368 C   0  0  1  0  0  0  0  0  0  0  0  0
   28.8285   38.6122   17.1719 O   0  0  0  0  0  0  0  0  0  0  0  0
   27.2112   39.2836   18.7966 C   0  0  1  0  0  0  0  0  0  0  0  0
   26.0375   40.0355   18.9527 O   0  0  0  0  0  0  0  0  0  0  0  0
   26.9532   37.8647   19.2752 C   0  0  1  0  0  0  0  0  0  0  0  0
   26.3843   37.1405   18.2179 O   0  0  0  0  0  0  0  0  0  0  0  0
   28.2474   37.1924   19.7027 C   0  0  0  0  0  0  0  0  0  0  0  0
   28.3092   34.4164   19.2448 N   0  0  0  0  0  0  0  0  0  0  0  0
   28.2943   33.0690   18.9563 C   0  0  0  0  0  0  0  0  0  0  0  0
   28.5923   32.6766   17.8320 O   0  0  0  0  0  0  0  0  0  0  0  0
   27.9439   32.1527   19.9214 N   0  0  0  0  0  0  0  0  0  0  0  0
   27.6145   32.5758   21.1944 C   0  0  0  0  0  0  0  0  0  0  0  0
   27.6261   33.9334   21.4946 C   0  0  1  0  0  0  0  0  0  0  0  0
   27.3197   31.7497   22.0605 O   0  0  0  0  0  0  0  0  0  0  0  0
   27.3102   35.7130   23.0608 C   0  0  2  0  0  0  0  0  0  0  0  0
   27.2962   34.3634   22.7643 N   0  0  0  0  0  0  0  0  0  0  0  0
   26.9764   36.1463   24.3444 C   0  0  0  0  0  0  0  0  0  0  0  0
   26.9823   37.5017   24.6519 C   0  0  1  0  0  0  0  0  0  0  0  0
   26.6154   37.9297   26.0376 C   0  0  0  0  0  0  0  0  0  0  0  0
   27.3308   38.4382   23.6669 C   0  0  1  0  0  0  0  0  0  0  0  0
   27.3584   39.9130   23.9611 C   0  0  0  0  0  0  0  0  0  0  0  0
   27.6618   38.0029   22.3865 C   0  0  0  0  0  0  0  0  0  0  0  0
   27.6522   36.6420   22.0753 C   0  0  1  0  0  0  0  0  0  0  0  0
   27.9725   34.8557   20.5093 C   0  0  1  0  0  0  0  0  0  0  0  0
   27.9793   36.2066   20.7999 N   0  0  0  0  0  0  0  0  0  0  0  0
  1  2  1  1  0  0  0
  1  3  1  0  0  0  0
  1  4  2  0  0  0  0
  1  6  1  0  0  0  0
  5  6  1  0  0  0  0
  7  5  1  1  0  0  0
  7  8  1  0  0  0  0
  7  9  1  0  0  0  0
  9 10  1  6  0  0  0
  9 11  1  0  0  0  0
 11 12  1  6  0  0  0
 11 13  1  0  0  0  0
 13 31  1  0  0  0  0
 14 15  1  0  0  0  0
 15 16  2  0  0  0  0
 15 17  1  0  0  0  0
 17 18  1  0  0  0  0
 18 20  2  0  0  0  0
 19 18  1  1  0  0  0
 19 22  1  0  0  0  0
 19 30  1  0  0  0  0
 21 23  1  6  0  0  0
 21 29  1  0  0  0  0
 21 22  1  0  0  0  0
 23 24  1  0  0  0  0
 24 25  1  1  0  0  0
 24 26  1  0  0  0  0
 26 27  1  1  0  0  0
 26 28  1  0  0  0  0
 29 28  1  1  0  0  0
 29 31  1  0  0  0  0
 30 14  1  1  0  0  0
 30 31  1  0  0  0  0
M  CHG  1   3  -1
M  END
>  <CHROM.1>
176.00506575,-150.36795575,174.23061018,58.31084865,-35.44334725,149.03005909
-71.50915015,27.32429035,37.83103056,19.86563911,-2.12646638,-1.39546876
2.05244205

>  <Name>
ligand

>  <RI>
0

>  <Rbt.Current_Directory>
/home/itssahil/PROJECTS/Mol_Feturizer/New_Systems/rnas/3F2T

>  <Rbt.Executable>
rbdock ($Id: //depot/dev/client3/rdock/2013.1/src/exe/rbdock.cxx#4 $)

>  <Rbt.Library>
libRbt.so (2013.1, Build901 2013/11/27)

>  <Rbt.Parameter_File>
/export/apps/rDock/src/rDock_2013.1_src/data/scripts/dock_solv.prm

>  <Rbt.Receptor>
prm/pocket_docking_4.prm

>  <SCORE>
-30.03

>  <SCORE.INTER>
-32.523

>  <SCORE.INTER.CONST>
1

>  <SCORE.INTER.POLAR>
0

>  <SCORE.INTER.ROT>
7

>  <SCORE.INTER.SOLV>
20.9816

>  <SCORE.INTER.VDW>
-36.9425

>  <SCORE.INTER.norm>
-1.04913

>  <SCORE.INTRA>
2.49301

>  <SCORE.INTRA.DIHEDRAL>
2.51481

>  <SCORE.INTRA.DIHEDRAL.0>
4.64198

>  <SCORE.INTRA.POLAR>
0

>  <SCORE.INTRA.POLAR.0>
0

>  <SCORE.INTRA.REPUL>
0

>  <SCORE.INTRA.REPUL.0>
0

>  <SCORE.INTRA.SOLV>
0.522045

>  <SCORE.INTRA.SOLV.lig_0>
-49.3611

>  <SCORE.INTRA.VDW>
0.974582

>  <SCORE.INTRA.VDW.0>
-1.91858

>  <SCORE.INTRA.norm>
0.0804196

>  <SCORE.RESTR>
0

>  <SCORE.RESTR.CAVITY>
0

>  <SCORE.RESTR.norm>
0

>  <SCORE.SYSTEM>
0

>  <SCORE.SYSTEM.CONST>
0

>  <SCORE.SYSTEM.DIHEDRAL>
0

>  <SCORE.SYSTEM.SOLV>
0

>  <SCORE.SYSTEM.norm>
0

>  <SCORE.heavy>
31

>  <SCORE.norm>
-0.968709

>  <RMSD>
1.259

$$$$
ligand
 OpenBabel11021811473D
libRbt.so/2013.1/901 2013/11/27
 31 33  0  0  0  0  0  0  0  0999 V2000
   25.6054   43.2028   17.1950 P   0  0  1  0  0  0  0  0  0  0  0  0
   24.4730   42.2268   16.9990 O   0  0  0  0  0  0  0  0  0  0  0  0
   26.6123   43.0006   16.0939 O   0  5  0  0  0  0  0  0  0  0  0  0
   24.9968   44.5778   17.1629 O   0  0  0  0  0  0  0  0  0  0  0  0
   27.4525   42.1213   18.7080 C   0  0  0  0  0  0  0  0  0  0  0  0
   26.3616   43.0118   18.5985 O   0  0  0  0  0  0  0  0  0  0  0  0
   26.9353   40.6857   18.6656 C   0  0  1  0  0  0  0  0  0  0  0  0
   26.6097   40.3347   17.3353 O   0  0  0  0  0  0  0  0  0  0  0  0
   28.0013   39.7338   19.1815 C   0  0  1  0  0  0  0  0  0  0  0  0
   28.5000   40.2394   20.3910 O   0  0  0  0  0  0  0  0  0  0  0  0
   27.4676   38.3309   19.4180 C   0  0  1  0  0  0  0  0  0  0  0  0
   26.7708   37.9263   18.2705 O   0  0  0  0  0  0  0  0  0  0  0  0
   28.6027   37.3561   19.6839 C   0  0  0  0  0  0  0  0  0  0  0  0
   28.5168   34.5989   19.1265 N   0  0  0  0  0  0  0  0  0  0  0  0
   28.4352   33.2660   18.7866 C   0  0  0  0  0  0  0  0  0  0  0  0
   28.7885   32.8918   17.6722 O   0  0  0  0  0  0  0  0  0  0  0  0
   27.9561   32.3440   19.6891 N   0  0  0  0  0  0  0  0  0  0  0  0
   27.5627   32.7460   20.9506 C   0  0  0  0  0  0  0  0  0  0  0  0
   27.6407   34.0890   21.3022 C   0  0  1  0  0  0  0  0  0  0  0  0
   27.1519   31.9135   21.7617 O   0  0  0  0  0  0  0  0  0  0  0  0
   27.3277   35.8330   22.9085 C   0  0  2  0  0  0  0  0  0  0  0  0
   27.2475   34.4980   22.5608 N   0  0  0  0  0  0  0  0  0  0  0  0
   26.9298   36.2451   24.1808 C   0  0  0  0  0  0  0  0  0  0  0  0
   27.0015   37.5861   24.5392 C   0  0  1  0  0  0  0  0  0  0  0  0
   26.5628   37.9917   25.9107 C   0  0  0  0  0  0  0  0  0  0  0  0
   27.4815   38.5290   23.6177 C   0  0  1  0  0  0  0  0  0  0  0  0
   27.5836   39.9879   23.9688 C   0  0  0  0  0  0  0  0  0  0  0  0
   27.8763   38.1149   22.3483 C   0  0  0  0  0  0  0  0  0  0  0  0
   27.8008   36.7689   21.9857 C   0  0  1  0  0  0  0  0  0  0  0  0
   28.1178   35.0179   20.3797 C   0  0  1  0  0  0  0  0  0  0  0  0
   28.1913   36.3548   20.7211 N   0  0  0  0  0  0  0  0  0  0  0  0
  1  2  1  6  0  0  0
  1  3  1  0  0  0  0
  1  4  2  0  0  0  0
  1  6  1  0  0  0  0
  5  6  1  0  0  0  0
  7  5  1  6  0  0  0
  7  8  1  0  0  0  0
  7  9  1  0  0  0  0
  9 10  1  1  0  0  0
  9 11  1  0  0  0  0
 11 12  1  6  0  0  0
 11 13  1  0  0  0  0
 13 31  1  0  0  0  0
 14 15  1  0  0  0  0
 15 16  2  0  0  0  0
 15 17  1  0  0  0  0
 17 18  1  0  0  0  0
 18 20  2  0  0  0  0
 19 18  1  1  0  0  0
 19 22  1  0  0  0  0
 19 30  1  0  0  0  0
 21 23  1  6  0  0  0
 21 29  1  0  0  0  0
 21 22  1  0  0  0  0
 23 24  1  0  0  0  0
 24 25  1  1  0  0  0
 24 26  1  0  0  0  0
 26 27  1  1  0  0  0
 26 28  1  0  0  0  0
 29 28  1  1  0  0  0
 29 31  1  0  0  0  0
 30 14  1  1  0  0  0
 30 31  1  0  0  0  0
M  CHG  1   3  -1
M  END
>  <CHROM.1>
-72.95471173,88.86972681,76.63594835,48.41128775,49.73548539,142.71108502
-58.88859108,27.20364832,38.14869226,20.07507718,-2.75704852,-1.37414946
1.54097863

>  <Name>
ligand

>  <RI>
0

>  <Rbt.Current_Directory>
/home/itssahil/PROJECTS/Mol_Feturizer/New_Systems/rnas/3F2T

>  <Rbt.Executable>
rbdock ($Id: //depot/dev/client3/rdock/2013.1/src/exe/rbdock.cxx#4 $)

>  <Rbt.Library>
libRbt.so (2013.1, Build901 2013/11/27)

>  <Rbt.Parameter_File>
/export/apps/rDock/src/rDock_2013.1_src/data/scripts/dock_solv.prm

>  <Rbt.Receptor>
prm/pocket_docking_2.prm

>  <SCORE>
-27.4861

>  <SCORE.INTER>
-31.5261

>  <SCORE.INTER.CONST>
1

>  <SCORE.INTER.POLAR>
0

>  <SCORE.INTER.ROT>
7

>  <SCORE.INTER.SOLV>
17.105

>  <SCORE.INTER.VDW>
-34.9857

>  <SCORE.INTER.norm>
-1.01697

>  <SCORE.INTRA>
3.46914

>  <SCORE.INTRA.DIHEDRAL>
3.85617

>  <SCORE.INTRA.DIHEDRAL.0>
4.64198

>  <SCORE.INTRA.POLAR>
0

>  <SCORE.INTRA.POLAR.0>
0

>  <SCORE.INTRA.REPUL>
0

>  <SCORE.INTRA.REPUL.0>
0

>  <SCORE.INTRA.SOLV>
1.96958

>  <SCORE.INTRA.SOLV.lig_0>
-49.3611

>  <SCORE.INTRA.VDW>
0.556261

>  <SCORE.INTRA.VDW.0>
-1.91858

>  <SCORE.INTRA.norm>
0.111908

>  <SCORE.RESTR>
0.570893

>  <SCORE.RESTR.CAVITY>
0.570893

>  <SCORE.RESTR.norm>
0.0184159

>  <SCORE.SYSTEM>
0

>  <SCORE.SYSTEM.CONST>
0

>  <SCORE.SYSTEM.DIHEDRAL>
0

>  <SCORE.SYSTEM.SOLV>
0

>  <SCORE.SYSTEM.norm>
0

>  <SCORE.heavy>
31

>  <SCORE.norm>
-0.886648

>  <RMSD>
1.264

$$$$
ligand
 OpenBabel11021811473D
libRbt.so/2013.1/901 2013/11/27
 31 33  0  0  0  0  0  0  0  0999 V2000
   26.7006   42.8132   16.4712 P   0  0  1  0  0  0  0  0  0  0  0  0
   27.0659   44.0702   17.2195 O   0  0  0  0  0  0  0  0  0  0  0  0
   25.7219   42.0252   17.3009 O   0  5  0  0  0  0  0  0  0  0  0  0
   26.1098   43.2514   15.1594 O   0  0  0  0  0  0  0  0  0  0  0  0
   28.6745   41.2662   17.2336 C   0  0  0  0  0  0  0  0  0  0  0  0
   27.9665   41.8717   16.1720 O   0  0  0  0  0  0  0  0  0  0  0  0
   27.9410   40.0004   17.6693 C   0  0  1  0  0  0  0  0  0  0  0  0
   28.5950   38.8638   17.1409 O   0  0  0  0  0  0  0  0  0  0  0  0
   27.9277   39.9032   19.1855 C   0  0  1  0  0  0  0  0  0  0  0  0
   27.1289   40.9400   19.6897 O   0  0  0  0  0  0  0  0  0  0  0  0
   27.3804   38.5753   19.6816 C   0  0  1  0  0  0  0  0  0  0  0  0
   26.4316   38.1174   18.7563 O   0  0  0  0  0  0  0  0  0  0  0  0
   28.4903   37.5453   19.8114 C   0  0  0  0  0  0  0  0  0  0  0  0
   28.4371   34.7963   19.2115 N   0  0  0  0  0  0  0  0  0  0  0  0
   28.3694   33.4677   18.8523 C   0  0  0  0  0  0  0  0  0  0  0  0
   28.6978   33.1176   17.7225 O   0  0  0  0  0  0  0  0  0  0  0  0
   27.9320   32.5230   19.7524 N   0  0  0  0  0  0  0  0  0  0  0  0
   27.5671   32.8978   21.0308 C   0  0  0  0  0  0  0  0  0  0  0  0
   27.6315   34.2362   21.4021 C   0  0  1  0  0  0  0  0  0  0  0  0
   27.1940   32.0453   21.8392 O   0  0  0  0  0  0  0  0  0  0  0  0
   27.3331   35.9485   23.0448 C   0  0  2  0  0  0  0  0  0  0  0  0
   27.2665   34.6180   22.6776 N   0  0  0  0  0  0  0  0  0  0  0  0
   26.9638   36.3331   24.3342 C   0  0  0  0  0  0  0  0  0  0  0  0
   27.0221   37.6694   24.7124 C   0  0  1  0  0  0  0  0  0  0  0  0
   26.6150   38.0452   26.1020 C   0  0  0  0  0  0  0  0  0  0  0  0
   27.4594   38.6353   23.7934 C   0  0  1  0  0  0  0  0  0  0  0  0
   27.5457   40.0901   24.1654 C   0  0  0  0  0  0  0  0  0  0  0  0
   27.8257   38.2486   22.5069 C   0  0  0  0  0  0  0  0  0  0  0  0
   27.7636   36.9073   22.1247 C   0  0  1  0  0  0  0  0  0  0  0  0
   28.0661   35.1881   20.4820 C   0  0  1  0  0  0  0  0  0  0  0  0
   28.1257   36.5205   20.8431 N   0  0  0  0  0  0  0  0  0  0  0  0
  1  2  1  1  0  0  0
  1  3  1  0  0  0  0
  1  4  2  0  0  0  0
  1  6  1  0  0  0  0
  5  6  1  0  0  0  0
  7  5  1  1  0  0  0
  7  8  1  0  0  0  0
  7  9  1  0  0  0  0
  9 10  1  1  0  0  0
  9 11  1  0  0  0  0
 11 12  1  6  0  0  0
 11 13  1  0  0  0  0
 13 31  1  0  0  0  0
 14 15  1  0  0  0  0
 15 16  2  0  0  0  0
 15 17  1  0  0  0  0
 17 18  1  0  0  0  0
 18 20  2  0  0  0  0
 19 18  1  1  0  0  0
 19 22  1  0  0  0  0
 19 30  1  0  0  0  0
 21 23  1  6  0  0  0
 21 29  1  0  0  0  0
 21 22  1  0  0  0  0
 23 24  1  0  0  0  0
 24 25  1  1  0  0  0
 24 26  1  0  0  0  0
 26 27  1  1  0  0  0
 26 28  1  0  0  0  0
 29 28  1  1  0  0  0
 29 31  1  0  0  0  0
 30 14  1  1  0  0  0
 30 31  1  0  0  0  0
M  CHG  1   3  -1
M  END
>  <CHROM.1>
82.05868159,65.05947125,101.98193160,67.23422334,-30.84714358,153.77157881
-53.90737225,27.49559349,38.08977941,19.90404008,-1.97470950,-1.41193642
2.15841422

>  <Name>
ligand

>  <RI>
0

>  <Rbt.Current_Directory>
/home/itssahil/PROJECTS/Mol_Feturizer/New_Systems/rnas/3F2T

>  <Rbt.Executable>
rbdock ($Id: //depot/dev/client3/rdock/2013.1/src/exe/rbdock.cxx#4 $)

>  <Rbt.Library>
libRbt.so (2013.1, Build901 2013/11/27)

>  <Rbt.Parameter_File>
/export/apps/rDock/src/rDock_2013.1_src/data/scripts/dock_solv.prm

>  <Rbt.Receptor>
prm/pocket_docking_2.prm

>  <SCORE>
-26.6746

>  <SCORE.INTER>
-32.3624

>  <SCORE.INTER.CONST>
1

>  <SCORE.INTER.POLAR>
0

>  <SCORE.INTER.ROT>
7

>  <SCORE.INTER.SOLV>
18.3001

>  <SCORE.INTER.VDW>
-35.9417

>  <SCORE.INTER.norm>
-1.04395

>  <SCORE.INTRA>
5.68782

>  <SCORE.INTRA.DIHEDRAL>
7.83846

>  <SCORE.INTRA.DIHEDRAL.0>
4.64198

>  <SCORE.INTRA.POLAR>
0

>  <SCORE.INTRA.POLAR.0>
0

>  <SCORE.INTRA.REPUL>
0

>  <SCORE.INTRA.REPUL.0>
0

>  <SCORE.INTRA.SOLV>
2.64631

>  <SCORE.INTRA.SOLV.lig_0>
-49.3611

>  <SCORE.INTRA.VDW>
0.445431

>  <SCORE.INTRA.VDW.0>
-1.91858

>  <SCORE.INTRA.norm>
0.183478

>  <SCORE.RESTR>
0

>  <SCORE.RESTR.CAVITY>
0

>  <SCORE.RESTR.norm>
0

>  <SCORE.SYSTEM>
0

>  <SCORE.SYSTEM.CONST>
0

>  <SCORE.SYSTEM.DIHEDRAL>
0

>  <SCORE.SYSTEM.SOLV>
0

>  <SCORE.SYSTEM.norm>
0

>  <SCORE.heavy>
31

>  <SCORE.norm>
-0.860472

>  <RMSD>
1.268

$$$$
ligand
 OpenBabel11021811473D
libRbt.so/2013.1/901 2013/11/27
 31 33  0  0  0  0  0  0  0  0999 V2000
   26.6657   42.7270   17.0858 P   0  0  1  0  0  0  0  0  0  0  0  0
   26.8829   41.6661   16.0368 O   0  0  0  0  0  0  0  0  0  0  0  0
   27.1937   44.0368   16.5636 O   0  5  0  0  0  0  0  0  0  0  0  0
   25.1853   42.7749   17.3470 O   0  0  0  0  0  0  0  0  0  0  0  0
   28.5856   41.6113   18.4784 C   0  0  0  0  0  0  0  0  0  0  0  0
   27.4178   42.4057   18.4675 O   0  0  0  0  0  0  0  0  0  0  0  0
   28.2055   40.1558   18.2194 C   0  0  1  0  0  0  0  0  0  0  0  0
   29.3750   39.3810   18.0438 O   0  0  0  0  0  0  0  0  0  0  0  0
   27.4203   39.6059   19.3983 C   0  0  1  0  0  0  0  0  0  0  0  0
   26.1792   40.2575   19.4476 O   0  0  0  0  0  0  0  0  0  0  0  0
   27.1853   38.1081   19.2969 C   0  0  1  0  0  0  0  0  0  0  0  0
   26.8568   37.8034   17.9683 O   0  0  0  0  0  0  0  0  0  0  0  0
   28.4321   37.3351   19.6939 C   0  0  0  0  0  0  0  0  0  0  0  0
   28.4159   34.5703   19.1689 N   0  0  0  0  0  0  0  0  0  0  0  0
   28.3649   33.2316   18.8466 C   0  0  0  0  0  0  0  0  0  0  0  0
   28.6815   32.8565   17.7214 O   0  0  0  0  0  0  0  0  0  0  0  0
   27.9577   32.3046   19.7787 N   0  0  0  0  0  0  0  0  0  0  0  0
   27.6067   32.7078   21.0523 C   0  0  0  0  0  0  0  0  0  0  0  0
   27.6543   34.0566   21.3865 C   0  0  1  0  0  0  0  0  0  0  0  0
   27.2607   31.8714   21.8892 O   0  0  0  0  0  0  0  0  0  0  0  0
   27.3529   35.8077   22.9873 C   0  0  2  0  0  0  0  0  0  0  0  0
   27.3030   34.4668   22.6570 N   0  0  0  0  0  0  0  0  0  0  0  0
   26.9975   36.2209   24.2717 C   0  0  0  0  0  0  0  0  0  0  0  0
   27.0391   37.5677   24.6129 C   0  0  1  0  0  0  0  0  0  0  0  0
   26.6476   37.9743   25.9983 C   0  0  0  0  0  0  0  0  0  0  0  0
   27.4457   38.5154   23.6615 C   0  0  1  0  0  0  0  0  0  0  0  0
   27.5132   39.9810   23.9929 C   0  0  0  0  0  0  0  0  0  0  0  0
   27.7981   38.1001   22.3801 C   0  0  0  0  0  0  0  0  0  0  0  0
   27.7527   36.7481   22.0349 C   0  0  1  0  0  0  0  0  0  0  0  0
   28.0583   34.9902   20.4343 C   0  0  1  0  0  0  0  0  0  0  0  0
   28.1011   36.3328   20.7585 N   0  0  0  0  0  0  0  0  0  0  0  0
  1  2  1  6  0  0  0
  1  3  1  0  0  0  0
  1  4  2  0  0  0  0
  1  6  1  0  0  0  0
  5  6  1  0  0  0  0
  7  5  1  1  0  0  0
  7  8  1  0  0  0  0
  7  9  1  0  0  0  0
  9 10  1  6  0  0  0
  9 11  1  0  0  0  0
 11 12  1  6  0  0  0
 11 13  1  0  0  0  0
 13 31  1  0  0  0  0
 14 15  1  0  0  0  0
 15 16  2  0  0  0  0
 15 17  1  0  0  0  0
 17 18  1  0  0  0  0
 18 20  2  0  0  0  0
 19 18  1  1  0  0  0
 19 22  1  0  0  0  0
 19 30  1  0  0  0  0
 21 23  1  6  0  0  0
 21 29  1  0  0  0  0
 21 22  1  0  0  0  0
 23 24  1  0  0  0  0
 24 25  1  1  0  0  0
 24 26  1  0  0  0  0
 26 27  1  1  0  0  0
 26 28  1  0  0  0  0
 29 28  1  1  0  0  0
 29 31  1  0  0  0  0
 30 14  1  1  0  0  0
 30 31  1  0  0  0  0
M  CHG  1   3  -1
M  END
>  <CHROM.1>
-72.96664627,27.00483664,171.94447899,67.79393953,-41.52166118,126.59688238
-68.72176586,27.48254915,37.95277571,20.05190429,-2.06975217,-1.41019944
2.17555904

>  <Name>
ligand

>  <RI>
0

>  <Rbt.Current_Directory>
/home/itssahil/PROJECTS/Mol_Feturizer/New_Systems/rnas/3F2T

>  <Rbt.Executable>
rbdock ($Id: //depot/dev/client3/rdock/2013.1/src/exe/rbdock.cxx#4 $)

>  <Rbt.Library>
libRbt.so (2013.1, Build901 2013/11/27)

>  <Rbt.Parameter_File>
/export/apps/rDock/src/rDock_2013.1_src/data/scripts/dock_solv.prm

>  <Rbt.Receptor>
prm/pocket_docking_2.prm

>  <SCORE>
-28.4303

>  <SCORE.INTER>
-32.2369

>  <SCORE.INTER.CONST>
1

>  <SCORE.INTER.POLAR>
0

>  <SCORE.INTER.ROT>
7

>  <SCORE.INTER.SOLV>
16.9821

>  <SCORE.INTER.VDW>
-35.4186

>  <SCORE.INTER.norm>
-1.0399

>  <SCORE.INTRA>
3.80666

>  <SCORE.INTRA.DIHEDRAL>
5.45555

>  <SCORE.INTRA.DIHEDRAL.0>
4.64198

>  <SCORE.INTRA.POLAR>
0

>  <SCORE.INTRA.POLAR.0>
0

>  <SCORE.INTRA.REPUL>
0

>  <SCORE.INTRA.REPUL.0>
0

>  <SCORE.INTRA.SOLV>
1.54952

>  <SCORE.INTRA.SOLV.lig_0>
-49.3611

>  <SCORE.INTRA.VDW>
0.304125

>  <SCORE.INTRA.VDW.0>
-1.91858

>  <SCORE.INTRA.norm>
0.122795

>  <SCORE.RESTR>
0

>  <SCORE.RESTR.CAVITY>
0

>  <SCORE.RESTR.norm>
0

>  <SCORE.SYSTEM>
0

>  <SCORE.SYSTEM.CONST>
0

>  <SCORE.SYSTEM.DIHEDRAL>
0

>  <SCORE.SYSTEM.SOLV>
0

>  <SCORE.SYSTEM.norm>
0

>  <SCORE.heavy>
31

>  <SCORE.norm>
-0.917106

>  <RMSD>
1.268

$$$$
ligand
 OpenBabel11021811473D
libRbt.so/2013.1/901 2013/11/27
 31 33  0  0  0  0  0  0  0  0999 V2000
   27.0241   42.8999   16.6140 P   0  0  1  0  0  0  0  0  0  0  0  0
   27.4744   43.5867   17.8785 O   0  0  0  0  0  0  0  0  0  0  0  0
   25.6105   43.3220   16.3131 O   0  5  0  0  0  0  0  0  0  0  0  0
   27.9839   43.3177   15.5341 O   0  0  0  0  0  0  0  0  0  0  0  0
   28.2684   40.6142   16.9270 C   0  0  0  0  0  0  0  0  0  0  0  0
   27.0490   41.2984   16.7277 O   0  0  0  0  0  0  0  0  0  0  0  0
   27.9748   39.1775   17.3513 C   0  0  1  0  0  0  0  0  0  0  0  0
   29.1807   38.4422   17.4133 O   0  0  0  0  0  0  0  0  0  0  0  0
   27.3162   39.1642   18.7205 C   0  0  1  0  0  0  0  0  0  0  0  0
   26.0933   39.8452   18.6314 O   0  0  0  0  0  0  0  0  0  0  0  0
   27.0589   37.7567   19.2319 C   0  0  1  0  0  0  0  0  0  0  0  0
   26.6002   36.9766   18.1610 O   0  0  0  0  0  0  0  0  0  0  0  0
   28.3312   37.1412   19.7904 C   0  0  0  0  0  0  0  0  0  0  0  0
   28.3381   34.3606   19.3563 N   0  0  0  0  0  0  0  0  0  0  0  0
   28.2989   33.0117   19.0778 C   0  0  0  0  0  0  0  0  0  0  0  0
   28.6268   32.6022   17.9680 O   0  0  0  0  0  0  0  0  0  0  0  0
   27.8908   32.1128   20.0367 N   0  0  0  0  0  0  0  0  0  0  0  0
   27.5270   32.5551   21.2936 C   0  0  0  0  0  0  0  0  0  0  0  0
   27.5627   33.9145   21.5837 C   0  0  1  0  0  0  0  0  0  0  0  0
   27.1803   31.7442   22.1549 O   0  0  0  0  0  0  0  0  0  0  0  0
   27.2368   35.7148   23.1238 C   0  0  2  0  0  0  0  0  0  0  0  0
   27.1987   34.3636   22.8373 N   0  0  0  0  0  0  0  0  0  0  0  0
   26.8685   36.1674   24.3913 C   0  0  0  0  0  0  0  0  0  0  0  0
   26.8982   37.5249   24.6883 C   0  0  1  0  0  0  0  0  0  0  0  0
   26.4931   37.9739   26.0566 C   0  0  0  0  0  0  0  0  0  0  0  0
   27.3057   38.4438   23.7094 C   0  0  1  0  0  0  0  0  0  0  0  0
   27.3606   39.9199   23.9930 C   0  0  0  0  0  0  0  0  0  0  0  0
   27.6710   37.9892   22.4450 C   0  0  0  0  0  0  0  0  0  0  0  0
   27.6376   36.6264   22.1442 C   0  0  1  0  0  0  0  0  0  0  0  0
   27.9678   34.8192   20.6044 C   0  0  1  0  0  0  0  0  0  0  0  0
   27.9988   36.1719   20.8848 N   0  0  0  0  0  0  0  0  0  0  0  0
  1  2  1  1  0  0  0
  1  3  1  0  0  0  0
  1  4  2  0  0  0  0
  1  6  1  0  0  0  0
  5  6  1  0  0  0  0
  7  5  1  1  0  0  0
  7  8  1  0  0  0  0
  7  9  1  0  0  0  0
  9 10  1  6  0  0  0
  9 11  1  0  0  0  0
 11 12  1  6  0  0  0
 11 13  1  0  0  0  0
 13 31  1  0  0  0  0
 14 15  1  0  0  0  0
 15 16  2  0  0  0  0
 15 17  1  0  0  0  0
 17 18  1  0  0  0  0
 18 20  2  0  0  0  0
 19 18  1  1  0  0  0
 19 22  1  0  0  0  0
 19 30  1  0  0  0  0
 21 23  1  6  0  0  0
 21 29  1  0  0  0  0
 21 22  1  0  0  0  0
 23 24  1  0  0  0  0
 24 25  1  1  0  0  0
 24 26  1  0  0  0  0
 26 27  1  1  0  0  0
 26 28  1  0  0  0  0
 29 28  1  1  0  0  0
 29 31  1  0  0  0  0
 30 14  1  1  0  0  0
 30 31  1  0  0  0  0
M  CHG  1   3  -1
M  END
>  <CHROM.1>
165.61617158,-63.58027533,173.69512230,62.24041187,-40.90867163,149.95936156
-76.22776756,27.45753198,37.75309701,19.89330720,1.79675542,1.39846820,-0.78581546

>  <Name>
ligand

>  <RI>
0

>  <Rbt.Current_Directory>
/home/itssahil/PROJECTS/Mol_Feturizer/New_Systems/rnas/3F2T

>  <Rbt.Executable>
rbdock ($Id: //depot/dev/client3/rdock/2013.1/src/exe/rbdock.cxx#4 $)

>  <Rbt.Library>
libRbt.so (2013.1, Build901 2013/11/27)

>  <Rbt.Parameter_File>
/export/apps/rDock/src/rDock_2013.1_src/data/scripts/dock_solv.prm

>  <Rbt.Receptor>
prm/pocket_docking_4.prm

>  <SCORE>
-30.8158

>  <SCORE.INTER>
-32.3558

>  <SCORE.INTER.CONST>
1

>  <SCORE.INTER.POLAR>
0

>  <SCORE.INTER.ROT>
7

>  <SCORE.INTER.SOLV>
20.3167

>  <SCORE.INTER.VDW>
-36.6094

>  <SCORE.INTER.norm>
-1.04374

>  <SCORE.INTRA>
1.53996

>  <SCORE.INTRA.DIHEDRAL>
1.49202

>  <SCORE.INTRA.DIHEDRAL.0>
4.64198

>  <SCORE.INTRA.POLAR>
0

>  <SCORE.INTRA.POLAR.0>
0

>  <SCORE.INTRA.REPUL>
0

>  <SCORE.INTRA.REPUL.0>
0

>  <SCORE.INTRA.SOLV>
0.274216

>  <SCORE.INTRA.SOLV.lig_0>
-49.3611

>  <SCORE.INTRA.VDW>
0.656844

>  <SCORE.INTRA.VDW.0>
-1.91858

>  <SCORE.INTRA.norm>
0.0496761

>  <SCORE.RESTR>
0

>  <SCORE.RESTR.CAVITY>
0

>  <SCORE.RESTR.norm>
0

>  <SCORE.SYSTEM>
0

>  <SCORE.SYSTEM.CONST>
0

>  <SCORE.SYSTEM.DIHEDRAL>
0

>  <SCORE.SYSTEM.SOLV>
0

>  <SCORE.SYSTEM.norm>
0

>  <SCORE.heavy>
31

>  <SCORE.norm>
-0.994059

>  <RMSD>
1.268

$$$$
ligand
 OpenBabel11021811473D
libRbt.so/2013.1/901 2013/11/27
 31 33  0  0  0  0  0  0  0  0999 V2000
   25.2088   43.2260   17.7374 P   0  0  1  0  0  0  0  0  0  0  0  0
   24.5789   42.7076   16.4694 O   0  0  0  0  0  0  0  0  0  0  0  0
   26.6698   43.4835   17.4797 O   0  5  0  0  0  0  0  0  0  0  0  0
   24.4663   44.4819   18.1027 O   0  0  0  0  0  0  0  0  0  0  0  0
   25.7017   40.9187   18.8792 C   0  0  0  0  0  0  0  0  0  0  0  0
   25.0968   42.1923   18.9610 O   0  0  0  0  0  0  0  0  0  0  0  0
   27.2082   41.0643   19.0781 C   0  0  1  0  0  0  0  0  0  0  0  0
   27.4811   41.4109   20.4213 O   0  0  0  0  0  0  0  0  0  0  0  0
   27.9044   39.7532   18.7542 C   0  0  1  0  0  0  0  0  0  0  0  0
   29.2860   39.9323   18.9169 O   0  0  0  0  0  0  0  0  0  0  0  0
   27.4481   38.6124   19.6482 C   0  0  1  0  0  0  0  0  0  0  0  0
   26.2929   38.0492   19.0874 O   0  0  0  0  0  0  0  0  0  0  0  0
   28.5236   37.5442   19.7565 C   0  0  0  0  0  0  0  0  0  0  0  0
   28.4752   34.7917   19.1722 N   0  0  0  0  0  0  0  0  0  0  0  0
   28.4111   33.4611   18.8198 C   0  0  0  0  0  0  0  0  0  0  0  0
   28.7589   33.1035   17.6982 O   0  0  0  0  0  0  0  0  0  0  0  0
   27.9558   32.5227   19.7177 N   0  0  0  0  0  0  0  0  0  0  0  0
   27.5690   32.9059   20.9871 C   0  0  0  0  0  0  0  0  0  0  0  0
   27.6295   34.2464   21.3514 C   0  0  1  0  0  0  0  0  0  0  0  0
   27.1797   32.0591   21.7938 O   0  0  0  0  0  0  0  0  0  0  0  0
   27.3056   35.9692   22.9783 C   0  0  2  0  0  0  0  0  0  0  0  0
   27.2427   34.6367   22.6179 N   0  0  0  0  0  0  0  0  0  0  0  0
   26.9142   36.3624   24.2586 C   0  0  0  0  0  0  0  0  0  0  0  0
   26.9685   37.7007   24.6297 C   0  0  1  0  0  0  0  0  0  0  0  0
   26.5376   38.0858   26.0095 C   0  0  0  0  0  0  0  0  0  0  0  0
   27.4243   38.6602   23.7129 C   0  0  1  0  0  0  0  0  0  0  0  0
   27.5070   40.1170   24.0777 C   0  0  0  0  0  0  0  0  0  0  0  0
   27.8125   38.2650   22.4355 C   0  0  0  0  0  0  0  0  0  0  0  0
   27.7544   36.9216   22.0602 C   0  0  1  0  0  0  0  0  0  0  0  0
   28.0825   35.1918   20.4335 C   0  0  1  0  0  0  0  0  0  0  0  0
   28.1385   36.5263   20.7877 N   0  0  0  0  0  0  0  0  0  0  0  0
  1  2  1  6  0  0  0
  1  3  1  0  0  0  0
  1  4  2  0  0  0  0
  1  6  1  0  0  0  0
  5  6  1  0  0  0  0
  7  5  1  1  0  0  0
  7  8  1  0  0  0  0
  7  9  1  0  0  0  0
  9 10  1  1  0  0  0
  9 11  1  0  0  0  0
 11 12  1  6  0  0  0
 11 13  1  0  0  0  0
 13 31  1  0  0  0  0
 14 15  1  0  0  0  0
 15 16  2  0  0  0  0
 15 17  1  0  0  0  0
 17 18  1  0  0  0  0
 18 20  2  0  0  0  0
 19 18  1  1  0  0  0
 19 22  1  0  0  0  0
 19 30  1  0  0  0  0
 21 23  1  6  0  0  0
 21 29  1  0  0  0  0
 21 22  1  0  0  0  0
 23 24  1  0  0  0  0
 24 25  1  1  0  0  0
 24 26  1  0  0  0  0
 26 27  1  1  0  0  0
 26 28  1  0  0  0  0
 29 28  1  1  0  0  0
 29 31  1  0  0  0  0
 30 14  1  1  0  0  0
 30 31  1  0  0  0  0
M  CHG  1   3  -1
M  END
>  <CHROM.1>
75.94440561,61.60784560,69.96664474,178.62592893,85.65581892,172.06994478
-51.21753728,27.09269972,38.25324508,20.32327237,-2.76612477,-1.32874500
1.60356019

>  <Name>
ligand

>  <RI>
0

>  <Rbt.Current_Directory>
/home/itssahil/PROJECTS/Mol_Feturizer/New_Systems/rnas/3F2T

>  <Rbt.Executable>
rbdock ($Id: //depot/dev/client3/rdock/2013.1/src/exe/rbdock.cxx#4 $)

>  <Rbt.Library>
libRbt.so (2013.1, Build901 2013/11/27)

>  <Rbt.Parameter_File>
/export/apps/rDock/src/rDock_2013.1_src/data/scripts/dock_solv.prm

>  <Rbt.Receptor>
prm/pocket_docking_7.prm

>  <SCORE>
-27.7759

>  <SCORE.INTER>
-30.5324

>  <SCORE.INTER.CONST>
1

>  <SCORE.INTER.POLAR>
0

>  <SCORE.INTER.ROT>
7

>  <SCORE.INTER.SOLV>
17.0952

>  <SCORE.INTER.VDW>
-34.32

>  <SCORE.INTER.norm>
-0.984916

>  <SCORE.INTRA>
2.75644

>  <SCORE.INTRA.DIHEDRAL>
0.460397

>  <SCORE.INTRA.DIHEDRAL.0>
4.64198

>  <SCORE.INTRA.POLAR>
0

>  <SCORE.INTRA.POLAR.0>
0

>  <SCORE.INTRA.REPUL>
0

>  <SCORE.INTRA.REPUL.0>
0

>  <SCORE.INTRA.SOLV>
1.56613

>  <SCORE.INTRA.SOLV.lig_0>
-49.3611

>  <SCORE.INTRA.VDW>
1.74317

>  <SCORE.INTRA.VDW.0>
-1.91858

>  <SCORE.INTRA.norm>
0.0889174

>  <SCORE.RESTR>
0

>  <SCORE.RESTR.CAVITY>
0

>  <SCORE.RESTR.norm>
0

>  <SCORE.SYSTEM>
0

>  <SCORE.SYSTEM.CONST>
0

>  <SCORE.SYSTEM.DIHEDRAL>
0

>  <SCORE.SYSTEM.SOLV>
0

>  <SCORE.SYSTEM.norm>
0

>  <SCORE.heavy>
31

>  <SCORE.norm>
-0.895998

>  <RMSD>
1.274

$$$$
ligand
 OpenBabel11021811473D
libRbt.so/2013.1/901 2013/11/27
 31 33  0  0  0  0  0  0  0  0999 V2000
   26.3109   43.0507   16.6398 P   0  0  1  0  0  0  0  0  0  0  0  0
   24.8481   42.8031   16.9086 O   0  0  0  0  0  0  0  0  0  0  0  0
   26.5265   43.0971   15.1504 O   0  5  0  0  0  0  0  0  0  0  0  0
   26.6540   44.3556   17.3045 O   0  0  0  0  0  0  0  0  0  0  0  0
   27.3035   40.6248   16.6480 C   0  0  0  0  0  0  0  0  0  0  0  0
   27.2615   41.9054   17.2422 O   0  0  0  0  0  0  0  0  0  0  0  0
   27.9801   39.6482   17.6063 C   0  0  1  0  0  0  0  0  0  0  0  0
   29.2914   40.0922   17.8933 O   0  0  0  0  0  0  0  0  0  0  0  0
   27.1922   39.5619   18.9027 C   0  0  1  0  0  0  0  0  0  0  0  0
   25.9346   40.1480   18.6974 O   0  0  0  0  0  0  0  0  0  0  0  0
   26.9966   38.1307   19.3740 C   0  0  1  0  0  0  0  0  0  0  0  0
   26.5765   37.3610   18.2799 O   0  0  0  0  0  0  0  0  0  0  0  0
   28.2935   37.5573   19.9206 C   0  0  0  0  0  0  0  0  0  0  0  0
   28.3277   34.7965   19.3760 N   0  0  0  0  0  0  0  0  0  0  0  0
   28.3001   33.4591   19.0449 C   0  0  0  0  0  0  0  0  0  0  0  0
   28.6063   33.0987   17.9121 O   0  0  0  0  0  0  0  0  0  0  0  0
   27.9280   32.5172   19.9767 N   0  0  0  0  0  0  0  0  0  0  0  0
   27.5892   32.9041   21.2587 C   0  0  0  0  0  0  0  0  0  0  0  0
   27.6134   34.2513   21.6018 C   0  0  1  0  0  0  0  0  0  0  0  0
   27.2748   32.0548   22.0950 O   0  0  0  0  0  0  0  0  0  0  0  0
   27.3008   35.9844   23.2198 C   0  0  2  0  0  0  0  0  0  0  0  0
   27.2742   34.6451   22.8807 N   0  0  0  0  0  0  0  0  0  0  0  0
   26.9576   36.3812   24.5128 C   0  0  0  0  0  0  0  0  0  0  0  0
   26.9760   37.7261   24.8629 C   0  0  1  0  0  0  0  0  0  0  0  0
   26.5985   38.1147   26.2574 C   0  0  0  0  0  0  0  0  0  0  0  0
   27.3467   38.6888   23.9119 C   0  0  1  0  0  0  0  0  0  0  0  0
   27.3884   40.1532   24.2528 C   0  0  0  0  0  0  0  0  0  0  0  0
   27.6871   38.2900   22.6220 C   0  0  0  0  0  0  0  0  0  0  0  0
   27.6649   36.9398   22.2680 C   0  0  1  0  0  0  0  0  0  0  0  0
   27.9819   35.1999   20.6499 C   0  0  1  0  0  0  0  0  0  0  0  0
   28.0013   36.5408   20.9831 N   0  0  0  0  0  0  0  0  0  0  0  0
  1  2  1  1  0  0  0
  1  3  1  0  0  0  0
  1  4  2  0  0  0  0
  1  6  1  0  0  0  0
  5  6  1  0  0  0  0
  7  5  1  6  0  0  0
  7  8  1  0  0  0  0
  7  9  1  0  0  0  0
  9 10  1  6  0  0  0
  9 11  1  0  0  0  0
 11 12  1  6  0  0  0
 11 13  1  0  0  0  0
 13 31  1  0  0  0  0
 14 15  1  0  0  0  0
 15 16  2  0  0  0  0
 15 17  1  0  0  0  0
 17 18  1  0  0  0  0
 18 20  2  0  0  0  0
 19 18  1  1  0  0  0
 19 22  1  0  0  0  0
 19 30  1  0  0  0  0
 21 23  1  6  0  0  0
 21 29  1  0  0  0  0
 21 22  1  0  0  0  0
 23 24  1  0  0  0  0
 24 25  1  1  0  0  0
 24 26  1  0  0  0  0
 26 27  1  1  0  0  0
 26 28  1  0  0  0  0
 29 28  1  1  0  0  0
 29 31  1  0  0  0  0
 30 14  1  1  0  0  0
 30 31  1  0  0  0  0
M  CHG  1   3  -1
M  END
>  <CHROM.1>
-165.31784040,72.18988151,-59.30600458,13.99958591,-46.80566646,150.15069754
-78.75479543,27.29042159,38.08893847,19.97478037,2.21820496,1.39337041,-1.22700334

>  <Name>
ligand

>  <RI>
0

>  <Rbt.Current_Directory>
/home/itssahil/PROJECTS/Mol_Feturizer/New_Systems/rnas/3F2T

>  <Rbt.Executable>
rbdock ($Id: //depot/dev/client3/rdock/2013.1/src/exe/rbdock.cxx#4 $)

>  <Rbt.Library>
libRbt.so (2013.1, Build901 2013/11/27)

>  <Rbt.Parameter_File>
/export/apps/rDock/src/rDock_2013.1_src/data/scripts/dock_solv.prm

>  <Rbt.Receptor>
prm/pocket_docking_5.prm

>  <SCORE>
-25.3516

>  <SCORE.INTER>
-30.9931

>  <SCORE.INTER.CONST>
1

>  <SCORE.INTER.POLAR>
0

>  <SCORE.INTER.ROT>
7

>  <SCORE.INTER.SOLV>
20.2238

>  <SCORE.INTER.VDW>
-35.67

>  <SCORE.INTER.norm>
-0.999778

>  <SCORE.INTRA>
5.64153

>  <SCORE.INTRA.DIHEDRAL>
5.60052

>  <SCORE.INTRA.DIHEDRAL.0>
4.64198

>  <SCORE.INTRA.POLAR>
0

>  <SCORE.INTRA.POLAR.0>
0

>  <SCORE.INTRA.REPUL>
0

>  <SCORE.INTRA.REPUL.0>
0

>  <SCORE.INTRA.SOLV>
0.326377

>  <SCORE.INTRA.SOLV.lig_0>
-49.3611

>  <SCORE.INTRA.VDW>
2.67809

>  <SCORE.INTRA.VDW.0>
-1.91858

>  <SCORE.INTRA.norm>
0.181985

>  <SCORE.RESTR>
0

>  <SCORE.RESTR.CAVITY>
0

>  <SCORE.RESTR.norm>
0

>  <SCORE.SYSTEM>
0

>  <SCORE.SYSTEM.CONST>
0

>  <SCORE.SYSTEM.DIHEDRAL>
0

>  <SCORE.SYSTEM.SOLV>
0

>  <SCORE.SYSTEM.norm>
0

>  <SCORE.heavy>
31

>  <SCORE.norm>
-0.817793

>  <RMSD>
1.279

$$$$
ligand
 OpenBabel11021811473D
libRbt.so/2013.1/901 2013/11/27
 31 33  0  0  0  0  0  0  0  0999 V2000
   26.5276   43.1625   16.5693 P   0  0  1  0  0  0  0  0  0  0  0  0
   27.8428   43.8361   16.8690 O   0  0  0  0  0  0  0  0  0  0  0  0
   25.4478   43.8319   17.3773 O   0  5  0  0  0  0  0  0  0  0  0  0
   26.3006   43.3046   15.0894 O   0  0  0  0  0  0  0  0  0  0  0  0
   27.6891   40.8202   16.7573 C   0  0  0  0  0  0  0  0  0  0  0  0
   26.5253   41.5998   16.9385 O   0  0  0  0  0  0  0  0  0  0  0  0
   27.4133   39.3913   17.2182 C   0  0  1  0  0  0  0  0  0  0  0  0
   28.5597   38.5916   17.0060 O   0  0  0  0  0  0  0  0  0  0  0  0
   27.0692   39.3798   18.6982 C   0  0  1  0  0  0  0  0  0  0  0  0
   25.8952   40.1237   18.8866 O   0  0  0  0  0  0  0  0  0  0  0  0
   26.8534   37.9758   19.2374 C   0  0  1  0  0  0  0  0  0  0  0  0
   26.2541   37.2053   18.2308 O   0  0  0  0  0  0  0  0  0  0  0  0
   28.1742   37.3384   19.6359 C   0  0  0  0  0  0  0  0  0  0  0  0
   28.2530   34.5721   19.1250 N   0  0  0  0  0  0  0  0  0  0  0  0
   28.2442   33.2301   18.8121 C   0  0  0  0  0  0  0  0  0  0  0  0
   28.5096   32.8618   17.6717 O   0  0  0  0  0  0  0  0  0  0  0  0
   27.9363   32.2922   19.7711 N   0  0  0  0  0  0  0  0  0  0  0  0
   27.6441   32.6882   21.0617 C   0  0  0  0  0  0  0  0  0  0  0  0
   27.6499   34.0402   21.3865 C   0  0  1  0  0  0  0  0  0  0  0  0
   27.3875   31.8430   21.9216 O   0  0  0  0  0  0  0  0  0  0  0  0
   27.3651   35.7871   22.9948 C   0  0  2  0  0  0  0  0  0  0  0  0
   27.3569   34.4430   22.6740 N   0  0  0  0  0  0  0  0  0  0  0  0
   27.0687   36.1929   24.2965 C   0  0  0  0  0  0  0  0  0  0  0  0
   27.0690   37.5426   24.6286 C   0  0  1  0  0  0  0  0  0  0  0  0
   26.7430   37.9409   26.0333 C   0  0  0  0  0  0  0  0  0  0  0  0
   27.3741   38.5010   23.6503 C   0  0  1  0  0  0  0  0  0  0  0  0
   27.3943   39.9704   23.9707 C   0  0  0  0  0  0  0  0  0  0  0  0
   27.6678   38.0930   22.3519 C   0  0  0  0  0  0  0  0  0  0  0  0
   27.6637   36.7379   22.0161 C   0  0  1  0  0  0  0  0  0  0  0  0
   27.9530   34.9843   20.4076 C   0  0  1  0  0  0  0  0  0  0  0  0
   27.9537   36.3297   20.7228 N   0  0  0  0  0  0  0  0  0  0  0  0
  1  2  1  1  0  0  0
  1  3  1  0  0  0  0
  1  4  2  0  0  0  0
  1  6  1  0  0  0  0
  5  6  1  0  0  0  0
  7  5  1  1  0  0  0
  7  8  1  0  0  0  0
  7  9  1  0  0  0  0
  9 10  1  6  0  0  0
  9 11  1  0  0  0  0
 11 12  1  6  0  0  0
 11 13  1  0  0  0  0
 13 31  1  0  0  0  0
 14 15  1  0  0  0  0
 15 16  2  0  0  0  0
 15 17  1  0  0  0  0
 17 18  1  0  0  0  0
 18 20  2  0  0  0  0
 19 18  1  1  0  0  0
 19 22  1  0  0  0  0
 19 30  1  0  0  0  0
 21 23  1  6  0  0  0
 21 29  1  0  0  0  0
 21 22  1  0  0  0  0
 23 24  1  0  0  0  0
 24 25  1  1  0  0  0
 24 26  1  0  0  0  0
 26 27  1  1  0  0  0
 26 28  1  0  0  0  0
 29 28  1  1  0  0  0
 29 31  1  0  0  0  0
 30 14  1  1  0  0  0
 30 31  1  0  0  0  0
M  CHG  1   3  -1
M  END
>  <CHROM.1>
178.61445954,-35.74464984,178.33357479,62.40351092,-34.87145683,152.37539342
-73.02340995,27.29219279,37.92413298,19.78126961,2.23204234,1.40877927,-1.20406877

>  <Name>
ligand

>  <RI>
0

>  <Rbt.Current_Directory>
/home/itssahil/PROJECTS/Mol_Feturizer/New_Systems/rnas/3F2T

>  <Rbt.Executable>
rbdock ($Id: //depot/dev/client3/rdock/2013.1/src/exe/rbdock.cxx#4 $)

>  <Rbt.Library>
libRbt.so (2013.1, Build901 2013/11/27)

>  <Rbt.Parameter_File>
/export/apps/rDock/src/rDock_2013.1_src/data/scripts/dock_solv.prm

>  <Rbt.Receptor>
prm/blind_docking_80.prm

>  <SCORE>
-31.1052

>  <SCORE.INTER>
-32.8573

>  <SCORE.INTER.CONST>
1

>  <SCORE.INTER.POLAR>
0

>  <SCORE.INTER.ROT>
7

>  <SCORE.INTER.SOLV>
19.7756

>  <SCORE.INTER.VDW>
-36.7634

>  <SCORE.INTER.norm>
-1.05991

>  <SCORE.INTRA>
1.75213

>  <SCORE.INTRA.DIHEDRAL>
1.62576

>  <SCORE.INTRA.DIHEDRAL.0>
4.64198

>  <SCORE.INTRA.POLAR>
0

>  <SCORE.INTRA.POLAR.0>
0

>  <SCORE.INTRA.REPUL>
0

>  <SCORE.INTRA.REPUL.0>
0

>  <SCORE.INTRA.SOLV>
0.112968

>  <SCORE.INTRA.SOLV.lig_0>
-49.3611

>  <SCORE.INTRA.VDW>
0.882766

>  <SCORE.INTRA.VDW.0>
-1.91858

>  <SCORE.INTRA.norm>
0.0565203

>  <SCORE.RESTR>
0

>  <SCORE.RESTR.CAVITY>
0

>  <SCORE.RESTR.norm>
0

>  <SCORE.SYSTEM>
0

>  <SCORE.SYSTEM.CONST>
0

>  <SCORE.SYSTEM.DIHEDRAL>
0

>  <SCORE.SYSTEM.SOLV>
0

>  <SCORE.SYSTEM.norm>
0

>  <SCORE.heavy>
31

>  <SCORE.norm>
-1.00339

>  <RMSD>
1.281

$$$$
ligand
 OpenBabel11021811473D
libRbt.so/2013.1/901 2013/11/27
 31 33  0  0  0  0  0  0  0  0999 V2000
   27.6801   43.1189   16.9730 P   0  0  1  0  0  0  0  0  0  0  0  0
   27.9739   43.1196   15.4941 O   0  0  0  0  0  0  0  0  0  0  0  0
   28.9850   43.1407   17.7238 O   0  5  0  0  0  0  0  0  0  0  0  0
   26.8474   44.3413   17.2453 O   0  0  0  0  0  0  0  0  0  0  0  0
   27.2116   40.5399   16.9794 C   0  0  0  0  0  0  0  0  0  0  0  0
   26.8574   41.8244   17.4480 O   0  0  0  0  0  0  0  0  0  0  0  0
   27.1295   39.5440   18.1333 C   0  0  1  0  0  0  0  0  0  0  0  0
   25.9143   39.7233   18.8332 O   0  0  0  0  0  0  0  0  0  0  0  0
   27.1873   38.1229   17.5985 C   0  0  1  0  0  0  0  0  0  0  0  0
   28.4425   37.9226   17.0055 O   0  0  0  0  0  0  0  0  0  0  0  0
   26.9851   37.0804   18.6853 C   0  0  1  0  0  0  0  0  0  0  0  0
   26.8235   35.8304   18.0710 O   0  0  0  0  0  0  0  0  0  0  0  0
   28.1843   37.0286   19.6174 C   0  0  0  0  0  0  0  0  0  0  0  0
   28.2910   34.2406   19.2491 N   0  0  0  0  0  0  0  0  0  0  0  0
   28.2984   32.8846   19.0037 C   0  0  0  0  0  0  0  0  0  0  0  0
   28.6112   32.4611   17.8949 O   0  0  0  0  0  0  0  0  0  0  0  0
   27.9540   31.9944   19.9951 N   0  0  0  0  0  0  0  0  0  0  0  0
   27.6082   32.4529   21.2513 C   0  0  0  0  0  0  0  0  0  0  0  0
   27.5973   33.8193   21.5080 C   0  0  1  0  0  0  0  0  0  0  0  0
   27.3188   31.6504   22.1412 O   0  0  0  0  0  0  0  0  0  0  0  0
   27.2425   35.6430   23.0140 C   0  0  2  0  0  0  0  0  0  0  0  0
   27.2509   34.2846   22.7608 N   0  0  0  0  0  0  0  0  0  0  0  0
   26.8921   36.1119   24.2806 C   0  0  0  0  0  0  0  0  0  0  0  0
   26.8754   37.4764   24.5446 C   0  0  1  0  0  0  0  0  0  0  0  0
   26.4912   37.9428   25.9131 C   0  0  0  0  0  0  0  0  0  0  0  0
   27.2178   38.3862   23.5328 C   0  0  1  0  0  0  0  0  0  0  0  0
   27.2211   39.8699   23.7797 C   0  0  0  0  0  0  0  0  0  0  0  0
   27.5654   37.9153   22.2694 C   0  0  0  0  0  0  0  0  0  0  0  0
   27.5785   36.5452   22.0019 C   0  0  1  0  0  0  0  0  0  0  0  0
   27.9378   34.7149   20.4963 C   0  0  1  0  0  0  0  0  0  0  0  0
   27.9222   36.0743   20.7436 N   0  0  0  0  0  0  0  0  0  0  0  0
  1  2  1  6  0  0  0
  1  3  1  0  0  0  0
  1  4  2  0  0  0  0
  1  6  1  0  0  0  0
  5  6  1  0  0  0  0
  7  5  1  6  0  0  0
  7  8  1  0  0  0  0
  7  9  1  0  0  0  0
  9 10  1  1  0  0  0
  9 11  1  0  0  0  0
 11 12  1  6  0  0  0
 11 13  1  0  0  0  0
 13 31  1  0  0  0  0
 14 15  1  0  0  0  0
 15 16  2  0  0  0  0
 15 17  1  0  0  0  0
 17 18  1  0  0  0  0
 18 20  2  0  0  0  0
 19 18  1  1  0  0  0
 19 22  1  0  0  0  0
 19 30  1  0  0  0  0
 21 23  1  6  0  0  0
 21 29  1  0  0  0  0
 21 22  1  0  0  0  0
 23 24  1  0  0  0  0
 24 25  1  1  0  0  0
 24 26  1  0  0  0  0
 26 27  1  1  0  0  0
 26 28  1  0  0  0  0
 29 28  1  1  0  0  0
 29 31  1  0  0  0  0
 30 14  1  1  0  0  0
 30 31  1  0  0  0  0
M  CHG  1   3  -1
M  END
>  <CHROM.1>
138.56902180,43.94757741,46.99102281,64.56956746,169.92042831,175.53891118
-102.43943044,27.49593858,37.64553108,19.87248320,-1.61057052,-1.42380216
2.61858478

>  <Name>
ligand

>  <RI>
0

>  <Rbt.Current_Directory>
/home/itssahil/PROJECTS/Mol_Feturizer/New_Systems/rnas/3F2T

>  <Rbt.Executable>
rbdock ($Id: //depot/dev/client3/rdock/2013.1/src/exe/rbdock.cxx#4 $)

>  <Rbt.Library>
libRbt.so (2013.1, Build901 2013/11/27)

>  <Rbt.Parameter_File>
/export/apps/rDock/src/rDock_2013.1_src/data/scripts/dock_solv.prm

>  <Rbt.Receptor>
prm/pocket_docking_2.prm

>  <SCORE>
-28.8926

>  <SCORE.INTER>
-31.8009

>  <SCORE.INTER.CONST>
1

>  <SCORE.INTER.POLAR>
0

>  <SCORE.INTER.ROT>
7

>  <SCORE.INTER.SOLV>
21.8558

>  <SCORE.INTER.VDW>
-36.7525

>  <SCORE.INTER.norm>
-1.02584

>  <SCORE.INTRA>
2.78077

>  <SCORE.INTRA.DIHEDRAL>
3.63269

>  <SCORE.INTRA.DIHEDRAL.0>
4.64198

>  <SCORE.INTRA.POLAR>
0

>  <SCORE.INTRA.POLAR.0>
0

>  <SCORE.INTRA.REPUL>
0

>  <SCORE.INTRA.REPUL.0>
0

>  <SCORE.INTRA.SOLV>
-0.28721

>  <SCORE.INTRA.SOLV.lig_0>
-49.3611

>  <SCORE.INTRA.VDW>
1.10803

>  <SCORE.INTRA.VDW.0>
-1.91858

>  <SCORE.INTRA.norm>
0.0897023

>  <SCORE.RESTR>
0.127537

>  <SCORE.RESTR.CAVITY>
0.127537

>  <SCORE.RESTR.norm>
0.00411408

>  <SCORE.SYSTEM>
0

>  <SCORE.SYSTEM.CONST>
0

>  <SCORE.SYSTEM.DIHEDRAL>
0

>  <SCORE.SYSTEM.SOLV>
0

>  <SCORE.SYSTEM.norm>
0

>  <SCORE.heavy>
31

>  <SCORE.norm>
-0.932019

>  <RMSD>
1.287

$$$$
ligand
 OpenBabel11021811473D
libRbt.so/2013.1/901 2013/11/27
 31 33  0  0  0  0  0  0  0  0999 V2000
   26.3526   42.9852   16.6691 P   0  0  1  0  0  0  0  0  0  0  0  0
   24.8837   42.6721   16.8014 O   0  0  0  0  0  0  0  0  0  0  0  0
   26.7241   42.9484   15.2104 O   0  5  0  0  0  0  0  0  0  0  0  0
   26.5567   44.3474   17.2731 O   0  0  0  0  0  0  0  0  0  0  0  0
   27.4240   40.6125   16.9736 C   0  0  0  0  0  0  0  0  0  0  0  0
   27.2894   41.9370   17.4450 O   0  0  0  0  0  0  0  0  0  0  0  0
   28.1250   39.7699   18.0361 C   0  0  1  0  0  0  0  0  0  0  0  0
   27.4523   39.9041   19.2723 O   0  0  0  0  0  0  0  0  0  0  0  0
   28.1195   38.3068   17.6262 C   0  0  1  0  0  0  0  0  0  0  0  0
   29.1387   38.1061   16.6838 O   0  0  0  0  0  0  0  0  0  0  0  0
   28.3446   37.3696   18.8008 C   0  0  1  0  0  0  0  0  0  0  0  0
   29.3433   37.9195   19.6171 O   0  0  0  0  0  0  0  0  0  0  0  0
   27.0711   37.2015   19.6128 C   0  0  0  0  0  0  0  0  0  0  0  0
   27.2946   34.4357   19.1432 N   0  0  0  0  0  0  0  0  0  0  0  0
   27.3390   33.0863   18.8677 C   0  0  0  0  0  0  0  0  0  0  0  0
   27.2907   32.6930   17.7059 O   0  0  0  0  0  0  0  0  0  0  0  0
   27.4351   32.1686   19.8888 N   0  0  0  0  0  0  0  0  0  0  0  0
   27.4998   32.5937   21.2014 C   0  0  0  0  0  0  0  0  0  0  0  0
   27.4549   33.9533   21.4891 C   0  0  1  0  0  0  0  0  0  0  0  0
   27.6048   31.7685   22.1111 O   0  0  0  0  0  0  0  0  0  0  0  0
   27.4743   35.7370   23.0822 C   0  0  2  0  0  0  0  0  0  0  0  0
   27.5172   34.3851   22.7988 N   0  0  0  0  0  0  0  0  0  0  0  0
   27.5372   36.1721   24.4064 C   0  0  0  0  0  0  0  0  0  0  0  0
   27.4897   37.5292   24.7028 C   0  0  1  0  0  0  0  0  0  0  0  0
   27.5560   37.9587   26.1343 C   0  0  0  0  0  0  0  0  0  0  0  0
   27.3829   38.4661   23.6638 C   0  0  1  0  0  0  0  0  0  0  0  0
   27.3376   39.9437   23.9412 C   0  0  0  0  0  0  0  0  0  0  0  0
   27.3187   38.0287   22.3435 C   0  0  0  0  0  0  0  0  0  0  0  0
   27.3621   36.6657   22.0448 C   0  0  1  0  0  0  0  0  0  0  0  0
   27.3477   34.8759   20.4504 C   0  0  1  0  0  0  0  0  0  0  0  0
   27.2959   36.2280   20.7306 N   0  0  0  0  0  0  0  0  0  0  0  0
  1  2  1  1  0  0  0
  1  3  1  0  0  0  0
  1  4  2  0  0  0  0
  1  6  1  0  0  0  0
  5  6  1  0  0  0  0
  7  5  1  6  0  0  0
  7  8  1  0  0  0  0
  7  9  1  0  0  0  0
  9 10  1  6  0  0  0
  9 11  1  0  0  0  0
 11 12  1  1  0  0  0
 11 13  1  0  0  0  0
 13 31  1  0  0  0  0
 14 15  1  0  0  0  0
 15 16  2  0  0  0  0
 15 17  1  0  0  0  0
 17 18  1  0  0  0  0
 18 20  2  0  0  0  0
 19 18  1  6  0  0  0
 19 22  1  0  0  0  0
 19 30  1  0  0  0  0
 21 23  1  1  0  0  0
 21 29  1  0  0  0  0
 21 22  1  0  0  0  0
 23 24  1  0  0  0  0
 24 25  1  6  0  0  0
 24 26  1  0  0  0  0
 26 27  1  6  0  0  0
 26 28  1  0  0  0  0
 29 28  1  6  0  0  0
 29 31  1  0  0  0  0
 30 14  1  6  0  0  0
 30 31  1  0  0  0  0
M  CHG  1   3  -1
M  END
>  <CHROM.1>
-168.51007877,70.08807393,52.80161117,79.45165509,-41.34143018,177.52531797
108.47884978,27.38307446,37.79926034,19.87824377,2.66752607,1.48120707,-1.64611142

>  <Name>
ligand

>  <RI>
0

>  <Rbt.Current_Directory>
/home/itssahil/PROJECTS/Mol_Feturizer/New_Systems/rnas/3F2T

>  <Rbt.Executable>
rbdock ($Id: //depot/dev/client3/rdock/2013.1/src/exe/rbdock.cxx#4 $)

>  <Rbt.Library>
libRbt.so (2013.1, Build901 2013/11/27)

>  <Rbt.Parameter_File>
/export/apps/rDock/src/rDock_2013.1_src/data/scripts/dock_solv.prm

>  <Rbt.Receptor>
prm/pocket_docking_5.prm

>  <SCORE>
-26.5579

>  <SCORE.INTER>
-27.4386

>  <SCORE.INTER.CONST>
1

>  <SCORE.INTER.POLAR>
0

>  <SCORE.INTER.ROT>
7

>  <SCORE.INTER.SOLV>
19.0583

>  <SCORE.INTER.VDW>
-32.9118

>  <SCORE.INTER.norm>
-0.885115

>  <SCORE.INTRA>
0.880691

>  <SCORE.INTRA.DIHEDRAL>
0.0961351

>  <SCORE.INTRA.DIHEDRAL.0>
4.64198

>  <SCORE.INTRA.POLAR>
0

>  <SCORE.INTRA.POLAR.0>
0

>  <SCORE.INTRA.REPUL>
0

>  <SCORE.INTRA.REPUL.0>
0

>  <SCORE.INTRA.SOLV>
-0.154017

>  <SCORE.INTRA.SOLV.lig_0>
-49.3611

>  <SCORE.INTRA.VDW>
0.909632

>  <SCORE.INTRA.VDW.0>
-1.91858

>  <SCORE.INTRA.norm>
0.0284094

>  <SCORE.RESTR>
0

>  <SCORE.RESTR.CAVITY>
0

>  <SCORE.RESTR.norm>
0

>  <SCORE.SYSTEM>
0

>  <SCORE.SYSTEM.CONST>
0

>  <SCORE.SYSTEM.DIHEDRAL>
0

>  <SCORE.SYSTEM.SOLV>
0

>  <SCORE.SYSTEM.norm>
0

>  <SCORE.heavy>
31

>  <SCORE.norm>
-0.856705

>  <RMSD>
1.287

$$$$
ligand
 OpenBabel11021811473D
libRbt.so/2013.1/901 2013/11/27
 31 33  0  0  0  0  0  0  0  0999 V2000
   26.6939   43.1073   16.5363 P   0  0  1  0  0  0  0  0  0  0  0  0
   28.0517   43.7467   16.6802 O   0  0  0  0  0  0  0  0  0  0  0  0
   25.7423   43.7755   17.4929 O   0  5  0  0  0  0  0  0  0  0  0  0
   26.2819   43.2939   15.1019 O   0  0  0  0  0  0  0  0  0  0  0  0
   27.9182   40.8154   16.8813 C   0  0  0  0  0  0  0  0  0  0  0  0
   26.7033   41.5355   16.8646 O   0  0  0  0  0  0  0  0  0  0  0  0
   27.6420   39.3738   17.3004 C   0  0  1  0  0  0  0  0  0  0  0  0
   28.8296   38.6128   17.2040 O   0  0  0  0  0  0  0  0  0  0  0  0
   27.1453   39.3359   18.7359 C   0  0  1  0  0  0  0  0  0  0  0  0
   25.9277   40.0289   18.8026 O   0  0  0  0  0  0  0  0  0  0  0  0
   26.9332   37.9197   19.2440 C   0  0  1  0  0  0  0  0  0  0  0  0
   26.4188   37.1476   18.1927 O   0  0  0  0  0  0  0  0  0  0  0  0
   28.2429   37.3112   19.7174 C   0  0  0  0  0  0  0  0  0  0  0  0
   28.2656   34.5380   19.2388 N   0  0  0  0  0  0  0  0  0  0  0  0
   28.2303   33.1930   18.9411 C   0  0  0  0  0  0  0  0  0  0  0  0
   28.5018   32.8056   17.8084 O   0  0  0  0  0  0  0  0  0  0  0  0
   27.8892   32.2735   19.9066 N   0  0  0  0  0  0  0  0  0  0  0  0
   27.5897   32.6909   21.1888 C   0  0  0  0  0  0  0  0  0  0  0  0
   27.6219   34.0460   21.4983 C   0  0  1  0  0  0  0  0  0  0  0  0
   27.3030   31.8617   22.0547 O   0  0  0  0  0  0  0  0  0  0  0  0
   27.3563   35.8175   23.0829 C   0  0  2  0  0  0  0  0  0  0  0  0
   27.3218   34.4703   22.7772 N   0  0  0  0  0  0  0  0  0  0  0  0
   27.0527   36.2450   24.3759 C   0  0  0  0  0  0  0  0  0  0  0  0
   27.0793   37.5980   24.6928 C   0  0  1  0  0  0  0  0  0  0  0  0
   26.7446   38.0198   26.0885 C   0  0  0  0  0  0  0  0  0  0  0  0
   27.4184   38.5379   23.7077 C   0  0  1  0  0  0  0  0  0  0  0  0
   27.4678   40.0101   24.0116 C   0  0  0  0  0  0  0  0  0  0  0  0
   27.7193   38.1083   22.4179 C   0  0  0  0  0  0  0  0  0  0  0  0
   27.6888   36.7499   22.0974 C   0  0  1  0  0  0  0  0  0  0  0  0
   27.9587   34.9717   20.5128 C   0  0  1  0  0  0  0  0  0  0  0  0
   27.9859   36.3203   20.8127 N   0  0  0  0  0  0  0  0  0  0  0  0
  1  2  1  1  0  0  0
  1  3  1  0  0  0  0
  1  4  2  0  0  0  0
  1  6  1  0  0  0  0
  5  6  1  0  0  0  0
  7  5  1  1  0  0  0
  7  8  1  0  0  0  0
  7  9  1  0  0  0  0
  9 10  1  6  0  0  0
  9 11  1  0  0  0  0
 11 12  1  6  0  0  0
 11 13  1  0  0  0  0
 13 31  1  0  0  0  0
 14 15  1  0  0  0  0
 15 16  2  0  0  0  0
 15 17  1  0  0  0  0
 17 18  1  0  0  0  0
 18 20  2  0  0  0  0
 19 18  1  1  0  0  0
 19 22  1  0  0  0  0
 19 30  1  0  0  0  0
 21 23  1  6  0  0  0
 21 29  1  0  0  0  0
 21 22  1  0  0  0  0
 23 24  1  0  0  0  0
 24 25  1  1  0  0  0
 24 26  1  0  0  0  0
 26 27  1  1  0  0  0
 26 28  1  0  0  0  0
 29 28  1  1  0  0  0
 29 31  1  0  0  0  0
 30 14  1  1  0  0  0
 30 31  1  0  0  0  0
M  CHG  1   3  -1
M  END
>  <CHROM.1>
176.64965346,-17.44566795,174.72055819,62.99268869,-37.49372498,150.24102400
-76.00868569,27.36295484,37.90918972,19.83805054,2.12509756,1.42076600,-1.11323101

>  <Name>
ligand

>  <RI>
0

>  <Rbt.Current_Directory>
/home/itssahil/PROJECTS/Mol_Feturizer/New_Systems/rnas/3F2T

>  <Rbt.Executable>
rbdock ($Id: //depot/dev/client3/rdock/2013.1/src/exe/rbdock.cxx#4 $)

>  <Rbt.Library>
libRbt.so (2013.1, Build901 2013/11/27)

>  <Rbt.Parameter_File>
/export/apps/rDock/src/rDock_2013.1_src/data/scripts/dock_solv.prm

>  <Rbt.Receptor>
prm/pocket_docking_3.prm

>  <SCORE>
-30.8461

>  <SCORE.INTER>
-33.0331

>  <SCORE.INTER.CONST>
1

>  <SCORE.INTER.POLAR>
0

>  <SCORE.INTER.ROT>
7

>  <SCORE.INTER.SOLV>
19.8085

>  <SCORE.INTER.VDW>
-36.8916

>  <SCORE.INTER.norm>
-1.06558

>  <SCORE.INTRA>
2.187

>  <SCORE.INTRA.DIHEDRAL>
2.79709

>  <SCORE.INTRA.DIHEDRAL.0>
4.64198

>  <SCORE.INTRA.POLAR>
0

>  <SCORE.INTRA.POLAR.0>
0

>  <SCORE.INTRA.REPUL>
0

>  <SCORE.INTRA.REPUL.0>
0

>  <SCORE.INTRA.SOLV>
0.0260495

>  <SCORE.INTRA.SOLV.lig_0>
-49.3611

>  <SCORE.INTRA.VDW>
0.775428

>  <SCORE.INTRA.VDW.0>
-1.91858

>  <SCORE.INTRA.norm>
0.0705483

>  <SCORE.RESTR>
0

>  <SCORE.RESTR.CAVITY>
0

>  <SCORE.RESTR.norm>
0

>  <SCORE.SYSTEM>
0

>  <SCORE.SYSTEM.CONST>
0

>  <SCORE.SYSTEM.DIHEDRAL>
0

>  <SCORE.SYSTEM.SOLV>
0

>  <SCORE.SYSTEM.norm>
0

>  <SCORE.heavy>
31

>  <SCORE.norm>
-0.995035

>  <RMSD>
1.296

$$$$
ligand
 OpenBabel11021811473D
libRbt.so/2013.1/901 2013/11/27
 31 33  0  0  0  0  0  0  0  0999 V2000
   28.2093   42.4154   16.7395 P   0  0  1  0  0  0  0  0  0  0  0  0
   28.0774   43.9158   16.8092 O   0  0  0  0  0  0  0  0  0  0  0  0
   27.0278   41.8619   15.9881 O   0  5  0  0  0  0  0  0  0  0  0  0
   29.5106   42.1314   16.0410 O   0  0  0  0  0  0  0  0  0  0  0  0
   28.9153   40.4927   18.3751 C   0  0  0  0  0  0  0  0  0  0  0  0
   28.2446   41.7214   18.1870 O   0  0  0  0  0  0  0  0  0  0  0  0
   28.6792   40.0047   19.8021 C   0  0  1  0  0  0  0  0  0  0  0  0
   28.6517   41.1081   20.6855 O   0  0  0  0  0  0  0  0  0  0  0  0
   27.3520   39.2697   19.8871 C   0  0  1  0  0  0  0  0  0  0  0  0
   26.3711   40.0508   19.2587 O   0  0  0  0  0  0  0  0  0  0  0  0
   27.3955   37.9051   19.2203 C   0  0  1  0  0  0  0  0  0  0  0  0
   27.4992   38.0957   17.8350 O   0  0  0  0  0  0  0  0  0  0  0  0
   28.5907   37.1017   19.7056 C   0  0  0  0  0  0  0  0  0  0  0  0
   28.4579   34.3277   19.2505 N   0  0  0  0  0  0  0  0  0  0  0  0
   28.3533   32.9847   18.9603 C   0  0  0  0  0  0  0  0  0  0  0  0
   28.6952   32.5641   17.8589 O   0  0  0  0  0  0  0  0  0  0  0  0
   27.8640   32.1043   19.8981 N   0  0  0  0  0  0  0  0  0  0  0  0
   27.4832   32.5588   21.1457 C   0  0  0  0  0  0  0  0  0  0  0  0
   27.5845   33.9123   21.4473 C   0  0  1  0  0  0  0  0  0  0  0  0
   27.0632   31.7634   21.9886 O   0  0  0  0  0  0  0  0  0  0  0  0
   27.3073   35.7190   22.9896 C   0  0  2  0  0  0  0  0  0  0  0  0
   27.2040   34.3736   22.6916 N   0  0  0  0  0  0  0  0  0  0  0  0
   26.9223   36.1839   24.2475 C   0  0  0  0  0  0  0  0  0  0  0  0
   27.0172   37.5359   24.5560 C   0  0  1  0  0  0  0  0  0  0  0  0
   26.5918   37.9987   25.9135 C   0  0  0  0  0  0  0  0  0  0  0  0
   27.5077   38.4364   23.5983 C   0  0  1  0  0  0  0  0  0  0  0  0
   27.6348   39.9054   23.8950 C   0  0  0  0  0  0  0  0  0  0  0  0
   27.8896   37.9696   22.3433 C   0  0  0  0  0  0  0  0  0  0  0  0
   27.7907   36.6125   22.0309 C   0  0  1  0  0  0  0  0  0  0  0  0
   28.0718   34.7988   20.4891 C   0  0  1  0  0  0  0  0  0  0  0  0
   28.1684   36.1460   20.7807 N   0  0  0  0  0  0  0  0  0  0  0  0
  1  2  1  1  0  0  0
  1  3  1  0  0  0  0
  1  4  2  0  0  0  0
  1  6  1  0  0  0  0
  5  6  1  0  0  0  0
  7  5  1  6  0  0  0
  7  8  1  0  0  0  0
  7  9  1  0  0  0  0
  9 10  1  6  0  0  0
  9 11  1  0  0  0  0
 11 12  1  6  0  0  0
 11 13  1  0  0  0  0
 13 31  1  0  0  0  0
 14 15  1  0  0  0  0
 15 16  2  0  0  0  0
 15 17  1  0  0  0  0
 17 18  1  0  0  0  0
 18 20  2  0  0  0  0
 19 18  1  1  0  0  0
 19 22  1  0  0  0  0
 19 30  1  0  0  0  0
 21 23  1  6  0  0  0
 21 29  1  0  0  0  0
 21 22  1  0  0  0  0
 23 24  1  0  0  0  0
 24 25  1  1  0  0  0
 24 26  1  0  0  0  0
 26 27  1  1  0  0  0
 26 28  1  0  0  0  0
 29 28  1  1  0  0  0
 29 31  1  0  0  0  0
 30 14  1  1  0  0  0
 30 31  1  0  0  0  0
M  CHG  1   3  -1
M  END
>  <CHROM.1>
-174.76050768,-152.37354270,-36.32441549,-47.96167127,-69.54043340,98.30396262
-69.77552225,27.83613540,37.81721079,20.13035824,-1.14934259,-1.41260923
3.06619304

>  <Name>
ligand

>  <RI>
0

>  <Rbt.Current_Directory>
/home/itssahil/PROJECTS/Mol_Feturizer/New_Systems/rnas/3F2T

>  <Rbt.Executable>
rbdock ($Id: //depot/dev/client3/rdock/2013.1/src/exe/rbdock.cxx#4 $)

>  <Rbt.Library>
libRbt.so (2013.1, Build901 2013/11/27)

>  <Rbt.Parameter_File>
/export/apps/rDock/src/rDock_2013.1_src/data/scripts/dock_solv.prm

>  <Rbt.Receptor>
prm/pocket_docking_3.prm

>  <SCORE>
-27.6876

>  <SCORE.INTER>
-32.003

>  <SCORE.INTER.CONST>
1

>  <SCORE.INTER.POLAR>
0

>  <SCORE.INTER.ROT>
7

>  <SCORE.INTER.SOLV>
21.0839

>  <SCORE.INTER.VDW>
-36.6299

>  <SCORE.INTER.norm>
-1.03235

>  <SCORE.INTRA>
4.3154

>  <SCORE.INTRA.DIHEDRAL>
4.00667

>  <SCORE.INTRA.DIHEDRAL.0>
4.64198

>  <SCORE.INTRA.POLAR>
0

>  <SCORE.INTRA.POLAR.0>
0

>  <SCORE.INTRA.REPUL>
0

>  <SCORE.INTRA.REPUL.0>
0

>  <SCORE.INTRA.SOLV>
1.10801

>  <SCORE.INTRA.SOLV.lig_0>
-49.3611

>  <SCORE.INTRA.VDW>
1.75806

>  <SCORE.INTRA.VDW.0>
-1.91858

>  <SCORE.INTRA.norm>
0.139206

>  <SCORE.RESTR>
0

>  <SCORE.RESTR.CAVITY>
0

>  <SCORE.RESTR.norm>
0

>  <SCORE.SYSTEM>
0

>  <SCORE.SYSTEM.CONST>
0

>  <SCORE.SYSTEM.DIHEDRAL>
0

>  <SCORE.SYSTEM.SOLV>
0

>  <SCORE.SYSTEM.norm>
0

>  <SCORE.heavy>
31

>  <SCORE.norm>
-0.893147

>  <RMSD>
1.297

$$$$
ligand
 OpenBabel11021811473D
libRbt.so/2013.1/901 2013/11/27
 31 33  0  0  0  0  0  0  0  0999 V2000
   26.9744   42.0379   16.7585 P   0  0  1  0  0  0  0  0  0  0  0  0
   28.1181   42.6239   15.9700 O   0  0  0  0  0  0  0  0  0  0  0  0
   25.7129   42.7781   16.4008 O   0  5  0  0  0  0  0  0  0  0  0  0
   26.9020   40.5813   16.3910 O   0  0  0  0  0  0  0  0  0  0  0  0
   28.3517   41.6436   18.9535 C   0  0  0  0  0  0  0  0  0  0  0  0
   27.1832   42.1542   18.3463 O   0  0  0  0  0  0  0  0  0  0  0  0
   28.0652   40.2471   19.4992 C   0  0  1  0  0  0  0  0  0  0  0  0
   26.7286   40.1776   19.9548 O   0  0  0  0  0  0  0  0  0  0  0  0
   28.2703   39.2103   18.4076 C   0  0  1  0  0  0  0  0  0  0  0  0
   29.4467   39.5251   17.7119 O   0  0  0  0  0  0  0  0  0  0  0  0
   28.3869   37.7983   18.9567 C   0  0  1  0  0  0  0  0  0  0  0  0
   29.3339   37.8053   19.9907 O   0  0  0  0  0  0  0  0  0  0  0  0
   27.0531   37.3166   19.5032 C   0  0  0  0  0  0  0  0  0  0  0  0
   27.2678   34.5617   18.9701 N   0  0  0  0  0  0  0  0  0  0  0  0
   27.3079   33.2188   18.6637 C   0  0  0  0  0  0  0  0  0  0  0  0
   27.2588   32.8525   17.4931 O   0  0  0  0  0  0  0  0  0  0  0  0
   27.4006   32.2775   19.6634 N   0  0  0  0  0  0  0  0  0  0  0  0
   27.4661   32.6722   20.9854 C   0  0  0  0  0  0  0  0  0  0  0  0
   27.4256   34.0249   21.3043 C   0  0  1  0  0  0  0  0  0  0  0  0
   27.5681   31.8259   21.8760 O   0  0  0  0  0  0  0  0  0  0  0  0
   27.4501   35.7713   22.9380 C   0  0  2  0  0  0  0  0  0  0  0  0
   27.4887   34.4263   22.6237 N   0  0  0  0  0  0  0  0  0  0  0  0
   27.5139   36.1757   24.2720 C   0  0  0  0  0  0  0  0  0  0  0  0
   27.4706   37.5257   24.5995 C   0  0  1  0  0  0  0  0  0  0  0  0
   27.5378   37.9219   26.0405 C   0  0  0  0  0  0  0  0  0  0  0  0
   27.3674   38.4867   23.5823 C   0  0  1  0  0  0  0  0  0  0  0  0
   27.3268   39.9576   23.8936 C   0  0  0  0  0  0  0  0  0  0  0  0
   27.3023   38.0800   22.2523 C   0  0  0  0  0  0  0  0  0  0  0  0
   27.3414   36.7241   21.9223 C   0  0  1  0  0  0  0  0  0  0  0  0
   27.3218   34.9715   20.2871 C   0  0  1  0  0  0  0  0  0  0  0  0
   27.2743   36.3170   20.5983 N   0  0  0  0  0  0  0  0  0  0  0  0
  1  2  1  6  0  0  0
  1  3  1  0  0  0  0
  1  4  2  0  0  0  0
  1  6  1  0  0  0  0
  5  6  1  0  0  0  0
  7  5  1  6  0  0  0
  7  8  1  0  0  0  0
  7  9  1  0  0  0  0
  9 10  1  1  0  0  0
  9 11  1  0  0  0  0
 11 12  1  1  0  0  0
 11 13  1  0  0  0  0
 13 31  1  0  0  0  0
 14 15  1  0  0  0  0
 15 16  2  0  0  0  0
 15 17  1  0  0  0  0
 17 18  1  0  0  0  0
 18 20  2  0  0  0  0
 19 18  1  6  0  0  0
 19 22  1  0  0  0  0
 19 30  1  0  0  0  0
 21 23  1  1  0  0  0
 21 29  1  0  0  0  0
 21 22  1  0  0  0  0
 23 24  1  0  0  0  0
 24 25  1  6  0  0  0
 24 26  1  0  0  0  0
 26 27  1  6  0  0  0
 26 28  1  0  0  0  0
 29 28  1  6  0  0  0
 29 31  1  0  0  0  0
 30 14  1  6  0  0  0
 30 31  1  0  0  0  0
M  CHG  1   3  -1
M  END
>  <CHROM.1>
-96.78484408,-54.58285488,-33.98829519,43.32875728,-50.05123169,-151.67678861
92.30665156,27.51776068,37.77702804,20.01902357,2.91736092,-1.55915336,0.81956016

>  <Name>
ligand

>  <RI>
0

>  <Rbt.Current_Directory>
/home/itssahil/PROJECTS/Mol_Feturizer/New_Systems/rnas/3F2T

>  <Rbt.Executable>
rbdock ($Id: //depot/dev/client3/rdock/2013.1/src/exe/rbdock.cxx#4 $)

>  <Rbt.Library>
libRbt.so (2013.1, Build901 2013/11/27)

>  <Rbt.Parameter_File>
/export/apps/rDock/src/rDock_2013.1_src/data/scripts/dock_solv.prm

>  <Rbt.Receptor>
prm/pocket_docking_2.prm

>  <SCORE>
-20.8154

>  <SCORE.INTER>
-26.5461

>  <SCORE.INTER.CONST>
1

>  <SCORE.INTER.POLAR>
0

>  <SCORE.INTER.ROT>
7

>  <SCORE.INTER.SOLV>
17.5467

>  <SCORE.INTER.VDW>
-31.813

>  <SCORE.INTER.norm>
-0.856327

>  <SCORE.INTRA>
5.70043

>  <SCORE.INTRA.DIHEDRAL>
7.41291

>  <SCORE.INTRA.DIHEDRAL.0>
4.64198

>  <SCORE.INTRA.POLAR>
0

>  <SCORE.INTRA.POLAR.0>
0

>  <SCORE.INTRA.REPUL>
0

>  <SCORE.INTRA.REPUL.0>
0

>  <SCORE.INTRA.SOLV>
4.1273

>  <SCORE.INTRA.SOLV.lig_0>
-49.3611

>  <SCORE.INTRA.VDW>
-0.0696715

>  <SCORE.INTRA.VDW.0>
-1.91858

>  <SCORE.INTRA.norm>
0.183885

>  <SCORE.RESTR>
0.0303068

>  <SCORE.RESTR.CAVITY>
0.0303068

>  <SCORE.RESTR.norm>
0.000977639

>  <SCORE.SYSTEM>
0

>  <SCORE.SYSTEM.CONST>
0

>  <SCORE.SYSTEM.DIHEDRAL>
0

>  <SCORE.SYSTEM.SOLV>
0

>  <SCORE.SYSTEM.norm>
0

>  <SCORE.heavy>
31

>  <SCORE.norm>
-0.671464

>  <RMSD>
1.299

$$$$
ligand
 OpenBabel11021811473D
libRbt.so/2013.1/901 2013/11/27
 31 33  0  0  0  0  0  0  0  0999 V2000
   25.9653   43.1220   16.4772 P   0  0  1  0  0  0  0  0  0  0  0  0
   25.8910   43.5364   15.0295 O   0  0  0  0  0  0  0  0  0  0  0  0
   26.5348   44.2635   17.2770 O   0  5  0  0  0  0  0  0  0  0  0  0
   24.5627   42.7780   16.8973 O   0  0  0  0  0  0  0  0  0  0  0  0
   27.0096   41.2606   17.9988 C   0  0  0  0  0  0  0  0  0  0  0  0
   26.8989   41.8373   16.7143 O   0  0  0  0  0  0  0  0  0  0  0  0
   28.1783   40.2787   18.0097 C   0  0  1  0  0  0  0  0  0  0  0  0
   29.3497   40.9258   17.5537 O   0  0  0  0  0  0  0  0  0  0  0  0
   28.4136   39.7664   19.4207 C   0  0  1  0  0  0  0  0  0  0  0  0
   27.9684   40.7403   20.3265 O   0  0  0  0  0  0  0  0  0  0  0  0
   27.6817   38.4644   19.6997 C   0  0  1  0  0  0  0  0  0  0  0  0
   26.7500   38.2549   18.6731 O   0  0  0  0  0  0  0  0  0  0  0  0
   28.6513   37.2949   19.7418 C   0  0  0  0  0  0  0  0  0  0  0  0
   28.5410   34.5363   19.1964 N   0  0  0  0  0  0  0  0  0  0  0  0
   28.4483   33.2027   18.8619 C   0  0  0  0  0  0  0  0  0  0  0  0
   28.8080   32.8195   17.7527 O   0  0  0  0  0  0  0  0  0  0  0  0
   27.9508   32.2902   19.7641 N   0  0  0  0  0  0  0  0  0  0  0  0
   27.5499   32.7024   21.0200 C   0  0  0  0  0  0  0  0  0  0  0  0
   27.6391   34.0461   21.3661 C   0  0  1  0  0  0  0  0  0  0  0  0
   27.1227   31.8781   21.8309 O   0  0  0  0  0  0  0  0  0  0  0  0
   27.3297   35.8008   22.9613 C   0  0  2  0  0  0  0  0  0  0  0  0
   27.2384   34.4652   22.6189 N   0  0  0  0  0  0  0  0  0  0  0  0
   26.9243   36.2232   24.2278 C   0  0  0  0  0  0  0  0  0  0  0  0
   27.0071   37.5650   24.5807 C   0  0  1  0  0  0  0  0  0  0  0  0
   26.5599   37.9818   25.9461 C   0  0  0  0  0  0  0  0  0  0  0  0
   27.5058   38.4984   23.6594 C   0  0  1  0  0  0  0  0  0  0  0  0
   27.6203   39.9578   24.0047 C   0  0  0  0  0  0  0  0  0  0  0  0
   27.9081   38.0741   22.3957 C   0  0  0  0  0  0  0  0  0  0  0  0
   27.8215   36.7272   22.0387 C   0  0  1  0  0  0  0  0  0  0  0  0
   28.1347   34.9654   20.4438 C   0  0  1  0  0  0  0  0  0  0  0  0
   28.2194   36.3031   20.7797 N   0  0  0  0  0  0  0  0  0  0  0  0
  1  2  1  6  0  0  0
  1  3  1  0  0  0  0
  1  4  2  0  0  0  0
  1  6  1  0  0  0  0
  5  6  1  0  0  0  0
  7  5  1  1  0  0  0
  7  8  1  0  0  0  0
  7  9  1  0  0  0  0
  9 10  1  1  0  0  0
  9 11  1  0  0  0  0
 11 12  1  6  0  0  0
 11 13  1  0  0  0  0
 13 31  1  0  0  0  0
 14 15  1  0  0  0  0
 15 16  2  0  0  0  0
 15 17  1  0  0  0  0
 17 18  1  0  0  0  0
 18 20  2  0  0  0  0
 19 18  1  1  0  0  0
 19 22  1  0  0  0  0
 19 30  1  0  0  0  0
 21 23  1  6  0  0  0
 21 29  1  0  0  0  0
 21 22  1  0  0  0  0
 23 24  1  0  0  0  0
 24 25  1  1  0  0  0
 24 26  1  0  0  0  0
 26 27  1  1  0  0  0
 26 28  1  0  0  0  0
 29 28  1  1  0  0  0
 29 31  1  0  0  0  0
 30 14  1  1  0  0  0
 30 31  1  0  0  0  0
M  CHG  1   3  -1
M  END
>  <CHROM.1>
-167.26099097,-175.77316289,53.67694166,-27.13184671,-13.21743365,144.04082767
-45.28918430,27.40458171,38.12168211,19.94705203,-2.38765048,-1.39943764
1.81793566

>  <Name>
ligand

>  <RI>
0

>  <Rbt.Current_Directory>
/home/itssahil/PROJECTS/Mol_Feturizer/New_Systems/rnas/3F2T

>  <Rbt.Executable>
rbdock ($Id: //depot/dev/client3/rdock/2013.1/src/exe/rbdock.cxx#4 $)

>  <Rbt.Library>
libRbt.so (2013.1, Build901 2013/11/27)

>  <Rbt.Parameter_File>
/export/apps/rDock/src/rDock_2013.1_src/data/scripts/dock_solv.prm

>  <Rbt.Receptor>
prm/pocket_docking_4.prm

>  <SCORE>
-23.9505

>  <SCORE.INTER>
-32.4154

>  <SCORE.INTER.CONST>
1

>  <SCORE.INTER.POLAR>
0

>  <SCORE.INTER.ROT>
7

>  <SCORE.INTER.SOLV>
18.5473

>  <SCORE.INTER.VDW>
-36.0594

>  <SCORE.INTER.norm>
-1.04566

>  <SCORE.INTRA>
8.46485

>  <SCORE.INTRA.DIHEDRAL>
8.89914

>  <SCORE.INTRA.DIHEDRAL.0>
4.64198

>  <SCORE.INTRA.POLAR>
0

>  <SCORE.INTRA.POLAR.0>
0

>  <SCORE.INTRA.REPUL>
0

>  <SCORE.INTRA.REPUL.0>
0

>  <SCORE.INTRA.SOLV>
0.106541

>  <SCORE.INTRA.SOLV.lig_0>
-49.3611

>  <SCORE.INTRA.VDW>
3.96201

>  <SCORE.INTRA.VDW.0>
-1.91858

>  <SCORE.INTRA.norm>
0.27306

>  <SCORE.RESTR>
0

>  <SCORE.RESTR.CAVITY>
0

>  <SCORE.RESTR.norm>
0

>  <SCORE.SYSTEM>
0

>  <SCORE.SYSTEM.CONST>
0

>  <SCORE.SYSTEM.DIHEDRAL>
0

>  <SCORE.SYSTEM.SOLV>
0

>  <SCORE.SYSTEM.norm>
0

>  <SCORE.heavy>
31

>  <SCORE.norm>
-0.772598

>  <RMSD>
1.301

$$$$
ligand
 OpenBabel11021811473D
libRbt.so/2013.1/901 2013/11/27
 31 33  0  0  0  0  0  0  0  0999 V2000
   26.4852   43.0548   16.4567 P   0  0  1  0  0  0  0  0  0  0  0  0
   27.2921   43.5609   15.2879 O   0  0  0  0  0  0  0  0  0  0  0  0
   26.9512   43.7567   17.7045 O   0  5  0  0  0  0  0  0  0  0  0  0
   25.0443   43.3505   16.1429 O   0  0  0  0  0  0  0  0  0  0  0  0
   27.9118   40.9132   16.9557 C   0  0  0  0  0  0  0  0  0  0  0  0
   26.6431   41.4740   16.6897 O   0  0  0  0  0  0  0  0  0  0  0  0
   27.7412   39.4477   17.3471 C   0  0  1  0  0  0  0  0  0  0  0  0
   28.9979   38.8001   17.3319 O   0  0  0  0  0  0  0  0  0  0  0  0
   27.1502   39.3479   18.7433 C   0  0  1  0  0  0  0  0  0  0  0  0
   25.9188   40.0193   18.7530 O   0  0  0  0  0  0  0  0  0  0  0  0
   26.9300   37.9105   19.1838 C   0  0  1  0  0  0  0  0  0  0  0  0
   26.4204   37.1899   18.0943 O   0  0  0  0  0  0  0  0  0  0  0  0
   28.2342   37.2759   19.6374 C   0  0  0  0  0  0  0  0  0  0  0  0
   28.2907   34.5059   19.1438 N   0  0  0  0  0  0  0  0  0  0  0  0
   28.2728   33.1624   18.8381 C   0  0  0  0  0  0  0  0  0  0  0  0
   28.5636   32.7841   17.7071 O   0  0  0  0  0  0  0  0  0  0  0  0
   27.9274   32.2341   19.7936 N   0  0  0  0  0  0  0  0  0  0  0  0
   27.6062   32.6412   21.0739 C   0  0  0  0  0  0  0  0  0  0  0  0
   27.6208   33.9948   21.3913 C   0  0  1  0  0  0  0  0  0  0  0  0
   27.3159   31.8043   21.9311 O   0  0  0  0  0  0  0  0  0  0  0  0
   27.3161   35.7545   22.9820 C   0  0  2  0  0  0  0  0  0  0  0  0
   27.2990   34.4088   22.6684 N   0  0  0  0  0  0  0  0  0  0  0  0
   26.9905   36.1716   24.2731 C   0  0  0  0  0  0  0  0  0  0  0  0
   26.9995   37.5230   24.5978 C   0  0  1  0  0  0  0  0  0  0  0  0
   26.6415   37.9336   25.9911 C   0  0  0  0  0  0  0  0  0  0  0  0
   27.3429   38.4718   23.6228 C   0  0  1  0  0  0  0  0  0  0  0  0
   27.3736   39.9427   23.9355 C   0  0  0  0  0  0  0  0  0  0  0  0
   27.6657   38.0525   22.3348 C   0  0  0  0  0  0  0  0  0  0  0  0
   27.6529   36.6957   22.0064 C   0  0  1  0  0  0  0  0  0  0  0  0
   27.9621   34.9293   20.4158 C   0  0  1  0  0  0  0  0  0  0  0  0
   27.9719   36.2764   20.7236 N   0  0  0  0  0  0  0  0  0  0  0  0
  1  2  1  6  0  0  0
  1  3  1  0  0  0  0
  1  4  2  0  0  0  0
  1  6  1  0  0  0  0
  5  6  1  0  0  0  0
  7  5  1  1  0  0  0
  7  8  1  0  0  0  0
  7  9  1  0  0  0  0
  9 10  1  6  0  0  0
  9 11  1  0  0  0  0
 11 12  1  6  0  0  0
 11 13  1  0  0  0  0
 13 31  1  0  0  0  0
 14 15  1  0  0  0  0
 15 16  2  0  0  0  0
 15 17  1  0  0  0  0
 17 18  1  0  0  0  0
 18 20  2  0  0  0  0
 19 18  1  1  0  0  0
 19 22  1  0  0  0  0
 19 30  1  0  0  0  0
 21 23  1  6  0  0  0
 21 29  1  0  0  0  0
 21 22  1  0  0  0  0
 23 24  1  0  0  0  0
 24 25  1  1  0  0  0
 24 26  1  0  0  0  0
 26 27  1  1  0  0  0
 26 28  1  0  0  0  0
 29 28  1  1  0  0  0
 29 31  1  0  0  0  0
 30 14  1  1  0  0  0
 30 31  1  0  0  0  0
M  CHG  1   3  -1
M  END
>  <CHROM.1>
171.26391078,59.80886562,167.31626927,58.33735822,-41.17618279,147.93110850
-73.99632430,27.31568758,37.88158803,19.76746879,-2.15471434,-1.39816617
2.00827387

>  <Name>
ligand

>  <RI>
0

>  <Rbt.Current_Directory>
/home/itssahil/PROJECTS/Mol_Feturizer/New_Systems/rnas/3F2T

>  <Rbt.Executable>
rbdock ($Id: //depot/dev/client3/rdock/2013.1/src/exe/rbdock.cxx#4 $)

>  <Rbt.Library>
libRbt.so (2013.1, Build901 2013/11/27)

>  <Rbt.Parameter_File>
/export/apps/rDock/src/rDock_2013.1_src/data/scripts/dock_solv.prm

>  <Rbt.Receptor>
prm/pocket_docking_2.prm

>  <SCORE>
-31.6847

>  <SCORE.INTER>
-33.1677

>  <SCORE.INTER.CONST>
1

>  <SCORE.INTER.POLAR>
0

>  <SCORE.INTER.ROT>
7

>  <SCORE.INTER.SOLV>
18.7631

>  <SCORE.INTER.VDW>
-36.6328

>  <SCORE.INTER.norm>
-1.06993

>  <SCORE.INTRA>
1.46998

>  <SCORE.INTRA.DIHEDRAL>
1.52772

>  <SCORE.INTRA.DIHEDRAL.0>
4.64198

>  <SCORE.INTRA.POLAR>
0

>  <SCORE.INTRA.POLAR.0>
0

>  <SCORE.INTRA.REPUL>
0

>  <SCORE.INTRA.REPUL.0>
0

>  <SCORE.INTRA.SOLV>
0.382491

>  <SCORE.INTRA.SOLV.lig_0>
-49.3611

>  <SCORE.INTRA.VDW>
0.514873

>  <SCORE.INTRA.VDW.0>
-1.91858

>  <SCORE.INTRA.norm>
0.0474187

>  <SCORE.RESTR>
0.0130423

>  <SCORE.RESTR.CAVITY>
0.0130423

>  <SCORE.RESTR.norm>
0.000420721

>  <SCORE.SYSTEM>
0

>  <SCORE.SYSTEM.CONST>
0

>  <SCORE.SYSTEM.DIHEDRAL>
0

>  <SCORE.SYSTEM.SOLV>
0

>  <SCORE.SYSTEM.norm>
0

>  <SCORE.heavy>
31

>  <SCORE.norm>
-1.02209

>  <RMSD>
1.305

$$$$
ligand
 OpenBabel11021811473D
libRbt.so/2013.1/901 2013/11/27
 31 33  0  0  0  0  0  0  0  0999 V2000
   27.7682   42.6404   17.0811 P   0  0  1  0  0  0  0  0  0  0  0  0
   28.7498   42.9928   18.1699 O   0  0  0  0  0  0  0  0  0  0  0  0
   26.7059   43.7059   17.0261 O   0  5  0  0  0  0  0  0  0  0  0  0
   28.5569   42.5579   15.8031 O   0  0  0  0  0  0  0  0  0  0  0  0
   26.3320   40.9872   18.5216 C   0  0  0  0  0  0  0  0  0  0  0  0
   27.0418   41.2292   17.3247 O   0  0  0  0  0  0  0  0  0  0  0  0
   27.3139   40.9535   19.6899 C   0  0  1  0  0  0  0  0  0  0  0  0
   26.6048   40.8202   20.9057 O   0  0  0  0  0  0  0  0  0  0  0  0
   28.2619   39.7758   19.5384 C   0  0  1  0  0  0  0  0  0  0  0  0
   29.2888   39.9081   20.4845 O   0  0  0  0  0  0  0  0  0  0  0  0
   27.5710   38.4385   19.7466 C   0  0  1  0  0  0  0  0  0  0  0  0
   26.7214   38.2078   18.6553 O   0  0  0  0  0  0  0  0  0  0  0  0
   28.5863   37.3114   19.8373 C   0  0  0  0  0  0  0  0  0  0  0  0
   28.4750   34.5512   19.3000 N   0  0  0  0  0  0  0  0  0  0  0  0
   28.3811   33.2167   18.9699 C   0  0  0  0  0  0  0  0  0  0  0  0
   28.7299   32.8312   17.8578 O   0  0  0  0  0  0  0  0  0  0  0  0
   27.8947   32.3056   19.8794 N   0  0  0  0  0  0  0  0  0  0  0  0
   27.5063   32.7202   21.1384 C   0  0  0  0  0  0  0  0  0  0  0  0
   27.5968   34.0650   21.4803 C   0  0  1  0  0  0  0  0  0  0  0  0
   27.0890   31.8974   21.9559 O   0  0  0  0  0  0  0  0  0  0  0  0
   27.3012   35.8233   23.0742 C   0  0  2  0  0  0  0  0  0  0  0  0
   27.2086   34.4866   22.7362 N   0  0  0  0  0  0  0  0  0  0  0  0
   26.9084   36.2481   24.3439 C   0  0  0  0  0  0  0  0  0  0  0  0
   26.9925   37.5910   24.6924 C   0  0  1  0  0  0  0  0  0  0  0  0
   26.5590   38.0105   26.0614 C   0  0  0  0  0  0  0  0  0  0  0  0
   27.4800   38.5228   23.7636 C   0  0  1  0  0  0  0  0  0  0  0  0
   27.5956   39.9833   24.1040 C   0  0  0  0  0  0  0  0  0  0  0  0
   27.8697   38.0960   22.4968 C   0  0  0  0  0  0  0  0  0  0  0  0
   27.7816   36.7481   22.1441 C   0  0  1  0  0  0  0  0  0  0  0  0
   28.0812   34.9828   20.5505 C   0  0  1  0  0  0  0  0  0  0  0  0
   28.1671   36.3215   20.8822 N   0  0  0  0  0  0  0  0  0  0  0  0
  1  2  1  1  0  0  0
  1  3  1  0  0  0  0
  1  4  2  0  0  0  0
  1  6  1  0  0  0  0
  5  6  1  0  0  0  0
  7  5  1  6  0  0  0
  7  8  1  0  0  0  0
  7  9  1  0  0  0  0
  9 10  1  1  0  0  0
  9 11  1  0  0  0  0
 11 12  1  6  0  0  0
 11 13  1  0  0  0  0
 13 31  1  0  0  0  0
 14 15  1  0  0  0  0
 15 16  2  0  0  0  0
 15 17  1  0  0  0  0
 17 18  1  0  0  0  0
 18 20  2  0  0  0  0
 19 18  1  1  0  0  0
 19 22  1  0  0  0  0
 19 30  1  0  0  0  0
 21 23  1  6  0  0  0
 21 29  1  0  0  0  0
 21 22  1  0  0  0  0
 23 24  1  0  0  0  0
 24 25  1  1  0  0  0
 24 26  1  0  0  0  0
 26 27  1  1  0  0  0
 26 28  1  0  0  0  0
 29 28  1  1  0  0  0
 29 31  1  0  0  0  0
 30 14  1  1  0  0  0
 30 31  1  0  0  0  0
M  CHG  1   3  -1
M  END
>  <CHROM.1>
-66.69253958,56.12545020,175.28557335,169.65458505,70.42952061,140.92656457
-48.56383551,27.65598648,38.00618099,20.33075535,-1.56044588,-1.42145024
2.70284100

>  <Name>
ligand

>  <RI>
0

>  <Rbt.Current_Directory>
/home/itssahil/PROJECTS/Mol_Feturizer/New_Systems/rnas/3F2T

>  <Rbt.Executable>
rbdock ($Id: //depot/dev/client3/rdock/2013.1/src/exe/rbdock.cxx#4 $)

>  <Rbt.Library>
libRbt.so (2013.1, Build901 2013/11/27)

>  <Rbt.Parameter_File>
/export/apps/rDock/src/rDock_2013.1_src/data/scripts/dock_solv.prm

>  <Rbt.Receptor>
prm/pocket_docking_8.prm

>  <SCORE>
-30.9566

>  <SCORE.INTER>
-33.0689

>  <SCORE.INTER.CONST>
1

>  <SCORE.INTER.POLAR>
0

>  <SCORE.INTER.ROT>
7

>  <SCORE.INTER.SOLV>
18.0027

>  <SCORE.INTER.VDW>
-36.3135

>  <SCORE.INTER.norm>
-1.06674

>  <SCORE.INTRA>
2.11229

>  <SCORE.INTRA.DIHEDRAL>
1.57862

>  <SCORE.INTRA.DIHEDRAL.0>
4.64198

>  <SCORE.INTRA.POLAR>
0

>  <SCORE.INTRA.POLAR.0>
0

>  <SCORE.INTRA.REPUL>
0

>  <SCORE.INTRA.REPUL.0>
0

>  <SCORE.INTRA.SOLV>
0.861104

>  <SCORE.INTRA.SOLV.lig_0>
-49.3611

>  <SCORE.INTRA.VDW>
0.892431

>  <SCORE.INTRA.VDW.0>
-1.91858

>  <SCORE.INTRA.norm>
0.0681385

>  <SCORE.RESTR>
0

>  <SCORE.RESTR.CAVITY>
0

>  <SCORE.RESTR.norm>
0

>  <SCORE.SYSTEM>
0

>  <SCORE.SYSTEM.CONST>
0

>  <SCORE.SYSTEM.DIHEDRAL>
0

>  <SCORE.SYSTEM.SOLV>
0

>  <SCORE.SYSTEM.norm>
0

>  <SCORE.heavy>
31

>  <SCORE.norm>
-0.998601

>  <RMSD>
1.307

$$$$
ligand
 OpenBabel11021811473D
libRbt.so/2013.1/901 2013/11/27
 31 33  0  0  0  0  0  0  0  0999 V2000
   26.2169   42.3409   17.1796 P   0  0  1  0  0  0  0  0  0  0  0  0
   24.7169   42.1978   17.1267 O   0  0  0  0  0  0  0  0  0  0  0  0
   26.6199   43.5131   16.3248 O   0  5  0  0  0  0  0  0  0  0  0  0
   26.5777   42.5417   18.6258 O   0  0  0  0  0  0  0  0  0  0  0  0
   28.3658   40.8660   16.9017 C   0  0  0  0  0  0  0  0  0  0  0  0
   26.9900   41.0429   16.6359 O   0  0  0  0  0  0  0  0  0  0  0  0
   28.5307   39.9177   18.0865 C   0  0  1  0  0  0  0  0  0  0  0  0
   27.4732   40.1121   19.0044 O   0  0  0  0  0  0  0  0  0  0  0  0
   28.5097   38.4765   17.6056 C   0  0  1  0  0  0  0  0  0  0  0  0
   29.5791   38.2893   16.7175 O   0  0  0  0  0  0  0  0  0  0  0  0
   28.6357   37.4782   18.7441 C   0  0  1  0  0  0  0  0  0  0  0  0
   29.5539   37.9857   19.6744 O   0  0  0  0  0  0  0  0  0  0  0  0
   27.2961   37.2641   19.4290 C   0  0  0  0  0  0  0  0  0  0  0  0
   27.4560   34.4960   18.9474 N   0  0  0  0  0  0  0  0  0  0  0  0
   27.4715   33.1478   18.6631 C   0  0  0  0  0  0  0  0  0  0  0  0
   27.4642   32.7641   17.4971 O   0  0  0  0  0  0  0  0  0  0  0  0
   27.4930   32.2206   19.6799 N   0  0  0  0  0  0  0  0  0  0  0  0
   27.5109   32.6346   20.9975 C   0  0  0  0  0  0  0  0  0  0  0  0
   27.4946   33.9930   21.2940 C   0  0  1  0  0  0  0  0  0  0  0  0
   27.5491   31.8004   21.9043 O   0  0  0  0  0  0  0  0  0  0  0  0
   27.4961   35.7642   22.9009 C   0  0  2  0  0  0  0  0  0  0  0  0
   27.5104   34.4137   22.6088 N   0  0  0  0  0  0  0  0  0  0  0  0
   27.5120   36.1882   24.2302 C   0  0  0  0  0  0  0  0  0  0  0  0
   27.4925   37.5441   24.5352 C   0  0  1  0  0  0  0  0  0  0  0  0
   27.5068   37.9615   25.9717 C   0  0  0  0  0  0  0  0  0  0  0  0
   27.4619   38.4909   23.5002 C   0  0  1  0  0  0  0  0  0  0  0  0
   27.4493   39.9673   23.7874 C   0  0  0  0  0  0  0  0  0  0  0  0
   27.4444   38.0647   22.1748 C   0  0  0  0  0  0  0  0  0  0  0  0
   27.4597   36.7030   21.8672 C   0  0  1  0  0  0  0  0  0  0  0  0
   27.4631   34.9254   20.2591 C   0  0  1  0  0  0  0  0  0  0  0  0
   27.4400   36.2766   20.5478 N   0  0  0  0  0  0  0  0  0  0  0  0
  1  2  1  6  0  0  0
  1  3  1  0  0  0  0
  1  4  2  0  0  0  0
  1  6  1  0  0  0  0
  5  6  1  0  0  0  0
  7  5  1  6  0  0  0
  7  8  1  0  0  0  0
  7  9  1  0  0  0  0
  9 10  1  6  0  0  0
  9 11  1  0  0  0  0
 11 12  1  1  0  0  0
 11 13  1  0  0  0  0
 13 31  1  0  0  0  0
 14 15  1  0  0  0  0
 15 16  2  0  0  0  0
 15 17  1  0  0  0  0
 17 18  1  0  0  0  0
 18 20  2  0  0  0  0
 19 18  1  6  0  0  0
 19 22  1  0  0  0  0
 19 30  1  0  0  0  0
 21 23  1  1  0  0  0
 21 29  1  0  0  0  0
 21 22  1  0  0  0  0
 23 24  1  0  0  0  0
 24 25  1  6  0  0  0
 24 26  1  0  0  0  0
 26 27  1  6  0  0  0
 26 28  1  0  0  0  0
 29 28  1  6  0  0  0
 29 31  1  0  0  0  0
 30 14  1  6  0  0  0
 30 31  1  0  0  0  0
M  CHG  1   3  -1
M  END
>  <CHROM.1>
98.81170602,-164.81027022,-34.23560597,60.83521582,-38.79243693,179.96635726
104.15648345,27.47966348,37.72000574,19.87043296,-2.42518063,-1.46440767
1.77819531

>  <Name>
ligand

>  <RI>
0

>  <Rbt.Current_Directory>
/home/itssahil/PROJECTS/Mol_Feturizer/New_Systems/rnas/3F2T

>  <Rbt.Executable>
rbdock ($Id: //depot/dev/client3/rdock/2013.1/src/exe/rbdock.cxx#4 $)

>  <Rbt.Library>
libRbt.so (2013.1, Build901 2013/11/27)

>  <Rbt.Parameter_File>
/export/apps/rDock/src/rDock_2013.1_src/data/scripts/dock_solv.prm

>  <Rbt.Receptor>
prm/pocket_docking_2.prm

>  <SCORE>
-24.3293

>  <SCORE.INTER>
-28.9068

>  <SCORE.INTER.CONST>
1

>  <SCORE.INTER.POLAR>
0

>  <SCORE.INTER.ROT>
7

>  <SCORE.INTER.SOLV>
14.385

>  <SCORE.INTER.VDW>
-32.3329

>  <SCORE.INTER.norm>
-0.932477

>  <SCORE.INTRA>
4.56089

>  <SCORE.INTRA.DIHEDRAL>
5.75942

>  <SCORE.INTRA.DIHEDRAL.0>
4.64198

>  <SCORE.INTRA.POLAR>
0

>  <SCORE.INTRA.POLAR.0>
0

>  <SCORE.INTRA.REPUL>
0

>  <SCORE.INTRA.REPUL.0>
0

>  <SCORE.INTRA.SOLV>
2.61242

>  <SCORE.INTRA.SOLV.lig_0>
-49.3611

>  <SCORE.INTRA.VDW>
0.374969

>  <SCORE.INTRA.VDW.0>
-1.91858

>  <SCORE.INTRA.norm>
0.147125

>  <SCORE.RESTR>
0.0166251

>  <SCORE.RESTR.CAVITY>
0.0166251

>  <SCORE.RESTR.norm>
0.000536293

>  <SCORE.SYSTEM>
0

>  <SCORE.SYSTEM.CONST>
0

>  <SCORE.SYSTEM.DIHEDRAL>
0

>  <SCORE.SYSTEM.SOLV>
0

>  <SCORE.SYSTEM.norm>
0

>  <SCORE.heavy>
31

>  <SCORE.norm>
-0.784815

>  <RMSD>
1.310

$$$$
ligand
 OpenBabel11021811473D
libRbt.so/2013.1/901 2013/11/27
 31 33  0  0  0  0  0  0  0  0999 V2000
   26.4730   43.3203   16.1268 P   0  0  1  0  0  0  0  0  0  0  0  0
   27.7378   43.5339   15.3343 O   0  0  0  0  0  0  0  0  0  0  0  0
   26.4923   44.2360   17.3218 O   0  5  0  0  0  0  0  0  0  0  0  0
   25.3291   43.6221   15.1982 O   0  0  0  0  0  0  0  0  0  0  0  0
   27.3278   41.2227   17.4458 C   0  0  0  0  0  0  0  0  0  0  0  0
   26.3142   41.8140   16.6599 O   0  0  0  0  0  0  0  0  0  0  0  0
   26.9003   39.8106   17.8376 C   0  0  1  0  0  0  0  0  0  0  0  0
   26.7302   39.0236   16.6755 O   0  0  0  0  0  0  0  0  0  0  0  0
   27.9617   39.1713   18.7170 C   0  0  1  0  0  0  0  0  0  0  0  0
   28.2891   40.0706   19.7423 O   0  0  0  0  0  0  0  0  0  0  0  0
   27.4970   37.8651   19.3387 C   0  0  1  0  0  0  0  0  0  0  0  0
   26.8887   37.0937   18.3382 O   0  0  0  0  0  0  0  0  0  0  0  0
   28.6696   37.0939   19.9214 C   0  0  0  0  0  0  0  0  0  0  0  0
   28.5349   34.3299   19.4094 N   0  0  0  0  0  0  0  0  0  0  0  0
   28.4328   32.9934   19.0898 C   0  0  0  0  0  0  0  0  0  0  0  0
   28.8250   32.5893   17.9990 O   0  0  0  0  0  0  0  0  0  0  0  0
   27.8898   32.1013   19.9860 N   0  0  0  0  0  0  0  0  0  0  0  0
   27.4519   32.5370   21.2214 C   0  0  0  0  0  0  0  0  0  0  0  0
   27.5501   33.8838   21.5525 C   0  0  1  0  0  0  0  0  0  0  0  0
   26.9836   31.7307   22.0278 O   0  0  0  0  0  0  0  0  0  0  0  0
   27.2131   35.6652   23.1122 C   0  0  2  0  0  0  0  0  0  0  0  0
   27.1127   34.3264   22.7847 N   0  0  0  0  0  0  0  0  0  0  0  0
   26.7704   36.1112   24.3580 C   0  0  0  0  0  0  0  0  0  0  0  0
   26.8620   37.4564   24.6955 C   0  0  1  0  0  0  0  0  0  0  0  0
   26.3741   37.8990   26.0387 C   0  0  0  0  0  0  0  0  0  0  0  0
   27.4073   38.3691   23.7799 C   0  0  1  0  0  0  0  0  0  0  0  0
   27.5327   39.8313   24.1095 C   0  0  0  0  0  0  0  0  0  0  0  0
   27.8467   37.9212   22.5369 C   0  0  0  0  0  0  0  0  0  0  0  0
   27.7513   36.5710   22.1951 C   0  0  1  0  0  0  0  0  0  0  0  0
   28.0922   34.7826   20.6359 C   0  0  1  0  0  0  0  0  0  0  0  0
   28.1862   36.1233   20.9567 N   0  0  0  0  0  0  0  0  0  0  0  0
  1  2  1  6  0  0  0
  1  3  1  0  0  0  0
  1  4  2  0  0  0  0
  1  6  1  0  0  0  0
  5  6  1  0  0  0  0
  7  5  1  6  0  0  0
  7  8  1  0  0  0  0
  7  9  1  0  0  0  0
  9 10  1  1  0  0  0
  9 11  1  0  0  0  0
 11 12  1  6  0  0  0
 11 13  1  0  0  0  0
 13 31  1  0  0  0  0
 14 15  1  0  0  0  0
 15 16  2  0  0  0  0
 15 17  1  0  0  0  0
 17 18  1  0  0  0  0
 18 20  2  0  0  0  0
 19 18  1  1  0  0  0
 19 22  1  0  0  0  0
 19 30  1  0  0  0  0
 21 23  1  6  0  0  0
 21 29  1  0  0  0  0
 21 22  1  0  0  0  0
 23 24  1  0  0  0  0
 24 25  1  1  0  0  0
 24 26  1  0  0  0  0
 26 27  1  1  0  0  0
 26 28  1  0  0  0  0
 29 28  1  1  0  0  0
 29 31  1  0  0  0  0
 30 14  1  1  0  0  0
 30 31  1  0  0  0  0
M  CHG  1   3  -1
M  END
>  <CHROM.1>
178.63640272,55.64792632,61.66768189,49.48195239,46.31859673,158.29590699
-72.82613323,27.34390845,37.89124830,19.85117894,-2.23159485,-1.41976939
1.91388693

>  <Name>
ligand

>  <RI>
0

>  <Rbt.Current_Directory>
/home/itssahil/PROJECTS/Mol_Feturizer/New_Systems/rnas/3F2T

>  <Rbt.Executable>
rbdock ($Id: //depot/dev/client3/rdock/2013.1/src/exe/rbdock.cxx#4 $)

>  <Rbt.Library>
libRbt.so (2013.1, Build901 2013/11/27)

>  <Rbt.Parameter_File>
/export/apps/rDock/src/rDock_2013.1_src/data/scripts/dock_solv.prm

>  <Rbt.Receptor>
prm/blind_docking_80.prm

>  <SCORE>
-31.1118

>  <SCORE.INTER>
-30.9518

>  <SCORE.INTER.CONST>
1

>  <SCORE.INTER.POLAR>
0

>  <SCORE.INTER.ROT>
7

>  <SCORE.INTER.SOLV>
21.4217

>  <SCORE.INTER.VDW>
-36.0418

>  <SCORE.INTER.norm>
-0.998446

>  <SCORE.INTRA>
-0.159981

>  <SCORE.INTRA.DIHEDRAL>
-0.880617

>  <SCORE.INTRA.DIHEDRAL.0>
4.64198

>  <SCORE.INTRA.POLAR>
0

>  <SCORE.INTRA.POLAR.0>
0

>  <SCORE.INTRA.REPUL>
0

>  <SCORE.INTRA.REPUL.0>
0

>  <SCORE.INTRA.SOLV>
-0.555165

>  <SCORE.INTRA.SOLV.lig_0>
-49.3611

>  <SCORE.INTRA.VDW>
0.55791

>  <SCORE.INTRA.VDW.0>
-1.91858

>  <SCORE.INTRA.norm>
-0.00516068

>  <SCORE.RESTR>
0

>  <SCORE.RESTR.CAVITY>
0

>  <SCORE.RESTR.norm>
0

>  <SCORE.SYSTEM>
0

>  <SCORE.SYSTEM.CONST>
0

>  <SCORE.SYSTEM.DIHEDRAL>
0

>  <SCORE.SYSTEM.SOLV>
0

>  <SCORE.SYSTEM.norm>
0

>  <SCORE.heavy>
31

>  <SCORE.norm>
-1.00361

>  <RMSD>
1.312

$$$$
ligand
 OpenBabel11021811473D
libRbt.so/2013.1/901 2013/11/27
 31 33  0  0  0  0  0  0  0  0999 V2000
   26.4885   43.3511   16.1508 P   0  0  1  0  0  0  0  0  0  0  0  0
   25.6915   43.6577   14.9082 O   0  0  0  0  0  0  0  0  0  0  0  0
   27.9430   43.6200   15.8693 O   0  5  0  0  0  0  0  0  0  0  0  0
   25.9467   44.2385   17.2375 O   0  0  0  0  0  0  0  0  0  0  0  0
   27.2510   41.2810   17.5663 C   0  0  0  0  0  0  0  0  0  0  0  0
   26.3501   41.8227   16.6231 O   0  0  0  0  0  0  0  0  0  0  0  0
   26.8491   39.8412   17.8755 C   0  0  1  0  0  0  0  0  0  0  0  0
   26.7784   39.0971   16.6755 O   0  0  0  0  0  0  0  0  0  0  0  0
   27.8756   39.2010   18.7948 C   0  0  1  0  0  0  0  0  0  0  0  0
   28.0544   40.0341   19.9089 O   0  0  0  0  0  0  0  0  0  0  0  0
   27.4521   37.8228   19.2746 C   0  0  1  0  0  0  0  0  0  0  0  0
   26.9171   37.1227   18.1839 O   0  0  0  0  0  0  0  0  0  0  0  0
   28.6390   37.0530   19.8297 C   0  0  0  0  0  0  0  0  0  0  0  0
   28.5281   34.2837   19.3412 N   0  0  0  0  0  0  0  0  0  0  0  0
   28.4365   32.9436   19.0334 C   0  0  0  0  0  0  0  0  0  0  0  0
   28.8174   32.5353   17.9402 O   0  0  0  0  0  0  0  0  0  0  0  0
   27.9167   32.0526   19.9443 N   0  0  0  0  0  0  0  0  0  0  0  0
   27.4917   32.4931   21.1826 C   0  0  0  0  0  0  0  0  0  0  0  0
   27.5795   33.8436   21.5017 C   0  0  1  0  0  0  0  0  0  0  0  0
   27.0443   31.6881   22.0019 O   0  0  0  0  0  0  0  0  0  0  0  0
   27.2449   35.6333   23.0523 C   0  0  2  0  0  0  0  0  0  0  0  0
   27.1550   34.2910   22.7367 N   0  0  0  0  0  0  0  0  0  0  0  0
   26.8153   36.0843   24.3009 C   0  0  0  0  0  0  0  0  0  0  0  0
   26.8966   37.4331   24.6266 C   0  0  1  0  0  0  0  0  0  0  0  0
   26.4231   37.8807   25.9733 C   0  0  0  0  0  0  0  0  0  0  0  0
   27.4182   38.3445   23.6961 C   0  0  1  0  0  0  0  0  0  0  0  0
   27.5318   39.8105   24.0125 C   0  0  0  0  0  0  0  0  0  0  0  0
   27.8445   37.8917   22.4504 C   0  0  0  0  0  0  0  0  0  0  0  0
   27.7596   36.5378   22.1205 C   0  0  1  0  0  0  0  0  0  0  0  0
   28.0980   34.7410   20.5704 C   0  0  1  0  0  0  0  0  0  0  0  0
   28.1815   36.0853   20.8794 N   0  0  0  0  0  0  0  0  0  0  0  0
  1  2  1  6  0  0  0
  1  3  1  0  0  0  0
  1  4  2  0  0  0  0
  1  6  1  0  0  0  0
  5  6  1  0  0  0  0
  7  5  1  6  0  0  0
  7  8  1  0  0  0  0
  7  9  1  0  0  0  0
  9 10  1  1  0  0  0
  9 11  1  0  0  0  0
 11 12  1  6  0  0  0
 11 13  1  0  0  0  0
 13 31  1  0  0  0  0
 14 15  1  0  0  0  0
 15 16  2  0  0  0  0
 15 17  1  0  0  0  0
 17 18  1  0  0  0  0
 18 20  2  0  0  0  0
 19 18  1  1  0  0  0
 19 22  1  0  0  0  0
 19 30  1  0  0  0  0
 21 23  1  6  0  0  0
 21 29  1  0  0  0  0
 21 22  1  0  0  0  0
 23 24  1  0  0  0  0
 24 25  1  1  0  0  0
 24 26  1  0  0  0  0
 26 27  1  1  0  0  0
 26 28  1  0  0  0  0
 29 28  1  1  0  0  0
 29 31  1  0  0  0  0
 30 14  1  1  0  0  0
 30 31  1  0  0  0  0
M  CHG  1   3  -1
M  END
>  <CHROM.1>
177.46200344,165.30695840,55.14082172,52.61778083,43.21108127,151.21563860
-71.88386321,27.34362130,37.88227709,19.82708042,-2.25621727,-1.41743290
1.90717121

>  <Name>
ligand

>  <RI>
0

>  <Rbt.Current_Directory>
/home/itssahil/PROJECTS/Mol_Feturizer/New_Systems/rnas/3F2T

>  <Rbt.Executable>
rbdock ($Id: //depot/dev/client3/rdock/2013.1/src/exe/rbdock.cxx#4 $)

>  <Rbt.Library>
libRbt.so (2013.1, Build901 2013/11/27)

>  <Rbt.Parameter_File>
/export/apps/rDock/src/rDock_2013.1_src/data/scripts/dock_solv.prm

>  <Rbt.Receptor>
prm/pocket_docking_3.prm

>  <SCORE>
-30.8624

>  <SCORE.INTER>
-32.0156

>  <SCORE.INTER.CONST>
1

>  <SCORE.INTER.POLAR>
0

>  <SCORE.INTER.ROT>
7

>  <SCORE.INTER.SOLV>
21.6063

>  <SCORE.INTER.VDW>
-36.8125

>  <SCORE.INTER.norm>
-1.03276

>  <SCORE.INTRA>
1.15321

>  <SCORE.INTRA.DIHEDRAL>
0.606422

>  <SCORE.INTRA.DIHEDRAL.0>
4.64198

>  <SCORE.INTRA.POLAR>
0

>  <SCORE.INTRA.POLAR.0>
0

>  <SCORE.INTRA.REPUL>
0

>  <SCORE.INTRA.REPUL.0>
0

>  <SCORE.INTRA.SOLV>
0.0619385

>  <SCORE.INTRA.SOLV.lig_0>
-49.3611

>  <SCORE.INTRA.VDW>
0.819032

>  <SCORE.INTRA.VDW.0>
-1.91858

>  <SCORE.INTRA.norm>
0.0372004

>  <SCORE.RESTR>
0

>  <SCORE.RESTR.CAVITY>
0

>  <SCORE.RESTR.norm>
0

>  <SCORE.SYSTEM>
0

>  <SCORE.SYSTEM.CONST>
0

>  <SCORE.SYSTEM.DIHEDRAL>
0

>  <SCORE.SYSTEM.SOLV>
0

>  <SCORE.SYSTEM.norm>
0

>  <SCORE.heavy>
31

>  <SCORE.norm>
-0.99556

>  <RMSD>
1.313

$$$$
ligand
 OpenBabel11021811473D
libRbt.so/2013.1/901 2013/11/27
 31 33  0  0  0  0  0  0  0  0999 V2000
   27.8712   42.6354   17.0357 P   0  0  1  0  0  0  0  0  0  0  0  0
   28.9206   42.9110   18.0826 O   0  0  0  0  0  0  0  0  0  0  0  0
   26.8413   43.7327   17.0846 O   0  5  0  0  0  0  0  0  0  0  0  0
   28.5868   42.5864   15.7138 O   0  0  0  0  0  0  0  0  0  0  0  0
   26.3803   41.0015   18.4422 C   0  0  0  0  0  0  0  0  0  0  0  0
   27.1151   41.2366   17.2591 O   0  0  0  0  0  0  0  0  0  0  0  0
   27.3404   40.9491   19.6278 C   0  0  1  0  0  0  0  0  0  0  0  0
   26.6082   40.8122   20.8294 O   0  0  0  0  0  0  0  0  0  0  0  0
   28.2803   39.7639   19.4835 C   0  0  1  0  0  0  0  0  0  0  0  0
   29.3250   39.9109   20.4077 O   0  0  0  0  0  0  0  0  0  0  0  0
   27.5875   38.4346   19.7320 C   0  0  1  0  0  0  0  0  0  0  0  0
   26.7215   38.1825   18.6586 O   0  0  0  0  0  0  0  0  0  0  0  0
   28.5999   37.3057   19.8339 C   0  0  0  0  0  0  0  0  0  0  0  0
   28.4856   34.5416   19.3177 N   0  0  0  0  0  0  0  0  0  0  0  0
   28.3904   33.2047   18.9976 C   0  0  0  0  0  0  0  0  0  0  0  0
   28.7422   32.8100   17.8898 O   0  0  0  0  0  0  0  0  0  0  0  0
   27.8994   32.3015   19.9126 N   0  0  0  0  0  0  0  0  0  0  0  0
   27.5075   32.7266   21.1671 C   0  0  0  0  0  0  0  0  0  0  0  0
   27.5992   34.0738   21.4987 C   0  0  1  0  0  0  0  0  0  0  0  0
   27.0861   31.9109   21.9895 O   0  0  0  0  0  0  0  0  0  0  0  0
   27.3014   35.8450   23.0779 C   0  0  2  0  0  0  0  0  0  0  0  0
   27.2076   34.5059   22.7500 N   0  0  0  0  0  0  0  0  0  0  0  0
   26.9051   36.2803   24.3429 C   0  0  0  0  0  0  0  0  0  0  0  0
   26.9904   37.6257   24.6813 C   0  0  1  0  0  0  0  0  0  0  0  0
   26.5531   38.0566   26.0455 C   0  0  0  0  0  0  0  0  0  0  0  0
   27.4826   38.5495   23.7469 C   0  0  1  0  0  0  0  0  0  0  0  0
   27.5995   40.0124   24.0764 C   0  0  0  0  0  0  0  0  0  0  0  0
   27.8757   38.1122   22.4848 C   0  0  0  0  0  0  0  0  0  0  0  0
   27.7865   36.7618   22.1423 C   0  0  1  0  0  0  0  0  0  0  0  0
   28.0883   34.9836   20.5635 C   0  0  1  0  0  0  0  0  0  0  0  0
   28.1754   36.3246   20.8850 N   0  0  0  0  0  0  0  0  0  0  0  0
  1  2  1  1  0  0  0
  1  3  1  0  0  0  0
  1  4  2  0  0  0  0
  1  6  1  0  0  0  0
  5  6  1  0  0  0  0
  7  5  1  6  0  0  0
  7  8  1  0  0  0  0
  7  9  1  0  0  0  0
  9 10  1  1  0  0  0
  9 11  1  0  0  0  0
 11 12  1  6  0  0  0
 11 13  1  0  0  0  0
 13 31  1  0  0  0  0
 14 15  1  0  0  0  0
 15 16  2  0  0  0  0
 15 17  1  0  0  0  0
 17 18  1  0  0  0  0
 18 20  2  0  0  0  0
 19 18  1  1  0  0  0
 19 22  1  0  0  0  0
 19 30  1  0  0  0  0
 21 23  1  6  0  0  0
 21 29  1  0  0  0  0
 21 22  1  0  0  0  0
 23 24  1  0  0  0  0
 24 25  1  1  0  0  0
 24 26  1  0  0  0  0
 26 27  1  1  0  0  0
 26 28  1  0  0  0  0
 29 28  1  1  0  0  0
 29 31  1  0  0  0  0
 30 14  1  1  0  0  0
 30 31  1  0  0  0  0
M  CHG  1   3  -1
M  END
>  <CHROM.1>
-66.48683161,60.83526132,175.73715001,166.96590327,70.68807929,142.24098041
-48.50532042,27.68458223,38.01026598,20.31361971,-1.49936053,-1.41518526
2.75482226

>  <Name>
ligand

>  <RI>
0

>  <Rbt.Current_Directory>
/home/itssahil/PROJECTS/Mol_Feturizer/New_Systems/rnas/3F2T

>  <Rbt.Executable>
rbdock ($Id: //depot/dev/client3/rdock/2013.1/src/exe/rbdock.cxx#4 $)

>  <Rbt.Library>
libRbt.so (2013.1, Build901 2013/11/27)

>  <Rbt.Parameter_File>
/export/apps/rDock/src/rDock_2013.1_src/data/scripts/dock_solv.prm

>  <Rbt.Receptor>
prm/pocket_docking_3.prm

>  <SCORE>
-30.8736

>  <SCORE.INTER>
-32.8638

>  <SCORE.INTER.CONST>
1

>  <SCORE.INTER.POLAR>
0

>  <SCORE.INTER.ROT>
7

>  <SCORE.INTER.SOLV>
18.5101

>  <SCORE.INTER.VDW>
-36.3459

>  <SCORE.INTER.norm>
-1.06012

>  <SCORE.INTRA>
1.9902

>  <SCORE.INTRA.DIHEDRAL>
1.58963

>  <SCORE.INTRA.DIHEDRAL.0>
4.64198

>  <SCORE.INTRA.POLAR>
0

>  <SCORE.INTRA.POLAR.0>
0

>  <SCORE.INTRA.REPUL>
0

>  <SCORE.INTRA.REPUL.0>
0

>  <SCORE.INTRA.SOLV>
0.866965

>  <SCORE.INTRA.SOLV.lig_0>
-49.3611

>  <SCORE.INTRA.VDW>
0.761902

>  <SCORE.INTRA.VDW.0>
-1.91858

>  <SCORE.INTRA.norm>
0.0641999

>  <SCORE.RESTR>
0

>  <SCORE.RESTR.CAVITY>
0

>  <SCORE.RESTR.norm>
0

>  <SCORE.SYSTEM>
0

>  <SCORE.SYSTEM.CONST>
0

>  <SCORE.SYSTEM.DIHEDRAL>
0

>  <SCORE.SYSTEM.SOLV>
0

>  <SCORE.SYSTEM.norm>
0

>  <SCORE.heavy>
31

>  <SCORE.norm>
-0.995922

>  <RMSD>
1.316

$$$$
ligand
 OpenBabel11021811473D
libRbt.so/2013.1/901 2013/11/27
 31 33  0  0  0  0  0  0  0  0999 V2000
   26.6963   42.7716   16.9413 P   0  0  1  0  0  0  0  0  0  0  0  0
   26.6246   42.5632   15.4498 O   0  0  0  0  0  0  0  0  0  0  0  0
   26.5353   44.2403   17.2313 O   0  5  0  0  0  0  0  0  0  0  0  0
   25.5901   41.9491   17.5428 O   0  0  0  0  0  0  0  0  0  0  0  0
   28.7086   41.1025   17.1286 C   0  0  0  0  0  0  0  0  0  0  0  0
   28.0916   42.2920   17.5748 O   0  0  0  0  0  0  0  0  0  0  0  0
   27.8979   39.9035   17.6136 C   0  0  1  0  0  0  0  0  0  0  0  0
   28.4389   38.7128   17.0767 O   0  0  0  0  0  0  0  0  0  0  0  0
   27.9408   39.8264   19.1305 C   0  0  1  0  0  0  0  0  0  0  0  0
   27.1800   40.8839   19.6503 O   0  0  0  0  0  0  0  0  0  0  0  0
   27.3898   38.5152   19.6651 C   0  0  1  0  0  0  0  0  0  0  0  0
   26.3991   38.0619   18.7824 O   0  0  0  0  0  0  0  0  0  0  0  0
   28.4858   37.4675   19.7678 C   0  0  0  0  0  0  0  0  0  0  0  0
   28.4655   34.7116   19.1981 N   0  0  0  0  0  0  0  0  0  0  0  0
   28.4137   33.3784   18.8534 C   0  0  0  0  0  0  0  0  0  0  0  0
   28.7480   33.0199   17.7280 O   0  0  0  0  0  0  0  0  0  0  0  0
   27.9859   32.4387   19.7633 N   0  0  0  0  0  0  0  0  0  0  0  0
   27.6148   32.8232   21.0369 C   0  0  0  0  0  0  0  0  0  0  0  0
   27.6630   34.1663   21.3936 C   0  0  1  0  0  0  0  0  0  0  0  0
   27.2503   31.9754   21.8541 O   0  0  0  0  0  0  0  0  0  0  0  0
   27.3422   35.8930   23.0169 C   0  0  2  0  0  0  0  0  0  0  0  0
   27.2917   34.5578   22.6642 N   0  0  0  0  0  0  0  0  0  0  0  0
   26.9665   36.2874   24.3015 C   0  0  0  0  0  0  0  0  0  0  0  0
   27.0086   37.6283   24.6650 C   0  0  1  0  0  0  0  0  0  0  0  0
   26.5951   38.0146   26.0498 C   0  0  0  0  0  0  0  0  0  0  0  0
   27.4362   38.5890   23.7362 C   0  0  1  0  0  0  0  0  0  0  0  0
   27.5050   40.0487   24.0923 C   0  0  0  0  0  0  0  0  0  0  0  0
   27.8089   38.1925   22.4545 C   0  0  0  0  0  0  0  0  0  0  0  0
   27.7630   36.8465   22.0869 C   0  0  1  0  0  0  0  0  0  0  0  0
   28.0880   35.1130   20.4637 C   0  0  1  0  0  0  0  0  0  0  0  0
   28.1316   36.4499   20.8102 N   0  0  0  0  0  0  0  0  0  0  0  0
  1  2  1  6  0  0  0
  1  3  1  0  0  0  0
  1  4  2  0  0  0  0
  1  6  1  0  0  0  0
  5  6  1  0  0  0  0
  7  5  1  6  0  0  0
  7  8  1  0  0  0  0
  7  9  1  0  0  0  0
  9 10  1  1  0  0  0
  9 11  1  0  0  0  0
 11 12  1  6  0  0  0
 11 13  1  0  0  0  0
 13 31  1  0  0  0  0
 14 15  1  0  0  0  0
 15 16  2  0  0  0  0
 15 17  1  0  0  0  0
 17 18  1  0  0  0  0
 18 20  2  0  0  0  0
 19 18  1  1  0  0  0
 19 22  1  0  0  0  0
 19 30  1  0  0  0  0
 21 23  1  6  0  0  0
 21 29  1  0  0  0  0
 21 22  1  0  0  0  0
 23 24  1  0  0  0  0
 24 25  1  1  0  0  0
 24 26  1  0  0  0  0
 26 27  1  1  0  0  0
 26 28  1  0  0  0  0
 29 28  1  1  0  0  0
 29 31  1  0  0  0  0
 30 14  1  1  0  0  0
 30 31  1  0  0  0  0
M  CHG  1   3  -1
M  END
>  <CHROM.1>
-70.76372370,-40.24458358,174.93913409,70.70048491,-30.80807224,154.74344157
-51.60590535,27.49798631,38.02275949,19.98253118,-1.99135355,-1.40016719
2.20019791

>  <Name>
ligand

>  <RI>
0

>  <Rbt.Current_Directory>
/home/itssahil/PROJECTS/Mol_Feturizer/New_Systems/rnas/3F2T

>  <Rbt.Executable>
rbdock ($Id: //depot/dev/client3/rdock/2013.1/src/exe/rbdock.cxx#4 $)

>  <Rbt.Library>
libRbt.so (2013.1, Build901 2013/11/27)

>  <Rbt.Parameter_File>
/export/apps/rDock/src/rDock_2013.1_src/data/scripts/dock_solv.prm

>  <Rbt.Receptor>
prm/pocket_docking_2.prm

>  <SCORE>
-28.6492

>  <SCORE.INTER>
-32.5209

>  <SCORE.INTER.CONST>
1

>  <SCORE.INTER.POLAR>
0

>  <SCORE.INTER.ROT>
7

>  <SCORE.INTER.SOLV>
15.8912

>  <SCORE.INTER.VDW>
-35.2443

>  <SCORE.INTER.norm>
-1.04906

>  <SCORE.INTRA>
3.84847

>  <SCORE.INTRA.DIHEDRAL>
2.7782

>  <SCORE.INTRA.DIHEDRAL.0>
4.64198

>  <SCORE.INTRA.POLAR>
0

>  <SCORE.INTRA.POLAR.0>
0

>  <SCORE.INTRA.REPUL>
0

>  <SCORE.INTRA.REPUL.0>
0

>  <SCORE.INTRA.SOLV>
3.14972

>  <SCORE.INTRA.SOLV.lig_0>
-49.3611

>  <SCORE.INTRA.VDW>
0.884513

>  <SCORE.INTRA.VDW.0>
-1.91858

>  <SCORE.INTRA.norm>
0.124144

>  <SCORE.RESTR>
0.0232145

>  <SCORE.RESTR.CAVITY>
0.0232145

>  <SCORE.RESTR.norm>
0.000748854

>  <SCORE.SYSTEM>
0

>  <SCORE.SYSTEM.CONST>
0

>  <SCORE.SYSTEM.DIHEDRAL>
0

>  <SCORE.SYSTEM.SOLV>
0

>  <SCORE.SYSTEM.norm>
0

>  <SCORE.heavy>
31

>  <SCORE.norm>
-0.924167

>  <RMSD>
1.321

$$$$
ligand
 OpenBabel11021811473D
libRbt.so/2013.1/901 2013/11/27
 31 33  0  0  0  0  0  0  0  0999 V2000
   25.5385   42.8832   18.0725 P   0  0  1  0  0  0  0  0  0  0  0  0
   25.3385   44.3470   17.7715 O   0  0  0  0  0  0  0  0  0  0  0  0
   24.8917   42.5702   19.3956 O   0  5  0  0  0  0  0  0  0  0  0  0
   24.9090   42.1223   16.9381 O   0  0  0  0  0  0  0  0  0  0  0  0
   27.4602   41.2132   18.6962 C   0  0  0  0  0  0  0  0  0  0  0  0
   27.0869   42.4689   18.1682 O   0  0  0  0  0  0  0  0  0  0  0  0
   27.0061   40.1118   17.7418 C   0  0  1  0  0  0  0  0  0  0  0  0
   27.1571   40.5464   16.4050 O   0  0  0  0  0  0  0  0  0  0  0  0
   27.8445   38.8624   17.9535 C   0  0  1  0  0  0  0  0  0  0  0  0
   29.1985   39.2276   17.9326 O   0  0  0  0  0  0  0  0  0  0  0  0
   27.5420   38.1718   19.2727 C   0  0  1  0  0  0  0  0  0  0  0  0
   26.3814   37.4019   19.1101 O   0  0  0  0  0  0  0  0  0  0  0  0
   28.6896   37.2656   19.6866 C   0  0  0  0  0  0  0  0  0  0  0  0
   28.5517   34.4992   19.1887 N   0  0  0  0  0  0  0  0  0  0  0  0
   28.4466   33.1612   18.8767 C   0  0  0  0  0  0  0  0  0  0  0  0
   28.8166   32.7537   17.7794 O   0  0  0  0  0  0  0  0  0  0  0  0
   27.9253   32.2712   19.7878 N   0  0  0  0  0  0  0  0  0  0  0  0
   27.5126   32.7107   21.0305 C   0  0  0  0  0  0  0  0  0  0  0  0
   27.6141   34.0592   21.3540 C   0  0  1  0  0  0  0  0  0  0  0  0
   27.0638   31.9065   21.8500 O   0  0  0  0  0  0  0  0  0  0  0  0
   27.3053   35.8460   22.9134 C   0  0  2  0  0  0  0  0  0  0  0  0
   27.2017   34.5056   22.5935 N   0  0  0  0  0  0  0  0  0  0  0  0
   26.8880   36.2959   24.1665 C   0  0  0  0  0  0  0  0  0  0  0  0
   26.9830   37.6427   24.4966 C   0  0  1  0  0  0  0  0  0  0  0  0
   26.5226   38.0894   25.8481 C   0  0  0  0  0  0  0  0  0  0  0  0
   27.5061   38.5531   23.5659 C   0  0  1  0  0  0  0  0  0  0  0  0
   27.6344   40.0170   23.8869 C   0  0  0  0  0  0  0  0  0  0  0  0
   27.9201   38.1013   22.3157 C   0  0  0  0  0  0  0  0  0  0  0  0
   27.8213   36.7495   21.9814 C   0  0  1  0  0  0  0  0  0  0  0  0
   28.1339   34.9556   20.4225 C   0  0  1  0  0  0  0  0  0  0  0  0
   28.2310   36.2979   20.7359 N   0  0  0  0  0  0  0  0  0  0  0  0
  1  2  1  6  0  0  0
  1  3  1  0  0  0  0
  1  4  2  0  0  0  0
  1  6  1  0  0  0  0
  5  6  1  0  0  0  0
  7  5  1  1  0  0  0
  7  8  1  0  0  0  0
  7  9  1  0  0  0  0
  9 10  1  1  0  0  0
  9 11  1  0  0  0  0
 11 12  1  6  0  0  0
 11 13  1  0  0  0  0
 13 31  1  0  0  0  0
 14 15  1  0  0  0  0
 15 16  2  0  0  0  0
 15 17  1  0  0  0  0
 17 18  1  0  0  0  0
 18 20  2  0  0  0  0
 19 18  1  1  0  0  0
 19 22  1  0  0  0  0
 19 30  1  0  0  0  0
 21 23  1  6  0  0  0
 21 29  1  0  0  0  0
 21 22  1  0  0  0  0
 23 24  1  0  0  0  0
 24 25  1  1  0  0  0
 24 26  1  0  0  0  0
 26 27  1  1  0  0  0
 26 28  1  0  0  0  0
 29 28  1  1  0  0  0
 29 31  1  0  0  0  0
 30 14  1  1  0  0  0
 30 31  1  0  0  0  0
M  CHG  1   3  -1
M  END
>  <CHROM.1>
68.03128827,167.53079492,37.01697788,-49.91779641,80.67348509,-163.06572355
-64.50342883,27.22145344,37.94368731,20.11172155,2.45256867,1.32790894,-1.24089721

>  <Name>
ligand

>  <RI>
0

>  <Rbt.Current_Directory>
/home/itssahil/PROJECTS/Mol_Feturizer/New_Systems/rnas/3F2T

>  <Rbt.Executable>
rbdock ($Id: //depot/dev/client3/rdock/2013.1/src/exe/rbdock.cxx#4 $)

>  <Rbt.Library>
libRbt.so (2013.1, Build901 2013/11/27)

>  <Rbt.Parameter_File>
/export/apps/rDock/src/rDock_2013.1_src/data/scripts/dock_solv.prm

>  <Rbt.Receptor>
prm/pocket_docking_2.prm

>  <SCORE>
-24.9753

>  <SCORE.INTER>
-29.7224

>  <SCORE.INTER.CONST>
1

>  <SCORE.INTER.POLAR>
0

>  <SCORE.INTER.ROT>
7

>  <SCORE.INTER.SOLV>
18.5881

>  <SCORE.INTER.VDW>
-34.2776

>  <SCORE.INTER.norm>
-0.958788

>  <SCORE.INTRA>
3.72989

>  <SCORE.INTRA.DIHEDRAL>
1.56629

>  <SCORE.INTRA.DIHEDRAL.0>
4.64198

>  <SCORE.INTRA.POLAR>
0

>  <SCORE.INTRA.POLAR.0>
0

>  <SCORE.INTRA.REPUL>
0

>  <SCORE.INTRA.REPUL.0>
0

>  <SCORE.INTRA.SOLV>
2.78918

>  <SCORE.INTRA.SOLV.lig_0>
-49.3611

>  <SCORE.INTRA.VDW>
1.55216

>  <SCORE.INTRA.VDW.0>
-1.91858

>  <SCORE.INTRA.norm>
0.120319

>  <SCORE.RESTR>
1.01722

>  <SCORE.RESTR.CAVITY>
1.01722

>  <SCORE.RESTR.norm>
0.0328134

>  <SCORE.SYSTEM>
0

>  <SCORE.SYSTEM.CONST>
0

>  <SCORE.SYSTEM.DIHEDRAL>
0

>  <SCORE.SYSTEM.SOLV>
0

>  <SCORE.SYSTEM.norm>
0

>  <SCORE.heavy>
31

>  <SCORE.norm>
-0.805655

>  <RMSD>
1.328

$$$$
ligand
 OpenBabel11021811473D
libRbt.so/2013.1/901 2013/11/27
 31 33  0  0  0  0  0  0  0  0999 V2000
   27.2555   42.9063   16.6959 P   0  0  1  0  0  0  0  0  0  0  0  0
   26.8998   41.5953   16.0417 O   0  0  0  0  0  0  0  0  0  0  0  0
   27.7092   43.8692   15.6310 O   0  5  0  0  0  0  0  0  0  0  0  0
   26.0162   43.3831   17.4023 O   0  0  0  0  0  0  0  0  0  0  0  0
   28.2434   42.0189   18.9558 C   0  0  0  0  0  0  0  0  0  0  0  0
   28.4370   42.7685   17.7745 O   0  0  0  0  0  0  0  0  0  0  0  0
   28.0922   40.5433   18.5953 C   0  0  1  0  0  0  0  0  0  0  0  0
   29.3674   39.9705   18.3836 O   0  0  0  0  0  0  0  0  0  0  0  0
   27.3978   39.8008   19.7246 C   0  0  1  0  0  0  0  0  0  0  0  0
   26.1446   40.3927   19.9402 O   0  0  0  0  0  0  0  0  0  0  0  0
   27.1987   38.3258   19.4192 C   0  0  1  0  0  0  0  0  0  0  0  0
   26.9709   38.1885   18.0426 O   0  0  0  0  0  0  0  0  0  0  0  0
   28.4285   37.5208   19.8055 C   0  0  0  0  0  0  0  0  0  0  0  0
   28.4258   34.7612   19.2535 N   0  0  0  0  0  0  0  0  0  0  0  0
   28.3829   33.4256   18.9172 C   0  0  0  0  0  0  0  0  0  0  0  0
   28.7244   33.0616   17.7957 O   0  0  0  0  0  0  0  0  0  0  0  0
   27.9558   32.4894   19.8310 N   0  0  0  0  0  0  0  0  0  0  0  0
   27.5765   32.8801   21.1004 C   0  0  0  0  0  0  0  0  0  0  0  0
   27.6158   34.2257   21.4486 C   0  0  1  0  0  0  0  0  0  0  0  0
   27.2127   32.0355   21.9213 O   0  0  0  0  0  0  0  0  0  0  0  0
   27.2780   35.9610   23.0593 C   0  0  2  0  0  0  0  0  0  0  0  0
   27.2363   34.6233   22.7150 N   0  0  0  0  0  0  0  0  0  0  0  0
   26.8940   36.3616   24.3395 C   0  0  0  0  0  0  0  0  0  0  0  0
   26.9272   37.7050   24.6946 C   0  0  1  0  0  0  0  0  0  0  0  0
   26.5049   38.0979   26.0749 C   0  0  0  0  0  0  0  0  0  0  0  0
   27.3540   38.6620   23.7616 C   0  0  1  0  0  0  0  0  0  0  0  0
   27.4132   40.1244   24.1086 C   0  0  0  0  0  0  0  0  0  0  0  0
   27.7349   38.2593   22.4843 C   0  0  0  0  0  0  0  0  0  0  0  0
   27.6980   36.9108   22.1252 C   0  0  1  0  0  0  0  0  0  0  0  0
   28.0401   35.1687   20.5147 C   0  0  1  0  0  0  0  0  0  0  0  0
   28.0748   36.5080   20.8528 N   0  0  0  0  0  0  0  0  0  0  0  0
  1  2  1  6  0  0  0
  1  3  1  0  0  0  0
  1  4  2  0  0  0  0
  1  6  1  0  0  0  0
  5  6  1  0  0  0  0
  7  5  1  1  0  0  0
  7  8  1  0  0  0  0
  7  9  1  0  0  0  0
  9 10  1  6  0  0  0
  9 11  1  0  0  0  0
 11 12  1  6  0  0  0
 11 13  1  0  0  0  0
 13 31  1  0  0  0  0
 14 15  1  0  0  0  0
 15 16  2  0  0  0  0
 15 17  1  0  0  0  0
 17 18  1  0  0  0  0
 18 20  2  0  0  0  0
 19 18  1  1  0  0  0
 19 22  1  0  0  0  0
 19 30  1  0  0  0  0
 21 23  1  6  0  0  0
 21 29  1  0  0  0  0
 21 22  1  0  0  0  0
 23 24  1  0  0  0  0
 24 25  1  1  0  0  0
 24 26  1  0  0  0  0
 26 27  1  1  0  0  0
 26 28  1  0  0  0  0
 29 28  1  1  0  0  0
 29 31  1  0  0  0  0
 30 14  1  1  0  0  0
 30 31  1  0  0  0  0
M  CHG  1   3  -1
M  END
>  <CHROM.1>
67.22748237,-65.54347598,80.61064839,58.63254680,-33.79594149,118.86599532
-67.00143863,27.57030182,38.16018521,20.08393368,-1.69488106,-1.40886768
2.50329543

>  <Name>
ligand

>  <RI>
0

>  <Rbt.Current_Directory>
/home/itssahil/PROJECTS/Mol_Feturizer/New_Systems/rnas/3F2T

>  <Rbt.Executable>
rbdock ($Id: //depot/dev/client3/rdock/2013.1/src/exe/rbdock.cxx#4 $)

>  <Rbt.Library>
libRbt.so (2013.1, Build901 2013/11/27)

>  <Rbt.Parameter_File>
/export/apps/rDock/src/rDock_2013.1_src/data/scripts/dock_solv.prm

>  <Rbt.Receptor>
prm/pocket_docking_5.prm

>  <SCORE>
-28.8313

>  <SCORE.INTER>
-32.2191

>  <SCORE.INTER.CONST>
1

>  <SCORE.INTER.POLAR>
0

>  <SCORE.INTER.ROT>
7

>  <SCORE.INTER.SOLV>
19.0583

>  <SCORE.INTER.VDW>
-36.0988

>  <SCORE.INTER.norm>
-1.03933

>  <SCORE.INTRA>
3.38779

>  <SCORE.INTRA.DIHEDRAL>
5.65539

>  <SCORE.INTRA.DIHEDRAL.0>
4.64198

>  <SCORE.INTRA.POLAR>
0

>  <SCORE.INTRA.POLAR.0>
0

>  <SCORE.INTRA.REPUL>
0

>  <SCORE.INTRA.REPUL.0>
0

>  <SCORE.INTRA.SOLV>
1.16255

>  <SCORE.INTRA.SOLV.lig_0>
-49.3611

>  <SCORE.INTRA.VDW>
-0.0211766

>  <SCORE.INTRA.VDW.0>
-1.91858

>  <SCORE.INTRA.norm>
0.109284

>  <SCORE.RESTR>
0

>  <SCORE.RESTR.CAVITY>
0

>  <SCORE.RESTR.norm>
0

>  <SCORE.SYSTEM>
0

>  <SCORE.SYSTEM.CONST>
0

>  <SCORE.SYSTEM.DIHEDRAL>
0

>  <SCORE.SYSTEM.SOLV>
0

>  <SCORE.SYSTEM.norm>
0

>  <SCORE.heavy>
31

>  <SCORE.norm>
-0.930042

>  <RMSD>
1.337

$$$$
ligand
 OpenBabel11021811473D
libRbt.so/2013.1/901 2013/11/27
 31 33  0  0  0  0  0  0  0  0999 V2000
   26.2896   43.4880   16.3585 P   0  0  1  0  0  0  0  0  0  0  0  0
   26.3685   43.9003   14.9104 O   0  0  0  0  0  0  0  0  0  0  0  0
   27.3714   44.2035   17.1232 O   0  5  0  0  0  0  0  0  0  0  0  0
   24.9135   43.8621   16.8364 O   0  0  0  0  0  0  0  0  0  0  0  0
   26.9021   41.4050   17.8270 C   0  0  0  0  0  0  0  0  0  0  0  0
   26.4931   41.9097   16.5729 O   0  0  0  0  0  0  0  0  0  0  0  0
   26.9909   39.8830   17.7512 C   0  0  1  0  0  0  0  0  0  0  0  0
   27.9085   39.5079   16.7431 O   0  0  0  0  0  0  0  0  0  0  0  0
   27.4625   39.3229   19.0826 C   0  0  1  0  0  0  0  0  0  0  0  0
   26.7346   39.9439   20.1081 O   0  0  0  0  0  0  0  0  0  0  0  0
   27.2711   37.8190   19.1851 C   0  0  1  0  0  0  0  0  0  0  0  0
   27.0520   37.3146   17.8953 O   0  0  0  0  0  0  0  0  0  0  0  0
   28.5017   37.1546   19.7797 C   0  0  0  0  0  0  0  0  0  0  0  0
   28.4534   34.3841   19.2876 N   0  0  0  0  0  0  0  0  0  0  0  0
   28.3903   33.0426   18.9791 C   0  0  0  0  0  0  0  0  0  0  0  0
   28.7538   32.6466   17.8756 O   0  0  0  0  0  0  0  0  0  0  0  0
   27.9184   32.1362   19.9010 N   0  0  0  0  0  0  0  0  0  0  0  0
   27.5138   32.5630   21.1508 C   0  0  0  0  0  0  0  0  0  0  0  0
   27.5732   33.9148   21.4708 C   0  0  1  0  0  0  0  0  0  0  0  0
   27.1097   31.7448   21.9795 O   0  0  0  0  0  0  0  0  0  0  0  0
   27.2303   35.6922   23.0338 C   0  0  2  0  0  0  0  0  0  0  0  0
   27.1686   34.3485   22.7174 N   0  0  0  0  0  0  0  0  0  0  0  0
   26.8210   36.1292   24.2941 C   0  0  0  0  0  0  0  0  0  0  0  0
   26.8740   37.4792   24.6208 C   0  0  1  0  0  0  0  0  0  0  0  0
   26.4236   37.9116   25.9802 C   0  0  0  0  0  0  0  0  0  0  0  0
   27.3466   38.4060   23.6794 C   0  0  1  0  0  0  0  0  0  0  0  0
   27.4285   39.8741   23.9962 C   0  0  0  0  0  0  0  0  0  0  0  0
   27.7528   37.9670   22.4220 C   0  0  0  0  0  0  0  0  0  0  0  0
   27.6960   36.6119   22.0912 C   0  0  1  0  0  0  0  0  0  0  0  0
   28.0430   34.8276   20.5286 C   0  0  1  0  0  0  0  0  0  0  0  0
   28.0979   36.1730   20.8386 N   0  0  0  0  0  0  0  0  0  0  0  0
  1  2  1  6  0  0  0
  1  3  1  0  0  0  0
  1  4  2  0  0  0  0
  1  6  1  0  0  0  0
  5  6  1  0  0  0  0
  7  5  1  1  0  0  0
  7  8  1  0  0  0  0
  7  9  1  0  0  0  0
  9 10  1  1  0  0  0
  9 11  1  0  0  0  0
 11 12  1  6  0  0  0
 11 13  1  0  0  0  0
 13 31  1  0  0  0  0
 14 15  1  0  0  0  0
 15 16  2  0  0  0  0
 15 17  1  0  0  0  0
 17 18  1  0  0  0  0
 18 20  2  0  0  0  0
 19 18  1  1  0  0  0
 19 22  1  0  0  0  0
 19 30  1  0  0  0  0
 21 23  1  6  0  0  0
 21 29  1  0  0  0  0
 21 22  1  0  0  0  0
 23 24  1  0  0  0  0
 24 25  1  1  0  0  0
 24 26  1  0  0  0  0
 26 27  1  1  0  0  0
 26 28  1  0  0  0  0
 29 28  1  1  0  0  0
 29 31  1  0  0  0  0
 30 14  1  1  0  0  0
 30 31  1  0  0  0  0
M  CHG  1   3  -1
M  END
>  <CHROM.1>
179.03355002,158.31996046,58.72031763,46.26850316,15.95175271,133.76553076
-76.04507194,27.25448618,37.97875892,19.86270418,-2.23121502,-1.38607418
1.96169335

>  <Name>
ligand

>  <RI>
0

>  <Rbt.Current_Directory>
/home/itssahil/PROJECTS/Mol_Feturizer/New_Systems/rnas/3F2T

>  <Rbt.Executable>
rbdock ($Id: //depot/dev/client3/rdock/2013.1/src/exe/rbdock.cxx#4 $)

>  <Rbt.Library>
libRbt.so (2013.1, Build901 2013/11/27)

>  <Rbt.Parameter_File>
/export/apps/rDock/src/rDock_2013.1_src/data/scripts/dock_solv.prm

>  <Rbt.Receptor>
prm/pocket_docking_2.prm

>  <SCORE>
-27.394

>  <SCORE.INTER>
-32.4652

>  <SCORE.INTER.CONST>
1

>  <SCORE.INTER.POLAR>
0

>  <SCORE.INTER.ROT>
7

>  <SCORE.INTER.SOLV>
19.4324

>  <SCORE.INTER.VDW>
-36.3876

>  <SCORE.INTER.norm>
-1.04727

>  <SCORE.INTRA>
4.9623

>  <SCORE.INTRA.DIHEDRAL>
7.00061

>  <SCORE.INTRA.DIHEDRAL.0>
4.64198

>  <SCORE.INTRA.POLAR>
0

>  <SCORE.INTRA.POLAR.0>
0

>  <SCORE.INTRA.REPUL>
0

>  <SCORE.INTRA.REPUL.0>
0

>  <SCORE.INTRA.SOLV>
0.0823938

>  <SCORE.INTRA.SOLV.lig_0>
-49.3611

>  <SCORE.INTRA.VDW>
1.42079

>  <SCORE.INTRA.VDW.0>
-1.91858

>  <SCORE.INTRA.norm>
0.160074

>  <SCORE.RESTR>
0.108956

>  <SCORE.RESTR.CAVITY>
0.108956

>  <SCORE.RESTR.norm>
0.00351473

>  <SCORE.SYSTEM>
0

>  <SCORE.SYSTEM.CONST>
0

>  <SCORE.SYSTEM.DIHEDRAL>
0

>  <SCORE.SYSTEM.SOLV>
0

>  <SCORE.SYSTEM.norm>
0

>  <SCORE.heavy>
31

>  <SCORE.norm>
-0.883677

>  <RMSD>
1.340

$$$$
ligand
 OpenBabel11021811473D
libRbt.so/2013.1/901 2013/11/27
 31 33  0  0  0  0  0  0  0  0999 V2000
   25.7500   43.1462   17.4654 P   0  0  1  0  0  0  0  0  0  0  0  0
   26.5138   44.4263   17.2391 O   0  0  0  0  0  0  0  0  0  0  0  0
   24.9218   43.2931   18.7142 O   0  5  0  0  0  0  0  0  0  0  0  0
   24.9012   42.9314   16.2426 O   0  0  0  0  0  0  0  0  0  0  0  0
   26.2666   40.7484   18.3897 C   0  0  0  0  0  0  0  0  0  0  0  0
   26.7068   41.8704   17.6534 O   0  0  0  0  0  0  0  0  0  0  0  0
   27.2592   39.6038   18.2027 C   0  0  1  0  0  0  0  0  0  0  0  0
   28.4876   39.9314   18.8211 O   0  0  0  0  0  0  0  0  0  0  0  0
   26.7121   38.3334   18.8315 C   0  0  1  0  0  0  0  0  0  0  0  0
   25.4587   38.0614   18.2638 O   0  0  0  0  0  0  0  0  0  0  0  0
   27.6207   37.1351   18.6141 C   0  0  1  0  0  0  0  0  0  0  0  0
   28.2555   37.2840   17.3728 O   0  0  0  0  0  0  0  0  0  0  0  0
   28.6731   37.0467   19.7069 C   0  0  0  0  0  0  0  0  0  0  0  0
   28.5152   34.2712   19.2693 N   0  0  0  0  0  0  0  0  0  0  0  0
   28.3995   32.9274   18.9870 C   0  0  0  0  0  0  0  0  0  0  0  0
   28.7533   32.4950   17.8940 O   0  0  0  0  0  0  0  0  0  0  0  0
   27.8856   32.0596   19.9234 N   0  0  0  0  0  0  0  0  0  0  0  0
   27.4910   32.5273   21.1617 C   0  0  0  0  0  0  0  0  0  0  0  0
   27.6033   33.8818   21.4553 C   0  0  1  0  0  0  0  0  0  0  0  0
   27.0489   31.7429   22.0036 O   0  0  0  0  0  0  0  0  0  0  0  0
   27.3235   35.7026   22.9803 C   0  0  2  0  0  0  0  0  0  0  0  0
   27.2092   34.3564   22.6902 N   0  0  0  0  0  0  0  0  0  0  0  0
   26.9246   36.1810   24.2289 C   0  0  0  0  0  0  0  0  0  0  0  0
   27.0305   37.5340   24.5292 C   0  0  1  0  0  0  0  0  0  0  0  0
   26.5897   38.0114   25.8767 C   0  0  0  0  0  0  0  0  0  0  0  0
   27.5461   38.4218   23.5729 C   0  0  1  0  0  0  0  0  0  0  0  0
   27.6857   39.8914   23.8612 C   0  0  0  0  0  0  0  0  0  0  0  0
   27.9417   37.9416   22.3272 C   0  0  0  0  0  0  0  0  0  0  0  0
   27.8319   36.5836   22.0230 C   0  0  1  0  0  0  0  0  0  0  0  0
   28.1156   34.7557   20.4985 C   0  0  1  0  0  0  0  0  0  0  0  0
   28.2233   36.1038   20.7821 N   0  0  0  0  0  0  0  0  0  0  0  0
  1  2  1  6  0  0  0
  1  3  1  0  0  0  0
  1  4  2  0  0  0  0
  1  6  1  0  0  0  0
  5  6  1  0  0  0  0
  7  5  1  1  0  0  0
  7  8  1  0  0  0  0
  7  9  1  0  0  0  0
  9 10  1  6  0  0  0
  9 11  1  0  0  0  0
 11 12  1  6  0  0  0
 11 13  1  0  0  0  0
 13 31  1  0  0  0  0
 14 15  1  0  0  0  0
 15 16  2  0  0  0  0
 15 17  1  0  0  0  0
 17 18  1  0  0  0  0
 18 20  2  0  0  0  0
 19 18  1  1  0  0  0
 19 22  1  0  0  0  0
 19 30  1  0  0  0  0
 21 23  1  6  0  0  0
 21 29  1  0  0  0  0
 21 22  1  0  0  0  0
 23 24  1  0  0  0  0
 24 25  1  1  0  0  0
 24 26  1  0  0  0  0
 26 27  1  1  0  0  0
 26 28  1  0  0  0  0
 29 28  1  1  0  0  0
 29 31  1  0  0  0  0
 30 14  1  1  0  0  0
 30 31  1  0  0  0  0
M  CHG  1   3  -1
M  END
>  <CHROM.1>
170.11829757,153.90423564,67.65197317,56.32433329,-32.53199850,95.95348098
-108.20801278,27.18587010,37.75888312,20.06816233,-2.63893627,-1.36236669
1.68213749

>  <Name>
ligand

>  <RI>
0

>  <Rbt.Current_Directory>
/home/itssahil/PROJECTS/Mol_Feturizer/New_Systems/rnas/3F2T

>  <Rbt.Executable>
rbdock ($Id: //depot/dev/client3/rdock/2013.1/src/exe/rbdock.cxx#4 $)

>  <Rbt.Library>
libRbt.so (2013.1, Build901 2013/11/27)

>  <Rbt.Parameter_File>
/export/apps/rDock/src/rDock_2013.1_src/data/scripts/dock_solv.prm

>  <Rbt.Receptor>
prm/pocket_docking_3.prm

>  <SCORE>
-26.9109

>  <SCORE.INTER>
-29.3771

>  <SCORE.INTER.CONST>
1

>  <SCORE.INTER.POLAR>
0

>  <SCORE.INTER.ROT>
7

>  <SCORE.INTER.SOLV>
18.9977

>  <SCORE.INTER.VDW>
-34.1839

>  <SCORE.INTER.norm>
-0.947647

>  <SCORE.INTRA>
2.46611

>  <SCORE.INTRA.DIHEDRAL>
4.01975

>  <SCORE.INTRA.DIHEDRAL.0>
4.64198

>  <SCORE.INTRA.POLAR>
0

>  <SCORE.INTRA.POLAR.0>
0

>  <SCORE.INTRA.REPUL>
0

>  <SCORE.INTRA.REPUL.0>
0

>  <SCORE.INTRA.SOLV>
-0.118559

>  <SCORE.INTRA.SOLV.lig_0>
-49.3611

>  <SCORE.INTRA.VDW>
0.51552

>  <SCORE.INTRA.VDW.0>
-1.91858

>  <SCORE.INTRA.norm>
0.0795521

>  <SCORE.RESTR>
0

>  <SCORE.RESTR.CAVITY>
0

>  <SCORE.RESTR.norm>
0

>  <SCORE.SYSTEM>
0

>  <SCORE.SYSTEM.CONST>
0

>  <SCORE.SYSTEM.DIHEDRAL>
0

>  <SCORE.SYSTEM.SOLV>
0

>  <SCORE.SYSTEM.norm>
0

>  <SCORE.heavy>
31

>  <SCORE.norm>
-0.868095

>  <RMSD>
1.345

$$$$
ligand
 OpenBabel11021811473D
libRbt.so/2013.1/901 2013/11/27
 31 33  0  0  0  0  0  0  0  0999 V2000
   26.1325   43.3395   16.3495 P   0  0  1  0  0  0  0  0  0  0  0  0
   25.0373   43.7130   15.3830 O   0  0  0  0  0  0  0  0  0  0  0  0
   27.4583   43.7219   15.7471 O   0  5  0  0  0  0  0  0  0  0  0  0
   25.8516   44.0854   17.6249 O   0  0  0  0  0  0  0  0  0  0  0  0
   27.1475   41.2428   17.5512 C   0  0  0  0  0  0  0  0  0  0  0  0
   26.1718   41.7677   16.6753 O   0  0  0  0  0  0  0  0  0  0  0  0
   26.8082   39.7886   17.8678 C   0  0  1  0  0  0  0  0  0  0  0  0
   26.7998   39.0298   16.6749 O   0  0  0  0  0  0  0  0  0  0  0  0
   27.8437   39.2078   18.8162 C   0  0  1  0  0  0  0  0  0  0  0  0
   28.0010   40.0897   19.8954 O   0  0  0  0  0  0  0  0  0  0  0  0
   27.4461   37.8423   19.3510 C   0  0  1  0  0  0  0  0  0  0  0  0
   26.9961   37.0628   18.2759 O   0  0  0  0  0  0  0  0  0  0  0  0
   28.6291   37.1517   20.0091 C   0  0  0  0  0  0  0  0  0  0  0  0
   28.4691   34.3829   19.5316 N   0  0  0  0  0  0  0  0  0  0  0  0
   28.3540   33.0435   19.2291 C   0  0  0  0  0  0  0  0  0  0  0  0
   28.7314   32.6236   18.1391 O   0  0  0  0  0  0  0  0  0  0  0  0
   27.8145   32.1660   20.1417 N   0  0  0  0  0  0  0  0  0  0  0  0
   27.3931   32.6195   21.3765 C   0  0  0  0  0  0  0  0  0  0  0  0
   27.5046   33.9694   21.6904 C   0  0  1  0  0  0  0  0  0  0  0  0
   26.9279   31.8263   22.1975 O   0  0  0  0  0  0  0  0  0  0  0  0
   27.1972   35.7716   23.2322 C   0  0  2  0  0  0  0  0  0  0  0  0
   27.0837   34.4298   22.9219 N   0  0  0  0  0  0  0  0  0  0  0  0
   26.7713   36.2356   24.4773 C   0  0  0  0  0  0  0  0  0  0  0  0
   26.8761   37.5840   24.7977 C   0  0  1  0  0  0  0  0  0  0  0  0
   26.4060   38.0460   26.1407 C   0  0  0  0  0  0  0  0  0  0  0  0
   27.4179   38.4818   23.8654 C   0  0  1  0  0  0  0  0  0  0  0  0
   27.5573   39.9468   24.1761 C   0  0  0  0  0  0  0  0  0  0  0  0
   27.8405   38.0160   22.6232 C   0  0  0  0  0  0  0  0  0  0  0  0
   27.7318   36.6625   22.2986 C   0  0  1  0  0  0  0  0  0  0  0  0
   28.0430   34.8533   20.7573 C   0  0  1  0  0  0  0  0  0  0  0  0
   28.1500   36.1970   21.0610 N   0  0  0  0  0  0  0  0  0  0  0  0
  1  2  1  6  0  0  0
  1  3  1  0  0  0  0
  1  4  2  0  0  0  0
  1  6  1  0  0  0  0
  5  6  1  0  0  0  0
  7  5  1  6  0  0  0
  7  8  1  0  0  0  0
  7  9  1  0  0  0  0
  9 10  1  1  0  0  0
  9 11  1  0  0  0  0
 11 12  1  6  0  0  0
 11 13  1  0  0  0  0
 13 31  1  0  0  0  0
 14 15  1  0  0  0  0
 15 16  2  0  0  0  0
 15 17  1  0  0  0  0
 17 18  1  0  0  0  0
 18 20  2  0  0  0  0
 19 18  1  1  0  0  0
 19 22  1  0  0  0  0
 19 30  1  0  0  0  0
 21 23  1  6  0  0  0
 21 29  1  0  0  0  0
 21 22  1  0  0  0  0
 23 24  1  0  0  0  0
 24 25  1  1  0  0  0
 24 26  1  0  0  0  0
 26 27  1  1  0  0  0
 26 28  1  0  0  0  0
 29 28  1  1  0  0  0
 29 31  1  0  0  0  0
 30 14  1  1  0  0  0
 30 31  1  0  0  0  0
M  CHG  1   3  -1
M  END
>  <CHROM.1>
170.27938181,179.24643157,60.39236801,50.03543478,46.29891144,152.79349427
-77.41361704,27.23706433,37.94550316,19.97694507,-2.40376147,-1.40779052
1.75013947

>  <Name>
ligand

>  <RI>
0

>  <Rbt.Current_Directory>
/home/itssahil/PROJECTS/Mol_Feturizer/New_Systems/rnas/3F2T

>  <Rbt.Executable>
rbdock ($Id: //depot/dev/client3/rdock/2013.1/src/exe/rbdock.cxx#4 $)

>  <Rbt.Library>
libRbt.so (2013.1, Build901 2013/11/27)

>  <Rbt.Parameter_File>
/export/apps/rDock/src/rDock_2013.1_src/data/scripts/dock_solv.prm

>  <Rbt.Receptor>
prm/pocket_docking_2.prm

>  <SCORE>
-30.0147

>  <SCORE.INTER>
-30.6803

>  <SCORE.INTER.CONST>
1

>  <SCORE.INTER.POLAR>
0

>  <SCORE.INTER.ROT>
7

>  <SCORE.INTER.SOLV>
21.1535

>  <SCORE.INTER.VDW>
-35.7713

>  <SCORE.INTER.norm>
-0.989686

>  <SCORE.INTRA>
0.628602

>  <SCORE.INTRA.DIHEDRAL>
0.185463

>  <SCORE.INTRA.DIHEDRAL.0>
4.64198

>  <SCORE.INTRA.POLAR>
0

>  <SCORE.INTRA.POLAR.0>
0

>  <SCORE.INTRA.REPUL>
0

>  <SCORE.INTRA.REPUL.0>
0

>  <SCORE.INTRA.SOLV>
0.00906452

>  <SCORE.INTRA.SOLV.lig_0>
-49.3611

>  <SCORE.INTRA.VDW>
0.531338

>  <SCORE.INTRA.VDW.0>
-1.91858

>  <SCORE.INTRA.norm>
0.0202775

>  <SCORE.RESTR>
0.0369577

>  <SCORE.RESTR.CAVITY>
0.0369577

>  <SCORE.RESTR.norm>
0.00119218

>  <SCORE.SYSTEM>
0

>  <SCORE.SYSTEM.CONST>
0

>  <SCORE.SYSTEM.DIHEDRAL>
0

>  <SCORE.SYSTEM.SOLV>
0

>  <SCORE.SYSTEM.norm>
0

>  <SCORE.heavy>
31

>  <SCORE.norm>
-0.968216

>  <RMSD>
1.353

$$$$
ligand
 OpenBabel11021811473D
libRbt.so/2013.1/901 2013/11/27
 31 33  0  0  0  0  0  0  0  0999 V2000
   27.5333   42.6615   17.1909 P   0  0  1  0  0  0  0  0  0  0  0  0
   27.8259   41.4548   16.3357 O   0  0  0  0  0  0  0  0  0  0  0  0
   28.2524   43.8501   16.6101 O   0  5  0  0  0  0  0  0  0  0  0  0
   26.0401   42.8412   17.1825 O   0  0  0  0  0  0  0  0  0  0  0  0
   27.4769   41.4604   19.5200 C   0  0  0  0  0  0  0  0  0  0  0  0
   28.0178   42.4844   18.7115 O   0  0  0  0  0  0  0  0  0  0  0  0
   27.9411   40.1054   18.9920 C   0  0  1  0  0  0  0  0  0  0  0  0
   29.2430   39.8280   19.4683 O   0  0  0  0  0  0  0  0  0  0  0  0
   26.9978   39.0123   19.4651 C   0  0  1  0  0  0  0  0  0  0  0  0
   25.7036   39.3197   19.0203 O   0  0  0  0  0  0  0  0  0  0  0  0
   27.3844   37.6393   18.9416 C   0  0  1  0  0  0  0  0  0  0  0  0
   27.6788   37.7563   17.5757 O   0  0  0  0  0  0  0  0  0  0  0  0
   28.6044   37.1035   19.6723 C   0  0  0  0  0  0  0  0  0  0  0  0
   28.4939   34.3253   19.2376 N   0  0  0  0  0  0  0  0  0  0  0  0
   28.4004   32.9794   18.9571 C   0  0  0  0  0  0  0  0  0  0  0  0
   28.7509   32.5529   17.8607 O   0  0  0  0  0  0  0  0  0  0  0  0
   27.9124   32.1027   19.8991 N   0  0  0  0  0  0  0  0  0  0  0  0
   27.5220   32.5638   21.1412 C   0  0  0  0  0  0  0  0  0  0  0  0
   27.6121   33.9203   21.4330 C   0  0  1  0  0  0  0  0  0  0  0  0
   27.1034   31.7718   21.9880 O   0  0  0  0  0  0  0  0  0  0  0  0
   27.3140   35.7365   22.9601 C   0  0  2  0  0  0  0  0  0  0  0  0
   27.2218   34.3882   22.6718 N   0  0  0  0  0  0  0  0  0  0  0  0
   26.9191   36.2082   24.2125 C   0  0  0  0  0  0  0  0  0  0  0  0
   27.0028   37.5631   24.5111 C   0  0  1  0  0  0  0  0  0  0  0  0
   26.5671   38.0331   25.8628 C   0  0  0  0  0  0  0  0  0  0  0  0
   27.4918   38.4598   23.5491 C   0  0  1  0  0  0  0  0  0  0  0  0
   27.6069   39.9320   23.8353 C   0  0  0  0  0  0  0  0  0  0  0  0
   27.8835   37.9863   22.2997 C   0  0  0  0  0  0  0  0  0  0  0  0
   27.7960   36.6263   21.9971 C   0  0  1  0  0  0  0  0  0  0  0  0
   28.0980   34.8030   20.4706 C   0  0  1  0  0  0  0  0  0  0  0  0
   28.1834   36.1530   20.7525 N   0  0  0  0  0  0  0  0  0  0  0  0
  1  2  1  6  0  0  0
  1  3  1  0  0  0  0
  1  4  2  0  0  0  0
  1  6  1  0  0  0  0
  5  6  1  0  0  0  0
  7  5  1  1  0  0  0
  7  8  1  0  0  0  0
  7  9  1  0  0  0  0
  9 10  1  6  0  0  0
  9 11  1  0  0  0  0
 11 12  1  6  0  0  0
 11 13  1  0  0  0  0
 13 31  1  0  0  0  0
 14 15  1  0  0  0  0
 15 16  2  0  0  0  0
 15 17  1  0  0  0  0
 17 18  1  0  0  0  0
 18 20  2  0  0  0  0
 19 18  1  1  0  0  0
 19 22  1  0  0  0  0
 19 30  1  0  0  0  0
 21 23  1  6  0  0  0
 21 29  1  0  0  0  0
 21 22  1  0  0  0  0
 23 24  1  0  0  0  0
 24 25  1  1  0  0  0
 24 26  1  0  0  0  0
 26 27  1  1  0  0  0
 26 28  1  0  0  0  0
 29 28  1  1  0  0  0
 29 31  1  0  0  0  0
 30 14  1  1  0  0  0
 30 31  1  0  0  0  0
M  CHG  1   3  -1
M  END
>  <CHROM.1>
68.02848278,-61.48104278,81.67952177,57.90320694,-45.47977570,98.53536440
-83.72474129,27.62759032,37.81018230,20.14307143,-1.66939998,-1.42402957
2.61554445

>  <Name>
ligand

>  <RI>
0

>  <Rbt.Current_Directory>
/home/itssahil/PROJECTS/Mol_Feturizer/New_Systems/rnas/3F2T

>  <Rbt.Executable>
rbdock ($Id: //depot/dev/client3/rdock/2013.1/src/exe/rbdock.cxx#4 $)

>  <Rbt.Library>
libRbt.so (2013.1, Build901 2013/11/27)

>  <Rbt.Parameter_File>
/export/apps/rDock/src/rDock_2013.1_src/data/scripts/dock_solv.prm

>  <Rbt.Receptor>
prm/pocket_docking_3.prm

>  <SCORE>
-29.9694

>  <SCORE.INTER>
-31.5974

>  <SCORE.INTER.CONST>
1

>  <SCORE.INTER.POLAR>
0

>  <SCORE.INTER.ROT>
7

>  <SCORE.INTER.SOLV>
18.4379

>  <SCORE.INTER.VDW>
-35.4775

>  <SCORE.INTER.norm>
-1.01927

>  <SCORE.INTRA>
1.6279

>  <SCORE.INTRA.DIHEDRAL>
2.81788

>  <SCORE.INTRA.DIHEDRAL.0>
4.64198

>  <SCORE.INTRA.POLAR>
0

>  <SCORE.INTRA.POLAR.0>
0

>  <SCORE.INTRA.REPUL>
0

>  <SCORE.INTRA.REPUL.0>
0

>  <SCORE.INTRA.SOLV>
1.00562

>  <SCORE.INTRA.SOLV.lig_0>
-49.3611

>  <SCORE.INTRA.VDW>
-0.283849

>  <SCORE.INTRA.VDW.0>
-1.91858

>  <SCORE.INTRA.norm>
0.052513

>  <SCORE.RESTR>
0

>  <SCORE.RESTR.CAVITY>
0

>  <SCORE.RESTR.norm>
0

>  <SCORE.SYSTEM>
0

>  <SCORE.SYSTEM.CONST>
0

>  <SCORE.SYSTEM.DIHEDRAL>
0

>  <SCORE.SYSTEM.SOLV>
0

>  <SCORE.SYSTEM.norm>
0

>  <SCORE.heavy>
31

>  <SCORE.norm>
-0.966756

>  <RMSD>
1.354

$$$$
ligand
 OpenBabel11021811473D
libRbt.so/2013.1/901 2013/11/27
 31 33  0  0  0  0  0  0  0  0999 V2000
   25.8142   43.9361   16.0689 P   0  0  1  0  0  0  0  0  0  0  0  0
   25.5249   44.9228   17.1717 O   0  0  0  0  0  0  0  0  0  0  0  0
   24.7122   44.0191   15.0463 O   0  5  0  0  0  0  0  0  0  0  0  0
   27.1517   44.3148   15.4948 O   0  0  0  0  0  0  0  0  0  0  0  0
   26.8823   42.0331   17.5208 C   0  0  0  0  0  0  0  0  0  0  0  0
   25.8930   42.4193   16.5897 O   0  0  0  0  0  0  0  0  0  0  0  0
   26.7027   40.5559   17.8610 C   0  0  1  0  0  0  0  0  0  0  0  0
   26.8924   39.7721   16.6998 O   0  0  0  0  0  0  0  0  0  0  0  0
   27.7175   40.1373   18.9116 C   0  0  1  0  0  0  0  0  0  0  0  0
   27.6542   41.0473   19.9771 O   0  0  0  0  0  0  0  0  0  0  0  0
   27.4634   38.7374   19.4449 C   0  0  1  0  0  0  0  0  0  0  0  0
   27.2706   37.8791   18.3531 O   0  0  0  0  0  0  0  0  0  0  0  0
   28.6450   38.2463   20.2649 C   0  0  0  0  0  0  0  0  0  0  0  0
   28.5839   35.5477   19.4688 N   0  0  0  0  0  0  0  0  0  0  0  0
   28.5162   34.2492   19.0127 C   0  0  0  0  0  0  0  0  0  0  0  0
   28.9015   33.9732   17.8804 O   0  0  0  0  0  0  0  0  0  0  0  0
   28.0155   33.2520   19.8183 N   0  0  0  0  0  0  0  0  0  0  0  0
   27.5860   33.5429   21.0985 C   0  0  0  0  0  0  0  0  0  0  0  0
   27.6497   34.8505   21.5670 C   0  0  1  0  0  0  0  0  0  0  0  0
   27.1558   32.6429   21.8227 O   0  0  0  0  0  0  0  0  0  0  0  0
   27.2865   36.4485   23.3089 C   0  0  2  0  0  0  0  0  0  0  0  0
   27.2204   35.1486   22.8448 N   0  0  0  0  0  0  0  0  0  0  0  0
   26.8521   36.7484   24.6005 C   0  0  0  0  0  0  0  0  0  0  0  0
   26.9093   38.0534   25.0754 C   0  0  1  0  0  0  0  0  0  0  0  0
   26.4315   38.3383   26.4641 C   0  0  0  0  0  0  0  0  0  0  0  0
   27.4115   39.0731   24.2527 C   0  0  1  0  0  0  0  0  0  0  0  0
   27.4988   40.4962   24.7314 C   0  0  0  0  0  0  0  0  0  0  0  0
   27.8426   38.7709   22.9637 C   0  0  0  0  0  0  0  0  0  0  0  0
   27.7817   37.4612   22.4841 C   0  0  1  0  0  0  0  0  0  0  0  0
   28.1489   35.8562   20.7419 C   0  0  1  0  0  0  0  0  0  0  0  0
   28.2085   37.1586   21.1997 N   0  0  0  0  0  0  0  0  0  0  0  0
  1  2  1  1  0  0  0
  1  3  1  0  0  0  0
  1  4  2  0  0  0  0
  1  6  1  0  0  0  0
  5  6  1  0  0  0  0
  7  5  1  6  0  0  0
  7  8  1  0  0  0  0
  7  9  1  0  0  0  0
  9 10  1  1  0  0  0
  9 11  1  0  0  0  0
 11 12  1  6  0  0  0
 11 13  1  0  0  0  0
 13 31  1  0  0  0  0
 14 15  1  0  0  0  0
 15 16  2  0  0  0  0
 15 17  1  0  0  0  0
 17 18  1  0  0  0  0
 18 20  2  0  0  0  0
 19 18  1  1  0  0  0
 19 22  1  0  0  0  0
 19 30  1  0  0  0  0
 21 23  1  6  0  0  0
 21 29  1  0  0  0  0
 21 22  1  0  0  0  0
 23 24  1  0  0  0  0
 24 25  1  1  0  0  0
 24 26  1  0  0  0  0
 26 27  1  1  0  0  0
 26 28  1  0  0  0  0
 29 28  1  1  0  0  0
 29 31  1  0  0  0  0
 30 14  1  1  0  0  0
 30 31  1  0  0  0  0
M  CHG  1   3  -1
M  END
>  <CHROM.1>
178.68054520,-62.50025367,62.74685256,50.95961992,48.36192934,157.99208906
-91.03725981,27.20957936,38.73382476,19.95322642,2.42530932,1.36399287,-1.48512858

>  <Name>
ligand

>  <RI>
0

>  <Rbt.Current_Directory>
/home/itssahil/PROJECTS/Mol_Feturizer/New_Systems/rnas/3F2T

>  <Rbt.Executable>
rbdock ($Id: //depot/dev/client3/rdock/2013.1/src/exe/rbdock.cxx#4 $)

>  <Rbt.Library>
libRbt.so (2013.1, Build901 2013/11/27)

>  <Rbt.Parameter_File>
/export/apps/rDock/src/rDock_2013.1_src/data/scripts/dock_solv.prm

>  <Rbt.Receptor>
prm/pocket_docking_3.prm

>  <SCORE>
-29.9601

>  <SCORE.INTER>
-29.6337

>  <SCORE.INTER.CONST>
1

>  <SCORE.INTER.POLAR>
0

>  <SCORE.INTER.ROT>
7

>  <SCORE.INTER.SOLV>
20.0371

>  <SCORE.INTER.VDW>
-34.7015

>  <SCORE.INTER.norm>
-0.955926

>  <SCORE.INTRA>
-0.326389

>  <SCORE.INTRA.DIHEDRAL>
-1.16932

>  <SCORE.INTRA.DIHEDRAL.0>
4.64198

>  <SCORE.INTRA.POLAR>
0

>  <SCORE.INTRA.POLAR.0>
0

>  <SCORE.INTRA.REPUL>
0

>  <SCORE.INTRA.REPUL.0>
0

>  <SCORE.INTRA.SOLV>
-0.504276

>  <SCORE.INTRA.SOLV.lig_0>
-49.3611

>  <SCORE.INTRA.VDW>
0.510411

>  <SCORE.INTRA.VDW.0>
-1.91858

>  <SCORE.INTRA.norm>
-0.0105287

>  <SCORE.RESTR>
0

>  <SCORE.RESTR.CAVITY>
0

>  <SCORE.RESTR.norm>
0

>  <SCORE.SYSTEM>
0

>  <SCORE.SYSTEM.CONST>
0

>  <SCORE.SYSTEM.DIHEDRAL>
0

>  <SCORE.SYSTEM.SOLV>
0

>  <SCORE.SYSTEM.norm>
0

>  <SCORE.heavy>
31

>  <SCORE.norm>
-0.966455

>  <RMSD>
1.357

$$$$
ligand
 OpenBabel11021811473D
libRbt.so/2013.1/901 2013/11/27
 31 33  0  0  0  0  0  0  0  0999 V2000
   26.5539   42.9996   16.7085 P   0  0  1  0  0  0  0  0  0  0  0  0
   26.4965   42.7584   15.2213 O   0  0  0  0  0  0  0  0  0  0  0  0
   26.3379   44.4670   16.9677 O   0  5  0  0  0  0  0  0  0  0  0  0
   25.4760   42.1494   17.3227 O   0  0  0  0  0  0  0  0  0  0  0  0
   28.5996   41.3827   16.9759 C   0  0  0  0  0  0  0  0  0  0  0  0
   27.9631   42.5847   17.3569 O   0  0  0  0  0  0  0  0  0  0  0  0
   27.8384   40.2008   17.5707 C   0  0  1  0  0  0  0  0  0  0  0  0
   28.4508   38.9900   17.1735 O   0  0  0  0  0  0  0  0  0  0  0  0
   27.8490   40.2861   19.0877 C   0  0  1  0  0  0  0  0  0  0  0  0
   26.9796   41.3142   19.4805 O   0  0  0  0  0  0  0  0  0  0  0  0
   27.4093   38.9908   19.7493 C   0  0  1  0  0  0  0  0  0  0  0  0
   26.4981   38.3495   18.8982 O   0  0  0  0  0  0  0  0  0  0  0  0
   28.5974   38.0747   19.9918 C   0  0  0  0  0  0  0  0  0  0  0  0
   28.5896   35.3811   19.1767 N   0  0  0  0  0  0  0  0  0  0  0  0
   28.5458   34.0844   18.7124 C   0  0  0  0  0  0  0  0  0  0  0  0
   28.9099   33.8271   17.5688 O   0  0  0  0  0  0  0  0  0  0  0  0
   28.0926   33.0683   19.5225 N   0  0  0  0  0  0  0  0  0  0  0  0
   27.6876   33.3383   20.8151 C   0  0  0  0  0  0  0  0  0  0  0  0
   27.7275   34.6438   21.2920 C   0  0  1  0  0  0  0  0  0  0  0  0
   27.3003   32.4218   21.5428 O   0  0  0  0  0  0  0  0  0  0  0  0
   27.3648   36.2190   23.0547 C   0  0  2  0  0  0  0  0  0  0  0  0
   27.3224   34.9211   22.5823 N   0  0  0  0  0  0  0  0  0  0  0  0
   26.9550   36.4979   24.3589 C   0  0  0  0  0  0  0  0  0  0  0  0
   26.9886   37.8006   24.8423 C   0  0  1  0  0  0  0  0  0  0  0  0
   26.5382   38.0625   26.2447 C   0  0  0  0  0  0  0  0  0  0  0  0
   27.4421   38.8393   24.0153 C   0  0  1  0  0  0  0  0  0  0  0  0
   27.5028   40.2609   24.5027 C   0  0  0  0  0  0  0  0  0  0  0  0
   27.8489   38.5581   22.7137 C   0  0  0  0  0  0  0  0  0  0  0  0
   27.8115   37.2507   22.2256 C   0  0  1  0  0  0  0  0  0  0  0  0
   28.1785   35.6686   20.4626 C   0  0  1  0  0  0  0  0  0  0  0  0
   28.2141   36.9689   20.9288 N   0  0  0  0  0  0  0  0  0  0  0  0
  1  2  1  6  0  0  0
  1  3  1  0  0  0  0
  1  4  2  0  0  0  0
  1  6  1  0  0  0  0
  5  6  1  0  0  0  0
  7  5  1  6  0  0  0
  7  8  1  0  0  0  0
  7  9  1  0  0  0  0
  9 10  1  6  0  0  0
  9 11  1  0  0  0  0
 11 12  1  6  0  0  0
 11 13  1  0  0  0  0
 13 31  1  0  0  0  0
 14 15  1  0  0  0  0
 15 16  2  0  0  0  0
 15 17  1  0  0  0  0
 17 18  1  0  0  0  0
 18 20  2  0  0  0  0
 19 18  1  1  0  0  0
 19 22  1  0  0  0  0
 19 30  1  0  0  0  0
 21 23  1  6  0  0  0
 21 29  1  0  0  0  0
 21 22  1  0  0  0  0
 23 24  1  0  0  0  0
 24 25  1  1  0  0  0
 24 26  1  0  0  0  0
 26 27  1  1  0  0  0
 26 28  1  0  0  0  0
 29 28  1  1  0  0  0
 29 31  1  0  0  0  0
 30 14  1  1  0  0  0
 30 31  1  0  0  0  0
M  CHG  1   3  -1
M  END
>  <CHROM.1>
-72.35157426,-42.76850343,178.81310053,73.20484683,-30.26502467,166.27401530
-62.32048485,27.48919313,38.39858625,19.94639748,2.02942285,1.37998899,-1.05268709

>  <Name>
ligand

>  <RI>
0

>  <Rbt.Current_Directory>
/home/itssahil/PROJECTS/Mol_Feturizer/New_Systems/rnas/3F2T

>  <Rbt.Executable>
rbdock ($Id: //depot/dev/client3/rdock/2013.1/src/exe/rbdock.cxx#4 $)

>  <Rbt.Library>
libRbt.so (2013.1, Build901 2013/11/27)

>  <Rbt.Parameter_File>
/export/apps/rDock/src/rDock_2013.1_src/data/scripts/dock_solv.prm

>  <Rbt.Receptor>
prm/pocket_docking_2.prm

>  <SCORE>
-27.6626

>  <SCORE.INTER>
-30.5798

>  <SCORE.INTER.CONST>
1

>  <SCORE.INTER.POLAR>
0

>  <SCORE.INTER.ROT>
7

>  <SCORE.INTER.SOLV>
15.5699

>  <SCORE.INTER.VDW>
-33.8432

>  <SCORE.INTER.norm>
-0.986446

>  <SCORE.INTRA>
2.91719

>  <SCORE.INTRA.DIHEDRAL>
1.60741

>  <SCORE.INTRA.DIHEDRAL.0>
4.64198

>  <SCORE.INTRA.POLAR>
0

>  <SCORE.INTRA.POLAR.0>
0

>  <SCORE.INTRA.REPUL>
0

>  <SCORE.INTRA.REPUL.0>
0

>  <SCORE.INTRA.SOLV>
3.3122

>  <SCORE.INTRA.SOLV.lig_0>
-49.3611

>  <SCORE.INTRA.VDW>
0.457386

>  <SCORE.INTRA.VDW.0>
-1.91858

>  <SCORE.INTRA.norm>
0.094103

>  <SCORE.RESTR>
0

>  <SCORE.RESTR.CAVITY>
0

>  <SCORE.RESTR.norm>
0

>  <SCORE.SYSTEM>
0

>  <SCORE.SYSTEM.CONST>
0

>  <SCORE.SYSTEM.DIHEDRAL>
0

>  <SCORE.SYSTEM.SOLV>
0

>  <SCORE.SYSTEM.norm>
0

>  <SCORE.heavy>
31

>  <SCORE.norm>
-0.892343

>  <RMSD>
1.360

$$$$
ligand
 OpenBabel11021811473D
libRbt.so/2013.1/901 2013/11/27
 31 33  0  0  0  0  0  0  0  0999 V2000
   25.7378   42.6126   17.1073 P   0  0  1  0  0  0  0  0  0  0  0  0
   24.8501   41.8199   18.0329 O   0  0  0  0  0  0  0  0  0  0  0  0
   24.8697   43.3739   16.1410 O   0  5  0  0  0  0  0  0  0  0  0  0
   26.5566   43.5266   17.9770 O   0  0  0  0  0  0  0  0  0  0  0  0
   27.7738   40.9756   16.8940 C   0  0  0  0  0  0  0  0  0  0  0  0
   26.7368   41.6895   16.2539 O   0  0  0  0  0  0  0  0  0  0  0  0
   27.1784   39.7815   17.6354 C   0  0  1  0  0  0  0  0  0  0  0  0
   26.6989   38.8321   16.7041 O   0  0  0  0  0  0  0  0  0  0  0  0
   28.2391   39.1287   18.5058 C   0  0  1  0  0  0  0  0  0  0  0  0
   28.7910   40.1091   19.3433 O   0  0  0  0  0  0  0  0  0  0  0  0
   27.6812   38.0060   19.3644 C   0  0  1  0  0  0  0  0  0  0  0  0
   26.7143   37.3193   18.6164 O   0  0  0  0  0  0  0  0  0  0  0  0
   28.7792   37.0376   19.7720 C   0  0  0  0  0  0  0  0  0  0  0  0
   28.6002   34.2704   19.2917 N   0  0  0  0  0  0  0  0  0  0  0  0
   28.4775   32.9321   18.9871 C   0  0  0  0  0  0  0  0  0  0  0  0
   28.8720   32.5081   17.9048 O   0  0  0  0  0  0  0  0  0  0  0  0
   27.9110   32.0605   19.8889 N   0  0  0  0  0  0  0  0  0  0  0  0
   27.4700   32.5186   21.1151 C   0  0  0  0  0  0  0  0  0  0  0  0
   27.5890   33.8675   21.4310 C   0  0  1  0  0  0  0  0  0  0  0  0
   26.9805   31.7305   21.9268 O   0  0  0  0  0  0  0  0  0  0  0  0
   27.2697   35.6731   22.9663 C   0  0  2  0  0  0  0  0  0  0  0  0
   27.1486   34.3325   22.6539 N   0  0  0  0  0  0  0  0  0  0  0  0
   26.8241   36.1419   24.2026 C   0  0  0  0  0  0  0  0  0  0  0  0
   26.9364   37.4892   24.5249 C   0  0  1  0  0  0  0  0  0  0  0  0
   26.4445   37.9564   25.8583 C   0  0  0  0  0  0  0  0  0  0  0  0
   27.5057   38.3811   23.6035 C   0  0  1  0  0  0  0  0  0  0  0  0
   27.6538   39.8447   23.9168 C   0  0  0  0  0  0  0  0  0  0  0  0
   27.9479   37.9106   22.3699 C   0  0  0  0  0  0  0  0  0  0  0  0
   27.8318   36.5583   22.0434 C   0  0  1  0  0  0  0  0  0  0  0  0
   28.1548   34.7455   20.5087 C   0  0  1  0  0  0  0  0  0  0  0  0
   28.2696   36.0881   20.8143 N   0  0  0  0  0  0  0  0  0  0  0  0
  1  2  1  1  0  0  0
  1  3  1  0  0  0  0
  1  4  2  0  0  0  0
  1  6  1  0  0  0  0
  5  6  1  0  0  0  0
  7  5  1  6  0  0  0
  7  8  1  0  0  0  0
  7  9  1  0  0  0  0
  9 10  1  1  0  0  0
  9 11  1  0  0  0  0
 11 12  1  6  0  0  0
 11 13  1  0  0  0  0
 13 31  1  0  0  0  0
 14 15  1  0  0  0  0
 15 16  2  0  0  0  0
 15 17  1  0  0  0  0
 17 18  1  0  0  0  0
 18 20  2  0  0  0  0
 19 18  1  1  0  0  0
 19 22  1  0  0  0  0
 19 30  1  0  0  0  0
 21 23  1  6  0  0  0
 21 29  1  0  0  0  0
 21 22  1  0  0  0  0
 23 24  1  0  0  0  0
 24 25  1  1  0  0  0
 24 26  1  0  0  0  0
 26 27  1  1  0  0  0
 26 28  1  0  0  0  0
 29 28  1  1  0  0  0
 29 31  1  0  0  0  0
 30 14  1  1  0  0  0
 30 31  1  0  0  0  0
M  CHG  1   3  -1
M  END
>  <CHROM.1>
74.48430745,-67.06838679,68.94764110,54.43547136,37.29283430,169.62620145
-61.81858689,27.27175307,37.73113749,19.94839178,-2.48842024,-1.37025214
1.73747931

>  <Name>
ligand

>  <RI>
0

>  <Rbt.Current_Directory>
/home/itssahil/PROJECTS/Mol_Feturizer/New_Systems/rnas/3F2T

>  <Rbt.Executable>
rbdock ($Id: //depot/dev/client3/rdock/2013.1/src/exe/rbdock.cxx#4 $)

>  <Rbt.Library>
libRbt.so (2013.1, Build901 2013/11/27)

>  <Rbt.Parameter_File>
/export/apps/rDock/src/rDock_2013.1_src/data/scripts/dock_solv.prm

>  <Rbt.Receptor>
prm/pocket_docking_3.prm

>  <SCORE>
-29.3335

>  <SCORE.INTER>
-30.7065

>  <SCORE.INTER.CONST>
1

>  <SCORE.INTER.POLAR>
0

>  <SCORE.INTER.ROT>
7

>  <SCORE.INTER.SOLV>
19.3019

>  <SCORE.INTER.VDW>
-35.1716

>  <SCORE.INTER.norm>
-0.990533

>  <SCORE.INTRA>
1.37301

>  <SCORE.INTRA.DIHEDRAL>
0.0943522

>  <SCORE.INTRA.DIHEDRAL.0>
4.64198

>  <SCORE.INTRA.POLAR>
0

>  <SCORE.INTRA.POLAR.0>
0

>  <SCORE.INTRA.REPUL>
0

>  <SCORE.INTRA.REPUL.0>
0

>  <SCORE.INTRA.SOLV>
0.580944

>  <SCORE.INTRA.SOLV.lig_0>
-49.3611

>  <SCORE.INTRA.VDW>
1.03536

>  <SCORE.INTRA.VDW.0>
-1.91858

>  <SCORE.INTRA.norm>
0.0442905

>  <SCORE.RESTR>
0

>  <SCORE.RESTR.CAVITY>
0

>  <SCORE.RESTR.norm>
0

>  <SCORE.SYSTEM>
0

>  <SCORE.SYSTEM.CONST>
0

>  <SCORE.SYSTEM.DIHEDRAL>
0

>  <SCORE.SYSTEM.SOLV>
0

>  <SCORE.SYSTEM.norm>
0

>  <SCORE.heavy>
31

>  <SCORE.norm>
-0.946242

>  <RMSD>
1.364

$$$$
ligand
 OpenBabel11021811473D
libRbt.so/2013.1/901 2013/11/27
 31 33  0  0  0  0  0  0  0  0999 V2000
   26.6262   42.9073   16.5119 P   0  0  1  0  0  0  0  0  0  0  0  0
   27.4994   43.4128   15.3916 O   0  0  0  0  0  0  0  0  0  0  0  0
   27.0360   43.5913   17.7890 O   0  5  0  0  0  0  0  0  0  0  0  0
   25.2076   43.2257   16.1268 O   0  0  0  0  0  0  0  0  0  0  0  0
   28.0154   40.7245   16.9316 C   0  0  0  0  0  0  0  0  0  0  0  0
   26.7506   41.3224   16.7372 O   0  0  0  0  0  0  0  0  0  0  0  0
   27.8240   39.2715   17.3585 C   0  0  1  0  0  0  0  0  0  0  0  0
   29.0643   38.5942   17.3163 O   0  0  0  0  0  0  0  0  0  0  0  0
   27.2767   39.2136   18.7747 C   0  0  1  0  0  0  0  0  0  0  0  0
   26.0757   39.9370   18.8163 O   0  0  0  0  0  0  0  0  0  0  0  0
   27.0108   37.7922   19.2413 C   0  0  1  0  0  0  0  0  0  0  0  0
   26.4770   37.0688   18.1654 O   0  0  0  0  0  0  0  0  0  0  0  0
   28.2945   37.1243   19.7054 C   0  0  0  0  0  0  0  0  0  0  0  0
   28.3276   34.3448   19.2656 N   0  0  0  0  0  0  0  0  0  0  0  0
   28.2995   32.9960   18.9852 C   0  0  0  0  0  0  0  0  0  0  0  0
   28.6066   32.5928   17.8671 O   0  0  0  0  0  0  0  0  0  0  0  0
   27.9259   32.0902   19.9516 N   0  0  0  0  0  0  0  0  0  0  0  0
   27.5861   32.5254   21.2176 C   0  0  0  0  0  0  0  0  0  0  0  0
   27.6108   33.8846   21.5096 C   0  0  1  0  0  0  0  0  0  0  0  0
   27.2704   31.7085   22.0851 O   0  0  0  0  0  0  0  0  0  0  0  0
   27.2976   35.6778   23.0607 C   0  0  2  0  0  0  0  0  0  0  0  0
   27.2706   34.3266   22.7724 N   0  0  0  0  0  0  0  0  0  0  0  0
   26.9534   36.1233   24.3374 C   0  0  0  0  0  0  0  0  0  0  0  0
   26.9723   37.4805   24.6365 C   0  0  1  0  0  0  0  0  0  0  0  0
   26.5936   37.9217   26.0149 C   0  0  0  0  0  0  0  0  0  0  0  0
   27.3445   38.4064   23.6502 C   0  0  1  0  0  0  0  0  0  0  0  0
   27.3867   39.8826   23.9355 C   0  0  0  0  0  0  0  0  0  0  0  0
   27.6859   37.9589   22.3766 C   0  0  0  0  0  0  0  0  0  0  0  0
   27.6633   36.5963   22.0738 C   0  0  1  0  0  0  0  0  0  0  0  0
   27.9808   34.7963   20.5230 C   0  0  1  0  0  0  0  0  0  0  0  0
   28.0007   36.1488   20.8053 N   0  0  0  0  0  0  0  0  0  0  0  0
  1  2  1  6  0  0  0
  1  3  1  0  0  0  0
  1  4  2  0  0  0  0
  1  6  1  0  0  0  0
  5  6  1  0  0  0  0
  7  5  1  1  0  0  0
  7  8  1  0  0  0  0
  7  9  1  0  0  0  0
  9 10  1  6  0  0  0
  9 11  1  0  0  0  0
 11 12  1  6  0  0  0
 11 13  1  0  0  0  0
 13 31  1  0  0  0  0
 14 15  1  0  0  0  0
 15 16  2  0  0  0  0
 15 17  1  0  0  0  0
 17 18  1  0  0  0  0
 18 20  2  0  0  0  0
 19 18  1  1  0  0  0
 19 22  1  0  0  0  0
 19 30  1  0  0  0  0
 21 23  1  6  0  0  0
 21 29  1  0  0  0  0
 21 22  1  0  0  0  0
 23 24  1  0  0  0  0
 24 25  1  1  0  0  0
 24 26  1  0  0  0  0
 26 27  1  1  0  0  0
 26 28  1  0  0  0  0
 29 28  1  1  0  0  0
 29 31  1  0  0  0  0
 30 14  1  1  0  0  0
 30 31  1  0  0  0  0
M  CHG  1   3  -1
M  END
>  <CHROM.1>
170.23372274,53.49614253,169.21589716,57.15310524,-39.19974695,148.19398232
-72.48170795,27.36797137,37.75839414,19.83655481,-2.05265305,-1.39718384
2.10595935

>  <Name>
ligand

>  <RI>
0

>  <Rbt.Current_Directory>
/home/itssahil/PROJECTS/Mol_Feturizer/New_Systems/rnas/3F2T

>  <Rbt.Executable>
rbdock ($Id: //depot/dev/client3/rdock/2013.1/src/exe/rbdock.cxx#4 $)

>  <Rbt.Library>
libRbt.so (2013.1, Build901 2013/11/27)

>  <Rbt.Parameter_File>
/export/apps/rDock/src/rDock_2013.1_src/data/scripts/dock_solv.prm

>  <Rbt.Receptor>
prm/pocket_docking_4.prm

>  <SCORE>
-31.7316

>  <SCORE.INTER>
-33.4037

>  <SCORE.INTER.CONST>
1

>  <SCORE.INTER.POLAR>
0

>  <SCORE.INTER.ROT>
7

>  <SCORE.INTER.SOLV>
19.0179

>  <SCORE.INTER.VDW>
-36.8751

>  <SCORE.INTER.norm>
-1.07754

>  <SCORE.INTRA>
1.67212

>  <SCORE.INTRA.DIHEDRAL>
1.78221

>  <SCORE.INTRA.DIHEDRAL.0>
4.64198

>  <SCORE.INTRA.POLAR>
0

>  <SCORE.INTRA.POLAR.0>
0

>  <SCORE.INTRA.REPUL>
0

>  <SCORE.INTRA.REPUL.0>
0

>  <SCORE.INTRA.SOLV>
0.440242

>  <SCORE.INTRA.SOLV.lig_0>
-49.3611

>  <SCORE.INTRA.VDW>
0.560892

>  <SCORE.INTRA.VDW.0>
-1.91858

>  <SCORE.INTRA.norm>
0.0539393

>  <SCORE.RESTR>
0

>  <SCORE.RESTR.CAVITY>
0

>  <SCORE.RESTR.norm>
0

>  <SCORE.SYSTEM>
0

>  <SCORE.SYSTEM.CONST>
0

>  <SCORE.SYSTEM.DIHEDRAL>
0

>  <SCORE.SYSTEM.SOLV>
0

>  <SCORE.SYSTEM.norm>
0

>  <SCORE.heavy>
31

>  <SCORE.norm>
-1.0236

>  <RMSD>
1.367

$$$$
ligand
 OpenBabel11021811473D
libRbt.so/2013.1/901 2013/11/27
 31 33  0  0  0  0  0  0  0  0999 V2000
   26.7760   42.7953   16.4828 P   0  0  1  0  0  0  0  0  0  0  0  0
   25.4476   43.1815   15.8831 O   0  0  0  0  0  0  0  0  0  0  0  0
   27.8753   43.3167   15.5960 O   0  5  0  0  0  0  0  0  0  0  0  0
   26.8186   43.4034   17.8578 O   0  0  0  0  0  0  0  0  0  0  0  0
   28.2170   40.6622   16.9762 C   0  0  0  0  0  0  0  0  0  0  0  0
   26.9631   41.2066   16.6211 O   0  0  0  0  0  0  0  0  0  0  0  0
   28.0376   39.1955   17.3595 C   0  0  1  0  0  0  0  0  0  0  0  0
   29.3007   38.5661   17.4436 O   0  0  0  0  0  0  0  0  0  0  0  0
   27.3425   39.0917   18.7067 C   0  0  1  0  0  0  0  0  0  0  0  0
   26.0881   39.7113   18.6077 O   0  0  0  0  0  0  0  0  0  0  0  0
   27.1461   37.6529   19.1540 C   0  0  1  0  0  0  0  0  0  0  0  0
   26.8536   36.8769   18.0234 O   0  0  0  0  0  0  0  0  0  0  0  0
   28.4024   37.1150   19.8187 C   0  0  0  0  0  0  0  0  0  0  0  0
   28.3652   34.3367   19.3716 N   0  0  0  0  0  0  0  0  0  0  0  0
   28.3054   32.9900   19.0861 C   0  0  0  0  0  0  0  0  0  0  0  0
   28.6405   32.5797   17.9787 O   0  0  0  0  0  0  0  0  0  0  0  0
   27.8687   32.0943   20.0353 N   0  0  0  0  0  0  0  0  0  0  0  0
   27.4966   32.5373   21.2895 C   0  0  0  0  0  0  0  0  0  0  0  0
   27.5528   33.8945   21.5865 C   0  0  1  0  0  0  0  0  0  0  0  0
   27.1241   31.7289   22.1423 O   0  0  0  0  0  0  0  0  0  0  0  0
   27.2391   35.6935   23.1308 C   0  0  2  0  0  0  0  0  0  0  0  0
   27.1806   34.3444   22.8374 N   0  0  0  0  0  0  0  0  0  0  0  0
   26.8624   36.1469   24.3955 C   0  0  0  0  0  0  0  0  0  0  0  0
   26.9125   37.5023   24.6994 C   0  0  1  0  0  0  0  0  0  0  0  0
   26.4976   37.9523   26.0644 C   0  0  0  0  0  0  0  0  0  0  0  0
   27.3492   38.4181   23.7302 C   0  0  1  0  0  0  0  0  0  0  0  0
   27.4268   39.8917   24.0216 C   0  0  0  0  0  0  0  0  0  0  0  0
   27.7228   37.9628   22.4686 C   0  0  0  0  0  0  0  0  0  0  0  0
   27.6689   36.6021   22.1608 C   0  0  1  0  0  0  0  0  0  0  0  0
   27.9868   34.7963   20.6169 C   0  0  1  0  0  0  0  0  0  0  0  0
   28.0384   36.1469   20.9040 N   0  0  0  0  0  0  0  0  0  0  0  0
  1  2  1  6  0  0  0
  1  3  1  0  0  0  0
  1  4  2  0  0  0  0
  1  6  1  0  0  0  0
  5  6  1  0  0  0  0
  7  5  1  1  0  0  0
  7  8  1  0  0  0  0
  7  9  1  0  0  0  0
  9 10  1  6  0  0  0
  9 11  1  0  0  0  0
 11 12  1  6  0  0  0
 11 13  1  0  0  0  0
 13 31  1  0  0  0  0
 14 15  1  0  0  0  0
 15 16  2  0  0  0  0
 15 17  1  0  0  0  0
 17 18  1  0  0  0  0
 18 20  2  0  0  0  0
 19 18  1  1  0  0  0
 19 22  1  0  0  0  0
 19 30  1  0  0  0  0
 21 23  1  6  0  0  0
 21 29  1  0  0  0  0
 21 22  1  0  0  0  0
 23 24  1  0  0  0  0
 24 25  1  1  0  0  0
 24 26  1  0  0  0  0
 26 27  1  1  0  0  0
 26 28  1  0  0  0  0
 29 28  1  1  0  0  0
 29 31  1  0  0  0  0
 30 14  1  1  0  0  0
 30 31  1  0  0  0  0
M  CHG  1   3  -1
M  END
>  <CHROM.1>
166.55096298,170.60805211,167.76589126,60.03205021,-36.73875357,146.70179019
-81.79317301,27.42807075,37.71147087,19.86683157,1.90485583,1.39477790,-0.91105737

>  <Name>
ligand

>  <RI>
0

>  <Rbt.Current_Directory>
/home/itssahil/PROJECTS/Mol_Feturizer/New_Systems/rnas/3F2T

>  <Rbt.Executable>
rbdock ($Id: //depot/dev/client3/rdock/2013.1/src/exe/rbdock.cxx#4 $)

>  <Rbt.Library>
libRbt.so (2013.1, Build901 2013/11/27)

>  <Rbt.Parameter_File>
/export/apps/rDock/src/rDock_2013.1_src/data/scripts/dock_solv.prm

>  <Rbt.Receptor>
prm/pocket_docking_4.prm

>  <SCORE>
-30.8007

>  <SCORE.INTER>
-33.168

>  <SCORE.INTER.CONST>
1

>  <SCORE.INTER.POLAR>
0

>  <SCORE.INTER.ROT>
7

>  <SCORE.INTER.SOLV>
20.0633

>  <SCORE.INTER.VDW>
-37.0664

>  <SCORE.INTER.norm>
-1.06994

>  <SCORE.INTRA>
2.36732

>  <SCORE.INTRA.DIHEDRAL>
2.82801

>  <SCORE.INTRA.DIHEDRAL.0>
4.64198

>  <SCORE.INTRA.POLAR>
0

>  <SCORE.INTRA.POLAR.0>
0

>  <SCORE.INTRA.REPUL>
0

>  <SCORE.INTRA.REPUL.0>
0

>  <SCORE.INTRA.SOLV>
1.05812

>  <SCORE.INTRA.SOLV.lig_0>
-49.3611

>  <SCORE.INTRA.VDW>
0.424261

>  <SCORE.INTRA.VDW.0>
-1.91858

>  <SCORE.INTRA.norm>
0.0763653

>  <SCORE.RESTR>
0

>  <SCORE.RESTR.CAVITY>
0

>  <SCORE.RESTR.norm>
0

>  <SCORE.SYSTEM>
0

>  <SCORE.SYSTEM.CONST>
0

>  <SCORE.SYSTEM.DIHEDRAL>
0

>  <SCORE.SYSTEM.SOLV>
0

>  <SCORE.SYSTEM.norm>
0

>  <SCORE.heavy>
31

>  <SCORE.norm>
-0.99357

>  <RMSD>
1.370

$$$$
ligand
 OpenBabel11021811473D
libRbt.so/2013.1/901 2013/11/27
 31 33  0  0  0  0  0  0  0  0999 V2000
   26.8002   42.9123   16.4675 P   0  0  1  0  0  0  0  0  0  0  0  0
   27.7538   43.4349   15.4232 O   0  0  0  0  0  0  0  0  0  0  0  0
   27.1142   43.5753   17.7823 O   0  5  0  0  0  0  0  0  0  0  0  0
   25.4139   43.2382   15.9837 O   0  0  0  0  0  0  0  0  0  0  0  0
   28.1566   40.7206   16.9437 C   0  0  0  0  0  0  0  0  0  0  0  0
   26.9079   41.3238   16.6760 O   0  0  0  0  0  0  0  0  0  0  0  0
   27.9361   39.2618   17.3354 C   0  0  1  0  0  0  0  0  0  0  0  0
   29.1704   38.5726   17.3243 O   0  0  0  0  0  0  0  0  0  0  0  0
   27.3380   39.1827   18.7300 C   0  0  1  0  0  0  0  0  0  0  0  0
   26.1188   39.8763   18.7299 O   0  0  0  0  0  0  0  0  0  0  0  0
   27.0899   37.7527   19.1797 C   0  0  1  0  0  0  0  0  0  0  0  0
   26.6667   37.0094   18.0687 O   0  0  0  0  0  0  0  0  0  0  0  0
   28.3583   37.1330   19.7425 C   0  0  0  0  0  0  0  0  0  0  0  0
   28.3678   34.3560   19.2867 N   0  0  0  0  0  0  0  0  0  0  0  0
   28.3304   33.0093   18.9972 C   0  0  0  0  0  0  0  0  0  0  0  0
   28.6659   32.6085   17.8865 O   0  0  0  0  0  0  0  0  0  0  0  0
   27.9155   32.1030   19.9462 N   0  0  0  0  0  0  0  0  0  0  0  0
   27.5432   32.5354   21.2040 C   0  0  0  0  0  0  0  0  0  0  0  0
   27.5770   33.8925   21.5050 C   0  0  1  0  0  0  0  0  0  0  0  0
   27.1903   31.7178   22.0565 O   0  0  0  0  0  0  0  0  0  0  0  0
   27.2406   35.6807   23.0570 C   0  0  2  0  0  0  0  0  0  0  0  0
   27.2044   34.3318   22.7596 N   0  0  0  0  0  0  0  0  0  0  0  0
   26.8636   36.1234   24.3253 C   0  0  0  0  0  0  0  0  0  0  0  0
   26.8914   37.4785   24.6333 C   0  0  1  0  0  0  0  0  0  0  0  0
   26.4769   37.9168   26.0023 C   0  0  0  0  0  0  0  0  0  0  0  0
   27.3057   38.4050   23.6645 C   0  0  1  0  0  0  0  0  0  0  0  0
   27.3588   39.8788   23.9601 C   0  0  0  0  0  0  0  0  0  0  0  0
   27.6798   37.9603   22.3991 C   0  0  0  0  0  0  0  0  0  0  0  0
   27.6483   36.5999   22.0873 C   0  0  1  0  0  0  0  0  0  0  0  0
   27.9889   34.8048   20.5357 C   0  0  1  0  0  0  0  0  0  0  0  0
   28.0182   36.1553   20.8269 N   0  0  0  0  0  0  0  0  0  0  0  0
  1  2  1  6  0  0  0
  1  3  1  0  0  0  0
  1  4  2  0  0  0  0
  1  6  1  0  0  0  0
  5  6  1  0  0  0  0
  7  5  1  1  0  0  0
  7  8  1  0  0  0  0
  7  9  1  0  0  0  0
  9 10  1  6  0  0  0
  9 11  1  0  0  0  0
 11 12  1  6  0  0  0
 11 13  1  0  0  0  0
 13 31  1  0  0  0  0
 14 15  1  0  0  0  0
 15 16  2  0  0  0  0
 15 17  1  0  0  0  0
 17 18  1  0  0  0  0
 18 20  2  0  0  0  0
 19 18  1  1  0  0  0
 19 22  1  0  0  0  0
 19 30  1  0  0  0  0
 21 23  1  6  0  0  0
 21 29  1  0  0  0  0
 21 22  1  0  0  0  0
 23 24  1  0  0  0  0
 24 25  1  1  0  0  0
 24 26  1  0  0  0  0
 26 27  1  1  0  0  0
 26 28  1  0  0  0  0
 29 28  1  1  0  0  0
 29 31  1  0  0  0  0
 30 14  1  1  0  0  0
 30 31  1  0  0  0  0
M  CHG  1   3  -1
M  END
>  <CHROM.1>
170.19655908,53.01632072,167.42169097,59.28981531,-36.82068419,147.78676089
-76.25390033,27.41579155,37.75513553,19.82047414,-1.90480676,-1.39038011
2.24548429

>  <Name>
ligand

>  <RI>
0

>  <Rbt.Current_Directory>
/home/itssahil/PROJECTS/Mol_Feturizer/New_Systems/rnas/3F2T

>  <Rbt.Executable>
rbdock ($Id: //depot/dev/client3/rdock/2013.1/src/exe/rbdock.cxx#4 $)

>  <Rbt.Library>
libRbt.so (2013.1, Build901 2013/11/27)

>  <Rbt.Parameter_File>
/export/apps/rDock/src/rDock_2013.1_src/data/scripts/dock_solv.prm

>  <Rbt.Receptor>
prm/pocket_docking_4.prm

>  <SCORE>
-31.7942

>  <SCORE.INTER>
-33.4993

>  <SCORE.INTER.CONST>
1

>  <SCORE.INTER.POLAR>
0

>  <SCORE.INTER.ROT>
7

>  <SCORE.INTER.SOLV>
19.2385

>  <SCORE.INTER.VDW>
-37.0124

>  <SCORE.INTER.norm>
-1.08062

>  <SCORE.INTRA>
1.7051

>  <SCORE.INTRA.DIHEDRAL>
2.25647

>  <SCORE.INTRA.DIHEDRAL.0>
4.64198

>  <SCORE.INTRA.POLAR>
0

>  <SCORE.INTRA.POLAR.0>
0

>  <SCORE.INTRA.REPUL>
0

>  <SCORE.INTRA.REPUL.0>
0

>  <SCORE.INTRA.SOLV>
0.37706

>  <SCORE.INTRA.SOLV.lig_0>
-49.3611

>  <SCORE.INTRA.VDW>
0.388339

>  <SCORE.INTRA.VDW.0>
-1.91858

>  <SCORE.INTRA.norm>
0.0550034

>  <SCORE.RESTR>
0

>  <SCORE.RESTR.CAVITY>
0

>  <SCORE.RESTR.norm>
0

>  <SCORE.SYSTEM>
0

>  <SCORE.SYSTEM.CONST>
0

>  <SCORE.SYSTEM.DIHEDRAL>
0

>  <SCORE.SYSTEM.SOLV>
0

>  <SCORE.SYSTEM.norm>
0

>  <SCORE.heavy>
31

>  <SCORE.norm>
-1.02562

>  <RMSD>
1.371

$$$$
ligand
 OpenBabel11021811473D
libRbt.so/2013.1/901 2013/11/27
 31 33  0  0  0  0  0  0  0  0999 V2000
   26.4462   42.2067   17.1714 P   0  0  1  0  0  0  0  0  0  0  0  0
   25.5083   42.8163   16.1605 O   0  0  0  0  0  0  0  0  0  0  0  0
   27.3541   43.2857   17.6991 O   0  5  0  0  0  0  0  0  0  0  0  0
   25.5848   41.6108   18.2507 O   0  0  0  0  0  0  0  0  0  0  0  0
   28.6739   40.8316   17.0406 C   0  0  0  0  0  0  0  0  0  0  0  0
   27.3658   41.0450   16.5525 O   0  0  0  0  0  0  0  0  0  0  0  0
   28.6223   39.8372   18.1976 C   0  0  1  0  0  0  0  0  0  0  0  0
   27.5497   40.1626   19.0593 O   0  0  0  0  0  0  0  0  0  0  0  0
   28.4187   38.4291   17.6642 C   0  0  1  0  0  0  0  0  0  0  0  0
   29.3936   38.1794   16.6872 O   0  0  0  0  0  0  0  0  0  0  0  0
   28.5281   37.3712   18.7494 C   0  0  1  0  0  0  0  0  0  0  0  0
   29.5916   37.7170   19.5951 O   0  0  0  0  0  0  0  0  0  0  0  0
   27.2468   37.2937   19.5629 C   0  0  0  0  0  0  0  0  0  0  0  0
   27.3989   34.5189   19.1187 N   0  0  0  0  0  0  0  0  0  0  0  0
   27.4097   33.1666   18.8537 C   0  0  0  0  0  0  0  0  0  0  0  0
   27.3819   32.7661   17.6937 O   0  0  0  0  0  0  0  0  0  0  0  0
   27.4493   32.2543   19.8833 N   0  0  0  0  0  0  0  0  0  0  0  0
   27.4902   32.6874   21.1943 C   0  0  0  0  0  0  0  0  0  0  0  0
   27.4789   34.0499   21.4713 C   0  0  1  0  0  0  0  0  0  0  0  0
   27.5446   31.8664   22.1122 O   0  0  0  0  0  0  0  0  0  0  0  0
   27.5082   35.8443   23.0521 C   0  0  2  0  0  0  0  0  0  0  0  0
   27.5177   34.4897   22.7793 N   0  0  0  0  0  0  0  0  0  0  0  0
   27.5474   36.2874   24.3746 C   0  0  0  0  0  0  0  0  0  0  0  0
   27.5331   37.6476   24.6603 C   0  0  1  0  0  0  0  0  0  0  0  0
   27.5725   38.0859   26.0901 C   0  0  0  0  0  0  0  0  0  0  0  0
   27.4840   38.5793   23.6123 C   0  0  1  0  0  0  0  0  0  0  0  0
   27.4761   40.0597   23.8782 C   0  0  0  0  0  0  0  0  0  0  0  0
   27.4433   38.1340   22.2937 C   0  0  0  0  0  0  0  0  0  0  0  0
   27.4534   36.7680   22.0057 C   0  0  1  0  0  0  0  0  0  0  0  0
   27.4289   34.9673   20.4237 C   0  0  1  0  0  0  0  0  0  0  0  0
   27.4106   36.3224   20.6931 N   0  0  0  0  0  0  0  0  0  0  0  0
  1  2  1  6  0  0  0
  1  3  1  0  0  0  0
  1  4  2  0  0  0  0
  1  6  1  0  0  0  0
  5  6  1  0  0  0  0
  7  5  1  6  0  0  0
  7  8  1  0  0  0  0
  7  9  1  0  0  0  0
  9 10  1  6  0  0  0
  9 11  1  0  0  0  0
 11 12  1  1  0  0  0
 11 13  1  0  0  0  0
 13 31  1  0  0  0  0
 14 15  1  0  0  0  0
 15 16  2  0  0  0  0
 15 17  1  0  0  0  0
 17 18  1  0  0  0  0
 18 20  2  0  0  0  0
 19 18  1  6  0  0  0
 19 22  1  0  0  0  0
 19 30  1  0  0  0  0
 21 23  1  1  0  0  0
 21 29  1  0  0  0  0
 21 22  1  0  0  0  0
 23 24  1  0  0  0  0
 24 25  1  6  0  0  0
 24 26  1  0  0  0  0
 26 27  1  6  0  0  0
 26 28  1  0  0  0  0
 29 28  1  6  0  0  0
 29 31  1  0  0  0  0
 30 14  1  6  0  0  0
 30 31  1  0  0  0  0
M  CHG  1   3  -1
M  END
>  <CHROM.1>
89.51240890,147.73052155,-44.13577523,52.41049928,-40.87582804,-175.61593852
110.94891502,27.52576186,37.70623076,19.96347151,-2.33195515,-1.49041467
1.83676146

>  <Name>
ligand

>  <RI>
0

>  <Rbt.Current_Directory>
/home/itssahil/PROJECTS/Mol_Feturizer/New_Systems/rnas/3F2T

>  <Rbt.Executable>
rbdock ($Id: //depot/dev/client3/rdock/2013.1/src/exe/rbdock.cxx#4 $)

>  <Rbt.Library>
libRbt.so (2013.1, Build901 2013/11/27)

>  <Rbt.Parameter_File>
/export/apps/rDock/src/rDock_2013.1_src/data/scripts/dock_solv.prm

>  <Rbt.Receptor>
prm/pocket_docking_6.prm

>  <SCORE>
-24.2214

>  <SCORE.INTER>
-28.7167

>  <SCORE.INTER.CONST>
1

>  <SCORE.INTER.POLAR>
0

>  <SCORE.INTER.ROT>
7

>  <SCORE.INTER.SOLV>
13.8144

>  <SCORE.INTER.VDW>
-32.016

>  <SCORE.INTER.norm>
-0.926347

>  <SCORE.INTRA>
4.49538

>  <SCORE.INTRA.DIHEDRAL>
3.91439

>  <SCORE.INTRA.DIHEDRAL.0>
4.64198

>  <SCORE.INTRA.POLAR>
0

>  <SCORE.INTRA.POLAR.0>
0

>  <SCORE.INTRA.REPUL>
0

>  <SCORE.INTRA.REPUL.0>
0

>  <SCORE.INTRA.SOLV>
3.64526

>  <SCORE.INTRA.SOLV.lig_0>
-49.3611

>  <SCORE.INTRA.VDW>
0.71556

>  <SCORE.INTRA.VDW.0>
-1.91858

>  <SCORE.INTRA.norm>
0.145012

>  <SCORE.RESTR>
0

>  <SCORE.RESTR.CAVITY>
0

>  <SCORE.RESTR.norm>
0

>  <SCORE.SYSTEM>
0

>  <SCORE.SYSTEM.CONST>
0

>  <SCORE.SYSTEM.DIHEDRAL>
0

>  <SCORE.SYSTEM.SOLV>
0

>  <SCORE.SYSTEM.norm>
0

>  <SCORE.heavy>
31

>  <SCORE.norm>
-0.781334

>  <RMSD>
1.371

$$$$
ligand
 OpenBabel11021811473D
libRbt.so/2013.1/901 2013/11/27
 31 33  0  0  0  0  0  0  0  0999 V2000
   26.5763   42.4916   17.4764 P   0  0  1  0  0  0  0  0  0  0  0  0
   25.5564   42.4809   18.5868 O   0  0  0  0  0  0  0  0  0  0  0  0
   25.9731   43.1681   16.2741 O   0  5  0  0  0  0  0  0  0  0  0  0
   27.7753   43.2315   18.0027 O   0  0  0  0  0  0  0  0  0  0  0  0
   27.7909   40.2110   17.9168 C   0  0  0  0  0  0  0  0  0  0  0  0
   27.0384   41.0184   17.0355 O   0  0  0  0  0  0  0  0  0  0  0  0
   28.2749   38.9698   17.1716 C   0  0  1  0  0  0  0  0  0  0  0  0
   29.5028   38.5327   17.7193 O   0  0  0  0  0  0  0  0  0  0  0  0
   27.2511   37.8544   17.2996 C   0  0  1  0  0  0  0  0  0  0  0  0
   27.7178   36.7398   16.5874 O   0  0  0  0  0  0  0  0  0  0  0  0
   27.0063   37.4482   18.7431 C   0  0  1  0  0  0  0  0  0  0  0  0
   26.1140   36.3667   18.7504 O   0  0  0  0  0  0  0  0  0  0  0  0
   28.3031   37.0313   19.4170 C   0  0  0  0  0  0  0  0  0  0  0  0
   28.3437   34.2368   19.0868 N   0  0  0  0  0  0  0  0  0  0  0  0
   28.3189   32.8779   18.8599 C   0  0  0  0  0  0  0  0  0  0  0  0
   28.6227   32.4319   17.7574 O   0  0  0  0  0  0  0  0  0  0  0  0
   27.9522   32.0097   19.8628 N   0  0  0  0  0  0  0  0  0  0  0  0
   27.6161   32.4934   21.1122 C   0  0  0  0  0  0  0  0  0  0  0  0
   27.6375   33.8631   21.3503 C   0  0  1  0  0  0  0  0  0  0  0  0
   27.3066   31.7103   22.0125 O   0  0  0  0  0  0  0  0  0  0  0  0
   27.3247   35.7151   22.8308 C   0  0  2  0  0  0  0  0  0  0  0  0
   27.3009   34.3535   22.5961 N   0  0  0  0  0  0  0  0  0  0  0  0
   26.9842   36.2095   24.0903 C   0  0  0  0  0  0  0  0  0  0  0  0
   26.9998   37.5775   24.3357 C   0  0  1  0  0  0  0  0  0  0  0  0
   26.6253   38.0715   25.6972 C   0  0  0  0  0  0  0  0  0  0  0  0
   27.3649   38.4649   23.3121 C   0  0  1  0  0  0  0  0  0  0  0  0
   27.4034   39.9514   23.5388 C   0  0  0  0  0  0  0  0  0  0  0  0
   27.7026   37.9687   22.0557 C   0  0  0  0  0  0  0  0  0  0  0  0
   27.6833   36.5951   21.8069 C   0  0  1  0  0  0  0  0  0  0  0  0
   28.0005   34.7364   20.3269 C   0  0  1  0  0  0  0  0  0  0  0  0
   28.0170   36.0990   20.5556 N   0  0  0  0  0  0  0  0  0  0  0  0
  1  2  1  1  0  0  0
  1  3  1  0  0  0  0
  1  4  2  0  0  0  0
  1  6  1  0  0  0  0
  5  6  1  0  0  0  0
  7  5  1  1  0  0  0
  7  8  1  0  0  0  0
  7  9  1  0  0  0  0
  9 10  1  6  0  0  0
  9 11  1  0  0  0  0
 11 12  1  6  0  0  0
 11 13  1  0  0  0  0
 13 31  1  0  0  0  0
 14 15  1  0  0  0  0
 15 16  2  0  0  0  0
 15 17  1  0  0  0  0
 17 18  1  0  0  0  0
 18 20  2  0  0  0  0
 19 18  1  1  0  0  0
 19 22  1  0  0  0  0
 19 30  1  0  0  0  0
 21 23  1  6  0  0  0
 21 29  1  0  0  0  0
 21 22  1  0  0  0  0
 23 24  1  0  0  0  0
 24 25  1  1  0  0  0
 24 26  1  0  0  0  0
 26 27  1  1  0  0  0
 26 28  1  0  0  0  0
 29 28  1  1  0  0  0
 29 31  1  0  0  0  0
 30 14  1  1  0  0  0
 30 31  1  0  0  0  0
M  CHG  1   3  -1
M  END
>  <CHROM.1>
-171.19257689,-67.72073068,150.04268738,179.09086820,-176.50515458,-155.12791318
-84.41111683,27.43858548,37.44865548,19.84205844,-2.12455723,-1.39956893
2.16616398

>  <Name>
ligand

>  <RI>
0

>  <Rbt.Current_Directory>
/home/itssahil/PROJECTS/Mol_Feturizer/New_Systems/rnas/3F2T

>  <Rbt.Executable>
rbdock ($Id: //depot/dev/client3/rdock/2013.1/src/exe/rbdock.cxx#4 $)

>  <Rbt.Library>
libRbt.so (2013.1, Build901 2013/11/27)

>  <Rbt.Parameter_File>
/export/apps/rDock/src/rDock_2013.1_src/data/scripts/dock_solv.prm

>  <Rbt.Receptor>
prm/pocket_docking_2.prm

>  <SCORE>
-26.7853

>  <SCORE.INTER>
-30.4947

>  <SCORE.INTER.CONST>
1

>  <SCORE.INTER.POLAR>
0

>  <SCORE.INTER.ROT>
7

>  <SCORE.INTER.SOLV>
16.425

>  <SCORE.INTER.VDW>
-34.0715

>  <SCORE.INTER.norm>
-0.983699

>  <SCORE.INTRA>
3.54505

>  <SCORE.INTRA.DIHEDRAL>
1.54506

>  <SCORE.INTRA.DIHEDRAL.0>
4.64198

>  <SCORE.INTRA.POLAR>
0

>  <SCORE.INTRA.POLAR.0>
0

>  <SCORE.INTRA.REPUL>
0

>  <SCORE.INTRA.REPUL.0>
0

>  <SCORE.INTRA.SOLV>
-0.386734

>  <SCORE.INTRA.SOLV.lig_0>
-49.3611

>  <SCORE.INTRA.VDW>
2.96589

>  <SCORE.INTRA.VDW.0>
-1.91858

>  <SCORE.INTRA.norm>
0.114357

>  <SCORE.RESTR>
0.164275

>  <SCORE.RESTR.CAVITY>
0.164275

>  <SCORE.RESTR.norm>
0.0052992

>  <SCORE.SYSTEM>
0

>  <SCORE.SYSTEM.CONST>
0

>  <SCORE.SYSTEM.DIHEDRAL>
0

>  <SCORE.SYSTEM.SOLV>
0

>  <SCORE.SYSTEM.norm>
0

>  <SCORE.heavy>
31

>  <SCORE.norm>
-0.864043

>  <RMSD>
1.389

$$$$
ligand
 OpenBabel11021811473D
libRbt.so/2013.1/901 2013/11/27
 31 33  0  0  0  0  0  0  0  0999 V2000
   26.7715   42.4544   16.6860 P   0  0  1  0  0  0  0  0  0  0  0  0
   25.7155   41.6408   17.3904 O   0  0  0  0  0  0  0  0  0  0  0  0
   26.1365   43.1611   15.5180 O   0  5  0  0  0  0  0  0  0  0  0  0
   27.3199   43.4174   17.7028 O   0  0  0  0  0  0  0  0  0  0  0  0
   28.7982   40.8244   17.0121 C   0  0  0  0  0  0  0  0  0  0  0  0
   27.9814   41.5600   16.1252 O   0  0  0  0  0  0  0  0  0  0  0  0
   28.0170   39.6209   17.5333 C   0  0  1  0  0  0  0  0  0  0  0  0
   28.6116   38.4267   17.0652 O   0  0  0  0  0  0  0  0  0  0  0  0
   28.0247   39.6147   19.0528 C   0  0  1  0  0  0  0  0  0  0  0  0
   27.2623   40.7017   19.5048 O   0  0  0  0  0  0  0  0  0  0  0  0
   27.4493   38.3347   19.6352 C   0  0  1  0  0  0  0  0  0  0  0  0
   26.4311   37.8829   18.7837 O   0  0  0  0  0  0  0  0  0  0  0  0
   28.5191   37.2614   19.7492 C   0  0  0  0  0  0  0  0  0  0  0  0
   28.4616   34.4976   19.2216 N   0  0  0  0  0  0  0  0  0  0  0  0
   28.3924   33.1602   18.8969 C   0  0  0  0  0  0  0  0  0  0  0  0
   28.7302   32.7794   17.7799 O   0  0  0  0  0  0  0  0  0  0  0  0
   27.9432   32.2412   19.8175 N   0  0  0  0  0  0  0  0  0  0  0  0
   27.5677   32.6508   21.0820 C   0  0  0  0  0  0  0  0  0  0  0  0
   27.6334   33.9984   21.4184 C   0  0  1  0  0  0  0  0  0  0  0  0
   27.1839   31.8212   21.9091 O   0  0  0  0  0  0  0  0  0  0  0  0
   27.3258   35.7545   23.0125 C   0  0  2  0  0  0  0  0  0  0  0  0
   27.2579   34.4150   22.6799 N   0  0  0  0  0  0  0  0  0  0  0  0
   26.9459   36.1743   24.2877 C   0  0  0  0  0  0  0  0  0  0  0  0
   27.0054   37.5198   24.6310 C   0  0  1  0  0  0  0  0  0  0  0  0
   26.5867   37.9336   26.0063 C   0  0  0  0  0  0  0  0  0  0  0  0
   27.4549   38.4596   23.6911 C   0  0  1  0  0  0  0  0  0  0  0  0
   27.5430   39.9234   24.0254 C   0  0  0  0  0  0  0  0  0  0  0  0
   27.8318   38.0378   22.4188 C   0  0  0  0  0  0  0  0  0  0  0  0
   27.7685   36.6872   22.0715 C   0  0  1  0  0  0  0  0  0  0  0  0
   28.0801   34.9241   20.4777 C   0  0  1  0  0  0  0  0  0  0  0  0
   28.1412   36.2654   20.8041 N   0  0  0  0  0  0  0  0  0  0  0  0
  1  2  1  1  0  0  0
  1  3  1  0  0  0  0
  1  4  2  0  0  0  0
  1  6  1  0  0  0  0
  5  6  1  0  0  0  0
  7  5  1  6  0  0  0
  7  8  1  0  0  0  0
  7  9  1  0  0  0  0
  9 10  1  1  0  0  0
  9 11  1  0  0  0  0
 11 12  1  6  0  0  0
 11 13  1  0  0  0  0
 13 31  1  0  0  0  0
 14 15  1  0  0  0  0
 15 16  2  0  0  0  0
 15 17  1  0  0  0  0
 17 18  1  0  0  0  0
 18 20  2  0  0  0  0
 19 18  1  1  0  0  0
 19 22  1  0  0  0  0
 19 30  1  0  0  0  0
 21 23  1  6  0  0  0
 21 29  1  0  0  0  0
 21 22  1  0  0  0  0
 23 24  1  0  0  0  0
 24 25  1  1  0  0  0
 24 26  1  0  0  0  0
 26 27  1  1  0  0  0
 26 28  1  0  0  0  0
 29 28  1  1  0  0  0
 29 31  1  0  0  0  0
 30 14  1  1  0  0  0
 30 31  1  0  0  0  0
M  CHG  1   3  -1
M  END
>  <CHROM.1>
73.41656374,-62.45600193,114.17752358,68.19770000,-33.55823273,156.11685484
-50.80665067,27.52913671,37.81218871,19.91401604,-1.91097375,-1.40293167
2.24152268

>  <Name>
ligand

>  <RI>
0

>  <Rbt.Current_Directory>
/home/itssahil/PROJECTS/Mol_Feturizer/New_Systems/rnas/3F2T

>  <Rbt.Executable>
rbdock ($Id: //depot/dev/client3/rdock/2013.1/src/exe/rbdock.cxx#4 $)

>  <Rbt.Library>
libRbt.so (2013.1, Build901 2013/11/27)

>  <Rbt.Parameter_File>
/export/apps/rDock/src/rDock_2013.1_src/data/scripts/dock_solv.prm

>  <Rbt.Receptor>
prm/pocket_docking_3.prm

>  <SCORE>
-27.589

>  <SCORE.INTER>
-32.5617

>  <SCORE.INTER.CONST>
1

>  <SCORE.INTER.POLAR>
0

>  <SCORE.INTER.ROT>
7

>  <SCORE.INTER.SOLV>
18.244

>  <SCORE.INTER.VDW>
-36.0558

>  <SCORE.INTER.norm>
-1.05038

>  <SCORE.INTRA>
4.97265

>  <SCORE.INTRA.DIHEDRAL>
6.88092

>  <SCORE.INTRA.DIHEDRAL.0>
4.64198

>  <SCORE.INTRA.POLAR>
0

>  <SCORE.INTRA.POLAR.0>
0

>  <SCORE.INTRA.REPUL>
0

>  <SCORE.INTRA.REPUL.0>
0

>  <SCORE.INTRA.SOLV>
1.98798

>  <SCORE.INTRA.SOLV.lig_0>
-49.3611

>  <SCORE.INTRA.VDW>
0.538197

>  <SCORE.INTRA.VDW.0>
-1.91858

>  <SCORE.INTRA.norm>
0.160408

>  <SCORE.RESTR>
0

>  <SCORE.RESTR.CAVITY>
0

>  <SCORE.RESTR.norm>
0

>  <SCORE.SYSTEM>
0

>  <SCORE.SYSTEM.CONST>
0

>  <SCORE.SYSTEM.DIHEDRAL>
0

>  <SCORE.SYSTEM.SOLV>
0

>  <SCORE.SYSTEM.norm>
0

>  <SCORE.heavy>
31

>  <SCORE.norm>
-0.889968

>  <RMSD>
1.394

$$$$
ligand
 OpenBabel11021811473D
libRbt.so/2013.1/901 2013/11/27
 31 33  0  0  0  0  0  0  0  0999 V2000
   26.6583   43.0830   16.7727 P   0  0  1  0  0  0  0  0  0  0  0  0
   27.3544   44.4190   16.8340 O   0  0  0  0  0  0  0  0  0  0  0  0
   25.7993   42.9300   17.9997 O   0  5  0  0  0  0  0  0  0  0  0  0
   25.8463   43.0803   15.5067 O   0  0  0  0  0  0  0  0  0  0  0  0
   27.3494   40.6208   17.3479 C   0  0  0  0  0  0  0  0  0  0  0  0
   27.6802   41.8453   16.7265 O   0  0  0  0  0  0  0  0  0  0  0  0
   28.4938   39.6306   17.1478 C   0  0  1  0  0  0  0  0  0  0  0  0
   29.5944   40.0041   17.9528 O   0  0  0  0  0  0  0  0  0  0  0  0
   28.0460   38.2326   17.5398 C   0  0  1  0  0  0  0  0  0  0  0  0
   28.9373   37.3071   16.9774 O   0  0  0  0  0  0  0  0  0  0  0  0
   28.0121   38.0300   19.0453 C   0  0  1  0  0  0  0  0  0  0  0  0
   27.9844   39.2908   19.6582 O   0  0  0  0  0  0  0  0  0  0  0  0
   26.7784   37.2452   19.4597 C   0  0  0  0  0  0  0  0  0  0  0  0
   27.1359   34.5055   18.9247 N   0  0  0  0  0  0  0  0  0  0  0  0
   27.2431   33.1656   18.6212 C   0  0  0  0  0  0  0  0  0  0  0  0
   27.1485   32.7884   17.4569 O   0  0  0  0  0  0  0  0  0  0  0  0
   27.4542   32.2394   19.6169 N   0  0  0  0  0  0  0  0  0  0  0  0
   27.5723   32.6471   20.9314 C   0  0  0  0  0  0  0  0  0  0  0  0
   27.4648   33.9969   21.2473 C   0  0  1  0  0  0  0  0  0  0  0  0
   27.7801   31.8155   21.8173 O   0  0  0  0  0  0  0  0  0  0  0  0
   27.4746   35.7533   22.8704 C   0  0  2  0  0  0  0  0  0  0  0  0
   27.5800   34.4111   22.5592 N   0  0  0  0  0  0  0  0  0  0  0  0
   27.5911   36.1705   24.1968 C   0  0  0  0  0  0  0  0  0  0  0  0
   27.4816   37.5176   24.5215 C   0  0  1  0  0  0  0  0  0  0  0  0
   27.6082   37.9277   25.9546 C   0  0  0  0  0  0  0  0  0  0  0  0
   27.2577   38.4626   23.5088 C   0  0  1  0  0  0  0  0  0  0  0  0
   27.1422   39.9303   23.8167 C   0  0  0  0  0  0  0  0  0  0  0  0
   27.1402   38.0429   22.1864 C   0  0  0  0  0  0  0  0  0  0  0  0
   27.2459   36.6898   21.8595 C   0  0  1  0  0  0  0  0  0  0  0  0
   27.2413   34.9275   20.2346 C   0  0  1  0  0  0  0  0  0  0  0  0
   27.1269   36.2695   20.5433 N   0  0  0  0  0  0  0  0  0  0  0  0
  1  2  1  1  0  0  0
  1  3  1  0  0  0  0
  1  4  2  0  0  0  0
  1  6  1  0  0  0  0
  5  6  1  0  0  0  0
  7  5  1  1  0  0  0
  7  8  1  0  0  0  0
  7  9  1  0  0  0  0
  9 10  1  6  0  0  0
  9 11  1  0  0  0  0
 11 12  1  1  0  0  0
 11 13  1  0  0  0  0
 13 31  1  0  0  0  0
 14 15  1  0  0  0  0
 15 16  2  0  0  0  0
 15 17  1  0  0  0  0
 17 18  1  0  0  0  0
 18 20  2  0  0  0  0
 19 18  1  6  0  0  0
 19 22  1  0  0  0  0
 19 30  1  0  0  0  0
 21 23  1  1  0  0  0
 21 29  1  0  0  0  0
 21 22  1  0  0  0  0
 23 24  1  0  0  0  0
 24 25  1  6  0  0  0
 24 26  1  0  0  0  0
 26 27  1  6  0  0  0
 26 28  1  0  0  0  0
 29 28  1  6  0  0  0
 29 31  1  0  0  0  0
 30 14  1  6  0  0  0
 30 31  1  0  0  0  0
M  CHG  1   3  -1
M  END
>  <CHROM.1>
179.98119318,146.33711960,72.18591021,162.20605125,18.83096447,140.30518280
79.83444860,27.43161974,37.87502523,19.73418234,2.32634251,1.51049747,-1.26812341

>  <Name>
ligand

>  <RI>
0

>  <Rbt.Current_Directory>
/home/itssahil/PROJECTS/Mol_Feturizer/New_Systems/rnas/3F2T

>  <Rbt.Executable>
rbdock ($Id: //depot/dev/client3/rdock/2013.1/src/exe/rbdock.cxx#4 $)

>  <Rbt.Library>
libRbt.so (2013.1, Build901 2013/11/27)

>  <Rbt.Parameter_File>
/export/apps/rDock/src/rDock_2013.1_src/data/scripts/dock_solv.prm

>  <Rbt.Receptor>
prm/pocket_docking_2.prm

>  <SCORE>
-18.0205

>  <SCORE.INTER>
-24.8132

>  <SCORE.INTER.CONST>
1

>  <SCORE.INTER.POLAR>
0

>  <SCORE.INTER.ROT>
7

>  <SCORE.INTER.SOLV>
16.8376

>  <SCORE.INTER.VDW>
-30.4213

>  <SCORE.INTER.norm>
-0.800425

>  <SCORE.INTRA>
6.6208

>  <SCORE.INTRA.DIHEDRAL>
7.86549

>  <SCORE.INTRA.DIHEDRAL.0>
4.64198

>  <SCORE.INTRA.POLAR>
0

>  <SCORE.INTRA.POLAR.0>
0

>  <SCORE.INTRA.REPUL>
0

>  <SCORE.INTRA.REPUL.0>
0

>  <SCORE.INTRA.SOLV>
0.192655

>  <SCORE.INTRA.SOLV.lig_0>
-49.3611

>  <SCORE.INTRA.VDW>
2.59172

>  <SCORE.INTRA.VDW.0>
-1.91858

>  <SCORE.INTRA.norm>
0.213574

>  <SCORE.RESTR>
0.17189

>  <SCORE.RESTR.CAVITY>
0.17189

>  <SCORE.RESTR.norm>
0.00554485

>  <SCORE.SYSTEM>
0

>  <SCORE.SYSTEM.CONST>
0

>  <SCORE.SYSTEM.DIHEDRAL>
0

>  <SCORE.SYSTEM.SOLV>
0

>  <SCORE.SYSTEM.norm>
0

>  <SCORE.heavy>
31

>  <SCORE.norm>
-0.581306

>  <RMSD>
1.399

$$$$
ligand
 OpenBabel11021811473D
libRbt.so/2013.1/901 2013/11/27
 31 33  0  0  0  0  0  0  0  0999 V2000
   25.6499   43.1948   16.8392 P   0  0  1  0  0  0  0  0  0  0  0  0
   24.5195   42.3369   17.3485 O   0  0  0  0  0  0  0  0  0  0  0  0
   25.5065   43.3461   15.3481 O   0  5  0  0  0  0  0  0  0  0  0  0
   25.5450   44.5125   17.5566 O   0  0  0  0  0  0  0  0  0  0  0  0
   27.4823   41.3446   16.5395 C   0  0  0  0  0  0  0  0  0  0  0  0
   27.0971   42.5656   17.1360 O   0  0  0  0  0  0  0  0  0  0  0  0
   26.9709   40.1859   17.3916 C   0  0  1  0  0  0  0  0  0  0  0  0
   26.7489   39.0539   16.5742 O   0  0  0  0  0  0  0  0  0  0  0  0
   27.9945   39.8332   18.4577 C   0  0  1  0  0  0  0  0  0  0  0  0
   28.1765   40.9510   19.2852 O   0  0  0  0  0  0  0  0  0  0  0  0
   27.5651   38.6530   19.3130 C   0  0  1  0  0  0  0  0  0  0  0  0
   27.1054   37.6376   18.4623 O   0  0  0  0  0  0  0  0  0  0  0  0
   28.7294   38.1273   20.1361 C   0  0  0  0  0  0  0  0  0  0  0  0
   28.6656   35.4518   19.2657 N   0  0  0  0  0  0  0  0  0  0  0  0
   28.5981   34.1666   18.7732 C   0  0  0  0  0  0  0  0  0  0  0  0
   29.0026   33.9188   17.6410 O   0  0  0  0  0  0  0  0  0  0  0  0
   28.0760   33.1515   19.5419 N   0  0  0  0  0  0  0  0  0  0  0  0
   27.6246   33.4104   20.8214 C   0  0  0  0  0  0  0  0  0  0  0  0
   27.6881   34.7043   21.3266 C   0  0  1  0  0  0  0  0  0  0  0  0
   27.1753   32.4941   21.5127 O   0  0  0  0  0  0  0  0  0  0  0  0
   27.3029   36.2569   23.1044 C   0  0  2  0  0  0  0  0  0  0  0  0
   27.2371   34.9706   22.6038 N   0  0  0  0  0  0  0  0  0  0  0  0
   26.8466   36.5247   24.3955 C   0  0  0  0  0  0  0  0  0  0  0  0
   26.9034   37.8159   24.9068 C   0  0  1  0  0  0  0  0  0  0  0  0
   26.4018   38.0663   26.2937 C   0  0  0  0  0  0  0  0  0  0  0  0
   27.4274   38.8540   24.1216 C   0  0  1  0  0  0  0  0  0  0  0  0
   27.5150   40.2630   24.6405 C   0  0  0  0  0  0  0  0  0  0  0  0
   27.8804   38.5839   22.8330 C   0  0  0  0  0  0  0  0  0  0  0  0
   27.8199   37.2882   22.3168 C   0  0  1  0  0  0  0  0  0  0  0  0
   28.2091   35.7286   20.5386 C   0  0  1  0  0  0  0  0  0  0  0  0
   28.2685   37.0176   21.0327 N   0  0  0  0  0  0  0  0  0  0  0  0
  1  2  1  1  0  0  0
  1  3  1  0  0  0  0
  1  4  2  0  0  0  0
  1  6  1  0  0  0  0
  5  6  1  0  0  0  0
  7  5  1  6  0  0  0
  7  8  1  0  0  0  0
  7  9  1  0  0  0  0
  9 10  1  1  0  0  0
  9 11  1  0  0  0  0
 11 12  1  6  0  0  0
 11 13  1  0  0  0  0
 13 31  1  0  0  0  0
 14 15  1  0  0  0  0
 15 16  2  0  0  0  0
 15 17  1  0  0  0  0
 17 18  1  0  0  0  0
 18 20  2  0  0  0  0
 19 18  1  1  0  0  0
 19 22  1  0  0  0  0
 19 30  1  0  0  0  0
 21 23  1  6  0  0  0
 21 29  1  0  0  0  0
 21 22  1  0  0  0  0
 23 24  1  0  0  0  0
 24 25  1  1  0  0  0
 24 26  1  0  0  0  0
 26 27  1  1  0  0  0
 26 28  1  0  0  0  0
 29 28  1  1  0  0  0
 29 31  1  0  0  0  0
 30 14  1  1  0  0  0
 30 31  1  0  0  0  0
M  CHG  1   3  -1
M  END
>  <CHROM.1>
-85.20633537,64.44590180,151.66730668,61.35696265,46.87195906,176.64392345
-90.77419920,27.24331255,38.40717431,19.91714832,2.41074152,1.33806806,-1.43537234

>  <Name>
ligand

>  <RI>
0

>  <Rbt.Current_Directory>
/home/itssahil/PROJECTS/Mol_Feturizer/New_Systems/rnas/3F2T

>  <Rbt.Executable>
rbdock ($Id: //depot/dev/client3/rdock/2013.1/src/exe/rbdock.cxx#4 $)

>  <Rbt.Library>
libRbt.so (2013.1, Build901 2013/11/27)

>  <Rbt.Parameter_File>
/export/apps/rDock/src/rDock_2013.1_src/data/scripts/dock_solv.prm

>  <Rbt.Receptor>
prm/pocket_docking_2.prm

>  <SCORE>
-24.9195

>  <SCORE.INTER>
-27.1294

>  <SCORE.INTER.CONST>
1

>  <SCORE.INTER.POLAR>
0

>  <SCORE.INTER.ROT>
7

>  <SCORE.INTER.SOLV>
18.6386

>  <SCORE.INTER.VDW>
-32.5658

>  <SCORE.INTER.norm>
-0.875141

>  <SCORE.INTRA>
2.19617

>  <SCORE.INTRA.DIHEDRAL>
2.22831

>  <SCORE.INTRA.DIHEDRAL.0>
4.64198

>  <SCORE.INTRA.POLAR>
0

>  <SCORE.INTRA.POLAR.0>
0

>  <SCORE.INTRA.REPUL>
0

>  <SCORE.INTRA.REPUL.0>
0

>  <SCORE.INTRA.SOLV>
0.506156

>  <SCORE.INTRA.SOLV.lig_0>
-49.3611

>  <SCORE.INTRA.VDW>
0.828936

>  <SCORE.INTRA.VDW.0>
-1.91858

>  <SCORE.INTRA.norm>
0.0708442

>  <SCORE.RESTR>
0.0136901

>  <SCORE.RESTR.CAVITY>
0.0136901

>  <SCORE.RESTR.norm>
0.000441616

>  <SCORE.SYSTEM>
0

>  <SCORE.SYSTEM.CONST>
0

>  <SCORE.SYSTEM.DIHEDRAL>
0

>  <SCORE.SYSTEM.SOLV>
0

>  <SCORE.SYSTEM.norm>
0

>  <SCORE.heavy>
31

>  <SCORE.norm>
-0.803855

>  <RMSD>
1.413

$$$$
ligand
 OpenBabel11021811473D
libRbt.so/2013.1/901 2013/11/27
 31 33  0  0  0  0  0  0  0  0999 V2000
   27.2584   42.8929   16.6856 P   0  0  1  0  0  0  0  0  0  0  0  0
   27.9179   43.5046   15.4756 O   0  0  0  0  0  0  0  0  0  0  0  0
   27.9829   43.3628   17.9190 O   0  5  0  0  0  0  0  0  0  0  0  0
   25.8230   43.3416   16.6643 O   0  0  0  0  0  0  0  0  0  0  0  0
   28.5038   40.5956   16.8900 C   0  0  0  0  0  0  0  0  0  0  0  0
   27.2918   41.2876   16.6733 O   0  0  0  0  0  0  0  0  0  0  0  0
   28.1953   39.1553   17.2907 C   0  0  1  0  0  0  0  0  0  0  0  0
   29.3993   38.4230   17.4041 O   0  0  0  0  0  0  0  0  0  0  0  0
   27.4736   39.1309   18.6276 C   0  0  1  0  0  0  0  0  0  0  0  0
   26.2532   39.8075   18.4855 O   0  0  0  0  0  0  0  0  0  0  0  0
   27.1989   37.7193   19.1181 C   0  0  1  0  0  0  0  0  0  0  0  0
   26.8054   36.9410   18.0202 O   0  0  0  0  0  0  0  0  0  0  0  0
   28.4430   37.1102   19.7431 C   0  0  0  0  0  0  0  0  0  0  0  0
   28.4157   34.3357   19.2729 N   0  0  0  0  0  0  0  0  0  0  0  0
   28.3622   32.9912   18.9754 C   0  0  0  0  0  0  0  0  0  0  0  0
   28.7192   32.5900   17.8716 O   0  0  0  0  0  0  0  0  0  0  0  0
   27.9072   32.0878   19.9086 N   0  0  0  0  0  0  0  0  0  0  0  0
   27.5101   32.5206   21.1587 C   0  0  0  0  0  0  0  0  0  0  0  0
   27.5599   33.8754   21.4677 C   0  0  1  0  0  0  0  0  0  0  0  0
   27.1212   31.7052   21.9974 O   0  0  0  0  0  0  0  0  0  0  0  0
   27.2150   35.6617   23.0200 C   0  0  2  0  0  0  0  0  0  0  0  0
   27.1628   34.3150   22.7146 N   0  0  0  0  0  0  0  0  0  0  0  0
   26.8132   36.1048   24.2806 C   0  0  0  0  0  0  0  0  0  0  0  0
   26.8567   37.4577   24.5963 C   0  0  1  0  0  0  0  0  0  0  0  0
   26.4147   37.8965   25.9565 C   0  0  0  0  0  0  0  0  0  0  0  0
   27.3120   38.3814   23.6434 C   0  0  1  0  0  0  0  0  0  0  0  0
   27.3833   39.8526   23.9481 C   0  0  0  0  0  0  0  0  0  0  0  0
   27.7107   37.9364   22.3858 C   0  0  0  0  0  0  0  0  0  0  0  0
   27.6635   36.5782   22.0660 C   0  0  1  0  0  0  0  0  0  0  0  0
   28.0126   34.7850   20.5142 C   0  0  1  0  0  0  0  0  0  0  0  0
   28.0580   36.1333   20.8132 N   0  0  0  0  0  0  0  0  0  0  0  0
  1  2  1  6  0  0  0
  1  3  1  0  0  0  0
  1  4  2  0  0  0  0
  1  6  1  0  0  0  0
  5  6  1  0  0  0  0
  7  5  1  1  0  0  0
  7  8  1  0  0  0  0
  7  9  1  0  0  0  0
  9 10  1  6  0  0  0
  9 11  1  0  0  0  0
 11 12  1  6  0  0  0
 11 13  1  0  0  0  0
 13 31  1  0  0  0  0
 14 15  1  0  0  0  0
 15 16  2  0  0  0  0
 15 17  1  0  0  0  0
 17 18  1  0  0  0  0
 18 20  2  0  0  0  0
 19 18  1  1  0  0  0
 19 22  1  0  0  0  0
 19 30  1  0  0  0  0
 21 23  1  6  0  0  0
 21 29  1  0  0  0  0
 21 22  1  0  0  0  0
 23 24  1  0  0  0  0
 24 25  1  1  0  0  0
 24 26  1  0  0  0  0
 26 27  1  1  0  0  0
 26 28  1  0  0  0  0
 29 28  1  1  0  0  0
 29 31  1  0  0  0  0
 30 14  1  1  0  0  0
 30 31  1  0  0  0  0
M  CHG  1   3  -1
M  END
>  <CHROM.1>
161.11708179,71.55466285,175.24981644,62.32027960,-40.39364898,149.97403421
-78.20431945,27.55661392,37.72038252,19.83508682,1.64961785,1.38486405,-0.62357932

>  <Name>
ligand

>  <RI>
0

>  <Rbt.Current_Directory>
/home/itssahil/PROJECTS/Mol_Feturizer/New_Systems/rnas/3F2T

>  <Rbt.Executable>
rbdock ($Id: //depot/dev/client3/rdock/2013.1/src/exe/rbdock.cxx#4 $)

>  <Rbt.Library>
libRbt.so (2013.1, Build901 2013/11/27)

>  <Rbt.Parameter_File>
/export/apps/rDock/src/rDock_2013.1_src/data/scripts/dock_solv.prm

>  <Rbt.Receptor>
prm/pocket_docking_2.prm

>  <SCORE>
-31.1216

>  <SCORE.INTER>
-33.4644

>  <SCORE.INTER.CONST>
1

>  <SCORE.INTER.POLAR>
0

>  <SCORE.INTER.ROT>
7

>  <SCORE.INTER.SOLV>
17.8383

>  <SCORE.INTER.VDW>
-36.5224

>  <SCORE.INTER.norm>
-1.0795

>  <SCORE.INTRA>
2.31947

>  <SCORE.INTRA.DIHEDRAL>
2.28765

>  <SCORE.INTRA.DIHEDRAL.0>
4.64198

>  <SCORE.INTRA.POLAR>
0

>  <SCORE.INTRA.POLAR.0>
0

>  <SCORE.INTRA.REPUL>
0

>  <SCORE.INTRA.REPUL.0>
0

>  <SCORE.INTRA.SOLV>
0.976894

>  <SCORE.INTRA.SOLV.lig_0>
-49.3611

>  <SCORE.INTRA.VDW>
0.687196

>  <SCORE.INTRA.VDW.0>
-1.91858

>  <SCORE.INTRA.norm>
0.0748216

>  <SCORE.RESTR>
0.023419

>  <SCORE.RESTR.CAVITY>
0.023419

>  <SCORE.RESTR.norm>
0.000755451

>  <SCORE.SYSTEM>
0

>  <SCORE.SYSTEM.CONST>
0

>  <SCORE.SYSTEM.DIHEDRAL>
0

>  <SCORE.SYSTEM.SOLV>
0

>  <SCORE.SYSTEM.norm>
0

>  <SCORE.heavy>
31

>  <SCORE.norm>
-1.00392

>  <RMSD>
1.422

$$$$
ligand
 OpenBabel11021811473D
libRbt.so/2013.1/901 2013/11/27
 31 33  0  0  0  0  0  0  0  0999 V2000
   27.5113   42.5814   16.8647 P   0  0  1  0  0  0  0  0  0  0  0  0
   26.5146   41.4747   16.6300 O   0  0  0  0  0  0  0  0  0  0  0  0
   28.1220   42.9685   15.5441 O   0  5  0  0  0  0  0  0  0  0  0  0
   26.7513   43.7165   17.4938 O   0  0  0  0  0  0  0  0  0  0  0  0
   29.4948   41.0199   17.5705 C   0  0  0  0  0  0  0  0  0  0  0  0
   28.7015   42.1535   17.8540 O   0  0  0  0  0  0  0  0  0  0  0  0
   28.6585   39.7587   17.7705 C   0  0  1  0  0  0  0  0  0  0  0  0
   29.4332   38.6178   17.4591 O   0  0  0  0  0  0  0  0  0  0  0  0
   28.1977   39.6643   19.2153 C   0  0  1  0  0  0  0  0  0  0  0  0
   27.2491   40.6716   19.4453 O   0  0  0  0  0  0  0  0  0  0  0  0
   27.5745   38.3180   19.5437 C   0  0  1  0  0  0  0  0  0  0  0  0
   26.7454   37.9451   18.4761 O   0  0  0  0  0  0  0  0  0  0  0  0
   28.6453   37.2576   19.7396 C   0  0  0  0  0  0  0  0  0  0  0  0
   28.5430   34.4988   19.1932 N   0  0  0  0  0  0  0  0  0  0  0  0
   28.4548   33.1652   18.8579 C   0  0  0  0  0  0  0  0  0  0  0  0
   28.8241   32.7824   17.7516 O   0  0  0  0  0  0  0  0  0  0  0  0
   27.9511   32.2519   19.7559 N   0  0  0  0  0  0  0  0  0  0  0  0
   27.5394   32.6635   21.0085 C   0  0  0  0  0  0  0  0  0  0  0  0
   27.6240   34.0074   21.3554 C   0  0  1  0  0  0  0  0  0  0  0  0
   27.1066   31.8387   21.8159 O   0  0  0  0  0  0  0  0  0  0  0  0
   27.2993   35.7617   22.9480 C   0  0  2  0  0  0  0  0  0  0  0  0
   27.2125   34.4259   22.6049 N   0  0  0  0  0  0  0  0  0  0  0  0
   26.8830   36.1834   24.2112 C   0  0  0  0  0  0  0  0  0  0  0  0
   26.9611   37.5254   24.5648 C   0  0  1  0  0  0  0  0  0  0  0  0
   26.5023   37.9415   25.9265 C   0  0  0  0  0  0  0  0  0  0  0  0
   27.4662   38.4594   23.6476 C   0  0  1  0  0  0  0  0  0  0  0  0
   27.5760   39.9189   23.9939 C   0  0  0  0  0  0  0  0  0  0  0  0
   27.8793   38.0357   22.3872 C   0  0  0  0  0  0  0  0  0  0  0  0
   27.7974   36.6887   22.0295 C   0  0  1  0  0  0  0  0  0  0  0  0
   28.1260   34.9274   20.4372 C   0  0  1  0  0  0  0  0  0  0  0  0
   28.2062   36.2651   20.7739 N   0  0  0  0  0  0  0  0  0  0  0  0
  1  2  1  6  0  0  0
  1  3  1  0  0  0  0
  1  4  2  0  0  0  0
  1  6  1  0  0  0  0
  5  6  1  0  0  0  0
  7  5  1  1  0  0  0
  7  8  1  0  0  0  0
  7  9  1  0  0  0  0
  9 10  1  6  0  0  0
  9 11  1  0  0  0  0
 11 12  1  6  0  0  0
 11 13  1  0  0  0  0
 13 31  1  0  0  0  0
 14 15  1  0  0  0  0
 15 16  2  0  0  0  0
 15 17  1  0  0  0  0
 17 18  1  0  0  0  0
 18 20  2  0  0  0  0
 19 18  1  1  0  0  0
 19 22  1  0  0  0  0
 19 30  1  0  0  0  0
 21 23  1  6  0  0  0
 21 29  1  0  0  0  0
 21 22  1  0  0  0  0
 23 24  1  0  0  0  0
 24 25  1  1  0  0  0
 24 26  1  0  0  0  0
 26 27  1  1  0  0  0
 26 28  1  0  0  0  0
 29 28  1  1  0  0  0
 29 31  1  0  0  0  0
 30 14  1  1  0  0  0
 30 31  1  0  0  0  0
M  CHG  1   3  -1
M  END
>  <CHROM.1>
-70.49156500,55.74831922,178.63098591,69.67805960,-42.24132887,146.68002329
-53.61783620,27.78109484,37.86186900,19.95283137,-1.46612191,-1.37810567
2.72441029

>  <Name>
ligand

>  <RI>
0

>  <Rbt.Current_Directory>
/home/itssahil/PROJECTS/Mol_Feturizer/New_Systems/rnas/3F2T

>  <Rbt.Executable>
rbdock ($Id: //depot/dev/client3/rdock/2013.1/src/exe/rbdock.cxx#4 $)

>  <Rbt.Library>
libRbt.so (2013.1, Build901 2013/11/27)

>  <Rbt.Parameter_File>
/export/apps/rDock/src/rDock_2013.1_src/data/scripts/dock_solv.prm

>  <Rbt.Receptor>
prm/pocket_docking_7.prm

>  <SCORE>
-29.2267

>  <SCORE.INTER>
-31.9352

>  <SCORE.INTER.CONST>
1

>  <SCORE.INTER.POLAR>
0

>  <SCORE.INTER.ROT>
7

>  <SCORE.INTER.SOLV>
18.4144

>  <SCORE.INTER.VDW>
-35.6949

>  <SCORE.INTER.norm>
-1.03017

>  <SCORE.INTRA>
2.70855

>  <SCORE.INTRA.DIHEDRAL>
1.67926

>  <SCORE.INTRA.DIHEDRAL.0>
4.64198

>  <SCORE.INTRA.POLAR>
0

>  <SCORE.INTRA.POLAR.0>
0

>  <SCORE.INTRA.REPUL>
0

>  <SCORE.INTRA.REPUL.0>
0

>  <SCORE.INTRA.SOLV>
1.67224

>  <SCORE.INTRA.SOLV.lig_0>
-49.3611

>  <SCORE.INTRA.VDW>
1.0328

>  <SCORE.INTRA.VDW.0>
-1.91858

>  <SCORE.INTRA.norm>
0.0873727

>  <SCORE.RESTR>
0

>  <SCORE.RESTR.CAVITY>
0

>  <SCORE.RESTR.norm>
0

>  <SCORE.SYSTEM>
0

>  <SCORE.SYSTEM.CONST>
0

>  <SCORE.SYSTEM.DIHEDRAL>
0

>  <SCORE.SYSTEM.SOLV>
0

>  <SCORE.SYSTEM.norm>
0

>  <SCORE.heavy>
31

>  <SCORE.norm>
-0.942795

>  <RMSD>
1.436

$$$$
ligand
 OpenBabel11021811473D
libRbt.so/2013.1/901 2013/11/27
 31 33  0  0  0  0  0  0  0  0999 V2000
   28.0868   42.6697   16.6806 P   0  0  1  0  0  0  0  0  0  0  0  0
   27.7999   44.1499   16.6887 O   0  0  0  0  0  0  0  0  0  0  0  0
   26.9225   41.9562   16.0463 O   0  5  0  0  0  0  0  0  0  0  0  0
   29.3598   42.4840   15.9014 O   0  0  0  0  0  0  0  0  0  0  0  0
   27.1863   41.8281   18.9939 C   0  0  0  0  0  0  0  0  0  0  0  0
   28.2962   42.0638   18.1528 O   0  0  0  0  0  0  0  0  0  0  0  0
   27.6798   41.3215   20.3467 C   0  0  1  0  0  0  0  0  0  0  0  0
   26.5752   40.9818   21.1611 O   0  0  0  0  0  0  0  0  0  0  0  0
   28.5500   40.0908   20.1548 C   0  0  1  0  0  0  0  0  0  0  0  0
   29.4421   40.0055   21.2338 O   0  0  0  0  0  0  0  0  0  0  0  0
   27.7400   38.8072   20.0840 C   0  0  1  0  0  0  0  0  0  0  0  0
   26.9546   38.8462   18.9232 O   0  0  0  0  0  0  0  0  0  0  0  0
   28.6517   37.5924   20.0306 C   0  0  0  0  0  0  0  0  0  0  0  0
   28.5259   34.8549   19.3902 N   0  0  0  0  0  0  0  0  0  0  0  0
   28.4262   33.5343   19.0097 C   0  0  0  0  0  0  0  0  0  0  0  0
   28.7899   33.1868   17.8899 O   0  0  0  0  0  0  0  0  0  0  0  0
   27.9172   32.5948   19.8771 N   0  0  0  0  0  0  0  0  0  0  0  0
   27.5117   32.9665   21.1441 C   0  0  0  0  0  0  0  0  0  0  0  0
   27.6079   34.2969   21.5367 C   0  0  1  0  0  0  0  0  0  0  0  0
   27.0741   32.1179   21.9239 O   0  0  0  0  0  0  0  0  0  0  0  0
   27.3010   35.9980   23.1894 C   0  0  2  0  0  0  0  0  0  0  0  0
   27.2027   34.6756   22.8009 N   0  0  0  0  0  0  0  0  0  0  0  0
   26.8910   36.3795   24.4673 C   0  0  0  0  0  0  0  0  0  0  0  0
   26.9807   37.7079   24.8665 C   0  0  1  0  0  0  0  0  0  0  0  0
   26.5283   38.0807   26.2428 C   0  0  0  0  0  0  0  0  0  0  0  0
   27.4912   38.6687   23.9806 C   0  0  1  0  0  0  0  0  0  0  0  0
   27.6135   40.1146   24.3765 C   0  0  0  0  0  0  0  0  0  0  0  0
   27.8980   38.2853   22.7054 C   0  0  0  0  0  0  0  0  0  0  0  0
   27.8045   36.9521   22.3019 C   0  0  1  0  0  0  0  0  0  0  0  0
   28.1152   35.2438   20.6493 C   0  0  1  0  0  0  0  0  0  0  0  0
   28.2070   36.5686   21.0314 N   0  0  0  0  0  0  0  0  0  0  0  0
  1  2  1  1  0  0  0
  1  3  1  0  0  0  0
  1  4  2  0  0  0  0
  1  6  1  0  0  0  0
  5  6  1  0  0  0  0
  7  5  1  6  0  0  0
  7  8  1  0  0  0  0
  7  9  1  0  0  0  0
  9 10  1  1  0  0  0
  9 11  1  0  0  0  0
 11 12  1  6  0  0  0
 11 13  1  0  0  0  0
 13 31  1  0  0  0  0
 14 15  1  0  0  0  0
 15 16  2  0  0  0  0
 15 17  1  0  0  0  0
 17 18  1  0  0  0  0
 18 20  2  0  0  0  0
 19 18  1  1  0  0  0
 19 22  1  0  0  0  0
 19 30  1  0  0  0  0
 21 23  1  6  0  0  0
 21 29  1  0  0  0  0
 21 22  1  0  0  0  0
 23 24  1  0  0  0  0
 24 25  1  1  0  0  0
 24 26  1  0  0  0  0
 26 27  1  1  0  0  0
 26 28  1  0  0  0  0
 29 28  1  1  0  0  0
 29 31  1  0  0  0  0
 30 14  1  1  0  0  0
 30 31  1  0  0  0  0
M  CHG  1   3  -1
M  END
>  <CHROM.1>
-177.15749017,76.40181487,-175.40857614,153.72393871,65.77687927,131.48952765
-41.78739499,27.79864453,38.22545577,20.41805619,-1.29642104,-1.41335307
2.89445643

>  <Name>
ligand

>  <RI>
0

>  <Rbt.Current_Directory>
/home/itssahil/PROJECTS/Mol_Feturizer/New_Systems/rnas/3F2T

>  <Rbt.Executable>
rbdock ($Id: //depot/dev/client3/rdock/2013.1/src/exe/rbdock.cxx#4 $)

>  <Rbt.Library>
libRbt.so (2013.1, Build901 2013/11/27)

>  <Rbt.Parameter_File>
/export/apps/rDock/src/rDock_2013.1_src/data/scripts/dock_solv.prm

>  <Rbt.Receptor>
prm/pocket_docking_6.prm

>  <SCORE>
-27.8413

>  <SCORE.INTER>
-31.9523

>  <SCORE.INTER.CONST>
1

>  <SCORE.INTER.POLAR>
0

>  <SCORE.INTER.ROT>
7

>  <SCORE.INTER.SOLV>
21.6976

>  <SCORE.INTER.VDW>
-36.8007

>  <SCORE.INTER.norm>
-1.03072

>  <SCORE.INTRA>
4.11092

>  <SCORE.INTRA.DIHEDRAL>
4.27076

>  <SCORE.INTRA.DIHEDRAL.0>
4.64198

>  <SCORE.INTRA.POLAR>
0

>  <SCORE.INTRA.POLAR.0>
0

>  <SCORE.INTRA.REPUL>
0

>  <SCORE.INTRA.REPUL.0>
0

>  <SCORE.INTRA.SOLV>
0.260264

>  <SCORE.INTRA.SOLV.lig_0>
-49.3611

>  <SCORE.INTRA.VDW>
1.84541

>  <SCORE.INTRA.VDW.0>
-1.91858

>  <SCORE.INTRA.norm>
0.13261

>  <SCORE.RESTR>
0

>  <SCORE.RESTR.CAVITY>
0

>  <SCORE.RESTR.norm>
0

>  <SCORE.SYSTEM>
0

>  <SCORE.SYSTEM.CONST>
0

>  <SCORE.SYSTEM.DIHEDRAL>
0

>  <SCORE.SYSTEM.SOLV>
0

>  <SCORE.SYSTEM.norm>
0

>  <SCORE.heavy>
31

>  <SCORE.norm>
-0.898107

>  <RMSD>
1.440

$$$$
ligand
 OpenBabel11021811473D
libRbt.so/2013.1/901 2013/11/27
 31 33  0  0  0  0  0  0  0  0999 V2000
   28.4584   42.0674   16.7636 P   0  0  1  0  0  0  0  0  0  0  0  0
   28.6073   42.7707   15.4383 O   0  0  0  0  0  0  0  0  0  0  0  0
   29.4835   40.9676   16.8437 O   0  5  0  0  0  0  0  0  0  0  0  0
   28.6603   43.1109   17.8277 O   0  0  0  0  0  0  0  0  0  0  0  0
   26.5009   41.1755   18.2612 C   0  0  0  0  0  0  0  0  0  0  0  0
   27.0082   41.4079   16.9637 O   0  0  0  0  0  0  0  0  0  0  0  0
   27.2440   39.9986   18.8878 C   0  0  1  0  0  0  0  0  0  0  0  0
   26.8144   39.8189   20.2227 O   0  0  0  0  0  0  0  0  0  0  0  0
   26.9627   38.7286   18.1024 C   0  0  1  0  0  0  0  0  0  0  0  0
   28.0212   38.5172   17.2067 O   0  0  0  0  0  0  0  0  0  0  0  0
   26.8233   37.5074   18.9957 C   0  0  1  0  0  0  0  0  0  0  0  0
   26.4403   36.4201   18.1975 O   0  0  0  0  0  0  0  0  0  0  0  0
   28.1398   37.1844   19.6827 C   0  0  0  0  0  0  0  0  0  0  0  0
   28.2214   34.4028   19.2636 N   0  0  0  0  0  0  0  0  0  0  0  0
   28.2142   33.0512   18.9950 C   0  0  0  0  0  0  0  0  0  0  0  0
   28.4857   32.6456   17.8687 O   0  0  0  0  0  0  0  0  0  0  0  0
   27.9014   32.1454   19.9827 N   0  0  0  0  0  0  0  0  0  0  0  0
   27.6024   32.5835   21.2581 C   0  0  0  0  0  0  0  0  0  0  0  0
   27.6064   33.9454   21.5382 C   0  0  1  0  0  0  0  0  0  0  0  0
   27.3413   31.7670   22.1439 O   0  0  0  0  0  0  0  0  0  0  0  0
   27.3132   35.7443   23.0867 C   0  0  2  0  0  0  0  0  0  0  0  0
   27.3068   34.3904   22.8102 N   0  0  0  0  0  0  0  0  0  0  0  0
   27.0100   36.1927   24.3727 C   0  0  0  0  0  0  0  0  0  0  0  0
   27.0085   37.5526   24.6602 C   0  0  1  0  0  0  0  0  0  0  0  0
   26.6751   37.9968   26.0493 C   0  0  0  0  0  0  0  0  0  0  0  0
   27.3187   38.4783   23.6525 C   0  0  1  0  0  0  0  0  0  0  0  0
   27.3371   39.9575   23.9244 C   0  0  0  0  0  0  0  0  0  0  0  0
   27.6192   38.0278   22.3697 C   0  0  0  0  0  0  0  0  0  0  0  0
   27.6169   36.6624   22.0787 C   0  0  1  0  0  0  0  0  0  0  0  0
   27.9147   34.8569   20.5304 C   0  0  1  0  0  0  0  0  0  0  0  0
   27.9137   36.2119   20.8011 N   0  0  0  0  0  0  0  0  0  0  0  0
  1  2  1  6  0  0  0
  1  3  1  0  0  0  0
  1  4  2  0  0  0  0
  1  6  1  0  0  0  0
  5  6  1  0  0  0  0
  7  5  1  6  0  0  0
  7  8  1  0  0  0  0
  7  9  1  0  0  0  0
  9 10  1  6  0  0  0
  9 11  1  0  0  0  0
 11 12  1  6  0  0  0
 11 13  1  0  0  0  0
 13 31  1  0  0  0  0
 14 15  1  0  0  0  0
 15 16  2  0  0  0  0
 15 17  1  0  0  0  0
 17 18  1  0  0  0  0
 18 20  2  0  0  0  0
 19 18  1  1  0  0  0
 19 22  1  0  0  0  0
 19 30  1  0  0  0  0
 21 23  1  6  0  0  0
 21 29  1  0  0  0  0
 21 22  1  0  0  0  0
 23 24  1  0  0  0  0
 24 25  1  1  0  0  0
 24 26  1  0  0  0  0
 26 27  1  1  0  0  0
 26 28  1  0  0  0  0
 29 28  1  1  0  0  0
 29 31  1  0  0  0  0
 30 14  1  1  0  0  0
 30 31  1  0  0  0  0
M  CHG  1   3  -1
M  END
>  <CHROM.1>
-72.96141441,-155.43999204,175.68707989,97.29740450,174.40083046,165.96554646
-89.06338136,27.64714072,37.60131041,20.00623326,-1.15081076,-1.41859186
2.99075745

>  <Name>
ligand

>  <RI>
0

>  <Rbt.Current_Directory>
/home/itssahil/PROJECTS/Mol_Feturizer/New_Systems/rnas/3F2T

>  <Rbt.Executable>
rbdock ($Id: //depot/dev/client3/rdock/2013.1/src/exe/rbdock.cxx#4 $)

>  <Rbt.Library>
libRbt.so (2013.1, Build901 2013/11/27)

>  <Rbt.Parameter_File>
/export/apps/rDock/src/rDock_2013.1_src/data/scripts/dock_solv.prm

>  <Rbt.Receptor>
prm/pocket_docking_3.prm

>  <SCORE>
-29.6529

>  <SCORE.INTER>
-32.928

>  <SCORE.INTER.CONST>
1

>  <SCORE.INTER.POLAR>
0

>  <SCORE.INTER.ROT>
7

>  <SCORE.INTER.SOLV>
17.9108

>  <SCORE.INTER.VDW>
-36.1889

>  <SCORE.INTER.norm>
-1.06219

>  <SCORE.INTRA>
3.26779

>  <SCORE.INTRA.DIHEDRAL>
2.60569

>  <SCORE.INTRA.DIHEDRAL.0>
4.64198

>  <SCORE.INTRA.POLAR>
0

>  <SCORE.INTRA.POLAR.0>
0

>  <SCORE.INTRA.REPUL>
0

>  <SCORE.INTRA.REPUL.0>
0

>  <SCORE.INTRA.SOLV>
3.54181

>  <SCORE.INTRA.SOLV.lig_0>
-49.3611

>  <SCORE.INTRA.VDW>
0.194046

>  <SCORE.INTRA.VDW.0>
-1.91858

>  <SCORE.INTRA.norm>
0.105413

>  <SCORE.RESTR>
0.00732902

>  <SCORE.RESTR.CAVITY>
0.00732902

>  <SCORE.RESTR.norm>
0.00023642

>  <SCORE.SYSTEM>
0

>  <SCORE.SYSTEM.CONST>
0

>  <SCORE.SYSTEM.DIHEDRAL>
0

>  <SCORE.SYSTEM.SOLV>
0

>  <SCORE.SYSTEM.norm>
0

>  <SCORE.heavy>
31

>  <SCORE.norm>
-0.956545

>  <RMSD>
1.447

$$$$
ligand
 OpenBabel11021811473D
libRbt.so/2013.1/901 2013/11/27
 31 33  0  0  0  0  0  0  0  0999 V2000
   25.8180   43.7079   16.9763 P   0  0  1  0  0  0  0  0  0  0  0  0
   24.3644   43.9700   17.2788 O   0  0  0  0  0  0  0  0  0  0  0  0
   25.9186   43.0500   15.6257 O   0  5  0  0  0  0  0  0  0  0  0  0
   26.5106   45.0426   17.0110 O   0  0  0  0  0  0  0  0  0  0  0  0
   26.0517   41.4211   18.2357 C   0  0  0  0  0  0  0  0  0  0  0  0
   26.5176   42.7416   18.0510 O   0  0  0  0  0  0  0  0  0  0  0  0
   26.9545   40.4580   17.4691 C   0  0  1  0  0  0  0  0  0  0  0  0
   27.4999   41.1112   16.3401 O   0  0  0  0  0  0  0  0  0  0  0  0
   28.0887   39.9856   18.3632 C   0  0  1  0  0  0  0  0  0  0  0  0
   28.6614   41.1060   18.9828 O   0  0  0  0  0  0  0  0  0  0  0  0
   27.6226   39.0154   19.4356 C   0  0  1  0  0  0  0  0  0  0  0  0
   26.9571   37.9527   18.8081 O   0  0  0  0  0  0  0  0  0  0  0  0
   28.8018   38.4712   20.2247 C   0  0  0  0  0  0  0  0  0  0  0  0
   28.6939   35.7939   19.3643 N   0  0  0  0  0  0  0  0  0  0  0  0
   28.6036   34.5080   18.8773 C   0  0  0  0  0  0  0  0  0  0  0  0
   28.9813   34.2530   17.7375 O   0  0  0  0  0  0  0  0  0  0  0  0
   28.0885   33.5001   19.6602 N   0  0  0  0  0  0  0  0  0  0  0  0
   27.6672   33.7671   20.9483 C   0  0  0  0  0  0  0  0  0  0  0  0
   27.7538   35.0618   21.4479 C   0  0  1  0  0  0  0  0  0  0  0  0
   27.2241   32.8572   21.6520 O   0  0  0  0  0  0  0  0  0  0  0  0
   27.4217   36.6232   23.2287 C   0  0  2  0  0  0  0  0  0  0  0  0
   27.3329   35.3361   22.7338 N   0  0  0  0  0  0  0  0  0  0  0  0
   26.9958   36.8992   24.5285 C   0  0  0  0  0  0  0  0  0  0  0  0
   27.0758   38.1912   25.0344 C   0  0  1  0  0  0  0  0  0  0  0  0
   26.6065   38.4505   26.4310 C   0  0  0  0  0  0  0  0  0  0  0  0
   27.5926   39.2219   24.2349 C   0  0  1  0  0  0  0  0  0  0  0  0
   27.7048   40.6316   24.7474 C   0  0  0  0  0  0  0  0  0  0  0  0
   28.0153   38.9438   22.9377 C   0  0  0  0  0  0  0  0  0  0  0  0
   27.9314   37.6472   22.4270 C   0  0  1  0  0  0  0  0  0  0  0  0
   28.2675   36.0788   20.6457 C   0  0  1  0  0  0  0  0  0  0  0  0
   28.3498   37.3686   21.1345 N   0  0  0  0  0  0  0  0  0  0  0  0
  1  2  1  1  0  0  0
  1  3  1  0  0  0  0
  1  4  2  0  0  0  0
  1  6  1  0  0  0  0
  5  6  1  0  0  0  0
  7  5  1  1  0  0  0
  7  8  1  0  0  0  0
  7  9  1  0  0  0  0
  9 10  1  1  0  0  0
  9 11  1  0  0  0  0
 11 12  1  6  0  0  0
 11 13  1  0  0  0  0
 13 31  1  0  0  0  0
 14 15  1  0  0  0  0
 15 16  2  0  0  0  0
 15 17  1  0  0  0  0
 17 18  1  0  0  0  0
 18 20  2  0  0  0  0
 19 18  1  1  0  0  0
 19 22  1  0  0  0  0
 19 30  1  0  0  0  0
 21 23  1  6  0  0  0
 21 29  1  0  0  0  0
 21 22  1  0  0  0  0
 23 24  1  0  0  0  0
 24 25  1  1  0  0  0
 24 26  1  0  0  0  0
 26 27  1  1  0  0  0
 26 28  1  0  0  0  0
 29 28  1  1  0  0  0
 29 31  1  0  0  0  0
 30 14  1  1  0  0  0
 30 31  1  0  0  0  0
M  CHG  1   3  -1
M  END
>  <CHROM.1>
99.51221685,61.44401919,-29.34339734,-48.33760632,55.00144574,-171.55076688
-90.18693277,27.32659303,38.83255200,20.06137065,2.44232682,1.34822110,-1.44823736

>  <Name>
ligand

>  <RI>
0

>  <Rbt.Current_Directory>
/home/itssahil/PROJECTS/Mol_Feturizer/New_Systems/rnas/3F2T

>  <Rbt.Executable>
rbdock ($Id: //depot/dev/client3/rdock/2013.1/src/exe/rbdock.cxx#4 $)

>  <Rbt.Library>
libRbt.so (2013.1, Build901 2013/11/27)

>  <Rbt.Parameter_File>
/export/apps/rDock/src/rDock_2013.1_src/data/scripts/dock_solv.prm

>  <Rbt.Receptor>
prm/pocket_docking_3.prm

>  <SCORE>
-23.4605

>  <SCORE.INTER>
-27.8302

>  <SCORE.INTER.CONST>
1

>  <SCORE.INTER.POLAR>
0

>  <SCORE.INTER.ROT>
7

>  <SCORE.INTER.SOLV>
18.3133

>  <SCORE.INTER.VDW>
-32.9245

>  <SCORE.INTER.norm>
-0.897748

>  <SCORE.INTRA>
4.36972

>  <SCORE.INTRA.DIHEDRAL>
5.31497

>  <SCORE.INTRA.DIHEDRAL.0>
4.64198

>  <SCORE.INTRA.POLAR>
0

>  <SCORE.INTRA.POLAR.0>
0

>  <SCORE.INTRA.REPUL>
0

>  <SCORE.INTRA.REPUL.0>
0

>  <SCORE.INTRA.SOLV>
2.11258

>  <SCORE.INTRA.SOLV.lig_0>
-49.3611

>  <SCORE.INTRA.VDW>
0.655948

>  <SCORE.INTRA.VDW.0>
-1.91858

>  <SCORE.INTRA.norm>
0.140959

>  <SCORE.RESTR>
0

>  <SCORE.RESTR.CAVITY>
0

>  <SCORE.RESTR.norm>
0

>  <SCORE.SYSTEM>
0

>  <SCORE.SYSTEM.CONST>
0

>  <SCORE.SYSTEM.DIHEDRAL>
0

>  <SCORE.SYSTEM.SOLV>
0

>  <SCORE.SYSTEM.norm>
0

>  <SCORE.heavy>
31

>  <SCORE.norm>
-0.756789

>  <RMSD>
1.449

$$$$
ligand
 OpenBabel11021811473D
libRbt.so/2013.1/901 2013/11/27
 31 33  0  0  0  0  0  0  0  0999 V2000
   27.8851   41.9112   17.0048 P   0  0  1  0  0  0  0  0  0  0  0  0
   27.2937   40.5811   16.6117 O   0  0  0  0  0  0  0  0  0  0  0  0
   29.3063   41.6939   17.4519 O   0  5  0  0  0  0  0  0  0  0  0  0
   27.8003   42.7939   15.7901 O   0  0  0  0  0  0  0  0  0  0  0  0
   27.3108   42.2193   19.5437 C   0  0  0  0  0  0  0  0  0  0  0  0
   27.0907   42.6195   18.2071 O   0  0  0  0  0  0  0  0  0  0  0  0
   26.7196   40.8280   19.7554 C   0  0  1  0  0  0  0  0  0  0  0  0
   25.6174   40.6409   18.8899 O   0  0  0  0  0  0  0  0  0  0  0  0
   27.7667   39.7676   19.4591 C   0  0  1  0  0  0  0  0  0  0  0  0
   28.8398   39.9438   20.3450 O   0  0  0  0  0  0  0  0  0  0  0  0
   27.2286   38.3551   19.6136 C   0  0  1  0  0  0  0  0  0  0  0  0
   26.4614   38.0502   18.4803 O   0  0  0  0  0  0  0  0  0  0  0  0
   28.3638   37.3519   19.7340 C   0  0  0  0  0  0  0  0  0  0  0  0
   28.3772   34.5851   19.2197 N   0  0  0  0  0  0  0  0  0  0  0  0
   28.3399   33.2446   18.9030 C   0  0  0  0  0  0  0  0  0  0  0  0
   28.6500   32.8691   17.7762 O   0  0  0  0  0  0  0  0  0  0  0  0
   27.9535   32.3162   19.8426 N   0  0  0  0  0  0  0  0  0  0  0  0
   27.6100   32.7200   21.1180 C   0  0  0  0  0  0  0  0  0  0  0  0
   27.6439   34.0706   21.4466 C   0  0  1  0  0  0  0  0  0  0  0  0
   27.2828   31.8827   21.9615 O   0  0  0  0  0  0  0  0  0  0  0  0
   27.3364   35.8240   23.0436 C   0  0  2  0  0  0  0  0  0  0  0  0
   27.3001   34.4814   22.7189 N   0  0  0  0  0  0  0  0  0  0  0  0
   26.9885   36.2378   24.3299 C   0  0  0  0  0  0  0  0  0  0  0  0
   27.0165   37.5863   24.6656 C   0  0  1  0  0  0  0  0  0  0  0  0
   26.6336   37.9934   26.0533 C   0  0  0  0  0  0  0  0  0  0  0  0
   27.4017   38.5353   23.7066 C   0  0  1  0  0  0  0  0  0  0  0  0
   27.4541   40.0029   24.0317 C   0  0  0  0  0  0  0  0  0  0  0  0
   27.7467   38.1194   22.4233 C   0  0  0  0  0  0  0  0  0  0  0  0
   27.7149   36.7657   22.0838 C   0  0  1  0  0  0  0  0  0  0  0  0
   28.0268   35.0055   20.4869 C   0  0  1  0  0  0  0  0  0  0  0  0
   28.0560   36.3497   20.8056 N   0  0  0  0  0  0  0  0  0  0  0  0
  1  2  1  6  0  0  0
  1  3  1  0  0  0  0
  1  4  2  0  0  0  0
  1  6  1  0  0  0  0
  5  6  1  0  0  0  0
  7  5  1  6  0  0  0
  7  8  1  0  0  0  0
  7  9  1  0  0  0  0
  9 10  1  1  0  0  0
  9 11  1  0  0  0  0
 11 12  1  6  0  0  0
 11 13  1  0  0  0  0
 13 31  1  0  0  0  0
 14 15  1  0  0  0  0
 15 16  2  0  0  0  0
 15 17  1  0  0  0  0
 17 18  1  0  0  0  0
 18 20  2  0  0  0  0
 19 18  1  1  0  0  0
 19 22  1  0  0  0  0
 19 30  1  0  0  0  0
 21 23  1  6  0  0  0
 21 29  1  0  0  0  0
 21 22  1  0  0  0  0
 23 24  1  0  0  0  0
 24 25  1  1  0  0  0
 24 26  1  0  0  0  0
 26 27  1  1  0  0  0
 26 28  1  0  0  0  0
 29 28  1  1  0  0  0
 29 31  1  0  0  0  0
 30 14  1  1  0  0  0
 30 31  1  0  0  0  0
M  CHG  1   3  -1
M  END
>  <CHROM.1>
-70.38800538,79.85600136,-29.39484863,61.04779351,77.58295117,137.24761340
-53.21255380,27.59920325,37.88430316,20.23343272,-1.60604033,-1.42290098
2.62763097

>  <Name>
ligand

>  <RI>
0

>  <Rbt.Current_Directory>
/home/itssahil/PROJECTS/Mol_Feturizer/New_Systems/rnas/3F2T

>  <Rbt.Executable>
rbdock ($Id: //depot/dev/client3/rdock/2013.1/src/exe/rbdock.cxx#4 $)

>  <Rbt.Library>
libRbt.so (2013.1, Build901 2013/11/27)

>  <Rbt.Parameter_File>
/export/apps/rDock/src/rDock_2013.1_src/data/scripts/dock_solv.prm

>  <Rbt.Receptor>
prm/pocket_docking_4.prm

>  <SCORE>
-28.3808

>  <SCORE.INTER>
-33.1221

>  <SCORE.INTER.CONST>
1

>  <SCORE.INTER.POLAR>
0

>  <SCORE.INTER.ROT>
7

>  <SCORE.INTER.SOLV>
17.2082

>  <SCORE.INTER.VDW>
-36.0841

>  <SCORE.INTER.norm>
-1.06845

>  <SCORE.INTRA>
4.74127

>  <SCORE.INTRA.DIHEDRAL>
5.72452

>  <SCORE.INTRA.DIHEDRAL.0>
4.64198

>  <SCORE.INTRA.POLAR>
0

>  <SCORE.INTRA.POLAR.0>
0

>  <SCORE.INTRA.REPUL>
0

>  <SCORE.INTRA.REPUL.0>
0

>  <SCORE.INTRA.SOLV>
3.43506

>  <SCORE.INTRA.SOLV.lig_0>
-49.3611

>  <SCORE.INTRA.VDW>
0.161483

>  <SCORE.INTRA.VDW.0>
-1.91858

>  <SCORE.INTRA.norm>
0.152944

>  <SCORE.RESTR>
0

>  <SCORE.RESTR.CAVITY>
0

>  <SCORE.RESTR.norm>
0

>  <SCORE.SYSTEM>
0

>  <SCORE.SYSTEM.CONST>
0

>  <SCORE.SYSTEM.DIHEDRAL>
0

>  <SCORE.SYSTEM.SOLV>
0

>  <SCORE.SYSTEM.norm>
0

>  <SCORE.heavy>
31

>  <SCORE.norm>
-0.91551

>  <RMSD>
1.456

$$$$
ligand
 OpenBabel11021811473D
libRbt.so/2013.1/901 2013/11/27
 31 33  0  0  0  0  0  0  0  0999 V2000
   26.5529   42.9466   16.7835 P   0  0  1  0  0  0  0  0  0  0  0  0
   25.1088   42.7561   16.3945 O   0  0  0  0  0  0  0  0  0  0  0  0
   27.4100   42.7662   15.5588 O   0  5  0  0  0  0  0  0  0  0  0  0
   26.6636   44.3332   17.3552 O   0  0  0  0  0  0  0  0  0  0  0  0
   28.3150   42.0386   18.4985 C   0  0  0  0  0  0  0  0  0  0  0  0
   27.0472   41.8959   17.8926 O   0  0  0  0  0  0  0  0  0  0  0  0
   28.4991   40.9407   19.5430 C   0  0  1  0  0  0  0  0  0  0  0  0
   27.2882   40.7419   20.2451 O   0  0  0  0  0  0  0  0  0  0  0  0
   28.8973   39.6403   18.8655 C   0  0  1  0  0  0  0  0  0  0  0  0
   30.1794   39.7989   18.3192 O   0  0  0  0  0  0  0  0  0  0  0  0
   28.9142   38.4623   19.8251 C   0  0  1  0  0  0  0  0  0  0  0  0
   29.4008   38.9093   21.0617 O   0  0  0  0  0  0  0  0  0  0  0  0
   27.5168   37.8951   20.0127 C   0  0  0  0  0  0  0  0  0  0  0  0
   27.7092   35.1381   19.4819 N   0  0  0  0  0  0  0  0  0  0  0  0
   27.7470   33.7972   19.1665 C   0  0  0  0  0  0  0  0  0  0  0  0
   27.8771   33.4427   17.9985 O   0  0  0  0  0  0  0  0  0  0  0  0
   27.6372   32.8449   20.1540 N   0  0  0  0  0  0  0  0  0  0  0  0
   27.4994   33.2259   21.4745 C   0  0  0  0  0  0  0  0  0  0  0  0
   27.4595   34.5766   21.8022 C   0  0  1  0  0  0  0  0  0  0  0  0
   27.4205   32.3691   22.3572 O   0  0  0  0  0  0  0  0  0  0  0  0
   27.2826   36.3073   23.4432 C   0  0  2  0  0  0  0  0  0  0  0  0
   27.3201   34.9644   23.1198 N   0  0  0  0  0  0  0  0  0  0  0  0
   27.1416   36.6979   24.7752 C   0  0  0  0  0  0  0  0  0  0  0  0
   27.0975   38.0460   25.1110 C   0  0  1  0  0  0  0  0  0  0  0  0
   26.9418   38.4275   26.5491 C   0  0  0  0  0  0  0  0  0  0  0  0
   27.2005   39.0185   24.1049 C   0  0  1  0  0  0  0  0  0  0  0  0
   27.1664   40.4873   24.4268 C   0  0  0  0  0  0  0  0  0  0  0  0
   27.3395   38.6255   22.7763 C   0  0  0  0  0  0  0  0  0  0  0  0
   27.3797   37.2718   22.4374 C   0  0  1  0  0  0  0  0  0  0  0  0
   27.5615   35.5348   20.7957 C   0  0  1  0  0  0  0  0  0  0  0  0
   27.5157   36.8785   21.1146 N   0  0  0  0  0  0  0  0  0  0  0  0
  1  2  1  6  0  0  0
  1  3  1  0  0  0  0
  1  4  2  0  0  0  0
  1  6  1  0  0  0  0
  5  6  1  0  0  0  0
  7  5  1  6  0  0  0
  7  8  1  0  0  0  0
  7  9  1  0  0  0  0
  9 10  1  1  0  0  0
  9 11  1  0  0  0  0
 11 12  1  1  0  0  0
 11 13  1  0  0  0  0
 13 31  1  0  0  0  0
 14 15  1  0  0  0  0
 15 16  2  0  0  0  0
 15 17  1  0  0  0  0
 17 18  1  0  0  0  0
 18 20  2  0  0  0  0
 19 18  1  1  0  0  0
 19 22  1  0  0  0  0
 19 30  1  0  0  0  0
 21 23  1  6  0  0  0
 21 29  1  0  0  0  0
 21 22  1  0  0  0  0
 23 24  1  0  0  0  0
 24 25  1  1  0  0  0
 24 26  1  0  0  0  0
 26 27  1  1  0  0  0
 26 28  1  0  0  0  0
 29 28  1  1  0  0  0
 29 31  1  0  0  0  0
 30 14  1  1  0  0  0
 30 31  1  0  0  0  0
M  CHG  1   3  -1
M  END
>  <CHROM.1>
177.89649323,-171.70923733,-39.97489123,67.17108388,-37.43868209,-171.31934623
84.80932054,27.54440095,38.41177198,20.40503802,-2.03923408,-1.48003573,2.09600446

>  <Name>
ligand

>  <RI>
0

>  <Rbt.Current_Directory>
/home/itssahil/PROJECTS/Mol_Feturizer/New_Systems/rnas/3F2T

>  <Rbt.Executable>
rbdock ($Id: //depot/dev/client3/rdock/2013.1/src/exe/rbdock.cxx#4 $)

>  <Rbt.Library>
libRbt.so (2013.1, Build901 2013/11/27)

>  <Rbt.Parameter_File>
/export/apps/rDock/src/rDock_2013.1_src/data/scripts/dock_solv.prm

>  <Rbt.Receptor>
prm/pocket_docking_4.prm

>  <SCORE>
-26.6206

>  <SCORE.INTER>
-27.6604

>  <SCORE.INTER.CONST>
1

>  <SCORE.INTER.POLAR>
0

>  <SCORE.INTER.ROT>
7

>  <SCORE.INTER.SOLV>
18.8637

>  <SCORE.INTER.VDW>
-32.9949

>  <SCORE.INTER.norm>
-0.892271

>  <SCORE.INTRA>
1.03984

>  <SCORE.INTRA.DIHEDRAL>
0.252462

>  <SCORE.INTRA.DIHEDRAL.0>
4.64198

>  <SCORE.INTRA.POLAR>
0

>  <SCORE.INTRA.POLAR.0>
0

>  <SCORE.INTRA.REPUL>
0

>  <SCORE.INTRA.REPUL.0>
0

>  <SCORE.INTRA.SOLV>
0.637737

>  <SCORE.INTRA.SOLV.lig_0>
-49.3611

>  <SCORE.INTRA.VDW>
0.594736

>  <SCORE.INTRA.VDW.0>
-1.91858

>  <SCORE.INTRA.norm>
0.0335431

>  <SCORE.RESTR>
0

>  <SCORE.RESTR.CAVITY>
0

>  <SCORE.RESTR.norm>
0

>  <SCORE.SYSTEM>
0

>  <SCORE.SYSTEM.CONST>
0

>  <SCORE.SYSTEM.DIHEDRAL>
0

>  <SCORE.SYSTEM.SOLV>
0

>  <SCORE.SYSTEM.norm>
0

>  <SCORE.heavy>
31

>  <SCORE.norm>
-0.858728

>  <RMSD>
1.464

$$$$
ligand
 OpenBabel11021811473D
libRbt.so/2013.1/901 2013/11/27
 31 33  0  0  0  0  0  0  0  0999 V2000
   27.0983   42.7016   17.4997 P   0  0  1  0  0  0  0  0  0  0  0  0
   26.9237   42.6981   18.9972 O   0  0  0  0  0  0  0  0  0  0  0  0
   26.0503   41.8089   16.8899 O   0  5  0  0  0  0  0  0  0  0  0  0
   26.9557   44.1312   17.0547 O   0  0  0  0  0  0  0  0  0  0  0  0
   28.7702   40.7782   16.8865 C   0  0  0  0  0  0  0  0  0  0  0  0
   28.5381   42.1634   17.0352 O   0  0  0  0  0  0  0  0  0  0  0  0
   28.6670   40.1022   18.2512 C   0  0  1  0  0  0  0  0  0  0  0  0
   27.3098   40.0085   18.6361 O   0  0  0  0  0  0  0  0  0  0  0  0
   29.2601   38.7048   18.1852 C   0  0  1  0  0  0  0  0  0  0  0  0
   30.6174   38.8143   17.8492 O   0  0  0  0  0  0  0  0  0  0  0  0
   29.1384   37.9552   19.5013 C   0  0  1  0  0  0  0  0  0  0  0  0
   29.5378   38.8140   20.5352 O   0  0  0  0  0  0  0  0  0  0  0  0
   27.7047   37.5133   19.7436 C   0  0  0  0  0  0  0  0  0  0  0  0
   27.8913   34.7443   19.2771 N   0  0  0  0  0  0  0  0  0  0  0  0
   27.9285   33.3969   18.9910 C   0  0  0  0  0  0  0  0  0  0  0  0
   28.0990   33.0169   17.8363 O   0  0  0  0  0  0  0  0  0  0  0  0
   27.7731   32.4664   19.9930 N   0  0  0  0  0  0  0  0  0  0  0  0
   27.5895   32.8759   21.2993 C   0  0  0  0  0  0  0  0  0  0  0  0
   27.5498   34.2335   21.5975 C   0  0  1  0  0  0  0  0  0  0  0  0
   27.4696   32.0384   22.1958 O   0  0  0  0  0  0  0  0  0  0  0  0
   27.3276   35.9995   23.1947 C   0  0  2  0  0  0  0  0  0  0  0  0
   27.3648   34.6498   22.9006 N   0  0  0  0  0  0  0  0  0  0  0  0
   27.1404   36.4190   24.5122 C   0  0  0  0  0  0  0  0  0  0  0  0
   27.0962   37.7741   24.8183 C   0  0  1  0  0  0  0  0  0  0  0  0
   26.8903   38.1868   26.2414 C   0  0  0  0  0  0  0  0  0  0  0  0
   27.2457   38.7245   23.7970 C   0  0  1  0  0  0  0  0  0  0  0  0
   27.2132   40.2000   24.0872 C   0  0  0  0  0  0  0  0  0  0  0  0
   27.4307   38.3027   22.4830 C   0  0  0  0  0  0  0  0  0  0  0  0
   27.4711   36.9420   22.1737 C   0  0  1  0  0  0  0  0  0  0  0  0
   27.6983   35.1695   20.5760 C   0  0  1  0  0  0  0  0  0  0  0  0
   27.6530   36.5200   20.8653 N   0  0  0  0  0  0  0  0  0  0  0  0
  1  2  1  1  0  0  0
  1  3  1  0  0  0  0
  1  4  2  0  0  0  0
  1  6  1  0  0  0  0
  5  6  1  0  0  0  0
  7  5  1  6  0  0  0
  7  8  1  0  0  0  0
  7  9  1  0  0  0  0
  9 10  1  1  0  0  0
  9 11  1  0  0  0  0
 11 12  1  1  0  0  0
 11 13  1  0  0  0  0
 13 31  1  0  0  0  0
 14 15  1  0  0  0  0
 15 16  2  0  0  0  0
 15 17  1  0  0  0  0
 17 18  1  0  0  0  0
 18 20  2  0  0  0  0
 19 18  1  1  0  0  0
 19 22  1  0  0  0  0
 19 30  1  0  0  0  0
 21 23  1  6  0  0  0
 21 29  1  0  0  0  0
 21 22  1  0  0  0  0
 23 24  1  0  0  0  0
 24 25  1  1  0  0  0
 24 26  1  0  0  0  0
 26 27  1  1  0  0  0
 26 28  1  0  0  0  0
 29 28  1  1  0  0  0
 29 31  1  0  0  0  0
 30 14  1  1  0  0  0
 30 31  1  0  0  0  0
M  CHG  1   3  -1
M  END
>  <CHROM.1>
-65.51219049,84.47930738,74.83457769,61.71343291,-46.36154653,167.07187441
90.73924587,27.77105297,38.00128654,20.21026516,1.53512642,1.38265861,-0.47209575

>  <Name>
ligand

>  <RI>
0

>  <Rbt.Current_Directory>
/home/itssahil/PROJECTS/Mol_Feturizer/New_Systems/rnas/3F2T

>  <Rbt.Executable>
rbdock ($Id: //depot/dev/client3/rdock/2013.1/src/exe/rbdock.cxx#4 $)

>  <Rbt.Library>
libRbt.so (2013.1, Build901 2013/11/27)

>  <Rbt.Parameter_File>
/export/apps/rDock/src/rDock_2013.1_src/data/scripts/dock_solv.prm

>  <Rbt.Receptor>
prm/pocket_docking_3.prm

>  <SCORE>
-27.8989

>  <SCORE.INTER>
-29.8076

>  <SCORE.INTER.CONST>
1

>  <SCORE.INTER.POLAR>
0

>  <SCORE.INTER.ROT>
7

>  <SCORE.INTER.SOLV>
16.5282

>  <SCORE.INTER.VDW>
-33.6478

>  <SCORE.INTER.norm>
-0.961536

>  <SCORE.INTRA>
1.90875

>  <SCORE.INTRA.DIHEDRAL>
-0.338112

>  <SCORE.INTRA.DIHEDRAL.0>
4.64198

>  <SCORE.INTRA.POLAR>
0

>  <SCORE.INTRA.POLAR.0>
0

>  <SCORE.INTRA.REPUL>
0

>  <SCORE.INTRA.REPUL.0>
0

>  <SCORE.INTRA.SOLV>
2.29503

>  <SCORE.INTRA.SOLV.lig_0>
-49.3611

>  <SCORE.INTRA.VDW>
0.930292

>  <SCORE.INTRA.VDW.0>
-1.91858

>  <SCORE.INTRA.norm>
0.0615726

>  <SCORE.RESTR>
0

>  <SCORE.RESTR.CAVITY>
0

>  <SCORE.RESTR.norm>
0

>  <SCORE.SYSTEM>
0

>  <SCORE.SYSTEM.CONST>
0

>  <SCORE.SYSTEM.DIHEDRAL>
0

>  <SCORE.SYSTEM.SOLV>
0

>  <SCORE.SYSTEM.norm>
0

>  <SCORE.heavy>
31

>  <SCORE.norm>
-0.899963

>  <RMSD>
1.468

$$$$
ligand
 OpenBabel11021811473D
libRbt.so/2013.1/901 2013/11/27
 31 33  0  0  0  0  0  0  0  0999 V2000
   26.3184   43.0632   16.7137 P   0  0  1  0  0  0  0  0  0  0  0  0
   25.3025   42.0622   17.2027 O   0  0  0  0  0  0  0  0  0  0  0  0
   26.4335   42.9418   15.2173 O   0  5  0  0  0  0  0  0  0  0  0  0
   25.8231   44.4186   17.1373 O   0  0  0  0  0  0  0  0  0  0  0  0
   28.5384   41.6970   16.9889 C   0  0  0  0  0  0  0  0  0  0  0  0
   27.7778   42.8333   17.3426 O   0  0  0  0  0  0  0  0  0  0  0  0
   27.8904   40.4520   17.5893 C   0  0  1  0  0  0  0  0  0  0  0  0
   28.6242   39.3035   17.2134 O   0  0  0  0  0  0  0  0  0  0  0  0
   27.8741   40.5543   19.1053 C   0  0  1  0  0  0  0  0  0  0  0  0
   26.9854   41.5757   19.4716 O   0  0  0  0  0  0  0  0  0  0  0  0
   27.4391   39.2610   19.7739 C   0  0  1  0  0  0  0  0  0  0  0  0
   26.5029   38.6295   18.9429 O   0  0  0  0  0  0  0  0  0  0  0  0
   28.6248   38.3345   19.9864 C   0  0  0  0  0  0  0  0  0  0  0  0
   28.6897   35.6675   19.0904 N   0  0  0  0  0  0  0  0  0  0  0  0
   28.6829   34.3851   18.5860 C   0  0  0  0  0  0  0  0  0  0  0  0
   29.0839   34.1695   17.4461 O   0  0  0  0  0  0  0  0  0  0  0  0
   28.2258   33.3368   19.3516 N   0  0  0  0  0  0  0  0  0  0  0  0
   27.7795   33.5598   20.6396 C   0  0  0  0  0  0  0  0  0  0  0  0
   27.7819   34.8505   21.1567 C   0  0  1  0  0  0  0  0  0  0  0  0
   27.3887   32.6147   21.3278 O   0  0  0  0  0  0  0  0  0  0  0  0
   27.3405   36.3641   22.9550 C   0  0  2  0  0  0  0  0  0  0  0  0
   27.3354   35.0808   22.4426 N   0  0  0  0  0  0  0  0  0  0  0  0
   26.8889   36.5956   24.2547 C   0  0  0  0  0  0  0  0  0  0  0  0
   26.8849   37.8832   24.7780 C   0  0  1  0  0  0  0  0  0  0  0  0
   26.3902   38.0940   26.1741 C   0  0  0  0  0  0  0  0  0  0  0  0
   27.3424   38.9546   23.9962 C   0  0  1  0  0  0  0  0  0  0  0  0
   27.3630   40.3615   24.5279 C   0  0  0  0  0  0  0  0  0  0  0  0
   27.7909   38.7208   22.6989 C   0  0  0  0  0  0  0  0  0  0  0  0
   27.7914   37.4285   22.1707 C   0  0  1  0  0  0  0  0  0  0  0  0
   28.2371   35.9081   20.3720 C   0  0  1  0  0  0  0  0  0  0  0  0
   28.2356   37.1938   20.8781 N   0  0  0  0  0  0  0  0  0  0  0  0
  1  2  1  1  0  0  0
  1  3  1  0  0  0  0
  1  4  2  0  0  0  0
  1  6  1  0  0  0  0
  5  6  1  0  0  0  0
  7  5  1  6  0  0  0
  7  8  1  0  0  0  0
  7  9  1  0  0  0  0
  9 10  1  6  0  0  0
  9 11  1  0  0  0  0
 11 12  1  6  0  0  0
 11 13  1  0  0  0  0
 13 31  1  0  0  0  0
 14 15  1  0  0  0  0
 15 16  2  0  0  0  0
 15 17  1  0  0  0  0
 17 18  1  0  0  0  0
 18 20  2  0  0  0  0
 19 18  1  1  0  0  0
 19 22  1  0  0  0  0
 19 30  1  0  0  0  0
 21 23  1  6  0  0  0
 21 29  1  0  0  0  0
 21 22  1  0  0  0  0
 23 24  1  0  0  0  0
 24 25  1  1  0  0  0
 24 26  1  0  0  0  0
 26 27  1  1  0  0  0
 26 28  1  0  0  0  0
 29 28  1  1  0  0  0
 29 31  1  0  0  0  0
 30 14  1  1  0  0  0
 30 31  1  0  0  0  0
M  CHG  1   3  -1
M  END
>  <CHROM.1>
-69.76079935,68.74344934,178.51081139,68.23653254,-32.98484705,168.93309534
-60.49829437,27.45538449,38.58473148,19.90130580,2.04470797,1.33767924,-1.06220180

>  <Name>
ligand

>  <RI>
0

>  <Rbt.Current_Directory>
/home/itssahil/PROJECTS/Mol_Feturizer/New_Systems/rnas/3F2T

>  <Rbt.Executable>
rbdock ($Id: //depot/dev/client3/rdock/2013.1/src/exe/rbdock.cxx#4 $)

>  <Rbt.Library>
libRbt.so (2013.1, Build901 2013/11/27)

>  <Rbt.Parameter_File>
/export/apps/rDock/src/rDock_2013.1_src/data/scripts/dock_solv.prm

>  <Rbt.Receptor>
prm/pocket_docking_2.prm

>  <SCORE>
-27.6683

>  <SCORE.INTER>
-29.0101

>  <SCORE.INTER.CONST>
1

>  <SCORE.INTER.POLAR>
0

>  <SCORE.INTER.ROT>
7

>  <SCORE.INTER.SOLV>
17.5407

>  <SCORE.INTER.VDW>
-33.4536

>  <SCORE.INTER.norm>
-0.935809

>  <SCORE.INTRA>
1.33803

>  <SCORE.INTRA.DIHEDRAL>
0.0640423

>  <SCORE.INTRA.DIHEDRAL.0>
4.64198

>  <SCORE.INTRA.POLAR>
0

>  <SCORE.INTRA.POLAR.0>
0

>  <SCORE.INTRA.REPUL>
0

>  <SCORE.INTRA.REPUL.0>
0

>  <SCORE.INTRA.SOLV>
1.75615

>  <SCORE.INTRA.SOLV.lig_0>
-49.3611

>  <SCORE.INTRA.VDW>
0.427933

>  <SCORE.INTRA.VDW.0>
-1.91858

>  <SCORE.INTRA.norm>
0.0431622

>  <SCORE.RESTR>
0.00376885

>  <SCORE.RESTR.CAVITY>
0.00376885

>  <SCORE.RESTR.norm>
0.000121576

>  <SCORE.SYSTEM>
0

>  <SCORE.SYSTEM.CONST>
0

>  <SCORE.SYSTEM.DIHEDRAL>
0

>  <SCORE.SYSTEM.SOLV>
0

>  <SCORE.SYSTEM.norm>
0

>  <SCORE.heavy>
31

>  <SCORE.norm>
-0.892525

>  <RMSD>
1.473

$$$$
ligand
 OpenBabel11021811473D
libRbt.so/2013.1/901 2013/11/27
 31 33  0  0  0  0  0  0  0  0999 V2000
   25.9125   44.0115   15.9370 P   0  0  1  0  0  0  0  0  0  0  0  0
   24.9136   44.2066   14.8247 O   0  0  0  0  0  0  0  0  0  0  0  0
   27.2825   44.3654   15.4224 O   0  5  0  0  0  0  0  0  0  0  0  0
   25.4798   44.9085   17.0641 O   0  0  0  0  0  0  0  0  0  0  0  0
   26.8786   42.1308   17.4862 C   0  0  0  0  0  0  0  0  0  0  0  0
   25.9618   42.5003   16.4773 O   0  0  0  0  0  0  0  0  0  0  0  0
   26.7212   40.6426   17.7875 C   0  0  1  0  0  0  0  0  0  0  0  0
   26.9122   39.8931   16.6040 O   0  0  0  0  0  0  0  0  0  0  0  0
   27.7496   40.2095   18.8187 C   0  0  1  0  0  0  0  0  0  0  0  0
   27.6884   41.0943   19.9053 O   0  0  0  0  0  0  0  0  0  0  0  0
   27.5132   38.7955   19.3223 C   0  0  1  0  0  0  0  0  0  0  0  0
   27.3855   37.9488   18.2119 O   0  0  0  0  0  0  0  0  0  0  0  0
   28.6752   38.3235   20.1803 C   0  0  0  0  0  0  0  0  0  0  0  0
   28.6868   35.6476   19.3089 N   0  0  0  0  0  0  0  0  0  0  0  0
   28.6560   34.3613   18.8156 C   0  0  0  0  0  0  0  0  0  0  0  0
   29.0755   34.1245   17.6865 O   0  0  0  0  0  0  0  0  0  0  0  0
   28.1541   33.3328   19.5800 N   0  0  0  0  0  0  0  0  0  0  0  0
   27.6863   33.5796   20.8559 C   0  0  0  0  0  0  0  0  0  0  0  0
   27.7127   34.8745   21.3619 C   0  0  1  0  0  0  0  0  0  0  0  0
   27.2551   32.6518   21.5436 O   0  0  0  0  0  0  0  0  0  0  0  0
   27.2740   36.4160   23.1370 C   0  0  2  0  0  0  0  0  0  0  0  0
   27.2450   35.1286   22.6357 N   0  0  0  0  0  0  0  0  0  0  0  0
   26.8009   36.6715   24.4245 C   0  0  0  0  0  0  0  0  0  0  0  0
   26.8206   37.9635   24.9366 C   0  0  1  0  0  0  0  0  0  0  0  0
   26.3019   38.2004   26.3196 C   0  0  0  0  0  0  0  0  0  0  0  0
   27.3239   39.0149   24.1557 C   0  0  1  0  0  0  0  0  0  0  0  0
   27.3714   40.4255   24.6756 C   0  0  0  0  0  0  0  0  0  0  0  0
   27.7938   38.7571   22.8706 C   0  0  0  0  0  0  0  0  0  0  0  0
   27.7705   37.4605   22.3536 C   0  0  1  0  0  0  0  0  0  0  0  0
   28.2134   35.9121   20.5782 C   0  0  1  0  0  0  0  0  0  0  0  0
   28.2359   37.2021   21.0731 N   0  0  0  0  0  0  0  0  0  0  0  0
  1  2  1  6  0  0  0
  1  3  1  0  0  0  0
  1  4  2  0  0  0  0
  1  6  1  0  0  0  0
  5  6  1  0  0  0  0
  7  5  1  6  0  0  0
  7  8  1  0  0  0  0
  7  9  1  0  0  0  0
  9 10  1  1  0  0  0
  9 11  1  0  0  0  0
 11 12  1  6  0  0  0
 11 13  1  0  0  0  0
 13 31  1  0  0  0  0
 14 15  1  0  0  0  0
 15 16  2  0  0  0  0
 15 17  1  0  0  0  0
 17 18  1  0  0  0  0
 18 20  2  0  0  0  0
 19 18  1  1  0  0  0
 19 22  1  0  0  0  0
 19 30  1  0  0  0  0
 21 23  1  6  0  0  0
 21 29  1  0  0  0  0
 21 22  1  0  0  0  0
 23 24  1  0  0  0  0
 24 25  1  1  0  0  0
 24 26  1  0  0  0  0
 26 27  1  1  0  0  0
 26 28  1  0  0  0  0
 29 28  1  1  0  0  0
 29 31  1  0  0  0  0
 30 14  1  1  0  0  0
 30 31  1  0  0  0  0
M  CHG  1   3  -1
M  END
>  <CHROM.1>
-179.13384384,177.67042875,57.10794431,50.59662744,51.32554746,158.52525069
-92.24157305,27.25096542,38.77411514,19.81280514,2.29796993,1.34396474,-1.35075796

>  <Name>
ligand

>  <RI>
0

>  <Rbt.Current_Directory>
/home/itssahil/PROJECTS/Mol_Feturizer/New_Systems/rnas/3F2T

>  <Rbt.Executable>
rbdock ($Id: //depot/dev/client3/rdock/2013.1/src/exe/rbdock.cxx#4 $)

>  <Rbt.Library>
libRbt.so (2013.1, Build901 2013/11/27)

>  <Rbt.Parameter_File>
/export/apps/rDock/src/rDock_2013.1_src/data/scripts/dock_solv.prm

>  <Rbt.Receptor>
prm/pocket_docking_7.prm

>  <SCORE>
-29.7537

>  <SCORE.INTER>
-29.5493

>  <SCORE.INTER.CONST>
1

>  <SCORE.INTER.POLAR>
0

>  <SCORE.INTER.ROT>
7

>  <SCORE.INTER.SOLV>
20.4135

>  <SCORE.INTER.VDW>
-34.7707

>  <SCORE.INTER.norm>
-0.953202

>  <SCORE.INTRA>
-0.204406

>  <SCORE.INTRA.DIHEDRAL>
-1.42728

>  <SCORE.INTRA.DIHEDRAL.0>
4.64198

>  <SCORE.INTRA.POLAR>
0

>  <SCORE.INTRA.POLAR.0>
0

>  <SCORE.INTRA.REPUL>
0

>  <SCORE.INTRA.REPUL.0>
0

>  <SCORE.INTRA.SOLV>
0.0236495

>  <SCORE.INTRA.SOLV.lig_0>
-49.3611

>  <SCORE.INTRA.VDW>
0.497408

>  <SCORE.INTRA.VDW.0>
-1.91858

>  <SCORE.INTRA.norm>
-0.00659375

>  <SCORE.RESTR>
0

>  <SCORE.RESTR.CAVITY>
0

>  <SCORE.RESTR.norm>
0

>  <SCORE.SYSTEM>
0

>  <SCORE.SYSTEM.CONST>
0

>  <SCORE.SYSTEM.DIHEDRAL>
0

>  <SCORE.SYSTEM.SOLV>
0

>  <SCORE.SYSTEM.norm>
0

>  <SCORE.heavy>
31

>  <SCORE.norm>
-0.959796

>  <RMSD>
1.473

$$$$
ligand
 OpenBabel11021811473D
libRbt.so/2013.1/901 2013/11/27
 31 33  0  0  0  0  0  0  0  0999 V2000
   26.4590   42.9653   16.7458 P   0  0  1  0  0  0  0  0  0  0  0  0
   27.0799   42.7321   15.3917 O   0  0  0  0  0  0  0  0  0  0  0  0
   26.7865   44.3656   17.1917 O   0  5  0  0  0  0  0  0  0  0  0  0
   24.9792   42.7529   16.5812 O   0  0  0  0  0  0  0  0  0  0  0  0
   28.3053   42.0869   18.3860 C   0  0  0  0  0  0  0  0  0  0  0  0
   26.9992   41.9499   17.8663 O   0  0  0  0  0  0  0  0  0  0  0  0
   28.5284   41.0337   19.4682 C   0  0  1  0  0  0  0  0  0  0  0  0
   27.3565   40.8931   20.2464 O   0  0  0  0  0  0  0  0  0  0  0  0
   28.8621   39.6956   18.8303 C   0  0  1  0  0  0  0  0  0  0  0  0
   30.1326   39.7884   18.2432 O   0  0  0  0  0  0  0  0  0  0  0  0
   28.8663   38.5544   19.8334 C   0  0  1  0  0  0  0  0  0  0  0  0
   29.4086   39.0283   21.0364 O   0  0  0  0  0  0  0  0  0  0  0  0
   27.4557   38.0483   20.0855 C   0  0  0  0  0  0  0  0  0  0  0  0
   27.6586   35.2976   19.5265 N   0  0  0  0  0  0  0  0  0  0  0  0
   27.7013   33.9602   19.1976 C   0  0  0  0  0  0  0  0  0  0  0  0
   27.8289   33.6179   18.0257 O   0  0  0  0  0  0  0  0  0  0  0  0
   27.5993   32.9975   20.1758 N   0  0  0  0  0  0  0  0  0  0  0  0
   27.4645   33.3647   21.5006 C   0  0  0  0  0  0  0  0  0  0  0  0
   27.4197   34.7118   21.8419 C   0  0  1  0  0  0  0  0  0  0  0  0
   27.3925   32.4987   22.3749 O   0  0  0  0  0  0  0  0  0  0  0  0
   27.2407   36.4253   23.5007 C   0  0  2  0  0  0  0  0  0  0  0  0
   27.2832   35.0858   23.1638 N   0  0  0  0  0  0  0  0  0  0  0  0
   27.1026   36.8019   24.8371 C   0  0  0  0  0  0  0  0  0  0  0  0
   27.0536   38.1463   25.1865 C   0  0  1  0  0  0  0  0  0  0  0  0
   26.9013   38.5127   26.6289 C   0  0  0  0  0  0  0  0  0  0  0  0
   27.1487   39.1293   24.1898 C   0  0  1  0  0  0  0  0  0  0  0  0
   27.1091   40.5947   24.5265 C   0  0  0  0  0  0  0  0  0  0  0  0
   27.2848   38.7503   22.8569 C   0  0  0  0  0  0  0  0  0  0  0  0
   27.3299   37.4002   22.5043 C   0  0  1  0  0  0  0  0  0  0  0  0
   27.5138   35.6805   20.8447 C   0  0  1  0  0  0  0  0  0  0  0  0
   27.4631   37.0207   21.1772 N   0  0  0  0  0  0  0  0  0  0  0  0
  1  2  1  6  0  0  0
  1  3  1  0  0  0  0
  1  4  2  0  0  0  0
  1  6  1  0  0  0  0
  5  6  1  0  0  0  0
  7  5  1  6  0  0  0
  7  8  1  0  0  0  0
  7  9  1  0  0  0  0
  9 10  1  1  0  0  0
  9 11  1  0  0  0  0
 11 12  1  1  0  0  0
 11 13  1  0  0  0  0
 13 31  1  0  0  0  0
 14 15  1  0  0  0  0
 15 16  2  0  0  0  0
 15 17  1  0  0  0  0
 17 18  1  0  0  0  0
 18 20  2  0  0  0  0
 19 18  1  1  0  0  0
 19 22  1  0  0  0  0
 19 30  1  0  0  0  0
 21 23  1  6  0  0  0
 21 29  1  0  0  0  0
 21 22  1  0  0  0  0
 23 24  1  0  0  0  0
 24 25  1  1  0  0  0
 24 26  1  0  0  0  0
 26 27  1  1  0  0  0
 26 28  1  0  0  0  0
 29 28  1  1  0  0  0
 29 31  1  0  0  0  0
 30 14  1  1  0  0  0
 30 31  1  0  0  0  0
M  CHG  1   3  -1
M  END
>  <CHROM.1>
177.60973167,72.92951264,-39.60801189,69.08798964,-37.67955371,-174.27521771
88.68843400,27.49785804,38.50670838,20.41697904,-2.05417538,-1.47870026,2.05349228

>  <Name>
ligand

>  <RI>
0

>  <Rbt.Current_Directory>
/home/itssahil/PROJECTS/Mol_Feturizer/New_Systems/rnas/3F2T

>  <Rbt.Executable>
rbdock ($Id: //depot/dev/client3/rdock/2013.1/src/exe/rbdock.cxx#4 $)

>  <Rbt.Library>
libRbt.so (2013.1, Build901 2013/11/27)

>  <Rbt.Parameter_File>
/export/apps/rDock/src/rDock_2013.1_src/data/scripts/dock_solv.prm

>  <Rbt.Receptor>
prm/blind_docking_80.prm

>  <SCORE>
-27.074

>  <SCORE.INTER>
-27.8281

>  <SCORE.INTER.CONST>
1

>  <SCORE.INTER.POLAR>
0

>  <SCORE.INTER.ROT>
7

>  <SCORE.INTER.SOLV>
17.9595

>  <SCORE.INTER.VDW>
-32.8052

>  <SCORE.INTER.norm>
-0.89768

>  <SCORE.INTRA>
0.754084

>  <SCORE.INTRA.DIHEDRAL>
0.38331

>  <SCORE.INTRA.DIHEDRAL.0>
4.64198

>  <SCORE.INTRA.POLAR>
0

>  <SCORE.INTRA.POLAR.0>
0

>  <SCORE.INTRA.REPUL>
0

>  <SCORE.INTRA.REPUL.0>
0

>  <SCORE.INTRA.SOLV>
0.162758

>  <SCORE.INTRA.SOLV.lig_0>
-49.3611

>  <SCORE.INTRA.VDW>
0.48105

>  <SCORE.INTRA.VDW.0>
-1.91858

>  <SCORE.INTRA.norm>
0.0243253

>  <SCORE.RESTR>
0

>  <SCORE.RESTR.CAVITY>
0

>  <SCORE.RESTR.norm>
0

>  <SCORE.SYSTEM>
0

>  <SCORE.SYSTEM.CONST>
0

>  <SCORE.SYSTEM.DIHEDRAL>
0

>  <SCORE.SYSTEM.SOLV>
0

>  <SCORE.SYSTEM.norm>
0

>  <SCORE.heavy>
31

>  <SCORE.norm>
-0.873355

>  <RMSD>
1.505

$$$$
ligand
 OpenBabel11021811473D
libRbt.so/2013.1/901 2013/11/27
 31 33  0  0  0  0  0  0  0  0999 V2000
   25.8125   43.9323   16.0672 P   0  0  1  0  0  0  0  0  0  0  0  0
   24.7657   44.1283   15.0000 O   0  0  0  0  0  0  0  0  0  0  0  0
   27.1562   44.3042   15.4987 O   0  5  0  0  0  0  0  0  0  0  0  0
   25.4197   44.8143   17.2203 O   0  0  0  0  0  0  0  0  0  0  0  0
   26.8962   42.0339   17.5136 C   0  0  0  0  0  0  0  0  0  0  0  0
   25.8986   42.4165   16.5900 O   0  0  0  0  0  0  0  0  0  0  0  0
   26.7060   40.5638   17.8783 C   0  0  1  0  0  0  0  0  0  0  0  0
   26.8703   39.7611   16.7262 O   0  0  0  0  0  0  0  0  0  0  0  0
   27.7316   40.1498   18.9201 C   0  0  1  0  0  0  0  0  0  0  0  0
   27.7709   41.1331   19.9194 O   0  0  0  0  0  0  0  0  0  0  0  0
   27.4068   38.8107   19.5606 C   0  0  1  0  0  0  0  0  0  0  0  0
   27.0496   37.9125   18.5449 O   0  0  0  0  0  0  0  0  0  0  0  0
   28.6083   38.2633   20.3129 C   0  0  0  0  0  0  0  0  0  0  0  0
   28.5731   35.5552   19.5480 N   0  0  0  0  0  0  0  0  0  0  0  0
   28.5181   34.2509   19.1068 C   0  0  0  0  0  0  0  0  0  0  0  0
   28.9103   33.9651   17.9793 O   0  0  0  0  0  0  0  0  0  0  0  0
   28.0225   33.2590   19.9219 N   0  0  0  0  0  0  0  0  0  0  0  0
   27.5854   33.5611   21.1969 C   0  0  0  0  0  0  0  0  0  0  0  0
   27.6362   34.8745   21.6505 C   0  0  1  0  0  0  0  0  0  0  0  0
   27.1598   32.6659   21.9298 O   0  0  0  0  0  0  0  0  0  0  0  0
   27.2526   36.4894   23.3722 C   0  0  2  0  0  0  0  0  0  0  0  0
   27.1993   35.1837   22.9230 N   0  0  0  0  0  0  0  0  0  0  0  0
   26.8105   36.8007   24.6585 C   0  0  0  0  0  0  0  0  0  0  0  0
   26.8549   38.1115   25.1184 C   0  0  1  0  0  0  0  0  0  0  0  0
   26.3691   38.4085   26.5018 C   0  0  0  0  0  0  0  0  0  0  0  0
   27.3518   39.1257   24.2859 C   0  0  1  0  0  0  0  0  0  0  0  0
   27.4253   40.5551   24.7485 C   0  0  0  0  0  0  0  0  0  0  0  0
   27.7906   38.8123   23.0022 C   0  0  0  0  0  0  0  0  0  0  0  0
   27.7426   37.4967   22.5376 C   0  0  1  0  0  0  0  0  0  0  0  0
   28.1304   35.8747   20.8158 C   0  0  1  0  0  0  0  0  0  0  0  0
   28.1771   37.1828   21.2586 N   0  0  0  0  0  0  0  0  0  0  0  0
  1  2  1  6  0  0  0
  1  3  1  0  0  0  0
  1  4  2  0  0  0  0
  1  6  1  0  0  0  0
  5  6  1  0  0  0  0
  7  5  1  6  0  0  0
  7  8  1  0  0  0  0
  7  9  1  0  0  0  0
  9 10  1  1  0  0  0
  9 11  1  0  0  0  0
 11 12  1  6  0  0  0
 11 13  1  0  0  0  0
 13 31  1  0  0  0  0
 14 15  1  0  0  0  0
 15 16  2  0  0  0  0
 15 17  1  0  0  0  0
 17 18  1  0  0  0  0
 18 20  2  0  0  0  0
 19 18  1  1  0  0  0
 19 22  1  0  0  0  0
 19 30  1  0  0  0  0
 21 23  1  6  0  0  0
 21 29  1  0  0  0  0
 21 22  1  0  0  0  0
 23 24  1  0  0  0  0
 24 25  1  1  0  0  0
 24 26  1  0  0  0  0
 26 27  1  1  0  0  0
 26 28  1  0  0  0  0
 29 28  1  1  0  0  0
 29 31  1  0  0  0  0
 30 14  1  1  0  0  0
 30 31  1  0  0  0  0
M  CHG  1   3  -1
M  END
>  <CHROM.1>
177.60317173,175.01930214,62.66393653,46.22336854,45.45709464,163.20087540
-86.59980768,27.18741412,38.75660193,20.00078412,2.39339302,1.36110050,-1.45952535

>  <Name>
ligand

>  <RI>
0

>  <Rbt.Current_Directory>
/home/itssahil/PROJECTS/Mol_Feturizer/New_Systems/rnas/3F2T

>  <Rbt.Executable>
rbdock ($Id: //depot/dev/client3/rdock/2013.1/src/exe/rbdock.cxx#4 $)

>  <Rbt.Library>
libRbt.so (2013.1, Build901 2013/11/27)

>  <Rbt.Parameter_File>
/export/apps/rDock/src/rDock_2013.1_src/data/scripts/dock_solv.prm

>  <Rbt.Receptor>
prm/blind_docking_60.prm

>  <SCORE>
-29.8413

>  <SCORE.INTER>
-29.9137

>  <SCORE.INTER.CONST>
1

>  <SCORE.INTER.POLAR>
0

>  <SCORE.INTER.ROT>
7

>  <SCORE.INTER.SOLV>
20.0299

>  <SCORE.INTER.VDW>
-34.8858

>  <SCORE.INTER.norm>
-0.964959

>  <SCORE.INTRA>
0.072461

>  <SCORE.INTRA.DIHEDRAL>
-1.0895

>  <SCORE.INTRA.DIHEDRAL.0>
4.64198

>  <SCORE.INTRA.POLAR>
0

>  <SCORE.INTRA.POLAR.0>
0

>  <SCORE.INTRA.REPUL>
0

>  <SCORE.INTRA.REPUL.0>
0

>  <SCORE.INTRA.SOLV>
-0.0366507

>  <SCORE.INTRA.SOLV.lig_0>
-49.3611

>  <SCORE.INTRA.VDW>
0.635536

>  <SCORE.INTRA.VDW.0>
-1.91858

>  <SCORE.INTRA.norm>
0.00233745

>  <SCORE.RESTR>
0

>  <SCORE.RESTR.CAVITY>
0

>  <SCORE.RESTR.norm>
0

>  <SCORE.SYSTEM>
0

>  <SCORE.SYSTEM.CONST>
0

>  <SCORE.SYSTEM.DIHEDRAL>
0

>  <SCORE.SYSTEM.SOLV>
0

>  <SCORE.SYSTEM.norm>
0

>  <SCORE.heavy>
31

>  <SCORE.norm>
-0.962621

>  <RMSD>
1.516

$$$$
ligand
 OpenBabel11021811473D
libRbt.so/2013.1/901 2013/11/27
 31 33  0  0  0  0  0  0  0  0999 V2000
   25.7707   42.2167   18.1837 P   0  0  1  0  0  0  0  0  0  0  0  0
   26.5383   43.5008   17.9969 O   0  0  0  0  0  0  0  0  0  0  0  0
   25.4698   42.0434   19.6488 O   0  5  0  0  0  0  0  0  0  0  0  0
   24.5199   42.3409   17.3577 O   0  0  0  0  0  0  0  0  0  0  0  0
   27.7612   40.5200   18.3553 C   0  0  0  0  0  0  0  0  0  0  0  0
   26.5830   40.9231   17.6887 O   0  0  0  0  0  0  0  0  0  0  0  0
   28.4039   39.3680   17.5871 C   0  0  1  0  0  0  0  0  0  0  0  0
   29.6530   39.0463   18.1660 O   0  0  0  0  0  0  0  0  0  0  0  0
   27.5051   38.1439   17.6380 C   0  0  1  0  0  0  0  0  0  0  0  0
   28.1348   37.1018   16.9417 O   0  0  0  0  0  0  0  0  0  0  0  0
   27.2217   37.6852   19.0585 C   0  0  1  0  0  0  0  0  0  0  0  0
   26.2042   36.7214   19.0147 O   0  0  0  0  0  0  0  0  0  0  0  0
   28.4622   37.0748   19.6894 C   0  0  0  0  0  0  0  0  0  0  0  0
   28.4322   34.2934   19.2617 N   0  0  0  0  0  0  0  0  0  0  0  0
   28.3777   32.9447   18.9847 C   0  0  0  0  0  0  0  0  0  0  0  0
   28.7382   32.5260   17.8886 O   0  0  0  0  0  0  0  0  0  0  0  0
   27.9177   32.0564   19.9299 N   0  0  0  0  0  0  0  0  0  0  0  0
   27.5166   32.5089   21.1718 C   0  0  0  0  0  0  0  0  0  0  0  0
   27.5674   33.8682   21.4601 C   0  0  1  0  0  0  0  0  0  0  0  0
   27.1232   31.7071   22.0214 O   0  0  0  0  0  0  0  0  0  0  0  0
   27.2195   35.6787   22.9834 C   0  0  2  0  0  0  0  0  0  0  0  0
   27.1663   34.3276   22.6986 N   0  0  0  0  0  0  0  0  0  0  0  0
   26.8137   36.1417   24.2356 C   0  0  0  0  0  0  0  0  0  0  0  0
   26.8582   37.4992   24.5307 C   0  0  1  0  0  0  0  0  0  0  0  0
   26.4118   37.9596   25.8823 C   0  0  0  0  0  0  0  0  0  0  0  0
   27.3186   38.4075   23.5655 C   0  0  1  0  0  0  0  0  0  0  0  0
   27.3911   39.8831   23.8479 C   0  0  0  0  0  0  0  0  0  0  0  0
   27.7213   37.9426   22.3163 C   0  0  0  0  0  0  0  0  0  0  0  0
   27.6731   36.5798   22.0173 C   0  0  1  0  0  0  0  0  0  0  0  0
   28.0252   34.7624   20.4945 C   0  0  1  0  0  0  0  0  0  0  0  0
   28.0716   36.1151   20.7729 N   0  0  0  0  0  0  0  0  0  0  0  0
  1  2  1  6  0  0  0
  1  3  1  0  0  0  0
  1  4  2  0  0  0  0
  1  6  1  0  0  0  0
  5  6  1  0  0  0  0
  7  5  1  1  0  0  0
  7  8  1  0  0  0  0
  7  9  1  0  0  0  0
  9 10  1  6  0  0  0
  9 11  1  0  0  0  0
 11 12  1  6  0  0  0
 11 13  1  0  0  0  0
 13 31  1  0  0  0  0
 14 15  1  0  0  0  0
 15 16  2  0  0  0  0
 15 17  1  0  0  0  0
 17 18  1  0  0  0  0
 18 20  2  0  0  0  0
 19 18  1  1  0  0  0
 19 22  1  0  0  0  0
 19 30  1  0  0  0  0
 21 23  1  6  0  0  0
 21 29  1  0  0  0  0
 21 22  1  0  0  0  0
 23 24  1  0  0  0  0
 24 25  1  1  0  0  0
 24 26  1  0  0  0  0
 26 27  1  1  0  0  0
 26 28  1  0  0  0  0
 29 28  1  1  0  0  0
 29 31  1  0  0  0  0
 30 14  1  1  0  0  0
 30 31  1  0  0  0  0
M  CHG  1   3  -1
M  END
>  <CHROM.1>
-173.76815061,66.15675435,174.03991337,-179.09407355,169.31609064,-154.96571304
-77.71991881,27.28713905,37.46814884,20.16604209,-2.27350744,-1.32365066
2.09377472

>  <Name>
ligand

>  <RI>
0

>  <Rbt.Current_Directory>
/home/itssahil/PROJECTS/Mol_Feturizer/New_Systems/rnas/3F2T

>  <Rbt.Executable>
rbdock ($Id: //depot/dev/client3/rdock/2013.1/src/exe/rbdock.cxx#4 $)

>  <Rbt.Library>
libRbt.so (2013.1, Build901 2013/11/27)

>  <Rbt.Parameter_File>
/export/apps/rDock/src/rDock_2013.1_src/data/scripts/dock_solv.prm

>  <Rbt.Receptor>
prm/pocket_docking_5.prm

>  <SCORE>
-30.4731

>  <SCORE.INTER>
-31.1819

>  <SCORE.INTER.CONST>
1

>  <SCORE.INTER.POLAR>
0

>  <SCORE.INTER.ROT>
7

>  <SCORE.INTER.SOLV>
17.4206

>  <SCORE.INTER.VDW>
-34.8615

>  <SCORE.INTER.norm>
-1.00587

>  <SCORE.INTRA>
0.708837

>  <SCORE.INTRA.DIHEDRAL>
-0.808035

>  <SCORE.INTRA.DIHEDRAL.0>
4.64198

>  <SCORE.INTRA.POLAR>
0

>  <SCORE.INTRA.POLAR.0>
0

>  <SCORE.INTRA.REPUL>
0

>  <SCORE.INTRA.REPUL.0>
0

>  <SCORE.INTRA.SOLV>
-0.416916

>  <SCORE.INTRA.SOLV.lig_0>
-49.3611

>  <SCORE.INTRA.VDW>
1.32131

>  <SCORE.INTRA.VDW.0>
-1.91858

>  <SCORE.INTRA.norm>
0.0228657

>  <SCORE.RESTR>
0

>  <SCORE.RESTR.CAVITY>
0

>  <SCORE.RESTR.norm>
0

>  <SCORE.SYSTEM>
0

>  <SCORE.SYSTEM.CONST>
0

>  <SCORE.SYSTEM.DIHEDRAL>
0

>  <SCORE.SYSTEM.SOLV>
0

>  <SCORE.SYSTEM.norm>
0

>  <SCORE.heavy>
31

>  <SCORE.norm>
-0.983003

>  <RMSD>
1.529

$$$$
ligand
 OpenBabel11021811473D
libRbt.so/2013.1/901 2013/11/27
 31 33  0  0  0  0  0  0  0  0999 V2000
   25.0534   42.6379   18.1800 P   0  0  1  0  0  0  0  0  0  0  0  0
   23.9264   41.6364   18.1683 O   0  0  0  0  0  0  0  0  0  0  0  0
   24.5211   43.9682   17.7175 O   0  5  0  0  0  0  0  0  0  0  0  0
   25.5652   42.6911   19.5932 O   0  0  0  0  0  0  0  0  0  0  0  0
   27.3674   41.4980   17.7151 C   0  0  0  0  0  0  0  0  0  0  0  0
   26.2672   42.2270   17.2124 O   0  0  0  0  0  0  0  0  0  0  0  0
   26.9427   40.0523   17.9597 C   0  0  1  0  0  0  0  0  0  0  0  0
   26.7859   39.3851   16.7231 O   0  0  0  0  0  0  0  0  0  0  0  0
   27.9993   39.3317   18.7800 C   0  0  1  0  0  0  0  0  0  0  0  0
   28.3202   40.1287   19.8887 O   0  0  0  0  0  0  0  0  0  0  0  0
   27.5318   37.9719   19.2710 C   0  0  1  0  0  0  0  0  0  0  0  0
   26.9383   37.2962   18.1953 O   0  0  0  0  0  0  0  0  0  0  0  0
   28.7001   37.1524   19.7933 C   0  0  0  0  0  0  0  0  0  0  0  0
   28.5852   34.3948   19.2434 N   0  0  0  0  0  0  0  0  0  0  0  0
   28.4929   33.0621   18.9055 C   0  0  0  0  0  0  0  0  0  0  0  0
   28.8891   32.6757   17.8098 O   0  0  0  0  0  0  0  0  0  0  0  0
   27.9551   32.1540   19.7887 N   0  0  0  0  0  0  0  0  0  0  0  0
   27.5126   32.5697   21.0294 C   0  0  0  0  0  0  0  0  0  0  0  0
   27.6011   33.9126   21.3790 C   0  0  1  0  0  0  0  0  0  0  0  0
   27.0491   31.7493   21.8242 O   0  0  0  0  0  0  0  0  0  0  0  0
   27.2498   35.6701   22.9624 C   0  0  2  0  0  0  0  0  0  0  0  0
   27.1591   34.3353   22.6166 N   0  0  0  0  0  0  0  0  0  0  0  0
   26.8026   36.0960   24.2136 C   0  0  0  0  0  0  0  0  0  0  0  0
   26.8844   37.4371   24.5696 C   0  0  1  0  0  0  0  0  0  0  0  0
   26.3918   37.8578   25.9181 C   0  0  0  0  0  0  0  0  0  0  0  0
   27.4244   38.3659   23.6672 C   0  0  1  0  0  0  0  0  0  0  0  0
   27.5391   39.8243   24.0169 C   0  0  0  0  0  0  0  0  0  0  0  0
   27.8683   37.9381   22.4188 C   0  0  0  0  0  0  0  0  0  0  0  0
   27.7828   36.5921   22.0585 C   0  0  1  0  0  0  0  0  0  0  0  0
   28.1379   34.8275   20.4755 C   0  0  1  0  0  0  0  0  0  0  0  0
   28.2222   36.1644   20.8146 N   0  0  0  0  0  0  0  0  0  0  0  0
  1  2  1  6  0  0  0
  1  3  1  0  0  0  0
  1  4  2  0  0  0  0
  1  6  1  0  0  0  0
  5  6  1  0  0  0  0
  7  5  1  6  0  0  0
  7  8  1  0  0  0  0
  7  9  1  0  0  0  0
  9 10  1  1  0  0  0
  9 11  1  0  0  0  0
 11 12  1  6  0  0  0
 11 13  1  0  0  0  0
 13 31  1  0  0  0  0
 14 15  1  0  0  0  0
 15 16  2  0  0  0  0
 15 17  1  0  0  0  0
 17 18  1  0  0  0  0
 18 20  2  0  0  0  0
 19 18  1  1  0  0  0
 19 22  1  0  0  0  0
 19 30  1  0  0  0  0
 21 23  1  6  0  0  0
 21 29  1  0  0  0  0
 21 22  1  0  0  0  0
 23 24  1  0  0  0  0
 24 25  1  1  0  0  0
 24 26  1  0  0  0  0
 26 27  1  1  0  0  0
 26 28  1  0  0  0  0
 29 28  1  1  0  0  0
 29 31  1  0  0  0  0
 30 14  1  1  0  0  0
 30 31  1  0  0  0  0
M  CHG  1   3  -1
M  END
>  <CHROM.1>
73.50224879,-93.20625950,72.63780638,49.12007278,46.72640397,153.53030221
-69.96155066,27.07836110,37.80795355,20.21220293,-2.65579012,-1.30651274
1.71294174

>  <Name>
ligand

>  <RI>
0

>  <Rbt.Current_Directory>
/home/itssahil/PROJECTS/Mol_Feturizer/New_Systems/rnas/3F2T

>  <Rbt.Executable>
rbdock ($Id: //depot/dev/client3/rdock/2013.1/src/exe/rbdock.cxx#4 $)

>  <Rbt.Library>
libRbt.so (2013.1, Build901 2013/11/27)

>  <Rbt.Parameter_File>
/export/apps/rDock/src/rDock_2013.1_src/data/scripts/dock_solv.prm

>  <Rbt.Receptor>
prm/pocket_docking_3.prm

>  <SCORE>
-29.4008

>  <SCORE.INTER>
-31.8038

>  <SCORE.INTER.CONST>
1

>  <SCORE.INTER.POLAR>
0

>  <SCORE.INTER.ROT>
7

>  <SCORE.INTER.SOLV>
18.1379

>  <SCORE.INTER.VDW>
-35.5152

>  <SCORE.INTER.norm>
-1.02593

>  <SCORE.INTRA>
2.40308

>  <SCORE.INTRA.DIHEDRAL>
2.55332

>  <SCORE.INTRA.DIHEDRAL.0>
4.64198

>  <SCORE.INTRA.POLAR>
0

>  <SCORE.INTRA.POLAR.0>
0

>  <SCORE.INTRA.REPUL>
0

>  <SCORE.INTRA.REPUL.0>
0

>  <SCORE.INTRA.SOLV>
1.38948

>  <SCORE.INTRA.SOLV.lig_0>
-49.3611

>  <SCORE.INTRA.VDW>
0.431679

>  <SCORE.INTRA.VDW.0>
-1.91858

>  <SCORE.INTRA.norm>
0.0775188

>  <SCORE.RESTR>
0

>  <SCORE.RESTR.CAVITY>
0

>  <SCORE.RESTR.norm>
0

>  <SCORE.SYSTEM>
0

>  <SCORE.SYSTEM.CONST>
0

>  <SCORE.SYSTEM.DIHEDRAL>
0

>  <SCORE.SYSTEM.SOLV>
0

>  <SCORE.SYSTEM.norm>
0

>  <SCORE.heavy>
31

>  <SCORE.norm>
-0.948412

>  <RMSD>
1.533

$$$$
ligand
 OpenBabel11021811473D
libRbt.so/2013.1/901 2013/11/27
 31 33  0  0  0  0  0  0  0  0999 V2000
   27.5371   42.4027   17.3027 P   0  0  1  0  0  0  0  0  0  0  0  0
   28.5426   43.4968   17.5581 O   0  0  0  0  0  0  0  0  0  0  0  0
   26.1764   43.0265   17.1405 O   0  5  0  0  0  0  0  0  0  0  0  0
   27.9870   41.6890   16.0576 O   0  0  0  0  0  0  0  0  0  0  0  0
   28.6300   40.7666   19.0345 C   0  0  0  0  0  0  0  0  0  0  0  0
   27.4532   41.3365   18.5004 O   0  0  0  0  0  0  0  0  0  0  0  0
   29.2610   39.8473   17.9920 C   0  0  1  0  0  0  0  0  0  0  0  0
   30.5985   39.5641   18.3523 O   0  0  0  0  0  0  0  0  0  0  0  0
   28.4842   38.5441   17.9098 C   0  0  1  0  0  0  0  0  0  0  0  0
   28.9784   37.8003   16.8282 O   0  0  0  0  0  0  0  0  0  0  0  0
   28.6042   37.7110   19.1749 C   0  0  1  0  0  0  0  0  0  0  0  0
   29.3537   38.4380   20.1107 O   0  0  0  0  0  0  0  0  0  0  0  0
   27.2336   37.4088   19.7577 C   0  0  0  0  0  0  0  0  0  0  0  0
   27.4761   34.6436   19.2943 N   0  0  0  0  0  0  0  0  0  0  0  0
   27.5339   33.2951   19.0165 C   0  0  0  0  0  0  0  0  0  0  0  0
   27.5808   32.9075   17.8527 O   0  0  0  0  0  0  0  0  0  0  0  0
   27.5372   32.3720   20.0372 N   0  0  0  0  0  0  0  0  0  0  0  0
   27.4942   32.7907   21.3528 C   0  0  0  0  0  0  0  0  0  0  0  0
   27.4350   34.1493   21.6428 C   0  0  1  0  0  0  0  0  0  0  0  0
   27.5164   31.9606   22.2639 O   0  0  0  0  0  0  0  0  0  0  0  0
   27.3330   35.9254   23.2410 C   0  0  2  0  0  0  0  0  0  0  0  0
   27.3899   34.5746   22.9553 N   0  0  0  0  0  0  0  0  0  0  0  0
   27.2873   36.3540   24.5681 C   0  0  0  0  0  0  0  0  0  0  0  0
   27.2247   37.7101   24.8665 C   0  0  1  0  0  0  0  0  0  0  0  0
   27.1734   38.1325   26.3007 C   0  0  0  0  0  0  0  0  0  0  0  0
   27.2124   38.6525   23.8271 C   0  0  1  0  0  0  0  0  0  0  0  0
   27.1545   40.1291   24.1073 C   0  0  0  0  0  0  0  0  0  0  0  0
   27.2564   38.2217   22.5038 C   0  0  0  0  0  0  0  0  0  0  0  0
   27.3151   36.8597   22.2028 C   0  0  1  0  0  0  0  0  0  0  0  0
   27.4222   35.0774   20.6035 C   0  0  1  0  0  0  0  0  0  0  0  0
   27.3567   36.4285   20.8853 N   0  0  0  0  0  0  0  0  0  0  0  0
  1  2  1  1  0  0  0
  1  3  1  0  0  0  0
  1  4  2  0  0  0  0
  1  6  1  0  0  0  0
  5  6  1  0  0  0  0
  7  5  1  1  0  0  0
  7  8  1  0  0  0  0
  7  9  1  0  0  0  0
  9 10  1  6  0  0  0
  9 11  1  0  0  0  0
 11 12  1  1  0  0  0
 11 13  1  0  0  0  0
 13 31  1  0  0  0  0
 14 15  1  0  0  0  0
 15 16  2  0  0  0  0
 15 17  1  0  0  0  0
 17 18  1  0  0  0  0
 18 20  2  0  0  0  0
 19 18  1  1  0  0  0
 19 22  1  0  0  0  0
 19 30  1  0  0  0  0
 21 23  1  6  0  0  0
 21 29  1  0  0  0  0
 21 22  1  0  0  0  0
 23 24  1  0  0  0  0
 24 25  1  1  0  0  0
 24 26  1  0  0  0  0
 26 27  1  1  0  0  0
 26 28  1  0  0  0  0
 29 28  1  1  0  0  0
 29 31  1  0  0  0  0
 30 14  1  1  0  0  0
 30 31  1  0  0  0  0
M  CHG  1   3  -1
M  END
>  <CHROM.1>
-68.54338441,-48.63544353,163.97040543,172.33127100,3.48000896,171.91359002
101.00141022,27.81018673,37.80399009,20.17203561,1.01709902,1.43271891,0.00302233

>  <Name>
ligand

>  <RI>
0

>  <Rbt.Current_Directory>
/home/itssahil/PROJECTS/Mol_Feturizer/New_Systems/rnas/3F2T

>  <Rbt.Executable>
rbdock ($Id: //depot/dev/client3/rdock/2013.1/src/exe/rbdock.cxx#4 $)

>  <Rbt.Library>
libRbt.so (2013.1, Build901 2013/11/27)

>  <Rbt.Parameter_File>
/export/apps/rDock/src/rDock_2013.1_src/data/scripts/dock_solv.prm

>  <Rbt.Receptor>
prm/pocket_docking_3.prm

>  <SCORE>
-21.6569

>  <SCORE.INTER>
-27.4669

>  <SCORE.INTER.CONST>
1

>  <SCORE.INTER.POLAR>
0

>  <SCORE.INTER.ROT>
7

>  <SCORE.INTER.SOLV>
14.903

>  <SCORE.INTER.VDW>
-31.5456

>  <SCORE.INTER.norm>
-0.88603

>  <SCORE.INTRA>
5.81006

>  <SCORE.INTRA.DIHEDRAL>
3.89639

>  <SCORE.INTRA.DIHEDRAL.0>
4.64198

>  <SCORE.INTRA.POLAR>
0

>  <SCORE.INTRA.POLAR.0>
0

>  <SCORE.INTRA.REPUL>
0

>  <SCORE.INTRA.REPUL.0>
0

>  <SCORE.INTRA.SOLV>
1.89858

>  <SCORE.INTRA.SOLV.lig_0>
-49.3611

>  <SCORE.INTRA.VDW>
2.91258

>  <SCORE.INTRA.VDW.0>
-1.91858

>  <SCORE.INTRA.norm>
0.187421

>  <SCORE.RESTR>
0

>  <SCORE.RESTR.CAVITY>
0

>  <SCORE.RESTR.norm>
0

>  <SCORE.SYSTEM>
0

>  <SCORE.SYSTEM.CONST>
0

>  <SCORE.SYSTEM.DIHEDRAL>
0

>  <SCORE.SYSTEM.SOLV>
0

>  <SCORE.SYSTEM.norm>
0

>  <SCORE.heavy>
31

>  <SCORE.norm>
-0.698609

>  <RMSD>
1.540

$$$$
ligand
 OpenBabel11021811473D
libRbt.so/2013.1/901 2013/11/27
 31 33  0  0  0  0  0  0  0  0999 V2000
   27.8062   42.6211   17.0643 P   0  0  1  0  0  0  0  0  0  0  0  0
   27.4847   42.6275   18.5374 O   0  0  0  0  0  0  0  0  0  0  0  0
   26.7416   41.8392   16.3417 O   0  5  0  0  0  0  0  0  0  0  0  0
   27.8486   44.0600   16.6285 O   0  0  0  0  0  0  0  0  0  0  0  0
   29.3444   40.5419   16.6387 C   0  0  0  0  0  0  0  0  0  0  0  0
   29.2254   41.9459   16.7354 O   0  0  0  0  0  0  0  0  0  0  0  0
   29.0189   39.9157   17.9923 C   0  0  1  0  0  0  0  0  0  0  0  0
   27.6173   39.8667   18.1709 O   0  0  0  0  0  0  0  0  0  0  0  0
   29.5758   38.5036   18.0591 C   0  0  1  0  0  0  0  0  0  0  0  0
   30.9567   38.5593   17.8201 O   0  0  0  0  0  0  0  0  0  0  0  0
   29.3364   37.8437   19.4067 C   0  0  1  0  0  0  0  0  0  0  0  0
   29.5790   38.7925   20.4102 O   0  0  0  0  0  0  0  0  0  0  0  0
   27.9042   37.3487   19.5219 C   0  0  0  0  0  0  0  0  0  0  0  0
   28.0852   34.5812   19.0447 N   0  0  0  0  0  0  0  0  0  0  0  0
   28.1225   33.2354   18.7510 C   0  0  0  0  0  0  0  0  0  0  0  0
   28.3423   32.8614   17.6027 O   0  0  0  0  0  0  0  0  0  0  0  0
   27.9120   32.2998   19.7381 N   0  0  0  0  0  0  0  0  0  0  0  0
   27.6725   32.7025   21.0375 C   0  0  0  0  0  0  0  0  0  0  0  0
   27.6323   34.0583   21.3432 C   0  0  1  0  0  0  0  0  0  0  0  0
   27.5033   31.8602   21.9215 O   0  0  0  0  0  0  0  0  0  0  0  0
   27.3539   35.8158   22.9411 C   0  0  2  0  0  0  0  0  0  0  0  0
   27.3915   34.4678   22.6394 N   0  0  0  0  0  0  0  0  0  0  0  0
   27.1103   36.2283   24.2516 C   0  0  0  0  0  0  0  0  0  0  0  0
   27.0652   37.5817   24.5649 C   0  0  1  0  0  0  0  0  0  0  0  0
   26.7980   37.9870   25.9800 C   0  0  0  0  0  0  0  0  0  0  0  0
   27.2709   38.5373   23.5584 C   0  0  1  0  0  0  0  0  0  0  0  0
   27.2393   40.0111   23.8573 C   0  0  0  0  0  0  0  0  0  0  0  0
   27.5121   38.1225   22.2513 C   0  0  0  0  0  0  0  0  0  0  0  0
   27.5534   36.7635   21.9345 C   0  0  1  0  0  0  0  0  0  0  0  0
   27.8367   34.9996   20.3364 C   0  0  1  0  0  0  0  0  0  0  0  0
   27.7913   36.3485   20.6329 N   0  0  0  0  0  0  0  0  0  0  0  0
  1  2  1  1  0  0  0
  1  3  1  0  0  0  0
  1  4  2  0  0  0  0
  1  6  1  0  0  0  0
  5  6  1  0  0  0  0
  7  5  1  6  0  0  0
  7  8  1  0  0  0  0
  7  9  1  0  0  0  0
  9 10  1  1  0  0  0
  9 11  1  0  0  0  0
 11 12  1  1  0  0  0
 11 13  1  0  0  0  0
 13 31  1  0  0  0  0
 14 15  1  0  0  0  0
 15 16  2  0  0  0  0
 15 17  1  0  0  0  0
 17 18  1  0  0  0  0
 18 20  2  0  0  0  0
 19 18  1  1  0  0  0
 19 22  1  0  0  0  0
 19 30  1  0  0  0  0
 21 23  1  6  0  0  0
 21 29  1  0  0  0  0
 21 22  1  0  0  0  0
 23 24  1  0  0  0  0
 24 25  1  1  0  0  0
 24 26  1  0  0  0  0
 26 27  1  1  0  0  0
 26 28  1  0  0  0  0
 29 28  1  1  0  0  0
 29 31  1  0  0  0  0
 30 14  1  1  0  0  0
 30 31  1  0  0  0  0
M  CHG  1   3  -1
M  END
>  <CHROM.1>
-63.42047525,82.13108116,79.04925451,56.99201772,-41.66648922,162.39721470
87.16081035,28.03563915,37.84768638,19.93606338,1.24906606,1.34375960,-0.21448990

>  <Name>
ligand

>  <RI>
0

>  <Rbt.Current_Directory>
/home/itssahil/PROJECTS/Mol_Feturizer/New_Systems/rnas/3F2T

>  <Rbt.Executable>
rbdock ($Id: //depot/dev/client3/rdock/2013.1/src/exe/rbdock.cxx#4 $)

>  <Rbt.Library>
libRbt.so (2013.1, Build901 2013/11/27)

>  <Rbt.Parameter_File>
/export/apps/rDock/src/rDock_2013.1_src/data/scripts/dock_solv.prm

>  <Rbt.Receptor>
prm/blind_docking_100.prm

>  <SCORE>
-28.7823

>  <SCORE.INTER>
-31.0412

>  <SCORE.INTER.CONST>
1

>  <SCORE.INTER.POLAR>
0

>  <SCORE.INTER.ROT>
7

>  <SCORE.INTER.SOLV>
19.909

>  <SCORE.INTER.VDW>
-35.5971

>  <SCORE.INTER.norm>
-1.00133

>  <SCORE.INTRA>
2.25884

>  <SCORE.INTRA.DIHEDRAL>
0.856063

>  <SCORE.INTRA.DIHEDRAL.0>
4.64198

>  <SCORE.INTRA.POLAR>
0

>  <SCORE.INTRA.POLAR.0>
0

>  <SCORE.INTRA.REPUL>
0

>  <SCORE.INTRA.REPUL.0>
0

>  <SCORE.INTRA.SOLV>
2.25327

>  <SCORE.INTRA.SOLV.lig_0>
-49.3611

>  <SCORE.INTRA.VDW>
0.704173

>  <SCORE.INTRA.VDW.0>
-1.91858

>  <SCORE.INTRA.norm>
0.0728657

>  <SCORE.RESTR>
0

>  <SCORE.RESTR.CAVITY>
0

>  <SCORE.RESTR.norm>
0

>  <SCORE.SYSTEM>
0

>  <SCORE.SYSTEM.CONST>
0

>  <SCORE.SYSTEM.DIHEDRAL>
0

>  <SCORE.SYSTEM.SOLV>
0

>  <SCORE.SYSTEM.norm>
0

>  <SCORE.heavy>
31

>  <SCORE.norm>
-0.928462

>  <RMSD>
1.543

$$$$
ligand
 OpenBabel11021811473D
libRbt.so/2013.1/901 2013/11/27
 31 33  0  0  0  0  0  0  0  0999 V2000
   25.0954   41.7653   18.5099 P   0  0  1  0  0  0  0  0  0  0  0  0
   23.6326   41.8224   18.1489 O   0  0  0  0  0  0  0  0  0  0  0  0
   25.9066   41.7954   17.2419 O   0  5  0  0  0  0  0  0  0  0  0  0
   25.3674   42.9565   19.3869 O   0  0  0  0  0  0  0  0  0  0  0  0
   26.7666   40.3096   19.9094 C   0  0  0  0  0  0  0  0  0  0  0  0
   25.4900   40.4353   19.3185 O   0  0  0  0  0  0  0  0  0  0  0  0
   27.8002   40.0378   18.8194 C   0  0  1  0  0  0  0  0  0  0  0  0
   29.0749   39.8592   19.4041 O   0  0  0  0  0  0  0  0  0  0  0  0
   27.4275   38.7807   18.0516 C   0  0  1  0  0  0  0  0  0  0  0  0
   28.4960   38.4427   17.2082 O   0  0  0  0  0  0  0  0  0  0  0  0
   27.1313   37.6035   18.9656 C   0  0  1  0  0  0  0  0  0  0  0  0
   26.6041   36.5637   18.1866 O   0  0  0  0  0  0  0  0  0  0  0  0
   28.3963   37.1201   19.6553 C   0  0  0  0  0  0  0  0  0  0  0  0
   28.4030   34.3407   19.2140 N   0  0  0  0  0  0  0  0  0  0  0  0
   28.3643   32.9926   18.9315 C   0  0  0  0  0  0  0  0  0  0  0  0
   28.7022   32.5855   17.8238 O   0  0  0  0  0  0  0  0  0  0  0  0
   27.9457   32.0919   19.8841 N   0  0  0  0  0  0  0  0  0  0  0  0
   27.5707   32.5314   21.1387 C   0  0  0  0  0  0  0  0  0  0  0  0
   27.6057   33.8900   21.4327 C   0  0  1  0  0  0  0  0  0  0  0  0
   27.2144   31.7188   21.9945 O   0  0  0  0  0  0  0  0  0  0  0  0
   27.2679   35.6869   22.9743 C   0  0  2  0  0  0  0  0  0  0  0  0
   27.2305   34.3364   22.6840 N   0  0  0  0  0  0  0  0  0  0  0  0
   26.8883   36.1367   24.2394 C   0  0  0  0  0  0  0  0  0  0  0  0
   26.9173   37.4934   24.5403 C   0  0  1  0  0  0  0  0  0  0  0  0
   26.4998   37.9394   25.9059 C   0  0  0  0  0  0  0  0  0  0  0  0
   27.3355   38.4142   23.5677 C   0  0  1  0  0  0  0  0  0  0  0  0
   27.3900   39.8894   23.8558 C   0  0  0  0  0  0  0  0  0  0  0  0
   27.7121   37.9623   22.3057 C   0  0  0  0  0  0  0  0  0  0  0  0
   27.6794   36.6003   22.0010 C   0  0  1  0  0  0  0  0  0  0  0  0
   28.0215   34.7966   20.4597 C   0  0  1  0  0  0  0  0  0  0  0  0
   28.0520   36.1485   20.7439 N   0  0  0  0  0  0  0  0  0  0  0  0
  1  2  1  6  0  0  0
  1  3  1  0  0  0  0
  1  4  2  0  0  0  0
  1  6  1  0  0  0  0
  5  6  1  0  0  0  0
  7  5  1  1  0  0  0
  7  8  1  0  0  0  0
  7  9  1  0  0  0  0
  9 10  1  6  0  0  0
  9 11  1  0  0  0  0
 11 12  1  6  0  0  0
 11 13  1  0  0  0  0
 13 31  1  0  0  0  0
 14 15  1  0  0  0  0
 15 16  2  0  0  0  0
 15 17  1  0  0  0  0
 17 18  1  0  0  0  0
 18 20  2  0  0  0  0
 19 18  1  1  0  0  0
 19 22  1  0  0  0  0
 19 30  1  0  0  0  0
 21 23  1  6  0  0  0
 21 29  1  0  0  0  0
 21 22  1  0  0  0  0
 23 24  1  0  0  0  0
 24 25  1  1  0  0  0
 24 26  1  0  0  0  0
 26 27  1  1  0  0  0
 26 28  1  0  0  0  0
 29 28  1  1  0  0  0
 29 31  1  0  0  0  0
 30 14  1  1  0  0  0
 30 31  1  0  0  0  0
M  CHG  1   3  -1
M  END
>  <CHROM.1>
-74.87885026,-170.42615540,-177.77407176,-170.76483046,171.07830852,168.93596731
-83.52597863,27.10804697,37.48496759,20.34449032,-2.69013563,-1.30214011
1.74575564

>  <Name>
ligand

>  <RI>
0

>  <Rbt.Current_Directory>
/home/itssahil/PROJECTS/Mol_Feturizer/New_Systems/rnas/3F2T

>  <Rbt.Executable>
rbdock ($Id: //depot/dev/client3/rdock/2013.1/src/exe/rbdock.cxx#4 $)

>  <Rbt.Library>
libRbt.so (2013.1, Build901 2013/11/27)

>  <Rbt.Parameter_File>
/export/apps/rDock/src/rDock_2013.1_src/data/scripts/dock_solv.prm

>  <Rbt.Receptor>
prm/pocket_docking_7.prm

>  <SCORE>
-30.857

>  <SCORE.INTER>
-31.9991

>  <SCORE.INTER.CONST>
1

>  <SCORE.INTER.POLAR>
0

>  <SCORE.INTER.ROT>
7

>  <SCORE.INTER.SOLV>
16.7168

>  <SCORE.INTER.VDW>
-35.1717

>  <SCORE.INTER.norm>
-1.03223

>  <SCORE.INTRA>
1.14216

>  <SCORE.INTRA.DIHEDRAL>
-1.36031

>  <SCORE.INTRA.DIHEDRAL.0>
4.64198

>  <SCORE.INTRA.POLAR>
0

>  <SCORE.INTRA.POLAR.0>
0

>  <SCORE.INTRA.REPUL>
0

>  <SCORE.INTRA.REPUL.0>
0

>  <SCORE.INTRA.SOLV>
2.31191

>  <SCORE.INTRA.SOLV.lig_0>
-49.3611

>  <SCORE.INTRA.VDW>
0.666359

>  <SCORE.INTRA.VDW.0>
-1.91858

>  <SCORE.INTRA.norm>
0.0368438

>  <SCORE.RESTR>
0

>  <SCORE.RESTR.CAVITY>
0

>  <SCORE.RESTR.norm>
0

>  <SCORE.SYSTEM>
0

>  <SCORE.SYSTEM.CONST>
0

>  <SCORE.SYSTEM.DIHEDRAL>
0

>  <SCORE.SYSTEM.SOLV>
0

>  <SCORE.SYSTEM.norm>
0

>  <SCORE.heavy>
31

>  <SCORE.norm>
-0.995387

>  <RMSD>
1.554

$$$$
ligand
 OpenBabel11021811473D
libRbt.so/2013.1/901 2013/11/27
 31 33  0  0  0  0  0  0  0  0999 V2000
   27.0480   42.3823   17.2402 P   0  0  1  0  0  0  0  0  0  0  0  0
   25.8543   43.2631   16.9710 O   0  0  0  0  0  0  0  0  0  0  0  0
   28.1234   42.7079   16.2379 O   0  5  0  0  0  0  0  0  0  0  0  0
   27.4818   42.6677   18.6517 O   0  0  0  0  0  0  0  0  0  0  0  0
   27.7181   39.8502   17.3377 C   0  0  0  0  0  0  0  0  0  0  0  0
   26.7128   40.8170   17.1156 O   0  0  0  0  0  0  0  0  0  0  0  0
   28.0910   39.8441   18.8180 C   0  0  1  0  0  0  0  0  0  0  0  0
   26.9173   39.8611   19.6059 O   0  0  0  0  0  0  0  0  0  0  0  0
   28.8901   38.5944   19.1475 C   0  0  1  0  0  0  0  0  0  0  0  0
   29.0895   38.5483   20.5351 O   0  0  0  0  0  0  0  0  0  0  0  0
   28.1892   37.3196   18.7091 C   0  0  1  0  0  0  0  0  0  0  0  0
   29.0645   36.2436   18.9141 O   0  0  0  0  0  0  0  0  0  0  0  0
   26.9206   37.0931   19.5147 C   0  0  0  0  0  0  0  0  0  0  0  0
   27.1637   34.3276   19.0528 N   0  0  0  0  0  0  0  0  0  0  0  0
   27.2165   32.9774   18.7827 C   0  0  0  0  0  0  0  0  0  0  0  0
   27.1446   32.5779   17.6242 O   0  0  0  0  0  0  0  0  0  0  0  0
   27.3476   32.0659   19.8054 N   0  0  0  0  0  0  0  0  0  0  0  0
   27.4392   32.4983   21.1140 C   0  0  0  0  0  0  0  0  0  0  0  0
   27.3860   33.8588   21.3964 C   0  0  1  0  0  0  0  0  0  0  0  0
   27.5754   31.6789   22.0248 O   0  0  0  0  0  0  0  0  0  0  0  0
   27.4239   35.6504   22.9801 C   0  0  2  0  0  0  0  0  0  0  0  0
   27.4751   34.2977   22.7022 N   0  0  0  0  0  0  0  0  0  0  0  0
   27.5140   36.0927   24.3003 C   0  0  0  0  0  0  0  0  0  0  0  0
   27.4584   37.4507   24.5914 C   0  0  1  0  0  0  0  0  0  0  0  0
   27.5545   37.8880   26.0188 C   0  0  0  0  0  0  0  0  0  0  0  0
   27.3161   38.3812   23.5510 C   0  0  1  0  0  0  0  0  0  0  0  0
   27.2610   39.8596   23.8224 C   0  0  0  0  0  0  0  0  0  0  0  0
   27.2248   37.9366   22.2346 C   0  0  0  0  0  0  0  0  0  0  0  0
   27.2763   36.5727   21.9414 C   0  0  1  0  0  0  0  0  0  0  0  0
   27.2435   34.7749   20.3562 C   0  0  1  0  0  0  0  0  0  0  0  0
   27.1833   36.1277   20.6312 N   0  0  0  0  0  0  0  0  0  0  0  0
  1  2  1  6  0  0  0
  1  3  1  0  0  0  0
  1  4  2  0  0  0  0
  1  6  1  0  0  0  0
  5  6  1  0  0  0  0
  7  5  1  6  0  0  0
  7  8  1  0  0  0  0
  7  9  1  0  0  0  0
  9 10  1  1  0  0  0
  9 11  1  0  0  0  0
 11 12  1  1  0  0  0
 11 13  1  0  0  0  0
 13 31  1  0  0  0  0
 14 15  1  0  0  0  0
 15 16  2  0  0  0  0
 15 17  1  0  0  0  0
 17 18  1  0  0  0  0
 18 20  2  0  0  0  0
 19 18  1  6  0  0  0
 19 22  1  0  0  0  0
 19 30  1  0  0  0  0
 21 23  1  1  0  0  0
 21 29  1  0  0  0  0
 21 22  1  0  0  0  0
 23 24  1  0  0  0  0
 24 25  1  6  0  0  0
 24 26  1  0  0  0  0
 26 27  1  6  0  0  0
 26 28  1  0  0  0  0
 29 28  1  6  0  0  0
 29 31  1  0  0  0  0
 30 14  1  6  0  0  0
 30 31  1  0  0  0  0
M  CHG  1   3  -1
M  END
>  <CHROM.1>
69.20743114,-179.93164084,45.53113085,-173.66334912,173.30986891,-97.96193120
105.92385069,27.47920705,37.55699332,20.14238213,-3.11135843,-1.54935683
1.14985405

>  <Name>
ligand

>  <RI>
0

>  <Rbt.Current_Directory>
/home/itssahil/PROJECTS/Mol_Feturizer/New_Systems/rnas/3F2T

>  <Rbt.Executable>
rbdock ($Id: //depot/dev/client3/rdock/2013.1/src/exe/rbdock.cxx#4 $)

>  <Rbt.Library>
libRbt.so (2013.1, Build901 2013/11/27)

>  <Rbt.Parameter_File>
/export/apps/rDock/src/rDock_2013.1_src/data/scripts/dock_solv.prm

>  <Rbt.Receptor>
prm/pocket_docking_2.prm

>  <SCORE>
-22.8328

>  <SCORE.INTER>
-27.5332

>  <SCORE.INTER.CONST>
1

>  <SCORE.INTER.POLAR>
0

>  <SCORE.INTER.ROT>
7

>  <SCORE.INTER.SOLV>
15.878

>  <SCORE.INTER.VDW>
-31.9148

>  <SCORE.INTER.norm>
-0.888169

>  <SCORE.INTRA>
4.57153

>  <SCORE.INTRA.DIHEDRAL>
1.8114

>  <SCORE.INTRA.DIHEDRAL.0>
4.64198

>  <SCORE.INTRA.POLAR>
0

>  <SCORE.INTRA.POLAR.0>
0

>  <SCORE.INTRA.REPUL>
0

>  <SCORE.INTRA.REPUL.0>
0

>  <SCORE.INTRA.SOLV>
3.46551

>  <SCORE.INTRA.SOLV.lig_0>
-49.3611

>  <SCORE.INTRA.VDW>
1.93308

>  <SCORE.INTRA.VDW.0>
-1.91858

>  <SCORE.INTRA.norm>
0.147469

>  <SCORE.RESTR>
0.128936

>  <SCORE.RESTR.CAVITY>
0.128936

>  <SCORE.RESTR.norm>
0.00415921

>  <SCORE.SYSTEM>
0

>  <SCORE.SYSTEM.CONST>
0

>  <SCORE.SYSTEM.DIHEDRAL>
0

>  <SCORE.SYSTEM.SOLV>
0

>  <SCORE.SYSTEM.norm>
0

>  <SCORE.heavy>
31

>  <SCORE.norm>
-0.736541

>  <RMSD>
1.555

$$$$
ligand
 OpenBabel11021811473D
libRbt.so/2013.1/901 2013/11/27
 31 33  0  0  0  0  0  0  0  0999 V2000
   25.8469   44.0102   16.0600 P   0  0  1  0  0  0  0  0  0  0  0  0
   25.6425   45.0878   17.0946 O   0  0  0  0  0  0  0  0  0  0  0  0
   24.7112   44.0675   15.0732 O   0  5  0  0  0  0  0  0  0  0  0  0
   27.1765   44.2842   15.4125 O   0  0  0  0  0  0  0  0  0  0  0  0
   26.8490   42.1924   17.6606 C   0  0  0  0  0  0  0  0  0  0  0  0
   25.8807   42.5340   16.6907 O   0  0  0  0  0  0  0  0  0  0  0  0
   26.6714   40.7282   18.0538 C   0  0  1  0  0  0  0  0  0  0  0  0
   26.8425   39.9046   16.9175 O   0  0  0  0  0  0  0  0  0  0  0  0
   27.7006   40.3433   19.1033 C   0  0  1  0  0  0  0  0  0  0  0  0
   27.6572   41.2913   20.1361 O   0  0  0  0  0  0  0  0  0  0  0  0
   27.4495   38.9646   19.6906 C   0  0  1  0  0  0  0  0  0  0  0  0
   27.2602   38.0638   18.6329 O   0  0  0  0  0  0  0  0  0  0  0  0
   28.6313   38.5090   20.5304 C   0  0  0  0  0  0  0  0  0  0  0  0
   28.5221   35.8141   19.7270 N   0  0  0  0  0  0  0  0  0  0  0  0
   28.4295   34.5179   19.2684 C   0  0  0  0  0  0  0  0  0  0  0  0
   28.7833   34.2422   18.1258 O   0  0  0  0  0  0  0  0  0  0  0  0
   27.9389   33.5231   20.0830 N   0  0  0  0  0  0  0  0  0  0  0  0
   27.5448   33.8137   21.3745 C   0  0  0  0  0  0  0  0  0  0  0  0
   27.6339   35.1188   21.8458 C   0  0  1  0  0  0  0  0  0  0  0  0
   27.1237   32.9155   22.1063 O   0  0  0  0  0  0  0  0  0  0  0  0
   27.3313   36.7141   23.6016 C   0  0  2  0  0  0  0  0  0  0  0  0
   27.2401   35.4167   23.1349 N   0  0  0  0  0  0  0  0  0  0  0  0
   26.9328   37.0139   24.9048 C   0  0  0  0  0  0  0  0  0  0  0  0
   27.0155   38.3165   25.3825 C   0  0  1  0  0  0  0  0  0  0  0  0
   26.5758   38.6012   26.7838 C   0  0  0  0  0  0  0  0  0  0  0  0
   27.5073   39.3339   24.5508 C   0  0  1  0  0  0  0  0  0  0  0  0
   27.6215   40.7543   25.0320 C   0  0  0  0  0  0  0  0  0  0  0  0
   27.9026   39.0319   23.2503 C   0  0  0  0  0  0  0  0  0  0  0  0
   27.8161   37.7247   22.7680 C   0  0  1  0  0  0  0  0  0  0  0  0
   28.1226   36.1224   21.0117 C   0  0  1  0  0  0  0  0  0  0  0  0
   28.2072   37.4224   21.4723 N   0  0  0  0  0  0  0  0  0  0  0  0
  1  2  1  1  0  0  0
  1  3  1  0  0  0  0
  1  4  2  0  0  0  0
  1  6  1  0  0  0  0
  5  6  1  0  0  0  0
  7  5  1  6  0  0  0
  7  8  1  0  0  0  0
  7  9  1  0  0  0  0
  9 10  1  1  0  0  0
  9 11  1  0  0  0  0
 11 12  1  6  0  0  0
 11 13  1  0  0  0  0
 13 31  1  0  0  0  0
 14 15  1  0  0  0  0
 15 16  2  0  0  0  0
 15 17  1  0  0  0  0
 17 18  1  0  0  0  0
 18 20  2  0  0  0  0
 19 18  1  1  0  0  0
 19 22  1  0  0  0  0
 19 30  1  0  0  0  0
 21 23  1  6  0  0  0
 21 29  1  0  0  0  0
 21 22  1  0  0  0  0
 23 24  1  0  0  0  0
 24 25  1  1  0  0  0
 24 26  1  0  0  0  0
 26 27  1  1  0  0  0
 26 28  1  0  0  0  0
 29 28  1  1  0  0  0
 29 31  1  0  0  0  0
 30 14  1  1  0  0  0
 30 31  1  0  0  0  0
M  CHG  1   3  -1
M  END
>  <CHROM.1>
-178.52296770,-59.47987704,60.38806420,50.81014548,49.39369077,160.03404257
-93.99942585,27.21771836,38.94169364,20.15595094,2.50437525,1.38112702,-1.61347730

>  <Name>
ligand

>  <RI>
0

>  <Rbt.Current_Directory>
/home/itssahil/PROJECTS/Mol_Feturizer/New_Systems/rnas/3F2T

>  <Rbt.Executable>
rbdock ($Id: //depot/dev/client3/rdock/2013.1/src/exe/rbdock.cxx#4 $)

>  <Rbt.Library>
libRbt.so (2013.1, Build901 2013/11/27)

>  <Rbt.Parameter_File>
/export/apps/rDock/src/rDock_2013.1_src/data/scripts/dock_solv.prm

>  <Rbt.Receptor>
prm/blind_docking_100.prm

>  <SCORE>
-30.0827

>  <SCORE.INTER>
-29.6406

>  <SCORE.INTER.CONST>
1

>  <SCORE.INTER.POLAR>
0

>  <SCORE.INTER.ROT>
7

>  <SCORE.INTER.SOLV>
19.8021

>  <SCORE.INTER.VDW>
-34.6278

>  <SCORE.INTER.norm>
-0.95615

>  <SCORE.INTRA>
-0.442388

>  <SCORE.INTRA.DIHEDRAL>
-1.52769

>  <SCORE.INTRA.DIHEDRAL.0>
4.64198

>  <SCORE.INTRA.POLAR>
0

>  <SCORE.INTRA.POLAR.0>
0

>  <SCORE.INTRA.REPUL>
0

>  <SCORE.INTRA.REPUL.0>
0

>  <SCORE.INTRA.SOLV>
-0.461465

>  <SCORE.INTRA.SOLV.lig_0>
-49.3611

>  <SCORE.INTRA.VDW>
0.552192

>  <SCORE.INTRA.VDW.0>
-1.91858

>  <SCORE.INTRA.norm>
-0.0142706

>  <SCORE.RESTR>
0.000322069

>  <SCORE.RESTR.CAVITY>
0.000322069

>  <SCORE.RESTR.norm>
1.03893e-05

>  <SCORE.SYSTEM>
0

>  <SCORE.SYSTEM.CONST>
0

>  <SCORE.SYSTEM.DIHEDRAL>
0

>  <SCORE.SYSTEM.SOLV>
0

>  <SCORE.SYSTEM.norm>
0

>  <SCORE.heavy>
31

>  <SCORE.norm>
-0.97041

>  <RMSD>
1.558

$$$$
ligand
 OpenBabel11021811473D
libRbt.so/2013.1/901 2013/11/27
 31 33  0  0  0  0  0  0  0  0999 V2000
   27.7544   42.6865   16.9085 P   0  0  1  0  0  0  0  0  0  0  0  0
   26.7301   41.9684   16.0668 O   0  0  0  0  0  0  0  0  0  0  0  0
   27.8358   44.1187   16.4514 O   0  5  0  0  0  0  0  0  0  0  0  0
   27.2939   42.5709   18.3356 O   0  0  0  0  0  0  0  0  0  0  0  0
   29.3852   40.6470   16.6813 C   0  0  0  0  0  0  0  0  0  0  0  0
   29.2220   42.0456   16.7919 O   0  0  0  0  0  0  0  0  0  0  0  0
   28.9952   39.9896   18.0027 C   0  0  1  0  0  0  0  0  0  0  0  0
   27.5882   39.8766   18.0827 O   0  0  0  0  0  0  0  0  0  0  0  0
   29.6089   38.6027   18.0943 C   0  0  1  0  0  0  0  0  0  0  0  0
   30.9910   38.7141   17.8824 O   0  0  0  0  0  0  0  0  0  0  0  0
   29.3698   37.9453   19.4432 C   0  0  1  0  0  0  0  0  0  0  0  0
   29.6451   38.8860   20.4458 O   0  0  0  0  0  0  0  0  0  0  0  0
   27.9281   37.4826   19.5734 C   0  0  0  0  0  0  0  0  0  0  0  0
   28.0238   34.7088   19.1078 N   0  0  0  0  0  0  0  0  0  0  0  0
   28.0187   33.3611   18.8204 C   0  0  0  0  0  0  0  0  0  0  0  0
   28.2112   32.9758   17.6709 O   0  0  0  0  0  0  0  0  0  0  0  0
   27.7961   32.4365   19.8151 N   0  0  0  0  0  0  0  0  0  0  0  0
   27.5868   32.8519   21.1157 C   0  0  0  0  0  0  0  0  0  0  0  0
   27.5894   34.2097   21.4151 C   0  0  1  0  0  0  0  0  0  0  0  0
   27.4066   32.0189   22.0064 O   0  0  0  0  0  0  0  0  0  0  0  0
   27.3840   35.9819   23.0079 C   0  0  2  0  0  0  0  0  0  0  0  0
   27.3790   34.6320   22.7125 N   0  0  0  0  0  0  0  0  0  0  0  0
   27.1711   36.4073   24.3196 C   0  0  0  0  0  0  0  0  0  0  0  0
   27.1689   37.7628   24.6267 C   0  0  1  0  0  0  0  0  0  0  0  0
   26.9337   38.1821   26.0433 C   0  0  0  0  0  0  0  0  0  0  0  0
   27.3870   38.7075   23.6125 C   0  0  1  0  0  0  0  0  0  0  0  0
   27.4015   40.1830   23.9043 C   0  0  0  0  0  0  0  0  0  0  0  0
   27.5975   38.2800   22.3042 C   0  0  0  0  0  0  0  0  0  0  0  0
   27.5958   36.9189   21.9938 C   0  0  1  0  0  0  0  0  0  0  0  0
   27.8059   35.1402   20.4007 C   0  0  1  0  0  0  0  0  0  0  0  0
   27.8029   36.4911   20.6910 N   0  0  0  0  0  0  0  0  0  0  0  0
  1  2  1  6  0  0  0
  1  3  1  0  0  0  0
  1  4  2  0  0  0  0
  1  6  1  0  0  0  0
  5  6  1  0  0  0  0
  7  5  1  6  0  0  0
  7  8  1  0  0  0  0
  7  9  1  0  0  0  0
  9 10  1  1  0  0  0
  9 11  1  0  0  0  0
 11 12  1  1  0  0  0
 11 13  1  0  0  0  0
 13 31  1  0  0  0  0
 14 15  1  0  0  0  0
 15 16  2  0  0  0  0
 15 17  1  0  0  0  0
 17 18  1  0  0  0  0
 18 20  2  0  0  0  0
 19 18  1  1  0  0  0
 19 22  1  0  0  0  0
 19 30  1  0  0  0  0
 21 23  1  6  0  0  0
 21 29  1  0  0  0  0
 21 22  1  0  0  0  0
 23 24  1  0  0  0  0
 24 25  1  1  0  0  0
 24 26  1  0  0  0  0
 26 27  1  1  0  0  0
 26 28  1  0  0  0  0
 29 28  1  1  0  0  0
 29 31  1  0  0  0  0
 30 14  1  1  0  0  0
 30 31  1  0  0  0  0
M  CHG  1   3  -1
M  END
>  <CHROM.1>
-69.04911164,-36.92957380,80.19701964,53.92428939,-45.82634412,162.86588881
86.66979020,28.03106929,37.96725913,19.94461612,1.18814919,1.37970899,-0.18312568

>  <Name>
ligand

>  <RI>
0

>  <Rbt.Current_Directory>
/home/itssahil/PROJECTS/Mol_Feturizer/New_Systems/rnas/3F2T

>  <Rbt.Executable>
rbdock ($Id: //depot/dev/client3/rdock/2013.1/src/exe/rbdock.cxx#4 $)

>  <Rbt.Library>
libRbt.so (2013.1, Build901 2013/11/27)

>  <Rbt.Parameter_File>
/export/apps/rDock/src/rDock_2013.1_src/data/scripts/dock_solv.prm

>  <Rbt.Receptor>
prm/blind_docking_80.prm

>  <SCORE>
-29.7041

>  <SCORE.INTER>
-31.8492

>  <SCORE.INTER.CONST>
1

>  <SCORE.INTER.POLAR>
0

>  <SCORE.INTER.ROT>
7

>  <SCORE.INTER.SOLV>
18.0171

>  <SCORE.INTER.VDW>
-35.5052

>  <SCORE.INTER.norm>
-1.02739

>  <SCORE.INTRA>
2.14513

>  <SCORE.INTRA.DIHEDRAL>
0.994363

>  <SCORE.INTRA.DIHEDRAL.0>
4.64198

>  <SCORE.INTRA.POLAR>
0

>  <SCORE.INTRA.POLAR.0>
0

>  <SCORE.INTRA.REPUL>
0

>  <SCORE.INTRA.REPUL.0>
0

>  <SCORE.INTRA.SOLV>
2.19183

>  <SCORE.INTRA.SOLV.lig_0>
-49.3611

>  <SCORE.INTRA.VDW>
0.552032

>  <SCORE.INTRA.VDW.0>
-1.91858

>  <SCORE.INTRA.norm>
0.0691978

>  <SCORE.RESTR>
0

>  <SCORE.RESTR.CAVITY>
0

>  <SCORE.RESTR.norm>
0

>  <SCORE.SYSTEM>
0

>  <SCORE.SYSTEM.CONST>
0

>  <SCORE.SYSTEM.DIHEDRAL>
0

>  <SCORE.SYSTEM.SOLV>
0

>  <SCORE.SYSTEM.norm>
0

>  <SCORE.heavy>
31

>  <SCORE.norm>
-0.958196

>  <RMSD>
1.564

$$$$
ligand
 OpenBabel11021811473D
libRbt.so/2013.1/901 2013/11/27
 31 33  0  0  0  0  0  0  0  0999 V2000
   28.5419   41.9281   16.9664 P   0  0  1  0  0  0  0  0  0  0  0  0
   28.5963   42.7094   15.6781 O   0  0  0  0  0  0  0  0  0  0  0  0
   27.8904   40.5978   16.6966 O   0  5  0  0  0  0  0  0  0  0  0  0
   29.9623   41.7798   17.4382 O   0  0  0  0  0  0  0  0  0  0  0  0
   27.8517   42.2983   19.4678 C   0  0  0  0  0  0  0  0  0  0  0  0
   27.6976   42.6691   18.1137 O   0  0  0  0  0  0  0  0  0  0  0  0
   27.1466   40.9657   19.7072 C   0  0  1  0  0  0  0  0  0  0  0  0
   26.0833   40.8163   18.7874 O   0  0  0  0  0  0  0  0  0  0  0  0
   28.1259   39.8189   19.5219 C   0  0  1  0  0  0  0  0  0  0  0  0
   29.1777   39.9814   20.4355 O   0  0  0  0  0  0  0  0  0  0  0  0
   27.4845   38.4600   19.7473 C   0  0  1  0  0  0  0  0  0  0  0  0
   26.6460   38.1833   18.6581 O   0  0  0  0  0  0  0  0  0  0  0  0
   28.5406   37.3725   19.8547 C   0  0  0  0  0  0  0  0  0  0  0  0
   28.4751   34.6137   19.3027 N   0  0  0  0  0  0  0  0  0  0  0  0
   28.4029   33.2795   18.9657 C   0  0  0  0  0  0  0  0  0  0  0  0
   28.7520   32.9064   17.8495 O   0  0  0  0  0  0  0  0  0  0  0  0
   27.9381   32.3550   19.8729 N   0  0  0  0  0  0  0  0  0  0  0  0
   27.5497   32.7558   21.1364 C   0  0  0  0  0  0  0  0  0  0  0  0
   27.6184   34.1000   21.4852 C   0  0  1  0  0  0  0  0  0  0  0  0
   27.1519   31.9212   21.9517 O   0  0  0  0  0  0  0  0  0  0  0  0
   27.3009   35.8441   23.0906 C   0  0  2  0  0  0  0  0  0  0  0  0
   27.2301   34.5078   22.7456 N   0  0  0  0  0  0  0  0  0  0  0  0
   26.9080   36.2549   24.3648 C   0  0  0  0  0  0  0  0  0  0  0  0
   26.9704   37.5971   24.7203 C   0  0  1  0  0  0  0  0  0  0  0  0
   26.5375   38.0014   26.0941 C   0  0  0  0  0  0  0  0  0  0  0  0
   27.4358   38.5426   23.7939 C   0  0  1  0  0  0  0  0  0  0  0  0
   27.5274   40.0030   24.1418 C   0  0  0  0  0  0  0  0  0  0  0  0
   27.8256   38.1297   22.5226 C   0  0  0  0  0  0  0  0  0  0  0  0
   27.7595   36.7824   22.1629 C   0  0  1  0  0  0  0  0  0  0  0  0
   28.0810   35.0314   20.5578 C   0  0  1  0  0  0  0  0  0  0  0  0
   28.1450   36.3695   20.8964 N   0  0  0  0  0  0  0  0  0  0  0  0
  1  2  1  6  0  0  0
  1  3  1  0  0  0  0
  1  4  2  0  0  0  0
  1  6  1  0  0  0  0
  5  6  1  0  0  0  0
  7  5  1  6  0  0  0
  7  8  1  0  0  0  0
  7  9  1  0  0  0  0
  9 10  1  1  0  0  0
  9 11  1  0  0  0  0
 11 12  1  6  0  0  0
 11 13  1  0  0  0  0
 13 31  1  0  0  0  0
 14 15  1  0  0  0  0
 15 16  2  0  0  0  0
 15 17  1  0  0  0  0
 17 18  1  0  0  0  0
 18 20  2  0  0  0  0
 19 18  1  1  0  0  0
 19 22  1  0  0  0  0
 19 30  1  0  0  0  0
 21 23  1  6  0  0  0
 21 29  1  0  0  0  0
 21 22  1  0  0  0  0
 23 24  1  0  0  0  0
 24 25  1  1  0  0  0
 24 26  1  0  0  0  0
 26 27  1  1  0  0  0
 26 28  1  0  0  0  0
 29 28  1  1  0  0  0
 29 31  1  0  0  0  0
 30 14  1  1  0  0  0
 30 31  1  0  0  0  0
M  CHG  1   3  -1
M  END
>  <CHROM.1>
-74.71535741,-161.68652274,-27.39751818,59.41097206,72.57492398,141.86678339
-50.22963580,27.82946214,37.92399629,20.26805785,-1.17806701,-1.37976588
3.02780357

>  <Name>
ligand

>  <RI>
0

>  <Rbt.Current_Directory>
/home/itssahil/PROJECTS/Mol_Feturizer/New_Systems/rnas/3F2T

>  <Rbt.Executable>
rbdock ($Id: //depot/dev/client3/rdock/2013.1/src/exe/rbdock.cxx#4 $)

>  <Rbt.Library>
libRbt.so (2013.1, Build901 2013/11/27)

>  <Rbt.Parameter_File>
/export/apps/rDock/src/rDock_2013.1_src/data/scripts/dock_solv.prm

>  <Rbt.Receptor>
prm/pocket_docking_3.prm

>  <SCORE>
-27.3675

>  <SCORE.INTER>
-33.6735

>  <SCORE.INTER.CONST>
1

>  <SCORE.INTER.POLAR>
0

>  <SCORE.INTER.ROT>
7

>  <SCORE.INTER.SOLV>
17.0412

>  <SCORE.INTER.VDW>
-36.3961

>  <SCORE.INTER.norm>
-1.08624

>  <SCORE.INTRA>
6.30601

>  <SCORE.INTRA.DIHEDRAL>
5.39022

>  <SCORE.INTRA.DIHEDRAL.0>
4.64198

>  <SCORE.INTRA.POLAR>
0

>  <SCORE.INTRA.POLAR.0>
0

>  <SCORE.INTRA.REPUL>
0

>  <SCORE.INTRA.REPUL.0>
0

>  <SCORE.INTRA.SOLV>
6.49414

>  <SCORE.INTRA.SOLV.lig_0>
-49.3611

>  <SCORE.INTRA.VDW>
0.363826

>  <SCORE.INTRA.VDW.0>
-1.91858

>  <SCORE.INTRA.norm>
0.20342

>  <SCORE.RESTR>
0

>  <SCORE.RESTR.CAVITY>
0

>  <SCORE.RESTR.norm>
0

>  <SCORE.SYSTEM>
0

>  <SCORE.SYSTEM.CONST>
0

>  <SCORE.SYSTEM.DIHEDRAL>
0

>  <SCORE.SYSTEM.SOLV>
0

>  <SCORE.SYSTEM.norm>
0

>  <SCORE.heavy>
31

>  <SCORE.norm>
-0.882824

>  <RMSD>
1.570

$$$$
ligand
 OpenBabel11021811473D
libRbt.so/2013.1/901 2013/11/27
 31 33  0  0  0  0  0  0  0  0999 V2000
   25.8270   43.9310   16.0413 P   0  0  1  0  0  0  0  0  0  0  0  0
   24.8237   44.0940   14.9277 O   0  0  0  0  0  0  0  0  0  0  0  0
   27.1900   44.3025   15.5205 O   0  5  0  0  0  0  0  0  0  0  0  0
   25.3796   44.8346   17.1572 O   0  0  0  0  0  0  0  0  0  0  0  0
   26.8726   42.0720   17.5649 C   0  0  0  0  0  0  0  0  0  0  0  0
   25.9037   42.4279   16.6009 O   0  0  0  0  0  0  0  0  0  0  0  0
   26.6929   40.6031   17.9393 C   0  0  1  0  0  0  0  0  0  0  0  0
   26.8621   39.7940   16.7924 O   0  0  0  0  0  0  0  0  0  0  0  0
   27.7220   40.2031   18.9831 C   0  0  1  0  0  0  0  0  0  0  0  0
   27.6970   41.1506   20.0169 O   0  0  0  0  0  0  0  0  0  0  0  0
   27.4548   38.8275   19.5706 C   0  0  1  0  0  0  0  0  0  0  0  0
   27.2674   37.9264   18.5128 O   0  0  0  0  0  0  0  0  0  0  0  0
   28.6257   38.3639   20.4213 C   0  0  0  0  0  0  0  0  0  0  0  0
   28.5651   35.6689   19.6128 N   0  0  0  0  0  0  0  0  0  0  0  0
   28.4977   34.3725   19.1507 C   0  0  0  0  0  0  0  0  0  0  0  0
   28.8840   34.1017   18.0174 O   0  0  0  0  0  0  0  0  0  0  0  0
   27.9963   33.3717   19.9513 N   0  0  0  0  0  0  0  0  0  0  0  0
   27.5657   33.6567   21.2324 C   0  0  0  0  0  0  0  0  0  0  0  0
   27.6291   34.9621   21.7070 C   0  0  1  0  0  0  0  0  0  0  0  0
   27.1349   32.7534   21.9522 O   0  0  0  0  0  0  0  0  0  0  0  0
   27.2645   36.5521   23.4559 C   0  0  2  0  0  0  0  0  0  0  0  0
   27.1988   35.2544   22.9858 N   0  0  0  0  0  0  0  0  0  0  0  0
   26.8291   36.8462   24.7485 C   0  0  0  0  0  0  0  0  0  0  0  0
   26.8860   38.1490   25.2294 C   0  0  1  0  0  0  0  0  0  0  0  0
   26.4071   38.4276   26.6190 C   0  0  0  0  0  0  0  0  0  0  0  0
   27.3889   39.1724   24.4118 C   0  0  1  0  0  0  0  0  0  0  0  0
   27.4759   40.5934   24.8971 C   0  0  0  0  0  0  0  0  0  0  0  0
   27.8211   38.8761   23.1217 C   0  0  0  0  0  0  0  0  0  0  0  0
   27.7605   37.5686   22.6361 C   0  0  1  0  0  0  0  0  0  0  0  0
   28.1291   35.9716   20.8870 C   0  0  1  0  0  0  0  0  0  0  0  0
   28.1883   37.2719   21.3507 N   0  0  0  0  0  0  0  0  0  0  0  0
  1  2  1  6  0  0  0
  1  3  1  0  0  0  0
  1  4  2  0  0  0  0
  1  6  1  0  0  0  0
  5  6  1  0  0  0  0
  7  5  1  6  0  0  0
  7  8  1  0  0  0  0
  7  9  1  0  0  0  0
  9 10  1  1  0  0  0
  9 11  1  0  0  0  0
 11 12  1  6  0  0  0
 11 13  1  0  0  0  0
 13 31  1  0  0  0  0
 14 15  1  0  0  0  0
 15 16  2  0  0  0  0
 15 17  1  0  0  0  0
 17 18  1  0  0  0  0
 18 20  2  0  0  0  0
 19 18  1  1  0  0  0
 19 22  1  0  0  0  0
 19 30  1  0  0  0  0
 21 23  1  6  0  0  0
 21 29  1  0  0  0  0
 21 22  1  0  0  0  0
 23 24  1  0  0  0  0
 24 25  1  1  0  0  0
 24 26  1  0  0  0  0
 26 27  1  1  0  0  0
 26 28  1  0  0  0  0
 29 28  1  1  0  0  0
 29 31  1  0  0  0  0
 30 14  1  1  0  0  0
 30 31  1  0  0  0  0
M  CHG  1   3  -1
M  END
>  <CHROM.1>
178.53957043,174.48162583,60.43725977,49.79303156,50.25971880,160.65351285
-92.88003401,27.19888357,38.80771511,20.05015434,2.39855839,1.36441254,-1.48672690

>  <Name>
ligand

>  <RI>
0

>  <Rbt.Current_Directory>
/home/itssahil/PROJECTS/Mol_Feturizer/New_Systems/rnas/3F2T

>  <Rbt.Executable>
rbdock ($Id: //depot/dev/client3/rdock/2013.1/src/exe/rbdock.cxx#4 $)

>  <Rbt.Library>
libRbt.so (2013.1, Build901 2013/11/27)

>  <Rbt.Parameter_File>
/export/apps/rDock/src/rDock_2013.1_src/data/scripts/dock_solv.prm

>  <Rbt.Receptor>
prm/pocket_docking_3.prm

>  <SCORE>
-29.8985

>  <SCORE.INTER>
-29.6923

>  <SCORE.INTER.CONST>
1

>  <SCORE.INTER.POLAR>
0

>  <SCORE.INTER.ROT>
7

>  <SCORE.INTER.SOLV>
19.7459

>  <SCORE.INTER.VDW>
-34.6435

>  <SCORE.INTER.norm>
-0.957817

>  <SCORE.INTRA>
-0.216404

>  <SCORE.INTRA.DIHEDRAL>
-1.53178

>  <SCORE.INTRA.DIHEDRAL.0>
4.64198

>  <SCORE.INTRA.POLAR>
0

>  <SCORE.INTRA.POLAR.0>
0

>  <SCORE.INTRA.REPUL>
0

>  <SCORE.INTRA.REPUL.0>
0

>  <SCORE.INTRA.SOLV>
0.0119157

>  <SCORE.INTRA.SOLV.lig_0>
-49.3611

>  <SCORE.INTRA.VDW>
0.543531

>  <SCORE.INTRA.VDW.0>
-1.91858

>  <SCORE.INTRA.norm>
-0.00698076

>  <SCORE.RESTR>
0.0102515

>  <SCORE.RESTR.CAVITY>
0.0102515

>  <SCORE.RESTR.norm>
0.000330695

>  <SCORE.SYSTEM>
0

>  <SCORE.SYSTEM.CONST>
0

>  <SCORE.SYSTEM.DIHEDRAL>
0

>  <SCORE.SYSTEM.SOLV>
0

>  <SCORE.SYSTEM.norm>
0

>  <SCORE.heavy>
31

>  <SCORE.norm>
-0.964467

>  <RMSD>
1.572

$$$$
ligand
 OpenBabel11021811473D
libRbt.so/2013.1/901 2013/11/27
 31 33  0  0  0  0  0  0  0  0999 V2000
   25.8248   43.9950   16.0335 P   0  0  1  0  0  0  0  0  0  0  0  0
   27.1053   44.4508   15.3811 O   0  0  0  0  0  0  0  0  0  0  0  0
   25.5236   44.9064   17.1935 O   0  5  0  0  0  0  0  0  0  0  0  0
   24.7592   44.0533   14.9737 O   0  0  0  0  0  0  0  0  0  0  0  0
   26.8890   42.1351   17.5430 C   0  0  0  0  0  0  0  0  0  0  0  0
   25.9067   42.4922   16.5931 O   0  0  0  0  0  0  0  0  0  0  0  0
   26.7146   40.6657   17.9179 C   0  0  1  0  0  0  0  0  0  0  0  0
   26.9085   39.8553   16.7758 O   0  0  0  0  0  0  0  0  0  0  0  0
   27.7297   40.2760   18.9792 C   0  0  1  0  0  0  0  0  0  0  0  0
   27.6220   41.1771   20.0485 O   0  0  0  0  0  0  0  0  0  0  0  0
   27.5170   38.8652   19.5019 C   0  0  1  0  0  0  0  0  0  0  0  0
   27.4330   37.9974   18.4038 O   0  0  0  0  0  0  0  0  0  0  0  0
   28.6719   38.4361   20.3915 C   0  0  0  0  0  0  0  0  0  0  0  0
   28.6169   35.7535   19.5427 N   0  0  0  0  0  0  0  0  0  0  0  0
   28.5522   34.4640   19.0612 C   0  0  0  0  0  0  0  0  0  0  0  0
   28.9388   34.2111   17.9239 O   0  0  0  0  0  0  0  0  0  0  0  0
   28.0529   33.4502   19.8467 N   0  0  0  0  0  0  0  0  0  0  0  0
   27.6220   33.7151   21.1320 C   0  0  0  0  0  0  0  0  0  0  0  0
   27.6828   35.0133   21.6262 C   0  0  1  0  0  0  0  0  0  0  0  0
   27.1932   32.8002   21.8382 O   0  0  0  0  0  0  0  0  0  0  0  0
   27.3151   36.5762   23.3988 C   0  0  2  0  0  0  0  0  0  0  0  0
   27.2520   35.2855   22.9092 N   0  0  0  0  0  0  0  0  0  0  0  0
   26.8793   36.8499   24.6957 C   0  0  0  0  0  0  0  0  0  0  0  0
   26.9336   38.1454   25.1961 C   0  0  1  0  0  0  0  0  0  0  0  0
   26.4543   38.4021   26.5898 C   0  0  0  0  0  0  0  0  0  0  0  0
   27.4341   39.1820   24.3939 C   0  0  1  0  0  0  0  0  0  0  0  0
   27.5183   40.5957   24.9005 C   0  0  0  0  0  0  0  0  0  0  0  0
   27.8667   38.9060   23.0995 C   0  0  0  0  0  0  0  0  0  0  0  0
   27.8088   37.6059   22.5943 C   0  0  1  0  0  0  0  0  0  0  0  0
   28.1805   36.0361   20.8213 C   0  0  1  0  0  0  0  0  0  0  0  0
   28.2370   37.3294   21.3045 N   0  0  0  0  0  0  0  0  0  0  0  0
  1  2  1  6  0  0  0
  1  3  1  0  0  0  0
  1  4  2  0  0  0  0
  1  6  1  0  0  0  0
  5  6  1  0  0  0  0
  7  5  1  6  0  0  0
  7  8  1  0  0  0  0
  7  9  1  0  0  0  0
  9 10  1  1  0  0  0
  9 11  1  0  0  0  0
 11 12  1  6  0  0  0
 11 13  1  0  0  0  0
 13 31  1  0  0  0  0
 14 15  1  0  0  0  0
 15 16  2  0  0  0  0
 15 17  1  0  0  0  0
 17 18  1  0  0  0  0
 18 20  2  0  0  0  0
 19 18  1  1  0  0  0
 19 22  1  0  0  0  0
 19 30  1  0  0  0  0
 21 23  1  6  0  0  0
 21 29  1  0  0  0  0
 21 22  1  0  0  0  0
 23 24  1  0  0  0  0
 24 25  1  1  0  0  0
 24 26  1  0  0  0  0
 26 27  1  1  0  0  0
 26 28  1  0  0  0  0
 29 28  1  1  0  0  0
 29 31  1  0  0  0  0
 30 14  1  1  0  0  0
 30 31  1  0  0  0  0
M  CHG  1   3  -1
M  END
>  <CHROM.1>
178.71121649,57.97041738,62.23366194,53.46455662,51.21471286,157.90727351
-95.55114145,27.23526795,38.85825233,20.00698719,2.40465595,1.35932429,-1.49001835

>  <Name>
ligand

>  <RI>
0

>  <Rbt.Current_Directory>
/home/itssahil/PROJECTS/Mol_Feturizer/New_Systems/rnas/3F2T

>  <Rbt.Executable>
rbdock ($Id: //depot/dev/client3/rdock/2013.1/src/exe/rbdock.cxx#4 $)

>  <Rbt.Library>
libRbt.so (2013.1, Build901 2013/11/27)

>  <Rbt.Parameter_File>
/export/apps/rDock/src/rDock_2013.1_src/data/scripts/dock_solv.prm

>  <Rbt.Receptor>
prm/pocket_docking_8.prm

>  <SCORE>
-30.5919

>  <SCORE.INTER>
-30.1067

>  <SCORE.INTER.CONST>
1

>  <SCORE.INTER.POLAR>
0

>  <SCORE.INTER.ROT>
7

>  <SCORE.INTER.SOLV>
18.6168

>  <SCORE.INTER.VDW>
-34.5434

>  <SCORE.INTER.norm>
-0.971185

>  <SCORE.INTRA>
-0.485186

>  <SCORE.INTRA.DIHEDRAL>
-1.51038

>  <SCORE.INTRA.DIHEDRAL.0>
4.64198

>  <SCORE.INTRA.POLAR>
0

>  <SCORE.INTRA.POLAR.0>
0

>  <SCORE.INTRA.REPUL>
0

>  <SCORE.INTRA.REPUL.0>
0

>  <SCORE.INTRA.SOLV>
-0.476289

>  <SCORE.INTRA.SOLV.lig_0>
-49.3611

>  <SCORE.INTRA.VDW>
0.508148

>  <SCORE.INTRA.VDW.0>
-1.91858

>  <SCORE.INTRA.norm>
-0.0156512

>  <SCORE.RESTR>
0

>  <SCORE.RESTR.CAVITY>
0

>  <SCORE.RESTR.norm>
0

>  <SCORE.SYSTEM>
0

>  <SCORE.SYSTEM.CONST>
0

>  <SCORE.SYSTEM.DIHEDRAL>
0

>  <SCORE.SYSTEM.SOLV>
0

>  <SCORE.SYSTEM.norm>
0

>  <SCORE.heavy>
31

>  <SCORE.norm>
-0.986836

>  <RMSD>
1.580

$$$$
ligand
 OpenBabel11021811473D
libRbt.so/2013.1/901 2013/11/27
 31 33  0  0  0  0  0  0  0  0999 V2000
   27.8002   42.6021   16.8419 P   0  0  1  0  0  0  0  0  0  0  0  0
   26.8417   41.8745   15.9336 O   0  0  0  0  0  0  0  0  0  0  0  0
   27.8608   44.0466   16.4214 O   0  5  0  0  0  0  0  0  0  0  0  0
   27.2726   42.4393   18.2409 O   0  0  0  0  0  0  0  0  0  0  0  0
   29.5018   40.6142   16.6887 C   0  0  0  0  0  0  0  0  0  0  0  0
   29.2907   42.0074   16.7859 O   0  0  0  0  0  0  0  0  0  0  0  0
   29.0589   39.9471   17.9882 C   0  0  1  0  0  0  0  0  0  0  0  0
   27.6541   39.7880   17.9885 O   0  0  0  0  0  0  0  0  0  0  0  0
   29.7114   38.5812   18.1200 C   0  0  1  0  0  0  0  0  0  0  0  0
   31.0996   38.7388   17.9960 O   0  0  0  0  0  0  0  0  0  0  0  0
   29.4093   37.9148   19.4517 C   0  0  1  0  0  0  0  0  0  0  0  0
   29.5246   38.8797   20.4625 O   0  0  0  0  0  0  0  0  0  0  0  0
   28.0018   37.3420   19.4650 C   0  0  0  0  0  0  0  0  0  0  0  0
   28.1409   34.5695   19.0025 N   0  0  0  0  0  0  0  0  0  0  0  0
   28.1585   33.2219   18.7153 C   0  0  0  0  0  0  0  0  0  0  0  0
   28.3851   32.8389   17.5713 O   0  0  0  0  0  0  0  0  0  0  0  0
   27.9206   32.2947   19.7040 N   0  0  0  0  0  0  0  0  0  0  0  0
   27.6729   32.7075   20.9987 C   0  0  0  0  0  0  0  0  0  0  0  0
   27.6524   34.0653   21.2978 C   0  0  1  0  0  0  0  0  0  0  0  0
   27.4790   31.8725   21.8845 O   0  0  0  0  0  0  0  0  0  0  0  0
   27.3856   35.8347   22.8844 C   0  0  2  0  0  0  0  0  0  0  0  0
   27.4036   34.4849   22.5892 N   0  0  0  0  0  0  0  0  0  0  0  0
   27.1339   36.2576   24.1901 C   0  0  0  0  0  0  0  0  0  0  0  0
   27.1084   37.6130   24.4968 C   0  0  1  0  0  0  0  0  0  0  0  0
   26.8318   38.0294   25.9068 C   0  0  0  0  0  0  0  0  0  0  0  0
   27.3421   38.5602   23.4884 C   0  0  1  0  0  0  0  0  0  0  0  0
   27.3323   40.0357   23.7803 C   0  0  0  0  0  0  0  0  0  0  0  0
   27.5913   38.1352   22.1861 C   0  0  0  0  0  0  0  0  0  0  0  0
   27.6131   36.7742   21.8760 C   0  0  1  0  0  0  0  0  0  0  0  0
   27.8846   34.9982   20.2892 C   0  0  1  0  0  0  0  0  0  0  0  0
   27.8588   36.3490   20.5791 N   0  0  0  0  0  0  0  0  0  0  0  0
  1  2  1  6  0  0  0
  1  3  1  0  0  0  0
  1  4  2  0  0  0  0
  1  6  1  0  0  0  0
  5  6  1  0  0  0  0
  7  5  1  6  0  0  0
  7  8  1  0  0  0  0
  7  9  1  0  0  0  0
  9 10  1  1  0  0  0
  9 11  1  0  0  0  0
 11 12  1  1  0  0  0
 11 13  1  0  0  0  0
 13 31  1  0  0  0  0
 14 15  1  0  0  0  0
 15 16  2  0  0  0  0
 15 17  1  0  0  0  0
 17 18  1  0  0  0  0
 18 20  2  0  0  0  0
 19 18  1  1  0  0  0
 19 22  1  0  0  0  0
 19 30  1  0  0  0  0
 21 23  1  6  0  0  0
 21 29  1  0  0  0  0
 21 22  1  0  0  0  0
 23 24  1  0  0  0  0
 24 25  1  1  0  0  0
 24 26  1  0  0  0  0
 26 27  1  1  0  0  0
 26 28  1  0  0  0  0
 29 28  1  1  0  0  0
 29 31  1  0  0  0  0
 30 14  1  1  0  0  0
 30 31  1  0  0  0  0
M  CHG  1   3  -1
M  END
>  <CHROM.1>
-68.08696532,-38.62656786,80.36741793,54.33097459,-42.94651483,162.80771449
81.56597250,28.07415247,37.86183325,19.86656313,-1.23145046,-1.35710208,2.93069259

>  <Name>
ligand

>  <RI>
0

>  <Rbt.Current_Directory>
/home/itssahil/PROJECTS/Mol_Feturizer/New_Systems/rnas/3F2T

>  <Rbt.Executable>
rbdock ($Id: //depot/dev/client3/rdock/2013.1/src/exe/rbdock.cxx#4 $)

>  <Rbt.Library>
libRbt.so (2013.1, Build901 2013/11/27)

>  <Rbt.Parameter_File>
/export/apps/rDock/src/rDock_2013.1_src/data/scripts/dock_solv.prm

>  <Rbt.Receptor>
prm/pocket_docking_4.prm

>  <SCORE>
-29.7102

>  <SCORE.INTER>
-32.1999

>  <SCORE.INTER.CONST>
1

>  <SCORE.INTER.POLAR>
0

>  <SCORE.INTER.ROT>
7

>  <SCORE.INTER.SOLV>
18.1409

>  <SCORE.INTER.VDW>
-35.7802

>  <SCORE.INTER.norm>
-1.03871

>  <SCORE.INTRA>
2.48969

>  <SCORE.INTRA.DIHEDRAL>
1.11054

>  <SCORE.INTRA.DIHEDRAL.0>
4.64198

>  <SCORE.INTRA.POLAR>
0

>  <SCORE.INTRA.POLAR.0>
0

>  <SCORE.INTRA.REPUL>
0

>  <SCORE.INTRA.REPUL.0>
0

>  <SCORE.INTRA.SOLV>
2.31211

>  <SCORE.INTRA.SOLV.lig_0>
-49.3611

>  <SCORE.INTRA.VDW>
0.778367

>  <SCORE.INTRA.VDW.0>
-1.91858

>  <SCORE.INTRA.norm>
0.0803126

>  <SCORE.RESTR>
0

>  <SCORE.RESTR.CAVITY>
0

>  <SCORE.RESTR.norm>
0

>  <SCORE.SYSTEM>
0

>  <SCORE.SYSTEM.CONST>
0

>  <SCORE.SYSTEM.DIHEDRAL>
0

>  <SCORE.SYSTEM.SOLV>
0

>  <SCORE.SYSTEM.norm>
0

>  <SCORE.heavy>
31

>  <SCORE.norm>
-0.958394

>  <RMSD>
1.581

$$$$
ligand
 OpenBabel11021811473D
libRbt.so/2013.1/901 2013/11/27
 31 33  0  0  0  0  0  0  0  0999 V2000
   27.8260   42.6429   16.9074 P   0  0  1  0  0  0  0  0  0  0  0  0
   26.8964   41.8579   16.0170 O   0  0  0  0  0  0  0  0  0  0  0  0
   27.8785   44.0649   16.4154 O   0  5  0  0  0  0  0  0  0  0  0  0
   27.2697   42.5441   18.3012 O   0  0  0  0  0  0  0  0  0  0  0  0
   29.5557   40.6756   16.8168 C   0  0  0  0  0  0  0  0  0  0  0  0
   29.3243   42.0655   16.9135 O   0  0  0  0  0  0  0  0  0  0  0  0
   29.1061   40.0002   18.1098 C   0  0  1  0  0  0  0  0  0  0  0  0
   27.6989   39.8642   18.1129 O   0  0  0  0  0  0  0  0  0  0  0  0
   29.7366   38.6224   18.2230 C   0  0  1  0  0  0  0  0  0  0  0  0
   31.1274   38.7597   18.1043 O   0  0  0  0  0  0  0  0  0  0  0  0
   29.4208   37.9416   19.5443 C   0  0  1  0  0  0  0  0  0  0  0  0
   29.5219   38.8964   20.5661 O   0  0  0  0  0  0  0  0  0  0  0  0
   28.0146   37.3653   19.5354 C   0  0  0  0  0  0  0  0  0  0  0  0
   28.1698   34.5985   19.0447 N   0  0  0  0  0  0  0  0  0  0  0  0
   28.1960   33.2542   18.7432 C   0  0  0  0  0  0  0  0  0  0  0  0
   28.4382   32.8845   17.5980 O   0  0  0  0  0  0  0  0  0  0  0  0
   27.9494   32.3155   19.7189 N   0  0  0  0  0  0  0  0  0  0  0  0
   27.6842   32.7133   21.0148 C   0  0  0  0  0  0  0  0  0  0  0  0
   27.6549   34.0677   21.3282 C   0  0  1  0  0  0  0  0  0  0  0  0
   27.4826   31.8680   21.8890 O   0  0  0  0  0  0  0  0  0  0  0  0
   27.3619   35.8189   22.9304 C   0  0  2  0  0  0  0  0  0  0  0  0
   27.3886   34.4724   22.6209 N   0  0  0  0  0  0  0  0  0  0  0  0
   27.0925   36.2266   24.2374 C   0  0  0  0  0  0  0  0  0  0  0  0
   27.0581   37.5785   24.5584 C   0  0  1  0  0  0  0  0  0  0  0  0
   26.7625   37.9786   25.9692 C   0  0  0  0  0  0  0  0  0  0  0  0
   27.3007   38.5374   23.5633 C   0  0  1  0  0  0  0  0  0  0  0  0
   27.2818   40.0096   23.8709 C   0  0  0  0  0  0  0  0  0  0  0  0
   27.5676   38.1275   22.2597 C   0  0  0  0  0  0  0  0  0  0  0  0
   27.5983   36.7700   21.9351 C   0  0  1  0  0  0  0  0  0  0  0  0
   27.8960   35.0124   20.3327 C   0  0  1  0  0  0  0  0  0  0  0  0
   27.8616   36.3598   20.6368 N   0  0  0  0  0  0  0  0  0  0  0  0
  1  2  1  6  0  0  0
  1  3  1  0  0  0  0
  1  4  2  0  0  0  0
  1  6  1  0  0  0  0
  5  6  1  0  0  0  0
  7  5  1  6  0  0  0
  7  8  1  0  0  0  0
  7  9  1  0  0  0  0
  9 10  1  1  0  0  0
  9 11  1  0  0  0  0
 11 12  1  1  0  0  0
 11 13  1  0  0  0  0
 13 31  1  0  0  0  0
 14 15  1  0  0  0  0
 15 16  2  0  0  0  0
 15 17  1  0  0  0  0
 17 18  1  0  0  0  0
 18 20  2  0  0  0  0
 19 18  1  1  0  0  0
 19 22  1  0  0  0  0
 19 30  1  0  0  0  0
 21 23  1  6  0  0  0
 21 29  1  0  0  0  0
 21 22  1  0  0  0  0
 23 24  1  0  0  0  0
 24 25  1  1  0  0  0
 24 26  1  0  0  0  0
 26 27  1  1  0  0  0
 26 28  1  0  0  0  0
 29 28  1  1  0  0  0
 29 31  1  0  0  0  0
 30 14  1  1  0  0  0
 30 31  1  0  0  0  0
M  CHG  1   3  -1
M  END
>  <CHROM.1>
-69.94066061,-35.09728542,78.33727104,54.68236891,-41.74479600,162.76323818
81.66252601,28.08250108,37.87949824,19.93168756,-1.23268762,-1.34512432,2.93356635

>  <Name>
ligand

>  <RI>
0

>  <Rbt.Current_Directory>
/home/itssahil/PROJECTS/Mol_Feturizer/New_Systems/rnas/3F2T

>  <Rbt.Executable>
rbdock ($Id: //depot/dev/client3/rdock/2013.1/src/exe/rbdock.cxx#4 $)

>  <Rbt.Library>
libRbt.so (2013.1, Build901 2013/11/27)

>  <Rbt.Parameter_File>
/export/apps/rDock/src/rDock_2013.1_src/data/scripts/dock_solv.prm

>  <Rbt.Receptor>
prm/pocket_docking_6.prm

>  <SCORE>
-29.6697

>  <SCORE.INTER>
-32.1399

>  <SCORE.INTER.CONST>
1

>  <SCORE.INTER.POLAR>
0

>  <SCORE.INTER.ROT>
7

>  <SCORE.INTER.SOLV>
18.4985

>  <SCORE.INTER.VDW>
-35.8594

>  <SCORE.INTER.norm>
-1.03677

>  <SCORE.INTRA>
2.47021

>  <SCORE.INTRA.DIHEDRAL>
1.36157

>  <SCORE.INTRA.DIHEDRAL.0>
4.64198

>  <SCORE.INTRA.POLAR>
0

>  <SCORE.INTRA.POLAR.0>
0

>  <SCORE.INTRA.REPUL>
0

>  <SCORE.INTRA.REPUL.0>
0

>  <SCORE.INTRA.SOLV>
2.21409

>  <SCORE.INTRA.SOLV.lig_0>
-49.3611

>  <SCORE.INTRA.VDW>
0.682379

>  <SCORE.INTRA.VDW.0>
-1.91858

>  <SCORE.INTRA.norm>
0.0796841

>  <SCORE.RESTR>
0

>  <SCORE.RESTR.CAVITY>
0

>  <SCORE.RESTR.norm>
0

>  <SCORE.SYSTEM>
0

>  <SCORE.SYSTEM.CONST>
0

>  <SCORE.SYSTEM.DIHEDRAL>
0

>  <SCORE.SYSTEM.SOLV>
0

>  <SCORE.SYSTEM.norm>
0

>  <SCORE.heavy>
31

>  <SCORE.norm>
-0.957086

>  <RMSD>
1.594

$$$$
ligand
 OpenBabel11021811473D
libRbt.so/2013.1/901 2013/11/27
 31 33  0  0  0  0  0  0  0  0999 V2000
   25.4193   43.5424   16.2389 P   0  0  1  0  0  0  0  0  0  0  0  0
   26.0690   44.8200   16.7065 O   0  0  0  0  0  0  0  0  0  0  0  0
   24.2165   43.8908   15.4029 O   0  5  0  0  0  0  0  0  0  0  0  0
   26.4607   42.7948   15.4522 O   0  0  0  0  0  0  0  0  0  0  0  0
   25.8149   42.2630   18.4921 C   0  0  0  0  0  0  0  0  0  0  0  0
   24.9272   42.6098   17.4498 O   0  0  0  0  0  0  0  0  0  0  0  0
   26.3022   40.8317   18.2816 C   0  0  1  0  0  0  0  0  0  0  0  0
   26.9953   40.7393   17.0529 O   0  0  0  0  0  0  0  0  0  0  0  0
   27.2384   40.4303   19.4091 C   0  0  1  0  0  0  0  0  0  0  0  0
   26.5792   40.6402   20.6292 O   0  0  0  0  0  0  0  0  0  0  0  0
   27.6647   38.9743   19.3248 C   0  0  1  0  0  0  0  0  0  0  0  0
   28.1917   38.7437   18.0461 O   0  0  0  0  0  0  0  0  0  0  0  0
   28.7242   38.6578   20.3672 C   0  0  0  0  0  0  0  0  0  0  0  0
   28.6736   36.0143   19.4031 N   0  0  0  0  0  0  0  0  0  0  0  0
   28.6119   34.7469   18.8658 C   0  0  0  0  0  0  0  0  0  0  0  0
   29.0105   34.5423   17.7229 O   0  0  0  0  0  0  0  0  0  0  0  0
   28.1022   33.7014   19.6014 N   0  0  0  0  0  0  0  0  0  0  0  0
   27.6577   33.9116   20.8922 C   0  0  0  0  0  0  0  0  0  0  0  0
   27.7154   35.1873   21.4425 C   0  0  1  0  0  0  0  0  0  0  0  0
   27.2196   32.9681   21.5536 O   0  0  0  0  0  0  0  0  0  0  0  0
   27.3311   36.6731   23.2766 C   0  0  2  0  0  0  0  0  0  0  0  0
   27.2711   35.4049   22.7313 N   0  0  0  0  0  0  0  0  0  0  0  0
   26.8816   36.8917   24.5793 C   0  0  0  0  0  0  0  0  0  0  0  0
   26.9327   38.1644   25.1357 C   0  0  1  0  0  0  0  0  0  0  0  0
   26.4386   38.3619   26.5338 C   0  0  0  0  0  0  0  0  0  0  0  0
   27.4439   39.2334   24.3843 C   0  0  1  0  0  0  0  0  0  0  0  0
   27.5250   40.6238   24.9523 C   0  0  0  0  0  0  0  0  0  0  0  0
   27.8902   39.0124   23.0840 C   0  0  0  0  0  0  0  0  0  0  0  0
   27.8355   37.7354   22.5227 C   0  0  1  0  0  0  0  0  0  0  0  0
   28.2237   36.2426   20.6878 C   0  0  1  0  0  0  0  0  0  0  0  0
   28.2773   37.5137   21.2270 N   0  0  0  0  0  0  0  0  0  0  0  0
  1  2  1  1  0  0  0
  1  3  1  0  0  0  0
  1  4  2  0  0  0  0
  1  6  1  0  0  0  0
  5  6  1  0  0  0  0
  7  5  1  1  0  0  0
  7  8  1  0  0  0  0
  7  9  1  0  0  0  0
  9 10  1  1  0  0  0
  9 11  1  0  0  0  0
 11 12  1  6  0  0  0
 11 13  1  0  0  0  0
 13 31  1  0  0  0  0
 14 15  1  0  0  0  0
 15 16  2  0  0  0  0
 15 17  1  0  0  0  0
 17 18  1  0  0  0  0
 18 20  2  0  0  0  0
 19 18  1  1  0  0  0
 19 22  1  0  0  0  0
 19 30  1  0  0  0  0
 21 23  1  6  0  0  0
 21 29  1  0  0  0  0
 21 22  1  0  0  0  0
 23 24  1  0  0  0  0
 24 25  1  1  0  0  0
 24 26  1  0  0  0  0
 26 27  1  1  0  0  0
 26 28  1  0  0  0  0
 29 28  1  1  0  0  0
 29 31  1  0  0  0  0
 30 14  1  1  0  0  0
 30 31  1  0  0  0  0
M  CHG  1   3  -1
M  END
>  <CHROM.1>
-102.48508618,-51.94237682,61.18894166,54.43022342,53.41724275,124.18914024
-105.07534927,27.10344112,38.90348318,20.04867841,2.43578204,1.28990367,-1.52117192

>  <Name>
ligand

>  <RI>
0

>  <Rbt.Current_Directory>
/home/itssahil/PROJECTS/Mol_Feturizer/New_Systems/rnas/3F2T

>  <Rbt.Executable>
rbdock ($Id: //depot/dev/client3/rdock/2013.1/src/exe/rbdock.cxx#4 $)

>  <Rbt.Library>
libRbt.so (2013.1, Build901 2013/11/27)

>  <Rbt.Parameter_File>
/export/apps/rDock/src/rDock_2013.1_src/data/scripts/dock_solv.prm

>  <Rbt.Receptor>
prm/pocket_docking_6.prm

>  <SCORE>
-24.4221

>  <SCORE.INTER>
-29.181

>  <SCORE.INTER.CONST>
1

>  <SCORE.INTER.POLAR>
0

>  <SCORE.INTER.ROT>
7

>  <SCORE.INTER.SOLV>
18.216

>  <SCORE.INTER.VDW>
-33.7927

>  <SCORE.INTER.norm>
-0.941323

>  <SCORE.INTRA>
4.75887

>  <SCORE.INTRA.DIHEDRAL>
7.84763

>  <SCORE.INTRA.DIHEDRAL.0>
4.64198

>  <SCORE.INTRA.POLAR>
0

>  <SCORE.INTRA.POLAR.0>
0

>  <SCORE.INTRA.REPUL>
0

>  <SCORE.INTRA.REPUL.0>
0

>  <SCORE.INTRA.SOLV>
1.6087

>  <SCORE.INTRA.SOLV.lig_0>
-49.3611

>  <SCORE.INTRA.VDW>
0.0307077

>  <SCORE.INTRA.VDW.0>
-1.91858

>  <SCORE.INTRA.norm>
0.153512

>  <SCORE.RESTR>
0

>  <SCORE.RESTR.CAVITY>
0

>  <SCORE.RESTR.norm>
0

>  <SCORE.SYSTEM>
0

>  <SCORE.SYSTEM.CONST>
0

>  <SCORE.SYSTEM.DIHEDRAL>
0

>  <SCORE.SYSTEM.SOLV>
0

>  <SCORE.SYSTEM.norm>
0

>  <SCORE.heavy>
31

>  <SCORE.norm>
-0.787811

>  <RMSD>
1.619

$$$$
ligand
 OpenBabel11021811473D
libRbt.so/2013.1/901 2013/11/27
 31 33  0  0  0  0  0  0  0  0999 V2000
   27.7207   42.3013   18.0392 P   0  0  1  0  0  0  0  0  0  0  0  0
   27.8978   41.6878   19.4050 O   0  0  0  0  0  0  0  0  0  0  0  0
   26.4937   43.1738   18.0579 O   0  5  0  0  0  0  0  0  0  0  0  0
   28.9719   43.0865   17.7564 O   0  0  0  0  0  0  0  0  0  0  0  0
   27.0772   39.9060   17.1913 C   0  0  0  0  0  0  0  0  0  0  0  0
   27.5319   41.2065   16.8799 O   0  0  0  0  0  0  0  0  0  0  0  0
   28.2606   38.9419   17.1717 C   0  0  1  0  0  0  0  0  0  0  0  0
   29.2167   39.3402   18.1340 O   0  0  0  0  0  0  0  0  0  0  0  0
   27.7895   37.5342   17.4957 C   0  0  1  0  0  0  0  0  0  0  0  0
   28.8613   36.6512   17.2986 O   0  0  0  0  0  0  0  0  0  0  0  0
   27.2965   37.3972   18.9265 C   0  0  1  0  0  0  0  0  0  0  0  0
   26.4286   36.2978   18.9893 O   0  0  0  0  0  0  0  0  0  0  0  0
   28.4573   37.1735   19.8814 C   0  0  0  0  0  0  0  0  0  0  0  0
   28.4316   34.3946   19.4374 N   0  0  0  0  0  0  0  0  0  0  0  0
   28.3794   33.0475   19.1523 C   0  0  0  0  0  0  0  0  0  0  0  0
   28.7456   32.6354   18.0555 O   0  0  0  0  0  0  0  0  0  0  0  0
   27.9155   32.1534   20.0900 N   0  0  0  0  0  0  0  0  0  0  0  0
   27.5079   32.5984   21.3325 C   0  0  0  0  0  0  0  0  0  0  0  0
   27.5563   33.9560   21.6290 C   0  0  1  0  0  0  0  0  0  0  0  0
   27.1109   31.7914   22.1755 O   0  0  0  0  0  0  0  0  0  0  0  0
   27.1995   35.7574   23.1611 C   0  0  2  0  0  0  0  0  0  0  0  0
   27.1488   34.4079   22.8681 N   0  0  0  0  0  0  0  0  0  0  0  0
   26.7872   36.2128   24.4138 C   0  0  0  0  0  0  0  0  0  0  0  0
   26.8292   37.5686   24.7171 C   0  0  1  0  0  0  0  0  0  0  0  0
   26.3758   38.0208   26.0691 C   0  0  0  0  0  0  0  0  0  0  0  0
   27.2937   38.4828   23.7594 C   0  0  1  0  0  0  0  0  0  0  0  0
   27.3637   39.9568   24.0507 C   0  0  0  0  0  0  0  0  0  0  0  0
   27.7029   38.0254   22.5096 C   0  0  0  0  0  0  0  0  0  0  0  0
   27.6572   36.6644   22.2024 C   0  0  1  0  0  0  0  0  0  0  0  0
   28.0181   34.8561   20.6708 C   0  0  1  0  0  0  0  0  0  0  0  0
   28.0621   36.2072   20.9573 N   0  0  0  0  0  0  0  0  0  0  0  0
  1  2  1  1  0  0  0
  1  3  1  0  0  0  0
  1  4  2  0  0  0  0
  1  6  1  0  0  0  0
  5  6  1  0  0  0  0
  7  5  1  1  0  0  0
  7  8  1  0  0  0  0
  7  9  1  0  0  0  0
  9 10  1  1  0  0  0
  9 11  1  0  0  0  0
 11 12  1  6  0  0  0
 11 13  1  0  0  0  0
 13 31  1  0  0  0  0
 14 15  1  0  0  0  0
 15 16  2  0  0  0  0
 15 17  1  0  0  0  0
 17 18  1  0  0  0  0
 18 20  2  0  0  0  0
 19 18  1  1  0  0  0
 19 22  1  0  0  0  0
 19 30  1  0  0  0  0
 21 23  1  6  0  0  0
 21 29  1  0  0  0  0
 21 22  1  0  0  0  0
 23 24  1  0  0  0  0
 24 25  1  1  0  0  0
 24 26  1  0  0  0  0
 26 27  1  1  0  0  0
 26 28  1  0  0  0  0
 29 28  1  1  0  0  0
 29 31  1  0  0  0  0
 30 14  1  1  0  0  0
 30 31  1  0  0  0  0
M  CHG  1   3  -1
M  END
>  <CHROM.1>
-102.91844627,22.33380881,60.45981792,172.38968476,157.08576077,-142.57145581
-98.34523128,27.69526909,37.45647802,20.18913037,1.41378141,1.38530817,-0.29404520

>  <Name>
ligand

>  <RI>
0

>  <Rbt.Current_Directory>
/home/itssahil/PROJECTS/Mol_Feturizer/New_Systems/rnas/3F2T

>  <Rbt.Executable>
rbdock ($Id: //depot/dev/client3/rdock/2013.1/src/exe/rbdock.cxx#4 $)

>  <Rbt.Library>
libRbt.so (2013.1, Build901 2013/11/27)

>  <Rbt.Parameter_File>
/export/apps/rDock/src/rDock_2013.1_src/data/scripts/dock_solv.prm

>  <Rbt.Receptor>
prm/pocket_docking_2.prm

>  <SCORE>
-23.3038

>  <SCORE.INTER>
-30.0642

>  <SCORE.INTER.CONST>
1

>  <SCORE.INTER.POLAR>
0

>  <SCORE.INTER.ROT>
7

>  <SCORE.INTER.SOLV>
18.3595

>  <SCORE.INTER.VDW>
-34.4293

>  <SCORE.INTER.norm>
-0.969812

>  <SCORE.INTRA>
6.16344

>  <SCORE.INTRA.DIHEDRAL>
9.59218

>  <SCORE.INTRA.DIHEDRAL.0>
4.64198

>  <SCORE.INTRA.POLAR>
0

>  <SCORE.INTRA.POLAR.0>
0

>  <SCORE.INTRA.REPUL>
0

>  <SCORE.INTRA.REPUL.0>
0

>  <SCORE.INTRA.SOLV>
0.811287

>  <SCORE.INTRA.SOLV.lig_0>
-49.3611

>  <SCORE.INTRA.VDW>
0.961712

>  <SCORE.INTRA.VDW.0>
-1.91858

>  <SCORE.INTRA.norm>
0.198821

>  <SCORE.RESTR>
0.596919

>  <SCORE.RESTR.CAVITY>
0.596919

>  <SCORE.RESTR.norm>
0.0192555

>  <SCORE.SYSTEM>
0

>  <SCORE.SYSTEM.CONST>
0

>  <SCORE.SYSTEM.DIHEDRAL>
0

>  <SCORE.SYSTEM.SOLV>
0

>  <SCORE.SYSTEM.norm>
0

>  <SCORE.heavy>
31

>  <SCORE.norm>
-0.751735

>  <RMSD>
1.632

$$$$
ligand
 OpenBabel11021811473D
libRbt.so/2013.1/901 2013/11/27
 31 33  0  0  0  0  0  0  0  0999 V2000
   28.3227   42.8325   16.9442 P   0  0  1  0  0  0  0  0  0  0  0  0
   27.2928   43.8259   16.4691 O   0  0  0  0  0  0  0  0  0  0  0  0
   29.2218   42.4802   15.7890 O   0  5  0  0  0  0  0  0  0  0  0  0
   29.0729   43.4962   18.0662 O   0  0  0  0  0  0  0  0  0  0  0  0
   27.3274   40.4308   16.6098 C   0  0  0  0  0  0  0  0  0  0  0  0
   27.6731   41.4727   17.4985 O   0  0  0  0  0  0  0  0  0  0  0  0
   26.8380   39.2279   17.4120 C   0  0  1  0  0  0  0  0  0  0  0  0
   26.4498   38.1925   16.5310 O   0  0  0  0  0  0  0  0  0  0  0  0
   27.9489   38.7186   18.3150 C   0  0  1  0  0  0  0  0  0  0  0  0
   28.3905   39.7807   19.1175 O   0  0  0  0  0  0  0  0  0  0  0  0
   27.4965   37.5792   19.2127 C   0  0  1  0  0  0  0  0  0  0  0  0
   26.9711   36.5627   18.4023 O   0  0  0  0  0  0  0  0  0  0  0  0
   28.6617   37.0261   20.0165 C   0  0  0  0  0  0  0  0  0  0  0  0
   28.5319   34.2523   19.5594 N   0  0  0  0  0  0  0  0  0  0  0  0
   28.4332   32.9096   19.2659 C   0  0  0  0  0  0  0  0  0  0  0  0
   28.8410   32.4829   18.1895 O   0  0  0  0  0  0  0  0  0  0  0  0
   27.8763   32.0364   20.1721 N   0  0  0  0  0  0  0  0  0  0  0  0
   27.4207   32.4977   21.3918 C   0  0  0  0  0  0  0  0  0  0  0  0
   27.5154   33.8510   21.6965 C   0  0  1  0  0  0  0  0  0  0  0  0
   26.9399   31.7085   22.2077 O   0  0  0  0  0  0  0  0  0  0  0  0
   27.1572   35.6643   23.2142 C   0  0  2  0  0  0  0  0  0  0  0  0
   27.0603   34.3191   22.9129 N   0  0  0  0  0  0  0  0  0  0  0  0
   26.6967   36.1361   24.4439 C   0  0  0  0  0  0  0  0  0  0  0  0
   26.7846   37.4879   24.7550 C   0  0  1  0  0  0  0  0  0  0  0  0
   26.2775   37.9583   26.0815 C   0  0  0  0  0  0  0  0  0  0  0  0
   27.3441   38.3812   23.8290 C   0  0  1  0  0  0  0  0  0  0  0  0
   27.4660   39.8498   24.1303 C   0  0  0  0  0  0  0  0  0  0  0  0
   27.8012   37.9076   22.6020 C   0  0  0  0  0  0  0  0  0  0  0  0
   27.7096   36.5507   22.2867 C   0  0  1  0  0  0  0  0  0  0  0  0
   28.0716   34.7303   20.7697 C   0  0  1  0  0  0  0  0  0  0  0  0
   28.1622   36.0773   21.0643 N   0  0  0  0  0  0  0  0  0  0  0  0
  1  2  1  6  0  0  0
  1  3  1  0  0  0  0
  1  4  2  0  0  0  0
  1  6  1  0  0  0  0
  5  6  1  0  0  0  0
  7  5  1  6  0  0  0
  7  8  1  0  0  0  0
  7  9  1  0  0  0  0
  9 10  1  1  0  0  0
  9 11  1  0  0  0  0
 11 12  1  6  0  0  0
 11 13  1  0  0  0  0
 13 31  1  0  0  0  0
 14 15  1  0  0  0  0
 15 16  2  0  0  0  0
 15 17  1  0  0  0  0
 17 18  1  0  0  0  0
 18 20  2  0  0  0  0
 19 18  1  1  0  0  0
 19 22  1  0  0  0  0
 19 30  1  0  0  0  0
 21 23  1  6  0  0  0
 21 29  1  0  0  0  0
 21 22  1  0  0  0  0
 23 24  1  0  0  0  0
 24 25  1  1  0  0  0
 24 26  1  0  0  0  0
 26 27  1  1  0  0  0
 26 28  1  0  0  0  0
 29 28  1  1  0  0  0
 29 31  1  0  0  0  0
 30 14  1  1  0  0  0
 30 31  1  0  0  0  0
M  CHG  1   3  -1
M  END
>  <CHROM.1>
175.58726383,84.42124275,178.20208226,55.47257746,55.59791344,170.03752502
-84.07048211,27.70822403,37.65162040,20.01179039,1.09515289,1.43403717,-0.08448548

>  <Name>
ligand

>  <RI>
0

>  <Rbt.Current_Directory>
/home/itssahil/PROJECTS/Mol_Feturizer/New_Systems/rnas/3F2T

>  <Rbt.Executable>
rbdock ($Id: //depot/dev/client3/rdock/2013.1/src/exe/rbdock.cxx#4 $)

>  <Rbt.Library>
libRbt.so (2013.1, Build901 2013/11/27)

>  <Rbt.Parameter_File>
/export/apps/rDock/src/rDock_2013.1_src/data/scripts/dock_solv.prm

>  <Rbt.Receptor>
prm/pocket_docking_8.prm

>  <SCORE>
-26.5655

>  <SCORE.INTER>
-26.9945

>  <SCORE.INTER.CONST>
1

>  <SCORE.INTER.POLAR>
0

>  <SCORE.INTER.ROT>
7

>  <SCORE.INTER.SOLV>
25.6821

>  <SCORE.INTER.VDW>
-34.8237

>  <SCORE.INTER.norm>
-0.870789

>  <SCORE.INTRA>
0.428943

>  <SCORE.INTRA.DIHEDRAL>
-2.15739

>  <SCORE.INTRA.DIHEDRAL.0>
4.64198

>  <SCORE.INTRA.POLAR>
0

>  <SCORE.INTRA.POLAR.0>
0

>  <SCORE.INTRA.REPUL>
0

>  <SCORE.INTRA.REPUL.0>
0

>  <SCORE.INTRA.SOLV>
0.515138

>  <SCORE.INTRA.SOLV.lig_0>
-49.3611

>  <SCORE.INTRA.VDW>
1.25007

>  <SCORE.INTRA.VDW.0>
-1.91858

>  <SCORE.INTRA.norm>
0.0138369

>  <SCORE.RESTR>
0

>  <SCORE.RESTR.CAVITY>
0

>  <SCORE.RESTR.norm>
0

>  <SCORE.SYSTEM>
0

>  <SCORE.SYSTEM.CONST>
0

>  <SCORE.SYSTEM.DIHEDRAL>
0

>  <SCORE.SYSTEM.SOLV>
0

>  <SCORE.SYSTEM.norm>
0

>  <SCORE.heavy>
31

>  <SCORE.norm>
-0.856952

>  <RMSD>
1.636

$$$$
ligand
 OpenBabel11021811473D
libRbt.so/2013.1/901 2013/11/27
 31 33  0  0  0  0  0  0  0  0999 V2000
   25.9011   44.1923   16.0671 P   0  0  1  0  0  0  0  0  0  0  0  0
   25.7606   45.3145   17.0642 O   0  0  0  0  0  0  0  0  0  0  0  0
   24.7488   44.2592   15.1003 O   0  5  0  0  0  0  0  0  0  0  0  0
   27.2271   44.3884   15.3850 O   0  0  0  0  0  0  0  0  0  0  0  0
   26.9091   42.3662   17.6544 C   0  0  0  0  0  0  0  0  0  0  0  0
   25.8890   42.7401   16.7520 O   0  0  0  0  0  0  0  0  0  0  0  0
   26.6744   40.9284   18.1103 C   0  0  1  0  0  0  0  0  0  0  0  0
   26.7466   40.0574   16.9991 O   0  0  0  0  0  0  0  0  0  0  0  0
   27.7318   40.5254   19.1243 C   0  0  1  0  0  0  0  0  0  0  0  0
   27.7852   41.5077   20.1241 O   0  0  0  0  0  0  0  0  0  0  0  0
   27.4403   39.1815   19.7705 C   0  0  1  0  0  0  0  0  0  0  0  0
   27.1597   38.2567   18.7547 O   0  0  0  0  0  0  0  0  0  0  0  0
   28.6349   38.6951   20.5741 C   0  0  0  0  0  0  0  0  0  0  0  0
   28.5276   36.0087   19.7425 N   0  0  0  0  0  0  0  0  0  0  0  0
   28.4356   34.7173   19.2706 C   0  0  0  0  0  0  0  0  0  0  0  0
   28.7842   34.4546   18.1233 O   0  0  0  0  0  0  0  0  0  0  0  0
   27.9513   33.7127   20.0769 N   0  0  0  0  0  0  0  0  0  0  0  0
   27.5631   33.9887   21.3735 C   0  0  0  0  0  0  0  0  0  0  0  0
   27.6517   35.2889   21.8582 C   0  0  1  0  0  0  0  0  0  0  0  0
   27.1477   33.0818   22.0978 O   0  0  0  0  0  0  0  0  0  0  0  0
   27.3545   36.8647   23.6325 C   0  0  2  0  0  0  0  0  0  0  0  0
   27.2637   35.5721   23.1524 N   0  0  0  0  0  0  0  0  0  0  0  0
   26.9619   37.1496   24.9407 C   0  0  0  0  0  0  0  0  0  0  0  0
   27.0442   38.4472   25.4319 C   0  0  1  0  0  0  0  0  0  0  0  0
   26.6110   38.7160   26.8384 C   0  0  0  0  0  0  0  0  0  0  0  0
   27.5295   39.4745   24.6087 C   0  0  1  0  0  0  0  0  0  0  0  0
   27.6430   40.8900   25.1045 C   0  0  0  0  0  0  0  0  0  0  0  0
   27.9189   39.1874   23.3031 C   0  0  0  0  0  0  0  0  0  0  0  0
   27.8328   37.8852   22.8072 C   0  0  1  0  0  0  0  0  0  0  0  0
   28.1340   36.3024   21.0325 C   0  0  1  0  0  0  0  0  0  0  0  0
   28.2180   37.5976   21.5064 N   0  0  0  0  0  0  0  0  0  0  0  0
  1  2  1  1  0  0  0
  1  3  1  0  0  0  0
  1  4  2  0  0  0  0
  1  6  1  0  0  0  0
  5  6  1  0  0  0  0
  7  5  1  6  0  0  0
  7  8  1  0  0  0  0
  7  9  1  0  0  0  0
  9 10  1  1  0  0  0
  9 11  1  0  0  0  0
 11 12  1  6  0  0  0
 11 13  1  0  0  0  0
 13 31  1  0  0  0  0
 14 15  1  0  0  0  0
 15 16  2  0  0  0  0
 15 17  1  0  0  0  0
 17 18  1  0  0  0  0
 18 20  2  0  0  0  0
 19 18  1  1  0  0  0
 19 22  1  0  0  0  0
 19 30  1  0  0  0  0
 21 23  1  6  0  0  0
 21 29  1  0  0  0  0
 21 22  1  0  0  0  0
 23 24  1  0  0  0  0
 24 25  1  1  0  0  0
 24 26  1  0  0  0  0
 26 27  1  1  0  0  0
 26 28  1  0  0  0  0
 29 28  1  1  0  0  0
 29 31  1  0  0  0  0
 30 14  1  1  0  0  0
 30 31  1  0  0  0  0
M  CHG  1   3  -1
M  END
>  <CHROM.1>
-178.06524997,-63.35585605,62.28398023,51.01451507,49.56166948,163.86086516
-92.54960662,27.23890375,39.11606752,20.18392375,2.51643369,1.38735310,-1.62950402

>  <Name>
ligand

>  <RI>
0

>  <Rbt.Current_Directory>
/home/itssahil/PROJECTS/Mol_Feturizer/New_Systems/rnas/3F2T

>  <Rbt.Executable>
rbdock ($Id: //depot/dev/client3/rdock/2013.1/src/exe/rbdock.cxx#4 $)

>  <Rbt.Library>
libRbt.so (2013.1, Build901 2013/11/27)

>  <Rbt.Parameter_File>
/export/apps/rDock/src/rDock_2013.1_src/data/scripts/dock_solv.prm

>  <Rbt.Receptor>
prm/pocket_docking_4.prm

>  <SCORE>
-29.9915

>  <SCORE.INTER>
-29.3609

>  <SCORE.INTER.CONST>
1

>  <SCORE.INTER.POLAR>
0

>  <SCORE.INTER.ROT>
7

>  <SCORE.INTER.SOLV>
19.8443

>  <SCORE.INTER.VDW>
-34.4554

>  <SCORE.INTER.norm>
-0.947127

>  <SCORE.INTRA>
-0.630575

>  <SCORE.INTRA.DIHEDRAL>
-1.93008

>  <SCORE.INTRA.DIHEDRAL.0>
4.64198

>  <SCORE.INTRA.POLAR>
0

>  <SCORE.INTRA.POLAR.0>
0

>  <SCORE.INTRA.REPUL>
0

>  <SCORE.INTRA.REPUL.0>
0

>  <SCORE.INTRA.SOLV>
-0.452679

>  <SCORE.INTRA.SOLV.lig_0>
-49.3611

>  <SCORE.INTRA.VDW>
0.560806

>  <SCORE.INTRA.VDW.0>
-1.91858

>  <SCORE.INTRA.norm>
-0.0203411

>  <SCORE.RESTR>
0

>  <SCORE.RESTR.CAVITY>
0

>  <SCORE.RESTR.norm>
0

>  <SCORE.SYSTEM>
0

>  <SCORE.SYSTEM.CONST>
0

>  <SCORE.SYSTEM.DIHEDRAL>
0

>  <SCORE.SYSTEM.SOLV>
0

>  <SCORE.SYSTEM.norm>
0

>  <SCORE.heavy>
31

>  <SCORE.norm>
-0.967468

>  <RMSD>
1.652

$$$$
ligand
 OpenBabel11021811473D
libRbt.so/2013.1/901 2013/11/27
 31 33  0  0  0  0  0  0  0  0999 V2000
   24.7807   43.5420   17.0106 P   0  0  1  0  0  0  0  0  0  0  0  0
   23.7603   43.4444   18.1162 O   0  0  0  0  0  0  0  0  0  0  0  0
   24.0646   43.8263   15.7170 O   0  5  0  0  0  0  0  0  0  0  0  0
   25.7233   44.6496   17.3936 O   0  0  0  0  0  0  0  0  0  0  0  0
   26.4159   41.6864   17.8786 C   0  0  0  0  0  0  0  0  0  0  0  0
   25.6295   42.1923   16.8201 O   0  0  0  0  0  0  0  0  0  0  0  0
   27.3501   40.6066   17.3388 C   0  0  1  0  0  0  0  0  0  0  0  0
   28.0437   41.0969   16.2086 O   0  0  0  0  0  0  0  0  0  0  0  0
   28.3582   40.2111   18.4046 C   0  0  1  0  0  0  0  0  0  0  0  0
   28.7857   41.3728   19.0640 O   0  0  0  0  0  0  0  0  0  0  0  0
   27.7794   39.2493   19.4287 C   0  0  1  0  0  0  0  0  0  0  0  0
   27.1862   38.1803   18.7421 O   0  0  0  0  0  0  0  0  0  0  0  0
   28.8668   38.7134   20.3452 C   0  0  0  0  0  0  0  0  0  0  0  0
   28.8769   36.1067   19.2847 N   0  0  0  0  0  0  0  0  0  0  0  0
   28.8500   34.8598   18.6986 C   0  0  0  0  0  0  0  0  0  0  0  0
   29.3317   34.6936   17.5819 O   0  0  0  0  0  0  0  0  0  0  0  0
   28.2825   33.7922   19.3560 N   0  0  0  0  0  0  0  0  0  0  0  0
   27.7441   33.9590   20.6170 C   0  0  0  0  0  0  0  0  0  0  0  0
   27.7660   35.2136   21.2159 C   0  0  1  0  0  0  0  0  0  0  0  0
   27.2539   32.9955   21.2093 O   0  0  0  0  0  0  0  0  0  0  0  0
   27.2526   36.6354   23.0692 C   0  0  2  0  0  0  0  0  0  0  0  0
   27.2280   35.3879   22.4752 N   0  0  0  0  0  0  0  0  0  0  0  0
   26.7083   36.8102   24.3420 C   0  0  0  0  0  0  0  0  0  0  0  0
   26.7233   38.0617   24.9465 C   0  0  1  0  0  0  0  0  0  0  0  0
   26.1273   38.2123   26.3103 C   0  0  0  0  0  0  0  0  0  0  0  0
   27.2935   39.1534   24.2744 C   0  0  1  0  0  0  0  0  0  0  0  0
   27.3380   40.5219   24.8969 C   0  0  0  0  0  0  0  0  0  0  0  0
   27.8343   38.9762   23.0037 C   0  0  0  0  0  0  0  0  0  0  0  0
   27.8162   37.7205   22.3938 C   0  0  1  0  0  0  0  0  0  0  0  0
   28.3336   36.2918   20.5399 C   0  0  1  0  0  0  0  0  0  0  0  0
   28.3523   37.5424   21.1273 N   0  0  0  0  0  0  0  0  0  0  0  0
  1  2  1  1  0  0  0
  1  3  1  0  0  0  0
  1  4  2  0  0  0  0
  1  6  1  0  0  0  0
  5  6  1  0  0  0  0
  7  5  1  1  0  0  0
  7  8  1  0  0  0  0
  7  9  1  0  0  0  0
  9 10  1  1  0  0  0
  9 11  1  0  0  0  0
 11 12  1  6  0  0  0
 11 13  1  0  0  0  0
 13 31  1  0  0  0  0
 14 15  1  0  0  0  0
 15 16  2  0  0  0  0
 15 17  1  0  0  0  0
 17 18  1  0  0  0  0
 18 20  2  0  0  0  0
 19 18  1  1  0  0  0
 19 22  1  0  0  0  0
 19 30  1  0  0  0  0
 21 23  1  6  0  0  0
 21 29  1  0  0  0  0
 21 22  1  0  0  0  0
 23 24  1  0  0  0  0
 24 25  1  1  0  0  0
 24 26  1  0  0  0  0
 26 27  1  1  0  0  0
 26 28  1  0  0  0  0
 29 28  1  1  0  0  0
 29 31  1  0  0  0  0
 30 14  1  1  0  0  0
 30 31  1  0  0  0  0
M  CHG  1   3  -1
M  END
>  <CHROM.1>
-167.00001800,-60.27643247,50.84055530,-40.88935328,51.42707130,-166.79374864
-93.80477493,27.14362359,38.90183654,19.97919073,2.33393552,1.20932328,-1.32782476

>  <Name>
ligand

>  <RI>
0

>  <Rbt.Current_Directory>
/home/itssahil/PROJECTS/Mol_Feturizer/New_Systems/rnas/3F2T

>  <Rbt.Executable>
rbdock ($Id: //depot/dev/client3/rdock/2013.1/src/exe/rbdock.cxx#4 $)

>  <Rbt.Library>
libRbt.so (2013.1, Build901 2013/11/27)

>  <Rbt.Parameter_File>
/export/apps/rDock/src/rDock_2013.1_src/data/scripts/dock_solv.prm

>  <Rbt.Receptor>
prm/blind_docking_80.prm

>  <SCORE>
-26.4586

>  <SCORE.INTER>
-27.1332

>  <SCORE.INTER.CONST>
1

>  <SCORE.INTER.POLAR>
0

>  <SCORE.INTER.ROT>
7

>  <SCORE.INTER.SOLV>
18.2355

>  <SCORE.INTER.VDW>
-32.434

>  <SCORE.INTER.norm>
-0.875265

>  <SCORE.INTRA>
0.674576

>  <SCORE.INTRA.DIHEDRAL>
-0.34682

>  <SCORE.INTRA.DIHEDRAL.0>
4.64198

>  <SCORE.INTRA.POLAR>
0

>  <SCORE.INTRA.POLAR.0>
0

>  <SCORE.INTRA.REPUL>
0

>  <SCORE.INTRA.REPUL.0>
0

>  <SCORE.INTRA.SOLV>
-0.446392

>  <SCORE.INTRA.SOLV.lig_0>
-49.3611

>  <SCORE.INTRA.VDW>
1.07118

>  <SCORE.INTRA.VDW.0>
-1.91858

>  <SCORE.INTRA.norm>
0.0217605

>  <SCORE.RESTR>
0

>  <SCORE.RESTR.CAVITY>
0

>  <SCORE.RESTR.norm>
0

>  <SCORE.SYSTEM>
0

>  <SCORE.SYSTEM.CONST>
0

>  <SCORE.SYSTEM.DIHEDRAL>
0

>  <SCORE.SYSTEM.SOLV>
0

>  <SCORE.SYSTEM.norm>
0

>  <SCORE.heavy>
31

>  <SCORE.norm>
-0.853505

>  <RMSD>
1.665

$$$$
ligand
 OpenBabel11021811473D
libRbt.so/2013.1/901 2013/11/27
 31 33  0  0  0  0  0  0  0  0999 V2000
   27.5160   41.4375   17.5688 P   0  0  1  0  0  0  0  0  0  0  0  0
   27.1703   40.6063   16.3594 O   0  0  0  0  0  0  0  0  0  0  0  0
   27.0369   42.8462   17.3389 O   0  5  0  0  0  0  0  0  0  0  0  0
   26.8346   40.7901   18.7430 O   0  0  0  0  0  0  0  0  0  0  0  0
   29.9375   40.4429   17.4359 C   0  0  0  0  0  0  0  0  0  0  0  0
   29.0939   41.4928   17.8611 O   0  0  0  0  0  0  0  0  0  0  0  0
   29.6922   39.2159   18.3102 C   0  0  1  0  0  0  0  0  0  0  0  0
   29.1399   39.6151   19.5489 O   0  0  0  0  0  0  0  0  0  0  0  0
   28.7245   38.2701   17.6190 C   0  0  1  0  0  0  0  0  0  0  0  0
   29.2897   37.8705   16.3991 O   0  0  0  0  0  0  0  0  0  0  0  0
   28.4217   37.0339   18.4489 C   0  0  1  0  0  0  0  0  0  0  0  0
   29.6117   36.6107   19.0579 O   0  0  0  0  0  0  0  0  0  0  0  0
   27.3914   37.3404   19.5231 C   0  0  0  0  0  0  0  0  0  0  0  0
   27.5422   34.5771   19.0118 N   0  0  0  0  0  0  0  0  0  0  0  0
   27.5550   33.2324   18.7110 C   0  0  0  0  0  0  0  0  0  0  0  0
   27.5830   32.8633   17.5406 O   0  0  0  0  0  0  0  0  0  0  0  0
   27.5341   32.2925   19.7161 N   0  0  0  0  0  0  0  0  0  0  0  0
   27.5117   32.6899   21.0387 C   0  0  0  0  0  0  0  0  0  0  0  0
   27.4979   34.0445   21.3518 C   0  0  1  0  0  0  0  0  0  0  0  0
   27.5121   31.8441   21.9355 O   0  0  0  0  0  0  0  0  0  0  0  0
   27.4618   35.7956   22.9804 C   0  0  2  0  0  0  0  0  0  0  0  0
   27.4737   34.4487   22.6716 N   0  0  0  0  0  0  0  0  0  0  0  0
   27.4372   36.2028   24.3147 C   0  0  0  0  0  0  0  0  0  0  0  0
   27.4199   37.5549   24.6362 C   0  0  1  0  0  0  0  0  0  0  0  0
   27.3900   37.9543   26.0776 C   0  0  0  0  0  0  0  0  0  0  0  0
   27.4324   38.5148   23.6129 C   0  0  1  0  0  0  0  0  0  0  0  0
   27.4236   39.9875   23.9183 C   0  0  0  0  0  0  0  0  0  0  0  0
   27.4553   38.1053   22.2823 C   0  0  0  0  0  0  0  0  0  0  0  0
   27.4684   36.7475   21.9581 C   0  0  1  0  0  0  0  0  0  0  0  0
   27.5094   34.9901   20.3284 C   0  0  1  0  0  0  0  0  0  0  0  0
   27.4889   36.3377   20.6334 N   0  0  0  0  0  0  0  0  0  0  0  0
  1  2  1  6  0  0  0
  1  3  1  0  0  0  0
  1  4  2  0  0  0  0
  1  6  1  0  0  0  0
  5  6  1  0  0  0  0
  7  5  1  6  0  0  0
  7  8  1  0  0  0  0
  7  9  1  0  0  0  0
  9 10  1  6  0  0  0
  9 11  1  0  0  0  0
 11 12  1  1  0  0  0
 11 13  1  0  0  0  0
 13 31  1  0  0  0  0
 14 15  1  0  0  0  0
 15 16  2  0  0  0  0
 15 17  1  0  0  0  0
 17 18  1  0  0  0  0
 18 20  2  0  0  0  0
 19 18  1  1  0  0  0
 19 22  1  0  0  0  0
 19 30  1  0  0  0  0
 21 23  1  6  0  0  0
 21 29  1  0  0  0  0
 21 22  1  0  0  0  0
 23 24  1  0  0  0  0
 24 25  1  1  0  0  0
 24 26  1  0  0  0  0
 26 27  1  1  0  0  0
 26 28  1  0  0  0  0
 29 28  1  1  0  0  0
 29 31  1  0  0  0  0
 30 14  1  1  0  0  0
 30 31  1  0  0  0  0
M  CHG  1   3  -1
M  END
>  <CHROM.1>
-72.25785242,-26.23332307,-23.00696943,60.26448802,-40.04086385,-157.93554780
134.80696086,27.89421715,37.42325256,19.99769881,0.89288690,1.44109400,0.11841464

>  <Name>
ligand

>  <RI>
0

>  <Rbt.Current_Directory>
/home/itssahil/PROJECTS/Mol_Feturizer/New_Systems/rnas/3F2T

>  <Rbt.Executable>
rbdock ($Id: //depot/dev/client3/rdock/2013.1/src/exe/rbdock.cxx#4 $)

>  <Rbt.Library>
libRbt.so (2013.1, Build901 2013/11/27)

>  <Rbt.Parameter_File>
/export/apps/rDock/src/rDock_2013.1_src/data/scripts/dock_solv.prm

>  <Rbt.Receptor>
prm/pocket_docking_3.prm

>  <SCORE>
-22.4826

>  <SCORE.INTER>
-28.0212

>  <SCORE.INTER.CONST>
1

>  <SCORE.INTER.POLAR>
0

>  <SCORE.INTER.ROT>
7

>  <SCORE.INTER.SOLV>
11.4424

>  <SCORE.INTER.VDW>
-30.7616

>  <SCORE.INTER.norm>
-0.903908

>  <SCORE.INTRA>
5.53859

>  <SCORE.INTRA.DIHEDRAL>
5.08705

>  <SCORE.INTRA.DIHEDRAL.0>
4.64198

>  <SCORE.INTRA.POLAR>
0

>  <SCORE.INTRA.POLAR.0>
0

>  <SCORE.INTRA.REPUL>
0

>  <SCORE.INTRA.REPUL.0>
0

>  <SCORE.INTRA.SOLV>
4.27163

>  <SCORE.INTRA.SOLV.lig_0>
-49.3611

>  <SCORE.INTRA.VDW>
0.859245

>  <SCORE.INTRA.VDW.0>
-1.91858

>  <SCORE.INTRA.norm>
0.178664

>  <SCORE.RESTR>
0

>  <SCORE.RESTR.CAVITY>
0

>  <SCORE.RESTR.norm>
0

>  <SCORE.SYSTEM>
0

>  <SCORE.SYSTEM.CONST>
0

>  <SCORE.SYSTEM.DIHEDRAL>
0

>  <SCORE.SYSTEM.SOLV>
0

>  <SCORE.SYSTEM.norm>
0

>  <SCORE.heavy>
31

>  <SCORE.norm>
-0.725244

>  <RMSD>
1.673

$$$$
ligand
 OpenBabel11021811473D
libRbt.so/2013.1/901 2013/11/27
 31 33  0  0  0  0  0  0  0  0999 V2000
   24.6681   42.3076   18.8839 P   0  0  1  0  0  0  0  0  0  0  0  0
   23.4253   41.5689   18.4562 O   0  0  0  0  0  0  0  0  0  0  0  0
   24.6519   43.6790   18.2626 O   0  5  0  0  0  0  0  0  0  0  0  0
   24.6373   42.3643   20.3866 O   0  0  0  0  0  0  0  0  0  0  0  0
   26.2762   40.2389   18.8136 C   0  0  0  0  0  0  0  0  0  0  0  0
   26.0216   41.5737   18.4282 O   0  0  0  0  0  0  0  0  0  0  0  0
   27.5771   39.7691   18.1678 C   0  0  1  0  0  0  0  0  0  0  0  0
   28.6419   39.9005   19.0885 O   0  0  0  0  0  0  0  0  0  0  0  0
   27.4562   38.3115   17.7561 C   0  0  1  0  0  0  0  0  0  0  0  0
   28.6810   37.9018   17.2090 O   0  0  0  0  0  0  0  0  0  0  0  0
   27.1099   37.4012   18.9224 C   0  0  1  0  0  0  0  0  0  0  0  0
   26.6077   36.1978   18.4070 O   0  0  0  0  0  0  0  0  0  0  0  0
   28.3392   37.1095   19.7669 C   0  0  0  0  0  0  0  0  0  0  0  0
   28.3458   34.3293   19.3312 N   0  0  0  0  0  0  0  0  0  0  0  0
   28.3070   32.9805   19.0515 C   0  0  0  0  0  0  0  0  0  0  0  0
   28.6423   32.5713   17.9438 O   0  0  0  0  0  0  0  0  0  0  0  0
   27.8910   32.0816   20.0069 N   0  0  0  0  0  0  0  0  0  0  0  0
   27.5189   32.5235   21.2616 C   0  0  0  0  0  0  0  0  0  0  0  0
   27.5541   33.8827   21.5527 C   0  0  1  0  0  0  0  0  0  0  0  0
   27.1650   31.7125   22.1198 O   0  0  0  0  0  0  0  0  0  0  0  0
   27.2194   35.6825   23.0916 C   0  0  2  0  0  0  0  0  0  0  0  0
   27.1818   34.3314   22.8040 N   0  0  0  0  0  0  0  0  0  0  0  0
   26.8427   36.1348   24.3567 C   0  0  0  0  0  0  0  0  0  0  0  0
   26.8719   37.4920   24.6548 C   0  0  1  0  0  0  0  0  0  0  0  0
   26.4576   37.9407   26.0205 C   0  0  0  0  0  0  0  0  0  0  0  0
   27.2874   38.4110   23.6794 C   0  0  1  0  0  0  0  0  0  0  0  0
   27.3420   39.8869   23.9643 C   0  0  0  0  0  0  0  0  0  0  0  0
   27.6611   37.9568   22.4173 C   0  0  0  0  0  0  0  0  0  0  0  0
   27.6282   36.5942   22.1154 C   0  0  1  0  0  0  0  0  0  0  0  0
   27.9672   34.7875   20.5769 C   0  0  1  0  0  0  0  0  0  0  0  0
   27.9979   36.1400   20.8583 N   0  0  0  0  0  0  0  0  0  0  0  0
  1  2  1  6  0  0  0
  1  3  1  0  0  0  0
  1  4  2  0  0  0  0
  1  6  1  0  0  0  0
  5  6  1  0  0  0  0
  7  5  1  1  0  0  0
  7  8  1  0  0  0  0
  7  9  1  0  0  0  0
  9 10  1  1  0  0  0
  9 11  1  0  0  0  0
 11 12  1  6  0  0  0
 11 13  1  0  0  0  0
 13 31  1  0  0  0  0
 14 15  1  0  0  0  0
 15 16  2  0  0  0  0
 15 17  1  0  0  0  0
 17 18  1  0  0  0  0
 18 20  2  0  0  0  0
 19 18  1  1  0  0  0
 19 22  1  0  0  0  0
 19 30  1  0  0  0  0
 21 23  1  6  0  0  0
 21 29  1  0  0  0  0
 21 22  1  0  0  0  0
 23 24  1  0  0  0  0
 24 25  1  1  0  0  0
 24 26  1  0  0  0  0
 26 27  1  1  0  0  0
 26 28  1  0  0  0  0
 29 28  1  1  0  0  0
 29 31  1  0  0  0  0
 30 14  1  1  0  0  0
 30 31  1  0  0  0  0
M  CHG  1   3  -1
M  END
>  <CHROM.1>
176.20952799,-56.79723053,97.39923595,-178.04670382,161.41851871,-176.29905300
-93.54550480,26.95998168,37.53591928,20.42103287,-2.68503769,-1.25710831
1.79363875

>  <Name>
ligand

>  <RI>
0

>  <Rbt.Current_Directory>
/home/itssahil/PROJECTS/Mol_Feturizer/New_Systems/rnas/3F2T

>  <Rbt.Executable>
rbdock ($Id: //depot/dev/client3/rdock/2013.1/src/exe/rbdock.cxx#4 $)

>  <Rbt.Library>
libRbt.so (2013.1, Build901 2013/11/27)

>  <Rbt.Parameter_File>
/export/apps/rDock/src/rDock_2013.1_src/data/scripts/dock_solv.prm

>  <Rbt.Receptor>
prm/pocket_docking_5.prm

>  <SCORE>
-32.0144

>  <SCORE.INTER>
-33.4882

>  <SCORE.INTER.CONST>
1

>  <SCORE.INTER.POLAR>
0

>  <SCORE.INTER.ROT>
7

>  <SCORE.INTER.SOLV>
19.1844

>  <SCORE.INTER.VDW>
-36.9869

>  <SCORE.INTER.norm>
-1.08026

>  <SCORE.INTRA>
1.47381

>  <SCORE.INTRA.DIHEDRAL>
1.39914

>  <SCORE.INTRA.DIHEDRAL.0>
4.64198

>  <SCORE.INTRA.POLAR>
0

>  <SCORE.INTRA.POLAR.0>
0

>  <SCORE.INTRA.REPUL>
0

>  <SCORE.INTRA.REPUL.0>
0

>  <SCORE.INTRA.SOLV>
-0.596922

>  <SCORE.INTRA.SOLV.lig_0>
-49.3611

>  <SCORE.INTRA.VDW>
1.0727

>  <SCORE.INTRA.VDW.0>
-1.91858

>  <SCORE.INTRA.norm>
0.0475422

>  <SCORE.RESTR>
0

>  <SCORE.RESTR.CAVITY>
0

>  <SCORE.RESTR.norm>
0

>  <SCORE.SYSTEM>
0

>  <SCORE.SYSTEM.CONST>
0

>  <SCORE.SYSTEM.DIHEDRAL>
0

>  <SCORE.SYSTEM.SOLV>
0

>  <SCORE.SYSTEM.norm>
0

>  <SCORE.heavy>
31

>  <SCORE.norm>
-1.03272

>  <RMSD>
1.684

$$$$
ligand
 OpenBabel11021811473D
libRbt.so/2013.1/901 2013/11/27
 31 33  0  0  0  0  0  0  0  0999 V2000
   25.5760   43.5996   16.5609 P   0  0  1  0  0  0  0  0  0  0  0  0
   25.0822   44.1353   17.8810 O   0  0  0  0  0  0  0  0  0  0  0  0
   24.4917   43.7789   15.5318 O   0  5  0  0  0  0  0  0  0  0  0  0
   26.8172   44.3773   16.2199 O   0  0  0  0  0  0  0  0  0  0  0  0
   27.1109   41.6068   17.2979 C   0  0  0  0  0  0  0  0  0  0  0  0
   25.9507   42.0393   16.6184 O   0  0  0  0  0  0  0  0  0  0  0  0
   26.9490   41.8780   18.7913 C   0  0  1  0  0  0  0  0  0  0  0  0
   25.6834   41.4209   19.2250 O   0  0  0  0  0  0  0  0  0  0  0  0
   28.0314   41.1515   19.5719 C   0  0  1  0  0  0  0  0  0  0  0  0
   28.2562   41.8454   20.7699 O   0  0  0  0  0  0  0  0  0  0  0  0
   27.6537   39.7164   19.8984 C   0  0  1  0  0  0  0  0  0  0  0  0
   27.2568   39.0851   18.7111 O   0  0  0  0  0  0  0  0  0  0  0  0
   28.8339   38.9665   20.4935 C   0  0  0  0  0  0  0  0  0  0  0  0
   28.8966   36.3893   19.3649 N   0  0  0  0  0  0  0  0  0  0  0  0
   28.8941   35.1578   18.7466 C   0  0  0  0  0  0  0  0  0  0  0  0
   29.3700   35.0322   17.6221 O   0  0  0  0  0  0  0  0  0  0  0  0
   28.3576   34.0601   19.3802 N   0  0  0  0  0  0  0  0  0  0  0  0
   27.8261   34.1813   20.6493 C   0  0  0  0  0  0  0  0  0  0  0  0
   27.8235   35.4200   21.2808 C   0  0  1  0  0  0  0  0  0  0  0  0
   27.3639   33.1912   21.2200 O   0  0  0  0  0  0  0  0  0  0  0  0
   27.2925   36.7804   23.1747 C   0  0  2  0  0  0  0  0  0  0  0  0
   27.2923   35.5486   22.5484 N   0  0  0  0  0  0  0  0  0  0  0  0
   26.7551   36.9090   24.4559 C   0  0  0  0  0  0  0  0  0  0  0  0
   26.7456   38.1444   25.0928 C   0  0  1  0  0  0  0  0  0  0  0  0
   26.1579   38.2452   26.4648 C   0  0  0  0  0  0  0  0  0  0  0  0
   27.2842   39.2665   24.4452 C   0  0  1  0  0  0  0  0  0  0  0  0
   27.3017   40.6190   25.1030 C   0  0  0  0  0  0  0  0  0  0  0  0
   27.8183   39.1353   23.1660 C   0  0  0  0  0  0  0  0  0  0  0  0
   27.8245   37.8959   22.5236 C   0  0  1  0  0  0  0  0  0  0  0  0
   28.3597   36.5287   20.6288 C   0  0  1  0  0  0  0  0  0  0  0  0
   28.3539   37.7636   21.2486 N   0  0  0  0  0  0  0  0  0  0  0  0
  1  2  1  1  0  0  0
  1  3  1  0  0  0  0
  1  4  2  0  0  0  0
  1  6  1  0  0  0  0
  5  6  1  0  0  0  0
  7  5  1  6  0  0  0
  7  8  1  0  0  0  0
  7  9  1  0  0  0  0
  9 10  1  1  0  0  0
  9 11  1  0  0  0  0
 11 12  1  6  0  0  0
 11 13  1  0  0  0  0
 13 31  1  0  0  0  0
 14 15  1  0  0  0  0
 15 16  2  0  0  0  0
 15 17  1  0  0  0  0
 17 18  1  0  0  0  0
 18 20  2  0  0  0  0
 19 18  1  1  0  0  0
 19 22  1  0  0  0  0
 19 30  1  0  0  0  0
 21 23  1  6  0  0  0
 21 29  1  0  0  0  0
 21 22  1  0  0  0  0
 23 24  1  0  0  0  0
 24 25  1  1  0  0  0
 24 26  1  0  0  0  0
 26 27  1  1  0  0  0
 26 28  1  0  0  0  0
 29 28  1  1  0  0  0
 29 31  1  0  0  0  0
 30 14  1  1  0  0  0
 30 31  1  0  0  0  0
M  CHG  1   3  -1
M  END
>  <CHROM.1>
66.15966303,-72.31978798,47.54968259,153.58421645,51.78908356,159.73817303
-78.66710167,27.22501278,39.15667187,20.17938058,-2.35912065,-1.29030770
1.74042318

>  <Name>
ligand

>  <RI>
0

>  <Rbt.Current_Directory>
/home/itssahil/PROJECTS/Mol_Feturizer/New_Systems/rnas/3F2T

>  <Rbt.Executable>
rbdock ($Id: //depot/dev/client3/rdock/2013.1/src/exe/rbdock.cxx#4 $)

>  <Rbt.Library>
libRbt.so (2013.1, Build901 2013/11/27)

>  <Rbt.Parameter_File>
/export/apps/rDock/src/rDock_2013.1_src/data/scripts/dock_solv.prm

>  <Rbt.Receptor>
prm/pocket_docking_4.prm

>  <SCORE>
-26.8957

>  <SCORE.INTER>
-28.2805

>  <SCORE.INTER.CONST>
1

>  <SCORE.INTER.POLAR>
0

>  <SCORE.INTER.ROT>
7

>  <SCORE.INTER.SOLV>
16.6479

>  <SCORE.INTER.VDW>
-32.6696

>  <SCORE.INTER.norm>
-0.912273

>  <SCORE.INTRA>
1.38472

>  <SCORE.INTRA.DIHEDRAL>
1.23102

>  <SCORE.INTRA.DIHEDRAL.0>
4.64198

>  <SCORE.INTRA.POLAR>
0

>  <SCORE.INTRA.POLAR.0>
0

>  <SCORE.INTRA.REPUL>
0

>  <SCORE.INTRA.REPUL.0>
0

>  <SCORE.INTRA.SOLV>
1.16872

>  <SCORE.INTRA.SOLV.lig_0>
-49.3611

>  <SCORE.INTRA.VDW>
0.184854

>  <SCORE.INTRA.VDW.0>
-1.91858

>  <SCORE.INTRA.norm>
0.0446684

>  <SCORE.RESTR>
0

>  <SCORE.RESTR.CAVITY>
0

>  <SCORE.RESTR.norm>
0

>  <SCORE.SYSTEM>
0

>  <SCORE.SYSTEM.CONST>
0

>  <SCORE.SYSTEM.DIHEDRAL>
0

>  <SCORE.SYSTEM.SOLV>
0

>  <SCORE.SYSTEM.norm>
0

>  <SCORE.heavy>
31

>  <SCORE.norm>
-0.867604

>  <RMSD>
1.703

$$$$
ligand
 OpenBabel11021811473D
libRbt.so/2013.1/901 2013/11/27
 31 33  0  0  0  0  0  0  0  0999 V2000
   24.8542   43.4932   16.9006 P   0  0  1  0  0  0  0  0  0  0  0  0
   24.0379   43.8048   15.6719 O   0  0  0  0  0  0  0  0  0  0  0  0
   25.6836   44.7009   17.2476 O   0  5  0  0  0  0  0  0  0  0  0  0
   23.8758   43.1443   17.9883 O   0  0  0  0  0  0  0  0  0  0  0  0
   26.5925   41.7396   17.7803 C   0  0  0  0  0  0  0  0  0  0  0  0
   25.8508   42.2515   16.6927 O   0  0  0  0  0  0  0  0  0  0  0  0
   27.5699   40.6842   17.2694 C   0  0  1  0  0  0  0  0  0  0  0  0
   28.3079   41.2040   16.1813 O   0  0  0  0  0  0  0  0  0  0  0  0
   28.5328   40.2885   18.3762 C   0  0  1  0  0  0  0  0  0  0  0  0
   28.9339   41.4503   19.0520 O   0  0  0  0  0  0  0  0  0  0  0  0
   27.9115   39.3279   19.3761 C   0  0  1  0  0  0  0  0  0  0  0  0
   27.3334   38.2664   18.6654 O   0  0  0  0  0  0  0  0  0  0  0  0
   28.9623   38.7796   20.3272 C   0  0  0  0  0  0  0  0  0  0  0  0
   28.9135   36.1885   19.2301 N   0  0  0  0  0  0  0  0  0  0  0  0
   28.8590   34.9510   18.6263 C   0  0  0  0  0  0  0  0  0  0  0  0
   29.3457   34.7878   17.5113 O   0  0  0  0  0  0  0  0  0  0  0  0
   28.2585   33.8895   19.2639 N   0  0  0  0  0  0  0  0  0  0  0  0
   27.7139   34.0529   20.5228 C   0  0  0  0  0  0  0  0  0  0  0  0
   27.7635   35.2981   21.1395 C   0  0  1  0  0  0  0  0  0  0  0  0
   27.1938   33.0944   21.0975 O   0  0  0  0  0  0  0  0  0  0  0  0
   27.2716   36.7069   23.0085 C   0  0  2  0  0  0  0  0  0  0  0  0
   27.2195   35.4689   22.3968 N   0  0  0  0  0  0  0  0  0  0  0  0
   26.7213   36.8782   24.2792 C   0  0  0  0  0  0  0  0  0  0  0  0
   26.7638   38.1204   24.9013 C   0  0  1  0  0  0  0  0  0  0  0  0
   26.1604   38.2676   26.2623 C   0  0  0  0  0  0  0  0  0  0  0  0
   27.3679   39.2061   24.2493 C   0  0  1  0  0  0  0  0  0  0  0  0
   27.4428   40.5642   24.8914 C   0  0  0  0  0  0  0  0  0  0  0  0
   27.9147   39.0324   22.9806 C   0  0  0  0  0  0  0  0  0  0  0  0
   27.8689   37.7862   22.3530 C   0  0  1  0  0  0  0  0  0  0  0  0
   28.3646   36.3703   20.4834 C   0  0  1  0  0  0  0  0  0  0  0  0
   28.4109   37.6117   21.0885 N   0  0  0  0  0  0  0  0  0  0  0  0
  1  2  1  6  0  0  0
  1  3  1  0  0  0  0
  1  4  2  0  0  0  0
  1  6  1  0  0  0  0
  5  6  1  0  0  0  0
  7  5  1  1  0  0  0
  7  8  1  0  0  0  0
  7  9  1  0  0  0  0
  9 10  1  1  0  0  0
  9 11  1  0  0  0  0
 11 12  1  6  0  0  0
 11 13  1  0  0  0  0
 13 31  1  0  0  0  0
 14 15  1  0  0  0  0
 15 16  2  0  0  0  0
 15 17  1  0  0  0  0
 17 18  1  0  0  0  0
 18 20  2  0  0  0  0
 19 18  1  1  0  0  0
 19 22  1  0  0  0  0
 19 30  1  0  0  0  0
 21 23  1  6  0  0  0
 21 29  1  0  0  0  0
 21 22  1  0  0  0  0
 23 24  1  0  0  0  0
 24 25  1  1  0  0  0
 24 26  1  0  0  0  0
 26 27  1  1  0  0  0
 26 28  1  0  0  0  0
 29 28  1  1  0  0  0
 29 31  1  0  0  0  0
 30 14  1  1  0  0  0
 30 31  1  0  0  0  0
M  CHG  1   3  -1
M  END
>  <CHROM.1>
-173.33250517,-173.67958914,50.70486494,-42.32297191,50.79287828,-166.90017847
-95.66338060,27.21476097,38.95087997,19.91202588,2.30566379,1.21568952,-1.32119839

>  <Name>
ligand

>  <RI>
0

>  <Rbt.Current_Directory>
/home/itssahil/PROJECTS/Mol_Feturizer/New_Systems/rnas/3F2T

>  <Rbt.Executable>
rbdock ($Id: //depot/dev/client3/rdock/2013.1/src/exe/rbdock.cxx#4 $)

>  <Rbt.Library>
libRbt.so (2013.1, Build901 2013/11/27)

>  <Rbt.Parameter_File>
/export/apps/rDock/src/rDock_2013.1_src/data/scripts/dock_solv.prm

>  <Rbt.Receptor>
prm/pocket_docking_7.prm

>  <SCORE>
-25.9483

>  <SCORE.INTER>
-26.6027

>  <SCORE.INTER.CONST>
1

>  <SCORE.INTER.POLAR>
0

>  <SCORE.INTER.ROT>
7

>  <SCORE.INTER.SOLV>
18.3767

>  <SCORE.INTER.VDW>
-32.1274

>  <SCORE.INTER.norm>
-0.858152

>  <SCORE.INTRA>
0.65439

>  <SCORE.INTRA.DIHEDRAL>
-1.00483

>  <SCORE.INTRA.DIHEDRAL.0>
4.64198

>  <SCORE.INTRA.POLAR>
0

>  <SCORE.INTRA.POLAR.0>
0

>  <SCORE.INTRA.REPUL>
0

>  <SCORE.INTRA.REPUL.0>
0

>  <SCORE.INTRA.SOLV>
0.00176604

>  <SCORE.INTRA.SOLV.lig_0>
-49.3611

>  <SCORE.INTRA.VDW>
1.15592

>  <SCORE.INTRA.VDW.0>
-1.91858

>  <SCORE.INTRA.norm>
0.0211093

>  <SCORE.RESTR>
0

>  <SCORE.RESTR.CAVITY>
0

>  <SCORE.RESTR.norm>
0

>  <SCORE.SYSTEM>
0

>  <SCORE.SYSTEM.CONST>
0

>  <SCORE.SYSTEM.DIHEDRAL>
0

>  <SCORE.SYSTEM.SOLV>
0

>  <SCORE.SYSTEM.norm>
0

>  <SCORE.heavy>
31

>  <SCORE.norm>
-0.837043

>  <RMSD>
1.719

$$$$
ligand
 OpenBabel11021811473D
libRbt.so/2013.1/901 2013/11/27
 31 33  0  0  0  0  0  0  0  0999 V2000
   24.4290   42.4721   18.7038 P   0  0  1  0  0  0  0  0  0  0  0  0
   23.3940   41.4244   18.3809 O   0  0  0  0  0  0  0  0  0  0  0  0
   23.9421   43.8035   18.1967 O   0  5  0  0  0  0  0  0  0  0  0  0
   24.5988   42.4608   20.1981 O   0  0  0  0  0  0  0  0  0  0  0  0
   26.4582   40.9054   18.1573 C   0  0  0  0  0  0  0  0  0  0  0  0
   25.8540   42.1753   18.0258 O   0  0  0  0  0  0  0  0  0  0  0  0
   27.2597   40.8625   19.4557 C   0  0  1  0  0  0  0  0  0  0  0  0
   26.3821   40.7105   20.5537 O   0  0  0  0  0  0  0  0  0  0  0  0
   28.2279   39.6918   19.4305 C   0  0  1  0  0  0  0  0  0  0  0  0
   29.2097   39.9066   20.4089 O   0  0  0  0  0  0  0  0  0  0  0  0
   27.5449   38.3622   19.7031 C   0  0  1  0  0  0  0  0  0  0  0  0
   26.6577   38.0994   18.6497 O   0  0  0  0  0  0  0  0  0  0  0  0
   28.5629   37.2373   19.7922 C   0  0  0  0  0  0  0  0  0  0  0  0
   28.3903   34.4696   19.3129 N   0  0  0  0  0  0  0  0  0  0  0  0
   28.2638   33.1307   19.0125 C   0  0  0  0  0  0  0  0  0  0  0  0
   28.5601   32.7196   17.8945 O   0  0  0  0  0  0  0  0  0  0  0  0
   27.8033   32.2439   19.9589 N   0  0  0  0  0  0  0  0  0  0  0  0
   27.4739   32.6875   21.2248 C   0  0  0  0  0  0  0  0  0  0  0  0
   27.5976   34.0369   21.5368 C   0  0  1  0  0  0  0  0  0  0  0  0
   27.0798   31.8862   22.0746 O   0  0  0  0  0  0  0  0  0  0  0  0
   27.3940   35.8285   23.1078 C   0  0  2  0  0  0  0  0  0  0  0  0
   27.2685   34.4874   22.7995 N   0  0  0  0  0  0  0  0  0  0  0  0
   27.0608   36.2826   24.3844 C   0  0  0  0  0  0  0  0  0  0  0  0
   27.1785   37.6303   24.7034 C   0  0  1  0  0  0  0  0  0  0  0  0
   26.8087   38.0814   26.0810 C   0  0  0  0  0  0  0  0  0  0  0  0
   27.6396   38.5374   23.7374 C   0  0  1  0  0  0  0  0  0  0  0  0
   27.7899   40.0021   24.0448 C   0  0  0  0  0  0  0  0  0  0  0  0
   27.9697   38.0816   22.4639 C   0  0  0  0  0  0  0  0  0  0  0  0
   27.8479   36.7288   22.1410 C   0  0  1  0  0  0  0  0  0  0  0  0
   28.0554   34.9301   20.5703 C   0  0  1  0  0  0  0  0  0  0  0  0
   28.1740   36.2732   20.8724 N   0  0  0  0  0  0  0  0  0  0  0  0
  1  2  1  6  0  0  0
  1  3  1  0  0  0  0
  1  4  2  0  0  0  0
  1  6  1  0  0  0  0
  5  6  1  0  0  0  0
  7  5  1  6  0  0  0
  7  8  1  0  0  0  0
  7  9  1  0  0  0  0
  9 10  1  1  0  0  0
  9 11  1  0  0  0  0
 11 12  1  6  0  0  0
 11 13  1  0  0  0  0
 13 31  1  0  0  0  0
 14 15  1  0  0  0  0
 15 16  2  0  0  0  0
 15 17  1  0  0  0  0
 17 18  1  0  0  0  0
 18 20  2  0  0  0  0
 19 18  1  1  0  0  0
 19 22  1  0  0  0  0
 19 30  1  0  0  0  0
 21 23  1  6  0  0  0
 21 29  1  0  0  0  0
 21 22  1  0  0  0  0
 23 24  1  0  0  0  0
 24 25  1  1  0  0  0
 24 26  1  0  0  0  0
 26 27  1  1  0  0  0
 26 28  1  0  0  0  0
 29 28  1  1  0  0  0
 29 31  1  0  0  0  0
 30 14  1  1  0  0  0
 30 31  1  0  0  0  0
M  CHG  1   3  -1
M  END
>  <CHROM.1>
-86.14601920,-50.13746294,76.48936805,162.11811529,65.24228325,141.43181076
-49.74120961,26.95936236,37.94127371,20.64948341,3.06862667,-1.26950573,1.22886614

>  <Name>
ligand

>  <RI>
0

>  <Rbt.Current_Directory>
/home/itssahil/PROJECTS/Mol_Feturizer/New_Systems/rnas/3F2T

>  <Rbt.Executable>
rbdock ($Id: //depot/dev/client3/rdock/2013.1/src/exe/rbdock.cxx#4 $)

>  <Rbt.Library>
libRbt.so (2013.1, Build901 2013/11/27)

>  <Rbt.Parameter_File>
/export/apps/rDock/src/rDock_2013.1_src/data/scripts/dock_solv.prm

>  <Rbt.Receptor>
prm/blind_docking_60.prm

>  <SCORE>
-28.2211

>  <SCORE.INTER>
-32.8723

>  <SCORE.INTER.CONST>
1

>  <SCORE.INTER.POLAR>
0

>  <SCORE.INTER.ROT>
7

>  <SCORE.INTER.SOLV>
19.6364

>  <SCORE.INTER.VDW>
-36.727

>  <SCORE.INTER.norm>
-1.0604

>  <SCORE.INTRA>
4.65126

>  <SCORE.INTRA.DIHEDRAL>
5.53507

>  <SCORE.INTRA.DIHEDRAL.0>
4.64198

>  <SCORE.INTRA.POLAR>
0

>  <SCORE.INTRA.POLAR.0>
0

>  <SCORE.INTRA.REPUL>
0

>  <SCORE.INTRA.REPUL.0>
0

>  <SCORE.INTRA.SOLV>
2.14891

>  <SCORE.INTRA.SOLV.lig_0>
-49.3611

>  <SCORE.INTRA.VDW>
0.809264

>  <SCORE.INTRA.VDW.0>
-1.91858

>  <SCORE.INTRA.norm>
0.150041

>  <SCORE.RESTR>
0

>  <SCORE.RESTR.CAVITY>
0

>  <SCORE.RESTR.norm>
0

>  <SCORE.SYSTEM>
0

>  <SCORE.SYSTEM.CONST>
0

>  <SCORE.SYSTEM.DIHEDRAL>
0

>  <SCORE.SYSTEM.SOLV>
0

>  <SCORE.SYSTEM.norm>
0

>  <SCORE.heavy>
31

>  <SCORE.norm>
-0.910358

>  <RMSD>
1.731

$$$$
ligand
 OpenBabel11021811473D
libRbt.so/2013.1/901 2013/11/27
 31 33  0  0  0  0  0  0  0  0999 V2000
   27.5267   42.4822   17.2232 P   0  0  1  0  0  0  0  0  0  0  0  0
   27.7239   42.9773   18.6336 O   0  0  0  0  0  0  0  0  0  0  0  0
   26.0634   42.5725   16.8805 O   0  5  0  0  0  0  0  0  0  0  0  0
   28.3723   43.3575   16.3394 O   0  0  0  0  0  0  0  0  0  0  0  0
   29.0751   40.4367   17.7609 C   0  0  0  0  0  0  0  0  0  0  0  0
   27.9886   40.9574   17.0238 O   0  0  0  0  0  0  0  0  0  0  0  0
   29.2563   38.9612   17.4143 C   0  0  1  0  0  0  0  0  0  0  0  0
   29.9157   38.8408   16.1695 O   0  0  0  0  0  0  0  0  0  0  0  0
   30.0890   38.2745   18.4837 C   0  0  1  0  0  0  0  0  0  0  0  0
   31.2254   39.0581   18.7326 O   0  0  0  0  0  0  0  0  0  0  0  0
   29.3281   38.0848   19.7852 C   0  0  1  0  0  0  0  0  0  0  0  0
   28.9895   39.3502   20.2851 O   0  0  0  0  0  0  0  0  0  0  0  0
   28.0589   37.2800   19.5595 C   0  0  0  0  0  0  0  0  0  0  0  0
   28.1896   34.5092   19.0846 N   0  0  0  0  0  0  0  0  0  0  0  0
   28.2048   33.1631   18.7900 C   0  0  0  0  0  0  0  0  0  0  0  0
   28.4605   32.7849   17.6505 O   0  0  0  0  0  0  0  0  0  0  0  0
   27.9322   32.2322   19.7663 N   0  0  0  0  0  0  0  0  0  0  0  0
   27.6516   32.6396   21.0559 C   0  0  0  0  0  0  0  0  0  0  0  0
   27.6331   33.9957   21.3623 C   0  0  1  0  0  0  0  0  0  0  0  0
   27.4266   31.8010   21.9310 O   0  0  0  0  0  0  0  0  0  0  0  0
   27.3356   35.7581   22.9513 C   0  0  2  0  0  0  0  0  0  0  0  0
   27.3515   34.4099   22.6488 N   0  0  0  0  0  0  0  0  0  0  0  0
   27.0508   36.1754   24.2519 C   0  0  0  0  0  0  0  0  0  0  0  0
   27.0271   37.5292   24.5659 C   0  0  1  0  0  0  0  0  0  0  0  0
   26.7143   37.9398   25.9700 C   0  0  0  0  0  0  0  0  0  0  0  0
   27.2962   38.4803   23.5701 C   0  0  1  0  0  0  0  0  0  0  0  0
   27.2896   39.9542   23.8702 C   0  0  0  0  0  0  0  0  0  0  0  0
   27.5785   38.0609   22.2727 C   0  0  0  0  0  0  0  0  0  0  0  0
   27.5985   36.7015   21.9553 C   0  0  1  0  0  0  0  0  0  0  0  0
   27.9007   34.9325   20.3662 C   0  0  1  0  0  0  0  0  0  0  0  0
   27.8772   36.2818   20.6632 N   0  0  0  0  0  0  0  0  0  0  0  0
  1  2  1  1  0  0  0
  1  3  1  0  0  0  0
  1  4  2  0  0  0  0
  1  6  1  0  0  0  0
  5  6  1  0  0  0  0
  7  5  1  1  0  0  0
  7  8  1  0  0  0  0
  7  9  1  0  0  0  0
  9 10  1  1  0  0  0
  9 11  1  0  0  0  0
 11 12  1  6  0  0  0
 11 13  1  0  0  0  0
 13 31  1  0  0  0  0
 14 15  1  0  0  0  0
 15 16  2  0  0  0  0
 15 17  1  0  0  0  0
 17 18  1  0  0  0  0
 18 20  2  0  0  0  0
 19 18  1  1  0  0  0
 19 22  1  0  0  0  0
 19 30  1  0  0  0  0
 21 23  1  6  0  0  0
 21 29  1  0  0  0  0
 21 22  1  0  0  0  0
 23 24  1  0  0  0  0
 24 25  1  1  0  0  0
 24 26  1  0  0  0  0
 26 27  1  1  0  0  0
 26 28  1  0  0  0  0
 29 28  1  1  0  0  0
 29 31  1  0  0  0  0
 30 14  1  1  0  0  0
 30 31  1  0  0  0  0
M  CHG  1   3  -1
M  END
>  <CHROM.1>
177.79332781,-33.03355819,78.28725977,-48.35433858,-62.10634411,137.97592335
67.74478679,28.07340459,37.75178037,19.97928313,1.30834843,1.31622807,-0.26568276

>  <Name>
ligand

>  <RI>
0

>  <Rbt.Current_Directory>
/home/itssahil/PROJECTS/Mol_Feturizer/New_Systems/rnas/3F2T

>  <Rbt.Executable>
rbdock ($Id: //depot/dev/client3/rdock/2013.1/src/exe/rbdock.cxx#4 $)

>  <Rbt.Library>
libRbt.so (2013.1, Build901 2013/11/27)

>  <Rbt.Parameter_File>
/export/apps/rDock/src/rDock_2013.1_src/data/scripts/dock_solv.prm

>  <Rbt.Receptor>
prm/pocket_docking_5.prm

>  <SCORE>
-27.8324

>  <SCORE.INTER>
-31.1902

>  <SCORE.INTER.CONST>
1

>  <SCORE.INTER.POLAR>
0

>  <SCORE.INTER.ROT>
7

>  <SCORE.INTER.SOLV>
18.0777

>  <SCORE.INTER.VDW>
-35.086

>  <SCORE.INTER.norm>
-1.00614

>  <SCORE.INTRA>
3.35778

>  <SCORE.INTRA.DIHEDRAL>
3.39932

>  <SCORE.INTRA.DIHEDRAL.0>
4.64198

>  <SCORE.INTRA.POLAR>
0

>  <SCORE.INTRA.POLAR.0>
0

>  <SCORE.INTRA.REPUL>
0

>  <SCORE.INTRA.REPUL.0>
0

>  <SCORE.INTRA.SOLV>
-0.725594

>  <SCORE.INTRA.SOLV.lig_0>
-49.3611

>  <SCORE.INTRA.VDW>
2.02091

>  <SCORE.INTRA.VDW.0>
-1.91858

>  <SCORE.INTRA.norm>
0.108315

>  <SCORE.RESTR>
0

>  <SCORE.RESTR.CAVITY>
0

>  <SCORE.RESTR.norm>
0

>  <SCORE.SYSTEM>
0

>  <SCORE.SYSTEM.CONST>
0

>  <SCORE.SYSTEM.DIHEDRAL>
0

>  <SCORE.SYSTEM.SOLV>
0

>  <SCORE.SYSTEM.norm>
0

>  <SCORE.heavy>
31

>  <SCORE.norm>
-0.89782

>  <RMSD>
1.755

$$$$
ligand
 OpenBabel11021811473D
libRbt.so/2013.1/901 2013/11/27
 31 33  0  0  0  0  0  0  0  0999 V2000
   27.8717   42.2433   18.0942 P   0  0  1  0  0  0  0  0  0  0  0  0
   27.9953   42.0358   19.5825 O   0  0  0  0  0  0  0  0  0  0  0  0
   26.5362   42.8753   17.8047 O   0  5  0  0  0  0  0  0  0  0  0  0
   29.0186   43.1274   17.6879 O   0  0  0  0  0  0  0  0  0  0  0  0
   27.1814   39.7573   17.6322 C   0  0  0  0  0  0  0  0  0  0  0  0
   27.9625   40.8739   17.2607 O   0  0  0  0  0  0  0  0  0  0  0  0
   27.7529   38.5035   16.9753 C   0  0  1  0  0  0  0  0  0  0  0  0
   29.0642   38.2713   17.4502 O   0  0  0  0  0  0  0  0  0  0  0  0
   26.8859   37.3010   17.3083 C   0  0  1  0  0  0  0  0  0  0  0  0
   27.5330   36.1457   16.8458 O   0  0  0  0  0  0  0  0  0  0  0  0
   26.6317   37.1584   18.7995 C   0  0  1  0  0  0  0  0  0  0  0  0
   25.8753   35.9962   19.0075 O   0  0  0  0  0  0  0  0  0  0  0  0
   27.9398   37.0477   19.5650 C   0  0  0  0  0  0  0  0  0  0  0  0
   28.0483   34.2613   19.1848 N   0  0  0  0  0  0  0  0  0  0  0  0
   28.0509   32.9057   18.9378 C   0  0  0  0  0  0  0  0  0  0  0  0
   28.2701   32.4864   17.8051 O   0  0  0  0  0  0  0  0  0  0  0  0
   27.8061   32.0109   19.9544 N   0  0  0  0  0  0  0  0  0  0  0  0
   27.5665   32.4646   21.2368 C   0  0  0  0  0  0  0  0  0  0  0  0
   27.5612   33.8308   21.4954 C   0  0  1  0  0  0  0  0  0  0  0  0
   27.3664   31.6584   22.1476 O   0  0  0  0  0  0  0  0  0  0  0  0
   27.3177   35.6494   23.0293 C   0  0  2  0  0  0  0  0  0  0  0  0
   27.3206   34.2913   22.7744 N   0  0  0  0  0  0  0  0  0  0  0  0
   27.0743   36.1135   24.3225 C   0  0  0  0  0  0  0  0  0  0  0  0
   27.0639   37.4777   24.5888 C   0  0  1  0  0  0  0  0  0  0  0  0
   26.7958   37.9388   25.9865 C   0  0  0  0  0  0  0  0  0  0  0  0
   27.3047   38.3919   23.5521 C   0  0  1  0  0  0  0  0  0  0  0  0
   27.3113   39.8755   23.7999 C   0  0  0  0  0  0  0  0  0  0  0  0
   27.5456   37.9258   22.2624 C   0  0  0  0  0  0  0  0  0  0  0  0
   27.5521   36.5560   21.9928 C   0  0  1  0  0  0  0  0  0  0  0  0
   27.8003   34.7308   20.4589 C   0  0  1  0  0  0  0  0  0  0  0  0
   27.7896   36.0899   20.7085 N   0  0  0  0  0  0  0  0  0  0  0  0
  1  2  1  1  0  0  0
  1  3  1  0  0  0  0
  1  4  2  0  0  0  0
  1  6  1  0  0  0  0
  5  6  1  0  0  0  0
  7  5  1  1  0  0  0
  7  8  1  0  0  0  0
  7  9  1  0  0  0  0
  9 10  1  1  0  0  0
  9 11  1  0  0  0  0
 11 12  1  6  0  0  0
 11 13  1  0  0  0  0
 13 31  1  0  0  0  0
 14 15  1  0  0  0  0
 15 16  2  0  0  0  0
 15 17  1  0  0  0  0
 17 18  1  0  0  0  0
 18 20  2  0  0  0  0
 19 18  1  1  0  0  0
 19 22  1  0  0  0  0
 19 30  1  0  0  0  0
 21 23  1  6  0  0  0
 21 29  1  0  0  0  0
 21 22  1  0  0  0  0
 23 24  1  0  0  0  0
 24 25  1  1  0  0  0
 24 26  1  0  0  0  0
 26 27  1  1  0  0  0
 26 28  1  0  0  0  0
 29 28  1  1  0  0  0
 29 31  1  0  0  0  0
 30 14  1  1  0  0  0
 30 31  1  0  0  0  0
M  CHG  1   3  -1
M  END
>  <CHROM.1>
-162.92754550,49.00191217,62.83292603,-172.09650668,-177.54189322,-143.21378370
-98.48904040,27.56532069,37.28028682,20.06180001,1.20100071,1.47757163,-0.02983573

>  <Name>
ligand

>  <RI>
0

>  <Rbt.Current_Directory>
/home/itssahil/PROJECTS/Mol_Feturizer/New_Systems/rnas/3F2T

>  <Rbt.Executable>
rbdock ($Id: //depot/dev/client3/rdock/2013.1/src/exe/rbdock.cxx#4 $)

>  <Rbt.Library>
libRbt.so (2013.1, Build901 2013/11/27)

>  <Rbt.Parameter_File>
/export/apps/rDock/src/rDock_2013.1_src/data/scripts/dock_solv.prm

>  <Rbt.Receptor>
prm/pocket_docking_2.prm

>  <SCORE>
-24.8729

>  <SCORE.INTER>
-28.3461

>  <SCORE.INTER.CONST>
1

>  <SCORE.INTER.POLAR>
0

>  <SCORE.INTER.ROT>
7

>  <SCORE.INTER.SOLV>
17.6827

>  <SCORE.INTER.VDW>
-33.0583

>  <SCORE.INTER.norm>
-0.91439

>  <SCORE.INTRA>
3.22199

>  <SCORE.INTRA.DIHEDRAL>
1.85057

>  <SCORE.INTRA.DIHEDRAL.0>
4.64198

>  <SCORE.INTRA.POLAR>
0

>  <SCORE.INTRA.POLAR.0>
0

>  <SCORE.INTRA.REPUL>
0

>  <SCORE.INTRA.REPUL.0>
0

>  <SCORE.INTRA.SOLV>
-0.135668

>  <SCORE.INTRA.SOLV.lig_0>
-49.3611

>  <SCORE.INTRA.VDW>
2.36454

>  <SCORE.INTRA.VDW.0>
-1.91858

>  <SCORE.INTRA.norm>
0.103935

>  <SCORE.RESTR>
0.251142

>  <SCORE.RESTR.CAVITY>
0.251142

>  <SCORE.RESTR.norm>
0.00810135

>  <SCORE.SYSTEM>
0

>  <SCORE.SYSTEM.CONST>
0

>  <SCORE.SYSTEM.DIHEDRAL>
0

>  <SCORE.SYSTEM.SOLV>
0

>  <SCORE.SYSTEM.norm>
0

>  <SCORE.heavy>
31

>  <SCORE.norm>
-0.802353

>  <RMSD>
1.773

$$$$
ligand
 OpenBabel11021811473D
libRbt.so/2013.1/901 2013/11/27
 31 33  0  0  0  0  0  0  0  0999 V2000
   26.9679   43.1495   16.6856 P   0  0  1  0  0  0  0  0  0  0  0  0
   28.1726   44.0559   16.6702 O   0  0  0  0  0  0  0  0  0  0  0  0
   25.8757   43.8125   17.4822 O   0  5  0  0  0  0  0  0  0  0  0  0
   26.5740   42.9354   15.2500 O   0  0  0  0  0  0  0  0  0  0  0  0
   28.3432   40.9276   16.8917 C   0  0  0  0  0  0  0  0  0  0  0  0
   27.2679   41.7195   17.3515 O   0  0  0  0  0  0  0  0  0  0  0  0
   28.3878   39.6280   17.6911 C   0  0  1  0  0  0  0  0  0  0  0  0
   29.2325   38.6977   17.0431 O   0  0  0  0  0  0  0  0  0  0  0  0
   28.9247   39.8947   19.0873 C   0  0  1  0  0  0  0  0  0  0  0  0
   28.1157   40.8655   19.6959 O   0  0  0  0  0  0  0  0  0  0  0  0
   28.9364   38.6489   19.9571 C   0  0  1  0  0  0  0  0  0  0  0  0
   29.4385   38.9982   21.2188 O   0  0  0  0  0  0  0  0  0  0  0  0
   27.5344   38.0843   20.1154 C   0  0  0  0  0  0  0  0  0  0  0  0
   27.7391   35.3339   19.5555 N   0  0  0  0  0  0  0  0  0  0  0  0
   27.7841   33.9970   19.2249 C   0  0  0  0  0  0  0  0  0  0  0  0
   27.9375   33.6565   18.0556 O   0  0  0  0  0  0  0  0  0  0  0  0
   27.6555   33.0328   20.1986 N   0  0  0  0  0  0  0  0  0  0  0  0
   27.4914   33.3979   21.5206 C   0  0  0  0  0  0  0  0  0  0  0  0
   27.4441   34.7445   21.8636 C   0  0  1  0  0  0  0  0  0  0  0  0
   27.3956   32.5305   22.3912 O   0  0  0  0  0  0  0  0  0  0  0  0
   27.2336   36.4554   23.5213 C   0  0  2  0  0  0  0  0  0  0  0  0
   27.2784   35.1165   23.1827 N   0  0  0  0  0  0  0  0  0  0  0  0
   27.0660   36.8300   24.8549 C   0  0  0  0  0  0  0  0  0  0  0  0
   27.0143   38.1739   25.2058 C   0  0  1  0  0  0  0  0  0  0  0  0
   26.8300   38.5380   26.6451 C   0  0  0  0  0  0  0  0  0  0  0  0
   27.1365   39.1584   24.2136 C   0  0  1  0  0  0  0  0  0  0  0  0
   27.0950   40.6233   24.5524 C   0  0  0  0  0  0  0  0  0  0  0  0
   27.3020   38.7815   22.8835 C   0  0  0  0  0  0  0  0  0  0  0  0
   27.3498   37.4320   22.5293 C   0  0  1  0  0  0  0  0  0  0  0  0
   27.5653   35.7148   20.8708 C   0  0  1  0  0  0  0  0  0  0  0  0
   27.5123   37.0545   21.2048 N   0  0  0  0  0  0  0  0  0  0  0  0
  1  2  1  1  0  0  0
  1  3  1  0  0  0  0
  1  4  2  0  0  0  0
  1  6  1  0  0  0  0
  5  6  1  0  0  0  0
  7  5  1  6  0  0  0
  7  8  1  0  0  0  0
  7  9  1  0  0  0  0
  9 10  1  1  0  0  0
  9 11  1  0  0  0  0
 11 12  1  1  0  0  0
 11 13  1  0  0  0  0
 13 31  1  0  0  0  0
 14 15  1  0  0  0  0
 15 16  2  0  0  0  0
 15 17  1  0  0  0  0
 17 18  1  0  0  0  0
 18 20  2  0  0  0  0
 19 18  1  1  0  0  0
 19 22  1  0  0  0  0
 19 30  1  0  0  0  0
 21 23  1  6  0  0  0
 21 29  1  0  0  0  0
 21 22  1  0  0  0  0
 23 24  1  0  0  0  0
 24 25  1  1  0  0  0
 24 26  1  0  0  0  0
 26 27  1  1  0  0  0
 26 28  1  0  0  0  0
 29 28  1  1  0  0  0
 29 31  1  0  0  0  0
 30 14  1  1  0  0  0
 30 31  1  0  0  0  0
M  CHG  1   3  -1
M  END
>  <CHROM.1>
-179.64021785,-53.48542632,165.85667455,56.87177480,-179.69048840,-167.46983414
85.11388169,27.61567796,38.45380612,20.27284085,1.57787190,1.44743750,-0.67044856

>  <Name>
ligand

>  <RI>
0

>  <Rbt.Current_Directory>
/home/itssahil/PROJECTS/Mol_Feturizer/New_Systems/rnas/3F2T

>  <Rbt.Executable>
rbdock ($Id: //depot/dev/client3/rdock/2013.1/src/exe/rbdock.cxx#4 $)

>  <Rbt.Library>
libRbt.so (2013.1, Build901 2013/11/27)

>  <Rbt.Parameter_File>
/export/apps/rDock/src/rDock_2013.1_src/data/scripts/dock_solv.prm

>  <Rbt.Receptor>
prm/pocket_docking_7.prm

>  <SCORE>
-28.8711

>  <SCORE.INTER>
-28.5803

>  <SCORE.INTER.CONST>
1

>  <SCORE.INTER.POLAR>
0

>  <SCORE.INTER.ROT>
7

>  <SCORE.INTER.SOLV>
18.7337

>  <SCORE.INTER.VDW>
-33.5648

>  <SCORE.INTER.norm>
-0.921946

>  <SCORE.INTRA>
-0.290754

>  <SCORE.INTRA.DIHEDRAL>
-1.97822

>  <SCORE.INTRA.DIHEDRAL.0>
4.64198

>  <SCORE.INTRA.POLAR>
0

>  <SCORE.INTRA.POLAR.0>
0

>  <SCORE.INTRA.REPUL>
0

>  <SCORE.INTRA.REPUL.0>
0

>  <SCORE.INTRA.SOLV>
-0.210709

>  <SCORE.INTRA.SOLV.lig_0>
-49.3611

>  <SCORE.INTRA.VDW>
0.803711

>  <SCORE.INTRA.VDW.0>
-1.91858

>  <SCORE.INTRA.norm>
-0.00937916

>  <SCORE.RESTR>
0

>  <SCORE.RESTR.CAVITY>
0

>  <SCORE.RESTR.norm>
0

>  <SCORE.SYSTEM>
0

>  <SCORE.SYSTEM.CONST>
0

>  <SCORE.SYSTEM.DIHEDRAL>
0

>  <SCORE.SYSTEM.SOLV>
0

>  <SCORE.SYSTEM.norm>
0

>  <SCORE.heavy>
31

>  <SCORE.norm>
-0.931325

>  <RMSD>
1.773

$$$$
ligand
 OpenBabel11021811473D
libRbt.so/2013.1/901 2013/11/27
 31 33  0  0  0  0  0  0  0  0999 V2000
   26.9684   43.0111   16.6804 P   0  0  1  0  0  0  0  0  0  0  0  0
   26.5536   42.8966   15.2354 O   0  0  0  0  0  0  0  0  0  0  0  0
   28.1941   43.8817   16.7628 O   0  5  0  0  0  0  0  0  0  0  0  0
   25.7991   43.6053   17.4163 O   0  0  0  0  0  0  0  0  0  0  0  0
   28.4415   40.8543   16.9005 C   0  0  0  0  0  0  0  0  0  0  0  0
   27.3229   41.5931   17.3451 O   0  0  0  0  0  0  0  0  0  0  0  0
   28.5371   39.5574   17.7001 C   0  0  1  0  0  0  0  0  0  0  0  0
   29.4469   38.6758   17.0727 O   0  0  0  0  0  0  0  0  0  0  0  0
   29.0239   39.8504   19.1093 C   0  0  1  0  0  0  0  0  0  0  0  0
   28.1960   40.8343   19.6693 O   0  0  0  0  0  0  0  0  0  0  0  0
   29.0011   38.6218   20.0031 C   0  0  1  0  0  0  0  0  0  0  0  0
   29.4818   38.9891   21.2680 O   0  0  0  0  0  0  0  0  0  0  0  0
   27.5887   38.0786   20.1430 C   0  0  0  0  0  0  0  0  0  0  0  0
   27.7760   35.3310   19.5637 N   0  0  0  0  0  0  0  0  0  0  0  0
   27.8135   33.9964   19.2228 C   0  0  0  0  0  0  0  0  0  0  0  0
   27.9823   33.6639   18.0532 O   0  0  0  0  0  0  0  0  0  0  0  0
   27.6602   33.0256   20.1862 N   0  0  0  0  0  0  0  0  0  0  0  0
   27.4785   33.3815   21.5084 C   0  0  0  0  0  0  0  0  0  0  0  0
   27.4386   34.7257   21.8618 C   0  0  1  0  0  0  0  0  0  0  0  0
   27.3605   32.5081   22.3702 O   0  0  0  0  0  0  0  0  0  0  0  0
   27.2180   36.4251   23.5301 C   0  0  2  0  0  0  0  0  0  0  0  0
   27.2555   35.0885   23.1811 N   0  0  0  0  0  0  0  0  0  0  0  0
   27.0327   36.7904   24.8639 C   0  0  0  0  0  0  0  0  0  0  0  0
   26.9883   38.1318   25.2250 C   0  0  1  0  0  0  0  0  0  0  0  0
   26.7845   38.4861   26.6641 C   0  0  0  0  0  0  0  0  0  0  0  0
   27.1357   39.1231   24.2431 C   0  0  1  0  0  0  0  0  0  0  0  0
   27.1028   40.5856   24.5932 C   0  0  0  0  0  0  0  0  0  0  0  0
   27.3188   38.7554   22.9127 C   0  0  0  0  0  0  0  0  0  0  0  0
   27.3594   37.4084   22.5481 C   0  0  1  0  0  0  0  0  0  0  0  0
   27.5849   35.7028   20.8791 C   0  0  1  0  0  0  0  0  0  0  0  0
   27.5393   37.0402   21.2233 N   0  0  0  0  0  0  0  0  0  0  0  0
  1  2  1  6  0  0  0
  1  3  1  0  0  0  0
  1  4  2  0  0  0  0
  1  6  1  0  0  0  0
  5  6  1  0  0  0  0
  7  5  1  6  0  0  0
  7  8  1  0  0  0  0
  7  9  1  0  0  0  0
  9 10  1  1  0  0  0
  9 11  1  0  0  0  0
 11 12  1  1  0  0  0
 11 13  1  0  0  0  0
 13 31  1  0  0  0  0
 14 15  1  0  0  0  0
 15 16  2  0  0  0  0
 15 17  1  0  0  0  0
 17 18  1  0  0  0  0
 18 20  2  0  0  0  0
 19 18  1  1  0  0  0
 19 22  1  0  0  0  0
 19 30  1  0  0  0  0
 21 23  1  6  0  0  0
 21 29  1  0  0  0  0
 21 22  1  0  0  0  0
 23 24  1  0  0  0  0
 24 25  1  1  0  0  0
 24 26  1  0  0  0  0
 26 27  1  1  0  0  0
 26 28  1  0  0  0  0
 29 28  1  1  0  0  0
 29 31  1  0  0  0  0
 30 14  1  1  0  0  0
 30 31  1  0  0  0  0
M  CHG  1   3  -1
M  END
>  <CHROM.1>
-179.95063252,66.12843438,166.55760126,53.35579663,179.22550166,-169.19040058
85.62701822,27.64091987,38.40418174,20.28235551,1.53829286,1.43942976,-0.64523188

>  <Name>
ligand

>  <RI>
0

>  <Rbt.Current_Directory>
/home/itssahil/PROJECTS/Mol_Feturizer/New_Systems/rnas/3F2T

>  <Rbt.Executable>
rbdock ($Id: //depot/dev/client3/rdock/2013.1/src/exe/rbdock.cxx#4 $)

>  <Rbt.Library>
libRbt.so (2013.1, Build901 2013/11/27)

>  <Rbt.Parameter_File>
/export/apps/rDock/src/rDock_2013.1_src/data/scripts/dock_solv.prm

>  <Rbt.Receptor>
prm/pocket_docking_8.prm

>  <SCORE>
-29.0429

>  <SCORE.INTER>
-28.941

>  <SCORE.INTER.CONST>
1

>  <SCORE.INTER.POLAR>
0

>  <SCORE.INTER.ROT>
7

>  <SCORE.INTER.SOLV>
18.3535

>  <SCORE.INTER.VDW>
-33.6785

>  <SCORE.INTER.norm>
-0.93358

>  <SCORE.INTRA>
-0.10193

>  <SCORE.INTRA.DIHEDRAL>
-2.05709

>  <SCORE.INTRA.DIHEDRAL.0>
4.64198

>  <SCORE.INTRA.POLAR>
0

>  <SCORE.INTRA.POLAR.0>
0

>  <SCORE.INTRA.REPUL>
0

>  <SCORE.INTRA.REPUL.0>
0

>  <SCORE.INTRA.SOLV>
-0.0172421

>  <SCORE.INTRA.SOLV.lig_0>
-49.3611

>  <SCORE.INTRA.VDW>
0.935237

>  <SCORE.INTRA.VDW.0>
-1.91858

>  <SCORE.INTRA.norm>
-0.00328806

>  <SCORE.RESTR>
0

>  <SCORE.RESTR.CAVITY>
0

>  <SCORE.RESTR.norm>
0

>  <SCORE.SYSTEM>
0

>  <SCORE.SYSTEM.CONST>
0

>  <SCORE.SYSTEM.DIHEDRAL>
0

>  <SCORE.SYSTEM.SOLV>
0

>  <SCORE.SYSTEM.norm>
0

>  <SCORE.heavy>
31

>  <SCORE.norm>
-0.936868

>  <RMSD>
1.822

$$$$
ligand
 OpenBabel11021811473D
libRbt.so/2013.1/901 2013/11/27
 31 33  0  0  0  0  0  0  0  0999 V2000
   27.4533   42.5039   16.9366 P   0  0  1  0  0  0  0  0  0  0  0  0
   28.5277   43.3637   16.3204 O   0  0  0  0  0  0  0  0  0  0  0  0
   27.2881   42.8990   18.3800 O   0  5  0  0  0  0  0  0  0  0  0  0
   26.2025   42.7411   16.1358 O   0  0  0  0  0  0  0  0  0  0  0  0
   28.8866   40.4219   17.6308 C   0  0  0  0  0  0  0  0  0  0  0  0
   27.8005   40.9369   16.8890 O   0  0  0  0  0  0  0  0  0  0  0  0
   28.9842   38.9163   17.3992 C   0  0  1  0  0  0  0  0  0  0  0  0
   29.5598   38.6645   16.1327 O   0  0  0  0  0  0  0  0  0  0  0  0
   29.8520   38.2805   18.4722 C   0  0  1  0  0  0  0  0  0  0  0  0
   31.0570   38.9943   18.5490 O   0  0  0  0  0  0  0  0  0  0  0  0
   29.1894   38.2862   19.8395 C   0  0  1  0  0  0  0  0  0  0  0  0
   29.0176   39.6191   20.2395 O   0  0  0  0  0  0  0  0  0  0  0  0
   27.8341   37.6005   19.7887 C   0  0  0  0  0  0  0  0  0  0  0  0
   27.9466   34.8359   19.2748 N   0  0  0  0  0  0  0  0  0  0  0  0
   27.9492   33.4934   18.9644 C   0  0  0  0  0  0  0  0  0  0  0  0
   28.1353   33.1292   17.8070 O   0  0  0  0  0  0  0  0  0  0  0  0
   27.7416   32.5502   19.9449 N   0  0  0  0  0  0  0  0  0  0  0  0
   27.5397   32.9417   21.2541 C   0  0  0  0  0  0  0  0  0  0  0  0
   27.5347   34.2942   21.5766 C   0  0  1  0  0  0  0  0  0  0  0  0
   27.3729   32.0923   22.1317 O   0  0  0  0  0  0  0  0  0  0  0  0
   27.3289   36.0373   23.2011 C   0  0  2  0  0  0  0  0  0  0  0  0
   27.3317   34.6926   22.8827 N   0  0  0  0  0  0  0  0  0  0  0  0
   27.1235   36.4386   24.5216 C   0  0  0  0  0  0  0  0  0  0  0  0
   27.1136   37.7887   24.8519 C   0  0  1  0  0  0  0  0  0  0  0  0
   26.8868   38.1819   26.2774 C   0  0  0  0  0  0  0  0  0  0  0  0
   27.3165   38.7522   23.8523 C   0  0  1  0  0  0  0  0  0  0  0  0
   27.3224   40.2225   24.1693 C   0  0  0  0  0  0  0  0  0  0  0  0
   27.5196   38.3486   22.5353 C   0  0  0  0  0  0  0  0  0  0  0  0
   27.5255   36.9931   22.2016 C   0  0  1  0  0  0  0  0  0  0  0  0
   27.7360   35.2435   20.5766 C   0  0  1  0  0  0  0  0  0  0  0  0
   27.7253   36.5892   20.8900 N   0  0  0  0  0  0  0  0  0  0  0  0
  1  2  1  6  0  0  0
  1  3  1  0  0  0  0
  1  4  2  0  0  0  0
  1  6  1  0  0  0  0
  5  6  1  0  0  0  0
  7  5  1  1  0  0  0
  7  8  1  0  0  0  0
  7  9  1  0  0  0  0
  9 10  1  1  0  0  0
  9 11  1  0  0  0  0
 11 12  1  6  0  0  0
 11 13  1  0  0  0  0
 13 31  1  0  0  0  0
 14 15  1  0  0  0  0
 15 16  2  0  0  0  0
 15 17  1  0  0  0  0
 17 18  1  0  0  0  0
 18 20  2  0  0  0  0
 19 18  1  1  0  0  0
 19 22  1  0  0  0  0
 19 30  1  0  0  0  0
 21 23  1  6  0  0  0
 21 29  1  0  0  0  0
 21 22  1  0  0  0  0
 23 24  1  0  0  0  0
 24 25  1  1  0  0  0
 24 26  1  0  0  0  0
 26 27  1  1  0  0  0
 26 28  1  0  0  0  0
 29 28  1  1  0  0  0
 29 31  1  0  0  0  0
 30 14  1  1  0  0  0
 30 31  1  0  0  0  0
M  CHG  1   3  -1
M  END
>  <CHROM.1>
-179.93684417,65.98296951,76.75847781,-50.79048198,-63.79704609,130.30018172
74.95293043,27.96577510,37.92724547,20.03592436,1.22008012,1.37911543,-0.28049106

>  <Name>
ligand

>  <RI>
0

>  <Rbt.Current_Directory>
/home/itssahil/PROJECTS/Mol_Feturizer/New_Systems/rnas/3F2T

>  <Rbt.Executable>
rbdock ($Id: //depot/dev/client3/rdock/2013.1/src/exe/rbdock.cxx#4 $)

>  <Rbt.Library>
libRbt.so (2013.1, Build901 2013/11/27)

>  <Rbt.Parameter_File>
/export/apps/rDock/src/rDock_2013.1_src/data/scripts/dock_solv.prm

>  <Rbt.Receptor>
prm/pocket_docking_3.prm

>  <SCORE>
-26.8601

>  <SCORE.INTER>
-29.8943

>  <SCORE.INTER.CONST>
1

>  <SCORE.INTER.POLAR>
0

>  <SCORE.INTER.ROT>
7

>  <SCORE.INTER.SOLV>
17.0163

>  <SCORE.INTER.VDW>
-33.8683

>  <SCORE.INTER.norm>
-0.964331

>  <SCORE.INTRA>
3.02665

>  <SCORE.INTRA.DIHEDRAL>
2.90522

>  <SCORE.INTRA.DIHEDRAL.0>
4.64198

>  <SCORE.INTRA.POLAR>
0

>  <SCORE.INTRA.POLAR.0>
0

>  <SCORE.INTRA.REPUL>
0

>  <SCORE.INTRA.REPUL.0>
0

>  <SCORE.INTRA.SOLV>
-0.448358

>  <SCORE.INTRA.SOLV.lig_0>
-49.3611

>  <SCORE.INTRA.VDW>
1.79822

>  <SCORE.INTRA.VDW.0>
-1.91858

>  <SCORE.INTRA.norm>
0.0976338

>  <SCORE.RESTR>
0.00753837

>  <SCORE.RESTR.CAVITY>
0.00753837

>  <SCORE.RESTR.norm>
0.000243173

>  <SCORE.SYSTEM>
0

>  <SCORE.SYSTEM.CONST>
0

>  <SCORE.SYSTEM.DIHEDRAL>
0

>  <SCORE.SYSTEM.SOLV>
0

>  <SCORE.SYSTEM.norm>
0

>  <SCORE.heavy>
31

>  <SCORE.norm>
-0.866454

>  <RMSD>
1.838

$$$$
ligand
 OpenBabel11021811473D
libRbt.so/2013.1/901 2013/11/27
 31 33  0  0  0  0  0  0  0  0999 V2000
   26.5149   43.1120   16.9001 P   0  0  1  0  0  0  0  0  0  0  0  0
   26.9331   42.7767   15.4909 O   0  0  0  0  0  0  0  0  0  0  0  0
   25.7413   44.4035   16.8792 O   0  5  0  0  0  0  0  0  0  0  0  0
   25.6813   41.9582   17.3860 O   0  0  0  0  0  0  0  0  0  0  0  0
   28.8298   42.3745   17.8840 C   0  0  0  0  0  0  0  0  0  0  0  0
   27.7605   43.2972   17.8964 O   0  0  0  0  0  0  0  0  0  0  0  0
   28.3205   41.0093   18.3390 C   0  0  1  0  0  0  0  0  0  0  0  0
   29.3034   40.0249   18.0869 O   0  0  0  0  0  0  0  0  0  0  0  0
   28.0186   41.0369   19.8279 C   0  0  1  0  0  0  0  0  0  0  0  0
   27.0457   42.0190   20.0652 O   0  0  0  0  0  0  0  0  0  0  0  0
   27.5072   39.7031   20.3457 C   0  0  1  0  0  0  0  0  0  0  0  0
   26.6270   39.1699   19.3934 O   0  0  0  0  0  0  0  0  0  0  0  0
   28.6541   38.7309   20.5667 C   0  0  0  0  0  0  0  0  0  0  0  0
   28.5701   36.0401   19.7468 N   0  0  0  0  0  0  0  0  0  0  0  0
   28.4901   34.7460   19.2799 C   0  0  0  0  0  0  0  0  0  0  0  0
   28.8544   34.4795   18.1384 O   0  0  0  0  0  0  0  0  0  0  0  0
   28.0004   33.7430   20.0849 N   0  0  0  0  0  0  0  0  0  0  0  0
   27.5946   34.0232   21.3751 C   0  0  0  0  0  0  0  0  0  0  0  0
   27.6709   35.3261   21.8546 C   0  0  1  0  0  0  0  0  0  0  0  0
   27.1743   33.1178   22.0985 O   0  0  0  0  0  0  0  0  0  0  0  0
   27.3438   36.9089   23.6174 C   0  0  2  0  0  0  0  0  0  0  0  0
   27.2652   35.6136   23.1425 N   0  0  0  0  0  0  0  0  0  0  0  0
   26.9333   37.1981   24.9192 C   0  0  0  0  0  0  0  0  0  0  0  0
   27.0032   38.4985   25.4052 C   0  0  1  0  0  0  0  0  0  0  0  0
   26.5510   38.7719   26.8047 C   0  0  0  0  0  0  0  0  0  0  0  0
   27.4940   39.5241   24.5832 C   0  0  1  0  0  0  0  0  0  0  0  0
   27.5945   40.9425   25.0735 C   0  0  0  0  0  0  0  0  0  0  0  0
   27.9013   39.2327   23.2840 C   0  0  0  0  0  0  0  0  0  0  0  0
   27.8276   37.9278   22.7934 C   0  0  1  0  0  0  0  0  0  0  0  0
   28.1587   36.3380   21.0302 C   0  0  1  0  0  0  0  0  0  0  0  0
   28.2306   37.6359   21.4989 N   0  0  0  0  0  0  0  0  0  0  0  0
  1  2  1  6  0  0  0
  1  3  1  0  0  0  0
  1  4  2  0  0  0  0
  1  6  1  0  0  0  0
  5  6  1  0  0  0  0
  7  5  1  1  0  0  0
  7  8  1  0  0  0  0
  7  9  1  0  0  0  0
  9 10  1  6  0  0  0
  9 11  1  0  0  0  0
 11 12  1  6  0  0  0
 11 13  1  0  0  0  0
 13 31  1  0  0  0  0
 14 15  1  0  0  0  0
 15 16  2  0  0  0  0
 15 17  1  0  0  0  0
 17 18  1  0  0  0  0
 18 20  2  0  0  0  0
 19 18  1  1  0  0  0
 19 22  1  0  0  0  0
 19 30  1  0  0  0  0
 21 23  1  6  0  0  0
 21 29  1  0  0  0  0
 21 22  1  0  0  0  0
 23 24  1  0  0  0  0
 24 25  1  1  0  0  0
 24 26  1  0  0  0  0
 26 27  1  1  0  0  0
 26 28  1  0  0  0  0
 29 28  1  1  0  0  0
 29 31  1  0  0  0  0
 30 14  1  1  0  0  0
 30 31  1  0  0  0  0
M  CHG  1   3  -1
M  END
>  <CHROM.1>
-65.02978948,-45.01557003,168.71768688,59.48634209,-40.29866180,160.22080086
-60.86144581,27.53772978,38.99397878,20.46645174,-1.98895931,-1.40359757
2.05741436

>  <Name>
ligand

>  <RI>
0

>  <Rbt.Current_Directory>
/home/itssahil/PROJECTS/Mol_Feturizer/New_Systems/rnas/3F2T

>  <Rbt.Executable>
rbdock ($Id: //depot/dev/client3/rdock/2013.1/src/exe/rbdock.cxx#4 $)

>  <Rbt.Library>
libRbt.so (2013.1, Build901 2013/11/27)

>  <Rbt.Parameter_File>
/export/apps/rDock/src/rDock_2013.1_src/data/scripts/dock_solv.prm

>  <Rbt.Receptor>
prm/pocket_docking_5.prm

>  <SCORE>
-28.0811

>  <SCORE.INTER>
-30.3008

>  <SCORE.INTER.CONST>
1

>  <SCORE.INTER.POLAR>
0

>  <SCORE.INTER.ROT>
7

>  <SCORE.INTER.SOLV>
14.6903

>  <SCORE.INTER.VDW>
-33.364

>  <SCORE.INTER.norm>
-0.977445

>  <SCORE.INTRA>
2.21967

>  <SCORE.INTRA.DIHEDRAL>
0.0295322

>  <SCORE.INTRA.DIHEDRAL.0>
4.64198

>  <SCORE.INTRA.POLAR>
0

>  <SCORE.INTRA.POLAR.0>
0

>  <SCORE.INTRA.REPUL>
0

>  <SCORE.INTRA.REPUL.0>
0

>  <SCORE.INTRA.SOLV>
3.621

>  <SCORE.INTRA.SOLV.lig_0>
-49.3611

>  <SCORE.INTRA.VDW>
0.394405

>  <SCORE.INTRA.VDW.0>
-1.91858

>  <SCORE.INTRA.norm>
0.0716023

>  <SCORE.RESTR>
0

>  <SCORE.RESTR.CAVITY>
0

>  <SCORE.RESTR.norm>
0

>  <SCORE.SYSTEM>
0

>  <SCORE.SYSTEM.CONST>
0

>  <SCORE.SYSTEM.DIHEDRAL>
0

>  <SCORE.SYSTEM.SOLV>
0

>  <SCORE.SYSTEM.norm>
0

>  <SCORE.heavy>
31

>  <SCORE.norm>
-0.905842

>  <RMSD>
1.838

$$$$
ligand
 OpenBabel11021811473D
libRbt.so/2013.1/901 2013/11/27
 31 33  0  0  0  0  0  0  0  0999 V2000
   27.4585   42.2231   16.6961 P   0  0  1  0  0  0  0  0  0  0  0  0
   26.6667   42.6092   15.4725 O   0  0  0  0  0  0  0  0  0  0  0  0
   28.5857   43.2059   16.8711 O   0  5  0  0  0  0  0  0  0  0  0  0
   26.4984   42.2478   17.8535 O   0  0  0  0  0  0  0  0  0  0  0  0
   28.9303   40.2606   17.6198 C   0  0  0  0  0  0  0  0  0  0  0  0
   28.0955   40.7528   16.5923 O   0  0  0  0  0  0  0  0  0  0  0  0
   29.2570   38.7954   17.3430 C   0  0  1  0  0  0  0  0  0  0  0  0
   29.9977   38.6898   16.1435 O   0  0  0  0  0  0  0  0  0  0  0  0
   30.0796   38.2217   18.4845 C   0  0  1  0  0  0  0  0  0  0  0  0
   31.1619   39.0802   18.7267 O   0  0  0  0  0  0  0  0  0  0  0  0
   29.2764   38.0698   19.7653 C   0  0  1  0  0  0  0  0  0  0  0  0
   28.8902   39.3469   20.1964 O   0  0  0  0  0  0  0  0  0  0  0  0
   28.0355   37.2244   19.5308 C   0  0  0  0  0  0  0  0  0  0  0  0
   28.1648   34.4464   19.1002 N   0  0  0  0  0  0  0  0  0  0  0  0
   28.1792   33.0957   18.8273 C   0  0  0  0  0  0  0  0  0  0  0  0
   28.4299   32.6992   17.6930 O   0  0  0  0  0  0  0  0  0  0  0  0
   27.9112   32.1806   19.8197 N   0  0  0  0  0  0  0  0  0  0  0  0
   27.6362   32.6087   21.1038 C   0  0  0  0  0  0  0  0  0  0  0  0
   27.6187   33.9696   21.3884 C   0  0  1  0  0  0  0  0  0  0  0  0
   27.4153   31.7844   21.9933 O   0  0  0  0  0  0  0  0  0  0  0  0
   27.3278   35.7574   22.9500 C   0  0  2  0  0  0  0  0  0  0  0  0
   27.3427   34.4045   22.6692 N   0  0  0  0  0  0  0  0  0  0  0  0
   27.0486   36.1956   24.2449 C   0  0  0  0  0  0  0  0  0  0  0  0
   27.0259   37.5543   24.5370 C   0  0  1  0  0  0  0  0  0  0  0  0
   26.7193   37.9874   25.9358 C   0  0  0  0  0  0  0  0  0  0  0  0
   27.2903   38.4893   23.5248 C   0  0  1  0  0  0  0  0  0  0  0  0
   27.2846   39.9678   23.8012 C   0  0  0  0  0  0  0  0  0  0  0  0
   27.5670   38.0489   22.2332 C   0  0  0  0  0  0  0  0  0  0  0  0
   27.5859   36.6847   21.9376 C   0  0  1  0  0  0  0  0  0  0  0  0
   27.8815   34.8903   20.3760 C   0  0  1  0  0  0  0  0  0  0  0  0
   27.8590   36.2442   20.6513 N   0  0  0  0  0  0  0  0  0  0  0  0
  1  2  1  6  0  0  0
  1  3  1  0  0  0  0
  1  4  2  0  0  0  0
  1  6  1  0  0  0  0
  5  6  1  0  0  0  0
  7  5  1  1  0  0  0
  7  8  1  0  0  0  0
  7  9  1  0  0  0  0
  9 10  1  1  0  0  0
  9 11  1  0  0  0  0
 11 12  1  6  0  0  0
 11 13  1  0  0  0  0
 13 31  1  0  0  0  0
 14 15  1  0  0  0  0
 15 16  2  0  0  0  0
 15 17  1  0  0  0  0
 17 18  1  0  0  0  0
 18 20  2  0  0  0  0
 19 18  1  1  0  0  0
 19 22  1  0  0  0  0
 19 30  1  0  0  0  0
 21 23  1  6  0  0  0
 21 29  1  0  0  0  0
 21 22  1  0  0  0  0
 23 24  1  0  0  0  0
 24 25  1  1  0  0  0
 24 26  1  0  0  0  0
 26 27  1  1  0  0  0
 26 28  1  0  0  0  0
 29 28  1  1  0  0  0
 29 31  1  0  0  0  0
 30 14  1  1  0  0  0
 30 31  1  0  0  0  0
M  CHG  1   3  -1
M  END
>  <CHROM.1>
173.42671683,176.45419013,63.78367610,-50.92097330,-64.10171110,136.36350937
65.56403807,28.04115404,37.66736974,19.85830649,1.29850036,1.33926674,-0.33035617

>  <Name>
ligand

>  <RI>
0

>  <Rbt.Current_Directory>
/home/itssahil/PROJECTS/Mol_Feturizer/New_Systems/rnas/3F2T

>  <Rbt.Executable>
rbdock ($Id: //depot/dev/client3/rdock/2013.1/src/exe/rbdock.cxx#4 $)

>  <Rbt.Library>
libRbt.so (2013.1, Build901 2013/11/27)

>  <Rbt.Parameter_File>
/export/apps/rDock/src/rDock_2013.1_src/data/scripts/dock_solv.prm

>  <Rbt.Receptor>
prm/pocket_docking_6.prm

>  <SCORE>
-28.6669

>  <SCORE.INTER>
-31.7762

>  <SCORE.INTER.CONST>
1

>  <SCORE.INTER.POLAR>
0

>  <SCORE.INTER.ROT>
7

>  <SCORE.INTER.SOLV>
17.9972

>  <SCORE.INTER.VDW>
-35.4499

>  <SCORE.INTER.norm>
-1.02504

>  <SCORE.INTRA>
3.10933

>  <SCORE.INTRA.DIHEDRAL>
1.60345

>  <SCORE.INTRA.DIHEDRAL.0>
4.64198

>  <SCORE.INTRA.POLAR>
0

>  <SCORE.INTRA.POLAR.0>
0

>  <SCORE.INTRA.REPUL>
0

>  <SCORE.INTRA.REPUL.0>
0

>  <SCORE.INTRA.SOLV>
0.0447147

>  <SCORE.INTRA.SOLV.lig_0>
-49.3611

>  <SCORE.INTRA.VDW>
2.28525

>  <SCORE.INTRA.VDW.0>
-1.91858

>  <SCORE.INTRA.norm>
0.100301

>  <SCORE.RESTR>
0

>  <SCORE.RESTR.CAVITY>
0

>  <SCORE.RESTR.norm>
0

>  <SCORE.SYSTEM>
0

>  <SCORE.SYSTEM.CONST>
0

>  <SCORE.SYSTEM.DIHEDRAL>
0

>  <SCORE.SYSTEM.SOLV>
0

>  <SCORE.SYSTEM.norm>
0

>  <SCORE.heavy>
31

>  <SCORE.norm>
-0.924738

>  <RMSD>
1.842

$$$$
ligand
 OpenBabel11021811473D
libRbt.so/2013.1/901 2013/11/27
 31 33  0  0  0  0  0  0  0  0999 V2000
   29.5689   41.3438   16.6593 P   0  0  1  0  0  0  0  0  0  0  0  0
   30.3306   41.7966   15.4394 O   0  0  0  0  0  0  0  0  0  0  0  0
   30.2868   40.1682   17.2673 O   0  5  0  0  0  0  0  0  0  0  0  0
   29.5154   42.5217   17.5930 O   0  0  0  0  0  0  0  0  0  0  0  0
   27.0535   40.9898   17.3056 C   0  0  0  0  0  0  0  0  0  0  0  0
   28.0659   40.8876   16.3261 O   0  0  0  0  0  0  0  0  0  0  0  0
   27.2831   39.9281   18.3781 C   0  0  1  0  0  0  0  0  0  0  0  0
   26.3959   40.1409   19.4581 O   0  0  0  0  0  0  0  0  0  0  0  0
   27.0367   38.5444   17.8009 C   0  0  1  0  0  0  0  0  0  0  0  0
   28.1381   38.1921   17.0071 O   0  0  0  0  0  0  0  0  0  0  0  0
   26.8475   37.4874   18.8760 C   0  0  1  0  0  0  0  0  0  0  0  0
   26.4125   36.3057   18.2593 O   0  0  0  0  0  0  0  0  0  0  0  0
   28.1517   37.2188   19.6084 C   0  0  0  0  0  0  0  0  0  0  0  0
   28.2628   34.4427   19.1603 N   0  0  0  0  0  0  0  0  0  0  0  0
   28.2703   33.0940   18.8774 C   0  0  0  0  0  0  0  0  0  0  0  0
   28.5520   32.7031   17.7484 O   0  0  0  0  0  0  0  0  0  0  0  0
   27.9608   32.1748   19.8537 N   0  0  0  0  0  0  0  0  0  0  0  0
   27.6504   32.5964   21.1319 C   0  0  0  0  0  0  0  0  0  0  0  0
   27.6395   33.9553   21.4264 C   0  0  1  0  0  0  0  0  0  0  0  0
   27.3923   31.7681   22.0075 O   0  0  0  0  0  0  0  0  0  0  0  0
   27.3200   35.7346   22.9921 C   0  0  2  0  0  0  0  0  0  0  0  0
   27.3283   34.3838   22.7013 N   0  0  0  0  0  0  0  0  0  0  0  0
   27.0052   36.1664   24.2810 C   0  0  0  0  0  0  0  0  0  0  0  0
   26.9889   37.5230   24.5829 C   0  0  1  0  0  0  0  0  0  0  0  0
   26.6433   37.9492   25.9746 C   0  0  0  0  0  0  0  0  0  0  0  0
   27.2957   38.4624   23.5868 C   0  0  1  0  0  0  0  0  0  0  0  0
   27.2982   39.9387   23.8744 C   0  0  0  0  0  0  0  0  0  0  0  0
   27.6078   38.0285   22.3011 C   0  0  0  0  0  0  0  0  0  0  0  0
   27.6204   36.6663   21.9956 C   0  0  1  0  0  0  0  0  0  0  0  0
   27.9445   34.8804   20.4300 C   0  0  1  0  0  0  0  0  0  0  0  0
   27.9288   36.2323   20.7151 N   0  0  0  0  0  0  0  0  0  0  0  0
  1  2  1  6  0  0  0
  1  3  1  0  0  0  0
  1  4  2  0  0  0  0
  1  6  1  0  0  0  0
  5  6  1  0  0  0  0
  7  5  1  6  0  0  0
  7  8  1  0  0  0  0
  7  9  1  0  0  0  0
  9 10  1  1  0  0  0
  9 11  1  0  0  0  0
 11 12  1  6  0  0  0
 11 13  1  0  0  0  0
 13 31  1  0  0  0  0
 14 15  1  0  0  0  0
 15 16  2  0  0  0  0
 15 17  1  0  0  0  0
 17 18  1  0  0  0  0
 18 20  2  0  0  0  0
 19 18  1  1  0  0  0
 19 22  1  0  0  0  0
 19 30  1  0  0  0  0
 21 23  1  6  0  0  0
 21 29  1  0  0  0  0
 21 22  1  0  0  0  0
 23 24  1  0  0  0  0
 24 25  1  1  0  0  0
 24 26  1  0  0  0  0
 26 27  1  1  0  0  0
 26 28  1  0  0  0  0
 29 28  1  1  0  0  0
 29 31  1  0  0  0  0
 30 14  1  1  0  0  0
 30 31  1  0  0  0  0
M  CHG  1   3  -1
M  END
>  <CHROM.1>
-71.70009395,-152.44302062,171.62404983,76.16915843,170.43732613,176.78682637
-91.67115121,27.90149044,37.43429334,19.83978687,-0.76025317,-1.33899713
-3.00112435

>  <Name>
ligand

>  <RI>
0

>  <Rbt.Current_Directory>
/home/itssahil/PROJECTS/Mol_Feturizer/New_Systems/rnas/3F2T

>  <Rbt.Executable>
rbdock ($Id: //depot/dev/client3/rdock/2013.1/src/exe/rbdock.cxx#4 $)

>  <Rbt.Library>
libRbt.so (2013.1, Build901 2013/11/27)

>  <Rbt.Parameter_File>
/export/apps/rDock/src/rDock_2013.1_src/data/scripts/dock_solv.prm

>  <Rbt.Receptor>
prm/blind_docking_80.prm

>  <SCORE>
-32.8344

>  <SCORE.INTER>
-34.1644

>  <SCORE.INTER.CONST>
1

>  <SCORE.INTER.POLAR>
0

>  <SCORE.INTER.ROT>
7

>  <SCORE.INTER.SOLV>
18.6002

>  <SCORE.INTER.VDW>
-37.243

>  <SCORE.INTER.norm>
-1.10208

>  <SCORE.INTRA>
1.33

>  <SCORE.INTRA.DIHEDRAL>
-0.388171

>  <SCORE.INTRA.DIHEDRAL.0>
4.64198

>  <SCORE.INTRA.POLAR>
0

>  <SCORE.INTRA.POLAR.0>
0

>  <SCORE.INTRA.REPUL>
0

>  <SCORE.INTRA.REPUL.0>
0

>  <SCORE.INTRA.SOLV>
3.57689

>  <SCORE.INTRA.SOLV.lig_0>
-49.3611

>  <SCORE.INTRA.VDW>
-0.264358

>  <SCORE.INTRA.VDW.0>
-1.91858

>  <SCORE.INTRA.norm>
0.0429032

>  <SCORE.RESTR>
0

>  <SCORE.RESTR.CAVITY>
0

>  <SCORE.RESTR.norm>
0

>  <SCORE.SYSTEM>
0

>  <SCORE.SYSTEM.CONST>
0

>  <SCORE.SYSTEM.DIHEDRAL>
0

>  <SCORE.SYSTEM.SOLV>
0

>  <SCORE.SYSTEM.norm>
0

>  <SCORE.heavy>
31

>  <SCORE.norm>
-1.05917

>  <RMSD>
1.847

$$$$
ligand
 OpenBabel11021811473D
libRbt.so/2013.1/901 2013/11/27
 31 33  0  0  0  0  0  0  0  0999 V2000
   29.6544   41.3530   16.7066 P   0  0  1  0  0  0  0  0  0  0  0  0
   30.4704   41.8327   15.5330 O   0  0  0  0  0  0  0  0  0  0  0  0
   30.3407   40.1591   17.3153 O   0  5  0  0  0  0  0  0  0  0  0  0
   29.5644   42.5072   17.6667 O   0  0  0  0  0  0  0  0  0  0  0  0
   27.1151   40.9793   17.2383 C   0  0  0  0  0  0  0  0  0  0  0  0
   28.1657   40.9124   16.2968 O   0  0  0  0  0  0  0  0  0  0  0  0
   27.3394   39.9229   18.3172 C   0  0  1  0  0  0  0  0  0  0  0  0
   26.4493   40.1431   19.3933 O   0  0  0  0  0  0  0  0  0  0  0  0
   27.0923   38.5366   17.7466 C   0  0  1  0  0  0  0  0  0  0  0  0
   28.1967   38.1770   16.9603 O   0  0  0  0  0  0  0  0  0  0  0  0
   26.8950   37.4862   18.8267 C   0  0  1  0  0  0  0  0  0  0  0  0
   26.5118   36.2871   18.2093 O   0  0  0  0  0  0  0  0  0  0  0  0
   28.1806   37.2598   19.6048 C   0  0  0  0  0  0  0  0  0  0  0  0
   28.2441   34.4850   19.1398 N   0  0  0  0  0  0  0  0  0  0  0  0
   28.2280   33.1381   18.8491 C   0  0  0  0  0  0  0  0  0  0  0  0
   28.4956   32.7494   17.7159 O   0  0  0  0  0  0  0  0  0  0  0  0
   27.9106   32.2181   19.8222 N   0  0  0  0  0  0  0  0  0  0  0  0
   27.6158   32.6371   21.1049 C   0  0  0  0  0  0  0  0  0  0  0  0
   27.6288   33.9942   21.4074 C   0  0  1  0  0  0  0  0  0  0  0  0
   27.3505   31.8078   21.9775 O   0  0  0  0  0  0  0  0  0  0  0  0
   27.3487   35.7692   22.9856 C   0  0  2  0  0  0  0  0  0  0  0  0
   27.3334   34.4201   22.6869 N   0  0  0  0  0  0  0  0  0  0  0  0
   27.0498   36.1983   24.2791 C   0  0  0  0  0  0  0  0  0  0  0  0
   27.0573   37.5532   24.5890 C   0  0  1  0  0  0  0  0  0  0  0  0
   26.7283   37.9766   25.9856 C   0  0  0  0  0  0  0  0  0  0  0  0
   27.3722   38.4934   23.5963 C   0  0  1  0  0  0  0  0  0  0  0  0
   27.4004   39.9678   23.8924 C   0  0  0  0  0  0  0  0  0  0  0  0
   27.6685   38.0622   22.3059 C   0  0  0  0  0  0  0  0  0  0  0  0
   27.6571   36.7018   21.9924 C   0  0  1  0  0  0  0  0  0  0  0  0
   27.9417   34.9202   20.4143 C   0  0  1  0  0  0  0  0  0  0  0  0
   27.9496   36.2705   20.7073 N   0  0  0  0  0  0  0  0  0  0  0  0
  1  2  1  6  0  0  0
  1  3  1  0  0  0  0
  1  4  2  0  0  0  0
  1  6  1  0  0  0  0
  5  6  1  0  0  0  0
  7  5  1  6  0  0  0
  7  8  1  0  0  0  0
  7  9  1  0  0  0  0
  9 10  1  1  0  0  0
  9 11  1  0  0  0  0
 11 12  1  6  0  0  0
 11 13  1  0  0  0  0
 13 31  1  0  0  0  0
 14 15  1  0  0  0  0
 15 16  2  0  0  0  0
 15 17  1  0  0  0  0
 17 18  1  0  0  0  0
 18 20  2  0  0  0  0
 19 18  1  1  0  0  0
 19 22  1  0  0  0  0
 19 30  1  0  0  0  0
 21 23  1  6  0  0  0
 21 29  1  0  0  0  0
 21 22  1  0  0  0  0
 23 24  1  0  0  0  0
 24 25  1  1  0  0  0
 24 26  1  0  0  0  0
 26 27  1  1  0  0  0
 26 28  1  0  0  0  0
 29 28  1  1  0  0  0
 29 31  1  0  0  0  0
 30 14  1  1  0  0  0
 30 31  1  0  0  0  0
M  CHG  1   3  -1
M  END
>  <CHROM.1>
-68.87215786,-153.22150085,168.83184855,76.28630597,172.76954065,177.26744729
-95.28399054,27.94209236,37.45529888,19.83118435,-0.66193231,-1.34521633
-2.90227055

>  <Name>
ligand

>  <RI>
0

>  <Rbt.Current_Directory>
/home/itssahil/PROJECTS/Mol_Feturizer/New_Systems/rnas/3F2T

>  <Rbt.Executable>
rbdock ($Id: //depot/dev/client3/rdock/2013.1/src/exe/rbdock.cxx#4 $)

>  <Rbt.Library>
libRbt.so (2013.1, Build901 2013/11/27)

>  <Rbt.Parameter_File>
/export/apps/rDock/src/rDock_2013.1_src/data/scripts/dock_solv.prm

>  <Rbt.Receptor>
prm/pocket_docking_6.prm

>  <SCORE>
-32.8961

>  <SCORE.INTER>
-34.2691

>  <SCORE.INTER.CONST>
1

>  <SCORE.INTER.POLAR>
0

>  <SCORE.INTER.ROT>
7

>  <SCORE.INTER.SOLV>
18.3865

>  <SCORE.INTER.VDW>
-37.2416

>  <SCORE.INTER.norm>
-1.10545

>  <SCORE.INTRA>
1.373

>  <SCORE.INTRA.DIHEDRAL>
-0.651637

>  <SCORE.INTRA.DIHEDRAL.0>
4.64198

>  <SCORE.INTRA.POLAR>
0

>  <SCORE.INTRA.POLAR.0>
0

>  <SCORE.INTRA.REPUL>
0

>  <SCORE.INTRA.REPUL.0>
0

>  <SCORE.INTRA.SOLV>
3.76583

>  <SCORE.INTRA.SOLV.lig_0>
-49.3611

>  <SCORE.INTRA.VDW>
-0.184094

>  <SCORE.INTRA.VDW.0>
-1.91858

>  <SCORE.INTRA.norm>
0.0442904

>  <SCORE.RESTR>
0

>  <SCORE.RESTR.CAVITY>
0

>  <SCORE.RESTR.norm>
0

>  <SCORE.SYSTEM>
0

>  <SCORE.SYSTEM.CONST>
0

>  <SCORE.SYSTEM.DIHEDRAL>
0

>  <SCORE.SYSTEM.SOLV>
0

>  <SCORE.SYSTEM.norm>
0

>  <SCORE.heavy>
31

>  <SCORE.norm>
-1.06116

>  <RMSD>
1.861

$$$$
ligand
 OpenBabel11021811473D
libRbt.so/2013.1/901 2013/11/27
 31 33  0  0  0  0  0  0  0  0999 V2000
   25.7260   43.2721   17.3019 P   0  0  1  0  0  0  0  0  0  0  0  0
   25.1840   44.6649   17.5010 O   0  0  0  0  0  0  0  0  0  0  0  0
   24.5715   42.3339   17.0700 O   0  5  0  0  0  0  0  0  0  0  0  0
   26.6516   43.3374   16.1182 O   0  0  0  0  0  0  0  0  0  0  0  0
   25.8840   42.1443   19.6627 C   0  0  0  0  0  0  0  0  0  0  0  0
   26.5539   42.7347   18.5684 O   0  0  0  0  0  0  0  0  0  0  0  0
   26.8702   41.9539   20.8122 C   0  0  1  0  0  0  0  0  0  0  0  0
   26.1767   41.5407   21.9728 O   0  0  0  0  0  0  0  0  0  0  0  0
   27.8969   40.8953   20.4462 C   0  0  1  0  0  0  0  0  0  0  0  0
   28.9582   40.9716   21.3600 O   0  0  0  0  0  0  0  0  0  0  0  0
   27.3227   39.4888   20.4760 C   0  0  1  0  0  0  0  0  0  0  0  0
   26.5797   39.2921   19.3034 O   0  0  0  0  0  0  0  0  0  0  0  0
   28.4311   38.4515   20.5459 C   0  0  0  0  0  0  0  0  0  0  0  0
   28.3559   35.7301   19.8327 N   0  0  0  0  0  0  0  0  0  0  0  0
   28.2763   34.4180   19.4194 C   0  0  0  0  0  0  0  0  0  0  0  0
   28.5845   34.1143   18.2706 O   0  0  0  0  0  0  0  0  0  0  0  0
   27.8498   33.4381   20.2865 N   0  0  0  0  0  0  0  0  0  0  0  0
   27.5078   33.7605   21.5854 C   0  0  0  0  0  0  0  0  0  0  0  0
   27.5842   35.0819   22.0111 C   0  0  1  0  0  0  0  0  0  0  0  0
   27.1443   32.8762   22.3636 O   0  0  0  0  0  0  0  0  0  0  0  0
   27.3206   36.7251   23.7287 C   0  0  2  0  0  0  0  0  0  0  0  0
   27.2421   35.4114   23.3073 N   0  0  0  0  0  0  0  0  0  0  0  0
   26.9745   37.0568   25.0390 C   0  0  0  0  0  0  0  0  0  0  0  0
   27.0449   38.3758   25.4717 C   0  0  1  0  0  0  0  0  0  0  0  0
   26.6625   38.6946   26.8824 C   0  0  0  0  0  0  0  0  0  0  0  0
   27.4712   39.3776   24.5867 C   0  0  1  0  0  0  0  0  0  0  0  0
   27.5701   40.8153   25.0177 C   0  0  0  0  0  0  0  0  0  0  0  0
   27.8144   39.0437   23.2792 C   0  0  0  0  0  0  0  0  0  0  0  0
   27.7401   37.7199   22.8423 C   0  0  1  0  0  0  0  0  0  0  0  0
   28.0077   36.0698   21.1244 C   0  0  1  0  0  0  0  0  0  0  0  0
   28.0792   37.3857   21.5398 N   0  0  0  0  0  0  0  0  0  0  0  0
  1  2  1  1  0  0  0
  1  3  1  0  0  0  0
  1  4  2  0  0  0  0
  1  6  1  0  0  0  0
  5  6  1  0  0  0  0
  7  5  1  6  0  0  0
  7  8  1  0  0  0  0
  7  9  1  0  0  0  0
  9 10  1  1  0  0  0
  9 11  1  0  0  0  0
 11 12  1  6  0  0  0
 11 13  1  0  0  0  0
 13 31  1  0  0  0  0
 14 15  1  0  0  0  0
 15 16  2  0  0  0  0
 15 17  1  0  0  0  0
 17 18  1  0  0  0  0
 18 20  2  0  0  0  0
 19 18  1  1  0  0  0
 19 22  1  0  0  0  0
 19 30  1  0  0  0  0
 21 23  1  6  0  0  0
 21 29  1  0  0  0  0
 21 22  1  0  0  0  0
 23 24  1  0  0  0  0
 24 25  1  1  0  0  0
 24 26  1  0  0  0  0
 26 27  1  1  0  0  0
 26 28  1  0  0  0  0
 29 28  1  1  0  0  0
 29 31  1  0  0  0  0
 30 14  1  1  0  0  0
 30 31  1  0  0  0  0
M  CHG  1   3  -1
M  END
>  <CHROM.1>
-170.11027087,83.89623694,171.81157120,165.87939879,78.17351813,136.56219613
-54.00746401,27.13267915,38.93197312,20.93742288,-2.85532281,-1.37689736
1.33749376

>  <Name>
ligand

>  <RI>
0

>  <Rbt.Current_Directory>
/home/itssahil/PROJECTS/Mol_Feturizer/New_Systems/rnas/3F2T

>  <Rbt.Executable>
rbdock ($Id: //depot/dev/client3/rdock/2013.1/src/exe/rbdock.cxx#4 $)

>  <Rbt.Library>
libRbt.so (2013.1, Build901 2013/11/27)

>  <Rbt.Parameter_File>
/export/apps/rDock/src/rDock_2013.1_src/data/scripts/dock_solv.prm

>  <Rbt.Receptor>
prm/pocket_docking_3.prm

>  <SCORE>
-27.069

>  <SCORE.INTER>
-29.8273

>  <SCORE.INTER.CONST>
1

>  <SCORE.INTER.POLAR>
0

>  <SCORE.INTER.ROT>
7

>  <SCORE.INTER.SOLV>
18.0769

>  <SCORE.INTER.VDW>
-34.1771

>  <SCORE.INTER.norm>
-0.962169

>  <SCORE.INTRA>
2.7583

>  <SCORE.INTRA.DIHEDRAL>
4.25542

>  <SCORE.INTRA.DIHEDRAL.0>
4.64198

>  <SCORE.INTRA.POLAR>
0

>  <SCORE.INTRA.POLAR.0>
0

>  <SCORE.INTRA.REPUL>
0

>  <SCORE.INTRA.REPUL.0>
0

>  <SCORE.INTRA.SOLV>
0.0657583

>  <SCORE.INTRA.SOLV.lig_0>
-49.3611

>  <SCORE.INTRA.VDW>
0.597712

>  <SCORE.INTRA.VDW.0>
-1.91858

>  <SCORE.INTRA.norm>
0.0889774

>  <SCORE.RESTR>
0

>  <SCORE.RESTR.CAVITY>
0

>  <SCORE.RESTR.norm>
0

>  <SCORE.SYSTEM>
0

>  <SCORE.SYSTEM.CONST>
0

>  <SCORE.SYSTEM.DIHEDRAL>
0

>  <SCORE.SYSTEM.SOLV>
0

>  <SCORE.SYSTEM.norm>
0

>  <SCORE.heavy>
31

>  <SCORE.norm>
-0.873192

>  <RMSD>
1.868

$$$$
ligand
 OpenBabel11021811473D
libRbt.so/2013.1/901 2013/11/27
 31 33  0  0  0  0  0  0  0  0999 V2000
   25.1572   43.8633   17.0739 P   0  0  1  0  0  0  0  0  0  0  0  0
   24.5108   45.0669   17.7117 O   0  0  0  0  0  0  0  0  0  0  0  0
   24.6667   43.7476   15.6550 O   0  5  0  0  0  0  0  0  0  0  0  0
   26.6428   44.0863   17.1450 O   0  0  0  0  0  0  0  0  0  0  0  0
   25.8348   41.5754   18.1588 C   0  0  0  0  0  0  0  0  0  0  0  0
   24.8101   42.4905   17.8310 O   0  0  0  0  0  0  0  0  0  0  0  0
   26.5974   42.0904   19.3768 C   0  0  1  0  0  0  0  0  0  0  0  0
   25.7500   42.0838   20.5084 O   0  0  0  0  0  0  0  0  0  0  0  0
   27.7980   41.2008   19.6526 C   0  0  1  0  0  0  0  0  0  0  0  0
   28.6419   41.8622   20.5569 O   0  0  0  0  0  0  0  0  0  0  0  0
   27.4063   39.8553   20.2397 C   0  0  1  0  0  0  0  0  0  0  0  0
   26.6825   39.1464   19.2703 O   0  0  0  0  0  0  0  0  0  0  0  0
   28.6374   39.0543   20.6299 C   0  0  0  0  0  0  0  0  0  0  0  0
   28.6118   36.4012   19.6915 N   0  0  0  0  0  0  0  0  0  0  0  0
   28.5593   35.1276   19.1681 C   0  0  0  0  0  0  0  0  0  0  0  0
   28.9201   34.9211   18.0131 O   0  0  0  0  0  0  0  0  0  0  0  0
   28.1013   34.0780   19.9313 N   0  0  0  0  0  0  0  0  0  0  0  0
   27.7001   34.2906   21.2358 C   0  0  0  0  0  0  0  0  0  0  0  0
   27.7487   35.5724   21.7723 C   0  0  1  0  0  0  0  0  0  0  0  0
   27.3084   33.3438   21.9212 O   0  0  0  0  0  0  0  0  0  0  0  0
   27.3985   37.0668   23.6063 C   0  0  2  0  0  0  0  0  0  0  0  0
   27.3475   35.7923   23.0748 N   0  0  0  0  0  0  0  0  0  0  0  0
   26.9925   37.2877   24.9228 C   0  0  0  0  0  0  0  0  0  0  0  0
   27.0350   38.5666   25.4657 C   0  0  1  0  0  0  0  0  0  0  0  0
   26.5884   38.7663   26.8795 C   0  0  0  0  0  0  0  0  0  0  0  0
   27.4934   39.6396   24.6865 C   0  0  1  0  0  0  0  0  0  0  0  0
   27.5636   41.0368   25.2388 C   0  0  0  0  0  0  0  0  0  0  0  0
   27.8963   39.4162   23.3726 C   0  0  0  0  0  0  0  0  0  0  0  0
   27.8502   38.1329   22.8249 C   0  0  1  0  0  0  0  0  0  0  0  0
   28.2046   36.6316   20.9901 C   0  0  1  0  0  0  0  0  0  0  0  0
   28.2489   37.9088   21.5156 N   0  0  0  0  0  0  0  0  0  0  0  0
  1  2  1  1  0  0  0
  1  3  1  0  0  0  0
  1  4  2  0  0  0  0
  1  6  1  0  0  0  0
  5  6  1  0  0  0  0
  7  5  1  6  0  0  0
  7  8  1  0  0  0  0
  7  9  1  0  0  0  0
  9 10  1  1  0  0  0
  9 11  1  0  0  0  0
 11 12  1  6  0  0  0
 11 13  1  0  0  0  0
 13 31  1  0  0  0  0
 14 15  1  0  0  0  0
 15 16  2  0  0  0  0
 15 17  1  0  0  0  0
 17 18  1  0  0  0  0
 18 20  2  0  0  0  0
 19 18  1  1  0  0  0
 19 22  1  0  0  0  0
 19 30  1  0  0  0  0
 21 23  1  6  0  0  0
 21 29  1  0  0  0  0
 21 22  1  0  0  0  0
 23 24  1  0  0  0  0
 24 25  1  1  0  0  0
 24 26  1  0  0  0  0
 26 27  1  1  0  0  0
 26 28  1  0  0  0  0
 29 28  1  1  0  0  0
 29 31  1  0  0  0  0
 30 14  1  1  0  0  0
 30 31  1  0  0  0  0
M  CHG  1   3  -1
M  END
>  <CHROM.1>
76.73103934,-132.10954407,66.30705629,166.24675522,65.88293594,165.43419461
-71.91245750,27.05393644,39.36059215,20.62174632,-2.74929339,-1.30075928
1.38745489

>  <Name>
ligand

>  <RI>
0

>  <Rbt.Current_Directory>
/home/itssahil/PROJECTS/Mol_Feturizer/New_Systems/rnas/3F2T

>  <Rbt.Executable>
rbdock ($Id: //depot/dev/client3/rdock/2013.1/src/exe/rbdock.cxx#4 $)

>  <Rbt.Library>
libRbt.so (2013.1, Build901 2013/11/27)

>  <Rbt.Parameter_File>
/export/apps/rDock/src/rDock_2013.1_src/data/scripts/dock_solv.prm

>  <Rbt.Receptor>
prm/pocket_docking_4.prm

>  <SCORE>
-26.3262

>  <SCORE.INTER>
-28.7701

>  <SCORE.INTER.CONST>
1

>  <SCORE.INTER.POLAR>
0

>  <SCORE.INTER.ROT>
7

>  <SCORE.INTER.SOLV>
16.3477

>  <SCORE.INTER.VDW>
-32.896

>  <SCORE.INTER.norm>
-0.928067

>  <SCORE.INTRA>
2.44387

>  <SCORE.INTRA.DIHEDRAL>
1.57025

>  <SCORE.INTRA.DIHEDRAL.0>
4.64198

>  <SCORE.INTRA.POLAR>
0

>  <SCORE.INTRA.POLAR.0>
0

>  <SCORE.INTRA.REPUL>
0

>  <SCORE.INTRA.REPUL.0>
0

>  <SCORE.INTRA.SOLV>
1.76487

>  <SCORE.INTRA.SOLV.lig_0>
-49.3611

>  <SCORE.INTRA.VDW>
0.776311

>  <SCORE.INTRA.VDW.0>
-1.91858

>  <SCORE.INTRA.norm>
0.0788346

>  <SCORE.RESTR>
0

>  <SCORE.RESTR.CAVITY>
0

>  <SCORE.RESTR.norm>
0

>  <SCORE.SYSTEM>
0

>  <SCORE.SYSTEM.CONST>
0

>  <SCORE.SYSTEM.DIHEDRAL>
0

>  <SCORE.SYSTEM.SOLV>
0

>  <SCORE.SYSTEM.norm>
0

>  <SCORE.heavy>
31

>  <SCORE.norm>
-0.849233

>  <RMSD>
1.955

$$$$
ligand
 OpenBabel11021811473D
libRbt.so/2013.1/901 2013/11/27
 31 33  0  0  0  0  0  0  0  0999 V2000
   27.0184   42.2056   16.9705 P   0  0  1  0  0  0  0  0  0  0  0  0
   28.3256   42.7399   17.4989 O   0  0  0  0  0  0  0  0  0  0  0  0
   25.9820   42.3048   18.0582 O   0  5  0  0  0  0  0  0  0  0  0  0
   26.6661   43.0430   15.7719 O   0  0  0  0  0  0  0  0  0  0  0  0
   27.3900   39.6565   17.4547 C   0  0  0  0  0  0  0  0  0  0  0  0
   27.1089   40.6696   16.5116 O   0  0  0  0  0  0  0  0  0  0  0  0
   28.8969   39.5934   17.6902 C   0  0  1  0  0  0  0  0  0  0  0  0
   29.5535   40.4983   16.8249 O   0  0  0  0  0  0  0  0  0  0  0  0
   29.2142   39.9659   19.1287 C   0  0  1  0  0  0  0  0  0  0  0  0
   28.2939   40.9373   19.5489 O   0  0  0  0  0  0  0  0  0  0  0  0
   29.1381   38.7764   20.0711 C   0  0  1  0  0  0  0  0  0  0  0  0
   29.6247   39.1760   21.3239 O   0  0  0  0  0  0  0  0  0  0  0  0
   27.7049   38.2941   20.2217 C   0  0  0  0  0  0  0  0  0  0  0  0
   27.8794   35.5488   19.6275 N   0  0  0  0  0  0  0  0  0  0  0  0
   27.9120   34.2162   19.2782 C   0  0  0  0  0  0  0  0  0  0  0  0
   28.1039   33.8902   18.1104 O   0  0  0  0  0  0  0  0  0  0  0  0
   27.7281   33.2405   20.2311 N   0  0  0  0  0  0  0  0  0  0  0  0
   27.5201   33.5891   21.5514 C   0  0  0  0  0  0  0  0  0  0  0  0
   27.4848   34.9312   21.9132 C   0  0  1  0  0  0  0  0  0  0  0  0
   27.3746   32.7110   22.4042 O   0  0  0  0  0  0  0  0  0  0  0  0
   27.2428   36.6212   23.5880 C   0  0  2  0  0  0  0  0  0  0  0  0
   27.2756   35.2868   23.2306 N   0  0  0  0  0  0  0  0  0  0  0  0
   27.0310   36.9792   24.9198 C   0  0  0  0  0  0  0  0  0  0  0  0
   26.9911   38.3185   25.2893 C   0  0  1  0  0  0  0  0  0  0  0  0
   26.7584   38.6649   26.7259 C   0  0  0  0  0  0  0  0  0  0  0  0
   27.1698   39.3150   24.3179 C   0  0  1  0  0  0  0  0  0  0  0  0
   27.1427   40.7753   24.6774 C   0  0  0  0  0  0  0  0  0  0  0  0
   27.3792   38.9547   22.9893 C   0  0  0  0  0  0  0  0  0  0  0  0
   27.4154   37.6099   22.6164 C   0  0  1  0  0  0  0  0  0  0  0  0
   27.6623   35.9135   20.9409 C   0  0  1  0  0  0  0  0  0  0  0  0
   27.6216   37.2490   21.2933 N   0  0  0  0  0  0  0  0  0  0  0  0
  1  2  1  1  0  0  0
  1  3  1  0  0  0  0
  1  4  2  0  0  0  0
  1  6  1  0  0  0  0
  5  6  1  0  0  0  0
  7  5  1  1  0  0  0
  7  8  1  0  0  0  0
  7  9  1  0  0  0  0
  9 10  1  1  0  0  0
  9 11  1  0  0  0  0
 11 12  1  1  0  0  0
 11 13  1  0  0  0  0
 13 31  1  0  0  0  0
 14 15  1  0  0  0  0
 15 16  2  0  0  0  0
 15 17  1  0  0  0  0
 17 18  1  0  0  0  0
 18 20  2  0  0  0  0
 19 18  1  1  0  0  0
 19 22  1  0  0  0  0
 19 30  1  0  0  0  0
 21 23  1  6  0  0  0
 21 29  1  0  0  0  0
 21 22  1  0  0  0  0
 23 24  1  0  0  0  0
 24 25  1  1  0  0  0
 24 26  1  0  0  0  0
 26 27  1  1  0  0  0
 26 28  1  0  0  0  0
 29 28  1  1  0  0  0
 29 31  1  0  0  0  0
 30 14  1  1  0  0  0
 30 31  1  0  0  0  0
M  CHG  1   3  -1
M  END
>  <CHROM.1>
-81.83224068,63.83346885,-4.17341747,-34.07539696,171.83871601,-172.22071854
88.36166484,27.68070656,38.39488573,20.38349316,1.37152638,1.45708404,-0.55823081

>  <Name>
ligand

>  <RI>
0

>  <Rbt.Current_Directory>
/home/itssahil/PROJECTS/Mol_Feturizer/New_Systems/rnas/3F2T

>  <Rbt.Executable>
rbdock ($Id: //depot/dev/client3/rdock/2013.1/src/exe/rbdock.cxx#4 $)

>  <Rbt.Library>
libRbt.so (2013.1, Build901 2013/11/27)

>  <Rbt.Parameter_File>
/export/apps/rDock/src/rDock_2013.1_src/data/scripts/dock_solv.prm

>  <Rbt.Receptor>
prm/pocket_docking_6.prm

>  <SCORE>
-22.187

>  <SCORE.INTER>
-29.0913

>  <SCORE.INTER.CONST>
1

>  <SCORE.INTER.POLAR>
0

>  <SCORE.INTER.ROT>
7

>  <SCORE.INTER.SOLV>
16.1008

>  <SCORE.INTER.VDW>
-33.0278

>  <SCORE.INTER.norm>
-0.938428

>  <SCORE.INTRA>
6.90431

>  <SCORE.INTRA.DIHEDRAL>
6.62174

>  <SCORE.INTRA.DIHEDRAL.0>
4.64198

>  <SCORE.INTRA.POLAR>
0

>  <SCORE.INTRA.POLAR.0>
0

>  <SCORE.INTRA.REPUL>
0

>  <SCORE.INTRA.REPUL.0>
0

>  <SCORE.INTRA.SOLV>
2.98699

>  <SCORE.INTRA.SOLV.lig_0>
-49.3611

>  <SCORE.INTRA.VDW>
2.09995

>  <SCORE.INTRA.VDW.0>
-1.91858

>  <SCORE.INTRA.norm>
0.22272

>  <SCORE.RESTR>
0

>  <SCORE.RESTR.CAVITY>
0

>  <SCORE.RESTR.norm>
0

>  <SCORE.SYSTEM>
0

>  <SCORE.SYSTEM.CONST>
0

>  <SCORE.SYSTEM.DIHEDRAL>
0

>  <SCORE.SYSTEM.SOLV>
0

>  <SCORE.SYSTEM.norm>
0

>  <SCORE.heavy>
31

>  <SCORE.norm>
-0.715708

>  <RMSD>
1.961

$$$$
ligand
 OpenBabel11021811473D
libRbt.so/2013.1/901 2013/11/27
 31 33  0  0  0  0  0  0  0  0999 V2000
   26.4116   43.8411   16.7085 P   0  0  1  0  0  0  0  0  0  0  0  0
   25.8304   45.1574   17.1589 O   0  0  0  0  0  0  0  0  0  0  0  0
   25.2826   42.8803   16.4454 O   0  5  0  0  0  0  0  0  0  0  0  0
   27.2137   44.1283   15.4691 O   0  0  0  0  0  0  0  0  0  0  0  0
   26.8472   42.4119   18.8621 C   0  0  0  0  0  0  0  0  0  0  0  0
   27.3818   43.1772   17.8022 O   0  0  0  0  0  0  0  0  0  0  0  0
   27.9833   41.9504   19.7713 C   0  0  1  0  0  0  0  0  0  0  0  0
   28.6063   43.0726   20.3639 O   0  0  0  0  0  0  0  0  0  0  0  0
   27.4386   41.0506   20.8678 C   0  0  1  0  0  0  0  0  0  0  0  0
   26.2274   41.5908   21.3245 O   0  0  0  0  0  0  0  0  0  0  0  0
   27.1937   39.6291   20.3900 C   0  0  1  0  0  0  0  0  0  0  0  0
   26.9124   39.6690   19.0169 O   0  0  0  0  0  0  0  0  0  0  0  0
   28.4174   38.7592   20.6249 C   0  0  0  0  0  0  0  0  0  0  0  0
   28.3687   36.0543   19.8496 N   0  0  0  0  0  0  0  0  0  0  0  0
   28.3010   34.7510   19.4071 C   0  0  0  0  0  0  0  0  0  0  0  0
   28.5964   34.4783   18.2473 O   0  0  0  0  0  0  0  0  0  0  0  0
   27.9006   33.7455   20.2572 N   0  0  0  0  0  0  0  0  0  0  0  0
   27.5733   34.0330   21.5680 C   0  0  0  0  0  0  0  0  0  0  0  0
   27.6380   35.3452   22.0232 C   0  0  1  0  0  0  0  0  0  0  0  0
   27.2334   33.1260   22.3305 O   0  0  0  0  0  0  0  0  0  0  0  0
   27.3773   36.9444   23.7822 C   0  0  2  0  0  0  0  0  0  0  0  0
   27.3105   35.6398   23.3316 N   0  0  0  0  0  0  0  0  0  0  0  0
   27.0459   37.2409   25.1048 C   0  0  0  0  0  0  0  0  0  0  0  0
   27.1047   38.5504   25.5670 C   0  0  1  0  0  0  0  0  0  0  0  0
   26.7387   38.8312   26.9901 C   0  0  0  0  0  0  0  0  0  0  0  0
   27.5043   39.5783   24.6996 C   0  0  1  0  0  0  0  0  0  0  0  0
   27.5899   41.0068   25.1625 C   0  0  0  0  0  0  0  0  0  0  0  0
   27.8328   39.2795   23.3799 C   0  0  0  0  0  0  0  0  0  0  0  0
   27.7701   37.9652   22.9134 C   0  0  1  0  0  0  0  0  0  0  0  0
   28.0350   36.3591   21.1538 C   0  0  1  0  0  0  0  0  0  0  0  0
   28.0946   37.6659   21.5987 N   0  0  0  0  0  0  0  0  0  0  0  0
  1  2  1  1  0  0  0
  1  3  1  0  0  0  0
  1  4  2  0  0  0  0
  1  6  1  0  0  0  0
  5  6  1  0  0  0  0
  7  5  1  6  0  0  0
  7  8  1  0  0  0  0
  7  9  1  0  0  0  0
  9 10  1  6  0  0  0
  9 11  1  0  0  0  0
 11 12  1  6  0  0  0
 11 13  1  0  0  0  0
 13 31  1  0  0  0  0
 14 15  1  0  0  0  0
 15 16  2  0  0  0  0
 15 17  1  0  0  0  0
 17 18  1  0  0  0  0
 18 20  2  0  0  0  0
 19 18  1  1  0  0  0
 19 22  1  0  0  0  0
 19 30  1  0  0  0  0
 21 23  1  6  0  0  0
 21 29  1  0  0  0  0
 21 22  1  0  0  0  0
 23 24  1  0  0  0  0
 24 25  1  1  0  0  0
 24 26  1  0  0  0  0
 26 27  1  1  0  0  0
 26 28  1  0  0  0  0
 29 28  1  1  0  0  0
 29 31  1  0  0  0  0
 30 14  1  1  0  0  0
 30 31  1  0  0  0  0
M  CHG  1   3  -1
M  END
>  <CHROM.1>
-177.92827298,83.14204369,63.72739908,-40.93587640,-28.20485841,116.37636556
-65.06917896,27.34745371,39.30241585,20.72179046,-2.49151658,-1.44348555
1.62153121

>  <Name>
ligand

>  <RI>
0

>  <Rbt.Current_Directory>
/home/itssahil/PROJECTS/Mol_Feturizer/New_Systems/rnas/3F2T

>  <Rbt.Executable>
rbdock ($Id: //depot/dev/client3/rdock/2013.1/src/exe/rbdock.cxx#4 $)

>  <Rbt.Library>
libRbt.so (2013.1, Build901 2013/11/27)

>  <Rbt.Parameter_File>
/export/apps/rDock/src/rDock_2013.1_src/data/scripts/dock_solv.prm

>  <Rbt.Receptor>
prm/pocket_docking_5.prm

>  <SCORE>
-24.6649

>  <SCORE.INTER>
-30.0361

>  <SCORE.INTER.CONST>
1

>  <SCORE.INTER.POLAR>
0

>  <SCORE.INTER.ROT>
7

>  <SCORE.INTER.SOLV>
20.3719

>  <SCORE.INTER.VDW>
-35.0813

>  <SCORE.INTER.norm>
-0.968905

>  <SCORE.INTRA>
5.37119

>  <SCORE.INTRA.DIHEDRAL>
6.73094

>  <SCORE.INTRA.DIHEDRAL.0>
4.64198

>  <SCORE.INTRA.POLAR>
0

>  <SCORE.INTRA.POLAR.0>
0

>  <SCORE.INTRA.REPUL>
0

>  <SCORE.INTRA.REPUL.0>
0

>  <SCORE.INTRA.SOLV>
-0.418319

>  <SCORE.INTRA.SOLV.lig_0>
-49.3611

>  <SCORE.INTRA.VDW>
2.21488

>  <SCORE.INTRA.VDW.0>
-1.91858

>  <SCORE.INTRA.norm>
0.173264

>  <SCORE.RESTR>
0

>  <SCORE.RESTR.CAVITY>
0

>  <SCORE.RESTR.norm>
0

>  <SCORE.SYSTEM>
0

>  <SCORE.SYSTEM.CONST>
0

>  <SCORE.SYSTEM.DIHEDRAL>
0

>  <SCORE.SYSTEM.SOLV>
0

>  <SCORE.SYSTEM.norm>
0

>  <SCORE.heavy>
31

>  <SCORE.norm>
-0.795641

>  <RMSD>
1.966

$$$$
ligand
 OpenBabel11021811473D
libRbt.so/2013.1/901 2013/11/27
 31 33  0  0  0  0  0  0  0  0999 V2000
   25.5295   41.5083   19.6309 P   0  0  1  0  0  0  0  0  0  0  0  0
   25.7072   42.8969   19.0709 O   0  0  0  0  0  0  0  0  0  0  0  0
   25.6742   41.5700   21.1283 O   0  5  0  0  0  0  0  0  0  0  0  0
   24.1604   41.0486   19.2109 O   0  0  0  0  0  0  0  0  0  0  0  0
   26.9606   40.4576   17.7026 C   0  0  0  0  0  0  0  0  0  0  0  0
   26.6129   40.4635   19.0715 O   0  0  0  0  0  0  0  0  0  0  0  0
   27.9853   39.3549   17.4494 C   0  0  1  0  0  0  0  0  0  0  0  0
   29.0517   39.4736   18.3700 O   0  0  0  0  0  0  0  0  0  0  0  0
   27.3350   37.9921   17.6188 C   0  0  1  0  0  0  0  0  0  0  0  0
   28.1793   37.0243   17.0550 O   0  0  0  0  0  0  0  0  0  0  0  0
   27.0872   37.6395   19.0758 C   0  0  1  0  0  0  0  0  0  0  0  0
   26.1313   36.6148   19.1239 O   0  0  0  0  0  0  0  0  0  0  0  0
   28.3661   37.1624   19.7439 C   0  0  0  0  0  0  0  0  0  0  0  0
   28.3446   34.3801   19.3217 N   0  0  0  0  0  0  0  0  0  0  0  0
   28.2905   33.0304   19.0496 C   0  0  0  0  0  0  0  0  0  0  0  0
   28.5970   32.6137   17.9364 O   0  0  0  0  0  0  0  0  0  0  0  0
   27.8913   32.1387   20.0189 N   0  0  0  0  0  0  0  0  0  0  0  0
   27.5516   32.5890   21.2798 C   0  0  0  0  0  0  0  0  0  0  0  0
   27.6024   33.9492   21.5634 C   0  0  1  0  0  0  0  0  0  0  0  0
   27.2128   31.7844   22.1500 O   0  0  0  0  0  0  0  0  0  0  0  0
   27.3155   35.7585   23.1009 C   0  0  2  0  0  0  0  0  0  0  0  0
   27.2625   34.4063   22.8209 N   0  0  0  0  0  0  0  0  0  0  0  0
   26.9716   36.2192   24.3722 C   0  0  0  0  0  0  0  0  0  0  0  0
   27.0165   37.5776   24.6630 C   0  0  1  0  0  0  0  0  0  0  0  0
   26.6373   38.0354   26.0358 C   0  0  0  0  0  0  0  0  0  0  0  0
   27.4149   38.4892   23.6736 C   0  0  1  0  0  0  0  0  0  0  0  0
   27.4857   39.9660   23.9499 C   0  0  0  0  0  0  0  0  0  0  0  0
   27.7559   38.0266   22.4054 C   0  0  0  0  0  0  0  0  0  0  0  0
   27.7071   36.6628   22.1109 C   0  0  1  0  0  0  0  0  0  0  0  0
   27.9983   34.8467   20.5737 C   0  0  1  0  0  0  0  0  0  0  0  0
   28.0442   36.2003   20.8477 N   0  0  0  0  0  0  0  0  0  0  0  0
  1  2  1  6  0  0  0
  1  3  1  0  0  0  0
  1  4  2  0  0  0  0
  1  6  1  0  0  0  0
  5  6  1  0  0  0  0
  7  5  1  1  0  0  0
  7  8  1  0  0  0  0
  7  9  1  0  0  0  0
  9 10  1  1  0  0  0
  9 11  1  0  0  0  0
 11 12  1  6  0  0  0
 11 13  1  0  0  0  0
 13 31  1  0  0  0  0
 14 15  1  0  0  0  0
 15 16  2  0  0  0  0
 15 17  1  0  0  0  0
 17 18  1  0  0  0  0
 18 20  2  0  0  0  0
 19 18  1  1  0  0  0
 19 22  1  0  0  0  0
 19 30  1  0  0  0  0
 21 23  1  6  0  0  0
 21 29  1  0  0  0  0
 21 22  1  0  0  0  0
 23 24  1  0  0  0  0
 24 25  1  1  0  0  0
 24 26  1  0  0  0  0
 26 27  1  1  0  0  0
 26 28  1  0  0  0  0
 29 28  1  1  0  0  0
 29 31  1  0  0  0  0
 30 14  1  1  0  0  0
 30 31  1  0  0  0  0
M  CHG  1   3  -1
M  END
>  <CHROM.1>
-179.00235363,-42.76248274,-51.20684726,164.98829647,161.33803021,-150.99945385
-84.02702338,27.18656937,37.36505757,20.51846963,2.58301851,1.32164126,-1.18602348

>  <Name>
ligand

>  <RI>
0

>  <Rbt.Current_Directory>
/home/itssahil/PROJECTS/Mol_Feturizer/New_Systems/rnas/3F2T

>  <Rbt.Executable>
rbdock ($Id: //depot/dev/client3/rdock/2013.1/src/exe/rbdock.cxx#4 $)

>  <Rbt.Library>
libRbt.so (2013.1, Build901 2013/11/27)

>  <Rbt.Parameter_File>
/export/apps/rDock/src/rDock_2013.1_src/data/scripts/dock_solv.prm

>  <Rbt.Receptor>
prm/pocket_docking_5.prm

>  <SCORE>
-29.6132

>  <SCORE.INTER>
-31.5177

>  <SCORE.INTER.CONST>
1

>  <SCORE.INTER.POLAR>
0

>  <SCORE.INTER.ROT>
7

>  <SCORE.INTER.SOLV>
19.1349

>  <SCORE.INTER.VDW>
-35.6567

>  <SCORE.INTER.norm>
-1.0167

>  <SCORE.INTRA>
1.90454

>  <SCORE.INTRA.DIHEDRAL>
1.62122

>  <SCORE.INTRA.DIHEDRAL.0>
4.64198

>  <SCORE.INTRA.POLAR>
0

>  <SCORE.INTRA.POLAR.0>
0

>  <SCORE.INTRA.REPUL>
0

>  <SCORE.INTRA.REPUL.0>
0

>  <SCORE.INTRA.SOLV>
0.619123

>  <SCORE.INTRA.SOLV.lig_0>
-49.3611

>  <SCORE.INTRA.VDW>
0.784371

>  <SCORE.INTRA.VDW.0>
-1.91858

>  <SCORE.INTRA.norm>
0.0614368

>  <SCORE.RESTR>
0

>  <SCORE.RESTR.CAVITY>
0

>  <SCORE.RESTR.norm>
0

>  <SCORE.SYSTEM>
0

>  <SCORE.SYSTEM.CONST>
0

>  <SCORE.SYSTEM.DIHEDRAL>
0

>  <SCORE.SYSTEM.SOLV>
0

>  <SCORE.SYSTEM.norm>
0

>  <SCORE.heavy>
31

>  <SCORE.norm>
-0.955263

>  <RMSD>
1.966

$$$$
ligand
 OpenBabel11021811473D
libRbt.so/2013.1/901 2013/11/27
 31 33  0  0  0  0  0  0  0  0999 V2000
   25.7620   41.4874   19.6330 P   0  0  1  0  0  0  0  0  0  0  0  0
   25.9835   42.8663   19.0648 O   0  0  0  0  0  0  0  0  0  0  0  0
   25.9494   41.5452   21.1258 O   0  5  0  0  0  0  0  0  0  0  0  0
   24.3638   41.0859   19.2510 O   0  0  0  0  0  0  0  0  0  0  0  0
   27.0886   40.3685   17.6686 C   0  0  0  0  0  0  0  0  0  0  0  0
   26.7845   40.3965   19.0476 O   0  0  0  0  0  0  0  0  0  0  0  0
   28.1007   39.2579   17.3998 C   0  0  1  0  0  0  0  0  0  0  0  0
   29.1830   39.3696   18.3025 O   0  0  0  0  0  0  0  0  0  0  0  0
   27.4431   37.9002   17.5816 C   0  0  1  0  0  0  0  0  0  0  0  0
   28.3037   36.9182   17.0695 O   0  0  0  0  0  0  0  0  0  0  0  0
   27.1476   37.5839   19.0381 C   0  0  1  0  0  0  0  0  0  0  0  0
   26.1831   36.5671   19.0803 O   0  0  0  0  0  0  0  0  0  0  0  0
   28.4016   37.1141   19.7566 C   0  0  0  0  0  0  0  0  0  0  0  0
   28.3944   34.3323   19.3307 N   0  0  0  0  0  0  0  0  0  0  0  0
   28.3495   32.9829   19.0552 C   0  0  0  0  0  0  0  0  0  0  0  0
   28.6944   32.5675   17.9528 O   0  0  0  0  0  0  0  0  0  0  0  0
   27.9168   32.0901   20.0091 N   0  0  0  0  0  0  0  0  0  0  0  0
   27.5337   32.5390   21.2579 C   0  0  0  0  0  0  0  0  0  0  0  0
   27.5749   33.8989   21.5447 C   0  0  1  0  0  0  0  0  0  0  0  0
   27.1648   31.7334   22.1150 O   0  0  0  0  0  0  0  0  0  0  0  0
   27.2352   35.7064   23.0735 C   0  0  2  0  0  0  0  0  0  0  0  0
   27.1916   34.3546   22.7902 N   0  0  0  0  0  0  0  0  0  0  0  0
   26.8474   36.1657   24.3327 C   0  0  0  0  0  0  0  0  0  0  0  0
   26.8824   37.5238   24.6264 C   0  0  1  0  0  0  0  0  0  0  0  0
   26.4560   37.9801   25.9858 C   0  0  0  0  0  0  0  0  0  0  0  0
   27.3150   38.4365   23.6525 C   0  0  1  0  0  0  0  0  0  0  0  0
   27.3765   39.9129   23.9329 C   0  0  0  0  0  0  0  0  0  0  0  0
   27.6998   37.9753   22.3963 C   0  0  0  0  0  0  0  0  0  0  0  0
   27.6610   36.6119   22.0988 C   0  0  1  0  0  0  0  0  0  0  0  0
   28.0049   34.7975   20.5705 C   0  0  1  0  0  0  0  0  0  0  0  0
   28.0416   36.1507   20.8475 N   0  0  0  0  0  0  0  0  0  0  0  0
  1  2  1  6  0  0  0
  1  3  1  0  0  0  0
  1  4  2  0  0  0  0
  1  6  1  0  0  0  0
  5  6  1  0  0  0  0
  7  5  1  1  0  0  0
  7  8  1  0  0  0  0
  7  9  1  0  0  0  0
  9 10  1  1  0  0  0
  9 11  1  0  0  0  0
 11 12  1  6  0  0  0
 11 13  1  0  0  0  0
 13 31  1  0  0  0  0
 14 15  1  0  0  0  0
 15 16  2  0  0  0  0
 15 17  1  0  0  0  0
 17 18  1  0  0  0  0
 18 20  2  0  0  0  0
 19 18  1  1  0  0  0
 19 22  1  0  0  0  0
 19 30  1  0  0  0  0
 21 23  1  6  0  0  0
 21 29  1  0  0  0  0
 21 22  1  0  0  0  0
 23 24  1  0  0  0  0
 24 25  1  1  0  0  0
 24 26  1  0  0  0  0
 26 27  1  1  0  0  0
 26 28  1  0  0  0  0
 29 28  1  1  0  0  0
 29 31  1  0  0  0  0
 30 14  1  1  0  0  0
 30 31  1  0  0  0  0
M  CHG  1   3  -1
M  END
>  <CHROM.1>
178.85664066,-43.14529304,-50.00578983,168.12013390,160.98259095,-149.42064879
-84.46925656,27.23816391,37.31297479,20.50232857,2.41152793,1.31940721,-1.00434150

>  <Name>
ligand

>  <RI>
0

>  <Rbt.Current_Directory>
/home/itssahil/PROJECTS/Mol_Feturizer/New_Systems/rnas/3F2T

>  <Rbt.Executable>
rbdock ($Id: //depot/dev/client3/rdock/2013.1/src/exe/rbdock.cxx#4 $)

>  <Rbt.Library>
libRbt.so (2013.1, Build901 2013/11/27)

>  <Rbt.Parameter_File>
/export/apps/rDock/src/rDock_2013.1_src/data/scripts/dock_solv.prm

>  <Rbt.Receptor>
prm/blind_docking_100.prm

>  <SCORE>
-29.9089

>  <SCORE.INTER>
-31.8374

>  <SCORE.INTER.CONST>
1

>  <SCORE.INTER.POLAR>
0

>  <SCORE.INTER.ROT>
7

>  <SCORE.INTER.SOLV>
18.021

>  <SCORE.INTER.VDW>
-35.4986

>  <SCORE.INTER.norm>
-1.02701

>  <SCORE.INTRA>
1.92849

>  <SCORE.INTRA.DIHEDRAL>
1.65601

>  <SCORE.INTRA.DIHEDRAL.0>
4.64198

>  <SCORE.INTRA.POLAR>
0

>  <SCORE.INTRA.POLAR.0>
0

>  <SCORE.INTRA.REPUL>
0

>  <SCORE.INTRA.REPUL.0>
0

>  <SCORE.INTRA.SOLV>
0.783331

>  <SCORE.INTRA.SOLV.lig_0>
-49.3611

>  <SCORE.INTRA.VDW>
0.708816

>  <SCORE.INTRA.VDW.0>
-1.91858

>  <SCORE.INTRA.norm>
0.0622093

>  <SCORE.RESTR>
0

>  <SCORE.RESTR.CAVITY>
0

>  <SCORE.RESTR.norm>
0

>  <SCORE.SYSTEM>
0

>  <SCORE.SYSTEM.CONST>
0

>  <SCORE.SYSTEM.DIHEDRAL>
0

>  <SCORE.SYSTEM.SOLV>
0

>  <SCORE.SYSTEM.norm>
0

>  <SCORE.heavy>
31

>  <SCORE.norm>
-0.964803

>  <RMSD>
1.979

$$$$
ligand
 OpenBabel11021811473D
libRbt.so/2013.1/901 2013/11/27
 31 33  0  0  0  0  0  0  0  0999 V2000
   25.6117   43.5902   16.6744 P   0  0  1  0  0  0  0  0  0  0  0  0
   25.6868   43.3692   15.1849 O   0  0  0  0  0  0  0  0  0  0  0  0
   25.5169   45.0695   16.9383 O   0  5  0  0  0  0  0  0  0  0  0  0
   24.3960   42.8479   17.1572 O   0  0  0  0  0  0  0  0  0  0  0  0
   27.2216   41.6556   17.4065 C   0  0  0  0  0  0  0  0  0  0  0  0
   26.8967   43.0292   17.4569 O   0  0  0  0  0  0  0  0  0  0  0  0
   28.5179   41.4174   18.1767 C   0  0  1  0  0  0  0  0  0  0  0  0
   29.4716   42.3986   17.8212 O   0  0  0  0  0  0  0  0  0  0  0  0
   28.2570   41.4995   19.6713 C   0  0  1  0  0  0  0  0  0  0  0  0
   27.2851   42.4849   19.8987 O   0  0  0  0  0  0  0  0  0  0  0  0
   27.7682   40.1836   20.2528 C   0  0  1  0  0  0  0  0  0  0  0  0
   26.8299   39.6334   19.3681 O   0  0  0  0  0  0  0  0  0  0  0  0
   28.9197   39.2080   20.4311 C   0  0  0  0  0  0  0  0  0  0  0  0
   28.9364   36.6562   19.2445 N   0  0  0  0  0  0  0  0  0  0  0  0
   28.9097   35.4388   18.5995 C   0  0  0  0  0  0  0  0  0  0  0  0
   29.3526   35.3361   17.4593 O   0  0  0  0  0  0  0  0  0  0  0  0
   28.3860   34.3298   19.2239 N   0  0  0  0  0  0  0  0  0  0  0  0
   27.8917   34.4252   20.5102 C   0  0  0  0  0  0  0  0  0  0  0  0
   27.9138   35.6496   21.1687 C   0  0  1  0  0  0  0  0  0  0  0  0
   27.4409   33.4248   21.0720 O   0  0  0  0  0  0  0  0  0  0  0  0
   27.4444   36.9700   23.1067 C   0  0  2  0  0  0  0  0  0  0  0  0
   27.4197   35.7524   22.4536 N   0  0  0  0  0  0  0  0  0  0  0  0
   26.9447   37.0726   24.4054 C   0  0  0  0  0  0  0  0  0  0  0  0
   26.9599   38.2935   25.0694 C   0  0  1  0  0  0  0  0  0  0  0  0
   26.4124   38.3665   26.4597 C   0  0  0  0  0  0  0  0  0  0  0  0
   27.4856   39.4272   24.4314 C   0  0  1  0  0  0  0  0  0  0  0  0
   27.5290   40.7647   25.1182 C   0  0  0  0  0  0  0  0  0  0  0  0
   27.9820   39.3220   23.1348 C   0  0  0  0  0  0  0  0  0  0  0  0
   27.9634   38.0972   22.4653 C   0  0  1  0  0  0  0  0  0  0  0  0
   28.4368   36.7700   20.5262 C   0  0  1  0  0  0  0  0  0  0  0  0
   28.4553   37.9909   21.1730 N   0  0  0  0  0  0  0  0  0  0  0  0
  1  2  1  6  0  0  0
  1  3  1  0  0  0  0
  1  4  2  0  0  0  0
  1  6  1  0  0  0  0
  5  6  1  0  0  0  0
  7  5  1  6  0  0  0
  7  8  1  0  0  0  0
  7  9  1  0  0  0  0
  9 10  1  6  0  0  0
  9 11  1  0  0  0  0
 11 12  1  6  0  0  0
 11 13  1  0  0  0  0
 13 31  1  0  0  0  0
 14 15  1  0  0  0  0
 15 16  2  0  0  0  0
 15 17  1  0  0  0  0
 17 18  1  0  0  0  0
 18 20  2  0  0  0  0
 19 18  1  1  0  0  0
 19 22  1  0  0  0  0
 19 30  1  0  0  0  0
 21 23  1  6  0  0  0
 21 29  1  0  0  0  0
 21 22  1  0  0  0  0
 23 24  1  0  0  0  0
 24 25  1  1  0  0  0
 24 26  1  0  0  0  0
 26 27  1  1  0  0  0
 26 28  1  0  0  0  0
 29 28  1  1  0  0  0
 29 31  1  0  0  0  0
 30 14  1  1  0  0  0
 30 31  1  0  0  0  0
M  CHG  1   3  -1
M  END
>  <CHROM.1>
177.25732918,-60.82137631,-45.59132303,-35.63332685,-42.34887768,172.38224700
-61.63977496,27.44251738,39.36536623,20.09888117,2.27472202,1.30873919,-1.33494950

>  <Name>
ligand

>  <RI>
0

>  <Rbt.Current_Directory>
/home/itssahil/PROJECTS/Mol_Feturizer/New_Systems/rnas/3F2T

>  <Rbt.Executable>
rbdock ($Id: //depot/dev/client3/rdock/2013.1/src/exe/rbdock.cxx#4 $)

>  <Rbt.Library>
libRbt.so (2013.1, Build901 2013/11/27)

>  <Rbt.Parameter_File>
/export/apps/rDock/src/rDock_2013.1_src/data/scripts/dock_solv.prm

>  <Rbt.Receptor>
prm/blind_docking_60.prm

>  <SCORE>
-25.0646

>  <SCORE.INTER>
-27.6645

>  <SCORE.INTER.CONST>
1

>  <SCORE.INTER.POLAR>
0

>  <SCORE.INTER.ROT>
7

>  <SCORE.INTER.SOLV>
17.8533

>  <SCORE.INTER.VDW>
-32.6608

>  <SCORE.INTER.norm>
-0.892403

>  <SCORE.INTRA>
2.59987

>  <SCORE.INTRA.DIHEDRAL>
0.479896

>  <SCORE.INTRA.DIHEDRAL.0>
4.64198

>  <SCORE.INTRA.POLAR>
0

>  <SCORE.INTRA.POLAR.0>
0

>  <SCORE.INTRA.REPUL>
0

>  <SCORE.INTRA.REPUL.0>
0

>  <SCORE.INTRA.SOLV>
0.422241

>  <SCORE.INTRA.SOLV.lig_0>
-49.3611

>  <SCORE.INTRA.VDW>
2.1488

>  <SCORE.INTRA.VDW.0>
-1.91858

>  <SCORE.INTRA.norm>
0.0838667

>  <SCORE.RESTR>
0

>  <SCORE.RESTR.CAVITY>
0

>  <SCORE.RESTR.norm>
0

>  <SCORE.SYSTEM>
0

>  <SCORE.SYSTEM.CONST>
0

>  <SCORE.SYSTEM.DIHEDRAL>
0

>  <SCORE.SYSTEM.SOLV>
0

>  <SCORE.SYSTEM.norm>
0

>  <SCORE.heavy>
31

>  <SCORE.norm>
-0.808536

>  <RMSD>
1.986

$$$$
ligand
 OpenBabel11021811473D
libRbt.so/2013.1/901 2013/11/27
 31 33  0  0  0  0  0  0  0  0999 V2000
   28.1414   41.7595   16.7141 P   0  0  1  0  0  0  0  0  0  0  0  0
   26.8485   41.6709   15.9435 O   0  0  0  0  0  0  0  0  0  0  0  0
   29.0558   42.7281   16.0121 O   0  5  0  0  0  0  0  0  0  0  0  0
   27.7834   42.2193   18.1007 O   0  0  0  0  0  0  0  0  0  0  0  0
   30.0453   40.2168   17.6445 C   0  0  0  0  0  0  0  0  0  0  0  0
   28.9034   40.3504   16.8242 O   0  0  0  0  0  0  0  0  0  0  0  0
   30.5444   38.7757   17.5800 C   0  0  1  0  0  0  0  0  0  0  0  0
   31.5575   38.5777   18.5460 O   0  0  0  0  0  0  0  0  0  0  0  0
   29.3998   37.8162   17.8598 C   0  0  1  0  0  0  0  0  0  0  0  0
   29.7394   36.5575   17.3425 O   0  0  0  0  0  0  0  0  0  0  0  0
   29.1050   37.6746   19.3436 C   0  0  1  0  0  0  0  0  0  0  0  0
   29.2529   38.9333   19.9435 O   0  0  0  0  0  0  0  0  0  0  0  0
   27.6874   37.1759   19.5701 C   0  0  0  0  0  0  0  0  0  0  0  0
   27.8646   34.3953   19.1740 N   0  0  0  0  0  0  0  0  0  0  0  0
   27.8961   33.0407   18.9232 C   0  0  0  0  0  0  0  0  0  0  0  0
   28.0452   32.6301   17.7760 O   0  0  0  0  0  0  0  0  0  0  0  0
   27.7589   32.1373   19.9523 N   0  0  0  0  0  0  0  0  0  0  0  0
   27.5995   32.5816   21.2504 C   0  0  0  0  0  0  0  0  0  0  0  0
   27.5657   33.9466   21.5130 C   0  0  1  0  0  0  0  0  0  0  0  0
   27.4958   31.7683   22.1709 O   0  0  0  0  0  0  0  0  0  0  0  0
   27.3733   35.7547   23.0665 C   0  0  2  0  0  0  0  0  0  0  0  0
   27.4048   34.3976   22.8078 N   0  0  0  0  0  0  0  0  0  0  0  0
   27.2105   36.2092   24.3756 C   0  0  0  0  0  0  0  0  0  0  0  0
   27.1724   37.5720   24.6464 C   0  0  1  0  0  0  0  0  0  0  0  0
   26.9928   38.0225   26.0615 C   0  0  0  0  0  0  0  0  0  0  0  0
   27.3034   38.4947   23.5976 C   0  0  1  0  0  0  0  0  0  0  0  0
   27.2766   39.9774   23.8489 C   0  0  0  0  0  0  0  0  0  0  0  0
   27.4641   38.0381   22.2921 C   0  0  0  0  0  0  0  0  0  0  0  0
   27.4984   36.6695   22.0184 C   0  0  1  0  0  0  0  0  0  0  0  0
   27.6956   34.8551   20.4645 C   0  0  1  0  0  0  0  0  0  0  0  0
   27.6560   36.2127   20.7185 N   0  0  0  0  0  0  0  0  0  0  0  0
  1  2  1  6  0  0  0
  1  3  1  0  0  0  0
  1  4  2  0  0  0  0
  1  6  1  0  0  0  0
  5  6  1  0  0  0  0
  7  5  1  1  0  0  0
  7  8  1  0  0  0  0
  7  9  1  0  0  0  0
  9 10  1  1  0  0  0
  9 11  1  0  0  0  0
 11 12  1  1  0  0  0
 11 13  1  0  0  0  0
 13 31  1  0  0  0  0
 14 15  1  0  0  0  0
 15 16  2  0  0  0  0
 15 17  1  0  0  0  0
 17 18  1  0  0  0  0
 18 20  2  0  0  0  0
 19 18  1  1  0  0  0
 19 22  1  0  0  0  0
 19 30  1  0  0  0  0
 21 23  1  6  0  0  0
 21 29  1  0  0  0  0
 21 22  1  0  0  0  0
 23 24  1  0  0  0  0
 24 25  1  1  0  0  0
 24 26  1  0  0  0  0
 26 27  1  1  0  0  0
 26 28  1  0  0  0  0
 29 28  1  1  0  0  0
 29 31  1  0  0  0  0
 30 14  1  1  0  0  0
 30 31  1  0  0  0  0
M  CHG  1   3  -1
M  END
>  <CHROM.1>
178.92374164,-172.41600864,-171.20302752,159.28120167,38.25493282,141.78835951
87.32871637,28.21006350,37.42466890,19.92406875,0.90975028,1.32992132,0.00942913

>  <Name>
ligand

>  <RI>
0

>  <Rbt.Current_Directory>
/home/itssahil/PROJECTS/Mol_Feturizer/New_Systems/rnas/3F2T

>  <Rbt.Executable>
rbdock ($Id: //depot/dev/client3/rdock/2013.1/src/exe/rbdock.cxx#4 $)

>  <Rbt.Library>
libRbt.so (2013.1, Build901 2013/11/27)

>  <Rbt.Parameter_File>
/export/apps/rDock/src/rDock_2013.1_src/data/scripts/dock_solv.prm

>  <Rbt.Receptor>
prm/pocket_docking_4.prm

>  <SCORE>
-28.1461

>  <SCORE.INTER>
-31.242

>  <SCORE.INTER.CONST>
1

>  <SCORE.INTER.POLAR>
0

>  <SCORE.INTER.ROT>
7

>  <SCORE.INTER.SOLV>
17.3343

>  <SCORE.INTER.VDW>
-34.8727

>  <SCORE.INTER.norm>
-1.00781

>  <SCORE.INTRA>
3.09585

>  <SCORE.INTRA.DIHEDRAL>
3.79836

>  <SCORE.INTRA.DIHEDRAL.0>
4.64198

>  <SCORE.INTRA.POLAR>
0

>  <SCORE.INTRA.POLAR.0>
0

>  <SCORE.INTRA.REPUL>
0

>  <SCORE.INTRA.REPUL.0>
0

>  <SCORE.INTRA.SOLV>
0.560545

>  <SCORE.INTRA.SOLV.lig_0>
-49.3611

>  <SCORE.INTRA.VDW>
0.916399

>  <SCORE.INTRA.VDW.0>
-1.91858

>  <SCORE.INTRA.norm>
0.0998662

>  <SCORE.RESTR>
0

>  <SCORE.RESTR.CAVITY>
0

>  <SCORE.RESTR.norm>
0

>  <SCORE.SYSTEM>
0

>  <SCORE.SYSTEM.CONST>
0

>  <SCORE.SYSTEM.DIHEDRAL>
0

>  <SCORE.SYSTEM.SOLV>
0

>  <SCORE.SYSTEM.norm>
0

>  <SCORE.heavy>
31

>  <SCORE.norm>
-0.907939

>  <RMSD>
2.001

$$$$
ligand
 OpenBabel11021811473D
libRbt.so/2013.1/901 2013/11/27
 31 33  0  0  0  0  0  0  0  0999 V2000
   28.3465   41.9739   17.6934 P   0  0  1  0  0  0  0  0  0  0  0  0
   29.1358   43.2548   17.7918 O   0  0  0  0  0  0  0  0  0  0  0  0
   27.1522   42.0722   18.6050 O   0  5  0  0  0  0  0  0  0  0  0  0
   27.9492   41.8249   16.2505 O   0  0  0  0  0  0  0  0  0  0  0  0
   30.3003   40.2596   17.3551 C   0  0  0  0  0  0  0  0  0  0  0  0
   29.1941   40.6806   18.1259 O   0  0  0  0  0  0  0  0  0  0  0  0
   30.7556   38.8852   17.8386 C   0  0  1  0  0  0  0  0  0  0  0  0
   31.4177   39.0115   19.0814 O   0  0  0  0  0  0  0  0  0  0  0  0
   29.5548   37.9699   18.0087 C   0  0  1  0  0  0  0  0  0  0  0  0
   29.8769   36.7121   17.4783 O   0  0  0  0  0  0  0  0  0  0  0  0
   29.1497   37.8009   19.4634 C   0  0  1  0  0  0  0  0  0  0  0  0
   29.1658   39.0630   20.0739 O   0  0  0  0  0  0  0  0  0  0  0  0
   27.7539   37.2099   19.5729 C   0  0  0  0  0  0  0  0  0  0  0  0
   27.8880   34.4277   19.1719 N   0  0  0  0  0  0  0  0  0  0  0  0
   27.8994   33.0733   18.9179 C   0  0  0  0  0  0  0  0  0  0  0  0
   28.0569   32.6630   17.7717 O   0  0  0  0  0  0  0  0  0  0  0  0
   27.7325   32.1699   19.9425 N   0  0  0  0  0  0  0  0  0  0  0  0
   27.5632   32.6138   21.2395 C   0  0  0  0  0  0  0  0  0  0  0  0
   27.5496   33.9785   21.5054 C   0  0  1  0  0  0  0  0  0  0  0  0
   27.4329   31.8002   22.1564 O   0  0  0  0  0  0  0  0  0  0  0  0
   27.3676   35.7858   23.0610 C   0  0  2  0  0  0  0  0  0  0  0  0
   27.3789   34.4291   22.7990 N   0  0  0  0  0  0  0  0  0  0  0  0
   27.1950   36.2399   24.3690 C   0  0  0  0  0  0  0  0  0  0  0  0
   27.1768   37.6025   24.6428 C   0  0  1  0  0  0  0  0  0  0  0  0
   26.9859   38.0527   26.0566 C   0  0  0  0  0  0  0  0  0  0  0  0
   27.3382   38.5254   23.5984 C   0  0  1  0  0  0  0  0  0  0  0  0
   27.3338   40.0077   23.8533 C   0  0  0  0  0  0  0  0  0  0  0  0
   27.5086   38.0692   22.2939 C   0  0  0  0  0  0  0  0  0  0  0  0
   27.5228   36.7010   22.0171 C   0  0  1  0  0  0  0  0  0  0  0  0
   27.7095   34.8871   20.4611 C   0  0  1  0  0  0  0  0  0  0  0  0
   27.6901   36.2447   20.7183 N   0  0  0  0  0  0  0  0  0  0  0  0
  1  2  1  1  0  0  0
  1  3  1  0  0  0  0
  1  4  2  0  0  0  0
  1  6  1  0  0  0  0
  5  6  1  0  0  0  0
  7  5  1  1  0  0  0
  7  8  1  0  0  0  0
  7  9  1  0  0  0  0
  9 10  1  1  0  0  0
  9 11  1  0  0  0  0
 11 12  1  6  0  0  0
 11 13  1  0  0  0  0
 13 31  1  0  0  0  0
 14 15  1  0  0  0  0
 15 16  2  0  0  0  0
 15 17  1  0  0  0  0
 17 18  1  0  0  0  0
 18 20  2  0  0  0  0
 19 18  1  1  0  0  0
 19 22  1  0  0  0  0
 19 30  1  0  0  0  0
 21 23  1  6  0  0  0
 21 29  1  0  0  0  0
 21 22  1  0  0  0  0
 23 24  1  0  0  0  0
 24 25  1  1  0  0  0
 24 26  1  0  0  0  0
 26 27  1  1  0  0  0
 26 28  1  0  0  0  0
 29 28  1  1  0  0  0
 29 31  1  0  0  0  0
 30 14  1  1  0  0  0
 30 31  1  0  0  0  0
M  CHG  1   3  -1
M  END
>  <CHROM.1>
-169.79654381,-66.30958199,-73.62039809,136.62695028,44.66524189,142.03516513
81.11105380,28.27443868,37.52643668,20.16317231,0.92297239,1.28278527,0.13630019

>  <Name>
ligand

>  <RI>
0

>  <Rbt.Current_Directory>
/home/itssahil/PROJECTS/Mol_Feturizer/New_Systems/rnas/3F2T

>  <Rbt.Executable>
rbdock ($Id: //depot/dev/client3/rdock/2013.1/src/exe/rbdock.cxx#4 $)

>  <Rbt.Library>
libRbt.so (2013.1, Build901 2013/11/27)

>  <Rbt.Parameter_File>
/export/apps/rDock/src/rDock_2013.1_src/data/scripts/dock_solv.prm

>  <Rbt.Receptor>
prm/pocket_docking_5.prm

>  <SCORE>
-26.4222

>  <SCORE.INTER>
-31.7805

>  <SCORE.INTER.CONST>
1

>  <SCORE.INTER.POLAR>
0

>  <SCORE.INTER.ROT>
7

>  <SCORE.INTER.SOLV>
15.1587

>  <SCORE.INTER.VDW>
-34.5066

>  <SCORE.INTER.norm>
-1.02518

>  <SCORE.INTRA>
5.35832

>  <SCORE.INTRA.DIHEDRAL>
6.87228

>  <SCORE.INTRA.DIHEDRAL.0>
4.64198

>  <SCORE.INTRA.POLAR>
0

>  <SCORE.INTRA.POLAR.0>
0

>  <SCORE.INTRA.REPUL>
0

>  <SCORE.INTRA.REPUL.0>
0

>  <SCORE.INTRA.SOLV>
0.858873

>  <SCORE.INTRA.SOLV.lig_0>
-49.3611

>  <SCORE.INTRA.VDW>
1.49275

>  <SCORE.INTRA.VDW.0>
-1.91858

>  <SCORE.INTRA.norm>
0.172849

>  <SCORE.RESTR>
0

>  <SCORE.RESTR.CAVITY>
0

>  <SCORE.RESTR.norm>
0

>  <SCORE.SYSTEM>
0

>  <SCORE.SYSTEM.CONST>
0

>  <SCORE.SYSTEM.DIHEDRAL>
0

>  <SCORE.SYSTEM.SOLV>
0

>  <SCORE.SYSTEM.norm>
0

>  <SCORE.heavy>
31

>  <SCORE.norm>
-0.852328

>  <RMSD>
2.005

$$$$
ligand
 OpenBabel11021811473D
libRbt.so/2013.1/901 2013/11/27
 31 33  0  0  0  0  0  0  0  0999 V2000
   27.5863   42.3546   17.0818 P   0  0  1  0  0  0  0  0  0  0  0  0
   28.5653   43.1882   17.8690 O   0  0  0  0  0  0  0  0  0  0  0  0
   26.6537   41.6686   18.0444 O   0  5  0  0  0  0  0  0  0  0  0  0
   26.8607   43.2989   16.1631 O   0  0  0  0  0  0  0  0  0  0  0  0
   29.3946   40.4948   16.7055 C   0  0  0  0  0  0  0  0  0  0  0  0
   28.2991   41.2237   16.1923 O   0  0  0  0  0  0  0  0  0  0  0  0
   28.8910   39.4951   17.7433 C   0  0  1  0  0  0  0  0  0  0  0  0
   29.3415   38.1964   17.4131 O   0  0  0  0  0  0  0  0  0  0  0  0
   29.4164   39.8659   19.1200 C   0  0  1  0  0  0  0  0  0  0  0  0
   28.7031   40.9820   19.5815 O   0  0  0  0  0  0  0  0  0  0  0  0
   29.2678   38.7371   20.1262 C   0  0  1  0  0  0  0  0  0  0  0  0
   29.7354   39.1903   21.3679 O   0  0  0  0  0  0  0  0  0  0  0  0
   27.8130   38.3190   20.2617 C   0  0  0  0  0  0  0  0  0  0  0  0
   27.9466   35.5719   19.6652 N   0  0  0  0  0  0  0  0  0  0  0  0
   27.9613   34.2398   19.3131 C   0  0  0  0  0  0  0  0  0  0  0  0
   28.1828   33.9123   18.1510 O   0  0  0  0  0  0  0  0  0  0  0  0
   27.7262   33.2661   20.2569 N   0  0  0  0  0  0  0  0  0  0  0  0
   27.4843   33.6161   21.5710 C   0  0  0  0  0  0  0  0  0  0  0  0
   27.4668   34.9579   21.9354 C   0  0  1  0  0  0  0  0  0  0  0  0
   27.2930   32.7394   22.4162 O   0  0  0  0  0  0  0  0  0  0  0  0
   27.2087   36.6488   23.6068 C   0  0  2  0  0  0  0  0  0  0  0  0
   27.2238   35.3148   23.2466 N   0  0  0  0  0  0  0  0  0  0  0  0
   26.9629   37.0083   24.9324 C   0  0  0  0  0  0  0  0  0  0  0  0
   26.9404   38.3473   25.3044 C   0  0  1  0  0  0  0  0  0  0  0  0
   26.6700   38.6954   26.7340 C   0  0  0  0  0  0  0  0  0  0  0  0
   27.1712   39.3420   24.3421 C   0  0  1  0  0  0  0  0  0  0  0  0
   27.1645   40.8016   24.7049 C   0  0  0  0  0  0  0  0  0  0  0  0
   27.4146   38.9802   23.0197 C   0  0  0  0  0  0  0  0  0  0  0  0
   27.4333   37.6357   22.6441 C   0  0  1  0  0  0  0  0  0  0  0  0
   27.6961   35.9382   20.9722 C   0  0  1  0  0  0  0  0  0  0  0  0
   27.6733   37.2735   21.3271 N   0  0  0  0  0  0  0  0  0  0  0  0
  1  2  1  1  0  0  0
  1  3  1  0  0  0  0
  1  4  2  0  0  0  0
  1  6  1  0  0  0  0
  5  6  1  0  0  0  0
  7  5  1  6  0  0  0
  7  8  1  0  0  0  0
  7  9  1  0  0  0  0
  9 10  1  1  0  0  0
  9 11  1  0  0  0  0
 11 12  1  1  0  0  0
 11 13  1  0  0  0  0
 13 31  1  0  0  0  0
 14 15  1  0  0  0  0
 15 16  2  0  0  0  0
 15 17  1  0  0  0  0
 17 18  1  0  0  0  0
 18 20  2  0  0  0  0
 19 18  1  1  0  0  0
 19 22  1  0  0  0  0
 19 30  1  0  0  0  0
 21 23  1  6  0  0  0
 21 29  1  0  0  0  0
 21 22  1  0  0  0  0
 23 24  1  0  0  0  0
 24 25  1  1  0  0  0
 24 26  1  0  0  0  0
 26 27  1  1  0  0  0
 26 28  1  0  0  0  0
 29 28  1  1  0  0  0
 29 31  1  0  0  0  0
 30 14  1  1  0  0  0
 30 31  1  0  0  0  0
M  CHG  1   3  -1
M  END
>  <CHROM.1>
73.69483917,40.25775742,126.22462116,74.52503960,-177.99595793,-176.00665160
90.22725278,27.88633045,38.38144513,20.42384142,0.99753951,1.40546645,-0.17851055

>  <Name>
ligand

>  <RI>
0

>  <Rbt.Current_Directory>
/home/itssahil/PROJECTS/Mol_Feturizer/New_Systems/rnas/3F2T

>  <Rbt.Executable>
rbdock ($Id: //depot/dev/client3/rdock/2013.1/src/exe/rbdock.cxx#4 $)

>  <Rbt.Library>
libRbt.so (2013.1, Build901 2013/11/27)

>  <Rbt.Parameter_File>
/export/apps/rDock/src/rDock_2013.1_src/data/scripts/dock_solv.prm

>  <Rbt.Receptor>
prm/blind_docking_60.prm

>  <SCORE>
-26.7181

>  <SCORE.INTER>
-30.0542

>  <SCORE.INTER.CONST>
1

>  <SCORE.INTER.POLAR>
0

>  <SCORE.INTER.ROT>
7

>  <SCORE.INTER.SOLV>
14.5838

>  <SCORE.INTER.VDW>
-33.1641

>  <SCORE.INTER.norm>
-0.96949

>  <SCORE.INTRA>
3.33609

>  <SCORE.INTRA.DIHEDRAL>
4.16498

>  <SCORE.INTRA.DIHEDRAL.0>
4.64198

>  <SCORE.INTRA.POLAR>
0

>  <SCORE.INTRA.POLAR.0>
0

>  <SCORE.INTRA.REPUL>
0

>  <SCORE.INTRA.REPUL.0>
0

>  <SCORE.INTRA.SOLV>
3.09763

>  <SCORE.INTRA.SOLV.lig_0>
-49.3611

>  <SCORE.INTRA.VDW>
-0.295214

>  <SCORE.INTRA.VDW.0>
-1.91858

>  <SCORE.INTRA.norm>
0.107616

>  <SCORE.RESTR>
0

>  <SCORE.RESTR.CAVITY>
0

>  <SCORE.RESTR.norm>
0

>  <SCORE.SYSTEM>
0

>  <SCORE.SYSTEM.CONST>
0

>  <SCORE.SYSTEM.DIHEDRAL>
0

>  <SCORE.SYSTEM.SOLV>
0

>  <SCORE.SYSTEM.norm>
0

>  <SCORE.heavy>
31

>  <SCORE.norm>
-0.861875

>  <RMSD>
2.044

$$$$
ligand
 OpenBabel11021811473D
libRbt.so/2013.1/901 2013/11/27
 31 33  0  0  0  0  0  0  0  0999 V2000
   25.5129   43.5010   16.6359 P   0  0  1  0  0  0  0  0  0  0  0  0
   24.7327   44.7326   16.2518 O   0  0  0  0  0  0  0  0  0  0  0  0
   24.5498   42.4549   17.1311 O   0  5  0  0  0  0  0  0  0  0  0  0
   26.2485   43.0571   15.4015 O   0  0  0  0  0  0  0  0  0  0  0  0
   27.6376   42.8627   18.0319 C   0  0  0  0  0  0  0  0  0  0  0  0
   26.5858   43.7759   17.7985 O   0  0  0  0  0  0  0  0  0  0  0  0
   27.0923   41.6487   18.7796 C   0  0  1  0  0  0  0  0  0  0  0  0
   26.5213   40.7388   17.8605 O   0  0  0  0  0  0  0  0  0  0  0  0
   28.2151   40.9536   19.5311 C   0  0  1  0  0  0  0  0  0  0  0  0
   28.7987   41.8772   20.4108 O   0  0  0  0  0  0  0  0  0  0  0  0
   27.7305   39.7542   20.3282 C   0  0  1  0  0  0  0  0  0  0  0  0
   27.0706   38.8812   19.4516 O   0  0  0  0  0  0  0  0  0  0  0  0
   28.8965   39.0259   20.9759 C   0  0  0  0  0  0  0  0  0  0  0  0
   28.6082   36.3620   20.1156 N   0  0  0  0  0  0  0  0  0  0  0  0
   28.4302   35.0850   19.6294 C   0  0  0  0  0  0  0  0  0  0  0  0
   28.7738   34.8087   18.4837 O   0  0  0  0  0  0  0  0  0  0  0  0
   27.8651   34.1101   20.4195 N   0  0  0  0  0  0  0  0  0  0  0  0
   27.4810   34.4009   21.7140 C   0  0  0  0  0  0  0  0  0  0  0  0
   27.6561   35.6869   22.2130 C   0  0  1  0  0  0  0  0  0  0  0  0
   26.9927   33.5194   22.4238 O   0  0  0  0  0  0  0  0  0  0  0  0
   27.4495   37.2632   23.9996 C   0  0  2  0  0  0  0  0  0  0  0  0
   27.2728   35.9850   23.5053 N   0  0  0  0  0  0  0  0  0  0  0  0
   27.0615   37.5632   25.3059 C   0  0  0  0  0  0  0  0  0  0  0  0
   27.2300   38.8470   25.8113 C   0  0  1  0  0  0  0  0  0  0  0  0
   26.7991   39.1329   27.2151 C   0  0  0  0  0  0  0  0  0  0  0  0
   27.7979   39.8446   25.0046 C   0  0  1  0  0  0  0  0  0  0  0  0
   28.0059   41.2437   25.5162 C   0  0  0  0  0  0  0  0  0  0  0  0
   28.1826   39.5426   23.7009 C   0  0  0  0  0  0  0  0  0  0  0  0
   28.0100   38.2546   23.1908 C   0  0  1  0  0  0  0  0  0  0  0  0
   28.2201   36.6710   21.4036 C   0  0  1  0  0  0  0  0  0  0  0  0
   28.3903   37.9524   21.8918 N   0  0  0  0  0  0  0  0  0  0  0  0
  1  2  1  6  0  0  0
  1  3  1  0  0  0  0
  1  4  2  0  0  0  0
  1  6  1  0  0  0  0
  5  6  1  0  0  0  0
  7  5  1  6  0  0  0
  7  8  1  0  0  0  0
  7  9  1  0  0  0  0
  9 10  1  1  0  0  0
  9 11  1  0  0  0  0
 11 12  1  6  0  0  0
 11 13  1  0  0  0  0
 13 31  1  0  0  0  0
 14 15  1  0  0  0  0
 15 16  2  0  0  0  0
 15 17  1  0  0  0  0
 17 18  1  0  0  0  0
 18 20  2  0  0  0  0
 19 18  1  1  0  0  0
 19 22  1  0  0  0  0
 19 30  1  0  0  0  0
 21 23  1  6  0  0  0
 21 29  1  0  0  0  0
 21 22  1  0  0  0  0
 23 24  1  0  0  0  0
 24 25  1  1  0  0  0
 24 26  1  0  0  0  0
 26 27  1  1  0  0  0
 26 28  1  0  0  0  0
 29 28  1  1  0  0  0
 29 31  1  0  0  0  0
 30 14  1  1  0  0  0
 30 31  1  0  0  0  0
M  CHG  1   3  -1
M  END
>  <CHROM.1>
-76.72852168,-162.70955889,83.33356734,57.92765357,55.77828554,173.01875652
-83.54252513,27.29611562,39.31303783,20.63823187,-2.84608525,-1.37973494
1.11841568

>  <Name>
ligand

>  <RI>
0

>  <Rbt.Current_Directory>
/home/itssahil/PROJECTS/Mol_Feturizer/New_Systems/rnas/3F2T

>  <Rbt.Executable>
rbdock ($Id: //depot/dev/client3/rdock/2013.1/src/exe/rbdock.cxx#4 $)

>  <Rbt.Library>
libRbt.so (2013.1, Build901 2013/11/27)

>  <Rbt.Parameter_File>
/export/apps/rDock/src/rDock_2013.1_src/data/scripts/dock_solv.prm

>  <Rbt.Receptor>
prm/blind_docking_80.prm

>  <SCORE>
-25.4385

>  <SCORE.INTER>
-27.3983

>  <SCORE.INTER.CONST>
1

>  <SCORE.INTER.POLAR>
0

>  <SCORE.INTER.ROT>
7

>  <SCORE.INTER.SOLV>
18.1087

>  <SCORE.INTER.VDW>
-32.5684

>  <SCORE.INTER.norm>
-0.883815

>  <SCORE.INTRA>
1.95975

>  <SCORE.INTRA.DIHEDRAL>
0.140392

>  <SCORE.INTRA.DIHEDRAL.0>
4.64198

>  <SCORE.INTRA.POLAR>
0

>  <SCORE.INTRA.POLAR.0>
0

>  <SCORE.INTRA.REPUL>
0

>  <SCORE.INTRA.REPUL.0>
0

>  <SCORE.INTRA.SOLV>
3.27473

>  <SCORE.INTRA.SOLV.lig_0>
-49.3611

>  <SCORE.INTRA.VDW>
0.252185

>  <SCORE.INTRA.VDW.0>
-1.91858

>  <SCORE.INTRA.norm>
0.0632176

>  <SCORE.RESTR>
0

>  <SCORE.RESTR.CAVITY>
0

>  <SCORE.RESTR.norm>
0

>  <SCORE.SYSTEM>
0

>  <SCORE.SYSTEM.CONST>
0

>  <SCORE.SYSTEM.DIHEDRAL>
0

>  <SCORE.SYSTEM.SOLV>
0

>  <SCORE.SYSTEM.norm>
0

>  <SCORE.heavy>
31

>  <SCORE.norm>
-0.820597

>  <RMSD>
2.048

$$$$
ligand
 OpenBabel11021811473D
libRbt.so/2013.1/901 2013/11/27
 31 33  0  0  0  0  0  0  0  0999 V2000
   26.5005   43.1318   16.8939 P   0  0  1  0  0  0  0  0  0  0  0  0
   25.6631   41.9497   17.3121 O   0  0  0  0  0  0  0  0  0  0  0  0
   26.9241   42.9403   15.4619 O   0  5  0  0  0  0  0  0  0  0  0  0
   25.6397   44.3519   17.0735 O   0  0  0  0  0  0  0  0  0  0  0  0
   28.8485   42.3332   17.7421 C   0  0  0  0  0  0  0  0  0  0  0  0
   27.8261   43.3067   17.7830 O   0  0  0  0  0  0  0  0  0  0  0  0
   28.3263   41.0306   18.3427 C   0  0  1  0  0  0  0  0  0  0  0  0
   29.2733   39.9999   18.1440 O   0  0  0  0  0  0  0  0  0  0  0  0
   28.0890   41.2039   19.8334 C   0  0  1  0  0  0  0  0  0  0  0  0
   27.1236   42.2048   20.0158 O   0  0  0  0  0  0  0  0  0  0  0  0
   27.6057   39.9273   20.5009 C   0  0  1  0  0  0  0  0  0  0  0  0
   26.7166   39.2841   19.6281 O   0  0  0  0  0  0  0  0  0  0  0  0
   28.7700   38.9985   20.8030 C   0  0  0  0  0  0  0  0  0  0  0  0
   28.6038   36.3488   19.8696 N   0  0  0  0  0  0  0  0  0  0  0  0
   28.4840   35.0788   19.3484 C   0  0  0  0  0  0  0  0  0  0  0  0
   28.8349   34.8510   18.1944 O   0  0  0  0  0  0  0  0  0  0  0  0
   27.9693   34.0567   20.1128 N   0  0  0  0  0  0  0  0  0  0  0  0
   27.5780   34.2930   21.4162 C   0  0  0  0  0  0  0  0  0  0  0  0
   27.6944   35.5714   21.9504 C   0  0  1  0  0  0  0  0  0  0  0  0
   27.1351   33.3699   22.1028 O   0  0  0  0  0  0  0  0  0  0  0  0
   27.4219   37.0860   23.7811 C   0  0  2  0  0  0  0  0  0  0  0  0
   27.3035   35.8150   23.2518 N   0  0  0  0  0  0  0  0  0  0  0  0
   27.0263   37.3309   25.0966 C   0  0  0  0  0  0  0  0  0  0  0  0
   27.1363   38.6066   25.6371 C   0  0  1  0  0  0  0  0  0  0  0  0
   26.6990   38.8328   27.0498 C   0  0  0  0  0  0  0  0  0  0  0  0
   27.6528   39.6520   24.8567 C   0  0  1  0  0  0  0  0  0  0  0  0
   27.7968   41.0446   25.4065 C   0  0  0  0  0  0  0  0  0  0  0  0
   28.0452   39.4049   23.5438 C   0  0  0  0  0  0  0  0  0  0  0  0
   27.9312   38.1248   22.9984 C   0  0  1  0  0  0  0  0  0  0  0  0
   28.2075   36.6032   21.1670 C   0  0  1  0  0  0  0  0  0  0  0  0
   28.3193   37.8772   21.6903 N   0  0  0  0  0  0  0  0  0  0  0  0
  1  2  1  1  0  0  0
  1  3  1  0  0  0  0
  1  4  2  0  0  0  0
  1  6  1  0  0  0  0
  5  6  1  0  0  0  0
  7  5  1  1  0  0  0
  7  8  1  0  0  0  0
  7  9  1  0  0  0  0
  9 10  1  6  0  0  0
  9 11  1  0  0  0  0
 11 12  1  6  0  0  0
 11 13  1  0  0  0  0
 13 31  1  0  0  0  0
 14 15  1  0  0  0  0
 15 16  2  0  0  0  0
 15 17  1  0  0  0  0
 17 18  1  0  0  0  0
 18 20  2  0  0  0  0
 19 18  1  1  0  0  0
 19 22  1  0  0  0  0
 19 30  1  0  0  0  0
 21 23  1  6  0  0  0
 21 29  1  0  0  0  0
 21 22  1  0  0  0  0
 23 24  1  0  0  0  0
 24 25  1  1  0  0  0
 24 26  1  0  0  0  0
 26 27  1  1  0  0  0
 26 28  1  0  0  0  0
 29 28  1  1  0  0  0
 29 31  1  0  0  0  0
 30 14  1  1  0  0  0
 30 31  1  0  0  0  0
M  CHG  1   3  -1
M  END
>  <CHROM.1>
-66.52958401,65.59381695,172.10339336,61.11668858,-38.62166524,169.05713475
-67.34568950,27.58274128,39.14359095,20.56156953,2.05558221,1.42022269,-1.21574152

>  <Name>
ligand

>  <RI>
0

>  <Rbt.Current_Directory>
/home/itssahil/PROJECTS/Mol_Feturizer/New_Systems/rnas/3F2T

>  <Rbt.Executable>
rbdock ($Id: //depot/dev/client3/rdock/2013.1/src/exe/rbdock.cxx#4 $)

>  <Rbt.Library>
libRbt.so (2013.1, Build901 2013/11/27)

>  <Rbt.Parameter_File>
/export/apps/rDock/src/rDock_2013.1_src/data/scripts/dock_solv.prm

>  <Rbt.Receptor>
prm/pocket_docking_4.prm

>  <SCORE>
-28.168

>  <SCORE.INTER>
-28.7025

>  <SCORE.INTER.CONST>
1

>  <SCORE.INTER.POLAR>
0

>  <SCORE.INTER.ROT>
7

>  <SCORE.INTER.SOLV>
16.8622

>  <SCORE.INTER.VDW>
-33.0224

>  <SCORE.INTER.norm>
-0.925887

>  <SCORE.INTRA>
0.534555

>  <SCORE.INTRA.DIHEDRAL>
-1.09229

>  <SCORE.INTRA.DIHEDRAL.0>
4.64198

>  <SCORE.INTRA.POLAR>
0

>  <SCORE.INTRA.POLAR.0>
0

>  <SCORE.INTRA.REPUL>
0

>  <SCORE.INTRA.REPUL.0>
0

>  <SCORE.INTRA.SOLV>
1.66819

>  <SCORE.INTRA.SOLV.lig_0>
-49.3611

>  <SCORE.INTRA.VDW>
0.246607

>  <SCORE.INTRA.VDW.0>
-1.91858

>  <SCORE.INTRA.norm>
0.0172437

>  <SCORE.RESTR>
0

>  <SCORE.RESTR.CAVITY>
0

>  <SCORE.RESTR.norm>
0

>  <SCORE.SYSTEM>
0

>  <SCORE.SYSTEM.CONST>
0

>  <SCORE.SYSTEM.DIHEDRAL>
0

>  <SCORE.SYSTEM.SOLV>
0

>  <SCORE.SYSTEM.norm>
0

>  <SCORE.heavy>
31

>  <SCORE.norm>
-0.908644

>  <RMSD>
2.049

$$$$
ligand
 OpenBabel11021811473D
libRbt.so/2013.1/901 2013/11/27
 31 33  0  0  0  0  0  0  0  0999 V2000
   28.4696   41.9197   17.3665 P   0  0  1  0  0  0  0  0  0  0  0  0
   28.6710   42.1980   15.8985 O   0  0  0  0  0  0  0  0  0  0  0  0
   29.0244   43.0749   18.1569 O   0  5  0  0  0  0  0  0  0  0  0  0
   26.9893   41.7499   17.5715 O   0  0  0  0  0  0  0  0  0  0  0  0
   30.4500   40.2039   17.2982 C   0  0  0  0  0  0  0  0  0  0  0  0
   29.2099   40.5824   17.8583 O   0  0  0  0  0  0  0  0  0  0  0  0
   30.8978   38.8819   17.9162 C   0  0  1  0  0  0  0  0  0  0  0  0
   31.4276   39.1133   19.2063 O   0  0  0  0  0  0  0  0  0  0  0  0
   29.7155   37.9343   18.0295 C   0  0  1  0  0  0  0  0  0  0  0  0
   30.1181   36.6671   17.5829 O   0  0  0  0  0  0  0  0  0  0  0  0
   29.1982   37.8123   19.4530 C   0  0  1  0  0  0  0  0  0  0  0  0
   29.0971   39.1010   19.9961 O   0  0  0  0  0  0  0  0  0  0  0  0
   27.8307   37.1499   19.4786 C   0  0  0  0  0  0  0  0  0  0  0  0
   28.0092   34.3695   19.0812 N   0  0  0  0  0  0  0  0  0  0  0  0
   28.0439   33.0156   18.8275 C   0  0  0  0  0  0  0  0  0  0  0  0
   28.2384   32.6076   17.6862 O   0  0  0  0  0  0  0  0  0  0  0  0
   27.8590   32.1098   19.8470 N   0  0  0  0  0  0  0  0  0  0  0  0
   27.6481   32.5511   21.1388 C   0  0  0  0  0  0  0  0  0  0  0  0
   27.6108   33.9154   21.4042 C   0  0  1  0  0  0  0  0  0  0  0  0
   27.5018   31.7355   22.0516 O   0  0  0  0  0  0  0  0  0  0  0  0
   27.3637   35.7198   22.9543 C   0  0  2  0  0  0  0  0  0  0  0  0
   27.3985   34.3634   22.6927 N   0  0  0  0  0  0  0  0  0  0  0  0
   27.1489   36.1712   24.2570 C   0  0  0  0  0  0  0  0  0  0  0  0
   27.1069   37.5334   24.5303 C   0  0  1  0  0  0  0  0  0  0  0  0
   26.8710   37.9807   25.9382 C   0  0  0  0  0  0  0  0  0  0  0  0
   27.2865   38.4586   23.4909 C   0  0  1  0  0  0  0  0  0  0  0  0
   27.2573   39.9406   23.7457 C   0  0  0  0  0  0  0  0  0  0  0  0
   27.4989   38.0050   22.1917 C   0  0  0  0  0  0  0  0  0  0  0  0
   27.5372   36.6371   21.9153 C   0  0  1  0  0  0  0  0  0  0  0  0
   27.7891   34.8263   20.3650 C   0  0  1  0  0  0  0  0  0  0  0  0
   27.7463   36.1834   20.6216 N   0  0  0  0  0  0  0  0  0  0  0  0
  1  2  1  6  0  0  0
  1  3  1  0  0  0  0
  1  4  2  0  0  0  0
  1  6  1  0  0  0  0
  5  6  1  0  0  0  0
  7  5  1  1  0  0  0
  7  8  1  0  0  0  0
  7  9  1  0  0  0  0
  9 10  1  1  0  0  0
  9 11  1  0  0  0  0
 11 12  1  6  0  0  0
 11 13  1  0  0  0  0
 13 31  1  0  0  0  0
 14 15  1  0  0  0  0
 15 16  2  0  0  0  0
 15 17  1  0  0  0  0
 17 18  1  0  0  0  0
 18 20  2  0  0  0  0
 19 18  1  1  0  0  0
 19 22  1  0  0  0  0
 19 30  1  0  0  0  0
 21 23  1  6  0  0  0
 21 29  1  0  0  0  0
 21 22  1  0  0  0  0
 23 24  1  0  0  0  0
 24 25  1  1  0  0  0
 24 26  1  0  0  0  0
 26 27  1  1  0  0  0
 26 28  1  0  0  0  0
 29 28  1  1  0  0  0
 29 31  1  0  0  0  0
 30 14  1  1  0  0  0
 30 31  1  0  0  0  0
M  CHG  1   3  -1
M  END
>  <CHROM.1>
-178.29242175,34.81640723,-77.79854338,134.92665067,45.98708916,139.03179457
78.11443754,28.34134659,37.47969774,20.04370385,0.93714806,1.26621999,0.09620608

>  <Name>
ligand

>  <RI>
0

>  <Rbt.Current_Directory>
/home/itssahil/PROJECTS/Mol_Feturizer/New_Systems/rnas/3F2T

>  <Rbt.Executable>
rbdock ($Id: //depot/dev/client3/rdock/2013.1/src/exe/rbdock.cxx#4 $)

>  <Rbt.Library>
libRbt.so (2013.1, Build901 2013/11/27)

>  <Rbt.Parameter_File>
/export/apps/rDock/src/rDock_2013.1_src/data/scripts/dock_solv.prm

>  <Rbt.Receptor>
prm/blind_docking_80.prm

>  <SCORE>
-25.8583

>  <SCORE.INTER>
-31.595

>  <SCORE.INTER.CONST>
1

>  <SCORE.INTER.POLAR>
0

>  <SCORE.INTER.ROT>
7

>  <SCORE.INTER.SOLV>
17.8965

>  <SCORE.INTER.VDW>
-35.2955

>  <SCORE.INTER.norm>
-1.01919

>  <SCORE.INTRA>
5.73676

>  <SCORE.INTRA.DIHEDRAL>
8.07011

>  <SCORE.INTRA.DIHEDRAL.0>
4.64198

>  <SCORE.INTRA.POLAR>
0

>  <SCORE.INTRA.POLAR.0>
0

>  <SCORE.INTRA.REPUL>
0

>  <SCORE.INTRA.REPUL.0>
0

>  <SCORE.INTRA.SOLV>
0.358521

>  <SCORE.INTRA.SOLV.lig_0>
-49.3611

>  <SCORE.INTRA.VDW>
1.52245

>  <SCORE.INTRA.VDW.0>
-1.91858

>  <SCORE.INTRA.norm>
0.185057

>  <SCORE.RESTR>
0

>  <SCORE.RESTR.CAVITY>
0

>  <SCORE.RESTR.norm>
0

>  <SCORE.SYSTEM>
0

>  <SCORE.SYSTEM.CONST>
0

>  <SCORE.SYSTEM.DIHEDRAL>
0

>  <SCORE.SYSTEM.SOLV>
0

>  <SCORE.SYSTEM.norm>
0

>  <SCORE.heavy>
31

>  <SCORE.norm>
-0.834138

>  <RMSD>
2.051

$$$$
ligand
 OpenBabel11021811473D
libRbt.so/2013.1/901 2013/11/27
 31 33  0  0  0  0  0  0  0  0999 V2000
   28.6424   41.7532   17.1833 P   0  0  1  0  0  0  0  0  0  0  0  0
   28.5923   43.1194   16.5474 O   0  0  0  0  0  0  0  0  0  0  0  0
   28.3022   41.8883   18.6437 O   0  5  0  0  0  0  0  0  0  0  0  0
   27.6481   40.8999   16.4449 O   0  0  0  0  0  0  0  0  0  0  0  0
   30.3673   39.8712   17.7774 C   0  0  0  0  0  0  0  0  0  0  0  0
   30.0883   41.0635   17.0736 O   0  0  0  0  0  0  0  0  0  0  0  0
   29.6968   38.6990   17.0657 C   0  0  1  0  0  0  0  0  0  0  0  0
   30.5288   37.5582   17.1367 O   0  0  0  0  0  0  0  0  0  0  0  0
   28.3657   38.3823   17.7266 C   0  0  1  0  0  0  0  0  0  0  0  0
   27.6041   37.6060   16.8409 O   0  0  0  0  0  0  0  0  0  0  0  0
   28.5273   37.6222   19.0323 C   0  0  1  0  0  0  0  0  0  0  0  0
   29.1879   38.4547   19.9470 O   0  0  0  0  0  0  0  0  0  0  0  0
   27.1746   37.2275   19.6015 C   0  0  0  0  0  0  0  0  0  0  0  0
   27.3315   34.4537   19.1524 N   0  0  0  0  0  0  0  0  0  0  0  0
   27.3442   33.1019   18.8857 C   0  0  0  0  0  0  0  0  0  0  0  0
   27.3066   32.7026   17.7255 O   0  0  0  0  0  0  0  0  0  0  0  0
   27.3967   32.1884   19.9138 N   0  0  0  0  0  0  0  0  0  0  0  0
   27.4488   32.6200   21.2248 C   0  0  0  0  0  0  0  0  0  0  0  0
   27.4356   33.9822   21.5036 C   0  0  1  0  0  0  0  0  0  0  0  0
   27.5147   31.7982   22.1412 O   0  0  0  0  0  0  0  0  0  0  0  0
   27.4743   35.7748   23.0863 C   0  0  2  0  0  0  0  0  0  0  0  0
   27.4856   34.4205   22.8118 N   0  0  0  0  0  0  0  0  0  0  0  0
   27.5248   36.2164   24.4089 C   0  0  0  0  0  0  0  0  0  0  0  0
   27.5087   37.5762   24.6964 C   0  0  1  0  0  0  0  0  0  0  0  0
   27.5604   38.0128   26.1263 C   0  0  0  0  0  0  0  0  0  0  0  0
   27.4465   38.5090   23.6501 C   0  0  1  0  0  0  0  0  0  0  0  0
   27.4363   39.9891   23.9179 C   0  0  0  0  0  0  0  0  0  0  0  0
   27.3946   38.0651   22.3314 C   0  0  0  0  0  0  0  0  0  0  0  0
   27.4064   36.6995   22.0416 C   0  0  1  0  0  0  0  0  0  0  0  0
   27.3726   34.9007   20.4577 C   0  0  1  0  0  0  0  0  0  0  0  0
   27.3525   36.2554   20.7289 N   0  0  0  0  0  0  0  0  0  0  0  0
  1  2  1  6  0  0  0
  1  3  1  0  0  0  0
  1  4  2  0  0  0  0
  1  6  1  0  0  0  0
  5  6  1  0  0  0  0
  7  5  1  1  0  0  0
  7  8  1  0  0  0  0
  7  9  1  0  0  0  0
  9 10  1  6  0  0  0
  9 11  1  0  0  0  0
 11 12  1  1  0  0  0
 11 13  1  0  0  0  0
 13 31  1  0  0  0  0
 14 15  1  0  0  0  0
 15 16  2  0  0  0  0
 15 17  1  0  0  0  0
 17 18  1  0  0  0  0
 18 20  2  0  0  0  0
 19 18  1  6  0  0  0
 19 22  1  0  0  0  0
 19 30  1  0  0  0  0
 21 23  1  1  0  0  0
 21 29  1  0  0  0  0
 21 22  1  0  0  0  0
 23 24  1  0  0  0  0
 24 25  1  6  0  0  0
 24 26  1  0  0  0  0
 26 27  1  6  0  0  0
 26 28  1  0  0  0  0
 29 28  1  6  0  0  0
 29 31  1  0  0  0  0
 30 14  1  6  0  0  0
 30 31  1  0  0  0  0
M  CHG  1   3  -1
M  END
>  <CHROM.1>
75.74078752,170.94185245,143.16002828,162.41592804,64.78068127,168.79609879
94.35832978,28.07729702,37.42855614,19.93490357,0.28864630,1.38034511,0.65525267

>  <Name>
ligand

>  <RI>
0

>  <Rbt.Current_Directory>
/home/itssahil/PROJECTS/Mol_Feturizer/New_Systems/rnas/3F2T

>  <Rbt.Executable>
rbdock ($Id: //depot/dev/client3/rdock/2013.1/src/exe/rbdock.cxx#4 $)

>  <Rbt.Library>
libRbt.so (2013.1, Build901 2013/11/27)

>  <Rbt.Parameter_File>
/export/apps/rDock/src/rDock_2013.1_src/data/scripts/dock_solv.prm

>  <Rbt.Receptor>
prm/pocket_docking_3.prm

>  <SCORE>
-26.0111

>  <SCORE.INTER>
-29.6054

>  <SCORE.INTER.CONST>
1

>  <SCORE.INTER.POLAR>
0

>  <SCORE.INTER.ROT>
7

>  <SCORE.INTER.SOLV>
14.4947

>  <SCORE.INTER.VDW>
-32.8352

>  <SCORE.INTER.norm>
-0.955013

>  <SCORE.INTRA>
3.59426

>  <SCORE.INTRA.DIHEDRAL>
3.16032

>  <SCORE.INTRA.DIHEDRAL.0>
4.64198

>  <SCORE.INTRA.POLAR>
0

>  <SCORE.INTRA.POLAR.0>
0

>  <SCORE.INTRA.REPUL>
0

>  <SCORE.INTRA.REPUL.0>
0

>  <SCORE.INTRA.SOLV>
4.57818

>  <SCORE.INTRA.SOLV.lig_0>
-49.3611

>  <SCORE.INTRA.VDW>
-0.274989

>  <SCORE.INTRA.VDW.0>
-1.91858

>  <SCORE.INTRA.norm>
0.115944

>  <SCORE.RESTR>
0

>  <SCORE.RESTR.CAVITY>
0

>  <SCORE.RESTR.norm>
0

>  <SCORE.SYSTEM>
0

>  <SCORE.SYSTEM.CONST>
0

>  <SCORE.SYSTEM.DIHEDRAL>
0

>  <SCORE.SYSTEM.SOLV>
0

>  <SCORE.SYSTEM.norm>
0

>  <SCORE.heavy>
31

>  <SCORE.norm>
-0.839069

>  <RMSD>
2.098

$$$$
ligand
 OpenBabel11021811473D
libRbt.so/2013.1/901 2013/11/27
 31 33  0  0  0  0  0  0  0  0999 V2000
   26.9926   43.0669   16.8668 P   0  0  1  0  0  0  0  0  0  0  0  0
   26.7146   41.7438   16.1996 O   0  0  0  0  0  0  0  0  0  0  0  0
   28.1328   43.7389   16.1488 O   0  5  0  0  0  0  0  0  0  0  0  0
   25.7202   43.8645   16.7840 O   0  0  0  0  0  0  0  0  0  0  0  0
   26.4743   42.4117   19.3512 C   0  0  0  0  0  0  0  0  0  0  0  0
   27.4011   42.9160   18.4123 O   0  0  0  0  0  0  0  0  0  0  0  0
   27.1614   42.2650   20.7064 C   0  0  1  0  0  0  0  0  0  0  0  0
   26.2006   41.9633   21.6986 O   0  0  0  0  0  0  0  0  0  0  0  0
   28.1849   41.1433   20.6515 C   0  0  1  0  0  0  0  0  0  0  0  0
   29.0450   41.2731   21.7518 O   0  0  0  0  0  0  0  0  0  0  0  0
   27.5451   39.7656   20.6875 C   0  0  1  0  0  0  0  0  0  0  0  0
   26.7745   39.6081   19.5268 O   0  0  0  0  0  0  0  0  0  0  0  0
   28.6039   38.6766   20.7367 C   0  0  0  0  0  0  0  0  0  0  0  0
   28.4398   35.9813   19.9440 N   0  0  0  0  0  0  0  0  0  0  0  0
   28.3189   34.6853   19.4916 C   0  0  0  0  0  0  0  0  0  0  0  0
   28.6389   34.4023   18.3408 O   0  0  0  0  0  0  0  0  0  0  0  0
   27.8375   33.6987   20.3217 N   0  0  0  0  0  0  0  0  0  0  0  0
   27.4814   33.9975   21.6223 C   0  0  0  0  0  0  0  0  0  0  0  0
   27.5993   35.3025   22.0874 C   0  0  1  0  0  0  0  0  0  0  0  0
   27.0685   33.1065   22.3675 O   0  0  0  0  0  0  0  0  0  0  0  0
   27.3631   36.9059   23.8461 C   0  0  2  0  0  0  0  0  0  0  0  0
   27.2434   35.6085   23.3857 N   0  0  0  0  0  0  0  0  0  0  0  0
   27.0030   37.2138   25.1585 C   0  0  0  0  0  0  0  0  0  0  0  0
   27.1146   38.5165   25.6302 C   0  0  1  0  0  0  0  0  0  0  0  0
   26.7157   38.8102   27.0418 C   0  0  0  0  0  0  0  0  0  0  0  0
   27.5969   39.5255   24.7830 C   0  0  1  0  0  0  0  0  0  0  0  0
   27.7416   40.9456   25.2571 C   0  0  0  0  0  0  0  0  0  0  0  0
   27.9540   39.2154   23.4734 C   0  0  0  0  0  0  0  0  0  0  0  0
   27.8383   37.9082   22.9972 C   0  0  1  0  0  0  0  0  0  0  0  0
   28.0783   36.2978   21.2380 C   0  0  1  0  0  0  0  0  0  0  0  0
   28.1913   37.5978   21.6925 N   0  0  0  0  0  0  0  0  0  0  0  0
  1  2  1  6  0  0  0
  1  3  1  0  0  0  0
  1  4  2  0  0  0  0
  1  6  1  0  0  0  0
  5  6  1  0  0  0  0
  7  5  1  6  0  0  0
  7  8  1  0  0  0  0
  7  9  1  0  0  0  0
  9 10  1  1  0  0  0
  9 11  1  0  0  0  0
 11 12  1  6  0  0  0
 11 13  1  0  0  0  0
 13 31  1  0  0  0  0
 14 15  1  0  0  0  0
 15 16  2  0  0  0  0
 15 17  1  0  0  0  0
 17 18  1  0  0  0  0
 18 20  2  0  0  0  0
 19 18  1  1  0  0  0
 19 22  1  0  0  0  0
 19 30  1  0  0  0  0
 21 23  1  6  0  0  0
 21 29  1  0  0  0  0
 21 22  1  0  0  0  0
 23 24  1  0  0  0  0
 24 25  1  1  0  0  0
 24 26  1  0  0  0  0
 26 27  1  1  0  0  0
 26 28  1  0  0  0  0
 29 28  1  1  0  0  0
 29 31  1  0  0  0  0
 30 14  1  1  0  0  0
 30 31  1  0  0  0  0
M  CHG  1   3  -1
M  END
>  <CHROM.1>
175.20001153,-64.80976079,170.88117582,163.65016224,64.44262548,138.86615048
-53.34068409,27.48576844,39.07327012,20.92468419,-2.22766995,-1.46648968
1.85224269

>  <Name>
ligand

>  <RI>
0

>  <Rbt.Current_Directory>
/home/itssahil/PROJECTS/Mol_Feturizer/New_Systems/rnas/3F2T

>  <Rbt.Executable>
rbdock ($Id: //depot/dev/client3/rdock/2013.1/src/exe/rbdock.cxx#4 $)

>  <Rbt.Library>
libRbt.so (2013.1, Build901 2013/11/27)

>  <Rbt.Parameter_File>
/export/apps/rDock/src/rDock_2013.1_src/data/scripts/dock_solv.prm

>  <Rbt.Receptor>
prm/pocket_docking_7.prm

>  <SCORE>
-28.9799

>  <SCORE.INTER>
-30.5319

>  <SCORE.INTER.CONST>
1

>  <SCORE.INTER.POLAR>
0

>  <SCORE.INTER.ROT>
7

>  <SCORE.INTER.SOLV>
17.7064

>  <SCORE.INTER.VDW>
-34.5234

>  <SCORE.INTER.norm>
-0.984901

>  <SCORE.INTRA>
1.55204

>  <SCORE.INTRA.DIHEDRAL>
2.14349

>  <SCORE.INTRA.DIHEDRAL.0>
4.64198

>  <SCORE.INTRA.POLAR>
0

>  <SCORE.INTRA.POLAR.0>
0

>  <SCORE.INTRA.REPUL>
0

>  <SCORE.INTRA.REPUL.0>
0

>  <SCORE.INTRA.SOLV>
-0.0525062

>  <SCORE.INTRA.SOLV.lig_0>
-49.3611

>  <SCORE.INTRA.VDW>
0.506545

>  <SCORE.INTRA.VDW.0>
-1.91858

>  <SCORE.INTRA.norm>
0.0500657

>  <SCORE.RESTR>
0

>  <SCORE.RESTR.CAVITY>
0

>  <SCORE.RESTR.norm>
0

>  <SCORE.SYSTEM>
0

>  <SCORE.SYSTEM.CONST>
0

>  <SCORE.SYSTEM.DIHEDRAL>
0

>  <SCORE.SYSTEM.SOLV>
0

>  <SCORE.SYSTEM.norm>
0

>  <SCORE.heavy>
31

>  <SCORE.norm>
-0.934835

>  <RMSD>
2.108

$$$$
ligand
 OpenBabel11021811473D
libRbt.so/2013.1/901 2013/11/27
 31 33  0  0  0  0  0  0  0  0999 V2000
   25.9952   42.7164   16.9424 P   0  0  1  0  0  0  0  0  0  0  0  0
   25.2971   42.1319   18.1442 O   0  0  0  0  0  0  0  0  0  0  0  0
   24.9544   43.1749   15.9558 O   0  5  0  0  0  0  0  0  0  0  0  0
   26.8389   43.8542   17.4481 O   0  0  0  0  0  0  0  0  0  0  0  0
   28.1511   41.2316   16.8080 C   0  0  0  0  0  0  0  0  0  0  0  0
   26.9518   41.6625   16.1991 O   0  0  0  0  0  0  0  0  0  0  0  0
   27.8210   40.2462   17.9262 C   0  0  1  0  0  0  0  0  0  0  0  0
   27.7450   38.9359   17.4008 O   0  0  0  0  0  0  0  0  0  0  0  0
   28.9020   40.2896   18.9931 C   0  0  1  0  0  0  0  0  0  0  0  0
   28.7417   41.4661   19.7396 O   0  0  0  0  0  0  0  0  0  0  0  0
   28.8426   39.0982   19.9343 C   0  0  1  0  0  0  0  0  0  0  0  0
   29.8438   39.2533   20.9036 O   0  0  0  0  0  0  0  0  0  0  0  0
   27.4896   39.0161   20.6213 C   0  0  0  0  0  0  0  0  0  0  0  0
   27.6921   36.3177   19.8485 N   0  0  0  0  0  0  0  0  0  0  0  0
   27.7351   35.0102   19.4155 C   0  0  0  0  0  0  0  0  0  0  0  0
   27.8699   34.7611   18.2211 O   0  0  0  0  0  0  0  0  0  0  0  0
   27.6252   33.9737   20.3141 N   0  0  0  0  0  0  0  0  0  0  0  0
   27.4822   34.2356   21.6628 C   0  0  0  0  0  0  0  0  0  0  0  0
   27.4371   35.5517   22.1090 C   0  0  1  0  0  0  0  0  0  0  0  0
   27.4032   33.3035   22.4657 O   0  0  0  0  0  0  0  0  0  0  0  0
   27.2497   37.1294   23.8965 C   0  0  2  0  0  0  0  0  0  0  0  0
   27.2924   35.8206   23.4553 N   0  0  0  0  0  0  0  0  0  0  0  0
   27.1033   37.3999   25.2575 C   0  0  0  0  0  0  0  0  0  0  0  0
   27.0540   38.7127   25.7114 C   0  0  1  0  0  0  0  0  0  0  0  0
   26.8927   38.9646   27.1772 C   0  0  0  0  0  0  0  0  0  0  0  0
   27.1571   39.7709   24.7959 C   0  0  1  0  0  0  0  0  0  0  0  0
   27.1174   41.2053   25.2468 C   0  0  0  0  0  0  0  0  0  0  0  0
   27.3014   39.4979   23.4382 C   0  0  0  0  0  0  0  0  0  0  0  0
   27.3469   38.1797   22.9806 C   0  0  1  0  0  0  0  0  0  0  0  0
   27.5392   36.5957   21.1918 C   0  0  1  0  0  0  0  0  0  0  0  0
   27.4882   37.9057   21.6285 N   0  0  0  0  0  0  0  0  0  0  0  0
  1  2  1  1  0  0  0
  1  3  1  0  0  0  0
  1  4  2  0  0  0  0
  1  6  1  0  0  0  0
  5  6  1  0  0  0  0
  7  5  1  6  0  0  0
  7  8  1  0  0  0  0
  7  9  1  0  0  0  0
  9 10  1  1  0  0  0
  9 11  1  0  0  0  0
 11 12  1  1  0  0  0
 11 13  1  0  0  0  0
 13 31  1  0  0  0  0
 14 15  1  0  0  0  0
 15 16  2  0  0  0  0
 15 17  1  0  0  0  0
 17 18  1  0  0  0  0
 18 20  2  0  0  0  0
 19 18  1  1  0  0  0
 19 22  1  0  0  0  0
 19 30  1  0  0  0  0
 21 23  1  6  0  0  0
 21 29  1  0  0  0  0
 21 22  1  0  0  0  0
 23 24  1  0  0  0  0
 24 25  1  1  0  0  0
 24 26  1  0  0  0  0
 26 27  1  1  0  0  0
 26 28  1  0  0  0  0
 29 28  1  1  0  0  0
 29 31  1  0  0  0  0
 30 14  1  1  0  0  0
 30 31  1  0  0  0  0
M  CHG  1   3  -1
M  END
>  <CHROM.1>
74.98315372,-70.38659078,87.79707843,74.70708204,-177.98012945,-175.29889942
115.31347964,27.36608509,38.89119206,20.53099957,2.24709285,1.43428664,-1.51310372

>  <Name>
ligand

>  <RI>
0

>  <Rbt.Current_Directory>
/home/itssahil/PROJECTS/Mol_Feturizer/New_Systems/rnas/3F2T

>  <Rbt.Executable>
rbdock ($Id: //depot/dev/client3/rdock/2013.1/src/exe/rbdock.cxx#4 $)

>  <Rbt.Library>
libRbt.so (2013.1, Build901 2013/11/27)

>  <Rbt.Parameter_File>
/export/apps/rDock/src/rDock_2013.1_src/data/scripts/dock_solv.prm

>  <Rbt.Receptor>
prm/pocket_docking_5.prm

>  <SCORE>
-25.0815

>  <SCORE.INTER>
-26.1607

>  <SCORE.INTER.CONST>
1

>  <SCORE.INTER.POLAR>
0

>  <SCORE.INTER.ROT>
7

>  <SCORE.INTER.SOLV>
17.1834

>  <SCORE.INTER.VDW>
-31.4349

>  <SCORE.INTER.norm>
-0.843894

>  <SCORE.INTRA>
1.07926

>  <SCORE.INTRA.DIHEDRAL>
1.05138

>  <SCORE.INTRA.DIHEDRAL.0>
4.64198

>  <SCORE.INTRA.POLAR>
0

>  <SCORE.INTRA.POLAR.0>
0

>  <SCORE.INTRA.REPUL>
0

>  <SCORE.INTRA.REPUL.0>
0

>  <SCORE.INTRA.SOLV>
0.968345

>  <SCORE.INTRA.SOLV.lig_0>
-49.3611

>  <SCORE.INTRA.VDW>
0.0693989

>  <SCORE.INTRA.VDW.0>
-1.91858

>  <SCORE.INTRA.norm>
0.0348149

>  <SCORE.RESTR>
0

>  <SCORE.RESTR.CAVITY>
0

>  <SCORE.RESTR.norm>
0

>  <SCORE.SYSTEM>
0

>  <SCORE.SYSTEM.CONST>
0

>  <SCORE.SYSTEM.DIHEDRAL>
0

>  <SCORE.SYSTEM.SOLV>
0

>  <SCORE.SYSTEM.norm>
0

>  <SCORE.heavy>
31

>  <SCORE.norm>
-0.809079

>  <RMSD>
2.121

$$$$
ligand
 OpenBabel11021811473D
libRbt.so/2013.1/901 2013/11/27
 31 33  0  0  0  0  0  0  0  0999 V2000
   27.1282   41.4014   20.1724 P   0  0  1  0  0  0  0  0  0  0  0  0
   27.6026   42.7369   19.6582 O   0  0  0  0  0  0  0  0  0  0  0  0
   28.3031   40.6660   20.7605 O   0  5  0  0  0  0  0  0  0  0  0  0
   26.0668   41.6894   21.1984 O   0  0  0  0  0  0  0  0  0  0  0  0
   26.9955   40.5256   17.7055 C   0  0  0  0  0  0  0  0  0  0  0  0
   26.4909   40.4779   19.0238 O   0  0  0  0  0  0  0  0  0  0  0  0
   28.0694   39.4535   17.5395 C   0  0  1  0  0  0  0  0  0  0  0  0
   29.0577   39.6093   18.5383 O   0  0  0  0  0  0  0  0  0  0  0  0
   27.4493   38.0723   17.6683 C   0  0  1  0  0  0  0  0  0  0  0  0
   28.3378   37.1344   17.1222 O   0  0  0  0  0  0  0  0  0  0  0  0
   27.1600   37.6934   19.1110 C   0  0  1  0  0  0  0  0  0  0  0  0
   26.2087   36.6634   19.1129 O   0  0  0  0  0  0  0  0  0  0  0  0
   28.4210   37.2111   19.8088 C   0  0  0  0  0  0  0  0  0  0  0  0
   28.3880   34.4343   19.3524 N   0  0  0  0  0  0  0  0  0  0  0  0
   28.3296   33.0884   19.0629 C   0  0  0  0  0  0  0  0  0  0  0  0
   28.6551   32.6829   17.9509 O   0  0  0  0  0  0  0  0  0  0  0  0
   27.9050   32.1881   20.0132 N   0  0  0  0  0  0  0  0  0  0  0  0
   27.5438   32.6256   21.2725 C   0  0  0  0  0  0  0  0  0  0  0  0
   27.5987   33.9820   21.5736 C   0  0  1  0  0  0  0  0  0  0  0  0
   27.1821   31.8131   22.1261 O   0  0  0  0  0  0  0  0  0  0  0  0
   27.2944   35.7746   23.1271 C   0  0  2  0  0  0  0  0  0  0  0  0
   27.2373   34.4264   22.8297 N   0  0  0  0  0  0  0  0  0  0  0  0
   26.9288   36.2225   24.3970 C   0  0  0  0  0  0  0  0  0  0  0  0
   26.9776   37.5770   24.7051 C   0  0  1  0  0  0  0  0  0  0  0  0
   26.5747   38.0210   26.0757 C   0  0  0  0  0  0  0  0  0  0  0  0
   27.4019   38.4975   23.7349 C   0  0  1  0  0  0  0  0  0  0  0  0
   27.4778   39.9703   24.0306 C   0  0  0  0  0  0  0  0  0  0  0  0
   27.7646   38.0476   22.4681 C   0  0  0  0  0  0  0  0  0  0  0  0
   27.7119   36.6879   22.1561 C   0  0  1  0  0  0  0  0  0  0  0  0
   28.0204   34.8884   20.6030 C   0  0  1  0  0  0  0  0  0  0  0  0
   28.0706   36.2382   20.8943 N   0  0  0  0  0  0  0  0  0  0  0  0
  1  2  1  6  0  0  0
  1  3  1  0  0  0  0
  1  4  2  0  0  0  0
  1  6  1  0  0  0  0
  5  6  1  0  0  0  0
  7  5  1  1  0  0  0
  7  8  1  0  0  0  0
  7  9  1  0  0  0  0
  9 10  1  1  0  0  0
  9 11  1  0  0  0  0
 11 12  1  6  0  0  0
 11 13  1  0  0  0  0
 13 31  1  0  0  0  0
 14 15  1  0  0  0  0
 15 16  2  0  0  0  0
 15 17  1  0  0  0  0
 17 18  1  0  0  0  0
 18 20  2  0  0  0  0
 19 18  1  1  0  0  0
 19 22  1  0  0  0  0
 19 30  1  0  0  0  0
 21 23  1  6  0  0  0
 21 29  1  0  0  0  0
 21 22  1  0  0  0  0
 23 24  1  0  0  0  0
 24 25  1  1  0  0  0
 24 26  1  0  0  0  0
 26 27  1  1  0  0  0
 26 28  1  0  0  0  0
 29 28  1  1  0  0  0
 29 31  1  0  0  0  0
 30 14  1  1  0  0  0
 30 31  1  0  0  0  0
M  CHG  1   3  -1
M  END
>  <CHROM.1>
92.51318712,33.97023645,-54.42495653,162.33579748,160.09310669,-151.52287803
-84.67673953,27.54054083,37.37867148,20.66262717,1.95894025,1.41299689,-0.49887842

>  <Name>
ligand

>  <RI>
0

>  <Rbt.Current_Directory>
/home/itssahil/PROJECTS/Mol_Feturizer/New_Systems/rnas/3F2T

>  <Rbt.Executable>
rbdock ($Id: //depot/dev/client3/rdock/2013.1/src/exe/rbdock.cxx#4 $)

>  <Rbt.Library>
libRbt.so (2013.1, Build901 2013/11/27)

>  <Rbt.Parameter_File>
/export/apps/rDock/src/rDock_2013.1_src/data/scripts/dock_solv.prm

>  <Rbt.Receptor>
prm/pocket_docking_3.prm

>  <SCORE>
-26.1494

>  <SCORE.INTER>
-32.028

>  <SCORE.INTER.CONST>
1

>  <SCORE.INTER.POLAR>
0

>  <SCORE.INTER.ROT>
7

>  <SCORE.INTER.SOLV>
12.9604

>  <SCORE.INTER.VDW>
-33.9388

>  <SCORE.INTER.norm>
-1.03316

>  <SCORE.INTRA>
5.87045

>  <SCORE.INTRA.DIHEDRAL>
6.46228

>  <SCORE.INTRA.DIHEDRAL.0>
4.64198

>  <SCORE.INTRA.POLAR>
0

>  <SCORE.INTRA.POLAR.0>
0

>  <SCORE.INTRA.REPUL>
0

>  <SCORE.INTRA.REPUL.0>
0

>  <SCORE.INTRA.SOLV>
5.62387

>  <SCORE.INTRA.SOLV.lig_0>
-49.3611

>  <SCORE.INTRA.VDW>
-0.172629

>  <SCORE.INTRA.VDW.0>
-1.91858

>  <SCORE.INTRA.norm>
0.189369

>  <SCORE.RESTR>
0.00821978

>  <SCORE.RESTR.CAVITY>
0.00821978

>  <SCORE.RESTR.norm>
0.000265154

>  <SCORE.SYSTEM>
0

>  <SCORE.SYSTEM.CONST>
0

>  <SCORE.SYSTEM.DIHEDRAL>
0

>  <SCORE.SYSTEM.SOLV>
0

>  <SCORE.SYSTEM.norm>
0

>  <SCORE.heavy>
31

>  <SCORE.norm>
-0.843527

>  <RMSD>
2.139

$$$$
ligand
 OpenBabel11021811473D
libRbt.so/2013.1/901 2013/11/27
 31 33  0  0  0  0  0  0  0  0999 V2000
   27.8193   42.7210   16.7015 P   0  0  1  0  0  0  0  0  0  0  0  0
   29.2830   42.4367   16.9250 O   0  0  0  0  0  0  0  0  0  0  0  0
   27.6911   43.7976   15.6569 O   0  5  0  0  0  0  0  0  0  0  0  0
   27.1931   41.4259   16.2625 O   0  0  0  0  0  0  0  0  0  0  0  0
   26.7766   42.3228   19.0732 C   0  0  0  0  0  0  0  0  0  0  0  0
   27.0694   43.2268   18.0282 O   0  0  0  0  0  0  0  0  0  0  0  0
   28.0813   41.8524   19.7109 C   0  0  1  0  0  0  0  0  0  0  0  0
   28.8265   42.9696   20.1531 O   0  0  0  0  0  0  0  0  0  0  0  0
   27.7845   40.9538   20.8997 C   0  0  1  0  0  0  0  0  0  0  0  0
   26.7573   41.5401   21.6536 O   0  0  0  0  0  0  0  0  0  0  0  0
   27.3536   39.5574   20.4839 C   0  0  1  0  0  0  0  0  0  0  0  0
   26.9624   39.6002   19.1381 O   0  0  0  0  0  0  0  0  0  0  0  0
   28.4958   38.5674   20.6416 C   0  0  0  0  0  0  0  0  0  0  0  0
   28.3824   35.8528   19.9083 N   0  0  0  0  0  0  0  0  0  0  0  0
   28.2848   34.5450   19.4851 C   0  0  0  0  0  0  0  0  0  0  0  0
   28.5945   34.2448   18.3359 O   0  0  0  0  0  0  0  0  0  0  0  0
   27.8385   33.5657   20.3428 N   0  0  0  0  0  0  0  0  0  0  0  0
   27.4945   33.8839   21.6422 C   0  0  0  0  0  0  0  0  0  0  0  0
   27.5889   35.2010   22.0779 C   0  0  1  0  0  0  0  0  0  0  0  0
   27.1132   32.9999   22.4120 O   0  0  0  0  0  0  0  0  0  0  0  0
   27.3415   36.8357   23.8059 C   0  0  2  0  0  0  0  0  0  0  0  0
   27.2450   35.5264   23.3746 N   0  0  0  0  0  0  0  0  0  0  0  0
   26.9934   37.1633   25.1167 C   0  0  0  0  0  0  0  0  0  0  0  0
   27.0818   38.4779   25.5592 C   0  0  1  0  0  0  0  0  0  0  0  0
   26.6967   38.7926   26.9702 C   0  0  0  0  0  0  0  0  0  0  0  0
   27.5283   39.4794   24.6838 C   0  0  1  0  0  0  0  0  0  0  0  0
   27.6470   40.9122   25.1257 C   0  0  0  0  0  0  0  0  0  0  0  0
   27.8734   39.1496   23.3758 C   0  0  0  0  0  0  0  0  0  0  0  0
   27.7810   37.8302   22.9290 C   0  0  1  0  0  0  0  0  0  0  0  0
   28.0325   36.1885   21.2006 C   0  0  1  0  0  0  0  0  0  0  0  0
   28.1220   37.5002   21.6259 N   0  0  0  0  0  0  0  0  0  0  0  0
  1  2  1  1  0  0  0
  1  3  1  0  0  0  0
  1  4  2  0  0  0  0
  1  6  1  0  0  0  0
  5  6  1  0  0  0  0
  7  5  1  1  0  0  0
  7  8  1  0  0  0  0
  7  9  1  0  0  0  0
  9 10  1  6  0  0  0
  9 11  1  0  0  0  0
 11 12  1  6  0  0  0
 11 13  1  0  0  0  0
 13 31  1  0  0  0  0
 14 15  1  0  0  0  0
 15 16  2  0  0  0  0
 15 17  1  0  0  0  0
 17 18  1  0  0  0  0
 18 20  2  0  0  0  0
 19 18  1  1  0  0  0
 19 22  1  0  0  0  0
 19 30  1  0  0  0  0
 21 23  1  6  0  0  0
 21 29  1  0  0  0  0
 21 22  1  0  0  0  0
 23 24  1  0  0  0  0
 24 25  1  1  0  0  0
 24 26  1  0  0  0  0
 26 27  1  1  0  0  0
 26 28  1  0  0  0  0
 29 28  1  1  0  0  0
 29 31  1  0  0  0  0
 30 14  1  1  0  0  0
 30 31  1  0  0  0  0
M  CHG  1   3  -1
M  END
>  <CHROM.1>
67.02817101,-73.40069344,56.17988765,-44.25304165,-17.63547249,118.78802721
-58.88658020,27.67691675,38.96894152,20.75707603,-1.28602496,-1.46207591
2.76069084

>  <Name>
ligand

>  <RI>
0

>  <Rbt.Current_Directory>
/home/itssahil/PROJECTS/Mol_Feturizer/New_Systems/rnas/3F2T

>  <Rbt.Executable>
rbdock ($Id: //depot/dev/client3/rdock/2013.1/src/exe/rbdock.cxx#4 $)

>  <Rbt.Library>
libRbt.so (2013.1, Build901 2013/11/27)

>  <Rbt.Parameter_File>
/export/apps/rDock/src/rDock_2013.1_src/data/scripts/dock_solv.prm

>  <Rbt.Receptor>
prm/pocket_docking_4.prm

>  <SCORE>
-23.7069

>  <SCORE.INTER>
-30.5466

>  <SCORE.INTER.CONST>
1

>  <SCORE.INTER.POLAR>
0

>  <SCORE.INTER.ROT>
7

>  <SCORE.INTER.SOLV>
20.9895

>  <SCORE.INTER.VDW>
-35.6276

>  <SCORE.INTER.norm>
-0.985375

>  <SCORE.INTRA>
6.83975

>  <SCORE.INTRA.DIHEDRAL>
7.6237

>  <SCORE.INTRA.DIHEDRAL.0>
4.64198

>  <SCORE.INTRA.POLAR>
0

>  <SCORE.INTRA.POLAR.0>
0

>  <SCORE.INTRA.REPUL>
0

>  <SCORE.INTRA.REPUL.0>
0

>  <SCORE.INTRA.SOLV>
1.72498

>  <SCORE.INTRA.SOLV.lig_0>
-49.3611

>  <SCORE.INTRA.VDW>
2.16541

>  <SCORE.INTRA.VDW.0>
-1.91858

>  <SCORE.INTRA.norm>
0.220637

>  <SCORE.RESTR>
0

>  <SCORE.RESTR.CAVITY>
0

>  <SCORE.RESTR.norm>
0

>  <SCORE.SYSTEM>
0

>  <SCORE.SYSTEM.CONST>
0

>  <SCORE.SYSTEM.DIHEDRAL>
0

>  <SCORE.SYSTEM.SOLV>
0

>  <SCORE.SYSTEM.norm>
0

>  <SCORE.heavy>
31

>  <SCORE.norm>
-0.764738

>  <RMSD>
2.141

$$$$
ligand
 OpenBabel11021811473D
libRbt.so/2013.1/901 2013/11/27
 31 33  0  0  0  0  0  0  0  0999 V2000
   26.0605   42.4885   17.2705 P   0  0  1  0  0  0  0  0  0  0  0  0
   26.0315   42.1170   18.7315 O   0  0  0  0  0  0  0  0  0  0  0  0
   24.6443   42.5757   16.7669 O   0  5  0  0  0  0  0  0  0  0  0  0
   26.7787   43.8067   17.1776 O   0  0  0  0  0  0  0  0  0  0  0  0
   28.1150   40.9441   16.7565 C   0  0  0  0  0  0  0  0  0  0  0  0
   26.8423   41.4162   16.3665 O   0  0  0  0  0  0  0  0  0  0  0  0
   27.9482   39.9034   17.8606 C   0  0  1  0  0  0  0  0  0  0  0  0
   28.1574   38.6089   17.3322 O   0  0  0  0  0  0  0  0  0  0  0  0
   28.9574   40.1546   18.9684 C   0  0  1  0  0  0  0  0  0  0  0  0
   28.6669   41.3921   19.5612 O   0  0  0  0  0  0  0  0  0  0  0  0
   28.9296   39.0777   20.0400 C   0  0  1  0  0  0  0  0  0  0  0  0
   29.8207   39.4467   21.0576 O   0  0  0  0  0  0  0  0  0  0  0  0
   27.5349   38.9304   20.6254 C   0  0  0  0  0  0  0  0  0  0  0  0
   27.7127   36.2148   19.9089 N   0  0  0  0  0  0  0  0  0  0  0  0
   27.7438   34.8983   19.5029 C   0  0  0  0  0  0  0  0  0  0  0  0
   27.8797   34.6233   18.3143 O   0  0  0  0  0  0  0  0  0  0  0  0
   27.6208   33.8816   20.4223 N   0  0  0  0  0  0  0  0  0  0  0  0
   27.4764   34.1726   21.7648 C   0  0  0  0  0  0  0  0  0  0  0  0
   27.4431   35.4980   22.1837 C   0  0  1  0  0  0  0  0  0  0  0  0
   27.3856   33.2581   22.5865 O   0  0  0  0  0  0  0  0  0  0  0  0
   27.2662   37.1140   23.9378 C   0  0  2  0  0  0  0  0  0  0  0  0
   27.2971   35.7960   23.5238 N   0  0  0  0  0  0  0  0  0  0  0  0
   27.1185   37.4138   25.2925 C   0  0  0  0  0  0  0  0  0  0  0  0
   27.0809   38.7361   25.7192 C   0  0  1  0  0  0  0  0  0  0  0  0
   26.9178   39.0197   27.1790 C   0  0  0  0  0  0  0  0  0  0  0  0
   27.1974   39.7742   24.7825 C   0  0  1  0  0  0  0  0  0  0  0  0
   27.1708   41.2179   25.2037 C   0  0  0  0  0  0  0  0  0  0  0  0
   27.3431   39.4718   23.4312 C   0  0  0  0  0  0  0  0  0  0  0  0
   27.3767   38.1442   23.0009 C   0  0  1  0  0  0  0  0  0  0  0  0
   27.5585   36.5219   21.2457 C   0  0  1  0  0  0  0  0  0  0  0  0
   27.5194   37.8410   21.6552 N   0  0  0  0  0  0  0  0  0  0  0  0
  1  2  1  1  0  0  0
  1  3  1  0  0  0  0
  1  4  2  0  0  0  0
  1  6  1  0  0  0  0
  5  6  1  0  0  0  0
  7  5  1  6  0  0  0
  7  8  1  0  0  0  0
  7  9  1  0  0  0  0
  9 10  1  1  0  0  0
  9 11  1  0  0  0  0
 11 12  1  1  0  0  0
 11 13  1  0  0  0  0
 13 31  1  0  0  0  0
 14 15  1  0  0  0  0
 15 16  2  0  0  0  0
 15 17  1  0  0  0  0
 17 18  1  0  0  0  0
 18 20  2  0  0  0  0
 19 18  1  1  0  0  0
 19 22  1  0  0  0  0
 19 30  1  0  0  0  0
 21 23  1  6  0  0  0
 21 29  1  0  0  0  0
 21 22  1  0  0  0  0
 23 24  1  0  0  0  0
 24 25  1  1  0  0  0
 24 26  1  0  0  0  0
 26 27  1  1  0  0  0
 26 28  1  0  0  0  0
 29 28  1  1  0  0  0
 29 31  1  0  0  0  0
 30 14  1  1  0  0  0
 30 31  1  0  0  0  0
M  CHG  1   3  -1
M  END
>  <CHROM.1>
77.81223328,-48.08696974,104.66955695,64.66511195,-175.82969507,178.58147058
109.64992915,27.40832103,38.78726013,20.62081690,2.16905156,1.43741430,-1.43321060

>  <Name>
ligand

>  <RI>
0

>  <Rbt.Current_Directory>
/home/itssahil/PROJECTS/Mol_Feturizer/New_Systems/rnas/3F2T

>  <Rbt.Executable>
rbdock ($Id: //depot/dev/client3/rdock/2013.1/src/exe/rbdock.cxx#4 $)

>  <Rbt.Library>
libRbt.so (2013.1, Build901 2013/11/27)

>  <Rbt.Parameter_File>
/export/apps/rDock/src/rDock_2013.1_src/data/scripts/dock_solv.prm

>  <Rbt.Receptor>
prm/blind_docking_100.prm

>  <SCORE>
-25.1896

>  <SCORE.INTER>
-26.6665

>  <SCORE.INTER.CONST>
1

>  <SCORE.INTER.POLAR>
0

>  <SCORE.INTER.ROT>
7

>  <SCORE.INTER.SOLV>
16.8205

>  <SCORE.INTER.VDW>
-31.6511

>  <SCORE.INTER.norm>
-0.860209

>  <SCORE.INTRA>
1.47688

>  <SCORE.INTRA.DIHEDRAL>
2.92314

>  <SCORE.INTRA.DIHEDRAL.0>
4.64198

>  <SCORE.INTRA.POLAR>
0

>  <SCORE.INTRA.POLAR.0>
0

>  <SCORE.INTRA.REPUL>
0

>  <SCORE.INTRA.REPUL.0>
0

>  <SCORE.INTRA.SOLV>
0.791491

>  <SCORE.INTRA.SOLV.lig_0>
-49.3611

>  <SCORE.INTRA.VDW>
-0.380441

>  <SCORE.INTRA.VDW.0>
-1.91858

>  <SCORE.INTRA.norm>
0.0476411

>  <SCORE.RESTR>
0

>  <SCORE.RESTR.CAVITY>
0

>  <SCORE.RESTR.norm>
0

>  <SCORE.SYSTEM>
0

>  <SCORE.SYSTEM.CONST>
0

>  <SCORE.SYSTEM.DIHEDRAL>
0

>  <SCORE.SYSTEM.SOLV>
0

>  <SCORE.SYSTEM.norm>
0

>  <SCORE.heavy>
31

>  <SCORE.norm>
-0.812568

>  <RMSD>
2.158

$$$$
ligand
 OpenBabel11021811473D
libRbt.so/2013.1/901 2013/11/27
 31 33  0  0  0  0  0  0  0  0999 V2000
   28.9578   41.5744   17.1202 P   0  0  1  0  0  0  0  0  0  0  0  0
   28.7613   42.0625   18.5331 O   0  0  0  0  0  0  0  0  0  0  0  0
   27.8750   40.5788   16.7989 O   0  5  0  0  0  0  0  0  0  0  0  0
   28.8943   42.7884   16.2345 O   0  0  0  0  0  0  0  0  0  0  0  0
   30.7735   39.7857   17.7318 C   0  0  0  0  0  0  0  0  0  0  0  0
   30.3751   40.8534   16.8975 O   0  0  0  0  0  0  0  0  0  0  0  0
   30.2692   38.4715   17.1412 C   0  0  1  0  0  0  0  0  0  0  0  0
   31.1488   37.4218   17.4920 O   0  0  0  0  0  0  0  0  0  0  0  0
   28.8839   38.1571   17.6804 C   0  0  1  0  0  0  0  0  0  0  0  0
   28.2660   37.2455   16.8119 O   0  0  0  0  0  0  0  0  0  0  0  0
   28.9218   37.5578   19.0762 C   0  0  1  0  0  0  0  0  0  0  0  0
   29.5217   38.4873   19.9377 O   0  0  0  0  0  0  0  0  0  0  0  0
   27.5191   37.2485   19.5724 C   0  0  0  0  0  0  0  0  0  0  0  0
   27.6854   34.4698   19.1587 N   0  0  0  0  0  0  0  0  0  0  0  0
   27.7076   33.1159   18.9034 C   0  0  0  0  0  0  0  0  0  0  0  0
   27.7757   32.7081   17.7476 O   0  0  0  0  0  0  0  0  0  0  0  0
   27.6514   32.2099   19.9378 N   0  0  0  0  0  0  0  0  0  0  0  0
   27.5838   32.6510   21.2450 C   0  0  0  0  0  0  0  0  0  0  0  0
   27.5602   34.0153   21.5122 C   0  0  1  0  0  0  0  0  0  0  0  0
   27.5527   31.8356   22.1689 O   0  0  0  0  0  0  0  0  0  0  0  0
   27.4693   35.8196   23.0794 C   0  0  2  0  0  0  0  0  0  0  0  0
   27.4908   34.4632   22.8162 N   0  0  0  0  0  0  0  0  0  0  0  0
   27.3990   36.2709   24.3979 C   0  0  0  0  0  0  0  0  0  0  0  0
   27.3716   37.6329   24.6735 C   0  0  1  0  0  0  0  0  0  0  0  0
   27.2924   38.0800   26.0989 C   0  0  0  0  0  0  0  0  0  0  0  0
   27.4201   38.5582   23.6199 C   0  0  1  0  0  0  0  0  0  0  0  0
   27.4018   40.0403   23.8756 C   0  0  0  0  0  0  0  0  0  0  0  0
   27.4885   38.1048   22.3052 C   0  0  0  0  0  0  0  0  0  0  0  0
   27.5118   36.7369   22.0269 C   0  0  1  0  0  0  0  0  0  0  0  0
   27.6076   34.9264   20.4590 C   0  0  1  0  0  0  0  0  0  0  0  0
   27.5776   36.2833   20.7180 N   0  0  0  0  0  0  0  0  0  0  0  0
  1  2  1  1  0  0  0
  1  3  1  0  0  0  0
  1  4  2  0  0  0  0
  1  6  1  0  0  0  0
  5  6  1  0  0  0  0
  7  5  1  1  0  0  0
  7  8  1  0  0  0  0
  7  9  1  0  0  0  0
  9 10  1  6  0  0  0
  9 11  1  0  0  0  0
 11 12  1  1  0  0  0
 11 13  1  0  0  0  0
 13 31  1  0  0  0  0
 14 15  1  0  0  0  0
 15 16  2  0  0  0  0
 15 17  1  0  0  0  0
 17 18  1  0  0  0  0
 18 20  2  0  0  0  0
 19 18  1  1  0  0  0
 19 22  1  0  0  0  0
 19 30  1  0  0  0  0
 21 23  1  6  0  0  0
 21 29  1  0  0  0  0
 21 22  1  0  0  0  0
 23 24  1  0  0  0  0
 24 25  1  1  0  0  0
 24 26  1  0  0  0  0
 26 27  1  1  0  0  0
 26 28  1  0  0  0  0
 29 28  1  1  0  0  0
 29 31  1  0  0  0  0
 30 14  1  1  0  0  0
 30 31  1  0  0  0  0
M  CHG  1   3  -1
M  END
>  <CHROM.1>
88.72454325,53.71288065,150.32315608,159.77767847,60.62405440,161.97530555
97.82840932,28.32349128,37.37726387,19.93134615,0.50454222,1.31433342,0.39712299

>  <Name>
ligand

>  <RI>
0

>  <Rbt.Current_Directory>
/home/itssahil/PROJECTS/Mol_Feturizer/New_Systems/rnas/3F2T

>  <Rbt.Executable>
rbdock ($Id: //depot/dev/client3/rdock/2013.1/src/exe/rbdock.cxx#4 $)

>  <Rbt.Library>
libRbt.so (2013.1, Build901 2013/11/27)

>  <Rbt.Parameter_File>
/export/apps/rDock/src/rDock_2013.1_src/data/scripts/dock_solv.prm

>  <Rbt.Receptor>
prm/pocket_docking_7.prm

>  <SCORE>
-26.0533

>  <SCORE.INTER>
-29.9394

>  <SCORE.INTER.CONST>
1

>  <SCORE.INTER.POLAR>
0

>  <SCORE.INTER.ROT>
7

>  <SCORE.INTER.SOLV>
16.8825

>  <SCORE.INTER.VDW>
-33.8538

>  <SCORE.INTER.norm>
-0.965786

>  <SCORE.INTRA>
3.88604

>  <SCORE.INTRA.DIHEDRAL>
5.19376

>  <SCORE.INTRA.DIHEDRAL.0>
4.64198

>  <SCORE.INTRA.POLAR>
0

>  <SCORE.INTRA.POLAR.0>
0

>  <SCORE.INTRA.REPUL>
0

>  <SCORE.INTRA.REPUL.0>
0

>  <SCORE.INTRA.SOLV>
3.16977

>  <SCORE.INTRA.SOLV.lig_0>
-49.3611

>  <SCORE.INTRA.VDW>
-0.295724

>  <SCORE.INTRA.VDW.0>
-1.91858

>  <SCORE.INTRA.norm>
0.125356

>  <SCORE.RESTR>
0

>  <SCORE.RESTR.CAVITY>
0

>  <SCORE.RESTR.norm>
0

>  <SCORE.SYSTEM>
0

>  <SCORE.SYSTEM.CONST>
0

>  <SCORE.SYSTEM.DIHEDRAL>
0

>  <SCORE.SYSTEM.SOLV>
0

>  <SCORE.SYSTEM.norm>
0

>  <SCORE.heavy>
31

>  <SCORE.norm>
-0.84043

>  <RMSD>
2.185

$$$$
ligand
 OpenBabel11021811473D
libRbt.so/2013.1/901 2013/11/27
 31 33  0  0  0  0  0  0  0  0999 V2000
   25.9929   44.4005   16.3155 P   0  0  1  0  0  0  0  0  0  0  0  0
   27.2071   44.1723   15.4512 O   0  0  0  0  0  0  0  0  0  0  0  0
   26.1056   45.7582   16.9565 O   0  5  0  0  0  0  0  0  0  0  0  0
   24.7965   44.2972   15.4100 O   0  0  0  0  0  0  0  0  0  0  0  0
   26.9771   42.8728   18.2044 C   0  0  0  0  0  0  0  0  0  0  0  0
   25.8430   43.3115   17.4859 O   0  0  0  0  0  0  0  0  0  0  0  0
   26.5573   41.7864   19.1911 C   0  0  1  0  0  0  0  0  0  0  0  0
   25.6973   40.8655   18.5499 O   0  0  0  0  0  0  0  0  0  0  0  0
   27.7822   41.0464   19.7016 C   0  0  1  0  0  0  0  0  0  0  0  0
   28.5040   41.9084   20.5402 O   0  0  0  0  0  0  0  0  0  0  0  0
   27.4251   39.7902   20.4782 C   0  0  1  0  0  0  0  0  0  0  0  0
   26.8393   38.8762   19.5909 O   0  0  0  0  0  0  0  0  0  0  0  0
   28.6640   39.1635   21.0963 C   0  0  0  0  0  0  0  0  0  0  0  0
   28.4632   36.4880   20.2470 N   0  0  0  0  0  0  0  0  0  0  0  0
   28.3226   35.2034   19.7687 C   0  0  0  0  0  0  0  0  0  0  0  0
   28.6091   34.9454   18.6033 O   0  0  0  0  0  0  0  0  0  0  0  0
   27.8590   34.2003   20.5890 N   0  0  0  0  0  0  0  0  0  0  0  0
   27.5407   34.4708   21.9056 C   0  0  0  0  0  0  0  0  0  0  0  0
   27.6785   35.7642   22.3969 C   0  0  1  0  0  0  0  0  0  0  0  0
   27.1437   33.5649   22.6414 O   0  0  0  0  0  0  0  0  0  0  0  0
   27.5000   37.3278   24.1977 C   0  0  2  0  0  0  0  0  0  0  0  0
   27.3604   36.0420   23.7112 N   0  0  0  0  0  0  0  0  0  0  0  0
   27.1780   37.6072   25.5263 C   0  0  0  0  0  0  0  0  0  0  0  0
   27.3098   38.8981   26.0244 C   0  0  1  0  0  0  0  0  0  0  0  0
   26.9518   39.1612   27.4529 C   0  0  0  0  0  0  0  0  0  0  0  0
   27.7741   39.9240   25.1874 C   0  0  1  0  0  0  0  0  0  0  0  0
   27.9396   41.3321   25.6896 C   0  0  0  0  0  0  0  0  0  0  0  0
   28.0930   39.6424   23.8616 C   0  0  0  0  0  0  0  0  0  0  0  0
   27.9571   38.3471   23.3590 C   0  0  1  0  0  0  0  0  0  0  0  0
   28.1393   36.7764   21.5574 C   0  0  1  0  0  0  0  0  0  0  0  0
   28.2720   38.0651   22.0382 N   0  0  0  0  0  0  0  0  0  0  0  0
  1  2  1  6  0  0  0
  1  3  1  0  0  0  0
  1  4  2  0  0  0  0
  1  6  1  0  0  0  0
  5  6  1  0  0  0  0
  7  5  1  6  0  0  0
  7  8  1  0  0  0  0
  7  9  1  0  0  0  0
  9 10  1  1  0  0  0
  9 11  1  0  0  0  0
 11 12  1  6  0  0  0
 11 13  1  0  0  0  0
 13 31  1  0  0  0  0
 14 15  1  0  0  0  0
 15 16  2  0  0  0  0
 15 17  1  0  0  0  0
 17 18  1  0  0  0  0
 18 20  2  0  0  0  0
 19 18  1  1  0  0  0
 19 22  1  0  0  0  0
 19 30  1  0  0  0  0
 21 23  1  6  0  0  0
 21 29  1  0  0  0  0
 21 22  1  0  0  0  0
 23 24  1  0  0  0  0
 24 25  1  1  0  0  0
 24 26  1  0  0  0  0
 26 27  1  1  0  0  0
 26 28  1  0  0  0  0
 29 28  1  1  0  0  0
 29 31  1  0  0  0  0
 30 14  1  1  0  0  0
 30 31  1  0  0  0  0
M  CHG  1   3  -1
M  END
>  <CHROM.1>
-176.69474376,40.93558032,45.04678982,70.28606091,66.26701176,170.69108710
-85.95984322,27.27772098,39.56256689,20.72982067,-2.83702458,-1.41138376
1.14656957

>  <Name>
ligand

>  <RI>
0

>  <Rbt.Current_Directory>
/home/itssahil/PROJECTS/Mol_Feturizer/New_Systems/rnas/3F2T

>  <Rbt.Executable>
rbdock ($Id: //depot/dev/client3/rdock/2013.1/src/exe/rbdock.cxx#4 $)

>  <Rbt.Library>
libRbt.so (2013.1, Build901 2013/11/27)

>  <Rbt.Parameter_File>
/export/apps/rDock/src/rDock_2013.1_src/data/scripts/dock_solv.prm

>  <Rbt.Receptor>
prm/blind_docking_100.prm

>  <SCORE>
-29.4579

>  <SCORE.INTER>
-29.0912

>  <SCORE.INTER.CONST>
1

>  <SCORE.INTER.POLAR>
0

>  <SCORE.INTER.ROT>
7

>  <SCORE.INTER.SOLV>
20.0075

>  <SCORE.INTER.VDW>
-34.33

>  <SCORE.INTER.norm>
-0.938427

>  <SCORE.INTRA>
-0.372227

>  <SCORE.INTRA.DIHEDRAL>
-1.3329

>  <SCORE.INTRA.DIHEDRAL.0>
4.64198

>  <SCORE.INTRA.POLAR>
0

>  <SCORE.INTRA.POLAR.0>
0

>  <SCORE.INTRA.REPUL>
0

>  <SCORE.INTRA.REPUL.0>
0

>  <SCORE.INTRA.SOLV>
-0.563305

>  <SCORE.INTRA.SOLV.lig_0>
-49.3611

>  <SCORE.INTRA.VDW>
0.575874

>  <SCORE.INTRA.VDW.0>
-1.91858

>  <SCORE.INTRA.norm>
-0.0120073

>  <SCORE.RESTR>
0.00555244

>  <SCORE.RESTR.CAVITY>
0.00555244

>  <SCORE.RESTR.norm>
0.000179111

>  <SCORE.SYSTEM>
0

>  <SCORE.SYSTEM.CONST>
0

>  <SCORE.SYSTEM.DIHEDRAL>
0

>  <SCORE.SYSTEM.SOLV>
0

>  <SCORE.SYSTEM.norm>
0

>  <SCORE.heavy>
31

>  <SCORE.norm>
-0.950255

>  <RMSD>
2.256

$$$$
ligand
 OpenBabel11021811473D
libRbt.so/2013.1/901 2013/11/27
 31 33  0  0  0  0  0  0  0  0999 V2000
   28.1316   41.7031   20.7802 P   0  0  1  0  0  0  0  0  0  0  0  0
   26.7343   41.1658   20.9597 O   0  0  0  0  0  0  0  0  0  0  0  0
   28.1017   43.1967   20.9680 O   0  5  0  0  0  0  0  0  0  0  0  0
   28.9896   41.0183   21.8083 O   0  0  0  0  0  0  0  0  0  0  0  0
   28.6454   40.1048   18.7673 C   0  0  0  0  0  0  0  0  0  0  0  0
   28.7379   41.3992   19.3248 O   0  0  0  0  0  0  0  0  0  0  0  0
   27.2245   39.8776   18.2579 C   0  0  1  0  0  0  0  0  0  0  0  0
   26.9646   40.7396   17.1678 O   0  0  0  0  0  0  0  0  0  0  0  0
   27.0604   38.4380   17.8002 C   0  0  1  0  0  0  0  0  0  0  0  0
   28.2226   38.0551   17.1147 O   0  0  0  0  0  0  0  0  0  0  0  0
   26.8333   37.4790   18.9567 C   0  0  1  0  0  0  0  0  0  0  0  0
   26.3470   36.2709   18.4371 O   0  0  0  0  0  0  0  0  0  0  0  0
   28.1290   37.2158   19.7059 C   0  0  0  0  0  0  0  0  0  0  0  0
   28.2242   34.4377   19.2668 N   0  0  0  0  0  0  0  0  0  0  0  0
   28.2243   33.0882   18.9882 C   0  0  0  0  0  0  0  0  0  0  0  0
   28.5090   32.6919   17.8618 O   0  0  0  0  0  0  0  0  0  0  0  0
   27.9041   32.1739   19.9657 N   0  0  0  0  0  0  0  0  0  0  0  0
   27.5902   32.6015   21.2410 C   0  0  0  0  0  0  0  0  0  0  0  0
   27.5868   33.9613   21.5314 C   0  0  1  0  0  0  0  0  0  0  0  0
   27.3224   31.7776   22.1179 O   0  0  0  0  0  0  0  0  0  0  0  0
   27.2712   35.7475   23.0900 C   0  0  2  0  0  0  0  0  0  0  0  0
   27.2722   34.3957   22.8034 N   0  0  0  0  0  0  0  0  0  0  0  0
   26.9529   36.1853   24.3761 C   0  0  0  0  0  0  0  0  0  0  0  0
   26.9440   37.5429   24.6738 C   0  0  1  0  0  0  0  0  0  0  0  0
   26.5944   37.9756   26.0625 C   0  0  0  0  0  0  0  0  0  0  0  0
   27.2617   38.4772   23.6763 C   0  0  1  0  0  0  0  0  0  0  0  0
   27.2724   39.9544   23.9595 C   0  0  0  0  0  0  0  0  0  0  0  0
   27.5773   38.0373   22.3935 C   0  0  0  0  0  0  0  0  0  0  0  0
   27.5825   36.6742   22.0922 C   0  0  1  0  0  0  0  0  0  0  0  0
   27.9026   34.8813   20.5337 C   0  0  1  0  0  0  0  0  0  0  0  0
   27.8943   36.2343   20.8146 N   0  0  0  0  0  0  0  0  0  0  0  0
  1  2  1  1  0  0  0
  1  3  1  0  0  0  0
  1  4  2  0  0  0  0
  1  6  1  0  0  0  0
  5  6  1  0  0  0  0
  7  5  1  6  0  0  0
  7  8  1  0  0  0  0
  7  9  1  0  0  0  0
  9 10  1  1  0  0  0
  9 11  1  0  0  0  0
 11 12  1  6  0  0  0
 11 13  1  0  0  0  0
 13 31  1  0  0  0  0
 14 15  1  0  0  0  0
 15 16  2  0  0  0  0
 15 17  1  0  0  0  0
 17 18  1  0  0  0  0
 18 20  2  0  0  0  0
 19 18  1  1  0  0  0
 19 22  1  0  0  0  0
 19 30  1  0  0  0  0
 21 23  1  6  0  0  0
 21 29  1  0  0  0  0
 21 22  1  0  0  0  0
 23 24  1  0  0  0  0
 24 25  1  1  0  0  0
 24 26  1  0  0  0  0
 26 27  1  1  0  0  0
 26 28  1  0  0  0  0
 29 28  1  1  0  0  0
 29 31  1  0  0  0  0
 30 14  1  1  0  0  0
 30 31  1  0  0  0  0
M  CHG  1   3  -1
M  END
>  <CHROM.1>
76.68590651,-47.33067248,66.56115302,-40.69996491,164.53595019,-178.17243935
-92.29458076,27.64532438,37.49594323,20.74063379,1.32506471,1.47286800,0.20059898

>  <Name>
ligand

>  <RI>
0

>  <Rbt.Current_Directory>
/home/itssahil/PROJECTS/Mol_Feturizer/New_Systems/rnas/3F2T

>  <Rbt.Executable>
rbdock ($Id: //depot/dev/client3/rdock/2013.1/src/exe/rbdock.cxx#4 $)

>  <Rbt.Library>
libRbt.so (2013.1, Build901 2013/11/27)

>  <Rbt.Parameter_File>
/export/apps/rDock/src/rDock_2013.1_src/data/scripts/dock_solv.prm

>  <Rbt.Receptor>
prm/pocket_docking_6.prm

>  <SCORE>
-28.9733

>  <SCORE.INTER>
-31.0134

>  <SCORE.INTER.CONST>
1

>  <SCORE.INTER.POLAR>
0

>  <SCORE.INTER.ROT>
7

>  <SCORE.INTER.SOLV>
17.5805

>  <SCORE.INTER.VDW>
-34.8024

>  <SCORE.INTER.norm>
-1.00043

>  <SCORE.INTRA>
2.04007

>  <SCORE.INTRA.DIHEDRAL>
0.215487

>  <SCORE.INTRA.DIHEDRAL.0>
4.64198

>  <SCORE.INTRA.POLAR>
0

>  <SCORE.INTRA.POLAR.0>
0

>  <SCORE.INTRA.REPUL>
0

>  <SCORE.INTRA.REPUL.0>
0

>  <SCORE.INTRA.SOLV>
2.24595

>  <SCORE.INTRA.SOLV.lig_0>
-49.3611

>  <SCORE.INTRA.VDW>
0.809347

>  <SCORE.INTRA.VDW.0>
-1.91858

>  <SCORE.INTRA.norm>
0.0658086

>  <SCORE.RESTR>
0

>  <SCORE.RESTR.CAVITY>
0

>  <SCORE.RESTR.norm>
0

>  <SCORE.SYSTEM>
0

>  <SCORE.SYSTEM.CONST>
0

>  <SCORE.SYSTEM.DIHEDRAL>
0

>  <SCORE.SYSTEM.SOLV>
0

>  <SCORE.SYSTEM.norm>
0

>  <SCORE.heavy>
31

>  <SCORE.norm>
-0.934622

>  <RMSD>
2.256

$$$$
ligand
 OpenBabel11021811473D
libRbt.so/2013.1/901 2013/11/27
 31 33  0  0  0  0  0  0  0  0999 V2000
   28.1016   42.2402   16.3932 P   0  0  1  0  0  0  0  0  0  0  0  0
   27.1775   42.9020   15.4025 O   0  0  0  0  0  0  0  0  0  0  0  0
   27.8065   40.7640   16.4163 O   0  5  0  0  0  0  0  0  0  0  0  0
   29.5034   42.5323   15.9333 O   0  0  0  0  0  0  0  0  0  0  0  0
   26.6626   42.7789   18.5168 C   0  0  0  0  0  0  0  0  0  0  0  0
   27.9264   42.8034   17.8867 O   0  0  0  0  0  0  0  0  0  0  0  0
   26.4149   41.3867   19.0918 C   0  0  1  0  0  0  0  0  0  0  0  0
   26.0660   40.4956   18.0511 O   0  0  0  0  0  0  0  0  0  0  0  0
   27.6705   40.8772   19.7792 C   0  0  1  0  0  0  0  0  0  0  0  0
   27.9172   41.6787   20.9035 O   0  0  0  0  0  0  0  0  0  0  0  0
   27.5468   39.4299   20.2249 C   0  0  1  0  0  0  0  0  0  0  0  0
   27.5749   38.6146   19.0845 O   0  0  0  0  0  0  0  0  0  0  0  0
   28.6946   39.0449   21.1435 C   0  0  0  0  0  0  0  0  0  0  0  0
   28.4499   36.3811   20.2694 N   0  0  0  0  0  0  0  0  0  0  0  0
   28.2893   35.1036   19.7786 C   0  0  0  0  0  0  0  0  0  0  0  0
   28.5856   34.8491   18.6148 O   0  0  0  0  0  0  0  0  0  0  0  0
   27.7945   34.1037   20.5844 N   0  0  0  0  0  0  0  0  0  0  0  0
   27.4646   34.3700   21.8990 C   0  0  0  0  0  0  0  0  0  0  0  0
   27.6226   35.6563   22.4029 C   0  0  1  0  0  0  0  0  0  0  0  0
   27.0395   33.4666   22.6220 O   0  0  0  0  0  0  0  0  0  0  0  0
   27.4527   37.2086   24.2142 C   0  0  2  0  0  0  0  0  0  0  0  0
   27.2931   35.9299   23.7152 N   0  0  0  0  0  0  0  0  0  0  0  0
   27.1192   37.4838   25.5408 C   0  0  0  0  0  0  0  0  0  0  0  0
   27.2711   38.7676   26.0514 C   0  0  1  0  0  0  0  0  0  0  0  0
   26.8999   39.0265   27.4773 C   0  0  0  0  0  0  0  0  0  0  0  0
   27.7672   39.7905   25.2290 C   0  0  1  0  0  0  0  0  0  0  0  0
   27.9551   41.1907   25.7451 C   0  0  0  0  0  0  0  0  0  0  0  0
   28.0976   39.5131   23.9051 C   0  0  0  0  0  0  0  0  0  0  0  0
   27.9416   38.2250   23.3900 C   0  0  1  0  0  0  0  0  0  0  0  0
   28.1150   36.6655   21.5779 C   0  0  1  0  0  0  0  0  0  0  0  0
   28.2679   37.9472   22.0711 N   0  0  0  0  0  0  0  0  0  0  0  0
  1  2  1  6  0  0  0
  1  3  1  0  0  0  0
  1  4  2  0  0  0  0
  1  6  1  0  0  0  0
  5  6  1  0  0  0  0
  7  5  1  6  0  0  0
  7  8  1  0  0  0  0
  7  9  1  0  0  0  0
  9 10  1  1  0  0  0
  9 11  1  0  0  0  0
 11 12  1  6  0  0  0
 11 13  1  0  0  0  0
 13 31  1  0  0  0  0
 14 15  1  0  0  0  0
 15 16  2  0  0  0  0
 15 17  1  0  0  0  0
 17 18  1  0  0  0  0
 18 20  2  0  0  0  0
 19 18  1  1  0  0  0
 19 22  1  0  0  0  0
 19 30  1  0  0  0  0
 21 23  1  6  0  0  0
 21 29  1  0  0  0  0
 21 22  1  0  0  0  0
 23 24  1  0  0  0  0
 24 25  1  1  0  0  0
 24 26  1  0  0  0  0
 26 27  1  1  0  0  0
 26 28  1  0  0  0  0
 29 28  1  1  0  0  0
 29 31  1  0  0  0  0
 30 14  1  1  0  0  0
 30 31  1  0  0  0  0
M  CHG  1   3  -1
M  END
>  <CHROM.1>
81.62785391,55.87872553,-76.47969458,66.45853639,71.56643352,152.68242839
-102.22721947,27.71128643,38.98293655,20.73709155,1.19669817,1.50165659,-0.55731590

>  <Name>
ligand

>  <RI>
0

>  <Rbt.Current_Directory>
/home/itssahil/PROJECTS/Mol_Feturizer/New_Systems/rnas/3F2T

>  <Rbt.Executable>
rbdock ($Id: //depot/dev/client3/rdock/2013.1/src/exe/rbdock.cxx#4 $)

>  <Rbt.Library>
libRbt.so (2013.1, Build901 2013/11/27)

>  <Rbt.Parameter_File>
/export/apps/rDock/src/rDock_2013.1_src/data/scripts/dock_solv.prm

>  <Rbt.Receptor>
prm/pocket_docking_3.prm

>  <SCORE>
-22.3607

>  <SCORE.INTER>
-26.8606

>  <SCORE.INTER.CONST>
1

>  <SCORE.INTER.POLAR>
0

>  <SCORE.INTER.ROT>
7

>  <SCORE.INTER.SOLV>
18.3634

>  <SCORE.INTER.VDW>
-32.2949

>  <SCORE.INTER.norm>
-0.866471

>  <SCORE.INTRA>
4.23599

>  <SCORE.INTRA.DIHEDRAL>
2.39129

>  <SCORE.INTRA.DIHEDRAL.0>
4.64198

>  <SCORE.INTRA.POLAR>
0

>  <SCORE.INTRA.POLAR.0>
0

>  <SCORE.INTRA.REPUL>
0

>  <SCORE.INTRA.REPUL.0>
0

>  <SCORE.INTRA.SOLV>
3.96143

>  <SCORE.INTRA.SOLV.lig_0>
-49.3611

>  <SCORE.INTRA.VDW>
1.05963

>  <SCORE.INTRA.VDW.0>
-1.91858

>  <SCORE.INTRA.norm>
0.136645

>  <SCORE.RESTR>
0.263945

>  <SCORE.RESTR.CAVITY>
0.263945

>  <SCORE.RESTR.norm>
0.00851434

>  <SCORE.SYSTEM>
0

>  <SCORE.SYSTEM.CONST>
0

>  <SCORE.SYSTEM.DIHEDRAL>
0

>  <SCORE.SYSTEM.SOLV>
0

>  <SCORE.SYSTEM.norm>
0

>  <SCORE.heavy>
31

>  <SCORE.norm>
-0.721311

>  <RMSD>
2.281

$$$$
ligand
 OpenBabel11021811473D
libRbt.so/2013.1/901 2013/11/27
 31 33  0  0  0  0  0  0  0  0999 V2000
   25.6634   43.9124   16.7130 P   0  0  1  0  0  0  0  0  0  0  0  0
   26.6967   44.9945   16.5275 O   0  0  0  0  0  0  0  0  0  0  0  0
   24.2997   44.5000   16.4640 O   0  5  0  0  0  0  0  0  0  0  0  0
   26.0011   42.8243   15.7311 O   0  0  0  0  0  0  0  0  0  0  0  0
   26.7344   42.4590   18.6132 C   0  0  0  0  0  0  0  0  0  0  0  0
   25.6701   43.2861   18.1915 O   0  0  0  0  0  0  0  0  0  0  0  0
   26.6744   42.2973   20.1299 C   0  0  1  0  0  0  0  0  0  0  0  0
   25.4616   41.6694   20.4955 O   0  0  0  0  0  0  0  0  0  0  0  0
   27.8370   41.4438   20.6081 C   0  0  1  0  0  0  0  0  0  0  0  0
   28.1719   41.8399   21.9112 O   0  0  0  0  0  0  0  0  0  0  0  0
   27.5095   39.9600   20.6142 C   0  0  1  0  0  0  0  0  0  0  0  0
   27.1489   39.5839   19.3125 O   0  0  0  0  0  0  0  0  0  0  0  0
   28.7105   39.1410   21.0571 C   0  0  0  0  0  0  0  0  0  0  0  0
   28.4770   36.4845   20.1579 N   0  0  0  0  0  0  0  0  0  0  0  0
   28.3226   35.2111   19.6546 C   0  0  0  0  0  0  0  0  0  0  0  0
   28.6326   34.9664   18.4923 O   0  0  0  0  0  0  0  0  0  0  0  0
   27.8186   34.2044   20.4461 N   0  0  0  0  0  0  0  0  0  0  0  0
   27.4732   34.4596   21.7589 C   0  0  0  0  0  0  0  0  0  0  0  0
   27.6249   35.7416   22.2753 C   0  0  1  0  0  0  0  0  0  0  0  0
   27.0399   33.5501   22.4693 O   0  0  0  0  0  0  0  0  0  0  0  0
   27.4332   37.2787   24.0975 C   0  0  2  0  0  0  0  0  0  0  0  0
   27.2798   36.0042   23.5860 N   0  0  0  0  0  0  0  0  0  0  0  0
   27.0840   37.5427   25.4224 C   0  0  0  0  0  0  0  0  0  0  0  0
   27.2294   38.8223   25.9454 C   0  0  1  0  0  0  0  0  0  0  0  0
   26.8413   39.0691   27.3689 C   0  0  0  0  0  0  0  0  0  0  0  0
   27.7348   39.8521   25.1375 C   0  0  1  0  0  0  0  0  0  0  0  0
   27.9161   41.2480   25.6674 C   0  0  0  0  0  0  0  0  0  0  0  0
   28.0809   39.5858   23.8154 C   0  0  0  0  0  0  0  0  0  0  0  0
   27.9313   38.3020   23.2877 C   0  0  1  0  0  0  0  0  0  0  0  0
   28.1267   36.7578   21.4647 C   0  0  1  0  0  0  0  0  0  0  0  0
   28.2733   38.0354   21.9704 N   0  0  0  0  0  0  0  0  0  0  0  0
  1  2  1  6  0  0  0
  1  3  1  0  0  0  0
  1  4  2  0  0  0  0
  1  6  1  0  0  0  0
  5  6  1  0  0  0  0
  7  5  1  6  0  0  0
  7  8  1  0  0  0  0
  7  9  1  0  0  0  0
  9 10  1  1  0  0  0
  9 11  1  0  0  0  0
 11 12  1  6  0  0  0
 11 13  1  0  0  0  0
 13 31  1  0  0  0  0
 14 15  1  0  0  0  0
 15 16  2  0  0  0  0
 15 17  1  0  0  0  0
 17 18  1  0  0  0  0
 18 20  2  0  0  0  0
 19 18  1  1  0  0  0
 19 22  1  0  0  0  0
 19 30  1  0  0  0  0
 21 23  1  6  0  0  0
 21 29  1  0  0  0  0
 21 22  1  0  0  0  0
 23 24  1  0  0  0  0
 24 25  1  1  0  0  0
 24 26  1  0  0  0  0
 26 27  1  1  0  0  0
 26 28  1  0  0  0  0
 29 28  1  1  0  0  0
 29 31  1  0  0  0  0
 30 14  1  1  0  0  0
 30 31  1  0  0  0  0
M  CHG  1   3  -1
M  END
>  <CHROM.1>
165.80885600,-71.10239381,61.78043910,150.47119878,58.42343800,139.05991042
-75.89883892,27.17843460,39.51026607,20.94056529,-2.83737409,-1.37322705
1.18322631

>  <Name>
ligand

>  <RI>
0

>  <Rbt.Current_Directory>
/home/itssahil/PROJECTS/Mol_Feturizer/New_Systems/rnas/3F2T

>  <Rbt.Executable>
rbdock ($Id: //depot/dev/client3/rdock/2013.1/src/exe/rbdock.cxx#4 $)

>  <Rbt.Library>
libRbt.so (2013.1, Build901 2013/11/27)

>  <Rbt.Parameter_File>
/export/apps/rDock/src/rDock_2013.1_src/data/scripts/dock_solv.prm

>  <Rbt.Receptor>
prm/pocket_docking_7.prm

>  <SCORE>
-27.2562

>  <SCORE.INTER>
-29.3916

>  <SCORE.INTER.CONST>
1

>  <SCORE.INTER.POLAR>
0

>  <SCORE.INTER.ROT>
7

>  <SCORE.INTER.SOLV>
16.5502

>  <SCORE.INTER.VDW>
-33.3778

>  <SCORE.INTER.norm>
-0.948115

>  <SCORE.INTRA>
2.13532

>  <SCORE.INTRA.DIHEDRAL>
4.34593

>  <SCORE.INTRA.DIHEDRAL.0>
4.64198

>  <SCORE.INTRA.POLAR>
0

>  <SCORE.INTRA.POLAR.0>
0

>  <SCORE.INTRA.REPUL>
0

>  <SCORE.INTRA.REPUL.0>
0

>  <SCORE.INTRA.SOLV>
-0.230247

>  <SCORE.INTRA.SOLV.lig_0>
-49.3611

>  <SCORE.INTRA.VDW>
0.0774801

>  <SCORE.INTRA.VDW.0>
-1.91858

>  <SCORE.INTRA.norm>
0.0688813

>  <SCORE.RESTR>
0

>  <SCORE.RESTR.CAVITY>
0

>  <SCORE.RESTR.norm>
0

>  <SCORE.SYSTEM>
0

>  <SCORE.SYSTEM.CONST>
0

>  <SCORE.SYSTEM.DIHEDRAL>
0

>  <SCORE.SYSTEM.SOLV>
0

>  <SCORE.SYSTEM.norm>
0

>  <SCORE.heavy>
31

>  <SCORE.norm>
-0.879234

>  <RMSD>
2.311

$$$$
ligand
 OpenBabel11021811473D
libRbt.so/2013.1/901 2013/11/27
 31 33  0  0  0  0  0  0  0  0999 V2000
   25.7583   42.9856   16.8101 P   0  0  1  0  0  0  0  0  0  0  0  0
   25.1217   42.4959   18.0861 O   0  0  0  0  0  0  0  0  0  0  0  0
   24.6769   43.2090   15.7866 O   0  5  0  0  0  0  0  0  0  0  0  0
   26.4862   44.2560   17.1541 O   0  0  0  0  0  0  0  0  0  0  0  0
   27.9919   41.6171   16.9029 C   0  0  0  0  0  0  0  0  0  0  0  0
   26.8135   41.9428   16.1957 O   0  0  0  0  0  0  0  0  0  0  0  0
   27.6463   40.6612   18.0417 C   0  0  1  0  0  0  0  0  0  0  0  0
   27.4276   39.3632   17.5258 O   0  0  0  0  0  0  0  0  0  0  0  0
   28.7889   40.6099   19.0421 C   0  0  1  0  0  0  0  0  0  0  0  0
   28.7376   41.7663   19.8340 O   0  0  0  0  0  0  0  0  0  0  0  0
   28.7198   39.3911   19.9467 C   0  0  1  0  0  0  0  0  0  0  0  0
   29.8588   39.3851   20.7644 O   0  0  0  0  0  0  0  0  0  0  0  0
   27.4770   39.4333   20.8203 C   0  0  0  0  0  0  0  0  0  0  0  0
   27.5034   36.7374   20.0132 N   0  0  0  0  0  0  0  0  0  0  0  0
   27.4567   35.4342   19.5682 C   0  0  0  0  0  0  0  0  0  0  0  0
   27.4869   35.1928   18.3650 O   0  0  0  0  0  0  0  0  0  0  0  0
   27.3734   34.3933   20.4647 N   0  0  0  0  0  0  0  0  0  0  0  0
   27.3476   34.6461   21.8224 C   0  0  0  0  0  0  0  0  0  0  0  0
   27.3935   35.9580   22.2808 C   0  0  1  0  0  0  0  0  0  0  0  0
   27.2919   33.7094   22.6218 O   0  0  0  0  0  0  0  0  0  0  0  0
   27.4139   37.5224   24.0896 C   0  0  2  0  0  0  0  0  0  0  0  0
   27.3662   36.2179   23.6363 N   0  0  0  0  0  0  0  0  0  0  0  0
   27.3860   37.7838   25.4599 C   0  0  0  0  0  0  0  0  0  0  0  0
   27.4283   39.0924   25.9264 C   0  0  1  0  0  0  0  0  0  0  0  0
   27.3930   39.3347   27.4022 C   0  0  0  0  0  0  0  0  0  0  0  0
   27.5044   40.1554   25.0138 C   0  0  1  0  0  0  0  0  0  0  0  0
   27.5613   41.5851   25.4774 C   0  0  0  0  0  0  0  0  0  0  0  0
   27.5304   39.8915   23.6469 C   0  0  0  0  0  0  0  0  0  0  0  0
   27.4838   38.5777   23.1770 C   0  0  1  0  0  0  0  0  0  0  0  0
   27.4680   37.0069   21.3665 C   0  0  1  0  0  0  0  0  0  0  0  0
   27.5072   38.3129   21.8160 N   0  0  0  0  0  0  0  0  0  0  0  0
  1  2  1  1  0  0  0
  1  3  1  0  0  0  0
  1  4  2  0  0  0  0
  1  6  1  0  0  0  0
  5  6  1  0  0  0  0
  7  5  1  6  0  0  0
  7  8  1  0  0  0  0
  7  9  1  0  0  0  0
  9 10  1  1  0  0  0
  9 11  1  0  0  0  0
 11 12  1  1  0  0  0
 11 13  1  0  0  0  0
 13 31  1  0  0  0  0
 14 15  1  0  0  0  0
 15 16  2  0  0  0  0
 15 17  1  0  0  0  0
 17 18  1  0  0  0  0
 18 20  2  0  0  0  0
 19 18  1  1  0  0  0
 19 22  1  0  0  0  0
 19 30  1  0  0  0  0
 21 23  1  6  0  0  0
 21 29  1  0  0  0  0
 21 22  1  0  0  0  0
 23 24  1  0  0  0  0
 24 25  1  1  0  0  0
 24 26  1  0  0  0  0
 26 27  1  1  0  0  0
 26 28  1  0  0  0  0
 29 28  1  1  0  0  0
 29 31  1  0  0  0  0
 30 14  1  1  0  0  0
 30 31  1  0  0  0  0
M  CHG  1   3  -1
M  END
>  <CHROM.1>
76.19597138,-64.31017133,76.25733589,77.36496792,175.94378578,-173.33503506
120.31991373,27.31790967,39.24716633,20.61838654,2.97621009,1.44487055,-2.30150784

>  <Name>
ligand

>  <RI>
0

>  <Rbt.Current_Directory>
/home/itssahil/PROJECTS/Mol_Feturizer/New_Systems/rnas/3F2T

>  <Rbt.Executable>
rbdock ($Id: //depot/dev/client3/rdock/2013.1/src/exe/rbdock.cxx#4 $)

>  <Rbt.Library>
libRbt.so (2013.1, Build901 2013/11/27)

>  <Rbt.Parameter_File>
/export/apps/rDock/src/rDock_2013.1_src/data/scripts/dock_solv.prm

>  <Rbt.Receptor>
prm/pocket_docking_7.prm

>  <SCORE>
-24.4152

>  <SCORE.INTER>
-24.8562

>  <SCORE.INTER.CONST>
1

>  <SCORE.INTER.POLAR>
0

>  <SCORE.INTER.ROT>
7

>  <SCORE.INTER.SOLV>
17.0134

>  <SCORE.INTER.VDW>
-30.5086

>  <SCORE.INTER.norm>
-0.801813

>  <SCORE.INTRA>
0.440423

>  <SCORE.INTRA.DIHEDRAL>
-0.00288332

>  <SCORE.INTRA.DIHEDRAL.0>
4.64198

>  <SCORE.INTRA.POLAR>
0

>  <SCORE.INTRA.POLAR.0>
0

>  <SCORE.INTRA.REPUL>
0

>  <SCORE.INTRA.REPUL.0>
0

>  <SCORE.INTRA.SOLV>
0.391302

>  <SCORE.INTRA.SOLV.lig_0>
-49.3611

>  <SCORE.INTRA.VDW>
0.246213

>  <SCORE.INTRA.VDW.0>
-1.91858

>  <SCORE.INTRA.norm>
0.0142072

>  <SCORE.RESTR>
0.000584887

>  <SCORE.RESTR.CAVITY>
0.000584887

>  <SCORE.RESTR.norm>
1.88673e-05

>  <SCORE.SYSTEM>
0

>  <SCORE.SYSTEM.CONST>
0

>  <SCORE.SYSTEM.DIHEDRAL>
0

>  <SCORE.SYSTEM.SOLV>
0

>  <SCORE.SYSTEM.norm>
0

>  <SCORE.heavy>
31

>  <SCORE.norm>
-0.787587

>  <RMSD>
2.348

$$$$
ligand
 OpenBabel11021811473D
libRbt.so/2013.1/901 2013/11/27
 31 33  0  0  0  0  0  0  0  0999 V2000
   25.7412   42.9838   16.8000 P   0  0  1  0  0  0  0  0  0  0  0  0
   26.3365   44.2933   17.2520 O   0  0  0  0  0  0  0  0  0  0  0  0
   25.0863   42.3186   17.9814 O   0  5  0  0  0  0  0  0  0  0  0  0
   24.7539   43.3137   15.7144 O   0  0  0  0  0  0  0  0  0  0  0  0
   28.0044   41.6687   16.9372 C   0  0  0  0  0  0  0  0  0  0  0  0
   26.8350   41.9703   16.2047 O   0  0  0  0  0  0  0  0  0  0  0  0
   27.6641   40.6653   18.0361 C   0  0  1  0  0  0  0  0  0  0  0  0
   27.4931   39.3800   17.4728 O   0  0  0  0  0  0  0  0  0  0  0  0
   28.7876   40.6123   19.0577 C   0  0  1  0  0  0  0  0  0  0  0  0
   28.7075   41.7563   19.8652 O   0  0  0  0  0  0  0  0  0  0  0  0
   28.7152   39.3796   19.9430 C   0  0  1  0  0  0  0  0  0  0  0  0
   29.8511   39.3610   20.7648 O   0  0  0  0  0  0  0  0  0  0  0  0
   27.4691   39.4082   20.8125 C   0  0  0  0  0  0  0  0  0  0  0  0
   27.5352   36.7104   20.0141 N   0  0  0  0  0  0  0  0  0  0  0  0
   27.5078   35.4053   19.5730 C   0  0  0  0  0  0  0  0  0  0  0  0
   27.5458   35.1606   18.3706 O   0  0  0  0  0  0  0  0  0  0  0  0
   27.4353   34.3662   20.4724 N   0  0  0  0  0  0  0  0  0  0  0  0
   27.4010   34.6228   21.8292 C   0  0  0  0  0  0  0  0  0  0  0  0
   27.4275   35.9366   22.2837 C   0  0  1  0  0  0  0  0  0  0  0  0
   27.3552   33.6880   22.6314 O   0  0  0  0  0  0  0  0  0  0  0  0
   27.4199   37.5068   24.0875 C   0  0  2  0  0  0  0  0  0  0  0  0
   27.3916   36.2004   23.6383 N   0  0  0  0  0  0  0  0  0  0  0  0
   27.3834   37.7720   25.4569 C   0  0  0  0  0  0  0  0  0  0  0  0
   27.4061   39.0825   25.9194 C   0  0  1  0  0  0  0  0  0  0  0  0
   27.3621   39.3289   27.3943 C   0  0  0  0  0  0  0  0  0  0  0  0
   27.4712   40.1437   25.0037 C   0  0  1  0  0  0  0  0  0  0  0  0
   27.5069   41.5755   25.4630 C   0  0  0  0  0  0  0  0  0  0  0  0
   27.5058   39.8759   23.6378 C   0  0  0  0  0  0  0  0  0  0  0  0
   27.4788   38.5601   23.1719 C   0  0  1  0  0  0  0  0  0  0  0  0
   27.4911   36.9836   21.3664 C   0  0  1  0  0  0  0  0  0  0  0  0
   27.5108   38.2914   21.8118 N   0  0  0  0  0  0  0  0  0  0  0  0
  1  2  1  1  0  0  0
  1  3  1  0  0  0  0
  1  4  2  0  0  0  0
  1  6  1  0  0  0  0
  5  6  1  0  0  0  0
  7  5  1  6  0  0  0
  7  8  1  0  0  0  0
  7  9  1  0  0  0  0
  9 10  1  1  0  0  0
  9 11  1  0  0  0  0
 11 12  1  1  0  0  0
 11 13  1  0  0  0  0
 13 31  1  0  0  0  0
 14 15  1  0  0  0  0
 15 16  2  0  0  0  0
 15 17  1  0  0  0  0
 17 18  1  0  0  0  0
 18 20  2  0  0  0  0
 19 18  1  1  0  0  0
 19 22  1  0  0  0  0
 19 30  1  0  0  0  0
 21 23  1  6  0  0  0
 21 29  1  0  0  0  0
 21 22  1  0  0  0  0
 23 24  1  0  0  0  0
 24 25  1  1  0  0  0
 24 26  1  0  0  0  0
 26 27  1  1  0  0  0
 26 28  1  0  0  0  0
 29 28  1  1  0  0  0
 29 31  1  0  0  0  0
 30 14  1  1  0  0  0
 30 31  1  0  0  0  0
M  CHG  1   3  -1
M  END
>  <CHROM.1>
77.90644406,51.45597562,75.41937623,75.90229825,174.83231815,-172.02786762
120.35563900,27.32260449,39.23668617,20.61484898,2.87732406,1.43910706,-2.19624179

>  <Name>
ligand

>  <RI>
0

>  <Rbt.Current_Directory>
/home/itssahil/PROJECTS/Mol_Feturizer/New_Systems/rnas/3F2T

>  <Rbt.Executable>
rbdock ($Id: //depot/dev/client3/rdock/2013.1/src/exe/rbdock.cxx#4 $)

>  <Rbt.Library>
libRbt.so (2013.1, Build901 2013/11/27)

>  <Rbt.Parameter_File>
/export/apps/rDock/src/rDock_2013.1_src/data/scripts/dock_solv.prm

>  <Rbt.Receptor>
prm/pocket_docking_6.prm

>  <SCORE>
-24.332

>  <SCORE.INTER>
-25.2904

>  <SCORE.INTER.CONST>
1

>  <SCORE.INTER.POLAR>
0

>  <SCORE.INTER.ROT>
7

>  <SCORE.INTER.SOLV>
16.4253

>  <SCORE.INTER.VDW>
-30.602

>  <SCORE.INTER.norm>
-0.815819

>  <SCORE.INTRA>
0.958383

>  <SCORE.INTRA.DIHEDRAL>
0.207462

>  <SCORE.INTRA.DIHEDRAL.0>
4.64198

>  <SCORE.INTRA.POLAR>
0

>  <SCORE.INTRA.POLAR.0>
0

>  <SCORE.INTRA.REPUL>
0

>  <SCORE.INTRA.REPUL.0>
0

>  <SCORE.INTRA.SOLV>
1.28696

>  <SCORE.INTRA.SOLV.lig_0>
-49.3611

>  <SCORE.INTRA.VDW>
0.211175

>  <SCORE.INTRA.VDW.0>
-1.91858

>  <SCORE.INTRA.norm>
0.0309156

>  <SCORE.RESTR>
0

>  <SCORE.RESTR.CAVITY>
0

>  <SCORE.RESTR.norm>
0

>  <SCORE.SYSTEM>
0

>  <SCORE.SYSTEM.CONST>
0

>  <SCORE.SYSTEM.DIHEDRAL>
0

>  <SCORE.SYSTEM.SOLV>
0

>  <SCORE.SYSTEM.norm>
0

>  <SCORE.heavy>
31

>  <SCORE.norm>
-0.784904

>  <RMSD>
2.350

$$$$
ligand
 OpenBabel11021811473D
libRbt.so/2013.1/901 2013/11/27
 31 33  0  0  0  0  0  0  0  0999 V2000
   26.9537   43.0861   16.8212 P   0  0  1  0  0  0  0  0  0  0  0  0
   27.9806   43.8002   15.9794 O   0  0  0  0  0  0  0  0  0  0  0  0
   25.6381   43.8068   16.6914 O   0  5  0  0  0  0  0  0  0  0  0  0
   26.8820   41.6753   16.3050 O   0  0  0  0  0  0  0  0  0  0  0  0
   26.4531   42.4780   19.3213 C   0  0  0  0  0  0  0  0  0  0  0  0
   27.3416   43.0409   18.3787 O   0  0  0  0  0  0  0  0  0  0  0  0
   27.1022   42.5057   20.7026 C   0  0  1  0  0  0  0  0  0  0  0  0
   26.1247   42.2615   21.6944 O   0  0  0  0  0  0  0  0  0  0  0  0
   28.1771   41.4357   20.7934 C   0  0  1  0  0  0  0  0  0  0  0  0
   28.9759   41.7031   21.9148 O   0  0  0  0  0  0  0  0  0  0  0  0
   27.5996   40.0363   20.9237 C   0  0  1  0  0  0  0  0  0  0  0  0
   26.8641   39.7543   19.7637 O   0  0  0  0  0  0  0  0  0  0  0  0
   28.7052   39.0051   21.0781 C   0  0  0  0  0  0  0  0  0  0  0  0
   28.4658   36.3331   20.2280 N   0  0  0  0  0  0  0  0  0  0  0  0
   28.3082   35.0509   19.7483 C   0  0  0  0  0  0  0  0  0  0  0  0
   28.6143   34.7849   18.5896 O   0  0  0  0  0  0  0  0  0  0  0  0
   27.8056   34.0593   20.5595 N   0  0  0  0  0  0  0  0  0  0  0  0
   27.4647   34.3388   21.8686 C   0  0  0  0  0  0  0  0  0  0  0  0
   27.6195   35.6298   22.3612 C   0  0  1  0  0  0  0  0  0  0  0  0
   27.0326   33.4428   22.5967 O   0  0  0  0  0  0  0  0  0  0  0  0
   27.4354   37.1998   24.1558 C   0  0  2  0  0  0  0  0  0  0  0  0
   27.2789   35.9164   23.6680 N   0  0  0  0  0  0  0  0  0  0  0  0
   27.0907   37.4882   25.4767 C   0  0  0  0  0  0  0  0  0  0  0  0
   27.2392   38.7769   25.9760 C   0  0  1  0  0  0  0  0  0  0  0  0
   26.8560   39.0499   27.3961 C   0  0  0  0  0  0  0  0  0  0  0  0
   27.7433   39.7912   25.1480 C   0  0  1  0  0  0  0  0  0  0  0  0
   27.9280   41.1963   25.6520 C   0  0  0  0  0  0  0  0  0  0  0  0
   28.0848   39.5007   23.8298 C   0  0  0  0  0  0  0  0  0  0  0  0
   27.9322   38.2077   23.3260 C   0  0  1  0  0  0  0  0  0  0  0  0
   28.1199   36.6305   21.5307 C   0  0  1  0  0  0  0  0  0  0  0  0
   28.2696   37.9168   22.0127 N   0  0  0  0  0  0  0  0  0  0  0  0
  1  2  1  6  0  0  0
  1  3  1  0  0  0  0
  1  4  2  0  0  0  0
  1  6  1  0  0  0  0
  5  6  1  0  0  0  0
  7  5  1  6  0  0  0
  7  8  1  0  0  0  0
  7  9  1  0  0  0  0
  9 10  1  1  0  0  0
  9 11  1  0  0  0  0
 11 12  1  6  0  0  0
 11 13  1  0  0  0  0
 13 31  1  0  0  0  0
 14 15  1  0  0  0  0
 15 16  2  0  0  0  0
 15 17  1  0  0  0  0
 17 18  1  0  0  0  0
 18 20  2  0  0  0  0
 19 18  1  1  0  0  0
 19 22  1  0  0  0  0
 19 30  1  0  0  0  0
 21 23  1  6  0  0  0
 21 29  1  0  0  0  0
 21 22  1  0  0  0  0
 23 24  1  0  0  0  0
 24 25  1  1  0  0  0
 24 26  1  0  0  0  0
 26 27  1  1  0  0  0
 26 28  1  0  0  0  0
 29 28  1  1  0  0  0
 29 31  1  0  0  0  0
 30 14  1  1  0  0  0
 30 31  1  0  0  0  0
M  CHG  1   3  -1
M  END
>  <CHROM.1>
177.24151488,176.30150423,165.58537481,164.97553518,62.87562144,144.00137756
-60.46983443,27.50940190,39.30919282,21.10968085,-2.39604718,-1.47551535
1.59585642

>  <Name>
ligand

>  <RI>
0

>  <Rbt.Current_Directory>
/home/itssahil/PROJECTS/Mol_Feturizer/New_Systems/rnas/3F2T

>  <Rbt.Executable>
rbdock ($Id: //depot/dev/client3/rdock/2013.1/src/exe/rbdock.cxx#4 $)

>  <Rbt.Library>
libRbt.so (2013.1, Build901 2013/11/27)

>  <Rbt.Parameter_File>
/export/apps/rDock/src/rDock_2013.1_src/data/scripts/dock_solv.prm

>  <Rbt.Receptor>
prm/pocket_docking_6.prm

>  <SCORE>
-29.3965

>  <SCORE.INTER>
-30.7275

>  <SCORE.INTER.CONST>
1

>  <SCORE.INTER.POLAR>
0

>  <SCORE.INTER.ROT>
7

>  <SCORE.INTER.SOLV>
17.1697

>  <SCORE.INTER.VDW>
-34.4749

>  <SCORE.INTER.norm>
-0.991211

>  <SCORE.INTRA>
1.33105

>  <SCORE.INTRA.DIHEDRAL>
1.60423

>  <SCORE.INTRA.DIHEDRAL.0>
4.64198

>  <SCORE.INTRA.POLAR>
0

>  <SCORE.INTRA.POLAR.0>
0

>  <SCORE.INTRA.REPUL>
0

>  <SCORE.INTRA.REPUL.0>
0

>  <SCORE.INTRA.SOLV>
0.464872

>  <SCORE.INTRA.SOLV.lig_0>
-49.3611

>  <SCORE.INTRA.VDW>
0.2965

>  <SCORE.INTRA.VDW.0>
-1.91858

>  <SCORE.INTRA.norm>
0.0429371

>  <SCORE.RESTR>
0

>  <SCORE.RESTR.CAVITY>
0

>  <SCORE.RESTR.norm>
0

>  <SCORE.SYSTEM>
0

>  <SCORE.SYSTEM.CONST>
0

>  <SCORE.SYSTEM.DIHEDRAL>
0

>  <SCORE.SYSTEM.SOLV>
0

>  <SCORE.SYSTEM.norm>
0

>  <SCORE.heavy>
31

>  <SCORE.norm>
-0.948274

>  <RMSD>
2.380

$$$$
ligand
 OpenBabel11021811473D
libRbt.so/2013.1/901 2013/11/27
 31 33  0  0  0  0  0  0  0  0999 V2000
   26.6282   43.4655   16.5285 P   0  0  1  0  0  0  0  0  0  0  0  0
   27.8293   44.3184   16.2071 O   0  0  0  0  0  0  0  0  0  0  0  0
   25.8130   44.1598   17.5869 O   0  5  0  0  0  0  0  0  0  0  0  0
   25.8655   43.2974   15.2432 O   0  0  0  0  0  0  0  0  0  0  0  0
   26.1515   41.3153   17.9497 C   0  0  0  0  0  0  0  0  0  0  0  0
   27.0226   42.0108   17.0823 O   0  0  0  0  0  0  0  0  0  0  0  0
   26.2787   41.8916   19.3575 C   0  0  1  0  0  0  0  0  0  0  0  0
   25.1385   41.5472   20.1191 O   0  0  0  0  0  0  0  0  0  0  0  0
   27.5162   41.3316   20.0385 C   0  0  1  0  0  0  0  0  0  0  0  0
   27.8088   42.1303   21.1538 O   0  0  0  0  0  0  0  0  0  0  0  0
   27.3314   39.8950   20.4977 C   0  0  1  0  0  0  0  0  0  0  0  0
   27.0901   39.0999   19.3682 O   0  0  0  0  0  0  0  0  0  0  0  0
   28.5748   39.3886   21.2096 C   0  0  0  0  0  0  0  0  0  0  0  0
   28.4105   36.7344   20.2887 N   0  0  0  0  0  0  0  0  0  0  0  0
   28.2863   35.4611   19.7767 C   0  0  0  0  0  0  0  0  0  0  0  0
   28.5576   35.2413   18.5999 O   0  0  0  0  0  0  0  0  0  0  0  0
   27.8560   34.4267   20.5760 N   0  0  0  0  0  0  0  0  0  0  0  0
   27.5552   34.6541   21.9048 C   0  0  0  0  0  0  0  0  0  0  0  0
   27.6768   35.9357   22.4300 C   0  0  1  0  0  0  0  0  0  0  0  0
   27.1882   33.7204   22.6212 O   0  0  0  0  0  0  0  0  0  0  0  0
   27.4994   37.4447   24.2770 C   0  0  2  0  0  0  0  0  0  0  0  0
   27.3760   36.1704   23.7568 N   0  0  0  0  0  0  0  0  0  0  0  0
   27.1949   37.6806   25.6180 C   0  0  0  0  0  0  0  0  0  0  0  0
   27.3107   38.9594   26.1501 C   0  0  1  0  0  0  0  0  0  0  0  0
   26.9722   39.1755   27.5912 C   0  0  0  0  0  0  0  0  0  0  0  0
   27.7409   40.0171   25.3348 C   0  0  1  0  0  0  0  0  0  0  0  0
   27.8881   41.4136   25.8737 C   0  0  0  0  0  0  0  0  0  0  0  0
   28.0424   39.7789   23.9965 C   0  0  0  0  0  0  0  0  0  0  0  0
   27.9225   38.4957   23.4599 C   0  0  1  0  0  0  0  0  0  0  0  0
   28.1038   36.9797   21.6119 C   0  0  1  0  0  0  0  0  0  0  0  0
   28.2201   38.2568   22.1266 N   0  0  0  0  0  0  0  0  0  0  0  0
  1  2  1  6  0  0  0
  1  3  1  0  0  0  0
  1  4  2  0  0  0  0
  1  6  1  0  0  0  0
  5  6  1  0  0  0  0
  7  5  1  6  0  0  0
  7  8  1  0  0  0  0
  7  9  1  0  0  0  0
  9 10  1  1  0  0  0
  9 11  1  0  0  0  0
 11 12  1  6  0  0  0
 11 13  1  0  0  0  0
 13 31  1  0  0  0  0
 14 15  1  0  0  0  0
 15 16  2  0  0  0  0
 15 17  1  0  0  0  0
 17 18  1  0  0  0  0
 18 20  2  0  0  0  0
 19 18  1  1  0  0  0
 19 22  1  0  0  0  0
 19 30  1  0  0  0  0
 21 23  1  6  0  0  0
 21 29  1  0  0  0  0
 21 22  1  0  0  0  0
 23 24  1  0  0  0  0
 24 25  1  1  0  0  0
 24 26  1  0  0  0  0
 26 27  1  1  0  0  0
 26 28  1  0  0  0  0
 29 28  1  1  0  0  0
 29 31  1  0  0  0  0
 30 14  1  1  0  0  0
 30 31  1  0  0  0  0
M  CHG  1   3  -1
M  END
>  <CHROM.1>
-77.93647655,152.32529780,160.34759850,164.12959260,61.89188223,156.52622509
-92.99110230,27.32221638,39.45977901,20.89018700,2.53234628,1.42868782,-1.78485785

>  <Name>
ligand

>  <RI>
0

>  <Rbt.Current_Directory>
/home/itssahil/PROJECTS/Mol_Feturizer/New_Systems/rnas/3F2T

>  <Rbt.Executable>
rbdock ($Id: //depot/dev/client3/rdock/2013.1/src/exe/rbdock.cxx#4 $)

>  <Rbt.Library>
libRbt.so (2013.1, Build901 2013/11/27)

>  <Rbt.Parameter_File>
/export/apps/rDock/src/rDock_2013.1_src/data/scripts/dock_solv.prm

>  <Rbt.Receptor>
prm/pocket_docking_7.prm

>  <SCORE>
-25.0274

>  <SCORE.INTER>
-27.9966

>  <SCORE.INTER.CONST>
1

>  <SCORE.INTER.POLAR>
0

>  <SCORE.INTER.ROT>
7

>  <SCORE.INTER.SOLV>
17.6949

>  <SCORE.INTER.VDW>
-32.8294

>  <SCORE.INTER.norm>
-0.903116

>  <SCORE.INTRA>
2.96916

>  <SCORE.INTRA.DIHEDRAL>
2.92828

>  <SCORE.INTRA.DIHEDRAL.0>
4.64198

>  <SCORE.INTRA.POLAR>
0

>  <SCORE.INTRA.POLAR.0>
0

>  <SCORE.INTRA.REPUL>
0

>  <SCORE.INTRA.REPUL.0>
0

>  <SCORE.INTRA.SOLV>
2.00103

>  <SCORE.INTRA.SOLV.lig_0>
-49.3611

>  <SCORE.INTRA.VDW>
0.504499

>  <SCORE.INTRA.VDW.0>
-1.91858

>  <SCORE.INTRA.norm>
0.0957792

>  <SCORE.RESTR>
0

>  <SCORE.RESTR.CAVITY>
0

>  <SCORE.RESTR.norm>
0

>  <SCORE.SYSTEM>
0

>  <SCORE.SYSTEM.CONST>
0

>  <SCORE.SYSTEM.DIHEDRAL>
0

>  <SCORE.SYSTEM.SOLV>
0

>  <SCORE.SYSTEM.norm>
0

>  <SCORE.heavy>
31

>  <SCORE.norm>
-0.807337

>  <RMSD>
2.399

$$$$
ligand
 OpenBabel11021811473D
libRbt.so/2013.1/901 2013/11/27
 31 33  0  0  0  0  0  0  0  0999 V2000
   24.5416   43.3861   17.6709 P   0  0  1  0  0  0  0  0  0  0  0  0
   23.4244   44.3907   17.7970 O   0  0  0  0  0  0  0  0  0  0  0  0
   23.9440   42.0334   17.3882 O   0  5  0  0  0  0  0  0  0  0  0  0
   25.4229   43.8636   16.5495 O   0  0  0  0  0  0  0  0  0  0  0  0
   26.4336   42.2778   19.1070 C   0  0  0  0  0  0  0  0  0  0  0  0
   25.4300   43.2662   19.0030 O   0  0  0  0  0  0  0  0  0  0  0  0
   27.1662   42.4436   20.4359 C   0  0  1  0  0  0  0  0  0  0  0  0
   26.2468   42.3362   21.5045 O   0  0  0  0  0  0  0  0  0  0  0  0
   28.2251   41.3640   20.5839 C   0  0  1  0  0  0  0  0  0  0  0  0
   29.0772   41.7199   21.6396 O   0  0  0  0  0  0  0  0  0  0  0  0
   27.6294   39.9963   20.8726 C   0  0  1  0  0  0  0  0  0  0  0  0
   26.8000   39.6424   19.7989 O   0  0  0  0  0  0  0  0  0  0  0  0
   28.7212   38.9506   21.0273 C   0  0  0  0  0  0  0  0  0  0  0  0
   28.4918   36.2734   20.1905 N   0  0  0  0  0  0  0  0  0  0  0  0
   28.3401   34.9885   19.7165 C   0  0  0  0  0  0  0  0  0  0  0  0
   28.6627   34.7149   18.5642 O   0  0  0  0  0  0  0  0  0  0  0  0
   27.8249   34.0023   20.5266 N   0  0  0  0  0  0  0  0  0  0  0  0
   27.4653   34.2902   21.8287 C   0  0  0  0  0  0  0  0  0  0  0  0
   27.6140   35.5841   22.3155 C   0  0  1  0  0  0  0  0  0  0  0  0
   27.0219   33.3991   22.5561 O   0  0  0  0  0  0  0  0  0  0  0  0
   27.4052   37.1655   24.0974 C   0  0  2  0  0  0  0  0  0  0  0  0
   27.2548   35.8792   23.6154 N   0  0  0  0  0  0  0  0  0  0  0  0
   27.0416   37.4624   25.4114 C   0  0  0  0  0  0  0  0  0  0  0  0
   27.1840   38.7540   25.9047 C   0  0  1  0  0  0  0  0  0  0  0  0
   26.7805   39.0363   27.3173 C   0  0  0  0  0  0  0  0  0  0  0  0
   27.7010   39.7628   25.0778 C   0  0  1  0  0  0  0  0  0  0  0  0
   27.8795   41.1709   25.5757 C   0  0  0  0  0  0  0  0  0  0  0  0
   28.0613   39.4638   23.7666 C   0  0  0  0  0  0  0  0  0  0  0  0
   27.9149   38.1678   23.2686 C   0  0  1  0  0  0  0  0  0  0  0  0
   28.1273   36.5793   21.4862 C   0  0  1  0  0  0  0  0  0  0  0  0
   28.2711   37.8685   21.9622 N   0  0  0  0  0  0  0  0  0  0  0  0
  1  2  1  1  0  0  0
  1  3  1  0  0  0  0
  1  4  2  0  0  0  0
  1  6  1  0  0  0  0
  5  6  1  0  0  0  0
  7  5  1  6  0  0  0
  7  8  1  0  0  0  0
  7  9  1  0  0  0  0
  9 10  1  1  0  0  0
  9 11  1  0  0  0  0
 11 12  1  6  0  0  0
 11 13  1  0  0  0  0
 13 31  1  0  0  0  0
 14 15  1  0  0  0  0
 15 16  2  0  0  0  0
 15 17  1  0  0  0  0
 17 18  1  0  0  0  0
 18 20  2  0  0  0  0
 19 18  1  1  0  0  0
 19 22  1  0  0  0  0
 19 30  1  0  0  0  0
 21 23  1  6  0  0  0
 21 29  1  0  0  0  0
 21 22  1  0  0  0  0
 23 24  1  0  0  0  0
 24 25  1  1  0  0  0
 24 26  1  0  0  0  0
 26 27  1  1  0  0  0
 26 28  1  0  0  0  0
 29 28  1  1  0  0  0
 29 31  1  0  0  0  0
 30 14  1  1  0  0  0
 30 31  1  0  0  0  0
M  CHG  1   3  -1
M  END
>  <CHROM.1>
176.85313239,173.60044522,58.50753688,166.33491441,60.75398102,150.45429444
-59.31805874,27.00203378,39.33781274,21.22253516,3.10270783,-1.27562318,0.94846915

>  <Name>
ligand

>  <RI>
0

>  <Rbt.Current_Directory>
/home/itssahil/PROJECTS/Mol_Feturizer/New_Systems/rnas/3F2T

>  <Rbt.Executable>
rbdock ($Id: //depot/dev/client3/rdock/2013.1/src/exe/rbdock.cxx#4 $)

>  <Rbt.Library>
libRbt.so (2013.1, Build901 2013/11/27)

>  <Rbt.Parameter_File>
/export/apps/rDock/src/rDock_2013.1_src/data/scripts/dock_solv.prm

>  <Rbt.Receptor>
prm/pocket_docking_4.prm

>  <SCORE>
-27.8862

>  <SCORE.INTER>
-28.6795

>  <SCORE.INTER.CONST>
1

>  <SCORE.INTER.POLAR>
0

>  <SCORE.INTER.ROT>
7

>  <SCORE.INTER.SOLV>
19.11

>  <SCORE.INTER.VDW>
-33.7563

>  <SCORE.INTER.norm>
-0.925145

>  <SCORE.INTRA>
0.793278

>  <SCORE.INTRA.DIHEDRAL>
-0.0716074

>  <SCORE.INTRA.DIHEDRAL.0>
4.64198

>  <SCORE.INTRA.POLAR>
0

>  <SCORE.INTRA.POLAR.0>
0

>  <SCORE.INTRA.REPUL>
0

>  <SCORE.INTRA.REPUL.0>
0

>  <SCORE.INTRA.SOLV>
0.142493

>  <SCORE.INTRA.SOLV.lig_0>
-49.3611

>  <SCORE.INTRA.VDW>
0.757836

>  <SCORE.INTRA.VDW.0>
-1.91858

>  <SCORE.INTRA.norm>
0.0255896

>  <SCORE.RESTR>
0

>  <SCORE.RESTR.CAVITY>
0

>  <SCORE.RESTR.norm>
0

>  <SCORE.SYSTEM>
0

>  <SCORE.SYSTEM.CONST>
0

>  <SCORE.SYSTEM.DIHEDRAL>
0

>  <SCORE.SYSTEM.SOLV>
0

>  <SCORE.SYSTEM.norm>
0

>  <SCORE.heavy>
31

>  <SCORE.norm>
-0.899555

>  <RMSD>
2.408

$$$$
ligand
 OpenBabel11021811473D
libRbt.so/2013.1/901 2013/11/27
 31 33  0  0  0  0  0  0  0  0999 V2000
   25.9651   43.7468   16.1424 P   0  0  1  0  0  0  0  0  0  0  0  0
   24.8115   43.5677   15.1882 O   0  0  0  0  0  0  0  0  0  0  0  0
   27.1489   44.2722   15.3746 O   0  5  0  0  0  0  0  0  0  0  0  0
   25.5010   44.7099   17.2002 O   0  0  0  0  0  0  0  0  0  0  0  0
   27.5211   42.3500   17.7230 C   0  0  0  0  0  0  0  0  0  0  0  0
   26.4062   42.3778   16.8563 O   0  0  0  0  0  0  0  0  0  0  0  0
   27.6371   40.9621   18.3479 C   0  0  1  0  0  0  0  0  0  0  0  0
   28.0174   40.0243   17.3606 O   0  0  0  0  0  0  0  0  0  0  0  0
   28.6843   40.9736   19.4488 C   0  0  1  0  0  0  0  0  0  0  0  0
   28.4041   42.0392   20.3167 O   0  0  0  0  0  0  0  0  0  0  0  0
   28.7067   39.6815   20.2480 C   0  0  1  0  0  0  0  0  0  0  0  0
   29.6502   39.8169   21.2764 O   0  0  0  0  0  0  0  0  0  0  0  0
   27.3431   39.3949   20.8546 C   0  0  0  0  0  0  0  0  0  0  0  0
   27.5350   36.7143   20.0194 N   0  0  0  0  0  0  0  0  0  0  0  0
   27.5683   35.4153   19.5607 C   0  0  0  0  0  0  0  0  0  0  0  0
   27.6132   35.1889   18.3551 O   0  0  0  0  0  0  0  0  0  0  0  0
   27.5492   34.3620   20.4462 N   0  0  0  0  0  0  0  0  0  0  0  0
   27.5080   34.5985   21.8065 C   0  0  0  0  0  0  0  0  0  0  0  0
   27.4733   35.9058   22.2786 C   0  0  1  0  0  0  0  0  0  0  0  0
   27.5100   33.6518   22.5961 O   0  0  0  0  0  0  0  0  0  0  0  0
   27.3977   37.4495   24.1037 C   0  0  2  0  0  0  0  0  0  0  0  0
   27.4302   36.1494   23.6368 N   0  0  0  0  0  0  0  0  0  0  0  0
   27.3540   37.6943   25.4767 C   0  0  0  0  0  0  0  0  0  0  0  0
   27.3159   38.9981   25.9568 C   0  0  1  0  0  0  0  0  0  0  0  0
   27.2659   39.2223   27.4351 C   0  0  0  0  0  0  0  0  0  0  0  0
   27.3265   40.0733   25.0554 C   0  0  1  0  0  0  0  0  0  0  0  0
   27.2955   41.4989   25.5340 C   0  0  0  0  0  0  0  0  0  0  0  0
   27.3685   39.8258   23.6859 C   0  0  0  0  0  0  0  0  0  0  0  0
   27.4026   38.5166   23.2023 C   0  0  1  0  0  0  0  0  0  0  0  0
   27.4832   36.9668   21.3754 C   0  0  1  0  0  0  0  0  0  0  0  0
   27.4421   38.2680   21.8385 N   0  0  0  0  0  0  0  0  0  0  0  0
  1  2  1  6  0  0  0
  1  3  1  0  0  0  0
  1  4  2  0  0  0  0
  1  6  1  0  0  0  0
  5  6  1  0  0  0  0
  7  5  1  6  0  0  0
  7  8  1  0  0  0  0
  7  9  1  0  0  0  0
  9 10  1  1  0  0  0
  9 11  1  0  0  0  0
 11 12  1  1  0  0  0
 11 13  1  0  0  0  0
 13 31  1  0  0  0  0
 14 15  1  0  0  0  0
 15 16  2  0  0  0  0
 15 17  1  0  0  0  0
 17 18  1  0  0  0  0
 18 20  2  0  0  0  0
 19 18  1  1  0  0  0
 19 22  1  0  0  0  0
 19 30  1  0  0  0  0
 21 23  1  6  0  0  0
 21 29  1  0  0  0  0
 21 22  1  0  0  0  0
 23 24  1  0  0  0  0
 24 25  1  1  0  0  0
 24 26  1  0  0  0  0
 26 27  1  1  0  0  0
 26 28  1  0  0  0  0
 29 28  1  1  0  0  0
 29 31  1  0  0  0  0
 30 14  1  1  0  0  0
 30 31  1  0  0  0  0
M  CHG  1   3  -1
M  END
>  <CHROM.1>
175.18626606,176.34386244,69.30158855,51.00936510,-176.95040109,-169.53607479
104.98660657,27.33856309,39.47506111,20.57123303,2.85899329,1.45529376,-2.12599862

>  <Name>
ligand

>  <RI>
0

>  <Rbt.Current_Directory>
/home/itssahil/PROJECTS/Mol_Feturizer/New_Systems/rnas/3F2T

>  <Rbt.Executable>
rbdock ($Id: //depot/dev/client3/rdock/2013.1/src/exe/rbdock.cxx#4 $)

>  <Rbt.Library>
libRbt.so (2013.1, Build901 2013/11/27)

>  <Rbt.Parameter_File>
/export/apps/rDock/src/rDock_2013.1_src/data/scripts/dock_solv.prm

>  <Rbt.Receptor>
prm/pocket_docking_4.prm

>  <SCORE>
-26.1527

>  <SCORE.INTER>
-25.728

>  <SCORE.INTER.CONST>
1

>  <SCORE.INTER.POLAR>
0

>  <SCORE.INTER.ROT>
7

>  <SCORE.INTER.SOLV>
18.9511

>  <SCORE.INTER.VDW>
-31.7357

>  <SCORE.INTER.norm>
-0.829936

>  <SCORE.INTRA>
-0.424718

>  <SCORE.INTRA.DIHEDRAL>
-2.16211

>  <SCORE.INTRA.DIHEDRAL.0>
4.64198

>  <SCORE.INTRA.POLAR>
0

>  <SCORE.INTRA.POLAR.0>
0

>  <SCORE.INTRA.REPUL>
0

>  <SCORE.INTRA.REPUL.0>
0

>  <SCORE.INTRA.SOLV>
-0.296828

>  <SCORE.INTRA.SOLV.lig_0>
-49.3611

>  <SCORE.INTRA.VDW>
0.804749

>  <SCORE.INTRA.VDW.0>
-1.91858

>  <SCORE.INTRA.norm>
-0.0137006

>  <SCORE.RESTR>
0

>  <SCORE.RESTR.CAVITY>
0

>  <SCORE.RESTR.norm>
0

>  <SCORE.SYSTEM>
0

>  <SCORE.SYSTEM.CONST>
0

>  <SCORE.SYSTEM.DIHEDRAL>
0

>  <SCORE.SYSTEM.SOLV>
0

>  <SCORE.SYSTEM.norm>
0

>  <SCORE.heavy>
31

>  <SCORE.norm>
-0.843637

>  <RMSD>
2.412

$$$$
ligand
 OpenBabel11021811473D
libRbt.so/2013.1/901 2013/11/27
 31 33  0  0  0  0  0  0  0  0999 V2000
   25.2394   44.1376   16.2425 P   0  0  1  0  0  0  0  0  0  0  0  0
   24.9202   45.0347   17.4115 O   0  0  0  0  0  0  0  0  0  0  0  0
   24.0428   44.0909   15.3297 O   0  5  0  0  0  0  0  0  0  0  0  0
   26.4468   44.7271   15.5667 O   0  0  0  0  0  0  0  0  0  0  0  0
   26.6771   42.3708   17.5395 C   0  0  0  0  0  0  0  0  0  0  0  0
   25.5847   42.6327   16.6832 O   0  0  0  0  0  0  0  0  0  0  0  0
   26.7689   40.8681   17.7915 C   0  0  1  0  0  0  0  0  0  0  0  0
   27.0358   40.1958   16.5768 O   0  0  0  0  0  0  0  0  0  0  0  0
   27.8879   40.5736   18.7762 C   0  0  1  0  0  0  0  0  0  0  0  0
   27.6537   41.3094   19.9472 O   0  0  0  0  0  0  0  0  0  0  0  0
   27.9807   39.0994   19.1323 C   0  0  1  0  0  0  0  0  0  0  0  0
   28.2700   38.3819   17.9629 O   0  0  0  0  0  0  0  0  0  0  0  0
   29.0794   38.8558   20.1536 C   0  0  0  0  0  0  0  0  0  0  0  0
   28.2804   36.1614   20.3019 N   0  0  0  0  0  0  0  0  0  0  0  0
   27.8509   34.8521   20.3054 C   0  0  0  0  0  0  0  0  0  0  0  0
   28.0304   34.1424   19.3200 O   0  0  0  0  0  0  0  0  0  0  0  0
   27.2165   34.3290   21.4089 N   0  0  0  0  0  0  0  0  0  0  0  0
   27.0144   35.1104   22.5298 C   0  0  0  0  0  0  0  0  0  0  0  0
   27.4436   36.4330   22.5352 C   0  0  1  0  0  0  0  0  0  0  0  0
   26.4624   34.6316   23.5226 O   0  0  0  0  0  0  0  0  0  0  0  0
   27.6723   38.5337   23.6550 C   0  0  2  0  0  0  0  0  0  0  0  0
   27.2432   37.2202   23.6514 N   0  0  0  0  0  0  0  0  0  0  0  0
   27.4690   39.3284   24.7837 C   0  0  0  0  0  0  0  0  0  0  0  0
   27.8920   40.6523   24.7961 C   0  0  1  0  0  0  0  0  0  0  0  0
   27.6539   41.4753   26.0225 C   0  0  0  0  0  0  0  0  0  0  0  0
   28.5313   41.1902   23.6689 C   0  0  1  0  0  0  0  0  0  0  0  0
   29.0124   42.6151   23.6449 C   0  0  0  0  0  0  0  0  0  0  0  0
   28.7313   40.3952   22.5434 C   0  0  0  0  0  0  0  0  0  0  0  0
   28.3031   39.0665   22.5283 C   0  0  1  0  0  0  0  0  0  0  0  0
   28.0765   36.9582   21.4104 C   0  0  1  0  0  0  0  0  0  0  0  0
   28.4992   38.2738   21.4074 N   0  0  0  0  0  0  0  0  0  0  0  0
  1  2  1  1  0  0  0
  1  3  1  0  0  0  0
  1  4  2  0  0  0  0
  1  6  1  0  0  0  0
  5  6  1  0  0  0  0
  7  5  1  6  0  0  0
  7  8  1  0  0  0  0
  7  9  1  0  0  0  0
  9 10  1  1  0  0  0
  9 11  1  0  0  0  0
 11 12  1  6  0  0  0
 11 13  1  0  0  0  0
 13 31  1  0  0  0  0
 14 15  1  0  0  0  0
 15 16  2  0  0  0  0
 15 17  1  0  0  0  0
 17 18  1  0  0  0  0
 18 20  2  0  0  0  0
 19 18  1  1  0  0  0
 19 22  1  0  0  0  0
 19 30  1  0  0  0  0
 21 23  1  6  0  0  0
 21 29  1  0  0  0  0
 21 22  1  0  0  0  0
 23 24  1  0  0  0  0
 24 25  1  1  0  0  0
 24 26  1  0  0  0  0
 26 27  1  1  0  0  0
 26 28  1  0  0  0  0
 29 28  1  1  0  0  0
 29 31  1  0  0  0  0
 30 14  1  1  0  0  0
 30 31  1  0  0  0  0
M  CHG  1   3  -1
M  END
>  <CHROM.1>
179.90403006,-60.26241016,63.41453500,56.12533709,62.10264393,119.06796064
-102.42876636,27.24971270,39.75457723,20.21853631,2.78891438,-1.33749721
0.47727762

>  <Name>
ligand

>  <RI>
0

>  <Rbt.Current_Directory>
/home/itssahil/PROJECTS/Mol_Feturizer/New_Systems/rnas/3F2T

>  <Rbt.Executable>
rbdock ($Id: //depot/dev/client3/rdock/2013.1/src/exe/rbdock.cxx#4 $)

>  <Rbt.Library>
libRbt.so (2013.1, Build901 2013/11/27)

>  <Rbt.Parameter_File>
/export/apps/rDock/src/rDock_2013.1_src/data/scripts/dock_solv.prm

>  <Rbt.Receptor>
prm/pocket_docking_4.prm

>  <SCORE>
-25.1624

>  <SCORE.INTER>
-25.9665

>  <SCORE.INTER.CONST>
1

>  <SCORE.INTER.POLAR>
0

>  <SCORE.INTER.ROT>
7

>  <SCORE.INTER.SOLV>
17.4469

>  <SCORE.INTER.VDW>
-31.3933

>  <SCORE.INTER.norm>
-0.837631

>  <SCORE.INTRA>
0.80411

>  <SCORE.INTRA.DIHEDRAL>
1.8545

>  <SCORE.INTRA.DIHEDRAL.0>
4.64198

>  <SCORE.INTRA.POLAR>
0

>  <SCORE.INTRA.POLAR.0>
0

>  <SCORE.INTRA.REPUL>
0

>  <SCORE.INTRA.REPUL.0>
0

>  <SCORE.INTRA.SOLV>
-0.415972

>  <SCORE.INTRA.SOLV.lig_0>
-49.3611

>  <SCORE.INTRA.VDW>
0.084845

>  <SCORE.INTRA.VDW.0>
-1.91858

>  <SCORE.INTRA.norm>
0.025939

>  <SCORE.RESTR>
0

>  <SCORE.RESTR.CAVITY>
0

>  <SCORE.RESTR.norm>
0

>  <SCORE.SYSTEM>
0

>  <SCORE.SYSTEM.CONST>
0

>  <SCORE.SYSTEM.DIHEDRAL>
0

>  <SCORE.SYSTEM.SOLV>
0

>  <SCORE.SYSTEM.norm>
0

>  <SCORE.heavy>
31

>  <SCORE.norm>
-0.811692

>  <RMSD>
2.445

$$$$
ligand
 OpenBabel11021811473D
libRbt.so/2013.1/901 2013/11/27
 31 33  0  0  0  0  0  0  0  0999 V2000
   28.2502   42.3762   21.5432 P   0  0  1  0  0  0  0  0  0  0  0  0
   27.5751   43.1902   22.6179 O   0  0  0  0  0  0  0  0  0  0  0  0
   29.0030   43.3095   20.6327 O   0  5  0  0  0  0  0  0  0  0  0  0
   29.1629   41.4099   22.2469 O   0  0  0  0  0  0  0  0  0  0  0  0
   27.6649   40.4687   19.8434 C   0  0  0  0  0  0  0  0  0  0  0  0
   27.2138   41.5392   20.6468 O   0  0  0  0  0  0  0  0  0  0  0  0
   26.5385   40.0313   18.9106 C   0  0  1  0  0  0  0  0  0  0  0  0
   26.2352   41.0749   18.0063 O   0  0  0  0  0  0  0  0  0  0  0  0
   26.9629   38.8027   18.1237 C   0  0  1  0  0  0  0  0  0  0  0  0
   28.2796   38.9931   17.6796 O   0  0  0  0  0  0  0  0  0  0  0  0
   26.9021   37.5292   18.9502 C   0  0  1  0  0  0  0  0  0  0  0  0
   26.8076   36.4395   18.0729 O   0  0  0  0  0  0  0  0  0  0  0  0
   28.1496   37.3767   19.8047 C   0  0  0  0  0  0  0  0  0  0  0  0
   28.2756   34.6055   19.3306 N   0  0  0  0  0  0  0  0  0  0  0  0
   28.2916   33.2599   19.0342 C   0  0  0  0  0  0  0  0  0  0  0  0
   28.5951   32.8811   17.9067 O   0  0  0  0  0  0  0  0  0  0  0  0
   27.9662   32.3300   19.9952 N   0  0  0  0  0  0  0  0  0  0  0  0
   27.6312   32.7379   21.2716 C   0  0  0  0  0  0  0  0  0  0  0  0
   27.6116   34.0937   21.5797 C   0  0  1  0  0  0  0  0  0  0  0  0
   27.3588   31.9001   22.1339 O   0  0  0  0  0  0  0  0  0  0  0  0
   27.2589   35.8563   23.1571 C   0  0  2  0  0  0  0  0  0  0  0  0
   27.2758   34.5085   22.8528 N   0  0  0  0  0  0  0  0  0  0  0  0
   26.9192   36.2742   24.4443 C   0  0  0  0  0  0  0  0  0  0  0  0
   26.8940   37.6276   24.7596 C   0  0  1  0  0  0  0  0  0  0  0  0
   26.5218   38.0388   26.1490 C   0  0  0  0  0  0  0  0  0  0  0  0
   27.2170   38.5778   23.7790 C   0  0  1  0  0  0  0  0  0  0  0  0
   27.2106   40.0511   24.0816 C   0  0  0  0  0  0  0  0  0  0  0  0
   27.5539   38.1577   22.4950 C   0  0  0  0  0  0  0  0  0  0  0  0
   27.5755   36.7988   22.1759 C   0  0  1  0  0  0  0  0  0  0  0  0
   27.9328   35.0296   20.5986 C   0  0  1  0  0  0  0  0  0  0  0  0
   27.9086   36.3785   20.8970 N   0  0  0  0  0  0  0  0  0  0  0  0
  1  2  1  1  0  0  0
  1  3  1  0  0  0  0
  1  4  2  0  0  0  0
  1  6  1  0  0  0  0
  5  6  1  0  0  0  0
  7  5  1  1  0  0  0
  7  8  1  0  0  0  0
  7  9  1  0  0  0  0
  9 10  1  1  0  0  0
  9 11  1  0  0  0  0
 11 12  1  6  0  0  0
 11 13  1  0  0  0  0
 13 31  1  0  0  0  0
 14 15  1  0  0  0  0
 15 16  2  0  0  0  0
 15 17  1  0  0  0  0
 17 18  1  0  0  0  0
 18 20  2  0  0  0  0
 19 18  1  1  0  0  0
 19 22  1  0  0  0  0
 19 30  1  0  0  0  0
 21 23  1  6  0  0  0
 21 29  1  0  0  0  0
 21 22  1  0  0  0  0
 23 24  1  0  0  0  0
 24 25  1  1  0  0  0
 24 26  1  0  0  0  0
 26 27  1  1  0  0  0
 26 28  1  0  0  0  0
 29 28  1  1  0  0  0
 29 31  1  0  0  0  0
 30 14  1  1  0  0  0
 30 31  1  0  0  0  0
M  CHG  1   3  -1
M  END
>  <CHROM.1>
-169.31467531,-163.18927571,65.02221737,-43.52123134,158.04869729,162.82525728
-98.22902413,27.61289897,37.78934147,21.04033356,1.45752027,1.50466218,0.19836988

>  <Name>
ligand

>  <RI>
0

>  <Rbt.Current_Directory>
/home/itssahil/PROJECTS/Mol_Feturizer/New_Systems/rnas/3F2T

>  <Rbt.Executable>
rbdock ($Id: //depot/dev/client3/rdock/2013.1/src/exe/rbdock.cxx#4 $)

>  <Rbt.Library>
libRbt.so (2013.1, Build901 2013/11/27)

>  <Rbt.Parameter_File>
/export/apps/rDock/src/rDock_2013.1_src/data/scripts/dock_solv.prm

>  <Rbt.Receptor>
prm/pocket_docking_6.prm

>  <SCORE>
-29.9237

>  <SCORE.INTER>
-32.3016

>  <SCORE.INTER.CONST>
1

>  <SCORE.INTER.POLAR>
0

>  <SCORE.INTER.ROT>
7

>  <SCORE.INTER.SOLV>
19.6603

>  <SCORE.INTER.VDW>
-36.3545

>  <SCORE.INTER.norm>
-1.04199

>  <SCORE.INTRA>
2.37788

>  <SCORE.INTRA.DIHEDRAL>
1.02016

>  <SCORE.INTRA.DIHEDRAL.0>
4.64198

>  <SCORE.INTRA.POLAR>
0

>  <SCORE.INTRA.POLAR.0>
0

>  <SCORE.INTRA.REPUL>
0

>  <SCORE.INTRA.REPUL.0>
0

>  <SCORE.INTRA.SOLV>
1.44876

>  <SCORE.INTRA.SOLV.lig_0>
-49.3611

>  <SCORE.INTRA.VDW>
1.14342

>  <SCORE.INTRA.VDW.0>
-1.91858

>  <SCORE.INTRA.norm>
0.0767059

>  <SCORE.RESTR>
0

>  <SCORE.RESTR.CAVITY>
0

>  <SCORE.RESTR.norm>
0

>  <SCORE.SYSTEM>
0

>  <SCORE.SYSTEM.CONST>
0

>  <SCORE.SYSTEM.DIHEDRAL>
0

>  <SCORE.SYSTEM.SOLV>
0

>  <SCORE.SYSTEM.norm>
0

>  <SCORE.heavy>
31

>  <SCORE.norm>
-0.965282

>  <RMSD>
2.461

$$$$
ligand
 OpenBabel11021811473D
libRbt.so/2013.1/901 2013/11/27
 31 33  0  0  0  0  0  0  0  0999 V2000
   26.3269   43.4057   17.0654 P   0  0  1  0  0  0  0  0  0  0  0  0
   25.9989   42.0009   16.6270 O   0  0  0  0  0  0  0  0  0  0  0  0
   26.3448   44.2976   15.8524 O   0  5  0  0  0  0  0  0  0  0  0  0
   25.2632   43.8070   18.0500 O   0  0  0  0  0  0  0  0  0  0  0  0
   28.2422   42.4622   18.5860 C   0  0  0  0  0  0  0  0  0  0  0  0
   27.7579   43.5198   17.7848 O   0  0  0  0  0  0  0  0  0  0  0  0
   27.4623   42.4279   19.8978 C   0  0  1  0  0  0  0  0  0  0  0  0
   26.1673   41.9085   19.6698 O   0  0  0  0  0  0  0  0  0  0  0  0
   28.1790   41.5452   20.9056 C   0  0  1  0  0  0  0  0  0  0  0  0
   27.8030   41.9484   22.1953 O   0  0  0  0  0  0  0  0  0  0  0  0
   27.8458   40.0726   20.7344 C   0  0  1  0  0  0  0  0  0  0  0  0
   27.6583   39.8202   19.3680 O   0  0  0  0  0  0  0  0  0  0  0  0
   28.9736   39.1969   21.2547 C   0  0  0  0  0  0  0  0  0  0  0  0
   28.5862   36.5803   20.2940 N   0  0  0  0  0  0  0  0  0  0  0  0
   28.3610   35.3303   19.7595 C   0  0  0  0  0  0  0  0  0  0  0  0
   28.6984   35.0841   18.6052 O   0  0  0  0  0  0  0  0  0  0  0  0
   27.7555   34.3490   20.5109 N   0  0  0  0  0  0  0  0  0  0  0  0
   27.3778   34.6058   21.8144 C   0  0  0  0  0  0  0  0  0  0  0  0
   27.6003   35.8643   22.3620 C   0  0  1  0  0  0  0  0  0  0  0  0
   26.8529   33.7177   22.4893 O   0  0  0  0  0  0  0  0  0  0  0  0
   27.4474   37.3793   24.2062 C   0  0  2  0  0  0  0  0  0  0  0  0
   27.2235   36.1283   23.6636 N   0  0  0  0  0  0  0  0  0  0  0  0
   27.0660   37.6449   25.5218 C   0  0  0  0  0  0  0  0  0  0  0  0
   27.2819   38.9013   26.0756 C   0  0  1  0  0  0  0  0  0  0  0  0
   26.8567   39.1508   27.4881 C   0  0  0  0  0  0  0  0  0  0  0  0
   27.8912   39.9057   25.3085 C   0  0  1  0  0  0  0  0  0  0  0  0
   28.1509   41.2755   25.8730 C   0  0  0  0  0  0  0  0  0  0  0  0
   28.2691   39.6382   23.9954 C   0  0  0  0  0  0  0  0  0  0  0  0
   28.0490   38.3779   23.4367 C   0  0  1  0  0  0  0  0  0  0  0  0
   28.2051   36.8555   21.5917 C   0  0  1  0  0  0  0  0  0  0  0  0
   28.4227   38.1102   22.1283 N   0  0  0  0  0  0  0  0  0  0  0  0
  1  2  1  6  0  0  0
  1  3  1  0  0  0  0
  1  4  2  0  0  0  0
  1  6  1  0  0  0  0
  5  6  1  0  0  0  0
  7  5  1  6  0  0  0
  7  8  1  0  0  0  0
  7  9  1  0  0  0  0
  9 10  1  1  0  0  0
  9 11  1  0  0  0  0
 11 12  1  6  0  0  0
 11 13  1  0  0  0  0
 13 31  1  0  0  0  0
 14 15  1  0  0  0  0
 15 16  2  0  0  0  0
 15 17  1  0  0  0  0
 17 18  1  0  0  0  0
 18 20  2  0  0  0  0
 19 18  1  1  0  0  0
 19 22  1  0  0  0  0
 19 30  1  0  0  0  0
 21 23  1  6  0  0  0
 21 29  1  0  0  0  0
 21 22  1  0  0  0  0
 23 24  1  0  0  0  0
 24 25  1  1  0  0  0
 24 26  1  0  0  0  0
 26 27  1  1  0  0  0
 26 28  1  0  0  0  0
 29 28  1  1  0  0  0
 29 31  1  0  0  0  0
 30 14  1  1  0  0  0
 30 31  1  0  0  0  0
M  CHG  1   3  -1
M  END
>  <CHROM.1>
-72.96463146,-34.28532797,74.23040439,155.70175273,34.11109374,132.67518295
-78.33516059,27.47074232,39.49031272,21.07000724,-2.77603261,-1.44994941
1.20001519

>  <Name>
ligand

>  <RI>
0

>  <Rbt.Current_Directory>
/home/itssahil/PROJECTS/Mol_Feturizer/New_Systems/rnas/3F2T

>  <Rbt.Executable>
rbdock ($Id: //depot/dev/client3/rdock/2013.1/src/exe/rbdock.cxx#4 $)

>  <Rbt.Library>
libRbt.so (2013.1, Build901 2013/11/27)

>  <Rbt.Parameter_File>
/export/apps/rDock/src/rDock_2013.1_src/data/scripts/dock_solv.prm

>  <Rbt.Receptor>
prm/pocket_docking_5.prm

>  <SCORE>
-22.9268

>  <SCORE.INTER>
-28.4894

>  <SCORE.INTER.CONST>
1

>  <SCORE.INTER.POLAR>
0

>  <SCORE.INTER.ROT>
7

>  <SCORE.INTER.SOLV>
15.4323

>  <SCORE.INTER.VDW>
-32.4037

>  <SCORE.INTER.norm>
-0.919014

>  <SCORE.INTRA>
5.56261

>  <SCORE.INTRA.DIHEDRAL>
7.57709

>  <SCORE.INTRA.DIHEDRAL.0>
4.64198

>  <SCORE.INTRA.POLAR>
0

>  <SCORE.INTRA.POLAR.0>
0

>  <SCORE.INTRA.REPUL>
0

>  <SCORE.INTRA.REPUL.0>
0

>  <SCORE.INTRA.SOLV>
2.3965

>  <SCORE.INTRA.SOLV.lig_0>
-49.3611

>  <SCORE.INTRA.VDW>
0.575815

>  <SCORE.INTRA.VDW.0>
-1.91858

>  <SCORE.INTRA.norm>
0.179439

>  <SCORE.RESTR>
0

>  <SCORE.RESTR.CAVITY>
0

>  <SCORE.RESTR.norm>
0

>  <SCORE.SYSTEM>
0

>  <SCORE.SYSTEM.CONST>
0

>  <SCORE.SYSTEM.DIHEDRAL>
0

>  <SCORE.SYSTEM.SOLV>
0

>  <SCORE.SYSTEM.norm>
0

>  <SCORE.heavy>
31

>  <SCORE.norm>
-0.739575

>  <RMSD>
2.490

$$$$
ligand
 OpenBabel11021811473D
libRbt.so/2013.1/901 2013/11/27
 31 33  0  0  0  0  0  0  0  0999 V2000
   26.9829   42.8930   16.7793 P   0  0  1  0  0  0  0  0  0  0  0  0
   26.6518   41.5042   16.2947 O   0  0  0  0  0  0  0  0  0  0  0  0
   28.1374   43.4232   15.9712 O   0  5  0  0  0  0  0  0  0  0  0  0
   25.7380   43.7177   16.6004 O   0  0  0  0  0  0  0  0  0  0  0  0
   26.4961   42.5150   19.3270 C   0  0  0  0  0  0  0  0  0  0  0  0
   27.4035   42.9326   18.3284 O   0  0  0  0  0  0  0  0  0  0  0  0
   27.1793   42.5904   20.6899 C   0  0  1  0  0  0  0  0  0  0  0  0
   26.2285   42.3725   21.7132 O   0  0  0  0  0  0  0  0  0  0  0  0
   28.2630   41.5298   20.7875 C   0  0  1  0  0  0  0  0  0  0  0  0
   29.0730   41.8235   21.8943 O   0  0  0  0  0  0  0  0  0  0  0  0
   27.6973   40.1290   20.9503 C   0  0  1  0  0  0  0  0  0  0  0  0
   26.9911   39.8017   19.7840 O   0  0  0  0  0  0  0  0  0  0  0  0
   28.8098   39.1157   21.1625 C   0  0  0  0  0  0  0  0  0  0  0  0
   28.4976   36.4610   20.2823 N   0  0  0  0  0  0  0  0  0  0  0  0
   28.3050   35.1891   19.7884 C   0  0  0  0  0  0  0  0  0  0  0  0
   28.6002   34.9286   18.6257 O   0  0  0  0  0  0  0  0  0  0  0  0
   27.7792   34.2016   20.5899 N   0  0  0  0  0  0  0  0  0  0  0  0
   27.4499   34.4746   21.9033 C   0  0  0  0  0  0  0  0  0  0  0  0
   27.6400   35.7552   22.4102 C   0  0  1  0  0  0  0  0  0  0  0  0
   26.9968   33.5818   22.6225 O   0  0  0  0  0  0  0  0  0  0  0  0
   27.5030   37.3085   24.2235 C   0  0  2  0  0  0  0  0  0  0  0  0
   27.3114   36.0355   23.7214 N   0  0  0  0  0  0  0  0  0  0  0  0
   27.1703   37.5905   25.5489 C   0  0  0  0  0  0  0  0  0  0  0  0
   27.3541   38.8689   26.0626 C   0  0  1  0  0  0  0  0  0  0  0  0
   26.9828   39.1353   27.4870 C   0  0  0  0  0  0  0  0  0  0  0  0
   27.8820   39.8793   25.2446 C   0  0  1  0  0  0  0  0  0  0  0  0
   28.1050   41.2731   25.7641 C   0  0  0  0  0  0  0  0  0  0  0  0
   28.2115   39.5952   23.9219 C   0  0  0  0  0  0  0  0  0  0  0  0
   28.0233   38.3127   23.4037 C   0  0  1  0  0  0  0  0  0  0  0  0
   28.1638   36.7521   21.5896 C   0  0  1  0  0  0  0  0  0  0  0  0
   28.3488   38.0284   22.0859 N   0  0  0  0  0  0  0  0  0  0  0  0
  1  2  1  6  0  0  0
  1  3  1  0  0  0  0
  1  4  2  0  0  0  0
  1  6  1  0  0  0  0
  5  6  1  0  0  0  0
  7  5  1  6  0  0  0
  7  8  1  0  0  0  0
  7  9  1  0  0  0  0
  9 10  1  1  0  0  0
  9 11  1  0  0  0  0
 11 12  1  6  0  0  0
 11 13  1  0  0  0  0
 13 31  1  0  0  0  0
 14 15  1  0  0  0  0
 15 16  2  0  0  0  0
 15 17  1  0  0  0  0
 17 18  1  0  0  0  0
 18 20  2  0  0  0  0
 19 18  1  1  0  0  0
 19 22  1  0  0  0  0
 19 30  1  0  0  0  0
 21 23  1  6  0  0  0
 21 29  1  0  0  0  0
 21 22  1  0  0  0  0
 23 24  1  0  0  0  0
 24 25  1  1  0  0  0
 24 26  1  0  0  0  0
 26 27  1  1  0  0  0
 26 28  1  0  0  0  0
 29 28  1  1  0  0  0
 29 31  1  0  0  0  0
 30 14  1  1  0  0  0
 30 31  1  0  0  0  0
M  CHG  1   3  -1
M  END
>  <CHROM.1>
177.13335306,-61.07655922,171.15750723,166.06126199,64.99721170,145.89519018
-64.25563330,27.56835696,39.35266397,21.13852080,-2.59530979,-1.48830801
1.34510266

>  <Name>
ligand

>  <RI>
0

>  <Rbt.Current_Directory>
/home/itssahil/PROJECTS/Mol_Feturizer/New_Systems/rnas/3F2T

>  <Rbt.Executable>
rbdock ($Id: //depot/dev/client3/rdock/2013.1/src/exe/rbdock.cxx#4 $)

>  <Rbt.Library>
libRbt.so (2013.1, Build901 2013/11/27)

>  <Rbt.Parameter_File>
/export/apps/rDock/src/rDock_2013.1_src/data/scripts/dock_solv.prm

>  <Rbt.Receptor>
prm/pocket_docking_5.prm

>  <SCORE>
-29.3258

>  <SCORE.INTER>
-29.8628

>  <SCORE.INTER.CONST>
1

>  <SCORE.INTER.POLAR>
0

>  <SCORE.INTER.ROT>
7

>  <SCORE.INTER.SOLV>
17.4703

>  <SCORE.INTER.VDW>
-33.9986

>  <SCORE.INTER.norm>
-0.963315

>  <SCORE.INTRA>
0.534404

>  <SCORE.INTRA.DIHEDRAL>
0.818133

>  <SCORE.INTRA.DIHEDRAL.0>
4.64198

>  <SCORE.INTRA.POLAR>
0

>  <SCORE.INTRA.POLAR.0>
0

>  <SCORE.INTRA.REPUL>
0

>  <SCORE.INTRA.REPUL.0>
0

>  <SCORE.INTRA.SOLV>
-0.202343

>  <SCORE.INTRA.SOLV.lig_0>
-49.3611

>  <SCORE.INTRA.VDW>
0.226509

>  <SCORE.INTRA.VDW.0>
-1.91858

>  <SCORE.INTRA.norm>
0.0172388

>  <SCORE.RESTR>
0.0025693

>  <SCORE.RESTR.CAVITY>
0.0025693

>  <SCORE.RESTR.norm>
8.28808e-05

>  <SCORE.SYSTEM>
0

>  <SCORE.SYSTEM.CONST>
0

>  <SCORE.SYSTEM.DIHEDRAL>
0

>  <SCORE.SYSTEM.SOLV>
0

>  <SCORE.SYSTEM.norm>
0

>  <SCORE.heavy>
31

>  <SCORE.norm>
-0.945993

>  <RMSD>
2.495

$$$$
ligand
 OpenBabel11021811473D
libRbt.so/2013.1/901 2013/11/27
 31 33  0  0  0  0  0  0  0  0999 V2000
   28.3191   42.2330   21.6644 P   0  0  1  0  0  0  0  0  0  0  0  0
   29.3821   41.3854   22.3162 O   0  0  0  0  0  0  0  0  0  0  0  0
   27.4740   42.8594   22.7416 O   0  5  0  0  0  0  0  0  0  0  0  0
   29.0389   43.2619   20.8366 O   0  0  0  0  0  0  0  0  0  0  0  0
   27.8820   40.4397   19.8033 C   0  0  0  0  0  0  0  0  0  0  0  0
   27.3489   41.3906   20.7013 O   0  0  0  0  0  0  0  0  0  0  0  0
   26.8157   40.0646   18.7774 C   0  0  1  0  0  0  0  0  0  0  0  0
   26.6825   41.1021   17.8263 O   0  0  0  0  0  0  0  0  0  0  0  0
   27.2113   38.7845   18.0608 C   0  0  1  0  0  0  0  0  0  0  0  0
   28.5563   38.8884   17.6766 O   0  0  0  0  0  0  0  0  0  0  0  0
   27.0429   37.5508   18.9318 C   0  0  1  0  0  0  0  0  0  0  0  0
   26.8424   36.4448   18.0936 O   0  0  0  0  0  0  0  0  0  0  0  0
   28.2788   37.3153   19.7841 C   0  0  0  0  0  0  0  0  0  0  0  0
   28.3639   34.5450   19.2962 N   0  0  0  0  0  0  0  0  0  0  0  0
   28.3623   33.2011   18.9917 C   0  0  0  0  0  0  0  0  0  0  0  0
   28.6958   32.8227   17.8726 O   0  0  0  0  0  0  0  0  0  0  0  0
   27.9857   32.2725   19.9350 N   0  0  0  0  0  0  0  0  0  0  0  0
   27.6162   32.6797   21.2021 C   0  0  0  0  0  0  0  0  0  0  0  0
   27.6141   34.0337   21.5183 C   0  0  1  0  0  0  0  0  0  0  0  0
   27.2979   31.8426   22.0492 O   0  0  0  0  0  0  0  0  0  0  0  0
   27.2446   35.7939   23.0946 C   0  0  2  0  0  0  0  0  0  0  0  0
   27.2442   34.4478   22.7822 N   0  0  0  0  0  0  0  0  0  0  0  0
   26.8704   36.2112   24.3724 C   0  0  0  0  0  0  0  0  0  0  0  0
   26.8623   37.5630   24.6956 C   0  0  1  0  0  0  0  0  0  0  0  0
   26.4519   37.9736   26.0743 C   0  0  0  0  0  0  0  0  0  0  0  0
   27.2376   38.5119   23.7326 C   0  0  1  0  0  0  0  0  0  0  0  0
   27.2512   39.9833   24.0445 C   0  0  0  0  0  0  0  0  0  0  0  0
   27.6089   38.0926   22.4579 C   0  0  0  0  0  0  0  0  0  0  0  0
   27.6134   36.7354   22.1308 C   0  0  1  0  0  0  0  0  0  0  0  0
   27.9873   34.9685   20.5548 C   0  0  1  0  0  0  0  0  0  0  0  0
   27.9807   36.3159   20.8611 N   0  0  0  0  0  0  0  0  0  0  0  0
  1  2  1  1  0  0  0
  1  3  1  0  0  0  0
  1  4  2  0  0  0  0
  1  6  1  0  0  0  0
  5  6  1  0  0  0  0
  7  5  1  1  0  0  0
  7  8  1  0  0  0  0
  7  9  1  0  0  0  0
  9 10  1  1  0  0  0
  9 11  1  0  0  0  0
 11 12  1  6  0  0  0
 11 13  1  0  0  0  0
 13 31  1  0  0  0  0
 14 15  1  0  0  0  0
 15 16  2  0  0  0  0
 15 17  1  0  0  0  0
 17 18  1  0  0  0  0
 18 20  2  0  0  0  0
 19 18  1  1  0  0  0
 19 22  1  0  0  0  0
 19 30  1  0  0  0  0
 21 23  1  6  0  0  0
 21 29  1  0  0  0  0
 21 22  1  0  0  0  0
 23 24  1  0  0  0  0
 24 25  1  1  0  0  0
 24 26  1  0  0  0  0
 26 27  1  1  0  0  0
 26 28  1  0  0  0  0
 29 28  1  1  0  0  0
 29 31  1  0  0  0  0
 30 14  1  1  0  0  0
 30 31  1  0  0  0  0
M  CHG  1   3  -1
M  END
>  <CHROM.1>
-165.24218551,-44.37016017,76.13002579,-46.63147171,154.12873636,166.32141538
-95.38953220,27.69384366,37.72260298,21.02205017,1.39931650,1.46738106,0.27334512

>  <Name>
ligand

>  <RI>
0

>  <Rbt.Current_Directory>
/home/itssahil/PROJECTS/Mol_Feturizer/New_Systems/rnas/3F2T

>  <Rbt.Executable>
rbdock ($Id: //depot/dev/client3/rdock/2013.1/src/exe/rbdock.cxx#4 $)

>  <Rbt.Library>
libRbt.so (2013.1, Build901 2013/11/27)

>  <Rbt.Parameter_File>
/export/apps/rDock/src/rDock_2013.1_src/data/scripts/dock_solv.prm

>  <Rbt.Receptor>
prm/pocket_docking_5.prm

>  <SCORE>
-29.796

>  <SCORE.INTER>
-32.0988

>  <SCORE.INTER.CONST>
1

>  <SCORE.INTER.POLAR>
0

>  <SCORE.INTER.ROT>
7

>  <SCORE.INTER.SOLV>
19.7035

>  <SCORE.INTER.VDW>
-36.2337

>  <SCORE.INTER.norm>
-1.03545

>  <SCORE.INTRA>
2.30283

>  <SCORE.INTRA.DIHEDRAL>
2.09587

>  <SCORE.INTRA.DIHEDRAL.0>
4.64198

>  <SCORE.INTRA.POLAR>
0

>  <SCORE.INTRA.POLAR.0>
0

>  <SCORE.INTRA.REPUL>
0

>  <SCORE.INTRA.REPUL.0>
0

>  <SCORE.INTRA.SOLV>
0.541729

>  <SCORE.INTRA.SOLV.lig_0>
-49.3611

>  <SCORE.INTRA.VDW>
0.984036

>  <SCORE.INTRA.VDW.0>
-1.91858

>  <SCORE.INTRA.norm>
0.074285

>  <SCORE.RESTR>
0

>  <SCORE.RESTR.CAVITY>
0

>  <SCORE.RESTR.norm>
0

>  <SCORE.SYSTEM>
0

>  <SCORE.SYSTEM.CONST>
0

>  <SCORE.SYSTEM.DIHEDRAL>
0

>  <SCORE.SYSTEM.SOLV>
0

>  <SCORE.SYSTEM.norm>
0

>  <SCORE.heavy>
31

>  <SCORE.norm>
-0.961162

>  <RMSD>
2.501

$$$$
ligand
 OpenBabel11021811473D
libRbt.so/2013.1/901 2013/11/27
 31 33  0  0  0  0  0  0  0  0999 V2000
   25.8390   43.6908   17.0010 P   0  0  1  0  0  0  0  0  0  0  0  0
   26.0013   45.1849   17.1225 O   0  0  0  0  0  0  0  0  0  0  0  0
   25.0655   43.1913   18.1923 O   0  5  0  0  0  0  0  0  0  0  0  0
   25.1132   43.4422   15.7074 O   0  0  0  0  0  0  0  0  0  0  0  0
   28.0498   42.8271   18.1132 C   0  0  0  0  0  0  0  0  0  0  0  0
   27.2412   42.9095   16.9581 O   0  0  0  0  0  0  0  0  0  0  0  0
   27.8455   41.4660   18.7734 C   0  0  1  0  0  0  0  0  0  0  0  0
   28.2823   40.4422   17.9017 O   0  0  0  0  0  0  0  0  0  0  0  0
   28.6427   41.3897   20.0647 C   0  0  1  0  0  0  0  0  0  0  0  0
   28.0131   42.1973   21.0232 O   0  0  0  0  0  0  0  0  0  0  0  0
   28.7452   39.9736   20.6059 C   0  0  1  0  0  0  0  0  0  0  0  0
   29.4479   40.0160   21.8185 O   0  0  0  0  0  0  0  0  0  0  0  0
   27.3656   39.3838   20.8475 C   0  0  0  0  0  0  0  0  0  0  0  0
   27.5780   36.7006   20.0257 N   0  0  0  0  0  0  0  0  0  0  0  0
   27.6223   35.4000   19.5724 C   0  0  0  0  0  0  0  0  0  0  0  0
   27.6886   35.1693   18.3686 O   0  0  0  0  0  0  0  0  0  0  0  0
   27.5902   34.3499   20.4614 N   0  0  0  0  0  0  0  0  0  0  0  0
   27.5250   34.5913   21.8198 C   0  0  0  0  0  0  0  0  0  0  0  0
   27.4792   35.9003   22.2865 C   0  0  1  0  0  0  0  0  0  0  0  0
   27.5155   33.6475   22.6128 O   0  0  0  0  0  0  0  0  0  0  0  0
   27.3685   37.4505   24.1042 C   0  0  2  0  0  0  0  0  0  0  0  0
   27.4120   36.1487   23.6428 N   0  0  0  0  0  0  0  0  0  0  0  0
   27.3004   37.7002   25.4753 C   0  0  0  0  0  0  0  0  0  0  0  0
   27.2510   39.0056   25.9499 C   0  0  1  0  0  0  0  0  0  0  0  0
   27.1749   39.2351   27.4262 C   0  0  0  0  0  0  0  0  0  0  0  0
   27.2748   40.0775   25.0448 C   0  0  1  0  0  0  0  0  0  0  0  0
   27.2322   41.5048   25.5175 C   0  0  0  0  0  0  0  0  0  0  0  0
   27.3410   39.8251   23.6771 C   0  0  0  0  0  0  0  0  0  0  0  0
   27.3865   38.5143   23.1991 C   0  0  1  0  0  0  0  0  0  0  0  0
   27.5022   36.9580   21.3796 C   0  0  1  0  0  0  0  0  0  0  0  0
   27.4502   38.2608   21.8371 N   0  0  0  0  0  0  0  0  0  0  0  0
  1  2  1  1  0  0  0
  1  3  1  0  0  0  0
  1  4  2  0  0  0  0
  1  6  1  0  0  0  0
  5  6  1  0  0  0  0
  7  5  1  6  0  0  0
  7  8  1  0  0  0  0
  7  9  1  0  0  0  0
  9 10  1  1  0  0  0
  9 11  1  0  0  0  0
 11 12  1  1  0  0  0
 11 13  1  0  0  0  0
 13 31  1  0  0  0  0
 14 15  1  0  0  0  0
 15 16  2  0  0  0  0
 15 17  1  0  0  0  0
 17 18  1  0  0  0  0
 18 20  2  0  0  0  0
 19 18  1  1  0  0  0
 19 22  1  0  0  0  0
 19 30  1  0  0  0  0
 21 23  1  6  0  0  0
 21 29  1  0  0  0  0
 21 22  1  0  0  0  0
 23 24  1  0  0  0  0
 24 25  1  1  0  0  0
 24 26  1  0  0  0  0
 26 27  1  1  0  0  0
 26 28  1  0  0  0  0
 29 28  1  1  0  0  0
 29 31  1  0  0  0  0
 30 14  1  1  0  0  0
 30 31  1  0  0  0  0
M  CHG  1   3  -1
M  END
>  <CHROM.1>
99.81335574,70.31284696,63.52608583,72.63783208,-177.65621919,-158.16769323
86.56581204,27.32149118,39.53966100,20.86822796,-2.90117649,-1.45000015,1.07067952

>  <Name>
ligand

>  <RI>
0

>  <Rbt.Current_Directory>
/home/itssahil/PROJECTS/Mol_Feturizer/New_Systems/rnas/3F2T

>  <Rbt.Executable>
rbdock ($Id: //depot/dev/client3/rdock/2013.1/src/exe/rbdock.cxx#4 $)

>  <Rbt.Library>
libRbt.so (2013.1, Build901 2013/11/27)

>  <Rbt.Parameter_File>
/export/apps/rDock/src/rDock_2013.1_src/data/scripts/dock_solv.prm

>  <Rbt.Receptor>
prm/pocket_docking_6.prm

>  <SCORE>
-23.3204

>  <SCORE.INTER>
-26.2181

>  <SCORE.INTER.CONST>
1

>  <SCORE.INTER.POLAR>
0

>  <SCORE.INTER.ROT>
7

>  <SCORE.INTER.SOLV>
15.8314

>  <SCORE.INTER.VDW>
-31.0226

>  <SCORE.INTER.norm>
-0.845746

>  <SCORE.INTRA>
2.8977

>  <SCORE.INTRA.DIHEDRAL>
4.38955

>  <SCORE.INTRA.DIHEDRAL.0>
4.64198

>  <SCORE.INTRA.POLAR>
0

>  <SCORE.INTRA.POLAR.0>
0

>  <SCORE.INTRA.REPUL>
0

>  <SCORE.INTRA.REPUL.0>
0

>  <SCORE.INTRA.SOLV>
0.745728

>  <SCORE.INTRA.SOLV.lig_0>
-49.3611

>  <SCORE.INTRA.VDW>
0.330062

>  <SCORE.INTRA.VDW.0>
-1.91858

>  <SCORE.INTRA.norm>
0.0934743

>  <SCORE.RESTR>
0

>  <SCORE.RESTR.CAVITY>
0

>  <SCORE.RESTR.norm>
0

>  <SCORE.SYSTEM>
0

>  <SCORE.SYSTEM.CONST>
0

>  <SCORE.SYSTEM.DIHEDRAL>
0

>  <SCORE.SYSTEM.SOLV>
0

>  <SCORE.SYSTEM.norm>
0

>  <SCORE.heavy>
31

>  <SCORE.norm>
-0.752272

>  <RMSD>
2.504

$$$$
ligand
 OpenBabel11021811473D
libRbt.so/2013.1/901 2013/11/27
 31 33  0  0  0  0  0  0  0  0999 V2000
   25.5260   43.5920   16.2870 P   0  0  1  0  0  0  0  0  0  0  0  0
   24.2756   43.8636   15.4895 O   0  0  0  0  0  0  0  0  0  0  0  0
   26.4560   42.7505   15.4540 O   0  5  0  0  0  0  0  0  0  0  0  0
   26.1199   44.9323   16.6229 O   0  0  0  0  0  0  0  0  0  0  0  0
   26.3048   42.2798   18.4182 C   0  0  0  0  0  0  0  0  0  0  0  0
   25.2375   42.8037   17.6558 O   0  0  0  0  0  0  0  0  0  0  0  0
   25.7507   41.6584   19.6977 C   0  0  1  0  0  0  0  0  0  0  0  0
   24.9455   40.5417   19.3761 O   0  0  0  0  0  0  0  0  0  0  0  0
   26.8922   41.2042   20.5916 C   0  0  1  0  0  0  0  0  0  0  0  0
   26.4457   41.2143   21.9212 O   0  0  0  0  0  0  0  0  0  0  0  0
   27.3835   39.8078   20.2487 C   0  0  1  0  0  0  0  0  0  0  0  0
   27.7451   39.7892   18.8941 O   0  0  0  0  0  0  0  0  0  0  0  0
   28.5900   39.4342   21.0938 C   0  0  0  0  0  0  0  0  0  0  0  0
   28.3936   36.7704   20.2074 N   0  0  0  0  0  0  0  0  0  0  0  0
   28.2530   35.4921   19.7125 C   0  0  0  0  0  0  0  0  0  0  0  0
   28.5068   35.2561   18.5349 O   0  0  0  0  0  0  0  0  0  0  0  0
   27.8258   34.4706   20.5299 N   0  0  0  0  0  0  0  0  0  0  0  0
   27.5446   34.7162   21.8598 C   0  0  0  0  0  0  0  0  0  0  0  0
   27.6828   36.0031   22.3678 C   0  0  1  0  0  0  0  0  0  0  0  0
   27.1804   33.7941   22.5923 O   0  0  0  0  0  0  0  0  0  0  0  0
   27.5416   37.5355   24.1985 C   0  0  2  0  0  0  0  0  0  0  0  0
   27.4017   36.2561   23.6955 N   0  0  0  0  0  0  0  0  0  0  0  0
   27.2569   37.7898   25.5406 C   0  0  0  0  0  0  0  0  0  0  0  0
   27.3893   39.0740   26.0556 C   0  0  1  0  0  0  0  0  0  0  0  0
   27.0719   39.3099   27.4983 C   0  0  0  0  0  0  0  0  0  0  0  0
   27.8164   40.1185   25.2218 C   0  0  1  0  0  0  0  0  0  0  0  0
   27.9812   41.5202   25.7418 C   0  0  0  0  0  0  0  0  0  0  0  0
   28.0980   39.8619   23.8826 C   0  0  0  0  0  0  0  0  0  0  0  0
   27.9614   38.5733   23.3632 C   0  0  1  0  0  0  0  0  0  0  0  0
   28.1065   37.0340   21.5315 C   0  0  1  0  0  0  0  0  0  0  0  0
   28.2392   38.3162   22.0291 N   0  0  0  0  0  0  0  0  0  0  0  0
  1  2  1  6  0  0  0
  1  3  1  0  0  0  0
  1  4  2  0  0  0  0
  1  6  1  0  0  0  0
  5  6  1  0  0  0  0
  7  5  1  6  0  0  0
  7  8  1  0  0  0  0
  7  9  1  0  0  0  0
  9 10  1  1  0  0  0
  9 11  1  0  0  0  0
 11 12  1  6  0  0  0
 11 13  1  0  0  0  0
 13 31  1  0  0  0  0
 14 15  1  0  0  0  0
 15 16  2  0  0  0  0
 15 17  1  0  0  0  0
 17 18  1  0  0  0  0
 18 20  2  0  0  0  0
 19 18  1  1  0  0  0
 19 22  1  0  0  0  0
 19 30  1  0  0  0  0
 21 23  1  6  0  0  0
 21 29  1  0  0  0  0
 21 22  1  0  0  0  0
 23 24  1  0  0  0  0
 24 25  1  1  0  0  0
 24 26  1  0  0  0  0
 26 27  1  1  0  0  0
 26 28  1  0  0  0  0
 29 28  1  1  0  0  0
 29 31  1  0  0  0  0
 30 14  1  1  0  0  0
 30 31  1  0  0  0  0
M  CHG  1   3  -1
M  END
>  <CHROM.1>
176.72803229,169.80808986,65.31353415,153.67255087,55.89784758,113.22516656
-101.06277055,27.04153316,39.50274518,20.81322687,2.73670119,1.33049209,-1.99332890

>  <Name>
ligand

>  <RI>
0

>  <Rbt.Current_Directory>
/home/itssahil/PROJECTS/Mol_Feturizer/New_Systems/rnas/3F2T

>  <Rbt.Executable>
rbdock ($Id: //depot/dev/client3/rdock/2013.1/src/exe/rbdock.cxx#4 $)

>  <Rbt.Library>
libRbt.so (2013.1, Build901 2013/11/27)

>  <Rbt.Parameter_File>
/export/apps/rDock/src/rDock_2013.1_src/data/scripts/dock_solv.prm

>  <Rbt.Receptor>
prm/pocket_docking_5.prm

>  <SCORE>
-25.9756

>  <SCORE.INTER>
-28.2709

>  <SCORE.INTER.CONST>
1

>  <SCORE.INTER.POLAR>
0

>  <SCORE.INTER.ROT>
7

>  <SCORE.INTER.SOLV>
19.089

>  <SCORE.INTER.VDW>
-33.477

>  <SCORE.INTER.norm>
-0.911966

>  <SCORE.INTRA>
2.29529

>  <SCORE.INTRA.DIHEDRAL>
4.16715

>  <SCORE.INTRA.DIHEDRAL.0>
4.64198

>  <SCORE.INTRA.POLAR>
0

>  <SCORE.INTRA.POLAR.0>
0

>  <SCORE.INTRA.REPUL>
0

>  <SCORE.INTRA.REPUL.0>
0

>  <SCORE.INTRA.SOLV>
0.27879

>  <SCORE.INTRA.SOLV.lig_0>
-49.3611

>  <SCORE.INTRA.VDW>
0.0723221

>  <SCORE.INTRA.VDW.0>
-1.91858

>  <SCORE.INTRA.norm>
0.0740417

>  <SCORE.RESTR>
0

>  <SCORE.RESTR.CAVITY>
0

>  <SCORE.RESTR.norm>
0

>  <SCORE.SYSTEM>
0

>  <SCORE.SYSTEM.CONST>
0

>  <SCORE.SYSTEM.DIHEDRAL>
0

>  <SCORE.SYSTEM.SOLV>
0

>  <SCORE.SYSTEM.norm>
0

>  <SCORE.heavy>
31

>  <SCORE.norm>
-0.837924

>  <RMSD>
2.507

$$$$
ligand
 OpenBabel11021811473D
libRbt.so/2013.1/901 2013/11/27
 31 33  0  0  0  0  0  0  0  0999 V2000
   25.2875   43.7797   16.6414 P   0  0  1  0  0  0  0  0  0  0  0  0
   26.6823   44.1632   16.2163 O   0  0  0  0  0  0  0  0  0  0  0  0
   24.8452   44.7097   17.7398 O   0  5  0  0  0  0  0  0  0  0  0  0
   24.4202   43.8925   15.4178 O   0  0  0  0  0  0  0  0  0  0  0  0
   26.3148   41.6637   17.7979 C   0  0  0  0  0  0  0  0  0  0  0  0
   25.1928   42.2764   17.1976 O   0  0  0  0  0  0  0  0  0  0  0  0
   26.5189   42.2471   19.1937 C   0  0  1  0  0  0  0  0  0  0  0  0
   25.3805   41.9875   19.9908 O   0  0  0  0  0  0  0  0  0  0  0  0
   27.7358   41.6151   19.8483 C   0  0  1  0  0  0  0  0  0  0  0  0
   28.2506   42.5165   20.7916 O   0  0  0  0  0  0  0  0  0  0  0  0
   27.4101   40.3055   20.5467 C   0  0  1  0  0  0  0  0  0  0  0  0
   26.8496   39.4320   19.6040 O   0  0  0  0  0  0  0  0  0  0  0  0
   28.6639   39.6749   21.1297 C   0  0  0  0  0  0  0  0  0  0  0  0
   28.4526   37.0444   20.1521 N   0  0  0  0  0  0  0  0  0  0  0  0
   28.3055   35.7847   19.6133 C   0  0  0  0  0  0  0  0  0  0  0  0
   28.5658   35.5866   18.4301 O   0  0  0  0  0  0  0  0  0  0  0  0
   27.8644   34.7397   20.3926 N   0  0  0  0  0  0  0  0  0  0  0  0
   27.5756   34.9424   21.7280 C   0  0  0  0  0  0  0  0  0  0  0  0
   27.7204   36.2102   22.2804 C   0  0  1  0  0  0  0  0  0  0  0  0
   27.1989   33.9990   22.4264 O   0  0  0  0  0  0  0  0  0  0  0  0
   27.5782   37.6808   24.1610 C   0  0  2  0  0  0  0  0  0  0  0  0
   27.4318   36.4203   23.6139 N   0  0  0  0  0  0  0  0  0  0  0  0
   27.2860   37.8918   25.5089 C   0  0  0  0  0  0  0  0  0  0  0  0
   27.4248   39.1568   26.0680 C   0  0  1  0  0  0  0  0  0  0  0  0
   27.0990   39.3464   27.5157 C   0  0  0  0  0  0  0  0  0  0  0  0
   27.8661   40.2254   25.2731 C   0  0  1  0  0  0  0  0  0  0  0  0
   28.0384   41.6073   25.8414 C   0  0  0  0  0  0  0  0  0  0  0  0
   28.1553   40.0120   23.9279 C   0  0  0  0  0  0  0  0  0  0  0  0
   28.0122   38.7429   23.3642 C   0  0  1  0  0  0  0  0  0  0  0  0
   28.1582   37.2653   21.4824 C   0  0  1  0  0  0  0  0  0  0  0  0
   28.2975   38.5288   22.0241 N   0  0  0  0  0  0  0  0  0  0  0  0
  1  2  1  6  0  0  0
  1  3  1  0  0  0  0
  1  4  2  0  0  0  0
  1  6  1  0  0  0  0
  5  6  1  0  0  0  0
  7  5  1  6  0  0  0
  7  8  1  0  0  0  0
  7  9  1  0  0  0  0
  9 10  1  1  0  0  0
  9 11  1  0  0  0  0
 11 12  1  6  0  0  0
 11 13  1  0  0  0  0
 13 31  1  0  0  0  0
 14 15  1  0  0  0  0
 15 16  2  0  0  0  0
 15 17  1  0  0  0  0
 17 18  1  0  0  0  0
 18 20  2  0  0  0  0
 19 18  1  1  0  0  0
 19 22  1  0  0  0  0
 19 30  1  0  0  0  0
 21 23  1  6  0  0  0
 21 29  1  0  0  0  0
 21 22  1  0  0  0  0
 23 24  1  0  0  0  0
 24 25  1  1  0  0  0
 24 26  1  0  0  0  0
 26 27  1  1  0  0  0
 26 28  1  0  0  0  0
 29 28  1  1  0  0  0
 29 31  1  0  0  0  0
 30 14  1  1  0  0  0
 30 31  1  0  0  0  0
M  CHG  1   3  -1
M  END
>  <CHROM.1>
74.63803370,27.75529768,60.95482194,154.02745614,57.45982574,169.56985207
-87.28151419,27.11235836,39.75537548,20.82374644,2.90976118,1.32711159,-2.13500803

>  <Name>
ligand

>  <RI>
0

>  <Rbt.Current_Directory>
/home/itssahil/PROJECTS/Mol_Feturizer/New_Systems/rnas/3F2T

>  <Rbt.Executable>
rbdock ($Id: //depot/dev/client3/rdock/2013.1/src/exe/rbdock.cxx#4 $)

>  <Rbt.Library>
libRbt.so (2013.1, Build901 2013/11/27)

>  <Rbt.Parameter_File>
/export/apps/rDock/src/rDock_2013.1_src/data/scripts/dock_solv.prm

>  <Rbt.Receptor>
prm/pocket_docking_6.prm

>  <SCORE>
-27.1478

>  <SCORE.INTER>
-28.4564

>  <SCORE.INTER.CONST>
1

>  <SCORE.INTER.POLAR>
0

>  <SCORE.INTER.ROT>
7

>  <SCORE.INTER.SOLV>
16.5347

>  <SCORE.INTER.VDW>
-32.7492

>  <SCORE.INTER.norm>
-0.917949

>  <SCORE.INTRA>
1.30863

>  <SCORE.INTRA.DIHEDRAL>
1.36505

>  <SCORE.INTRA.DIHEDRAL.0>
4.64198

>  <SCORE.INTRA.POLAR>
0

>  <SCORE.INTRA.POLAR.0>
0

>  <SCORE.INTRA.REPUL>
0

>  <SCORE.INTRA.REPUL.0>
0

>  <SCORE.INTRA.SOLV>
1.18546

>  <SCORE.INTRA.SOLV.lig_0>
-49.3611

>  <SCORE.INTRA.VDW>
0.0333739

>  <SCORE.INTRA.VDW.0>
-1.91858

>  <SCORE.INTRA.norm>
0.0422139

>  <SCORE.RESTR>
0

>  <SCORE.RESTR.CAVITY>
0

>  <SCORE.RESTR.norm>
0

>  <SCORE.SYSTEM>
0

>  <SCORE.SYSTEM.CONST>
0

>  <SCORE.SYSTEM.DIHEDRAL>
0

>  <SCORE.SYSTEM.SOLV>
0

>  <SCORE.SYSTEM.norm>
0

>  <SCORE.heavy>
31

>  <SCORE.norm>
-0.875735

>  <RMSD>
2.543

$$$$
ligand
 OpenBabel11021811473D
libRbt.so/2013.1/901 2013/11/27
 31 33  0  0  0  0  0  0  0  0999 V2000
   25.6407   43.8664   16.3933 P   0  0  1  0  0  0  0  0  0  0  0  0
   26.5221   45.0895   16.4110 O   0  0  0  0  0  0  0  0  0  0  0  0
   24.2786   44.2608   15.8873 O   0  5  0  0  0  0  0  0  0  0  0  0
   26.3133   42.8663   15.4936 O   0  0  0  0  0  0  0  0  0  0  0  0
   26.5388   42.5510   18.4750 C   0  0  0  0  0  0  0  0  0  0  0  0
   25.4571   43.2049   17.8448 O   0  0  0  0  0  0  0  0  0  0  0  0
   26.1553   42.2189   19.9147 C   0  0  1  0  0  0  0  0  0  0  0  0
   25.1272   41.2485   19.9232 O   0  0  0  0  0  0  0  0  0  0  0  0
   27.3601   41.6698   20.6601 C   0  0  1  0  0  0  0  0  0  0  0  0
   27.2062   41.9562   22.0245 O   0  0  0  0  0  0  0  0  0  0  0  0
   27.5198   40.1685   20.4880 C   0  0  1  0  0  0  0  0  0  0  0  0
   27.6956   39.8986   19.1234 O   0  0  0  0  0  0  0  0  0  0  0  0
   28.7267   39.6593   21.2583 C   0  0  0  0  0  0  0  0  0  0  0  0
   28.4146   37.0508   20.2492 N   0  0  0  0  0  0  0  0  0  0  0  0
   28.2184   35.8042   19.6957 C   0  0  0  0  0  0  0  0  0  0  0  0
   28.4595   35.6131   18.5073 O   0  0  0  0  0  0  0  0  0  0  0  0
   27.7495   34.7648   20.4662 N   0  0  0  0  0  0  0  0  0  0  0  0
   27.4818   34.9596   21.8071 C   0  0  0  0  0  0  0  0  0  0  0  0
   27.6760   36.2142   22.3742 C   0  0  1  0  0  0  0  0  0  0  0  0
   27.0799   34.0205   22.4972 O   0  0  0  0  0  0  0  0  0  0  0  0
   27.6041   37.6636   24.2751 C   0  0  2  0  0  0  0  0  0  0  0  0
   27.4086   36.4164   23.7134 N   0  0  0  0  0  0  0  0  0  0  0  0
   27.3334   37.8667   25.6287 C   0  0  0  0  0  0  0  0  0  0  0  0
   27.5217   39.1185   26.2026 C   0  0  1  0  0  0  0  0  0  0  0  0
   27.2176   39.3000   27.6561 C   0  0  0  0  0  0  0  0  0  0  0  0
   27.9914   40.1818   25.4169 C   0  0  1  0  0  0  0  0  0  0  0  0
   28.2172   41.5493   26.0011 C   0  0  0  0  0  0  0  0  0  0  0  0
   28.2591   39.9765   24.0660 C   0  0  0  0  0  0  0  0  0  0  0  0
   28.0664   38.7207   23.4875 C   0  0  1  0  0  0  0  0  0  0  0  0
   28.1417   37.2641   21.5853 C   0  0  1  0  0  0  0  0  0  0  0  0
   28.3303   38.5147   22.1417 N   0  0  0  0  0  0  0  0  0  0  0  0
  1  2  1  1  0  0  0
  1  3  1  0  0  0  0
  1  4  2  0  0  0  0
  1  6  1  0  0  0  0
  5  6  1  0  0  0  0
  7  5  1  6  0  0  0
  7  8  1  0  0  0  0
  7  9  1  0  0  0  0
  9 10  1  1  0  0  0
  9 11  1  0  0  0  0
 11 12  1  6  0  0  0
 11 13  1  0  0  0  0
 13 31  1  0  0  0  0
 14 15  1  0  0  0  0
 15 16  2  0  0  0  0
 15 17  1  0  0  0  0
 17 18  1  0  0  0  0
 18 20  2  0  0  0  0
 19 18  1  1  0  0  0
 19 22  1  0  0  0  0
 19 30  1  0  0  0  0
 21 23  1  6  0  0  0
 21 29  1  0  0  0  0
 21 22  1  0  0  0  0
 23 24  1  0  0  0  0
 24 25  1  1  0  0  0
 24 26  1  0  0  0  0
 26 27  1  1  0  0  0
 26 28  1  0  0  0  0
 29 28  1  1  0  0  0
 29 31  1  0  0  0  0
 30 14  1  1  0  0  0
 30 31  1  0  0  0  0
M  CHG  1   3  -1
M  END
>  <CHROM.1>
171.04039948,-69.72749187,66.98240726,152.73772788,60.68329521,127.73780905
-98.23523550,27.16551478,39.76408488,20.92349505,2.86585610,1.35511069,-2.12183086

>  <Name>
ligand

>  <RI>
0

>  <Rbt.Current_Directory>
/home/itssahil/PROJECTS/Mol_Feturizer/New_Systems/rnas/3F2T

>  <Rbt.Executable>
rbdock ($Id: //depot/dev/client3/rdock/2013.1/src/exe/rbdock.cxx#4 $)

>  <Rbt.Library>
libRbt.so (2013.1, Build901 2013/11/27)

>  <Rbt.Parameter_File>
/export/apps/rDock/src/rDock_2013.1_src/data/scripts/dock_solv.prm

>  <Rbt.Receptor>
prm/blind_docking_60.prm

>  <SCORE>
-25.8858

>  <SCORE.INTER>
-28.0821

>  <SCORE.INTER.CONST>
1

>  <SCORE.INTER.POLAR>
0

>  <SCORE.INTER.ROT>
7

>  <SCORE.INTER.SOLV>
16.5158

>  <SCORE.INTER.VDW>
-32.4934

>  <SCORE.INTER.norm>
-0.905875

>  <SCORE.INTRA>
2.19638

>  <SCORE.INTRA.DIHEDRAL>
4.56536

>  <SCORE.INTRA.DIHEDRAL.0>
4.64198

>  <SCORE.INTRA.POLAR>
0

>  <SCORE.INTRA.POLAR.0>
0

>  <SCORE.INTRA.REPUL>
0

>  <SCORE.INTRA.REPUL.0>
0

>  <SCORE.INTRA.SOLV>
-0.265048

>  <SCORE.INTRA.SOLV.lig_0>
-49.3611

>  <SCORE.INTRA.VDW>
0.0462226

>  <SCORE.INTRA.VDW.0>
-1.91858

>  <SCORE.INTRA.norm>
0.0708508

>  <SCORE.RESTR>
0

>  <SCORE.RESTR.CAVITY>
0

>  <SCORE.RESTR.norm>
0

>  <SCORE.SYSTEM>
0

>  <SCORE.SYSTEM.CONST>
0

>  <SCORE.SYSTEM.DIHEDRAL>
0

>  <SCORE.SYSTEM.SOLV>
0

>  <SCORE.SYSTEM.norm>
0

>  <SCORE.heavy>
31

>  <SCORE.norm>
-0.835024

>  <RMSD>
2.612

$$$$
ligand
 OpenBabel11021811473D
libRbt.so/2013.1/901 2013/11/27
 31 33  0  0  0  0  0  0  0  0999 V2000
   24.8930   41.8467   18.7538 P   0  0  1  0  0  0  0  0  0  0  0  0
   24.0954   40.7504   19.4134 O   0  0  0  0  0  0  0  0  0  0  0  0
   23.9770   42.6374   17.8579 O   0  5  0  0  0  0  0  0  0  0  0  0
   25.4670   42.6857   19.8622 O   0  0  0  0  0  0  0  0  0  0  0  0
   27.0020   42.1821   17.2338 C   0  0  0  0  0  0  0  0  0  0  0  0
   26.1024   41.2890   17.8567 O   0  0  0  0  0  0  0  0  0  0  0  0
   28.0915   41.3834   16.5230 C   0  0  1  0  0  0  0  0  0  0  0  0
   28.8368   42.2386   15.6793 O   0  0  0  0  0  0  0  0  0  0  0  0
   29.0269   40.7574   17.5438 C   0  0  1  0  0  0  0  0  0  0  0  0
   29.4112   41.7478   18.4596 O   0  0  0  0  0  0  0  0  0  0  0  0
   28.3810   39.6103   18.3025 C   0  0  1  0  0  0  0  0  0  0  0  0
   27.6688   38.8229   17.3867 O   0  0  0  0  0  0  0  0  0  0  0  0
   29.4321   38.7531   18.9881 C   0  0  0  0  0  0  0  0  0  0  0  0
   28.8101   36.0139   19.1614 N   0  0  0  0  0  0  0  0  0  0  0  0
   28.4680   34.6792   19.1764 C   0  0  0  0  0  0  0  0  0  0  0  0
   28.7106   33.9702   18.2041 O   0  0  0  0  0  0  0  0  0  0  0  0
   27.8507   34.1295   20.2768 N   0  0  0  0  0  0  0  0  0  0  0  0
   27.5785   34.9104   21.3831 C   0  0  0  0  0  0  0  0  0  0  0  0
   27.9194   36.2584   21.3768 C   0  0  1  0  0  0  0  0  0  0  0  0
   27.0425   34.4090   22.3735 O   0  0  0  0  0  0  0  0  0  0  0  0
   27.9899   38.3840   22.4706 C   0  0  2  0  0  0  0  0  0  0  0  0
   27.6485   37.0450   22.4785 N   0  0  0  0  0  0  0  0  0  0  0  0
   27.7155   39.1780   23.5846 C   0  0  0  0  0  0  0  0  0  0  0  0
   28.0500   40.5271   23.5851 C   0  0  1  0  0  0  0  0  0  0  0  0
   27.7373   41.3483   24.7958 C   0  0  0  0  0  0  0  0  0  0  0  0
   28.6715   41.0914   22.4609 C   0  0  1  0  0  0  0  0  0  0  0  0
   29.0579   42.5446   22.4246 C   0  0  0  0  0  0  0  0  0  0  0  0
   28.9426   40.2969   21.3501 C   0  0  0  0  0  0  0  0  0  0  0  0
   28.6033   38.9427   21.3468 C   0  0  1  0  0  0  0  0  0  0  0  0
   28.5353   36.8097   20.2552 C   0  0  1  0  0  0  0  0  0  0  0  0
   28.8704   38.1502   20.2405 N   0  0  0  0  0  0  0  0  0  0  0  0
  1  2  1  1  0  0  0
  1  3  1  0  0  0  0
  1  4  2  0  0  0  0
  1  6  1  0  0  0  0
  5  6  1  0  0  0  0
  7  5  1  1  0  0  0
  7  8  1  0  0  0  0
  7  9  1  0  0  0  0
  9 10  1  1  0  0  0
  9 11  1  0  0  0  0
 11 12  1  6  0  0  0
 11 13  1  0  0  0  0
 13 31  1  0  0  0  0
 14 15  1  0  0  0  0
 15 16  2  0  0  0  0
 15 17  1  0  0  0  0
 17 18  1  0  0  0  0
 18 20  2  0  0  0  0
 19 18  1  1  0  0  0
 19 22  1  0  0  0  0
 19 30  1  0  0  0  0
 21 23  1  6  0  0  0
 21 29  1  0  0  0  0
 21 22  1  0  0  0  0
 23 24  1  0  0  0  0
 24 25  1  1  0  0  0
 24 26  1  0  0  0  0
 26 27  1  1  0  0  0
 26 28  1  0  0  0  0
 29 28  1  1  0  0  0
 29 31  1  0  0  0  0
 30 14  1  1  0  0  0
 30 31  1  0  0  0  0
M  CHG  1   3  -1
M  END
>  <CHROM.1>
176.54874733,-176.06879253,168.29484078,-48.88129911,43.00823623,149.68638050
-70.41091915,27.59079596,39.32148143,19.87819010,-2.94032258,-1.33652760
1.39407174

>  <Name>
ligand

>  <RI>
0

>  <Rbt.Current_Directory>
/home/itssahil/PROJECTS/Mol_Feturizer/New_Systems/rnas/3F2T

>  <Rbt.Executable>
rbdock ($Id: //depot/dev/client3/rdock/2013.1/src/exe/rbdock.cxx#4 $)

>  <Rbt.Library>
libRbt.so (2013.1, Build901 2013/11/27)

>  <Rbt.Parameter_File>
/export/apps/rDock/src/rDock_2013.1_src/data/scripts/dock_solv.prm

>  <Rbt.Receptor>
prm/pocket_docking_4.prm

>  <SCORE>
-20.5252

>  <SCORE.INTER>
-21.3381

>  <SCORE.INTER.CONST>
1

>  <SCORE.INTER.POLAR>
0

>  <SCORE.INTER.ROT>
7

>  <SCORE.INTER.SOLV>
18.9205

>  <SCORE.INTER.VDW>
-28.7989

>  <SCORE.INTER.norm>
-0.688326

>  <SCORE.INTRA>
0.812864

>  <SCORE.INTRA.DIHEDRAL>
1.15863

>  <SCORE.INTRA.DIHEDRAL.0>
4.64198

>  <SCORE.INTRA.POLAR>
0

>  <SCORE.INTRA.POLAR.0>
0

>  <SCORE.INTRA.REPUL>
0

>  <SCORE.INTRA.REPUL.0>
0

>  <SCORE.INTRA.SOLV>
0.684417

>  <SCORE.INTRA.SOLV.lig_0>
-49.3611

>  <SCORE.INTRA.VDW>
-0.10866

>  <SCORE.INTRA.VDW.0>
-1.91858

>  <SCORE.INTRA.norm>
0.0262214

>  <SCORE.RESTR>
0

>  <SCORE.RESTR.CAVITY>
0

>  <SCORE.RESTR.norm>
0

>  <SCORE.SYSTEM>
0

>  <SCORE.SYSTEM.CONST>
0

>  <SCORE.SYSTEM.DIHEDRAL>
0

>  <SCORE.SYSTEM.SOLV>
0

>  <SCORE.SYSTEM.norm>
0

>  <SCORE.heavy>
31

>  <SCORE.norm>
-0.662104

>  <RMSD>
2.612

$$$$
ligand
 OpenBabel11021811473D
libRbt.so/2013.1/901 2013/11/27
 31 33  0  0  0  0  0  0  0  0999 V2000
   27.2328   42.9367   16.5381 P   0  0  1  0  0  0  0  0  0  0  0  0
   28.1570   44.1198   16.3990 O   0  0  0  0  0  0  0  0  0  0  0  0
   26.4900   43.0557   17.8423 O   0  5  0  0  0  0  0  0  0  0  0  0
   26.3082   42.9732   15.3523 O   0  0  0  0  0  0  0  0  0  0  0  0
   29.1630   41.3507   17.3314 C   0  0  0  0  0  0  0  0  0  0  0  0
   28.0092   41.5312   16.5370 O   0  0  0  0  0  0  0  0  0  0  0  0
   29.6838   39.9280   17.1449 C   0  0  1  0  0  0  0  0  0  0  0  0
   30.8177   39.7235   17.9642 O   0  0  0  0  0  0  0  0  0  0  0  0
   28.6082   38.9262   17.5298 C   0  0  1  0  0  0  0  0  0  0  0  0
   29.1279   37.6334   17.3689 O   0  0  0  0  0  0  0  0  0  0  0  0
   28.1408   39.0929   18.9659 C   0  0  1  0  0  0  0  0  0  0  0  0
   27.0058   38.2915   19.1548 O   0  0  0  0  0  0  0  0  0  0  0  0
   29.2237   38.6647   19.9423 C   0  0  0  0  0  0  0  0  0  0  0  0
   28.3024   36.0518   20.4363 N   0  0  0  0  0  0  0  0  0  0  0  0
   27.8138   34.7748   20.6079 C   0  0  0  0  0  0  0  0  0  0  0  0
   27.9653   33.9338   19.7266 O   0  0  0  0  0  0  0  0  0  0  0  0
   27.1512   34.4309   21.7640 N   0  0  0  0  0  0  0  0  0  0  0  0
   26.9798   35.3619   22.7699 C   0  0  0  0  0  0  0  0  0  0  0  0
   27.4687   36.6531   22.6053 C   0  0  1  0  0  0  0  0  0  0  0  0
   26.4021   35.0435   23.8113 O   0  0  0  0  0  0  0  0  0  0  0  0
   27.7876   38.8712   23.4407 C   0  0  2  0  0  0  0  0  0  0  0  0
   27.2992   37.5891   23.6058 N   0  0  0  0  0  0  0  0  0  0  0  0
   27.6156   39.8163   24.4526 C   0  0  0  0  0  0  0  0  0  0  0  0
   28.0983   41.1101   24.2948 C   0  0  1  0  0  0  0  0  0  0  0  0
   27.8923   42.0977   25.3994 C   0  0  0  0  0  0  0  0  0  0  0  0
   28.7665   41.4653   23.1133 C   0  0  1  0  0  0  0  0  0  0  0  0
   29.3120   42.8517   22.9066 C   0  0  0  0  0  0  0  0  0  0  0  0
   28.9352   40.5204   22.1046 C   0  0  0  0  0  0  0  0  0  0  0  0
   28.4471   39.2217   22.2603 C   0  0  1  0  0  0  0  0  0  0  0  0
   28.1299   36.9964   21.4278 C   0  0  1  0  0  0  0  0  0  0  0  0
   28.6120   38.2799   21.2559 N   0  0  0  0  0  0  0  0  0  0  0  0
  1  2  1  6  0  0  0
  1  3  1  0  0  0  0
  1  4  2  0  0  0  0
  1  6  1  0  0  0  0
  5  6  1  0  0  0  0
  7  5  1  1  0  0  0
  7  8  1  0  0  0  0
  7  9  1  0  0  0  0
  9 10  1  1  0  0  0
  9 11  1  0  0  0  0
 11 12  1  6  0  0  0
 11 13  1  0  0  0  0
 13 31  1  0  0  0  0
 14 15  1  0  0  0  0
 15 16  2  0  0  0  0
 15 17  1  0  0  0  0
 17 18  1  0  0  0  0
 18 20  2  0  0  0  0
 19 18  1  1  0  0  0
 19 22  1  0  0  0  0
 19 30  1  0  0  0  0
 21 23  1  6  0  0  0
 21 29  1  0  0  0  0
 21 22  1  0  0  0  0
 23 24  1  0  0  0  0
 24 25  1  1  0  0  0
 24 26  1  0  0  0  0
 26 27  1  1  0  0  0
 26 28  1  0  0  0  0
 29 28  1  1  0  0  0
 29 31  1  0  0  0  0
 30 14  1  1  0  0  0
 30 31  1  0  0  0  0
M  CHG  1   3  -1
M  END
>  <CHROM.1>
179.56496520,46.50464585,-178.37104568,-178.98084983,170.06026382,-156.22098785
-90.98666810,28.05272596,39.34396887,20.15003896,0.00263243,1.53780168,0.77853877

>  <Name>
ligand

>  <RI>
0

>  <Rbt.Current_Directory>
/home/itssahil/PROJECTS/Mol_Feturizer/New_Systems/rnas/3F2T

>  <Rbt.Executable>
rbdock ($Id: //depot/dev/client3/rdock/2013.1/src/exe/rbdock.cxx#4 $)

>  <Rbt.Library>
libRbt.so (2013.1, Build901 2013/11/27)

>  <Rbt.Parameter_File>
/export/apps/rDock/src/rDock_2013.1_src/data/scripts/dock_solv.prm

>  <Rbt.Receptor>
prm/pocket_docking_8.prm

>  <SCORE>
-25.8939

>  <SCORE.INTER>
-26.6628

>  <SCORE.INTER.CONST>
1

>  <SCORE.INTER.POLAR>
0

>  <SCORE.INTER.ROT>
7

>  <SCORE.INTER.SOLV>
17.5482

>  <SCORE.INTER.VDW>
-31.8912

>  <SCORE.INTER.norm>
-0.860089

>  <SCORE.INTRA>
0.765714

>  <SCORE.INTRA.DIHEDRAL>
-1.08053

>  <SCORE.INTRA.DIHEDRAL.0>
4.64198

>  <SCORE.INTRA.POLAR>
0

>  <SCORE.INTRA.POLAR.0>
0

>  <SCORE.INTRA.REPUL>
0

>  <SCORE.INTRA.REPUL.0>
0

>  <SCORE.INTRA.SOLV>
-0.20297

>  <SCORE.INTRA.SOLV.lig_0>
-49.3611

>  <SCORE.INTRA.VDW>
1.40746

>  <SCORE.INTRA.VDW.0>
-1.91858

>  <SCORE.INTRA.norm>
0.0247004

>  <SCORE.RESTR>
0.00316564

>  <SCORE.RESTR.CAVITY>
0.00316564

>  <SCORE.RESTR.norm>
0.000102118

>  <SCORE.SYSTEM>
0

>  <SCORE.SYSTEM.CONST>
0

>  <SCORE.SYSTEM.DIHEDRAL>
0

>  <SCORE.SYSTEM.SOLV>
0

>  <SCORE.SYSTEM.norm>
0

>  <SCORE.heavy>
31

>  <SCORE.norm>
-0.835286

>  <RMSD>
2.639

$$$$
ligand
 OpenBabel11021811473D
libRbt.so/2013.1/901 2013/11/27
 31 33  0  0  0  0  0  0  0  0999 V2000
   26.7354   42.3965   16.6298 P   0  0  1  0  0  0  0  0  0  0  0  0
   27.3149   41.0522   16.2690 O   0  0  0  0  0  0  0  0  0  0  0  0
   27.7495   43.1564   17.4428 O   0  5  0  0  0  0  0  0  0  0  0  0
   26.4142   43.0870   15.3328 O   0  0  0  0  0  0  0  0  0  0  0  0
   25.3525   41.4936   18.6652 C   0  0  0  0  0  0  0  0  0  0  0  0
   25.3883   42.2861   17.4967 O   0  0  0  0  0  0  0  0  0  0  0  0
   26.1465   42.1887   19.7682 C   0  0  1  0  0  0  0  0  0  0  0  0
   25.3939   42.1977   20.9649 O   0  0  0  0  0  0  0  0  0  0  0  0
   27.4532   41.4522   20.0111 C   0  0  1  0  0  0  0  0  0  0  0  0
   28.2468   42.2276   20.8690 O   0  0  0  0  0  0  0  0  0  0  0  0
   27.2452   40.0833   20.6370 C   0  0  1  0  0  0  0  0  0  0  0  0
   26.9217   39.1777   19.6166 O   0  0  0  0  0  0  0  0  0  0  0  0
   28.5059   39.6122   21.3429 C   0  0  0  0  0  0  0  0  0  0  0  0
   28.1951   36.9797   20.3978 N   0  0  0  0  0  0  0  0  0  0  0  0
   27.9956   35.7193   19.8777 C   0  0  0  0  0  0  0  0  0  0  0  0
   28.1726   35.5118   18.6809 O   0  0  0  0  0  0  0  0  0  0  0  0
   27.5950   34.6842   20.6914 N   0  0  0  0  0  0  0  0  0  0  0  0
   27.4000   34.8976   22.0421 C   0  0  0  0  0  0  0  0  0  0  0  0
   27.5981   36.1662   22.5757 C   0  0  1  0  0  0  0  0  0  0  0  0
   27.0594   33.9629   22.7700 O   0  0  0  0  0  0  0  0  0  0  0  0
   27.6026   37.6482   24.4527 C   0  0  2  0  0  0  0  0  0  0  0  0
   27.4033   36.3870   23.9244 N   0  0  0  0  0  0  0  0  0  0  0  0
   27.4052   37.8700   25.8161 C   0  0  0  0  0  0  0  0  0  0  0  0
   27.5978   39.1359   26.3568 C   0  0  1  0  0  0  0  0  0  0  0  0
   27.3733   39.3372   27.8221 C   0  0  0  0  0  0  0  0  0  0  0  0
   27.9979   40.1945   25.5275 C   0  0  1  0  0  0  0  0  0  0  0  0
   28.2260   41.5769   26.0745 C   0  0  0  0  0  0  0  0  0  0  0  0
   28.1925   39.9704   24.1671 C   0  0  0  0  0  0  0  0  0  0  0  0
   27.9952   38.7004   23.6220 C   0  0  1  0  0  0  0  0  0  0  0  0
   27.9944   37.2113   21.7436 C   0  0  1  0  0  0  0  0  0  0  0  0
   28.1863   38.4757   22.2670 N   0  0  0  0  0  0  0  0  0  0  0  0
  1  2  1  6  0  0  0
  1  3  1  0  0  0  0
  1  4  2  0  0  0  0
  1  6  1  0  0  0  0
  5  6  1  0  0  0  0
  7  5  1  6  0  0  0
  7  8  1  0  0  0  0
  7  9  1  0  0  0  0
  9 10  1  1  0  0  0
  9 11  1  0  0  0  0
 11 12  1  6  0  0  0
 11 13  1  0  0  0  0
 13 31  1  0  0  0  0
 14 15  1  0  0  0  0
 15 16  2  0  0  0  0
 15 17  1  0  0  0  0
 17 18  1  0  0  0  0
 18 20  2  0  0  0  0
 19 18  1  1  0  0  0
 19 22  1  0  0  0  0
 19 30  1  0  0  0  0
 21 23  1  6  0  0  0
 21 29  1  0  0  0  0
 21 22  1  0  0  0  0
 23 24  1  0  0  0  0
 24 25  1  1  0  0  0
 24 26  1  0  0  0  0
 26 27  1  1  0  0  0
 26 28  1  0  0  0  0
 29 28  1  1  0  0  0
 29 31  1  0  0  0  0
 30 14  1  1  0  0  0
 30 31  1  0  0  0  0
M  CHG  1   3  -1
M  END
>  <CHROM.1>
72.54027241,51.85533012,132.37898748,170.75784658,81.97129306,164.01421196
-98.11550404,27.32835802,39.41046765,21.06563096,2.85881905,1.44305279,-2.26457722

>  <Name>
ligand

>  <RI>
0

>  <Rbt.Current_Directory>
/home/itssahil/PROJECTS/Mol_Feturizer/New_Systems/rnas/3F2T

>  <Rbt.Executable>
rbdock ($Id: //depot/dev/client3/rdock/2013.1/src/exe/rbdock.cxx#4 $)

>  <Rbt.Library>
libRbt.so (2013.1, Build901 2013/11/27)

>  <Rbt.Parameter_File>
/export/apps/rDock/src/rDock_2013.1_src/data/scripts/dock_solv.prm

>  <Rbt.Receptor>
prm/pocket_docking_5.prm

>  <SCORE>
-24.1023

>  <SCORE.INTER>
-28.127

>  <SCORE.INTER.CONST>
1

>  <SCORE.INTER.POLAR>
0

>  <SCORE.INTER.ROT>
7

>  <SCORE.INTER.SOLV>
17.5241

>  <SCORE.INTER.VDW>
-32.8594

>  <SCORE.INTER.norm>
-0.907324

>  <SCORE.INTRA>
4.02472

>  <SCORE.INTRA.DIHEDRAL>
4.83945

>  <SCORE.INTRA.DIHEDRAL.0>
4.64198

>  <SCORE.INTRA.POLAR>
0

>  <SCORE.INTRA.POLAR.0>
0

>  <SCORE.INTRA.REPUL>
0

>  <SCORE.INTRA.REPUL.0>
0

>  <SCORE.INTRA.SOLV>
2.37757

>  <SCORE.INTRA.SOLV.lig_0>
-49.3611

>  <SCORE.INTRA.VDW>
0.416213

>  <SCORE.INTRA.VDW.0>
-1.91858

>  <SCORE.INTRA.norm>
0.12983

>  <SCORE.RESTR>
0

>  <SCORE.RESTR.CAVITY>
0

>  <SCORE.RESTR.norm>
0

>  <SCORE.SYSTEM>
0

>  <SCORE.SYSTEM.CONST>
0

>  <SCORE.SYSTEM.DIHEDRAL>
0

>  <SCORE.SYSTEM.SOLV>
0

>  <SCORE.SYSTEM.norm>
0

>  <SCORE.heavy>
31

>  <SCORE.norm>
-0.777494

>  <RMSD>
2.647

$$$$
ligand
 OpenBabel11021811473D
libRbt.so/2013.1/901 2013/11/27
 31 33  0  0  0  0  0  0  0  0999 V2000
   28.8067   41.8069   16.7203 P   0  0  1  0  0  0  0  0  0  0  0  0
   30.1119   42.3665   17.2268 O   0  0  0  0  0  0  0  0  0  0  0  0
   28.2284   42.7666   15.7146 O   0  5  0  0  0  0  0  0  0  0  0  0
   29.1216   40.4679   16.1120 O   0  0  0  0  0  0  0  0  0  0  0  0
   27.1950   42.7064   18.5815 C   0  0  0  0  0  0  0  0  0  0  0  0
   27.7212   41.5963   17.8846 O   0  0  0  0  0  0  0  0  0  0  0  0
   26.7776   42.2680   19.9828 C   0  0  1  0  0  0  0  0  0  0  0  0
   25.6196   41.4607   19.9052 O   0  0  0  0  0  0  0  0  0  0  0  0
   27.8951   41.4690   20.6319 C   0  0  1  0  0  0  0  0  0  0  0  0
   28.1107   41.9749   21.9222 O   0  0  0  0  0  0  0  0  0  0  0  0
   27.5726   39.9875   20.7324 C   0  0  1  0  0  0  0  0  0  0  0  0
   27.2317   39.5240   19.4537 O   0  0  0  0  0  0  0  0  0  0  0  0
   28.7700   39.2050   21.2455 C   0  0  0  0  0  0  0  0  0  0  0  0
   28.4884   36.5600   20.3264 N   0  0  0  0  0  0  0  0  0  0  0  0
   28.3107   35.2934   19.8137 C   0  0  0  0  0  0  0  0  0  0  0  0
   28.6141   35.0523   18.6489 O   0  0  0  0  0  0  0  0  0  0  0  0
   27.7909   34.2895   20.5986 N   0  0  0  0  0  0  0  0  0  0  0  0
   27.4527   34.5406   21.9140 C   0  0  0  0  0  0  0  0  0  0  0  0
   27.6277   35.8158   22.4399 C   0  0  1  0  0  0  0  0  0  0  0  0
   27.0051   33.6333   22.6184 O   0  0  0  0  0  0  0  0  0  0  0  0
   27.4666   37.3419   24.2743 C   0  0  2  0  0  0  0  0  0  0  0  0
   27.2900   36.0742   23.7533 N   0  0  0  0  0  0  0  0  0  0  0  0
   27.1248   37.6017   25.6019 C   0  0  0  0  0  0  0  0  0  0  0  0
   27.2936   38.8745   26.1344 C   0  0  1  0  0  0  0  0  0  0  0  0
   26.9128   39.1171   27.5606 C   0  0  0  0  0  0  0  0  0  0  0  0
   27.8152   39.9015   25.3333 C   0  0  1  0  0  0  0  0  0  0  0  0
   28.0220   41.2899   25.8735 C   0  0  0  0  0  0  0  0  0  0  0  0
   28.1539   39.6395   24.0084 C   0  0  0  0  0  0  0  0  0  0  0  0
   27.9809   38.3626   23.4712 C   0  0  1  0  0  0  0  0  0  0  0  0
   28.1455   36.8293   21.6361 C   0  0  1  0  0  0  0  0  0  0  0  0
   28.3154   38.1002   22.1512 N   0  0  0  0  0  0  0  0  0  0  0  0
  1  2  1  1  0  0  0
  1  3  1  0  0  0  0
  1  4  2  0  0  0  0
  1  6  1  0  0  0  0
  5  6  1  0  0  0  0
  7  5  1  6  0  0  0
  7  8  1  0  0  0  0
  7  9  1  0  0  0  0
  9 10  1  1  0  0  0
  9 11  1  0  0  0  0
 11 12  1  6  0  0  0
 11 13  1  0  0  0  0
 13 31  1  0  0  0  0
 14 15  1  0  0  0  0
 15 16  2  0  0  0  0
 15 17  1  0  0  0  0
 17 18  1  0  0  0  0
 18 20  2  0  0  0  0
 19 18  1  1  0  0  0
 19 22  1  0  0  0  0
 19 30  1  0  0  0  0
 21 23  1  6  0  0  0
 21 29  1  0  0  0  0
 21 22  1  0  0  0  0
 23 24  1  0  0  0  0
 24 25  1  1  0  0  0
 24 26  1  0  0  0  0
 26 27  1  1  0  0  0
 26 28  1  0  0  0  0
 29 28  1  1  0  0  0
 29 31  1  0  0  0  0
 30 14  1  1  0  0  0
 30 31  1  0  0  0  0
M  CHG  1   3  -1
M  END
>  <CHROM.1>
-152.39214040,65.22130437,-71.51095596,131.49614721,53.98864957,142.93868772
-79.92415122,27.88552516,39.10599089,21.02356306,-0.71155638,-1.43795139
3.03978188

>  <Name>
ligand

>  <RI>
0

>  <Rbt.Current_Directory>
/home/itssahil/PROJECTS/Mol_Feturizer/New_Systems/rnas/3F2T

>  <Rbt.Executable>
rbdock ($Id: //depot/dev/client3/rdock/2013.1/src/exe/rbdock.cxx#4 $)

>  <Rbt.Library>
libRbt.so (2013.1, Build901 2013/11/27)

>  <Rbt.Parameter_File>
/export/apps/rDock/src/rDock_2013.1_src/data/scripts/dock_solv.prm

>  <Rbt.Receptor>
prm/pocket_docking_6.prm

>  <SCORE>
-23.2816

>  <SCORE.INTER>
-28.5762

>  <SCORE.INTER.CONST>
1

>  <SCORE.INTER.POLAR>
0

>  <SCORE.INTER.ROT>
7

>  <SCORE.INTER.SOLV>
17.3014

>  <SCORE.INTER.VDW>
-33.0846

>  <SCORE.INTER.norm>
-0.921812

>  <SCORE.INTRA>
5.29456

>  <SCORE.INTRA.DIHEDRAL>
8.73303

>  <SCORE.INTRA.DIHEDRAL.0>
4.64198

>  <SCORE.INTRA.POLAR>
0

>  <SCORE.INTRA.POLAR.0>
0

>  <SCORE.INTRA.REPUL>
0

>  <SCORE.INTRA.REPUL.0>
0

>  <SCORE.INTRA.SOLV>
0.728952

>  <SCORE.INTRA.SOLV.lig_0>
-49.3611

>  <SCORE.INTRA.VDW>
0.563567

>  <SCORE.INTRA.VDW.0>
-1.91858

>  <SCORE.INTRA.norm>
0.170792

>  <SCORE.RESTR>
0

>  <SCORE.RESTR.CAVITY>
0

>  <SCORE.RESTR.norm>
0

>  <SCORE.SYSTEM>
0

>  <SCORE.SYSTEM.CONST>
0

>  <SCORE.SYSTEM.DIHEDRAL>
0

>  <SCORE.SYSTEM.SOLV>
0

>  <SCORE.SYSTEM.norm>
0

>  <SCORE.heavy>
31

>  <SCORE.norm>
-0.75102

>  <RMSD>
2.651

$$$$
ligand
 OpenBabel11021811473D
libRbt.so/2013.1/901 2013/11/27
 31 33  0  0  0  0  0  0  0  0999 V2000
   25.5263   43.8372   16.5820 P   0  0  1  0  0  0  0  0  0  0  0  0
   25.7115   45.2693   17.0154 O   0  0  0  0  0  0  0  0  0  0  0  0
   24.1915   43.3511   17.0809 O   0  5  0  0  0  0  0  0  0  0  0  0
   25.6087   43.8296   15.0803 O   0  0  0  0  0  0  0  0  0  0  0  0
   26.7842   42.6511   18.5522 C   0  0  0  0  0  0  0  0  0  0  0  0
   26.6581   42.8560   17.1604 O   0  0  0  0  0  0  0  0  0  0  0  0
   28.1234   41.9780   18.8416 C   0  0  1  0  0  0  0  0  0  0  0  0
   29.1509   42.6304   18.1225 O   0  0  0  0  0  0  0  0  0  0  0  0
   28.4335   42.0549   20.3271 C   0  0  1  0  0  0  0  0  0  0  0  0
   27.8535   43.2238   20.8415 O   0  0  0  0  0  0  0  0  0  0  0  0
   27.8988   40.8602   21.0987 C   0  0  1  0  0  0  0  0  0  0  0  0
   26.8301   40.3119   20.3753 O   0  0  0  0  0  0  0  0  0  0  0  0
   28.9762   39.8034   21.2778 C   0  0  0  0  0  0  0  0  0  0  0  0
   28.5278   37.2882   20.0978 N   0  0  0  0  0  0  0  0  0  0  0  0
   28.2711   36.0938   19.4602 C   0  0  0  0  0  0  0  0  0  0  0  0
   28.5696   35.9501   18.2782 O   0  0  0  0  0  0  0  0  0  0  0  0
   27.6774   35.0542   20.1389 N   0  0  0  0  0  0  0  0  0  0  0  0
   27.3432   35.1954   21.4717 C   0  0  0  0  0  0  0  0  0  0  0  0
   27.5977   36.3971   22.1232 C   0  0  1  0  0  0  0  0  0  0  0  0
   26.8288   34.2548   22.0802 O   0  0  0  0  0  0  0  0  0  0  0  0
   27.5202   37.7403   24.1004 C   0  0  2  0  0  0  0  0  0  0  0  0
   27.2646   36.5456   23.4546 N   0  0  0  0  0  0  0  0  0  0  0  0
   27.1829   37.8891   25.4461 C   0  0  0  0  0  0  0  0  0  0  0  0
   27.4309   39.0882   26.1039 C   0  0  1  0  0  0  0  0  0  0  0  0
   27.0526   39.2127   27.5459 C   0  0  0  0  0  0  0  0  0  0  0  0
   28.0282   40.1523   25.4114 C   0  0  1  0  0  0  0  0  0  0  0  0
   28.3217   41.4629   26.0886 C   0  0  0  0  0  0  0  0  0  0  0  0
   28.3621   40.0013   24.0681 C   0  0  0  0  0  0  0  0  0  0  0  0
   28.1097   38.7988   23.4053 C   0  0  1  0  0  0  0  0  0  0  0  0
   28.1903   37.4483   21.4266 C   0  0  1  0  0  0  0  0  0  0  0  0
   28.4395   38.6472   22.0669 N   0  0  0  0  0  0  0  0  0  0  0  0
  1  2  1  1  0  0  0
  1  3  1  0  0  0  0
  1  4  2  0  0  0  0
  1  6  1  0  0  0  0
  5  6  1  0  0  0  0
  7  5  1  1  0  0  0
  7  8  1  0  0  0  0
  7  9  1  0  0  0  0
  9 10  1  1  0  0  0
  9 11  1  0  0  0  0
 11 12  1  6  0  0  0
 11 13  1  0  0  0  0
 13 31  1  0  0  0  0
 14 15  1  0  0  0  0
 15 16  2  0  0  0  0
 15 17  1  0  0  0  0
 17 18  1  0  0  0  0
 18 20  2  0  0  0  0
 19 18  1  1  0  0  0
 19 22  1  0  0  0  0
 19 30  1  0  0  0  0
 21 23  1  6  0  0  0
 21 29  1  0  0  0  0
 21 22  1  0  0  0  0
 23 24  1  0  0  0  0
 24 25  1  1  0  0  0
 24 26  1  0  0  0  0
 26 27  1  1  0  0  0
 26 28  1  0  0  0  0
 29 28  1  1  0  0  0
 29 31  1  0  0  0  0
 30 14  1  1  0  0  0
 30 31  1  0  0  0  0
M  CHG  1   3  -1
M  END
>  <CHROM.1>
-165.82771060,63.50045887,46.27209266,-30.39100099,-24.02587203,178.73983468
-67.74060004,27.38016183,39.96610189,20.78966073,3.07653372,1.40363439,-2.33026394

>  <Name>
ligand

>  <RI>
0

>  <Rbt.Current_Directory>
/home/itssahil/PROJECTS/Mol_Feturizer/New_Systems/rnas/3F2T

>  <Rbt.Executable>
rbdock ($Id: //depot/dev/client3/rdock/2013.1/src/exe/rbdock.cxx#4 $)

>  <Rbt.Library>
libRbt.so (2013.1, Build901 2013/11/27)

>  <Rbt.Parameter_File>
/export/apps/rDock/src/rDock_2013.1_src/data/scripts/dock_solv.prm

>  <Rbt.Receptor>
prm/blind_docking_80.prm

>  <SCORE>
-22.4355

>  <SCORE.INTER>
-26.7838

>  <SCORE.INTER.CONST>
1

>  <SCORE.INTER.POLAR>
0

>  <SCORE.INTER.ROT>
7

>  <SCORE.INTER.SOLV>
18.377

>  <SCORE.INTER.VDW>
-32.2482

>  <SCORE.INTER.norm>
-0.863995

>  <SCORE.INTRA>
4.34839

>  <SCORE.INTRA.DIHEDRAL>
4.27927

>  <SCORE.INTRA.DIHEDRAL.0>
4.64198

>  <SCORE.INTRA.POLAR>
0

>  <SCORE.INTRA.POLAR.0>
0

>  <SCORE.INTRA.REPUL>
0

>  <SCORE.INTRA.REPUL.0>
0

>  <SCORE.INTRA.SOLV>
-0.43029

>  <SCORE.INTRA.SOLV.lig_0>
-49.3611

>  <SCORE.INTRA.VDW>
2.4239

>  <SCORE.INTRA.VDW.0>
-1.91858

>  <SCORE.INTRA.norm>
0.140271

>  <SCORE.RESTR>
0

>  <SCORE.RESTR.CAVITY>
0

>  <SCORE.RESTR.norm>
0

>  <SCORE.SYSTEM>
0

>  <SCORE.SYSTEM.CONST>
0

>  <SCORE.SYSTEM.DIHEDRAL>
0

>  <SCORE.SYSTEM.SOLV>
0

>  <SCORE.SYSTEM.norm>
0

>  <SCORE.heavy>
31

>  <SCORE.norm>
-0.723724

>  <RMSD>
2.705

$$$$
ligand
 OpenBabel11021811473D
libRbt.so/2013.1/901 2013/11/27
 31 33  0  0  0  0  0  0  0  0999 V2000
   26.3309   43.2347   16.5801 P   0  0  1  0  0  0  0  0  0  0  0  0
   25.1372   42.8421   17.4133 O   0  0  0  0  0  0  0  0  0  0  0  0
   25.9300   43.2255   15.1288 O   0  5  0  0  0  0  0  0  0  0  0  0
   26.7476   44.6027   17.0458 O   0  0  0  0  0  0  0  0  0  0  0  0
   27.3595   40.8499   16.9339 C   0  0  0  0  0  0  0  0  0  0  0  0
   27.5746   42.2345   16.7563 O   0  0  0  0  0  0  0  0  0  0  0  0
   28.7075   40.1370   17.0035 C   0  0  1  0  0  0  0  0  0  0  0  0
   29.4637   40.6499   18.0824 O   0  0  0  0  0  0  0  0  0  0  0  0
   28.4972   38.6466   17.2112 C   0  0  1  0  0  0  0  0  0  0  0  0
   29.7374   38.0025   17.0916 O   0  0  0  0  0  0  0  0  0  0  0  0
   27.9049   38.3238   18.5728 C   0  0  1  0  0  0  0  0  0  0  0  0
   27.2762   37.0730   18.4935 O   0  0  0  0  0  0  0  0  0  0  0  0
   28.9880   38.2728   19.6375 C   0  0  0  0  0  0  0  0  0  0  0  0
   28.2138   35.7768   20.6818 N   0  0  0  0  0  0  0  0  0  0  0  0
   27.7990   34.5393   21.1238 C   0  0  0  0  0  0  0  0  0  0  0  0
   28.0213   33.5381   20.4493 O   0  0  0  0  0  0  0  0  0  0  0  0
   27.1312   34.4137   22.3206 N   0  0  0  0  0  0  0  0  0  0  0  0
   26.8807   35.5285   23.0968 C   0  0  0  0  0  0  0  0  0  0  0  0
   27.2949   36.7814   22.6586 C   0  0  1  0  0  0  0  0  0  0  0  0
   26.2989   35.4082   24.1769 O   0  0  0  0  0  0  0  0  0  0  0  0
   27.4603   39.1438   22.9918 C   0  0  2  0  0  0  0  0  0  0  0  0
   27.0461   37.9000   23.4285 N   0  0  0  0  0  0  0  0  0  0  0  0
   27.2082   40.2736   23.7708 C   0  0  0  0  0  0  0  0  0  0  0  0
   27.6159   41.5301   23.3386 C   0  0  1  0  0  0  0  0  0  0  0  0
   27.3252   42.7193   24.1984 C   0  0  0  0  0  0  0  0  0  0  0  0
   28.2892   41.6615   22.1146 C   0  0  1  0  0  0  0  0  0  0  0  0
   28.7551   43.0015   21.6151 C   0  0  0  0  0  0  0  0  0  0  0  0
   28.5379   40.5324   21.3387 C   0  0  0  0  0  0  0  0  0  0  0  0
   28.1251   39.2704   21.7698 C   0  0  1  0  0  0  0  0  0  0  0  0
   27.9618   36.9016   21.4411 C   0  0  1  0  0  0  0  0  0  0  0  0
   28.3699   38.1449   20.9974 N   0  0  0  0  0  0  0  0  0  0  0  0
  1  2  1  1  0  0  0
  1  3  1  0  0  0  0
  1  4  2  0  0  0  0
  1  6  1  0  0  0  0
  5  6  1  0  0  0  0
  7  5  1  1  0  0  0
  7  8  1  0  0  0  0
  7  9  1  0  0  0  0
  9 10  1  1  0  0  0
  9 11  1  0  0  0  0
 11 12  1  6  0  0  0
 11 13  1  0  0  0  0
 13 31  1  0  0  0  0
 14 15  1  0  0  0  0
 15 16  2  0  0  0  0
 15 17  1  0  0  0  0
 17 18  1  0  0  0  0
 18 20  2  0  0  0  0
 19 18  1  1  0  0  0
 19 22  1  0  0  0  0
 19 30  1  0  0  0  0
 21 23  1  6  0  0  0
 21 29  1  0  0  0  0
 21 22  1  0  0  0  0
 23 24  1  0  0  0  0
 24 25  1  1  0  0  0
 24 26  1  0  0  0  0
 26 27  1  1  0  0  0
 26 28  1  0  0  0  0
 29 28  1  1  0  0  0
 29 31  1  0  0  0  0
 30 14  1  1  0  0  0
 30 31  1  0  0  0  0
M  CHG  1   3  -1
M  END
>  <CHROM.1>
177.16972445,35.90538565,59.41311768,172.21021470,157.32243399,172.10712915
-94.39665476,27.60852360,39.41659034,19.95925274,-2.17104922,-1.45663849
1.88101644

>  <Name>
ligand

>  <RI>
0

>  <Rbt.Current_Directory>
/home/itssahil/PROJECTS/Mol_Feturizer/New_Systems/rnas/3F2T

>  <Rbt.Executable>
rbdock ($Id: //depot/dev/client3/rdock/2013.1/src/exe/rbdock.cxx#4 $)

>  <Rbt.Library>
libRbt.so (2013.1, Build901 2013/11/27)

>  <Rbt.Parameter_File>
/export/apps/rDock/src/rDock_2013.1_src/data/scripts/dock_solv.prm

>  <Rbt.Receptor>
prm/pocket_docking_4.prm

>  <SCORE>
-24.7227

>  <SCORE.INTER>
-25.0308

>  <SCORE.INTER.CONST>
1

>  <SCORE.INTER.POLAR>
0

>  <SCORE.INTER.ROT>
7

>  <SCORE.INTER.SOLV>
19.4407

>  <SCORE.INTER.VDW>
-31.4341

>  <SCORE.INTER.norm>
-0.807444

>  <SCORE.INTRA>
0.308007

>  <SCORE.INTRA.DIHEDRAL>
-0.508894

>  <SCORE.INTRA.DIHEDRAL.0>
4.64198

>  <SCORE.INTRA.POLAR>
0

>  <SCORE.INTRA.POLAR.0>
0

>  <SCORE.INTRA.REPUL>
0

>  <SCORE.INTRA.REPUL.0>
0

>  <SCORE.INTRA.SOLV>
-0.490677

>  <SCORE.INTRA.SOLV.lig_0>
-49.3611

>  <SCORE.INTRA.VDW>
0.807793

>  <SCORE.INTRA.VDW.0>
-1.91858

>  <SCORE.INTRA.norm>
0.00993572

>  <SCORE.RESTR>
0

>  <SCORE.RESTR.CAVITY>
0

>  <SCORE.RESTR.norm>
0

>  <SCORE.SYSTEM>
0

>  <SCORE.SYSTEM.CONST>
0

>  <SCORE.SYSTEM.DIHEDRAL>
0

>  <SCORE.SYSTEM.SOLV>
0

>  <SCORE.SYSTEM.norm>
0

>  <SCORE.heavy>
31

>  <SCORE.norm>
-0.797508

>  <RMSD>
2.722

$$$$
ligand
 OpenBabel11021811473D
libRbt.so/2013.1/901 2013/11/27
 31 33  0  0  0  0  0  0  0  0999 V2000
   25.3531   43.5393   16.1738 P   0  0  1  0  0  0  0  0  0  0  0  0
   24.5470   42.5863   17.0195 O   0  0  0  0  0  0  0  0  0  0  0  0
   24.5127   43.9737   15.0025 O   0  5  0  0  0  0  0  0  0  0  0  0
   25.7258   44.6926   17.0644 O   0  0  0  0  0  0  0  0  0  0  0  0
   27.7530   42.5284   16.4727 C   0  0  0  0  0  0  0  0  0  0  0  0
   26.7006   42.8816   15.5994 O   0  0  0  0  0  0  0  0  0  0  0  0
   27.2953   41.3849   17.3743 C   0  0  1  0  0  0  0  0  0  0  0  0
   26.9788   40.2538   16.5873 O   0  0  0  0  0  0  0  0  0  0  0  0
   28.4018   41.0160   18.3482 C   0  0  1  0  0  0  0  0  0  0  0  0
   28.8431   42.1865   18.9826 O   0  0  0  0  0  0  0  0  0  0  0  0
   27.9438   40.0262   19.4061 C   0  0  1  0  0  0  0  0  0  0  0  0
   27.2892   38.9663   18.7627 O   0  0  0  0  0  0  0  0  0  0  0  0
   29.1273   39.4820   20.1889 C   0  0  0  0  0  0  0  0  0  0  0  0
   28.4781   36.7437   20.1785 N   0  0  0  0  0  0  0  0  0  0  0  0
   28.1177   35.4156   20.1074 C   0  0  0  0  0  0  0  0  0  0  0  0
   28.2771   34.7892   19.0638 O   0  0  0  0  0  0  0  0  0  0  0  0
   27.5750   34.7805   21.2010 N   0  0  0  0  0  0  0  0  0  0  0  0
   27.3970   35.4674   22.3861 C   0  0  0  0  0  0  0  0  0  0  0  0
   27.7570   36.8080   22.4671 C   0  0  1  0  0  0  0  0  0  0  0  0
   26.9280   34.8889   23.3684 O   0  0  0  0  0  0  0  0  0  0  0  0
   27.9405   38.8328   23.7264 C   0  0  2  0  0  0  0  0  0  0  0  0
   27.5802   37.5011   23.6478 N   0  0  0  0  0  0  0  0  0  0  0  0
   27.7611   39.5323   24.9203 C   0  0  0  0  0  0  0  0  0  0  0  0
   28.1153   40.8734   25.0087 C   0  0  1  0  0  0  0  0  0  0  0  0
   27.9054   41.5921   26.3038 C   0  0  0  0  0  0  0  0  0  0  0  0
   28.6607   41.5252   23.8923 C   0  0  1  0  0  0  0  0  0  0  0  0
   29.0655   42.9727   23.9489 C   0  0  0  0  0  0  0  0  0  0  0  0
   28.8370   40.8250   22.7018 C   0  0  0  0  0  0  0  0  0  0  0  0
   28.4777   39.4790   22.6106 C   0  0  1  0  0  0  0  0  0  0  0  0
   28.2969   37.4467   21.3525 C   0  0  1  0  0  0  0  0  0  0  0  0
   28.6503   38.7805   21.4250 N   0  0  0  0  0  0  0  0  0  0  0  0
  1  2  1  1  0  0  0
  1  3  1  0  0  0  0
  1  4  2  0  0  0  0
  1  6  1  0  0  0  0
  5  6  1  0  0  0  0
  7  5  1  6  0  0  0
  7  8  1  0  0  0  0
  7  9  1  0  0  0  0
  9 10  1  1  0  0  0
  9 11  1  0  0  0  0
 11 12  1  6  0  0  0
 11 13  1  0  0  0  0
 13 31  1  0  0  0  0
 14 15  1  0  0  0  0
 15 16  2  0  0  0  0
 15 17  1  0  0  0  0
 17 18  1  0  0  0  0
 18 20  2  0  0  0  0
 19 18  1  1  0  0  0
 19 22  1  0  0  0  0
 19 30  1  0  0  0  0
 21 23  1  6  0  0  0
 21 29  1  0  0  0  0
 21 22  1  0  0  0  0
 23 24  1  0  0  0  0
 24 25  1  1  0  0  0
 24 26  1  0  0  0  0
 26 27  1  1  0  0  0
 26 28  1  0  0  0  0
 29 28  1  1  0  0  0
 29 31  1  0  0  0  0
 30 14  1  1  0  0  0
 30 31  1  0  0  0  0
M  CHG  1   3  -1
M  END
>  <CHROM.1>
66.65112490,-67.46895389,61.64827395,51.03067923,49.31845538,166.25772070
-89.13125694,27.47676217,39.96669389,20.15475895,-2.79329188,1.32917547,-2.80625436

>  <Name>
ligand

>  <RI>
0

>  <Rbt.Current_Directory>
/home/itssahil/PROJECTS/Mol_Feturizer/New_Systems/rnas/3F2T

>  <Rbt.Executable>
rbdock ($Id: //depot/dev/client3/rdock/2013.1/src/exe/rbdock.cxx#4 $)

>  <Rbt.Library>
libRbt.so (2013.1, Build901 2013/11/27)

>  <Rbt.Parameter_File>
/export/apps/rDock/src/rDock_2013.1_src/data/scripts/dock_solv.prm

>  <Rbt.Receptor>
prm/pocket_docking_4.prm

>  <SCORE>
-26.7444

>  <SCORE.INTER>
-26.6018

>  <SCORE.INTER.CONST>
1

>  <SCORE.INTER.POLAR>
0

>  <SCORE.INTER.ROT>
7

>  <SCORE.INTER.SOLV>
17.9927

>  <SCORE.INTER.VDW>
-31.9988

>  <SCORE.INTER.norm>
-0.858124

>  <SCORE.INTRA>
-0.152638

>  <SCORE.INTRA.DIHEDRAL>
-1.87938

>  <SCORE.INTRA.DIHEDRAL.0>
4.64198

>  <SCORE.INTRA.POLAR>
0

>  <SCORE.INTRA.POLAR.0>
0

>  <SCORE.INTRA.REPUL>
0

>  <SCORE.INTRA.REPUL.0>
0

>  <SCORE.INTRA.SOLV>
0.79559

>  <SCORE.INTRA.SOLV.lig_0>
-49.3611

>  <SCORE.INTRA.VDW>
0.389258

>  <SCORE.INTRA.VDW.0>
-1.91858

>  <SCORE.INTRA.norm>
-0.00492382

>  <SCORE.RESTR>
0.0101169

>  <SCORE.RESTR.CAVITY>
0.0101169

>  <SCORE.RESTR.norm>
0.00032635

>  <SCORE.SYSTEM>
0

>  <SCORE.SYSTEM.CONST>
0

>  <SCORE.SYSTEM.DIHEDRAL>
0

>  <SCORE.SYSTEM.SOLV>
0

>  <SCORE.SYSTEM.norm>
0

>  <SCORE.heavy>
31

>  <SCORE.norm>
-0.862721

>  <RMSD>
2.723

$$$$
ligand
 OpenBabel11021811473D
libRbt.so/2013.1/901 2013/11/27
 31 33  0  0  0  0  0  0  0  0999 V2000
   26.1254   43.6864   16.6919 P   0  0  1  0  0  0  0  0  0  0  0  0
   25.5330   43.3486   15.3472 O   0  0  0  0  0  0  0  0  0  0  0  0
   27.4413   44.3860   16.4771 O   0  5  0  0  0  0  0  0  0  0  0  0
   25.1242   44.5622   17.3937 O   0  0  0  0  0  0  0  0  0  0  0  0
   27.1197   41.2931   17.0844 C   0  0  0  0  0  0  0  0  0  0  0  0
   26.3963   42.3907   17.6008 O   0  0  0  0  0  0  0  0  0  0  0  0
   27.2806   40.2389   18.1766 C   0  0  1  0  0  0  0  0  0  0  0  0
   26.0307   39.9917   18.7893 O   0  0  0  0  0  0  0  0  0  0  0  0
   27.8020   38.9440   17.5764 C   0  0  1  0  0  0  0  0  0  0  0  0
   29.0922   39.1744   17.0769 O   0  0  0  0  0  0  0  0  0  0  0  0
   27.8616   37.8125   18.5888 C   0  0  1  0  0  0  0  0  0  0  0  0
   28.1959   36.6321   17.9100 O   0  0  0  0  0  0  0  0  0  0  0  0
   28.9097   38.0914   19.6534 C   0  0  0  0  0  0  0  0  0  0  0  0
   28.0976   35.6678   20.8309 N   0  0  0  0  0  0  0  0  0  0  0  0
   27.6642   34.4625   21.3389 C   0  0  0  0  0  0  0  0  0  0  0  0
   27.8741   33.4226   20.7214 O   0  0  0  0  0  0  0  0  0  0  0  0
   26.9915   34.4124   22.5385 N   0  0  0  0  0  0  0  0  0  0  0  0
   26.7546   35.5716   23.2513 C   0  0  0  0  0  0  0  0  0  0  0  0
   27.1876   36.7926   22.7462 C   0  0  1  0  0  0  0  0  0  0  0  0
   26.1683   35.5192   24.3344 O   0  0  0  0  0  0  0  0  0  0  0  0
   27.3855   39.1673   22.9493 C   0  0  2  0  0  0  0  0  0  0  0  0
   26.9526   37.9552   23.4524 N   0  0  0  0  0  0  0  0  0  0  0  0
   27.1472   40.3417   23.6640 C   0  0  0  0  0  0  0  0  0  0  0  0
   27.5737   41.5666   23.1647 C   0  0  1  0  0  0  0  0  0  0  0  0
   27.2975   42.8053   23.9567 C   0  0  0  0  0  0  0  0  0  0  0  0
   28.2520   41.6209   21.9376 C   0  0  1  0  0  0  0  0  0  0  0  0
   28.7381   42.9248   21.3667 C   0  0  0  0  0  0  0  0  0  0  0  0
   28.4869   40.4474   21.2259 C   0  0  0  0  0  0  0  0  0  0  0  0
   28.0552   39.2170   21.7245 C   0  0  1  0  0  0  0  0  0  0  0  0
   27.8594   36.8362   21.5262 C   0  0  1  0  0  0  0  0  0  0  0  0
   28.2861   38.0474   21.0160 N   0  0  0  0  0  0  0  0  0  0  0  0
  1  2  1  6  0  0  0
  1  3  1  0  0  0  0
  1  4  2  0  0  0  0
  1  6  1  0  0  0  0
  5  6  1  0  0  0  0
  7  5  1  6  0  0  0
  7  8  1  0  0  0  0
  7  9  1  0  0  0  0
  9 10  1  1  0  0  0
  9 11  1  0  0  0  0
 11 12  1  6  0  0  0
 11 13  1  0  0  0  0
 13 31  1  0  0  0  0
 14 15  1  0  0  0  0
 15 16  2  0  0  0  0
 15 17  1  0  0  0  0
 17 18  1  0  0  0  0
 18 20  2  0  0  0  0
 19 18  1  1  0  0  0
 19 22  1  0  0  0  0
 19 30  1  0  0  0  0
 21 23  1  6  0  0  0
 21 29  1  0  0  0  0
 21 22  1  0  0  0  0
 23 24  1  0  0  0  0
 24 25  1  1  0  0  0
 24 26  1  0  0  0  0
 26 27  1  1  0  0  0
 26 28  1  0  0  0  0
 29 28  1  1  0  0  0
 29 31  1  0  0  0  0
 30 14  1  1  0  0  0
 30 31  1  0  0  0  0
M  CHG  1   3  -1
M  END
>  <CHROM.1>
177.42717994,51.27063725,48.70772392,64.80101512,172.95094621,123.82932235
-105.98081994,27.33028143,39.51062625,20.04672556,-2.72124905,-1.46017279
1.38804597

>  <Name>
ligand

>  <RI>
0

>  <Rbt.Current_Directory>
/home/itssahil/PROJECTS/Mol_Feturizer/New_Systems/rnas/3F2T

>  <Rbt.Executable>
rbdock ($Id: //depot/dev/client3/rdock/2013.1/src/exe/rbdock.cxx#4 $)

>  <Rbt.Library>
libRbt.so (2013.1, Build901 2013/11/27)

>  <Rbt.Parameter_File>
/export/apps/rDock/src/rDock_2013.1_src/data/scripts/dock_solv.prm

>  <Rbt.Receptor>
prm/blind_docking_80.prm

>  <SCORE>
-25.6344

>  <SCORE.INTER>
-26.0348

>  <SCORE.INTER.CONST>
1

>  <SCORE.INTER.POLAR>
0

>  <SCORE.INTER.ROT>
7

>  <SCORE.INTER.SOLV>
18.544

>  <SCORE.INTER.VDW>
-31.8045

>  <SCORE.INTER.norm>
-0.839831

>  <SCORE.INTRA>
0.400328

>  <SCORE.INTRA.DIHEDRAL>
2.5997

>  <SCORE.INTRA.DIHEDRAL.0>
4.64198

>  <SCORE.INTRA.POLAR>
0

>  <SCORE.INTRA.POLAR.0>
0

>  <SCORE.INTRA.REPUL>
0

>  <SCORE.INTRA.REPUL.0>
0

>  <SCORE.INTRA.SOLV>
-0.735053

>  <SCORE.INTRA.SOLV.lig_0>
-49.3611

>  <SCORE.INTRA.VDW>
-0.531994

>  <SCORE.INTRA.VDW.0>
-1.91858

>  <SCORE.INTRA.norm>
0.0129138

>  <SCORE.RESTR>
0

>  <SCORE.RESTR.CAVITY>
0

>  <SCORE.RESTR.norm>
0

>  <SCORE.SYSTEM>
0

>  <SCORE.SYSTEM.CONST>
0

>  <SCORE.SYSTEM.DIHEDRAL>
0

>  <SCORE.SYSTEM.SOLV>
0

>  <SCORE.SYSTEM.norm>
0

>  <SCORE.heavy>
31

>  <SCORE.norm>
-0.826918

>  <RMSD>
2.737

$$$$
ligand
 OpenBabel11021811473D
libRbt.so/2013.1/901 2013/11/27
 31 33  0  0  0  0  0  0  0  0999 V2000
   27.2893   42.9253   16.6573 P   0  0  1  0  0  0  0  0  0  0  0  0
   26.7967   41.7664   15.8282 O   0  0  0  0  0  0  0  0  0  0  0  0
   28.7681   43.0892   16.4265 O   0  5  0  0  0  0  0  0  0  0  0  0
   26.5081   44.1319   16.2148 O   0  0  0  0  0  0  0  0  0  0  0  0
   25.8778   42.0907   18.7022 C   0  0  0  0  0  0  0  0  0  0  0  0
   27.0546   42.7142   18.2317 O   0  0  0  0  0  0  0  0  0  0  0  0
   25.8299   42.1919   20.2246 C   0  0  1  0  0  0  0  0  0  0  0  0
   24.7549   41.4194   20.7208 O   0  0  0  0  0  0  0  0  0  0  0  0
   27.1279   41.6740   20.8210 C   0  0  1  0  0  0  0  0  0  0  0  0
   27.1496   41.9979   22.1855 O   0  0  0  0  0  0  0  0  0  0  0  0
   27.2816   40.1699   20.6703 C   0  0  1  0  0  0  0  0  0  0  0  0
   27.3890   39.8735   19.3041 O   0  0  0  0  0  0  0  0  0  0  0  0
   28.5267   39.6768   21.3886 C   0  0  0  0  0  0  0  0  0  0  0  0
   28.2658   37.0621   20.3813 N   0  0  0  0  0  0  0  0  0  0  0  0
   28.0924   35.8112   19.8298 C   0  0  0  0  0  0  0  0  0  0  0  0
   28.3097   35.6291   18.6355 O   0  0  0  0  0  0  0  0  0  0  0  0
   27.6729   34.7573   20.6091 N   0  0  0  0  0  0  0  0  0  0  0  0
   27.4325   34.9420   21.9567 C   0  0  0  0  0  0  0  0  0  0  0  0
   27.6041   36.2008   22.5218 C   0  0  1  0  0  0  0  0  0  0  0  0
   27.0751   33.9905   22.6542 O   0  0  0  0  0  0  0  0  0  0  0  0
   27.5369   37.6445   24.4273 C   0  0  2  0  0  0  0  0  0  0  0  0
   27.3639   36.3929   23.8676 N   0  0  0  0  0  0  0  0  0  0  0  0
   27.2936   37.8373   25.7876 C   0  0  0  0  0  0  0  0  0  0  0  0
   27.4595   39.0932   26.3596 C   0  0  1  0  0  0  0  0  0  0  0  0
   27.1860   39.2633   27.8205 C   0  0  0  0  0  0  0  0  0  0  0  0
   27.8788   40.1710   25.5652 C   0  0  1  0  0  0  0  0  0  0  0  0
   28.0790   41.5435   26.1469 C   0  0  0  0  0  0  0  0  0  0  0  0
   28.1191   39.9757   24.2076 C   0  0  0  0  0  0  0  0  0  0  0  0
   27.9488   38.7157   23.6311 C   0  0  1  0  0  0  0  0  0  0  0  0
   28.0197   37.2651   21.7242 C   0  0  1  0  0  0  0  0  0  0  0  0
   28.1854   38.5198   22.2788 N   0  0  0  0  0  0  0  0  0  0  0  0
  1  2  1  6  0  0  0
  1  3  1  0  0  0  0
  1  4  2  0  0  0  0
  1  6  1  0  0  0  0
  5  6  1  0  0  0  0
  7  5  1  6  0  0  0
  7  8  1  0  0  0  0
  7  9  1  0  0  0  0
  9 10  1  1  0  0  0
  9 11  1  0  0  0  0
 11 12  1  6  0  0  0
 11 13  1  0  0  0  0
 13 31  1  0  0  0  0
 14 15  1  0  0  0  0
 15 16  2  0  0  0  0
 15 17  1  0  0  0  0
 17 18  1  0  0  0  0
 18 20  2  0  0  0  0
 19 18  1  1  0  0  0
 19 22  1  0  0  0  0
 19 30  1  0  0  0  0
 21 23  1  6  0  0  0
 21 29  1  0  0  0  0
 21 22  1  0  0  0  0
 23 24  1  0  0  0  0
 24 25  1  1  0  0  0
 24 26  1  0  0  0  0
 26 27  1  1  0  0  0
 26 28  1  0  0  0  0
 29 28  1  1  0  0  0
 29 31  1  0  0  0  0
 30 14  1  1  0  0  0
 30 31  1  0  0  0  0
M  CHG  1   3  -1
M  END
>  <CHROM.1>
-172.37597699,-37.93852930,-172.17710733,169.62536603,65.33675258,129.60917836
-97.10633829,27.38859961,39.55308810,21.12825880,2.23451163,1.46283252,-1.58968578

>  <Name>
ligand

>  <RI>
0

>  <Rbt.Current_Directory>
/home/itssahil/PROJECTS/Mol_Feturizer/New_Systems/rnas/3F2T

>  <Rbt.Executable>
rbdock ($Id: //depot/dev/client3/rdock/2013.1/src/exe/rbdock.cxx#4 $)

>  <Rbt.Library>
libRbt.so (2013.1, Build901 2013/11/27)

>  <Rbt.Parameter_File>
/export/apps/rDock/src/rDock_2013.1_src/data/scripts/dock_solv.prm

>  <Rbt.Receptor>
prm/pocket_docking_4.prm

>  <SCORE>
-25.2221

>  <SCORE.INTER>
-27.2779

>  <SCORE.INTER.CONST>
1

>  <SCORE.INTER.POLAR>
0

>  <SCORE.INTER.ROT>
7

>  <SCORE.INTER.SOLV>
17.8439

>  <SCORE.INTER.VDW>
-32.3999

>  <SCORE.INTER.norm>
-0.879934

>  <SCORE.INTRA>
2.05585

>  <SCORE.INTRA.DIHEDRAL>
3.05757

>  <SCORE.INTRA.DIHEDRAL.0>
4.64198

>  <SCORE.INTRA.POLAR>
0

>  <SCORE.INTRA.POLAR.0>
0

>  <SCORE.INTRA.REPUL>
0

>  <SCORE.INTRA.REPUL.0>
0

>  <SCORE.INTRA.SOLV>
-0.0236545

>  <SCORE.INTRA.SOLV.lig_0>
-49.3611

>  <SCORE.INTRA.VDW>
0.53889

>  <SCORE.INTRA.VDW.0>
-1.91858

>  <SCORE.INTRA.norm>
0.0663176

>  <SCORE.RESTR>
0

>  <SCORE.RESTR.CAVITY>
0

>  <SCORE.RESTR.norm>
0

>  <SCORE.SYSTEM>
0

>  <SCORE.SYSTEM.CONST>
0

>  <SCORE.SYSTEM.DIHEDRAL>
0

>  <SCORE.SYSTEM.SOLV>
0

>  <SCORE.SYSTEM.norm>
0

>  <SCORE.heavy>
31

>  <SCORE.norm>
-0.813616

>  <RMSD>
2.776

$$$$
ligand
 OpenBabel11021811473D
libRbt.so/2013.1/901 2013/11/27
 31 33  0  0  0  0  0  0  0  0999 V2000
   24.9365   43.7115   17.1606 P   0  0  1  0  0  0  0  0  0  0  0  0
   23.9871   43.0218   18.1073 O   0  0  0  0  0  0  0  0  0  0  0  0
   24.5694   43.3346   15.7498 O   0  5  0  0  0  0  0  0  0  0  0  0
   24.7935   45.1878   17.4098 O   0  0  0  0  0  0  0  0  0  0  0  0
   26.8351   41.9403   17.5199 C   0  0  0  0  0  0  0  0  0  0  0  0
   26.4699   43.2994   17.3999 O   0  0  0  0  0  0  0  0  0  0  0  0
   28.3492   41.8398   17.6863 C   0  0  1  0  0  0  0  0  0  0  0  0
   28.7760   42.7151   18.7112 O   0  0  0  0  0  0  0  0  0  0  0  0
   28.7382   40.4183   18.0560 C   0  0  1  0  0  0  0  0  0  0  0  0
   30.1346   40.3076   17.9849 O   0  0  0  0  0  0  0  0  0  0  0  0
   28.2851   40.0328   19.4542 C   0  0  1  0  0  0  0  0  0  0  0  0
   26.9267   39.6900   19.3974 O   0  0  0  0  0  0  0  0  0  0  0  0
   29.0793   38.8461   19.9742 C   0  0  0  0  0  0  0  0  0  0  0  0
   28.2146   36.2130   20.4629 N   0  0  0  0  0  0  0  0  0  0  0  0
   27.7492   34.9274   20.6346 C   0  0  0  0  0  0  0  0  0  0  0  0
   27.8497   34.1093   19.7249 O   0  0  0  0  0  0  0  0  0  0  0  0
   27.1669   34.5491   21.8228 N   0  0  0  0  0  0  0  0  0  0  0  0
   27.0539   35.4539   22.8603 C   0  0  0  0  0  0  0  0  0  0  0  0
   27.5200   36.7536   22.6960 C   0  0  1  0  0  0  0  0  0  0  0  0
   26.5486   35.1048   23.9291 O   0  0  0  0  0  0  0  0  0  0  0  0
   27.8741   38.9541   23.5630 C   0  0  2  0  0  0  0  0  0  0  0  0
   27.4086   37.6635   23.7281 N   0  0  0  0  0  0  0  0  0  0  0  0
   27.7608   39.8729   24.6070 C   0  0  0  0  0  0  0  0  0  0  0  0
   28.2211   41.1749   24.4498 C   0  0  1  0  0  0  0  0  0  0  0  0
   28.0797   42.1336   25.5895 C   0  0  0  0  0  0  0  0  0  0  0  0
   28.8073   41.5651   23.2362 C   0  0  1  0  0  0  0  0  0  0  0  0
   29.3262   42.9614   23.0285 C   0  0  0  0  0  0  0  0  0  0  0  0
   28.9175   40.6464   22.1957 C   0  0  0  0  0  0  0  0  0  0  0  0
   28.4517   39.3395   22.3510 C   0  0  1  0  0  0  0  0  0  0  0  0
   28.0996   37.1317   21.4866 C   0  0  1  0  0  0  0  0  0  0  0  0
   28.5584   38.4237   21.3151 N   0  0  0  0  0  0  0  0  0  0  0  0
  1  2  1  1  0  0  0
  1  3  1  0  0  0  0
  1  4  2  0  0  0  0
  1  6  1  0  0  0  0
  5  6  1  0  0  0  0
  7  5  1  1  0  0  0
  7  8  1  0  0  0  0
  7  9  1  0  0  0  0
  9 10  1  1  0  0  0
  9 11  1  0  0  0  0
 11 12  1  6  0  0  0
 11 13  1  0  0  0  0
 13 31  1  0  0  0  0
 14 15  1  0  0  0  0
 15 16  2  0  0  0  0
 15 17  1  0  0  0  0
 17 18  1  0  0  0  0
 18 20  2  0  0  0  0
 19 18  1  1  0  0  0
 19 22  1  0  0  0  0
 19 30  1  0  0  0  0
 21 23  1  6  0  0  0
 21 29  1  0  0  0  0
 21 22  1  0  0  0  0
 23 24  1  0  0  0  0
 24 25  1  1  0  0  0
 24 26  1  0  0  0  0
 26 27  1  1  0  0  0
 26 28  1  0  0  0  0
 29 28  1  1  0  0  0
 29 31  1  0  0  0  0
 30 14  1  1  0  0  0
 30 31  1  0  0  0  0
M  CHG  1   3  -1
M  END
>  <CHROM.1>
177.85250149,48.26826545,50.34327480,170.40362942,80.15329521,-176.28015081
-53.95520705,27.43819874,39.96925780,20.44276473,2.45615021,-1.28687547,0.21217772

>  <Name>
ligand

>  <RI>
0

>  <Rbt.Current_Directory>
/home/itssahil/PROJECTS/Mol_Feturizer/New_Systems/rnas/3F2T

>  <Rbt.Executable>
rbdock ($Id: //depot/dev/client3/rdock/2013.1/src/exe/rbdock.cxx#4 $)

>  <Rbt.Library>
libRbt.so (2013.1, Build901 2013/11/27)

>  <Rbt.Parameter_File>
/export/apps/rDock/src/rDock_2013.1_src/data/scripts/dock_solv.prm

>  <Rbt.Receptor>
prm/pocket_docking_7.prm

>  <SCORE>
-25.1778

>  <SCORE.INTER>
-25.8292

>  <SCORE.INTER.CONST>
1

>  <SCORE.INTER.POLAR>
0

>  <SCORE.INTER.ROT>
7

>  <SCORE.INTER.SOLV>
18.3812

>  <SCORE.INTER.VDW>
-31.6132

>  <SCORE.INTER.norm>
-0.8332

>  <SCORE.INTRA>
0.651444

>  <SCORE.INTRA.DIHEDRAL>
-1.06034

>  <SCORE.INTRA.DIHEDRAL.0>
4.64198

>  <SCORE.INTRA.POLAR>
0

>  <SCORE.INTRA.POLAR.0>
0

>  <SCORE.INTRA.REPUL>
0

>  <SCORE.INTRA.REPUL.0>
0

>  <SCORE.INTRA.SOLV>
-0.475105

>  <SCORE.INTRA.SOLV.lig_0>
-49.3611

>  <SCORE.INTRA.VDW>
1.41917

>  <SCORE.INTRA.VDW.0>
-1.91858

>  <SCORE.INTRA.norm>
0.0210143

>  <SCORE.RESTR>
0

>  <SCORE.RESTR.CAVITY>
0

>  <SCORE.RESTR.norm>
0

>  <SCORE.SYSTEM>
0

>  <SCORE.SYSTEM.CONST>
0

>  <SCORE.SYSTEM.DIHEDRAL>
0

>  <SCORE.SYSTEM.SOLV>
0

>  <SCORE.SYSTEM.norm>
0

>  <SCORE.heavy>
31

>  <SCORE.norm>
-0.812186

>  <RMSD>
2.777

$$$$
ligand
 OpenBabel11021811473D
libRbt.so/2013.1/901 2013/11/27
 31 33  0  0  0  0  0  0  0  0999 V2000
   25.6960   43.7768   16.8379 P   0  0  1  0  0  0  0  0  0  0  0  0
   24.8180   43.6091   18.0521 O   0  0  0  0  0  0  0  0  0  0  0  0
   24.9068   43.3911   15.6150 O   0  5  0  0  0  0  0  0  0  0  0  0
   26.1178   45.2202   16.8099 O   0  0  0  0  0  0  0  0  0  0  0  0
   26.9060   41.4523   16.8906 C   0  0  0  0  0  0  0  0  0  0  0  0
   27.0137   42.8605   16.8859 O   0  0  0  0  0  0  0  0  0  0  0  0
   28.3040   40.8414   16.8391 C   0  0  1  0  0  0  0  0  0  0  0  0
   29.1183   41.5863   15.9555 O   0  0  0  0  0  0  0  0  0  0  0  0
   28.9305   40.8595   18.2233 C   0  0  1  0  0  0  0  0  0  0  0  0
   28.8165   42.1565   18.7450 O   0  0  0  0  0  0  0  0  0  0  0  0
   28.2642   39.8847   19.1796 C   0  0  1  0  0  0  0  0  0  0  0  0
   27.4727   39.0038   18.4289 O   0  0  0  0  0  0  0  0  0  0  0  0
   29.3020   39.0889   19.9537 C   0  0  0  0  0  0  0  0  0  0  0  0
   28.4643   36.4225   20.2828 N   0  0  0  0  0  0  0  0  0  0  0  0
   28.0157   35.1228   20.3745 C   0  0  0  0  0  0  0  0  0  0  0  0
   28.1800   34.3470   19.4374 O   0  0  0  0  0  0  0  0  0  0  0  0
   27.3789   34.6831   21.5125 N   0  0  0  0  0  0  0  0  0  0  0  0
   27.1937   35.5398   22.5801 C   0  0  0  0  0  0  0  0  0  0  0  0
   27.6423   36.8532   22.4965 C   0  0  1  0  0  0  0  0  0  0  0  0
   26.6396   35.1358   23.6045 O   0  0  0  0  0  0  0  0  0  0  0  0
   27.9072   39.0197   23.4742 C   0  0  2  0  0  0  0  0  0  0  0  0
   27.4588   37.7153   23.5590 N   0  0  0  0  0  0  0  0  0  0  0  0
   27.7210   39.8900   24.5487 C   0  0  0  0  0  0  0  0  0  0  0  0
   28.1634   41.2054   24.4720 C   0  0  1  0  0  0  0  0  0  0  0  0
   27.9433   42.1110   25.6422 C   0  0  0  0  0  0  0  0  0  0  0  0
   28.8051   41.6581   23.3093 C   0  0  1  0  0  0  0  0  0  0  0  0
   29.3069   43.0710   23.1893 C   0  0  0  0  0  0  0  0  0  0  0  0
   28.9880   40.7877   22.2380 C   0  0  0  0  0  0  0  0  0  0  0  0
   28.5403   39.4675   22.3123 C   0  0  1  0  0  0  0  0  0  0  0  0
   28.2775   37.2936   21.3371 C   0  0  1  0  0  0  0  0  0  0  0  0
   28.7194   38.5996   21.2455 N   0  0  0  0  0  0  0  0  0  0  0  0
  1  2  1  1  0  0  0
  1  3  1  0  0  0  0
  1  4  2  0  0  0  0
  1  6  1  0  0  0  0
  5  6  1  0  0  0  0
  7  5  1  1  0  0  0
  7  8  1  0  0  0  0
  7  9  1  0  0  0  0
  9 10  1  1  0  0  0
  9 11  1  0  0  0  0
 11 12  1  6  0  0  0
 11 13  1  0  0  0  0
 13 31  1  0  0  0  0
 14 15  1  0  0  0  0
 15 16  2  0  0  0  0
 15 17  1  0  0  0  0
 17 18  1  0  0  0  0
 18 20  2  0  0  0  0
 19 18  1  1  0  0  0
 19 22  1  0  0  0  0
 19 30  1  0  0  0  0
 21 23  1  6  0  0  0
 21 29  1  0  0  0  0
 21 22  1  0  0  0  0
 23 24  1  0  0  0  0
 24 25  1  1  0  0  0
 24 26  1  0  0  0  0
 26 27  1  1  0  0  0
 26 28  1  0  0  0  0
 29 28  1  1  0  0  0
 29 31  1  0  0  0  0
 30 14  1  1  0  0  0
 30 31  1  0  0  0  0
M  CHG  1   3  -1
M  END
>  <CHROM.1>
176.00985123,63.38026409,-39.83822470,-50.64464350,14.44537045,155.68082892
-75.72209477,27.64880105,40.01295060,20.15751511,2.74177478,-1.39967070,0.43234172

>  <Name>
ligand

>  <RI>
0

>  <Rbt.Current_Directory>
/home/itssahil/PROJECTS/Mol_Feturizer/New_Systems/rnas/3F2T

>  <Rbt.Executable>
rbdock ($Id: //depot/dev/client3/rdock/2013.1/src/exe/rbdock.cxx#4 $)

>  <Rbt.Library>
libRbt.so (2013.1, Build901 2013/11/27)

>  <Rbt.Parameter_File>
/export/apps/rDock/src/rDock_2013.1_src/data/scripts/dock_solv.prm

>  <Rbt.Receptor>
prm/pocket_docking_6.prm

>  <SCORE>
-22.037

>  <SCORE.INTER>
-25.9303

>  <SCORE.INTER.CONST>
1

>  <SCORE.INTER.POLAR>
0

>  <SCORE.INTER.ROT>
7

>  <SCORE.INTER.SOLV>
18.8179

>  <SCORE.INTER.VDW>
-31.8261

>  <SCORE.INTER.norm>
-0.83646

>  <SCORE.INTRA>
3.89329

>  <SCORE.INTRA.DIHEDRAL>
4.72609

>  <SCORE.INTRA.DIHEDRAL.0>
4.64198

>  <SCORE.INTRA.POLAR>
0

>  <SCORE.INTRA.POLAR.0>
0

>  <SCORE.INTRA.REPUL>
0

>  <SCORE.INTRA.REPUL.0>
0

>  <SCORE.INTRA.SOLV>
-0.0106644

>  <SCORE.INTRA.SOLV.lig_0>
-49.3611

>  <SCORE.INTRA.VDW>
1.53558

>  <SCORE.INTRA.VDW.0>
-1.91858

>  <SCORE.INTRA.norm>
0.12559

>  <SCORE.RESTR>
0

>  <SCORE.RESTR.CAVITY>
0

>  <SCORE.RESTR.norm>
0

>  <SCORE.SYSTEM>
0

>  <SCORE.SYSTEM.CONST>
0

>  <SCORE.SYSTEM.DIHEDRAL>
0

>  <SCORE.SYSTEM.SOLV>
0

>  <SCORE.SYSTEM.norm>
0

>  <SCORE.heavy>
31

>  <SCORE.norm>
-0.71087

>  <RMSD>
2.784

$$$$
ligand
 OpenBabel11021811473D
libRbt.so/2013.1/901 2013/11/27
 31 33  0  0  0  0  0  0  0  0999 V2000
   26.3630   43.6990   16.5885 P   0  0  1  0  0  0  0  0  0  0  0  0
   27.6990   44.2958   16.2248 O   0  0  0  0  0  0  0  0  0  0  0  0
   25.5656   44.7273   17.3459 O   0  5  0  0  0  0  0  0  0  0  0  0
   25.7023   43.3071   15.2955 O   0  0  0  0  0  0  0  0  0  0  0  0
   27.2271   42.4377   18.7176 C   0  0  0  0  0  0  0  0  0  0  0  0
   26.4910   42.3924   17.5130 O   0  0  0  0  0  0  0  0  0  0  0  0
   27.2993   41.0349   19.3152 C   0  0  1  0  0  0  0  0  0  0  0  0
   25.9931   40.5515   19.5576 O   0  0  0  0  0  0  0  0  0  0  0  0
   28.0038   40.0949   18.3514 C   0  0  1  0  0  0  0  0  0  0  0  0
   29.2893   40.5973   18.1014 O   0  0  0  0  0  0  0  0  0  0  0  0
   28.1257   38.6819   18.8967 C   0  0  1  0  0  0  0  0  0  0  0  0
   28.5408   37.8422   17.8534 O   0  0  0  0  0  0  0  0  0  0  0  0
   29.1438   38.6209   20.0233 C   0  0  0  0  0  0  0  0  0  0  0  0
   28.2449   36.0862   20.8521 N   0  0  0  0  0  0  0  0  0  0  0  0
   27.7723   34.8355   21.1858 C   0  0  0  0  0  0  0  0  0  0  0  0
   28.0031   33.8752   20.4569 O   0  0  0  0  0  0  0  0  0  0  0  0
   27.0372   34.6511   22.3345 N   0  0  0  0  0  0  0  0  0  0  0  0
   26.7758   35.7187   23.1711 C   0  0  0  0  0  0  0  0  0  0  0  0
   27.2479   36.9845   22.8422 C   0  0  1  0  0  0  0  0  0  0  0  0
   26.1330   35.5447   24.2084 O   0  0  0  0  0  0  0  0  0  0  0  0
   27.4606   39.3130   23.3447 C   0  0  2  0  0  0  0  0  0  0  0  0
   26.9888   38.0563   23.6728 N   0  0  0  0  0  0  0  0  0  0  0  0
   27.1978   40.3954   24.1850 C   0  0  0  0  0  0  0  0  0  0  0  0
   27.6633   41.6646   23.8619 C   0  0  1  0  0  0  0  0  0  0  0  0
   27.3593   42.8021   24.7848 C   0  0  0  0  0  0  0  0  0  0  0  0
   28.4055   41.8564   22.6868 C   0  0  1  0  0  0  0  0  0  0  0  0
   28.9350   43.2116   22.3054 C   0  0  0  0  0  0  0  0  0  0  0  0
   28.6647   40.7746   21.8494 C   0  0  0  0  0  0  0  0  0  0  0  0
   28.1941   39.5001   22.1708 C   0  0  1  0  0  0  0  0  0  0  0  0
   27.9832   37.1650   21.6724 C   0  0  1  0  0  0  0  0  0  0  0  0
   28.4492   38.4218   21.3369 N   0  0  0  0  0  0  0  0  0  0  0  0
  1  2  1  6  0  0  0
  1  3  1  0  0  0  0
  1  4  2  0  0  0  0
  1  6  1  0  0  0  0
  5  6  1  0  0  0  0
  7  5  1  6  0  0  0
  7  8  1  0  0  0  0
  7  9  1  0  0  0  0
  9 10  1  1  0  0  0
  9 11  1  0  0  0  0
 11 12  1  6  0  0  0
 11 13  1  0  0  0  0
 13 31  1  0  0  0  0
 14 15  1  0  0  0  0
 15 16  2  0  0  0  0
 15 17  1  0  0  0  0
 17 18  1  0  0  0  0
 18 20  2  0  0  0  0
 19 18  1  1  0  0  0
 19 22  1  0  0  0  0
 19 30  1  0  0  0  0
 21 23  1  6  0  0  0
 21 29  1  0  0  0  0
 21 22  1  0  0  0  0
 23 24  1  0  0  0  0
 24 25  1  1  0  0  0
 24 26  1  0  0  0  0
 26 27  1  1  0  0  0
 26 28  1  0  0  0  0
 29 28  1  1  0  0  0
 29 31  1  0  0  0  0
 30 14  1  1  0  0  0
 30 31  1  0  0  0  0
M  CHG  1   3  -1
M  END
>  <CHROM.1>
-174.36375141,54.00737174,-59.02712113,58.64661962,168.57188978,108.46801100
-98.25409114,27.47487353,39.88136432,20.36178615,-3.10523011,-1.48936032
0.95736806

>  <Name>
ligand

>  <RI>
0

>  <Rbt.Current_Directory>
/home/itssahil/PROJECTS/Mol_Feturizer/New_Systems/rnas/3F2T

>  <Rbt.Executable>
rbdock ($Id: //depot/dev/client3/rdock/2013.1/src/exe/rbdock.cxx#4 $)

>  <Rbt.Library>
libRbt.so (2013.1, Build901 2013/11/27)

>  <Rbt.Parameter_File>
/export/apps/rDock/src/rDock_2013.1_src/data/scripts/dock_solv.prm

>  <Rbt.Receptor>
prm/pocket_docking_5.prm

>  <SCORE>
-25.8051

>  <SCORE.INTER>
-26.0394

>  <SCORE.INTER.CONST>
1

>  <SCORE.INTER.POLAR>
0

>  <SCORE.INTER.ROT>
7

>  <SCORE.INTER.SOLV>
18.6

>  <SCORE.INTER.VDW>
-31.8263

>  <SCORE.INTER.norm>
-0.839982

>  <SCORE.INTRA>
0.234353

>  <SCORE.INTRA.DIHEDRAL>
1.9714

>  <SCORE.INTRA.DIHEDRAL.0>
4.64198

>  <SCORE.INTRA.POLAR>
0

>  <SCORE.INTRA.POLAR.0>
0

>  <SCORE.INTRA.REPUL>
0

>  <SCORE.INTRA.REPUL.0>
0

>  <SCORE.INTRA.SOLV>
-0.58549

>  <SCORE.INTRA.SOLV.lig_0>
-49.3611

>  <SCORE.INTRA.VDW>
-0.458602

>  <SCORE.INTRA.VDW.0>
-1.91858

>  <SCORE.INTRA.norm>
0.00755979

>  <SCORE.RESTR>
0

>  <SCORE.RESTR.CAVITY>
0

>  <SCORE.RESTR.norm>
0

>  <SCORE.SYSTEM>
0

>  <SCORE.SYSTEM.CONST>
0

>  <SCORE.SYSTEM.DIHEDRAL>
0

>  <SCORE.SYSTEM.SOLV>
0

>  <SCORE.SYSTEM.norm>
0

>  <SCORE.heavy>
31

>  <SCORE.norm>
-0.832422

>  <RMSD>
2.796

$$$$
ligand
 OpenBabel11021811473D
libRbt.so/2013.1/901 2013/11/27
 31 33  0  0  0  0  0  0  0  0999 V2000
   26.9777   42.8628   16.4701 P   0  0  1  0  0  0  0  0  0  0  0  0
   27.1381   43.4472   17.8506 O   0  0  0  0  0  0  0  0  0  0  0  0
   25.8722   43.5985   15.7604 O   0  5  0  0  0  0  0  0  0  0  0  0
   28.3035   43.0255   15.7789 O   0  0  0  0  0  0  0  0  0  0  0  0
   27.4351   40.3727   17.1490 C   0  0  0  0  0  0  0  0  0  0  0  0
   26.6004   41.3022   16.4900 O   0  0  0  0  0  0  0  0  0  0  0  0
   27.4950   40.7167   18.6350 C   0  0  1  0  0  0  0  0  0  0  0  0
   26.2053   40.6051   19.2032 O   0  0  0  0  0  0  0  0  0  0  0  0
   28.4356   39.7627   19.3519 C   0  0  1  0  0  0  0  0  0  0  0  0
   29.6705   39.7738   18.6869 O   0  0  0  0  0  0  0  0  0  0  0  0
   28.6571   40.1425   20.8063 C   0  0  1  0  0  0  0  0  0  0  0  0
   29.0029   41.5003   20.8585 O   0  0  0  0  0  0  0  0  0  0  0  0
   27.3967   39.9155   21.6245 C   0  0  0  0  0  0  0  0  0  0  0  0
   27.2627   37.2722   20.6678 N   0  0  0  0  0  0  0  0  0  0  0  0
   27.1303   35.9977   20.1609 C   0  0  0  0  0  0  0  0  0  0  0  0
   26.9614   35.8282   18.9569 O   0  0  0  0  0  0  0  0  0  0  0  0
   27.1833   34.9056   20.9965 N   0  0  0  0  0  0  0  0  0  0  0  0
   27.3818   35.0772   22.3526 C   0  0  0  0  0  0  0  0  0  0  0  0
   27.5158   36.3595   22.8733 C   0  0  1  0  0  0  0  0  0  0  0  0
   27.4474   34.0948   23.0943 O   0  0  0  0  0  0  0  0  0  0  0  0
   27.8473   37.8137   24.7428 C   0  0  2  0  0  0  0  0  0  0  0  0
   27.7126   36.5385   24.2279 N   0  0  0  0  0  0  0  0  0  0  0  0
   28.0460   37.9932   26.1121 C   0  0  0  0  0  0  0  0  0  0  0  0
   28.1776   39.2718   26.6411 C   0  0  1  0  0  0  0  0  0  0  0  0
   28.3859   39.4260   28.1145 C   0  0  0  0  0  0  0  0  0  0  0  0
   28.1151   40.3871   25.7921 C   0  0  1  0  0  0  0  0  0  0  0  0
   28.2619   41.7867   26.3230 C   0  0  0  0  0  0  0  0  0  0  0  0
   27.9151   40.2048   24.4263 C   0  0  0  0  0  0  0  0  0  0  0  0
   27.7786   38.9213   23.8944 C   0  0  1  0  0  0  0  0  0  0  0  0
   27.4513   37.4608   22.0220 C   0  0  1  0  0  0  0  0  0  0  0  0
   27.5770   38.7378   22.5346 N   0  0  0  0  0  0  0  0  0  0  0  0
  1  2  1  1  0  0  0
  1  3  1  0  0  0  0
  1  4  2  0  0  0  0
  1  6  1  0  0  0  0
  5  6  1  0  0  0  0
  7  5  1  6  0  0  0
  7  8  1  0  0  0  0
  7  9  1  0  0  0  0
  9 10  1  6  0  0  0
  9 11  1  0  0  0  0
 11 12  1  6  0  0  0
 11 13  1  0  0  0  0
 13 31  1  0  0  0  0
 14 15  1  0  0  0  0
 15 16  2  0  0  0  0
 15 17  1  0  0  0  0
 17 18  1  0  0  0  0
 18 20  2  0  0  0  0
 19 18  1  6  0  0  0
 19 22  1  0  0  0  0
 19 30  1  0  0  0  0
 21 23  1  1  0  0  0
 21 29  1  0  0  0  0
 21 22  1  0  0  0  0
 23 24  1  0  0  0  0
 24 25  1  6  0  0  0
 24 26  1  0  0  0  0
 26 27  1  6  0  0  0
 26 28  1  0  0  0  0
 29 28  1  6  0  0  0
 29 31  1  0  0  0  0
 30 14  1  6  0  0  0
 30 31  1  0  0  0  0
M  CHG  1   3  -1
M  END
>  <CHROM.1>
61.95364737,-56.96748174,62.47076024,53.24388625,-50.41266312,108.56845332
105.22764359,27.61883526,39.43730249,21.00016488,-2.12233754,1.43215223,2.62276935

>  <Name>
ligand

>  <RI>
0

>  <Rbt.Current_Directory>
/home/itssahil/PROJECTS/Mol_Feturizer/New_Systems/rnas/3F2T

>  <Rbt.Executable>
rbdock ($Id: //depot/dev/client3/rdock/2013.1/src/exe/rbdock.cxx#4 $)

>  <Rbt.Library>
libRbt.so (2013.1, Build901 2013/11/27)

>  <Rbt.Parameter_File>
/export/apps/rDock/src/rDock_2013.1_src/data/scripts/dock_solv.prm

>  <Rbt.Receptor>
prm/blind_docking_80.prm

>  <SCORE>
-21.6993

>  <SCORE.INTER>
-23.6931

>  <SCORE.INTER.CONST>
1

>  <SCORE.INTER.POLAR>
0

>  <SCORE.INTER.ROT>
7

>  <SCORE.INTER.SOLV>
17.6028

>  <SCORE.INTER.VDW>
-29.9297

>  <SCORE.INTER.norm>
-0.764295

>  <SCORE.INTRA>
1.99389

>  <SCORE.INTRA.DIHEDRAL>
2.03674

>  <SCORE.INTRA.DIHEDRAL.0>
4.64198

>  <SCORE.INTRA.POLAR>
0

>  <SCORE.INTRA.POLAR.0>
0

>  <SCORE.INTRA.REPUL>
0

>  <SCORE.INTRA.REPUL.0>
0

>  <SCORE.INTRA.SOLV>
0.775549

>  <SCORE.INTRA.SOLV.lig_0>
-49.3611

>  <SCORE.INTRA.VDW>
0.587748

>  <SCORE.INTRA.VDW.0>
-1.91858

>  <SCORE.INTRA.norm>
0.0643191

>  <SCORE.RESTR>
0

>  <SCORE.RESTR.CAVITY>
0

>  <SCORE.RESTR.norm>
0

>  <SCORE.SYSTEM>
0

>  <SCORE.SYSTEM.CONST>
0

>  <SCORE.SYSTEM.DIHEDRAL>
0

>  <SCORE.SYSTEM.SOLV>
0

>  <SCORE.SYSTEM.norm>
0

>  <SCORE.heavy>
31

>  <SCORE.norm>
-0.699976

>  <RMSD>
2.797

$$$$
ligand
 OpenBabel11021811473D
libRbt.so/2013.1/901 2013/11/27
 31 33  0  0  0  0  0  0  0  0999 V2000
   26.5072   43.3261   16.7063 P   0  0  1  0  0  0  0  0  0  0  0  0
   26.6455   42.1024   15.8365 O   0  0  0  0  0  0  0  0  0  0  0  0
   27.3851   44.4153   16.1495 O   0  5  0  0  0  0  0  0  0  0  0  0
   25.0515   43.7039   16.6864 O   0  0  0  0  0  0  0  0  0  0  0  0
   28.2415   42.5883   18.5279 C   0  0  0  0  0  0  0  0  0  0  0  0
   26.9464   43.0660   18.2287 O   0  0  0  0  0  0  0  0  0  0  0  0
   28.3641   41.1411   18.0582 C   0  0  1  0  0  0  0  0  0  0  0  0
   29.7019   40.7057   18.1976 O   0  0  0  0  0  0  0  0  0  0  0  0
   27.4630   40.2458   18.8921 C   0  0  1  0  0  0  0  0  0  0  0  0
   26.1419   40.4116   18.4511 O   0  0  0  0  0  0  0  0  0  0  0  0
   27.8366   38.7770   18.7843 C   0  0  1  0  0  0  0  0  0  0  0  0
   28.2819   38.5312   17.4777 O   0  0  0  0  0  0  0  0  0  0  0  0
   28.9432   38.4251   19.7646 C   0  0  0  0  0  0  0  0  0  0  0  0
   28.1326   35.9091   20.7303 N   0  0  0  0  0  0  0  0  0  0  0  0
   27.6966   34.6661   21.1348 C   0  0  0  0  0  0  0  0  0  0  0  0
   27.8586   33.6900   20.4082 O   0  0  0  0  0  0  0  0  0  0  0  0
   27.0749   34.5069   22.3522 N   0  0  0  0  0  0  0  0  0  0  0  0
   26.8926   35.5925   23.1865 C   0  0  0  0  0  0  0  0  0  0  0  0
   27.3286   36.8508   22.7866 C   0  0  1  0  0  0  0  0  0  0  0  0
   26.3521   35.4413   24.2841 O   0  0  0  0  0  0  0  0  0  0  0  0
   27.5836   39.1896   23.2157 C   0  0  2  0  0  0  0  0  0  0  0  0
   27.1478   37.9405   23.6146 N   0  0  0  0  0  0  0  0  0  0  0  0
   27.4002   40.2902   24.0536 C   0  0  0  0  0  0  0  0  0  0  0  0
   27.8301   41.5520   23.6599 C   0  0  1  0  0  0  0  0  0  0  0  0
   27.6134   42.7094   24.5827 C   0  0  0  0  0  0  0  0  0  0  0  0
   28.4564   41.7180   22.4154 C   0  0  1  0  0  0  0  0  0  0  0  0
   28.9443   43.0645   21.9558 C   0  0  0  0  0  0  0  0  0  0  0  0
   28.6365   40.6181   21.5808 C   0  0  0  0  0  0  0  0  0  0  0  0
   28.2013   39.3510   21.9733 C   0  0  1  0  0  0  0  0  0  0  0  0
   27.9484   37.0056   21.5483 C   0  0  1  0  0  0  0  0  0  0  0  0
   28.3777   38.2547   21.1425 N   0  0  0  0  0  0  0  0  0  0  0  0
  1  2  1  6  0  0  0
  1  3  1  0  0  0  0
  1  4  2  0  0  0  0
  1  6  1  0  0  0  0
  5  6  1  0  0  0  0
  7  5  1  1  0  0  0
  7  8  1  0  0  0  0
  7  9  1  0  0  0  0
  9 10  1  6  0  0  0
  9 11  1  0  0  0  0
 11 12  1  6  0  0  0
 11 13  1  0  0  0  0
 13 31  1  0  0  0  0
 14 15  1  0  0  0  0
 15 16  2  0  0  0  0
 15 17  1  0  0  0  0
 17 18  1  0  0  0  0
 18 20  2  0  0  0  0
 19 18  1  1  0  0  0
 19 22  1  0  0  0  0
 19 30  1  0  0  0  0
 21 23  1  6  0  0  0
 21 29  1  0  0  0  0
 21 22  1  0  0  0  0
 23 24  1  0  0  0  0
 24 25  1  1  0  0  0
 24 26  1  0  0  0  0
 26 27  1  1  0  0  0
 26 28  1  0  0  0  0
 29 28  1  1  0  0  0
 29 31  1  0  0  0  0
 30 14  1  1  0  0  0
 30 31  1  0  0  0  0
M  CHG  1   3  -1
M  END
>  <CHROM.1>
-69.67188293,56.84718167,172.67261330,77.08561305,-35.08211691,78.74638487
-85.41935695,27.57650324,39.76261448,20.23437628,2.35142390,-1.49809163,0.12226583

>  <Name>
ligand

>  <RI>
0

>  <Rbt.Current_Directory>
/home/itssahil/PROJECTS/Mol_Feturizer/New_Systems/rnas/3F2T

>  <Rbt.Executable>
rbdock ($Id: //depot/dev/client3/rdock/2013.1/src/exe/rbdock.cxx#4 $)

>  <Rbt.Library>
libRbt.so (2013.1, Build901 2013/11/27)

>  <Rbt.Parameter_File>
/export/apps/rDock/src/rDock_2013.1_src/data/scripts/dock_solv.prm

>  <Rbt.Receptor>
prm/pocket_docking_6.prm

>  <SCORE>
-25.2381

>  <SCORE.INTER>
-26.0481

>  <SCORE.INTER.CONST>
1

>  <SCORE.INTER.POLAR>
0

>  <SCORE.INTER.ROT>
7

>  <SCORE.INTER.SOLV>
17.5705

>  <SCORE.INTER.VDW>
-31.4889

>  <SCORE.INTER.norm>
-0.84026

>  <SCORE.INTRA>
0.809947

>  <SCORE.INTRA.DIHEDRAL>
1.26556

>  <SCORE.INTRA.DIHEDRAL.0>
4.64198

>  <SCORE.INTRA.POLAR>
0

>  <SCORE.INTRA.POLAR.0>
0

>  <SCORE.INTRA.REPUL>
0

>  <SCORE.INTRA.REPUL.0>
0

>  <SCORE.INTRA.SOLV>
1.47785

>  <SCORE.INTRA.SOLV.lig_0>
-49.3611

>  <SCORE.INTRA.VDW>
-0.561756

>  <SCORE.INTRA.VDW.0>
-1.91858

>  <SCORE.INTRA.norm>
0.0261273

>  <SCORE.RESTR>
0

>  <SCORE.RESTR.CAVITY>
0

>  <SCORE.RESTR.norm>
0

>  <SCORE.SYSTEM>
0

>  <SCORE.SYSTEM.CONST>
0

>  <SCORE.SYSTEM.DIHEDRAL>
0

>  <SCORE.SYSTEM.SOLV>
0

>  <SCORE.SYSTEM.norm>
0

>  <SCORE.heavy>
31

>  <SCORE.norm>
-0.814133

>  <RMSD>
2.812

$$$$
ligand
 OpenBabel11021811473D
libRbt.so/2013.1/901 2013/11/27
 31 33  0  0  0  0  0  0  0  0999 V2000
   26.3211   43.2404   16.7032 P   0  0  1  0  0  0  0  0  0  0  0  0
   25.1568   42.8935   17.5960 O   0  0  0  0  0  0  0  0  0  0  0  0
   25.8582   43.2042   15.2710 O   0  5  0  0  0  0  0  0  0  0  0  0
   26.7847   44.6104   17.1160 O   0  0  0  0  0  0  0  0  0  0  0  0
   27.3174   40.8322   16.9836 C   0  0  0  0  0  0  0  0  0  0  0  0
   27.5510   42.2189   16.8519 O   0  0  0  0  0  0  0  0  0  0  0  0
   28.6557   40.0998   17.0340 C   0  0  1  0  0  0  0  0  0  0  0  0
   29.4280   40.5903   18.1118 O   0  0  0  0  0  0  0  0  0  0  0  0
   28.4261   38.6103   17.2276 C   0  0  1  0  0  0  0  0  0  0  0  0
   29.6550   37.9495   17.0842 O   0  0  0  0  0  0  0  0  0  0  0  0
   27.8471   38.2805   18.5931 C   0  0  1  0  0  0  0  0  0  0  0  0
   27.2496   37.0139   18.5232 O   0  0  0  0  0  0  0  0  0  0  0  0
   28.9350   38.2626   19.6541 C   0  0  0  0  0  0  0  0  0  0  0  0
   28.1547   35.8163   20.8060 N   0  0  0  0  0  0  0  0  0  0  0  0
   27.7365   34.6004   21.3015 C   0  0  0  0  0  0  0  0  0  0  0  0
   27.9514   33.5707   20.6687 O   0  0  0  0  0  0  0  0  0  0  0  0
   27.0737   34.5284   22.5054 N   0  0  0  0  0  0  0  0  0  0  0  0
   26.8316   35.6759   23.2351 C   0  0  0  0  0  0  0  0  0  0  0  0
   27.2492   36.9074   22.7427 C   0  0  1  0  0  0  0  0  0  0  0  0
   26.2542   35.6039   24.3218 O   0  0  0  0  0  0  0  0  0  0  0  0
   27.4265   39.2810   22.9754 C   0  0  2  0  0  0  0  0  0  0  0  0
   27.0088   38.0585   23.4659 N   0  0  0  0  0  0  0  0  0  0  0  0
   27.1828   40.4437   23.7072 C   0  0  0  0  0  0  0  0  0  0  0  0
   27.5941   41.6790   23.2206 C   0  0  1  0  0  0  0  0  0  0  0  0
   27.3124   42.9047   24.0309 C   0  0  0  0  0  0  0  0  0  0  0  0
   28.2622   41.7557   21.9893 C   0  0  1  0  0  0  0  0  0  0  0  0
   28.7317   43.0714   21.4317 C   0  0  0  0  0  0  0  0  0  0  0  0
   28.5025   40.5938   21.2605 C   0  0  0  0  0  0  0  0  0  0  0  0
   28.0862   39.3530   21.7462 C   0  0  1  0  0  0  0  0  0  0  0  0
   27.9111   36.9732   21.5183 C   0  0  1  0  0  0  0  0  0  0  0  0
   28.3225   38.1949   21.0208 N   0  0  0  0  0  0  0  0  0  0  0  0
  1  2  1  1  0  0  0
  1  3  1  0  0  0  0
  1  4  2  0  0  0  0
  1  6  1  0  0  0  0
  5  6  1  0  0  0  0
  7  5  1  1  0  0  0
  7  8  1  0  0  0  0
  7  9  1  0  0  0  0
  9 10  1  1  0  0  0
  9 11  1  0  0  0  0
 11 12  1  6  0  0  0
 11 13  1  0  0  0  0
 13 31  1  0  0  0  0
 14 15  1  0  0  0  0
 15 16  2  0  0  0  0
 15 17  1  0  0  0  0
 17 18  1  0  0  0  0
 18 20  2  0  0  0  0
 19 18  1  1  0  0  0
 19 22  1  0  0  0  0
 19 30  1  0  0  0  0
 21 23  1  6  0  0  0
 21 29  1  0  0  0  0
 21 22  1  0  0  0  0
 23 24  1  0  0  0  0
 24 25  1  1  0  0  0
 24 26  1  0  0  0  0
 26 27  1  1  0  0  0
 26 28  1  0  0  0  0
 29 28  1  1  0  0  0
 29 31  1  0  0  0  0
 30 14  1  1  0  0  0
 30 31  1  0  0  0  0
M  CHG  1   3  -1
M  END
>  <CHROM.1>
177.11745777,40.17110330,57.99306361,171.93230586,159.85833113,169.33550384
-94.12198423,27.57104300,39.46490611,20.00533496,-2.10991443,-1.45284982
1.94991946

>  <Name>
ligand

>  <RI>
0

>  <Rbt.Current_Directory>
/home/itssahil/PROJECTS/Mol_Feturizer/New_Systems/rnas/3F2T

>  <Rbt.Executable>
rbdock ($Id: //depot/dev/client3/rdock/2013.1/src/exe/rbdock.cxx#4 $)

>  <Rbt.Library>
libRbt.so (2013.1, Build901 2013/11/27)

>  <Rbt.Parameter_File>
/export/apps/rDock/src/rDock_2013.1_src/data/scripts/dock_solv.prm

>  <Rbt.Receptor>
prm/pocket_docking_4.prm

>  <SCORE>
-24.7671

>  <SCORE.INTER>
-24.759

>  <SCORE.INTER.CONST>
1

>  <SCORE.INTER.POLAR>
0

>  <SCORE.INTER.ROT>
7

>  <SCORE.INTER.SOLV>
19.1341

>  <SCORE.INTER.VDW>
-31.1507

>  <SCORE.INTER.norm>
-0.798678

>  <SCORE.INTRA>
-0.00808726

>  <SCORE.INTRA.DIHEDRAL>
-0.871623

>  <SCORE.INTRA.DIHEDRAL.0>
4.64198

>  <SCORE.INTRA.POLAR>
0

>  <SCORE.INTRA.POLAR.0>
0

>  <SCORE.INTRA.REPUL>
0

>  <SCORE.INTRA.REPUL.0>
0

>  <SCORE.INTRA.SOLV>
-0.444824

>  <SCORE.INTRA.SOLV.lig_0>
-49.3611

>  <SCORE.INTRA.VDW>
0.650136

>  <SCORE.INTRA.VDW.0>
-1.91858

>  <SCORE.INTRA.norm>
-0.000260879

>  <SCORE.RESTR>
0

>  <SCORE.RESTR.CAVITY>
0

>  <SCORE.RESTR.norm>
0

>  <SCORE.SYSTEM>
0

>  <SCORE.SYSTEM.CONST>
0

>  <SCORE.SYSTEM.DIHEDRAL>
0

>  <SCORE.SYSTEM.SOLV>
0

>  <SCORE.SYSTEM.norm>
0

>  <SCORE.heavy>
31

>  <SCORE.norm>
-0.798939

>  <RMSD>
2.833

$$$$
ligand
 OpenBabel11021811473D
libRbt.so/2013.1/901 2013/11/27
 31 33  0  0  0  0  0  0  0  0999 V2000
   25.5847   43.8904   16.1270 P   0  0  1  0  0  0  0  0  0  0  0  0
   26.0553   45.1513   16.8065 O   0  0  0  0  0  0  0  0  0  0  0  0
   24.8049   43.0697   17.1197 O   0  5  0  0  0  0  0  0  0  0  0  0
   24.7408   44.3220   14.9592 O   0  0  0  0  0  0  0  0  0  0  0  0
   27.8242   42.5662   16.4460 C   0  0  0  0  0  0  0  0  0  0  0  0
   26.7925   42.9862   15.5776 O   0  0  0  0  0  0  0  0  0  0  0  0
   27.2956   41.4609   17.3565 C   0  0  1  0  0  0  0  0  0  0  0  0
   26.8460   40.3724   16.5744 O   0  0  0  0  0  0  0  0  0  0  0  0
   28.3982   40.9808   18.2852 C   0  0  1  0  0  0  0  0  0  0  0  0
   28.9714   42.0988   18.9087 O   0  0  0  0  0  0  0  0  0  0  0  0
   27.8890   40.0289   19.3544 C   0  0  1  0  0  0  0  0  0  0  0  0
   27.0773   39.0670   18.7364 O   0  0  0  0  0  0  0  0  0  0  0  0
   29.0435   39.3331   20.0561 C   0  0  0  0  0  0  0  0  0  0  0  0
   28.2873   36.6388   20.3538 N   0  0  0  0  0  0  0  0  0  0  0  0
   27.8723   35.3272   20.4341 C   0  0  0  0  0  0  0  0  0  0  0  0
   27.9641   34.5912   19.4560 O   0  0  0  0  0  0  0  0  0  0  0  0
   27.3501   34.8313   21.6068 N   0  0  0  0  0  0  0  0  0  0  0  0
   27.2478   35.6428   22.7199 C   0  0  0  0  0  0  0  0  0  0  0  0
   27.6633   36.9678   22.6481 C   0  0  1  0  0  0  0  0  0  0  0  0
   26.7969   35.1885   23.7734 O   0  0  0  0  0  0  0  0  0  0  0  0
   27.9776   39.1008   23.6829 C   0  0  2  0  0  0  0  0  0  0  0  0
   27.5623   37.7849   23.7562 N   0  0  0  0  0  0  0  0  0  0  0  0
   27.8748   39.9257   24.8036 C   0  0  0  0  0  0  0  0  0  0  0  0
   28.2847   41.2522   24.7392 C   0  0  1  0  0  0  0  0  0  0  0  0
   28.1563   42.1079   25.9596 C   0  0  0  0  0  0  0  0  0  0  0  0
   28.8094   41.7623   23.5420 C   0  0  1  0  0  0  0  0  0  0  0  0
   29.2727   43.1891   23.4332 C   0  0  0  0  0  0  0  0  0  0  0  0
   28.9092   40.9371   22.4250 C   0  0  0  0  0  0  0  0  0  0  0  0
   28.4938   39.6057   22.4871 C   0  0  1  0  0  0  0  0  0  0  0  0
   28.1820   37.4652   21.4543 C   0  0  1  0  0  0  0  0  0  0  0  0
   28.5902   38.7829   21.3750 N   0  0  0  0  0  0  0  0  0  0  0  0
  1  2  1  1  0  0  0
  1  3  1  0  0  0  0
  1  4  2  0  0  0  0
  1  6  1  0  0  0  0
  5  6  1  0  0  0  0
  7  5  1  6  0  0  0
  7  8  1  0  0  0  0
  7  9  1  0  0  0  0
  9 10  1  1  0  0  0
  9 11  1  0  0  0  0
 11 12  1  6  0  0  0
 11 13  1  0  0  0  0
 13 31  1  0  0  0  0
 14 15  1  0  0  0  0
 15 16  2  0  0  0  0
 15 17  1  0  0  0  0
 17 18  1  0  0  0  0
 18 20  2  0  0  0  0
 19 18  1  1  0  0  0
 19 22  1  0  0  0  0
 19 30  1  0  0  0  0
 21 23  1  6  0  0  0
 21 29  1  0  0  0  0
 21 22  1  0  0  0  0
 23 24  1  0  0  0  0
 24 25  1  1  0  0  0
 24 26  1  0  0  0  0
 26 27  1  1  0  0  0
 26 28  1  0  0  0  0
 29 28  1  1  0  0  0
 29 31  1  0  0  0  0
 30 14  1  1  0  0  0
 30 31  1  0  0  0  0
M  CHG  1   3  -1
M  END
>  <CHROM.1>
74.06482621,55.09993867,59.23855911,50.93699445,47.38394691,160.63531333
-80.78263514,27.49820757,40.12637849,20.14393680,2.48260919,-1.32571074,0.06300996

>  <Name>
ligand

>  <RI>
0

>  <Rbt.Current_Directory>
/home/itssahil/PROJECTS/Mol_Feturizer/New_Systems/rnas/3F2T

>  <Rbt.Executable>
rbdock ($Id: //depot/dev/client3/rdock/2013.1/src/exe/rbdock.cxx#4 $)

>  <Rbt.Library>
libRbt.so (2013.1, Build901 2013/11/27)

>  <Rbt.Parameter_File>
/export/apps/rDock/src/rDock_2013.1_src/data/scripts/dock_solv.prm

>  <Rbt.Receptor>
prm/blind_docking_100.prm

>  <SCORE>
-26.5532

>  <SCORE.INTER>
-27.4681

>  <SCORE.INTER.CONST>
1

>  <SCORE.INTER.POLAR>
0

>  <SCORE.INTER.ROT>
7

>  <SCORE.INTER.SOLV>
17.5688

>  <SCORE.INTER.VDW>
-32.435

>  <SCORE.INTER.norm>
-0.886067

>  <SCORE.INTRA>
0.914899

>  <SCORE.INTRA.DIHEDRAL>
-0.466729

>  <SCORE.INTRA.DIHEDRAL.0>
4.64198

>  <SCORE.INTRA.POLAR>
0

>  <SCORE.INTRA.POLAR.0>
0

>  <SCORE.INTRA.REPUL>
0

>  <SCORE.INTRA.REPUL.0>
0

>  <SCORE.INTRA.SOLV>
1.58081

>  <SCORE.INTRA.SOLV.lig_0>
-49.3611

>  <SCORE.INTRA.VDW>
0.357857

>  <SCORE.INTRA.VDW.0>
-1.91858

>  <SCORE.INTRA.norm>
0.0295129

>  <SCORE.RESTR>
0

>  <SCORE.RESTR.CAVITY>
0

>  <SCORE.RESTR.norm>
0

>  <SCORE.SYSTEM>
0

>  <SCORE.SYSTEM.CONST>
0

>  <SCORE.SYSTEM.DIHEDRAL>
0

>  <SCORE.SYSTEM.SOLV>
0

>  <SCORE.SYSTEM.norm>
0

>  <SCORE.heavy>
31

>  <SCORE.norm>
-0.856554

>  <RMSD>
2.854

$$$$
ligand
 OpenBabel11021811473D
libRbt.so/2013.1/901 2013/11/27
 31 33  0  0  0  0  0  0  0  0999 V2000
   25.7962   43.5486   16.8997 P   0  0  1  0  0  0  0  0  0  0  0  0
   24.8152   43.2141   15.8047 O   0  0  0  0  0  0  0  0  0  0  0  0
   26.2669   44.9660   16.7089 O   0  5  0  0  0  0  0  0  0  0  0  0
   25.0658   43.3629   18.2012 O   0  0  0  0  0  0  0  0  0  0  0  0
   26.9392   41.1905   16.9584 C   0  0  0  0  0  0  0  0  0  0  0  0
   27.0872   42.5938   16.8978 O   0  0  0  0  0  0  0  0  0  0  0  0
   28.3143   40.5355   16.8566 C   0  0  1  0  0  0  0  0  0  0  0  0
   29.1070   41.2332   15.9166 O   0  0  0  0  0  0  0  0  0  0  0  0
   29.0068   40.5678   18.2087 C   0  0  1  0  0  0  0  0  0  0  0  0
   28.9519   41.8789   18.7041 O   0  0  0  0  0  0  0  0  0  0  0  0
   28.3619   39.6334   19.2184 C   0  0  1  0  0  0  0  0  0  0  0  0
   27.7948   38.5568   18.5218 O   0  0  0  0  0  0  0  0  0  0  0  0
   29.3914   39.1051   20.2037 C   0  0  0  0  0  0  0  0  0  0  0  0
   28.3792   36.4931   20.4736 N   0  0  0  0  0  0  0  0  0  0  0  0
   27.8492   35.2226   20.5345 C   0  0  0  0  0  0  0  0  0  0  0  0
   28.0139   34.4412   19.6022 O   0  0  0  0  0  0  0  0  0  0  0  0
   27.1301   34.8187   21.6362 N   0  0  0  0  0  0  0  0  0  0  0  0
   26.9427   35.6817   22.6982 C   0  0  0  0  0  0  0  0  0  0  0  0
   27.4732   36.9659   22.6455 C   0  0  1  0  0  0  0  0  0  0  0  0
   26.3139   35.3087   23.6908 O   0  0  0  0  0  0  0  0  0  0  0  0
   27.8178   39.1094   23.6486 C   0  0  2  0  0  0  0  0  0  0  0  0
   27.2881   37.8342   23.7026 N   0  0  0  0  0  0  0  0  0  0  0  0
   27.6299   39.9860   24.7177 C   0  0  0  0  0  0  0  0  0  0  0  0
   28.1540   41.2725   24.6716 C   0  0  1  0  0  0  0  0  0  0  0  0
   27.9296   42.1861   25.8347 C   0  0  0  0  0  0  0  0  0  0  0  0
   28.8800   41.6893   23.5456 C   0  0  1  0  0  0  0  0  0  0  0  0
   29.4713   43.0696   23.4598 C   0  0  0  0  0  0  0  0  0  0  0  0
   29.0644   40.8127   22.4796 C   0  0  0  0  0  0  0  0  0  0  0  0
   28.5349   39.5217   22.5230 C   0  0  1  0  0  0  0  0  0  0  0  0
   28.1918   37.3707   21.5224 C   0  0  1  0  0  0  0  0  0  0  0  0
   28.7155   38.6479   21.4614 N   0  0  0  0  0  0  0  0  0  0  0  0
  1  2  1  6  0  0  0
  1  3  1  0  0  0  0
  1  4  2  0  0  0  0
  1  6  1  0  0  0  0
  5  6  1  0  0  0  0
  7  5  1  1  0  0  0
  7  8  1  0  0  0  0
  7  9  1  0  0  0  0
  9 10  1  1  0  0  0
  9 11  1  0  0  0  0
 11 12  1  6  0  0  0
 11 13  1  0  0  0  0
 13 31  1  0  0  0  0
 14 15  1  0  0  0  0
 15 16  2  0  0  0  0
 15 17  1  0  0  0  0
 17 18  1  0  0  0  0
 18 20  2  0  0  0  0
 19 18  1  1  0  0  0
 19 22  1  0  0  0  0
 19 30  1  0  0  0  0
 21 23  1  6  0  0  0
 21 29  1  0  0  0  0
 21 22  1  0  0  0  0
 23 24  1  0  0  0  0
 24 25  1  1  0  0  0
 24 26  1  0  0  0  0
 26 27  1  1  0  0  0
 26 28  1  0  0  0  0
 29 28  1  1  0  0  0
 29 31  1  0  0  0  0
 30 14  1  1  0  0  0
 30 31  1  0  0  0  0
M  CHG  1   3  -1
M  END
>  <CHROM.1>
176.60866923,-55.00778807,-39.20960248,-50.40790244,29.40156683,158.05840951
-90.98067905,27.64678791,39.93764871,20.27726134,-2.65567283,1.41787706,-2.86370702

>  <Name>
ligand

>  <RI>
0

>  <Rbt.Current_Directory>
/home/itssahil/PROJECTS/Mol_Feturizer/New_Systems/rnas/3F2T

>  <Rbt.Executable>
rbdock ($Id: //depot/dev/client3/rdock/2013.1/src/exe/rbdock.cxx#4 $)

>  <Rbt.Library>
libRbt.so (2013.1, Build901 2013/11/27)

>  <Rbt.Parameter_File>
/export/apps/rDock/src/rDock_2013.1_src/data/scripts/dock_solv.prm

>  <Rbt.Receptor>
prm/pocket_docking_5.prm

>  <SCORE>
-23.2146

>  <SCORE.INTER>
-25.3771

>  <SCORE.INTER.CONST>
1

>  <SCORE.INTER.POLAR>
0

>  <SCORE.INTER.ROT>
7

>  <SCORE.INTER.SOLV>
17.2748

>  <SCORE.INTER.VDW>
-30.943

>  <SCORE.INTER.norm>
-0.818616

>  <SCORE.INTRA>
2.15857

>  <SCORE.INTRA.DIHEDRAL>
2.60555

>  <SCORE.INTRA.DIHEDRAL.0>
4.64198

>  <SCORE.INTRA.POLAR>
0

>  <SCORE.INTRA.POLAR.0>
0

>  <SCORE.INTRA.REPUL>
0

>  <SCORE.INTRA.REPUL.0>
0

>  <SCORE.INTRA.SOLV>
0.00630377

>  <SCORE.INTRA.SOLV.lig_0>
-49.3611

>  <SCORE.INTRA.VDW>
0.852647

>  <SCORE.INTRA.VDW.0>
-1.91858

>  <SCORE.INTRA.norm>
0.0696314

>  <SCORE.RESTR>
0.0039405

>  <SCORE.RESTR.CAVITY>
0.0039405

>  <SCORE.RESTR.norm>
0.000127113

>  <SCORE.SYSTEM>
0

>  <SCORE.SYSTEM.CONST>
0

>  <SCORE.SYSTEM.DIHEDRAL>
0

>  <SCORE.SYSTEM.SOLV>
0

>  <SCORE.SYSTEM.norm>
0

>  <SCORE.heavy>
31

>  <SCORE.norm>
-0.748858

>  <RMSD>
2.870

$$$$
ligand
 OpenBabel11021811473D
libRbt.so/2013.1/901 2013/11/27
 31 33  0  0  0  0  0  0  0  0999 V2000
   26.7354   43.2256   16.5366 P   0  0  1  0  0  0  0  0  0  0  0  0
   26.9064   41.8879   15.8624 O   0  0  0  0  0  0  0  0  0  0  0  0
   27.9560   44.0634   16.2623 O   0  5  0  0  0  0  0  0  0  0  0  0
   25.4861   43.8373   15.9648 O   0  0  0  0  0  0  0  0  0  0  0  0
   25.6333   42.2007   18.6827 C   0  0  0  0  0  0  0  0  0  0  0  0
   26.5636   43.1076   18.1288 O   0  0  0  0  0  0  0  0  0  0  0  0
   25.6612   42.3191   20.2043 C   0  0  1  0  0  0  0  0  0  0  0  0
   24.6102   41.5554   20.7619 O   0  0  0  0  0  0  0  0  0  0  0  0
   26.9859   41.8041   20.7415 C   0  0  1  0  0  0  0  0  0  0  0  0
   27.1715   42.3191   22.0329 O   0  0  0  0  0  0  0  0  0  0  0  0
   27.0412   40.2869   20.8047 C   0  0  1  0  0  0  0  0  0  0  0  0
   26.9265   39.7879   19.4994 O   0  0  0  0  0  0  0  0  0  0  0  0
   28.3549   39.8163   21.4066 C   0  0  0  0  0  0  0  0  0  0  0  0
   28.0734   37.1922   20.4297 N   0  0  0  0  0  0  0  0  0  0  0  0
   27.8845   35.9354   19.8970 C   0  0  0  0  0  0  0  0  0  0  0  0
   28.0065   35.7537   18.6892 O   0  0  0  0  0  0  0  0  0  0  0  0
   27.5560   34.8750   20.7105 N   0  0  0  0  0  0  0  0  0  0  0  0
   27.4237   35.0595   22.0730 C   0  0  0  0  0  0  0  0  0  0  0  0
   27.6116   36.3242   22.6194 C   0  0  1  0  0  0  0  0  0  0  0  0
   27.1479   34.1027   22.7996 O   0  0  0  0  0  0  0  0  0  0  0  0
   27.6682   37.7734   24.5210 C   0  0  2  0  0  0  0  0  0  0  0  0
   27.4791   36.5160   23.9800 N   0  0  0  0  0  0  0  0  0  0  0  0
   27.5338   37.9660   25.8964 C   0  0  0  0  0  0  0  0  0  0  0  0
   27.7167   39.2276   26.4501 C   0  0  1  0  0  0  0  0  0  0  0  0
   27.5611   39.3971   27.9283 C   0  0  0  0  0  0  0  0  0  0  0  0
   28.0432   40.3118   25.6215 C   0  0  1  0  0  0  0  0  0  0  0  0
   28.2584   41.6909   26.1818 C   0  0  0  0  0  0  0  0  0  0  0  0
   28.1749   40.1168   24.2491 C   0  0  0  0  0  0  0  0  0  0  0  0
   27.9873   38.8509   23.6912 C   0  0  1  0  0  0  0  0  0  0  0  0
   27.9345   37.3947   21.7879 C   0  0  1  0  0  0  0  0  0  0  0  0
   28.1158   38.6551   22.3243 N   0  0  0  0  0  0  0  0  0  0  0  0
  1  2  1  6  0  0  0
  1  3  1  0  0  0  0
  1  4  2  0  0  0  0
  1  6  1  0  0  0  0
  5  6  1  0  0  0  0
  7  5  1  6  0  0  0
  7  8  1  0  0  0  0
  7  9  1  0  0  0  0
  9 10  1  1  0  0  0
  9 11  1  0  0  0  0
 11 12  1  6  0  0  0
 11 13  1  0  0  0  0
 13 31  1  0  0  0  0
 14 15  1  0  0  0  0
 15 16  2  0  0  0  0
 15 17  1  0  0  0  0
 17 18  1  0  0  0  0
 18 20  2  0  0  0  0
 19 18  1  1  0  0  0
 19 22  1  0  0  0  0
 19 30  1  0  0  0  0
 21 23  1  6  0  0  0
 21 29  1  0  0  0  0
 21 22  1  0  0  0  0
 23 24  1  0  0  0  0
 24 25  1  1  0  0  0
 24 26  1  0  0  0  0
 26 27  1  1  0  0  0
 26 28  1  0  0  0  0
 29 28  1  1  0  0  0
 29 31  1  0  0  0  0
 30 14  1  1  0  0  0
 30 31  1  0  0  0  0
M  CHG  1   3  -1
M  END
>  <CHROM.1>
-178.87269763,-49.32980239,171.95833352,160.53055997,62.80432428,139.82178159
-96.48568555,27.23937414,39.71704528,21.14946132,2.86512073,1.43270875,-2.21481582

>  <Name>
ligand

>  <RI>
0

>  <Rbt.Current_Directory>
/home/itssahil/PROJECTS/Mol_Feturizer/New_Systems/rnas/3F2T

>  <Rbt.Executable>
rbdock ($Id: //depot/dev/client3/rdock/2013.1/src/exe/rbdock.cxx#4 $)

>  <Rbt.Library>
libRbt.so (2013.1, Build901 2013/11/27)

>  <Rbt.Parameter_File>
/export/apps/rDock/src/rDock_2013.1_src/data/scripts/dock_solv.prm

>  <Rbt.Receptor>
prm/blind_docking_80.prm

>  <SCORE>
-26.3476

>  <SCORE.INTER>
-27.2219

>  <SCORE.INTER.CONST>
1

>  <SCORE.INTER.POLAR>
0

>  <SCORE.INTER.ROT>
7

>  <SCORE.INTER.SOLV>
18.4026

>  <SCORE.INTER.VDW>
-32.5488

>  <SCORE.INTER.norm>
-0.878127

>  <SCORE.INTRA>
0.874327

>  <SCORE.INTRA.DIHEDRAL>
2.12626

>  <SCORE.INTRA.DIHEDRAL.0>
4.64198

>  <SCORE.INTRA.POLAR>
0

>  <SCORE.INTRA.POLAR.0>
0

>  <SCORE.INTRA.REPUL>
0

>  <SCORE.INTRA.REPUL.0>
0

>  <SCORE.INTRA.SOLV>
-0.371274

>  <SCORE.INTRA.SOLV.lig_0>
-49.3611

>  <SCORE.INTRA.VDW>
-0.0031641

>  <SCORE.INTRA.VDW.0>
-1.91858

>  <SCORE.INTRA.norm>
0.0282041

>  <SCORE.RESTR>
0

>  <SCORE.RESTR.CAVITY>
0

>  <SCORE.RESTR.norm>
0

>  <SCORE.SYSTEM>
0

>  <SCORE.SYSTEM.CONST>
0

>  <SCORE.SYSTEM.DIHEDRAL>
0

>  <SCORE.SYSTEM.SOLV>
0

>  <SCORE.SYSTEM.norm>
0

>  <SCORE.heavy>
31

>  <SCORE.norm>
-0.849923

>  <RMSD>
2.880

$$$$
ligand
 OpenBabel11021811473D
libRbt.so/2013.1/901 2013/11/27
 31 33  0  0  0  0  0  0  0  0999 V2000
   24.7965   43.6465   16.9270 P   0  0  1  0  0  0  0  0  0  0  0  0
   23.9097   43.9566   15.7478 O   0  0  0  0  0  0  0  0  0  0  0  0
   25.6928   44.8294   17.1807 O   0  5  0  0  0  0  0  0  0  0  0  0
   23.8830   43.3664   18.0885 O   0  0  0  0  0  0  0  0  0  0  0  0
   26.5931   41.9055   17.7092 C   0  0  0  0  0  0  0  0  0  0  0  0
   25.7289   42.3610   16.6892 O   0  0  0  0  0  0  0  0  0  0  0  0
   27.5093   40.8227   17.1451 C   0  0  1  0  0  0  0  0  0  0  0  0
   28.1658   41.3068   15.9904 O   0  0  0  0  0  0  0  0  0  0  0  0
   28.5515   40.4327   18.1798 C   0  0  1  0  0  0  0  0  0  0  0  0
   29.1273   41.6041   18.6931 O   0  0  0  0  0  0  0  0  0  0  0  0
   27.9636   39.6299   19.3281 C   0  0  1  0  0  0  0  0  0  0  0  0
   27.1509   38.6222   18.7895 O   0  0  0  0  0  0  0  0  0  0  0  0
   29.0619   38.9936   20.1637 C   0  0  0  0  0  0  0  0  0  0  0  0
   28.0999   36.3788   20.5601 N   0  0  0  0  0  0  0  0  0  0  0  0
   27.5878   35.1058   20.6863 C   0  0  0  0  0  0  0  0  0  0  0  0
   27.6688   34.3138   19.7519 O   0  0  0  0  0  0  0  0  0  0  0  0
   26.9802   34.7111   21.8564 N   0  0  0  0  0  0  0  0  0  0  0  0
   26.8885   35.5861   22.9212 C   0  0  0  0  0  0  0  0  0  0  0  0
   27.4017   36.8729   22.8028 C   0  0  1  0  0  0  0  0  0  0  0  0
   26.3601   35.2216   23.9736 O   0  0  0  0  0  0  0  0  0  0  0  0
   27.8242   39.0310   23.7429 C   0  0  2  0  0  0  0  0  0  0  0  0
   27.3118   37.7532   23.8624 N   0  0  0  0  0  0  0  0  0  0  0  0
   27.7326   39.9198   24.8146 C   0  0  0  0  0  0  0  0  0  0  0  0
   28.2401   41.2089   24.7033 C   0  0  1  0  0  0  0  0  0  0  0  0
   28.1208   42.1356   25.8717 C   0  0  0  0  0  0  0  0  0  0  0  0
   28.8522   41.6161   23.5083 C   0  0  1  0  0  0  0  0  0  0  0  0
   29.4221   42.9991   23.3501 C   0  0  0  0  0  0  0  0  0  0  0  0
   28.9407   40.7275   22.4400 C   0  0  0  0  0  0  0  0  0  0  0  0
   28.4275   39.4337   22.5492 C   0  0  1  0  0  0  0  0  0  0  0  0
   28.0068   37.2682   21.6115 C   0  0  1  0  0  0  0  0  0  0  0  0
   28.5126   38.5479   21.4856 N   0  0  0  0  0  0  0  0  0  0  0  0
  1  2  1  6  0  0  0
  1  3  1  0  0  0  0
  1  4  2  0  0  0  0
  1  6  1  0  0  0  0
  5  6  1  0  0  0  0
  7  5  1  1  0  0  0
  7  8  1  0  0  0  0
  7  9  1  0  0  0  0
  9 10  1  1  0  0  0
  9 11  1  0  0  0  0
 11 12  1  6  0  0  0
 11 13  1  0  0  0  0
 13 31  1  0  0  0  0
 14 15  1  0  0  0  0
 15 16  2  0  0  0  0
 15 17  1  0  0  0  0
 17 18  1  0  0  0  0
 18 20  2  0  0  0  0
 19 18  1  1  0  0  0
 19 22  1  0  0  0  0
 19 30  1  0  0  0  0
 21 23  1  6  0  0  0
 21 29  1  0  0  0  0
 21 22  1  0  0  0  0
 23 24  1  0  0  0  0
 24 25  1  1  0  0  0
 24 26  1  0  0  0  0
 26 27  1  1  0  0  0
 26 28  1  0  0  0  0
 29 28  1  1  0  0  0
 29 31  1  0  0  0  0
 30 14  1  1  0  0  0
 30 31  1  0  0  0  0
M  CHG  1   3  -1
M  END
>  <CHROM.1>
-171.11599300,-178.07934520,53.61029850,-48.59483229,47.21226289,163.81914809
-85.36566390,27.27264417,39.92877497,20.37684873,2.56164286,-1.28542560,0.19118703

>  <Name>
ligand

>  <RI>
0

>  <Rbt.Current_Directory>
/home/itssahil/PROJECTS/Mol_Feturizer/New_Systems/rnas/3F2T

>  <Rbt.Executable>
rbdock ($Id: //depot/dev/client3/rdock/2013.1/src/exe/rbdock.cxx#4 $)

>  <Rbt.Library>
libRbt.so (2013.1, Build901 2013/11/27)

>  <Rbt.Parameter_File>
/export/apps/rDock/src/rDock_2013.1_src/data/scripts/dock_solv.prm

>  <Rbt.Receptor>
prm/blind_docking_60.prm

>  <SCORE>
-24.6709

>  <SCORE.INTER>
-24.5462

>  <SCORE.INTER.CONST>
1

>  <SCORE.INTER.POLAR>
0

>  <SCORE.INTER.ROT>
7

>  <SCORE.INTER.SOLV>
18.1287

>  <SCORE.INTER.VDW>
-30.6737

>  <SCORE.INTER.norm>
-0.791812

>  <SCORE.INTRA>
-0.124729

>  <SCORE.INTRA.DIHEDRAL>
-1.10156

>  <SCORE.INTRA.DIHEDRAL.0>
4.64198

>  <SCORE.INTRA.POLAR>
0

>  <SCORE.INTRA.POLAR.0>
0

>  <SCORE.INTRA.REPUL>
0

>  <SCORE.INTRA.REPUL.0>
0

>  <SCORE.INTRA.SOLV>
-0.131323

>  <SCORE.INTRA.SOLV.lig_0>
-49.3611

>  <SCORE.INTRA.VDW>
0.49171

>  <SCORE.INTRA.VDW.0>
-1.91858

>  <SCORE.INTRA.norm>
-0.00402353

>  <SCORE.RESTR>
0

>  <SCORE.RESTR.CAVITY>
0

>  <SCORE.RESTR.norm>
0

>  <SCORE.SYSTEM>
0

>  <SCORE.SYSTEM.CONST>
0

>  <SCORE.SYSTEM.DIHEDRAL>
0

>  <SCORE.SYSTEM.SOLV>
0

>  <SCORE.SYSTEM.norm>
0

>  <SCORE.heavy>
31

>  <SCORE.norm>
-0.795836

>  <RMSD>
2.893

$$$$
ligand
 OpenBabel11021811473D
libRbt.so/2013.1/901 2013/11/27
 31 33  0  0  0  0  0  0  0  0999 V2000
   26.0769   43.6758   16.2066 P   0  0  1  0  0  0  0  0  0  0  0  0
   25.9113   44.6131   17.3759 O   0  0  0  0  0  0  0  0  0  0  0  0
   24.7240   43.4222   15.5964 O   0  5  0  0  0  0  0  0  0  0  0  0
   27.0161   44.3511   15.2455 O   0  0  0  0  0  0  0  0  0  0  0  0
   27.9440   42.1958   17.2994 C   0  0  0  0  0  0  0  0  0  0  0  0
   26.7053   42.2582   16.6237 O   0  0  0  0  0  0  0  0  0  0  0  0
   28.3540   40.7345   17.4628 C   0  0  1  0  0  0  0  0  0  0  0  0
   29.7272   40.6578   17.7902 O   0  0  0  0  0  0  0  0  0  0  0  0
   27.5437   40.0884   18.5740 C   0  0  1  0  0  0  0  0  0  0  0  0
   26.1819   40.2258   18.2676 O   0  0  0  0  0  0  0  0  0  0  0  0
   27.8620   38.6128   18.7477 C   0  0  1  0  0  0  0  0  0  0  0  0
   28.2818   38.1048   17.5101 O   0  0  0  0  0  0  0  0  0  0  0  0
   28.9672   38.4129   19.7715 C   0  0  0  0  0  0  0  0  0  0  0  0
   28.1620   35.9571   20.8853 N   0  0  0  0  0  0  0  0  0  0  0  0
   27.7296   34.7388   21.3625 C   0  0  0  0  0  0  0  0  0  0  0  0
   27.9084   33.7199   20.7018 O   0  0  0  0  0  0  0  0  0  0  0  0
   27.0929   34.6525   22.5796 N   0  0  0  0  0  0  0  0  0  0  0  0
   26.8915   35.7875   23.3405 C   0  0  0  0  0  0  0  0  0  0  0  0
   27.3236   37.0213   22.8667 C   0  0  1  0  0  0  0  0  0  0  0  0
   26.3375   35.7022   24.4384 O   0  0  0  0  0  0  0  0  0  0  0  0
   27.5560   39.3847   23.1491 C   0  0  2  0  0  0  0  0  0  0  0  0
   27.1239   38.1600   23.6212 N   0  0  0  0  0  0  0  0  0  0  0  0
   27.3534   40.5349   23.9126 C   0  0  0  0  0  0  0  0  0  0  0  0
   27.7794   41.7725   23.4448 C   0  0  1  0  0  0  0  0  0  0  0  0
   27.5420   42.9845   24.2890 C   0  0  0  0  0  0  0  0  0  0  0  0
   28.4210   41.8639   22.2004 C   0  0  1  0  0  0  0  0  0  0  0  0
   28.9053   43.1823   21.6622 C   0  0  0  0  0  0  0  0  0  0  0  0
   28.6202   40.7146   21.4400 C   0  0  0  0  0  0  0  0  0  0  0  0
   28.1890   39.4716   21.9069 C   0  0  1  0  0  0  0  0  0  0  0  0
   27.9588   37.1019   21.6291 C   0  0  1  0  0  0  0  0  0  0  0  0
   28.3845   38.3261   21.1501 N   0  0  0  0  0  0  0  0  0  0  0  0
  1  2  1  1  0  0  0
  1  3  1  0  0  0  0
  1  4  2  0  0  0  0
  1  6  1  0  0  0  0
  5  6  1  0  0  0  0
  7  5  1  1  0  0  0
  7  8  1  0  0  0  0
  7  9  1  0  0  0  0
  9 10  1  6  0  0  0
  9 11  1  0  0  0  0
 11 12  1  6  0  0  0
 11 13  1  0  0  0  0
 13 31  1  0  0  0  0
 14 15  1  0  0  0  0
 15 16  2  0  0  0  0
 15 17  1  0  0  0  0
 17 18  1  0  0  0  0
 18 20  2  0  0  0  0
 19 18  1  1  0  0  0
 19 22  1  0  0  0  0
 19 30  1  0  0  0  0
 21 23  1  6  0  0  0
 21 29  1  0  0  0  0
 21 22  1  0  0  0  0
 23 24  1  0  0  0  0
 24 25  1  1  0  0  0
 24 26  1  0  0  0  0
 26 27  1  1  0  0  0
 26 28  1  0  0  0  0
 29 28  1  1  0  0  0
 29 31  1  0  0  0  0
 30 14  1  1  0  0  0
 30 31  1  0  0  0  0
M  CHG  1   3  -1
M  END
>  <CHROM.1>
-175.19413887,-55.91017424,163.88680672,56.94335717,-28.28306016,87.18422604
-88.66800782,27.47808249,39.85827044,20.04117902,2.91882955,-1.47286964,0.63456114

>  <Name>
ligand

>  <RI>
0

>  <Rbt.Current_Directory>
/home/itssahil/PROJECTS/Mol_Feturizer/New_Systems/rnas/3F2T

>  <Rbt.Executable>
rbdock ($Id: //depot/dev/client3/rdock/2013.1/src/exe/rbdock.cxx#4 $)

>  <Rbt.Library>
libRbt.so (2013.1, Build901 2013/11/27)

>  <Rbt.Parameter_File>
/export/apps/rDock/src/rDock_2013.1_src/data/scripts/dock_solv.prm

>  <Rbt.Receptor>
prm/pocket_docking_7.prm

>  <SCORE>
-24.5877

>  <SCORE.INTER>
-25.6989

>  <SCORE.INTER.CONST>
1

>  <SCORE.INTER.POLAR>
0

>  <SCORE.INTER.ROT>
7

>  <SCORE.INTER.SOLV>
20.4981

>  <SCORE.INTER.VDW>
-32.232

>  <SCORE.INTER.norm>
-0.828996

>  <SCORE.INTRA>
1.11118

>  <SCORE.INTRA.DIHEDRAL>
2.67135

>  <SCORE.INTRA.DIHEDRAL.0>
4.64198

>  <SCORE.INTRA.POLAR>
0

>  <SCORE.INTRA.POLAR.0>
0

>  <SCORE.INTRA.REPUL>
0

>  <SCORE.INTRA.REPUL.0>
0

>  <SCORE.INTRA.SOLV>
-0.219427

>  <SCORE.INTRA.SOLV.lig_0>
-49.3611

>  <SCORE.INTRA.VDW>
-0.114787

>  <SCORE.INTRA.VDW.0>
-1.91858

>  <SCORE.INTRA.norm>
0.0358444

>  <SCORE.RESTR>
0

>  <SCORE.RESTR.CAVITY>
0

>  <SCORE.RESTR.norm>
0

>  <SCORE.SYSTEM>
0

>  <SCORE.SYSTEM.CONST>
0

>  <SCORE.SYSTEM.DIHEDRAL>
0

>  <SCORE.SYSTEM.SOLV>
0

>  <SCORE.SYSTEM.norm>
0

>  <SCORE.heavy>
31

>  <SCORE.norm>
-0.793151

>  <RMSD>
2.898

$$$$
ligand
 OpenBabel11021811473D
libRbt.so/2013.1/901 2013/11/27
 31 33  0  0  0  0  0  0  0  0999 V2000
   26.0296   43.5737   16.2273 P   0  0  1  0  0  0  0  0  0  0  0  0
   24.7880   43.4025   15.3893 O   0  0  0  0  0  0  0  0  0  0  0  0
   27.0208   44.4046   15.4566 O   0  5  0  0  0  0  0  0  0  0  0  0
   25.5970   44.2433   17.5027 O   0  0  0  0  0  0  0  0  0  0  0  0
   27.9420   42.1589   17.3280 C   0  0  0  0  0  0  0  0  0  0  0  0
   26.7339   42.1788   16.5964 O   0  0  0  0  0  0  0  0  0  0  0  0
   28.4011   40.7133   17.5004 C   0  0  1  0  0  0  0  0  0  0  0  0
   29.7567   40.6875   17.9009 O   0  0  0  0  0  0  0  0  0  0  0  0
   27.5589   40.0234   18.5603 C   0  0  1  0  0  0  0  0  0  0  0  0
   26.2102   40.1194   18.1874 O   0  0  0  0  0  0  0  0  0  0  0  0
   27.9187   38.5569   18.7299 C   0  0  1  0  0  0  0  0  0  0  0  0
   28.3899   38.0746   17.5006 O   0  0  0  0  0  0  0  0  0  0  0  0
   28.9998   38.3817   19.7836 C   0  0  0  0  0  0  0  0  0  0  0  0
   28.1662   35.9354   20.8974 N   0  0  0  0  0  0  0  0  0  0  0  0
   27.7216   34.7214   21.3740 C   0  0  0  0  0  0  0  0  0  0  0  0
   27.9159   33.6969   20.7262 O   0  0  0  0  0  0  0  0  0  0  0  0
   27.0553   34.6452   22.5758 N   0  0  0  0  0  0  0  0  0  0  0  0
   26.8361   35.7866   23.3222 C   0  0  0  0  0  0  0  0  0  0  0  0
   27.2804   37.0162   22.8491 C   0  0  1  0  0  0  0  0  0  0  0  0
   26.2554   35.7104   24.4069 O   0  0  0  0  0  0  0  0  0  0  0  0
   27.5072   39.3818   23.1176 C   0  0  2  0  0  0  0  0  0  0  0  0
   27.0631   38.1612   23.5891 N   0  0  0  0  0  0  0  0  0  0  0  0
   27.2868   40.5383   23.8665 C   0  0  0  0  0  0  0  0  0  0  0  0
   27.7248   41.7718   23.3991 C   0  0  1  0  0  0  0  0  0  0  0  0
   27.4676   42.9908   24.2273 C   0  0  0  0  0  0  0  0  0  0  0  0
   28.3966   41.8528   22.1700 C   0  0  1  0  0  0  0  0  0  0  0  0
   28.8947   43.1665   21.6330 C   0  0  0  0  0  0  0  0  0  0  0  0
   28.6137   40.6972   21.4242 C   0  0  0  0  0  0  0  0  0  0  0  0
   28.1705   39.4583   21.8906 C   0  0  1  0  0  0  0  0  0  0  0  0
   27.9457   37.0864   21.6267 C   0  0  1  0  0  0  0  0  0  0  0  0
   28.3837   38.3065   21.1482 N   0  0  0  0  0  0  0  0  0  0  0  0
  1  2  1  6  0  0  0
  1  3  1  0  0  0  0
  1  4  2  0  0  0  0
  1  6  1  0  0  0  0
  5  6  1  0  0  0  0
  7  5  1  1  0  0  0
  7  8  1  0  0  0  0
  7  9  1  0  0  0  0
  9 10  1  6  0  0  0
  9 11  1  0  0  0  0
 11 12  1  6  0  0  0
 11 13  1  0  0  0  0
 13 31  1  0  0  0  0
 14 15  1  0  0  0  0
 15 16  2  0  0  0  0
 15 17  1  0  0  0  0
 17 18  1  0  0  0  0
 18 20  2  0  0  0  0
 19 18  1  1  0  0  0
 19 22  1  0  0  0  0
 19 30  1  0  0  0  0
 21 23  1  6  0  0  0
 21 29  1  0  0  0  0
 21 22  1  0  0  0  0
 23 24  1  0  0  0  0
 24 25  1  1  0  0  0
 24 26  1  0  0  0  0
 26 27  1  1  0  0  0
 26 28  1  0  0  0  0
 29 28  1  1  0  0  0
 29 31  1  0  0  0  0
 30 14  1  1  0  0  0
 30 31  1  0  0  0  0
M  CHG  1   3  -1
M  END
>  <CHROM.1>
-178.44146411,177.24044745,164.37173257,56.47312893,-29.55356129,85.40167725
-89.34726410,27.45983962,39.82183809,20.03870745,3.01702756,-1.47346505,0.73320918

>  <Name>
ligand

>  <RI>
0

>  <Rbt.Current_Directory>
/home/itssahil/PROJECTS/Mol_Feturizer/New_Systems/rnas/3F2T

>  <Rbt.Executable>
rbdock ($Id: //depot/dev/client3/rdock/2013.1/src/exe/rbdock.cxx#4 $)

>  <Rbt.Library>
libRbt.so (2013.1, Build901 2013/11/27)

>  <Rbt.Parameter_File>
/export/apps/rDock/src/rDock_2013.1_src/data/scripts/dock_solv.prm

>  <Rbt.Receptor>
prm/pocket_docking_8.prm

>  <SCORE>
-24.8755

>  <SCORE.INTER>
-26.0564

>  <SCORE.INTER.CONST>
1

>  <SCORE.INTER.POLAR>
0

>  <SCORE.INTER.ROT>
7

>  <SCORE.INTER.SOLV>
19.3996

>  <SCORE.INTER.VDW>
-32.1041

>  <SCORE.INTER.norm>
-0.840528

>  <SCORE.INTRA>
1.18087

>  <SCORE.INTRA.DIHEDRAL>
2.11316

>  <SCORE.INTRA.DIHEDRAL.0>
4.64198

>  <SCORE.INTRA.POLAR>
0

>  <SCORE.INTRA.POLAR.0>
0

>  <SCORE.INTRA.REPUL>
0

>  <SCORE.INTRA.REPUL.0>
0

>  <SCORE.INTRA.SOLV>
0.455902

>  <SCORE.INTRA.SOLV.lig_0>
-49.3611

>  <SCORE.INTRA.VDW>
-0.103667

>  <SCORE.INTRA.VDW.0>
-1.91858

>  <SCORE.INTRA.norm>
0.0380925

>  <SCORE.RESTR>
0

>  <SCORE.RESTR.CAVITY>
0

>  <SCORE.RESTR.norm>
0

>  <SCORE.SYSTEM>
0

>  <SCORE.SYSTEM.CONST>
0

>  <SCORE.SYSTEM.DIHEDRAL>
0

>  <SCORE.SYSTEM.SOLV>
0

>  <SCORE.SYSTEM.norm>
0

>  <SCORE.heavy>
31

>  <SCORE.norm>
-0.802436

>  <RMSD>
2.949

$$$$
ligand
 OpenBabel11021811473D
libRbt.so/2013.1/901 2013/11/27
 31 33  0  0  0  0  0  0  0  0999 V2000
   24.9577   44.4683   16.9565 P   0  0  1  0  0  0  0  0  0  0  0  0
   23.8949   45.1152   17.8081 O   0  0  0  0  0  0  0  0  0  0  0  0
   24.3616   44.1292   15.6162 O   0  5  0  0  0  0  0  0  0  0  0  0
   26.0807   45.4624   16.8438 O   0  0  0  0  0  0  0  0  0  0  0  0
   26.5852   42.4136   16.9622 C   0  0  0  0  0  0  0  0  0  0  0  0
   25.5365   43.1147   17.5976 O   0  0  0  0  0  0  0  0  0  0  0  0
   26.6698   41.0036   17.5410 C   0  0  1  0  0  0  0  0  0  0  0  0
   27.1007   40.1021   16.5408 O   0  0  0  0  0  0  0  0  0  0  0  0
   27.6593   40.9734   18.6937 C   0  0  1  0  0  0  0  0  0  0  0  0
   27.4088   42.0768   19.5226 O   0  0  0  0  0  0  0  0  0  0  0  0
   27.5547   39.7032   19.5210 C   0  0  1  0  0  0  0  0  0  0  0  0
   27.4029   38.6190   18.6449 O   0  0  0  0  0  0  0  0  0  0  0  0
   28.8051   39.4974   20.3598 C   0  0  0  0  0  0  0  0  0  0  0  0
   28.0420   36.7932   20.5178 N   0  0  0  0  0  0  0  0  0  0  0  0
   27.6188   35.4819   20.5342 C   0  0  0  0  0  0  0  0  0  0  0  0
   27.6245   34.8199   19.5005 O   0  0  0  0  0  0  0  0  0  0  0  0
   27.1844   34.9036   21.7051 N   0  0  0  0  0  0  0  0  0  0  0  0
   27.1799   35.6310   22.8793 C   0  0  0  0  0  0  0  0  0  0  0  0
   27.6044   36.9550   22.8723 C   0  0  1  0  0  0  0  0  0  0  0  0
   26.8077   35.1026   23.9290 O   0  0  0  0  0  0  0  0  0  0  0  0
   28.0249   39.0034   24.0328 C   0  0  2  0  0  0  0  0  0  0  0  0
   27.6007   37.6883   24.0419 N   0  0  0  0  0  0  0  0  0  0  0  0
   28.0205   39.7435   25.2157 C   0  0  0  0  0  0  0  0  0  0  0  0
   28.4402   41.0685   25.2167 C   0  0  1  0  0  0  0  0  0  0  0  0
   28.4184   41.8321   26.5029 C   0  0  0  0  0  0  0  0  0  0  0  0
   28.8752   41.6627   24.0223 C   0  0  1  0  0  0  0  0  0  0  0  0
   29.3458   43.0907   23.9822 C   0  0  0  0  0  0  0  0  0  0  0  0
   28.8768   40.9220   22.8433 C   0  0  0  0  0  0  0  0  0  0  0  0
   28.4516   39.5923   22.8402 C   0  0  1  0  0  0  0  0  0  0  0  0
   28.0336   37.5363   21.6809 C   0  0  1  0  0  0  0  0  0  0  0  0
   28.4503   38.8537   21.6665 N   0  0  0  0  0  0  0  0  0  0  0  0
  1  2  1  1  0  0  0
  1  3  1  0  0  0  0
  1  4  2  0  0  0  0
  1  6  1  0  0  0  0
  5  6  1  0  0  0  0
  7  5  1  6  0  0  0
  7  8  1  0  0  0  0
  7  9  1  0  0  0  0
  9 10  1  1  0  0  0
  9 11  1  0  0  0  0
 11 12  1  6  0  0  0
 11 13  1  0  0  0  0
 13 31  1  0  0  0  0
 14 15  1  0  0  0  0
 15 16  2  0  0  0  0
 15 17  1  0  0  0  0
 17 18  1  0  0  0  0
 18 20  2  0  0  0  0
 19 18  1  1  0  0  0
 19 22  1  0  0  0  0
 19 30  1  0  0  0  0
 21 23  1  6  0  0  0
 21 29  1  0  0  0  0
 21 22  1  0  0  0  0
 23 24  1  0  0  0  0
 24 25  1  1  0  0  0
 24 26  1  0  0  0  0
 26 27  1  1  0  0  0
 26 28  1  0  0  0  0
 29 28  1  1  0  0  0
 29 31  1  0  0  0  0
 30 14  1  1  0  0  0
 30 31  1  0  0  0  0
M  CHG  1   3  -1
M  END
>  <CHROM.1>
-164.17171169,-176.95370061,147.53361633,45.86871823,42.14087706,145.97161577
-105.83245762,27.21275920,40.18749259,20.54363197,-2.61778718,1.25957662
-2.88321632

>  <Name>
ligand

>  <RI>
0

>  <Rbt.Current_Directory>
/home/itssahil/PROJECTS/Mol_Feturizer/New_Systems/rnas/3F2T

>  <Rbt.Executable>
rbdock ($Id: //depot/dev/client3/rdock/2013.1/src/exe/rbdock.cxx#4 $)

>  <Rbt.Library>
libRbt.so (2013.1, Build901 2013/11/27)

>  <Rbt.Parameter_File>
/export/apps/rDock/src/rDock_2013.1_src/data/scripts/dock_solv.prm

>  <Rbt.Receptor>
prm/pocket_docking_7.prm

>  <SCORE>
-21.3453

>  <SCORE.INTER>
-25.0208

>  <SCORE.INTER.CONST>
1

>  <SCORE.INTER.POLAR>
0

>  <SCORE.INTER.ROT>
7

>  <SCORE.INTER.SOLV>
17.7156

>  <SCORE.INTER.VDW>
-30.8524

>  <SCORE.INTER.norm>
-0.807123

>  <SCORE.INTRA>
3.67547

>  <SCORE.INTRA.DIHEDRAL>
5.63241

>  <SCORE.INTRA.DIHEDRAL.0>
4.64198

>  <SCORE.INTRA.POLAR>
0

>  <SCORE.INTRA.POLAR.0>
0

>  <SCORE.INTRA.REPUL>
0

>  <SCORE.INTRA.REPUL.0>
0

>  <SCORE.INTRA.SOLV>
0.205953

>  <SCORE.INTRA.SOLV.lig_0>
-49.3611

>  <SCORE.INTRA.VDW>
0.756284

>  <SCORE.INTRA.VDW.0>
-1.91858

>  <SCORE.INTRA.norm>
0.118563

>  <SCORE.RESTR>
0

>  <SCORE.RESTR.CAVITY>
0

>  <SCORE.RESTR.norm>
0

>  <SCORE.SYSTEM>
0

>  <SCORE.SYSTEM.CONST>
0

>  <SCORE.SYSTEM.DIHEDRAL>
0

>  <SCORE.SYSTEM.SOLV>
0

>  <SCORE.SYSTEM.norm>
0

>  <SCORE.heavy>
31

>  <SCORE.norm>
-0.688559

>  <RMSD>
2.953

$$$$
ligand
 OpenBabel11021811473D
libRbt.so/2013.1/901 2013/11/27
 31 33  0  0  0  0  0  0  0  0999 V2000
   25.3990   43.5631   16.2555 P   0  0  1  0  0  0  0  0  0  0  0  0
   24.6424   42.6094   17.1451 O   0  0  0  0  0  0  0  0  0  0  0  0
   24.5173   43.9429   15.0956 O   0  5  0  0  0  0  0  0  0  0  0  0
   25.7597   44.7491   17.1071 O   0  0  0  0  0  0  0  0  0  0  0  0
   27.7868   42.5174   16.5299 C   0  0  0  0  0  0  0  0  0  0  0  0
   26.7504   42.9296   15.6634 O   0  0  0  0  0  0  0  0  0  0  0  0
   27.2951   41.3497   17.3813 C   0  0  1  0  0  0  0  0  0  0  0  0
   26.9548   40.2604   16.5468 O   0  0  0  0  0  0  0  0  0  0  0  0
   28.3862   40.9130   18.3445 C   0  0  1  0  0  0  0  0  0  0  0  0
   28.8406   42.0420   19.0416 O   0  0  0  0  0  0  0  0  0  0  0  0
   27.9019   39.8785   19.3465 C   0  0  1  0  0  0  0  0  0  0  0  0
   27.3130   38.8217   18.6378 O   0  0  0  0  0  0  0  0  0  0  0  0
   29.0579   39.3426   20.1748 C   0  0  0  0  0  0  0  0  0  0  0  0
   28.1336   36.7014   20.4742 N   0  0  0  0  0  0  0  0  0  0  0  0
   27.6377   35.4183   20.5549 C   0  0  0  0  0  0  0  0  0  0  0  0
   27.6959   34.6732   19.5811 O   0  0  0  0  0  0  0  0  0  0  0  0
   27.0718   34.9612   21.7231 N   0  0  0  0  0  0  0  0  0  0  0  0
   27.0063   35.7828   22.8314 C   0  0  0  0  0  0  0  0  0  0  0  0
   27.5035   37.0794   22.7593 C   0  0  1  0  0  0  0  0  0  0  0  0
   26.5156   35.3624   23.8812 O   0  0  0  0  0  0  0  0  0  0  0  0
   27.9359   39.1941   23.7891 C   0  0  2  0  0  0  0  0  0  0  0  0
   27.4395   37.9066   23.8626 N   0  0  0  0  0  0  0  0  0  0  0  0
   27.8706   40.0292   24.9049 C   0  0  0  0  0  0  0  0  0  0  0  0
   28.3622   41.3277   24.8402 C   0  0  1  0  0  0  0  0  0  0  0  0
   28.2720   42.1956   26.0553 C   0  0  0  0  0  0  0  0  0  0  0  0
   28.9317   41.7986   23.6475 C   0  0  1  0  0  0  0  0  0  0  0  0
   29.4833   43.1936   23.5385 C   0  0  0  0  0  0  0  0  0  0  0  0
   28.9939   40.9634   22.5351 C   0  0  0  0  0  0  0  0  0  0  0  0
   28.4967   39.6604   22.5977 C   0  0  1  0  0  0  0  0  0  0  0  0
   28.0661   37.5381   21.5699 C   0  0  1  0  0  0  0  0  0  0  0  0
   28.5557   38.8278   21.4902 N   0  0  0  0  0  0  0  0  0  0  0  0
  1  2  1  1  0  0  0
  1  3  1  0  0  0  0
  1  4  2  0  0  0  0
  1  6  1  0  0  0  0
  5  6  1  0  0  0  0
  7  5  1  6  0  0  0
  7  8  1  0  0  0  0
  7  9  1  0  0  0  0
  9 10  1  1  0  0  0
  9 11  1  0  0  0  0
 11 12  1  6  0  0  0
 11 13  1  0  0  0  0
 13 31  1  0  0  0  0
 14 15  1  0  0  0  0
 15 16  2  0  0  0  0
 15 17  1  0  0  0  0
 17 18  1  0  0  0  0
 18 20  2  0  0  0  0
 19 18  1  1  0  0  0
 19 22  1  0  0  0  0
 19 30  1  0  0  0  0
 21 23  1  6  0  0  0
 21 29  1  0  0  0  0
 21 22  1  0  0  0  0
 23 24  1  0  0  0  0
 24 25  1  1  0  0  0
 24 26  1  0  0  0  0
 26 27  1  1  0  0  0
 26 28  1  0  0  0  0
 29 28  1  1  0  0  0
 29 31  1  0  0  0  0
 30 14  1  1  0  0  0
 30 31  1  0  0  0  0
M  CHG  1   3  -1
M  END
>  <CHROM.1>
65.18702454,-61.71766426,61.43540625,51.80997007,53.10523504,155.22158542
-91.12519166,27.42571258,40.07688230,20.23985470,-2.40376747,1.29511306,3.06368025

>  <Name>
ligand

>  <RI>
0

>  <Rbt.Current_Directory>
/home/itssahil/PROJECTS/Mol_Feturizer/New_Systems/rnas/3F2T

>  <Rbt.Executable>
rbdock ($Id: //depot/dev/client3/rdock/2013.1/src/exe/rbdock.cxx#4 $)

>  <Rbt.Library>
libRbt.so (2013.1, Build901 2013/11/27)

>  <Rbt.Parameter_File>
/export/apps/rDock/src/rDock_2013.1_src/data/scripts/dock_solv.prm

>  <Rbt.Receptor>
prm/blind_docking_80.prm

>  <SCORE>
-27.083

>  <SCORE.INTER>
-27.2056

>  <SCORE.INTER.CONST>
1

>  <SCORE.INTER.POLAR>
0

>  <SCORE.INTER.ROT>
7

>  <SCORE.INTER.SOLV>
17.8293

>  <SCORE.INTER.VDW>
-32.3468

>  <SCORE.INTER.norm>
-0.877601

>  <SCORE.INTRA>
0.122675

>  <SCORE.INTRA.DIHEDRAL>
-1.07884

>  <SCORE.INTRA.DIHEDRAL.0>
4.64198

>  <SCORE.INTRA.POLAR>
0

>  <SCORE.INTRA.POLAR.0>
0

>  <SCORE.INTRA.REPUL>
0

>  <SCORE.INTRA.REPUL.0>
0

>  <SCORE.INTRA.SOLV>
0.767149

>  <SCORE.INTRA.SOLV.lig_0>
-49.3611

>  <SCORE.INTRA.VDW>
0.278519

>  <SCORE.INTRA.VDW.0>
-1.91858

>  <SCORE.INTRA.norm>
0.00395725

>  <SCORE.RESTR>
0

>  <SCORE.RESTR.CAVITY>
0

>  <SCORE.RESTR.norm>
0

>  <SCORE.SYSTEM>
0

>  <SCORE.SYSTEM.CONST>
0

>  <SCORE.SYSTEM.DIHEDRAL>
0

>  <SCORE.SYSTEM.SOLV>
0

>  <SCORE.SYSTEM.norm>
0

>  <SCORE.heavy>
31

>  <SCORE.norm>
-0.873644

>  <RMSD>
2.962

$$$$
ligand
 OpenBabel11021811473D
libRbt.so/2013.1/901 2013/11/27
 31 33  0  0  0  0  0  0  0  0999 V2000
   25.3514   44.1319   16.3279 P   0  0  1  0  0  0  0  0  0  0  0  0
   25.6529   43.6078   14.9467 O   0  0  0  0  0  0  0  0  0  0  0  0
   24.7177   45.4917   16.2000 O   0  5  0  0  0  0  0  0  0  0  0  0
   24.4296   43.1340   16.9733 O   0  0  0  0  0  0  0  0  0  0  0  0
   27.6245   43.2475   17.2877 C   0  0  0  0  0  0  0  0  0  0  0  0
   26.6631   44.2811   17.2419 O   0  0  0  0  0  0  0  0  0  0  0  0
   27.0610   42.0721   18.0822 C   0  0  1  0  0  0  0  0  0  0  0  0
   26.4153   41.1696   17.2063 O   0  0  0  0  0  0  0  0  0  0  0  0
   28.1845   41.3449   18.8018 C   0  0  1  0  0  0  0  0  0  0  0  0
   28.8810   42.2732   19.5895 O   0  0  0  0  0  0  0  0  0  0  0  0
   27.6782   40.2244   19.6946 C   0  0  1  0  0  0  0  0  0  0  0  0
   26.9325   39.3367   18.9060 O   0  0  0  0  0  0  0  0  0  0  0  0
   28.8354   39.4749   20.3337 C   0  0  0  0  0  0  0  0  0  0  0  0
   27.8755   36.8325   20.4603 N   0  0  0  0  0  0  0  0  0  0  0  0
   27.3587   35.5551   20.4601 C   0  0  0  0  0  0  0  0  0  0  0  0
   27.3461   34.8960   19.4246 O   0  0  0  0  0  0  0  0  0  0  0  0
   26.8510   35.0077   21.6162 N   0  0  0  0  0  0  0  0  0  0  0  0
   26.8656   35.7315   22.7925 C   0  0  0  0  0  0  0  0  0  0  0  0
   27.3844   37.0215   22.8022 C   0  0  1  0  0  0  0  0  0  0  0  0
   26.4268   35.2297   23.8294 O   0  0  0  0  0  0  0  0  0  0  0  0
   27.9182   39.0325   23.9816 C   0  0  2  0  0  0  0  0  0  0  0  0
   27.4004   37.7513   23.9740 N   0  0  0  0  0  0  0  0  0  0  0  0
   27.9336   39.7690   25.1665 C   0  0  0  0  0  0  0  0  0  0  0  0
   28.4474   41.0604   25.1841 C   0  0  1  0  0  0  0  0  0  0  0  0
   28.4443   41.8215   26.4720 C   0  0  0  0  0  0  0  0  0  0  0  0
   28.9576   41.6236   24.0047 C   0  0  1  0  0  0  0  0  0  0  0  0
   29.5307   43.0140   23.9830 C   0  0  0  0  0  0  0  0  0  0  0  0
   28.9393   40.8867   22.8234 C   0  0  0  0  0  0  0  0  0  0  0  0
   28.4197   39.5911   22.8036 C   0  0  1  0  0  0  0  0  0  0  0  0
   27.8877   37.5724   21.6255 C   0  0  1  0  0  0  0  0  0  0  0  0
   28.3984   38.8564   21.6276 N   0  0  0  0  0  0  0  0  0  0  0  0
  1  2  1  6  0  0  0
  1  3  1  0  0  0  0
  1  4  2  0  0  0  0
  1  6  1  0  0  0  0
  5  6  1  0  0  0  0
  7  5  1  6  0  0  0
  7  8  1  0  0  0  0
  7  9  1  0  0  0  0
  9 10  1  1  0  0  0
  9 11  1  0  0  0  0
 11 12  1  6  0  0  0
 11 13  1  0  0  0  0
 13 31  1  0  0  0  0
 14 15  1  0  0  0  0
 15 16  2  0  0  0  0
 15 17  1  0  0  0  0
 17 18  1  0  0  0  0
 18 20  2  0  0  0  0
 19 18  1  1  0  0  0
 19 22  1  0  0  0  0
 19 30  1  0  0  0  0
 21 23  1  6  0  0  0
 21 29  1  0  0  0  0
 21 22  1  0  0  0  0
 23 24  1  0  0  0  0
 24 25  1  1  0  0  0
 24 26  1  0  0  0  0
 26 27  1  1  0  0  0
 26 28  1  0  0  0  0
 29 28  1  1  0  0  0
 29 31  1  0  0  0  0
 30 14  1  1  0  0  0
 30 31  1  0  0  0  0
M  CHG  1   3  -1
M  END
>  <CHROM.1>
-72.59881261,-45.27964195,91.61766328,55.19628730,57.00669353,153.59481158
-85.15592264,27.30453219,40.28815117,20.45116205,2.23563104,-1.23807514,-0.19127411

>  <Name>
ligand

>  <RI>
0

>  <Rbt.Current_Directory>
/home/itssahil/PROJECTS/Mol_Feturizer/New_Systems/rnas/3F2T

>  <Rbt.Executable>
rbdock ($Id: //depot/dev/client3/rdock/2013.1/src/exe/rbdock.cxx#4 $)

>  <Rbt.Library>
libRbt.so (2013.1, Build901 2013/11/27)

>  <Rbt.Parameter_File>
/export/apps/rDock/src/rDock_2013.1_src/data/scripts/dock_solv.prm

>  <Rbt.Receptor>
prm/blind_docking_100.prm

>  <SCORE>
-23.7589

>  <SCORE.INTER>
-25.9534

>  <SCORE.INTER.CONST>
1

>  <SCORE.INTER.POLAR>
0

>  <SCORE.INTER.ROT>
7

>  <SCORE.INTER.SOLV>
17.0068

>  <SCORE.INTER.VDW>
-31.2379

>  <SCORE.INTER.norm>
-0.837208

>  <SCORE.INTRA>
2.19453

>  <SCORE.INTRA.DIHEDRAL>
2.61379

>  <SCORE.INTRA.DIHEDRAL.0>
4.64198

>  <SCORE.INTRA.POLAR>
0

>  <SCORE.INTRA.POLAR.0>
0

>  <SCORE.INTRA.REPUL>
0

>  <SCORE.INTRA.REPUL.0>
0

>  <SCORE.INTRA.SOLV>
1.95063

>  <SCORE.INTRA.SOLV.lig_0>
-49.3611

>  <SCORE.INTRA.VDW>
-0.0876813

>  <SCORE.INTRA.VDW.0>
-1.91858

>  <SCORE.INTRA.norm>
0.0707912

>  <SCORE.RESTR>
0

>  <SCORE.RESTR.CAVITY>
0

>  <SCORE.RESTR.norm>
0

>  <SCORE.SYSTEM>
0

>  <SCORE.SYSTEM.CONST>
0

>  <SCORE.SYSTEM.DIHEDRAL>
0

>  <SCORE.SYSTEM.SOLV>
0

>  <SCORE.SYSTEM.norm>
0

>  <SCORE.heavy>
31

>  <SCORE.norm>
-0.766417

>  <RMSD>
2.986

$$$$
ligand
 OpenBabel11021811473D
libRbt.so/2013.1/901 2013/11/27
 31 33  0  0  0  0  0  0  0  0999 V2000
   27.3831   42.7665   16.3474 P   0  0  1  0  0  0  0  0  0  0  0  0
   26.3689   43.0458   15.2673 O   0  0  0  0  0  0  0  0  0  0  0  0
   28.0972   44.0492   16.6817 O   0  5  0  0  0  0  0  0  0  0  0  0
   26.6192   42.2189   17.5215 O   0  0  0  0  0  0  0  0  0  0  0  0
   29.7724   41.6983   16.4907 C   0  0  0  0  0  0  0  0  0  0  0  0
   28.4863   41.6861   15.9071 O   0  0  0  0  0  0  0  0  0  0  0  0
   29.7030   41.0541   17.8729 C   0  0  1  0  0  0  0  0  0  0  0  0
   28.8883   41.8361   18.7236 O   0  0  0  0  0  0  0  0  0  0  0  0
   29.1113   39.6586   17.7669 C   0  0  1  0  0  0  0  0  0  0  0  0
   29.9389   38.8876   16.9375 O   0  0  0  0  0  0  0  0  0  0  0  0
   28.9899   38.9709   19.1163 C   0  0  1  0  0  0  0  0  0  0  0  0
   30.1698   39.2047   19.8369 O   0  0  0  0  0  0  0  0  0  0  0  0
   27.8084   39.5180   19.9000 C   0  0  0  0  0  0  0  0  0  0  0  0
   27.1880   36.8096   20.3464 N   0  0  0  0  0  0  0  0  0  0  0  0
   26.8214   35.4922   20.5168 C   0  0  0  0  0  0  0  0  0  0  0  0
   26.6075   34.7811   19.5394 O   0  0  0  0  0  0  0  0  0  0  0  0
   26.6895   34.9626   21.7802 N   0  0  0  0  0  0  0  0  0  0  0  0
   26.9352   35.7458   22.8911 C   0  0  0  0  0  0  0  0  0  0  0  0
   27.3048   37.0764   22.7289 C   0  0  1  0  0  0  0  0  0  0  0  0
   26.8340   35.2616   24.0201 O   0  0  0  0  0  0  0  0  0  0  0  0
   27.9191   39.1870   23.6712 C   0  0  2  0  0  0  0  0  0  0  0  0
   27.5501   37.8654   23.8349 N   0  0  0  0  0  0  0  0  0  0  0  0
   28.1667   39.9833   24.7898 C   0  0  0  0  0  0  0  0  0  0  0  0
   28.5334   41.3152   24.6365 C   0  0  1  0  0  0  0  0  0  0  0  0
   28.7873   42.1398   25.8587 C   0  0  0  0  0  0  0  0  0  0  0  0
   28.6600   41.8595   23.3495 C   0  0  1  0  0  0  0  0  0  0  0  0
   29.0634   43.2933   23.1401 C   0  0  0  0  0  0  0  0  0  0  0  0
   28.4107   41.0627   22.2352 C   0  0  0  0  0  0  0  0  0  0  0  0
   28.0383   39.7260   22.3880 C   0  0  1  0  0  0  0  0  0  0  0  0
   27.4269   37.6080   21.4467 C   0  0  1  0  0  0  0  0  0  0  0  0
   27.7873   38.9314   21.2794 N   0  0  0  0  0  0  0  0  0  0  0  0
  1  2  1  6  0  0  0
  1  3  1  0  0  0  0
  1  4  2  0  0  0  0
  1  6  1  0  0  0  0
  5  6  1  0  0  0  0
  7  5  1  6  0  0  0
  7  8  1  0  0  0  0
  7  9  1  0  0  0  0
  9 10  1  6  0  0  0
  9 11  1  0  0  0  0
 11 12  1  1  0  0  0
 11 13  1  0  0  0  0
 13 31  1  0  0  0  0
 14 15  1  0  0  0  0
 15 16  2  0  0  0  0
 15 17  1  0  0  0  0
 17 18  1  0  0  0  0
 18 20  2  0  0  0  0
 19 18  1  6  0  0  0
 19 22  1  0  0  0  0
 19 30  1  0  0  0  0
 21 23  1  1  0  0  0
 21 29  1  0  0  0  0
 21 22  1  0  0  0  0
 23 24  1  0  0  0  0
 24 25  1  6  0  0  0
 24 26  1  0  0  0  0
 26 27  1  6  0  0  0
 26 28  1  0  0  0  0
 29 28  1  6  0  0  0
 29 31  1  0  0  0  0
 30 14  1  6  0  0  0
 30 31  1  0  0  0  0
M  CHG  1   3  -1
M  END
>  <CHROM.1>
78.50218366,153.30752528,-64.51589093,60.52993460,-43.34128936,-174.21078707
111.98190751,28.04494675,39.78651699,20.22262914,1.15371856,-1.37898191,-1.34787069

>  <Name>
ligand

>  <RI>
0

>  <Rbt.Current_Directory>
/home/itssahil/PROJECTS/Mol_Feturizer/New_Systems/rnas/3F2T

>  <Rbt.Executable>
rbdock ($Id: //depot/dev/client3/rdock/2013.1/src/exe/rbdock.cxx#4 $)

>  <Rbt.Library>
libRbt.so (2013.1, Build901 2013/11/27)

>  <Rbt.Parameter_File>
/export/apps/rDock/src/rDock_2013.1_src/data/scripts/dock_solv.prm

>  <Rbt.Receptor>
prm/blind_docking_80.prm

>  <SCORE>
-20.5799

>  <SCORE.INTER>
-23.7265

>  <SCORE.INTER.CONST>
1

>  <SCORE.INTER.POLAR>
0

>  <SCORE.INTER.ROT>
7

>  <SCORE.INTER.SOLV>
17.1723

>  <SCORE.INTER.VDW>
-29.8084

>  <SCORE.INTER.norm>
-0.765372

>  <SCORE.INTRA>
3.14664

>  <SCORE.INTRA.DIHEDRAL>
0.386742

>  <SCORE.INTRA.DIHEDRAL.0>
4.64198

>  <SCORE.INTRA.POLAR>
0

>  <SCORE.INTRA.POLAR.0>
0

>  <SCORE.INTRA.REPUL>
0

>  <SCORE.INTRA.REPUL.0>
0

>  <SCORE.INTRA.SOLV>
5.10941

>  <SCORE.INTRA.SOLV.lig_0>
-49.3611

>  <SCORE.INTRA.VDW>
0.398565

>  <SCORE.INTRA.VDW.0>
-1.91858

>  <SCORE.INTRA.norm>
0.101505

>  <SCORE.RESTR>
0

>  <SCORE.RESTR.CAVITY>
0

>  <SCORE.RESTR.norm>
0

>  <SCORE.SYSTEM>
0

>  <SCORE.SYSTEM.CONST>
0

>  <SCORE.SYSTEM.DIHEDRAL>
0

>  <SCORE.SYSTEM.SOLV>
0

>  <SCORE.SYSTEM.norm>
0

>  <SCORE.heavy>
31

>  <SCORE.norm>
-0.663867

>  <RMSD>
2.999

$$$$
ligand
 OpenBabel11021811473D
libRbt.so/2013.1/901 2013/11/27
 31 33  0  0  0  0  0  0  0  0999 V2000
   25.4810   43.5534   16.2838 P   0  0  1  0  0  0  0  0  0  0  0  0
   24.8547   43.9890   14.9833 O   0  0  0  0  0  0  0  0  0  0  0  0
   26.3066   44.6899   16.8259 O   0  5  0  0  0  0  0  0  0  0  0  0
   24.3488   43.1849   17.2027 O   0  0  0  0  0  0  0  0  0  0  0  0
   27.0236   41.6698   17.2549 C   0  0  0  0  0  0  0  0  0  0  0  0
   26.4420   42.2775   16.1203 O   0  0  0  0  0  0  0  0  0  0  0  0
   28.0291   40.6152   16.8000 C   0  0  1  0  0  0  0  0  0  0  0  0
   28.8784   41.1610   15.8103 O   0  0  0  0  0  0  0  0  0  0  0  0
   28.8725   40.1587   17.9786 C   0  0  1  0  0  0  0  0  0  0  0  0
   29.3090   41.2934   18.6779 O   0  0  0  0  0  0  0  0  0  0  0  0
   28.1056   39.2583   18.9325 C   0  0  1  0  0  0  0  0  0  0  0  0
   27.4306   38.2897   18.1761 O   0  0  0  0  0  0  0  0  0  0  0  0
   29.0489   38.5672   19.9030 C   0  0  0  0  0  0  0  0  0  0  0  0
   28.2008   36.0576   20.8532 N   0  0  0  0  0  0  0  0  0  0  0  0
   27.7514   34.8162   21.2477 C   0  0  0  0  0  0  0  0  0  0  0  0
   27.9743   33.8305   20.5508 O   0  0  0  0  0  0  0  0  0  0  0  0
   27.0484   34.6693   22.4216 N   0  0  0  0  0  0  0  0  0  0  0  0
   26.7965   35.7661   23.2226 C   0  0  0  0  0  0  0  0  0  0  0  0
   27.2454   37.0229   22.8323 C   0  0  1  0  0  0  0  0  0  0  0  0
   26.1827   35.6263   24.2824 O   0  0  0  0  0  0  0  0  0  0  0  0
   27.4443   39.3714   23.2380 C   0  0  2  0  0  0  0  0  0  0  0  0
   26.9955   38.1237   23.6271 N   0  0  0  0  0  0  0  0  0  0  0  0
   27.1909   40.4832   24.0422 C   0  0  0  0  0  0  0  0  0  0  0  0
   27.6333   41.7435   23.6578 C   0  0  1  0  0  0  0  0  0  0  0  0
   27.3403   42.9131   24.5433 C   0  0  0  0  0  0  0  0  0  0  0  0
   28.3427   41.8968   22.4570 C   0  0  1  0  0  0  0  0  0  0  0  0
   28.8466   43.2414   22.0094 C   0  0  0  0  0  0  0  0  0  0  0  0
   28.5925   40.7857   21.6558 C   0  0  0  0  0  0  0  0  0  0  0  0
   28.1450   39.5200   22.0388 C   0  0  1  0  0  0  0  0  0  0  0  0
   27.9481   37.1650   21.6375 C   0  0  1  0  0  0  0  0  0  0  0  0
   28.3908   38.4125   21.2412 N   0  0  0  0  0  0  0  0  0  0  0  0
  1  2  1  6  0  0  0
  1  3  1  0  0  0  0
  1  4  2  0  0  0  0
  1  6  1  0  0  0  0
  5  6  1  0  0  0  0
  7  5  1  1  0  0  0
  7  8  1  0  0  0  0
  7  9  1  0  0  0  0
  9 10  1  1  0  0  0
  9 11  1  0  0  0  0
 11 12  1  6  0  0  0
 11 13  1  0  0  0  0
 13 31  1  0  0  0  0
 14 15  1  0  0  0  0
 15 16  2  0  0  0  0
 15 17  1  0  0  0  0
 17 18  1  0  0  0  0
 18 20  2  0  0  0  0
 19 18  1  1  0  0  0
 19 22  1  0  0  0  0
 19 30  1  0  0  0  0
 21 23  1  6  0  0  0
 21 29  1  0  0  0  0
 21 22  1  0  0  0  0
 23 24  1  0  0  0  0
 24 25  1  1  0  0  0
 24 26  1  0  0  0  0
 26 27  1  1  0  0  0
 26 28  1  0  0  0  0
 29 28  1  1  0  0  0
 29 31  1  0  0  0  0
 30 14  1  1  0  0  0
 30 31  1  0  0  0  0
M  CHG  1   3  -1
M  END
>  <CHROM.1>
-172.30480196,-174.77863973,48.21608675,-46.75750172,46.90059619,145.19481589
-69.64401099,27.37648791,39.91106235,20.02331029,-3.11179136,-1.44031105
0.84593360

>  <Name>
ligand

>  <RI>
0

>  <Rbt.Current_Directory>
/home/itssahil/PROJECTS/Mol_Feturizer/New_Systems/rnas/3F2T

>  <Rbt.Executable>
rbdock ($Id: //depot/dev/client3/rdock/2013.1/src/exe/rbdock.cxx#4 $)

>  <Rbt.Library>
libRbt.so (2013.1, Build901 2013/11/27)

>  <Rbt.Parameter_File>
/export/apps/rDock/src/rDock_2013.1_src/data/scripts/dock_solv.prm

>  <Rbt.Receptor>
prm/pocket_docking_5.prm

>  <SCORE>
-24.5149

>  <SCORE.INTER>
-25.8685

>  <SCORE.INTER.CONST>
1

>  <SCORE.INTER.POLAR>
0

>  <SCORE.INTER.ROT>
7

>  <SCORE.INTER.SOLV>
19.2702

>  <SCORE.INTER.VDW>
-31.9357

>  <SCORE.INTER.norm>
-0.834468

>  <SCORE.INTRA>
1.35363

>  <SCORE.INTRA.DIHEDRAL>
1.81718

>  <SCORE.INTRA.DIHEDRAL.0>
4.64198

>  <SCORE.INTRA.POLAR>
0

>  <SCORE.INTRA.POLAR.0>
0

>  <SCORE.INTRA.REPUL>
0

>  <SCORE.INTRA.REPUL.0>
0

>  <SCORE.INTRA.SOLV>
-0.055568

>  <SCORE.INTRA.SOLV.lig_0>
-49.3611

>  <SCORE.INTRA.VDW>
0.472825

>  <SCORE.INTRA.VDW.0>
-1.91858

>  <SCORE.INTRA.norm>
0.0436656

>  <SCORE.RESTR>
0

>  <SCORE.RESTR.CAVITY>
0

>  <SCORE.RESTR.norm>
0

>  <SCORE.SYSTEM>
0

>  <SCORE.SYSTEM.CONST>
0

>  <SCORE.SYSTEM.DIHEDRAL>
0

>  <SCORE.SYSTEM.SOLV>
0

>  <SCORE.SYSTEM.norm>
0

>  <SCORE.heavy>
31

>  <SCORE.norm>
-0.790802

>  <RMSD>
3.014

$$$$
ligand
 OpenBabel11021811473D
libRbt.so/2013.1/901 2013/11/27
 31 33  0  0  0  0  0  0  0  0999 V2000
   25.4841   43.8659   16.7652 P   0  0  1  0  0  0  0  0  0  0  0  0
   26.1253   45.2244   16.8942 O   0  0  0  0  0  0  0  0  0  0  0  0
   24.0013   44.0098   16.9834 O   0  5  0  0  0  0  0  0  0  0  0  0
   25.8094   43.3676   15.3840 O   0  0  0  0  0  0  0  0  0  0  0  0
   27.3905   42.3906   17.7945 C   0  0  0  0  0  0  0  0  0  0  0  0
   26.0411   42.8058   17.8349 O   0  0  0  0  0  0  0  0  0  0  0  0
   27.5843   41.2181   18.7526 C   0  0  1  0  0  0  0  0  0  0  0  0
   28.2720   40.1727   18.0947 O   0  0  0  0  0  0  0  0  0  0  0  0
   28.3948   41.6611   19.9590 C   0  0  1  0  0  0  0  0  0  0  0  0
   27.7073   42.7043   20.5967 O   0  0  0  0  0  0  0  0  0  0  0  0
   28.6191   40.5378   20.9573 C   0  0  1  0  0  0  0  0  0  0  0  0
   29.3933   41.0369   22.0144 O   0  0  0  0  0  0  0  0  0  0  0  0
   27.2970   40.0253   21.5039 C   0  0  0  0  0  0  0  0  0  0  0  0
   27.2272   37.3742   20.5623 N   0  0  0  0  0  0  0  0  0  0  0  0
   27.1248   36.0935   20.0641 C   0  0  0  0  0  0  0  0  0  0  0  0
   26.9374   35.9125   18.8645 O   0  0  0  0  0  0  0  0  0  0  0  0
   27.2289   35.0080   20.9036 N   0  0  0  0  0  0  0  0  0  0  0  0
   27.4491   35.1929   22.2546 C   0  0  0  0  0  0  0  0  0  0  0  0
   27.5529   36.4815   22.7665 C   0  0  1  0  0  0  0  0  0  0  0  0
   27.5604   34.2169   22.9993 O   0  0  0  0  0  0  0  0  0  0  0  0
   27.8758   37.9552   24.6222 C   0  0  2  0  0  0  0  0  0  0  0  0
   27.7711   36.6737   24.1160 N   0  0  0  0  0  0  0  0  0  0  0  0
   28.0961   38.1481   25.9864 C   0  0  0  0  0  0  0  0  0  0  0  0
   28.1979   39.4329   26.5067 C   0  0  1  0  0  0  0  0  0  0  0  0
   28.4307   39.6013   27.9748 C   0  0  0  0  0  0  0  0  0  0  0  0
   28.0834   40.5412   25.6539 C   0  0  1  0  0  0  0  0  0  0  0  0
   28.1966   41.9475   26.1753 C   0  0  0  0  0  0  0  0  0  0  0  0
   27.8619   40.3456   24.2933 C   0  0  0  0  0  0  0  0  0  0  0  0
   27.7553   39.0556   23.7702 C   0  0  1  0  0  0  0  0  0  0  0  0
   27.4367   37.5757   21.9116 C   0  0  1  0  0  0  0  0  0  0  0  0
   27.5324   38.8588   22.4156 N   0  0  0  0  0  0  0  0  0  0  0  0
  1  2  1  1  0  0  0
  1  3  1  0  0  0  0
  1  4  2  0  0  0  0
  1  6  1  0  0  0  0
  5  6  1  0  0  0  0
  7  5  1  6  0  0  0
  7  8  1  0  0  0  0
  7  9  1  0  0  0  0
  9 10  1  1  0  0  0
  9 11  1  0  0  0  0
 11 12  1  1  0  0  0
 11 13  1  0  0  0  0
 13 31  1  0  0  0  0
 14 15  1  0  0  0  0
 15 16  2  0  0  0  0
 15 17  1  0  0  0  0
 17 18  1  0  0  0  0
 18 20  2  0  0  0  0
 19 18  1  6  0  0  0
 19 22  1  0  0  0  0
 19 30  1  0  0  0  0
 21 23  1  1  0  0  0
 21 29  1  0  0  0  0
 21 22  1  0  0  0  0
 23 24  1  0  0  0  0
 24 25  1  6  0  0  0
 24 26  1  0  0  0  0
 26 27  1  6  0  0  0
 26 28  1  0  0  0  0
 29 28  1  6  0  0  0
 29 31  1  0  0  0  0
 30 14  1  6  0  0  0
 30 31  1  0  0  0  0
M  CHG  1   3  -1
M  END
>  <CHROM.1>
-170.29031494,-64.90082012,131.10166577,59.20830422,178.88495712,176.22947743
89.17247528,27.32240396,39.93976589,21.11411253,-2.62551977,1.34289739,-3.00016988

>  <Name>
ligand

>  <RI>
0

>  <Rbt.Current_Directory>
/home/itssahil/PROJECTS/Mol_Feturizer/New_Systems/rnas/3F2T

>  <Rbt.Executable>
rbdock ($Id: //depot/dev/client3/rdock/2013.1/src/exe/rbdock.cxx#4 $)

>  <Rbt.Library>
libRbt.so (2013.1, Build901 2013/11/27)

>  <Rbt.Parameter_File>
/export/apps/rDock/src/rDock_2013.1_src/data/scripts/dock_solv.prm

>  <Rbt.Receptor>
prm/blind_docking_100.prm

>  <SCORE>
-23.9754

>  <SCORE.INTER>
-24.9691

>  <SCORE.INTER.CONST>
1

>  <SCORE.INTER.POLAR>
0

>  <SCORE.INTER.ROT>
7

>  <SCORE.INTER.SOLV>
16.876

>  <SCORE.INTER.VDW>
-30.5381

>  <SCORE.INTER.norm>
-0.805456

>  <SCORE.INTRA>
0.983078

>  <SCORE.INTRA.DIHEDRAL>
2.10701

>  <SCORE.INTRA.DIHEDRAL.0>
4.64198

>  <SCORE.INTRA.POLAR>
0

>  <SCORE.INTRA.POLAR.0>
0

>  <SCORE.INTRA.REPUL>
0

>  <SCORE.INTRA.REPUL.0>
0

>  <SCORE.INTRA.SOLV>
-0.728187

>  <SCORE.INTRA.SOLV.lig_0>
-49.3611

>  <SCORE.INTRA.VDW>
0.293667

>  <SCORE.INTRA.VDW.0>
-1.91858

>  <SCORE.INTRA.norm>
0.0317122

>  <SCORE.RESTR>
0.0106642

>  <SCORE.RESTR.CAVITY>
0.0106642

>  <SCORE.RESTR.norm>
0.000344007

>  <SCORE.SYSTEM>
0

>  <SCORE.SYSTEM.CONST>
0

>  <SCORE.SYSTEM.DIHEDRAL>
0

>  <SCORE.SYSTEM.SOLV>
0

>  <SCORE.SYSTEM.norm>
0

>  <SCORE.heavy>
31

>  <SCORE.norm>
-0.7734

>  <RMSD>
3.036

$$$$
ligand
 OpenBabel11021811473D
libRbt.so/2013.1/901 2013/11/27
 31 33  0  0  0  0  0  0  0  0999 V2000
   26.3300   43.1764   16.9153 P   0  0  1  0  0  0  0  0  0  0  0  0
   26.4741   42.7335   15.4813 O   0  0  0  0  0  0  0  0  0  0  0  0
   25.5827   44.4832   16.9437 O   0  5  0  0  0  0  0  0  0  0  0  0
   25.5868   42.0812   17.6296 O   0  0  0  0  0  0  0  0  0  0  0  0
   28.7283   42.3871   17.6196 C   0  0  0  0  0  0  0  0  0  0  0  0
   27.7417   43.3974   17.6479 O   0  0  0  0  0  0  0  0  0  0  0  0
   28.3643   41.3012   18.6288 C   0  0  1  0  0  0  0  0  0  0  0  0
   29.1195   40.1348   18.3682 O   0  0  0  0  0  0  0  0  0  0  0  0
   28.6650   41.7803   20.0391 C   0  0  1  0  0  0  0  0  0  0  0  0
   27.6464   42.6591   20.4358 O   0  0  0  0  0  0  0  0  0  0  0  0
   28.7471   40.6394   21.0392 C   0  0  1  0  0  0  0  0  0  0  0  0
   29.3491   41.1230   22.2096 O   0  0  0  0  0  0  0  0  0  0  0  0
   27.3626   40.1082   21.3715 C   0  0  0  0  0  0  0  0  0  0  0  0
   27.2036   37.4782   20.3828 N   0  0  0  0  0  0  0  0  0  0  0  0
   27.0613   36.2122   19.8575 C   0  0  0  0  0  0  0  0  0  0  0  0
   26.9440   36.0580   18.6453 O   0  0  0  0  0  0  0  0  0  0  0  0
   27.0469   35.1116   20.6836 N   0  0  0  0  0  0  0  0  0  0  0  0
   27.1869   35.2659   22.0491 C   0  0  0  0  0  0  0  0  0  0  0  0
   27.3303   36.5394   22.5883 C   0  0  1  0  0  0  0  0  0  0  0  0
   27.1923   34.2754   22.7829 O   0  0  0  0  0  0  0  0  0  0  0  0
   27.6130   37.9675   24.4857 C   0  0  2  0  0  0  0  0  0  0  0  0
   27.4688   36.7010   23.9523 N   0  0  0  0  0  0  0  0  0  0  0  0
   27.7528   38.1294   25.8645 C   0  0  0  0  0  0  0  0  0  0  0  0
   27.8932   39.3993   26.4120 C   0  0  1  0  0  0  0  0  0  0  0  0
   28.0372   39.5347   27.8948 C   0  0  0  0  0  0  0  0  0  0  0  0
   27.8995   40.5233   25.5723 C   0  0  1  0  0  0  0  0  0  0  0  0
   28.0582   41.9138   26.1235 C   0  0  0  0  0  0  0  0  0  0  0  0
   27.7581   40.3587   24.1969 C   0  0  0  0  0  0  0  0  0  0  0  0
   27.6127   39.0841   23.6463 C   0  0  1  0  0  0  0  0  0  0  0  0
   27.3341   37.6496   21.7462 C   0  0  1  0  0  0  0  0  0  0  0  0
   27.4695   38.9182   22.2769 N   0  0  0  0  0  0  0  0  0  0  0  0
  1  2  1  6  0  0  0
  1  3  1  0  0  0  0
  1  4  2  0  0  0  0
  1  6  1  0  0  0  0
  5  6  1  0  0  0  0
  7  5  1  6  0  0  0
  7  8  1  0  0  0  0
  7  9  1  0  0  0  0
  9 10  1  1  0  0  0
  9 11  1  0  0  0  0
 11 12  1  1  0  0  0
 11 13  1  0  0  0  0
 13 31  1  0  0  0  0
 14 15  1  0  0  0  0
 15 16  2  0  0  0  0
 15 17  1  0  0  0  0
 17 18  1  0  0  0  0
 18 20  2  0  0  0  0
 19 18  1  6  0  0  0
 19 22  1  0  0  0  0
 19 30  1  0  0  0  0
 21 23  1  1  0  0  0
 21 29  1  0  0  0  0
 21 22  1  0  0  0  0
 23 24  1  0  0  0  0
 24 25  1  6  0  0  0
 24 26  1  0  0  0  0
 26 27  1  6  0  0  0
 26 28  1  0  0  0  0
 29 28  1  6  0  0  0
 29 31  1  0  0  0  0
 30 14  1  6  0  0  0
 30 31  1  0  0  0  0
M  CHG  1   3  -1
M  END
>  <CHROM.1>
-77.76018433,-51.55439301,164.33827972,77.44245389,165.29747133,175.71317003
83.22789135,27.50516800,39.82807553,21.06889925,-2.12848017,1.41935645,2.73086867

>  <Name>
ligand

>  <RI>
0

>  <Rbt.Current_Directory>
/home/itssahil/PROJECTS/Mol_Feturizer/New_Systems/rnas/3F2T

>  <Rbt.Executable>
rbdock ($Id: //depot/dev/client3/rdock/2013.1/src/exe/rbdock.cxx#4 $)

>  <Rbt.Library>
libRbt.so (2013.1, Build901 2013/11/27)

>  <Rbt.Parameter_File>
/export/apps/rDock/src/rDock_2013.1_src/data/scripts/dock_solv.prm

>  <Rbt.Receptor>
prm/pocket_docking_8.prm

>  <SCORE>
-23.7442

>  <SCORE.INTER>
-25.5987

>  <SCORE.INTER.CONST>
1

>  <SCORE.INTER.POLAR>
0

>  <SCORE.INTER.ROT>
7

>  <SCORE.INTER.SOLV>
14.4584

>  <SCORE.INTER.VDW>
-30.152

>  <SCORE.INTER.norm>
-0.825766

>  <SCORE.INTRA>
1.84573

>  <SCORE.INTRA.DIHEDRAL>
0.942095

>  <SCORE.INTRA.DIHEDRAL.0>
4.64198

>  <SCORE.INTRA.POLAR>
0

>  <SCORE.INTRA.POLAR.0>
0

>  <SCORE.INTRA.REPUL>
0

>  <SCORE.INTRA.REPUL.0>
0

>  <SCORE.INTRA.SOLV>
2.07873

>  <SCORE.INTRA.SOLV.lig_0>
-49.3611

>  <SCORE.INTRA.VDW>
0.335314

>  <SCORE.INTRA.VDW.0>
-1.91858

>  <SCORE.INTRA.norm>
0.0595395

>  <SCORE.RESTR>
0.00879537

>  <SCORE.RESTR.CAVITY>
0.00879537

>  <SCORE.RESTR.norm>
0.000283722

>  <SCORE.SYSTEM>
0

>  <SCORE.SYSTEM.CONST>
0

>  <SCORE.SYSTEM.DIHEDRAL>
0

>  <SCORE.SYSTEM.SOLV>
0

>  <SCORE.SYSTEM.norm>
0

>  <SCORE.heavy>
31

>  <SCORE.norm>
-0.765943

>  <RMSD>
3.046

$$$$
ligand
 OpenBabel11021811473D
libRbt.so/2013.1/901 2013/11/27
 31 33  0  0  0  0  0  0  0  0999 V2000
   26.0184   43.5231   16.3854 P   0  0  1  0  0  0  0  0  0  0  0  0
   24.6274   43.3368   15.8343 O   0  0  0  0  0  0  0  0  0  0  0  0
   26.9228   42.4871   15.7725 O   0  5  0  0  0  0  0  0  0  0  0  0
   26.4363   44.9236   16.0302 O   0  0  0  0  0  0  0  0  0  0  0  0
   25.3714   42.3261   18.6257 C   0  0  0  0  0  0  0  0  0  0  0  0
   26.0876   43.3588   17.9812 O   0  0  0  0  0  0  0  0  0  0  0  0
   25.6530   42.3796   20.1251 C   0  0  1  0  0  0  0  0  0  0  0  0
   24.6469   41.6749   20.8251 O   0  0  0  0  0  0  0  0  0  0  0  0
   27.0007   41.7446   20.4238 C   0  0  1  0  0  0  0  0  0  0  0  0
   27.4066   42.1468   21.7047 O   0  0  0  0  0  0  0  0  0  0  0  0
   26.9553   40.2266   20.3765 C   0  0  1  0  0  0  0  0  0  0  0  0
   26.7662   39.8335   19.0440 O   0  0  0  0  0  0  0  0  0  0  0  0
   28.2524   39.6284   20.8954 C   0  0  0  0  0  0  0  0  0  0  0  0
   27.3288   36.9869   20.5969 N   0  0  0  0  0  0  0  0  0  0  0  0
   26.8224   35.7207   20.3991 C   0  0  0  0  0  0  0  0  0  0  0  0
   26.6875   35.2823   19.2604 O   0  0  0  0  0  0  0  0  0  0  0  0
   26.4617   34.9380   21.4721 N   0  0  0  0  0  0  0  0  0  0  0  0
   26.6153   35.4118   22.7604 C   0  0  0  0  0  0  0  0  0  0  0  0
   27.1247   36.6885   22.9698 C   0  0  1  0  0  0  0  0  0  0  0  0
   26.3084   34.6997   23.7187 O   0  0  0  0  0  0  0  0  0  0  0  0
   27.7873   38.4374   24.4603 C   0  0  2  0  0  0  0  0  0  0  0  0
   27.2791   37.1690   24.2547 N   0  0  0  0  0  0  0  0  0  0  0  0
   27.9428   38.9219   25.7596 C   0  0  0  0  0  0  0  0  0  0  0  0
   28.4481   40.1982   25.9775 C   0  0  1  0  0  0  0  0  0  0  0  0
   28.5975   40.6856   27.3839 C   0  0  0  0  0  0  0  0  0  0  0  0
   28.8083   41.0011   24.8846 C   0  0  1  0  0  0  0  0  0  0  0  0
   29.3673   42.3841   25.0774 C   0  0  0  0  0  0  0  0  0  0  0  0
   28.6505   40.5154   23.5893 C   0  0  0  0  0  0  0  0  0  0  0  0
   28.1391   39.2352   23.3690 C   0  0  1  0  0  0  0  0  0  0  0  0
   27.4785   37.4785   21.8779 C   0  0  1  0  0  0  0  0  0  0  0  0
   27.9790   38.7506   22.0796 N   0  0  0  0  0  0  0  0  0  0  0  0
  1  2  1  6  0  0  0
  1  3  1  0  0  0  0
  1  4  2  0  0  0  0
  1  6  1  0  0  0  0
  5  6  1  0  0  0  0
  7  5  1  6  0  0  0
  7  8  1  0  0  0  0
  7  9  1  0  0  0  0
  9 10  1  1  0  0  0
  9 11  1  0  0  0  0
 11 12  1  6  0  0  0
 11 13  1  0  0  0  0
 13 31  1  0  0  0  0
 14 15  1  0  0  0  0
 15 16  2  0  0  0  0
 15 17  1  0  0  0  0
 17 18  1  0  0  0  0
 18 20  2  0  0  0  0
 19 18  1  1  0  0  0
 19 22  1  0  0  0  0
 19 30  1  0  0  0  0
 21 23  1  6  0  0  0
 21 29  1  0  0  0  0
 21 22  1  0  0  0  0
 23 24  1  0  0  0  0
 24 25  1  1  0  0  0
 24 26  1  0  0  0  0
 26 27  1  1  0  0  0
 26 28  1  0  0  0  0
 29 28  1  1  0  0  0
 29 31  1  0  0  0  0
 30 14  1  1  0  0  0
 30 31  1  0  0  0  0
M  CHG  1   3  -1
M  END
>  <CHROM.1>
178.22632699,42.09111768,160.94271609,162.94604547,69.28482361,120.33129927
-97.33362786,27.00141784,39.99129457,21.05764553,2.22923402,-1.26123016,-0.27150646

>  <Name>
ligand

>  <RI>
0

>  <Rbt.Current_Directory>
/home/itssahil/PROJECTS/Mol_Feturizer/New_Systems/rnas/3F2T

>  <Rbt.Executable>
rbdock ($Id: //depot/dev/client3/rdock/2013.1/src/exe/rbdock.cxx#4 $)

>  <Rbt.Library>
libRbt.so (2013.1, Build901 2013/11/27)

>  <Rbt.Parameter_File>
/export/apps/rDock/src/rDock_2013.1_src/data/scripts/dock_solv.prm

>  <Rbt.Receptor>
prm/pocket_docking_5.prm

>  <SCORE>
-23.2246

>  <SCORE.INTER>
-25.5851

>  <SCORE.INTER.CONST>
1

>  <SCORE.INTER.POLAR>
0

>  <SCORE.INTER.ROT>
7

>  <SCORE.INTER.SOLV>
19.2301

>  <SCORE.INTER.VDW>
-31.7334

>  <SCORE.INTER.norm>
-0.825326

>  <SCORE.INTRA>
2.36045

>  <SCORE.INTRA.DIHEDRAL>
4.79097

>  <SCORE.INTRA.DIHEDRAL.0>
4.64198

>  <SCORE.INTRA.POLAR>
0

>  <SCORE.INTRA.POLAR.0>
0

>  <SCORE.INTRA.REPUL>
0

>  <SCORE.INTRA.REPUL.0>
0

>  <SCORE.INTRA.SOLV>
-0.256216

>  <SCORE.INTRA.SOLV.lig_0>
-49.3611

>  <SCORE.INTRA.VDW>
0.0930704

>  <SCORE.INTRA.VDW.0>
-1.91858

>  <SCORE.INTRA.norm>
0.0761435

>  <SCORE.RESTR>
0

>  <SCORE.RESTR.CAVITY>
0

>  <SCORE.RESTR.norm>
0

>  <SCORE.SYSTEM>
0

>  <SCORE.SYSTEM.CONST>
0

>  <SCORE.SYSTEM.DIHEDRAL>
0

>  <SCORE.SYSTEM.SOLV>
0

>  <SCORE.SYSTEM.norm>
0

>  <SCORE.heavy>
31

>  <SCORE.norm>
-0.749182

>  <RMSD>
3.074

$$$$
ligand
 OpenBabel11021811473D
libRbt.so/2013.1/901 2013/11/27
 31 33  0  0  0  0  0  0  0  0999 V2000
   24.8371   43.2848   17.9902 P   0  0  1  0  0  0  0  0  0  0  0  0
   24.6810   42.7155   19.3776 O   0  0  0  0  0  0  0  0  0  0  0  0
   24.2951   42.2912   16.9973 O   0  5  0  0  0  0  0  0  0  0  0  0
   24.0748   44.5812   17.9706 O   0  0  0  0  0  0  0  0  0  0  0  0
   27.3934   42.7059   18.0119 C   0  0  0  0  0  0  0  0  0  0  0  0
   26.3665   43.5859   17.6047 O   0  0  0  0  0  0  0  0  0  0  0  0
   27.1694   41.3401   17.3680 C   0  0  1  0  0  0  0  0  0  0  0  0
   27.1309   41.4761   15.9613 O   0  0  0  0  0  0  0  0  0  0  0  0
   28.3000   40.3969   17.7431 C   0  0  1  0  0  0  0  0  0  0  0  0
   29.5014   40.9252   17.2483 O   0  0  0  0  0  0  0  0  0  0  0  0
   28.4285   40.2062   19.2451 C   0  0  1  0  0  0  0  0  0  0  0  0
   27.2833   39.5396   19.7034 O   0  0  0  0  0  0  0  0  0  0  0  0
   29.6579   39.3796   19.5840 C   0  0  0  0  0  0  0  0  0  0  0  0
   30.3231   37.8059   17.3477 N   0  0  0  0  0  0  0  0  0  0  0  0
   30.6180   37.0923   16.2064 C   0  0  0  0  0  0  0  0  0  0  0  0
   31.2297   37.6272   15.2864 O   0  0  0  0  0  0  0  0  0  0  0  0
   30.2290   35.7777   16.0856 N   0  0  0  0  0  0  0  0  0  0  0  0
   29.5480   35.1572   17.1147 C   0  0  0  0  0  0  0  0  0  0  0  0
   29.2454   35.8695   18.2699 C   0  0  1  0  0  0  0  0  0  0  0  0
   29.2184   33.9741   17.0092 O   0  0  0  0  0  0  0  0  0  0  0  0
   28.2654   35.9656   20.4493 C   0  0  2  0  0  0  0  0  0  0  0  0
   28.5634   35.2561   19.3015 N   0  0  0  0  0  0  0  0  0  0  0  0
   27.5759   35.3444   21.4912 C   0  0  0  0  0  0  0  0  0  0  0  0
   27.2666   36.0503   22.6479 C   0  0  1  0  0  0  0  0  0  0  0  0
   26.5232   35.3527   23.7428 C   0  0  0  0  0  0  0  0  0  0  0  0
   27.6546   37.3931   22.7696 C   0  0  1  0  0  0  0  0  0  0  0  0
   27.3475   38.1896   24.0080 C   0  0  0  0  0  0  0  0  0  0  0  0
   28.3411   38.0107   21.7274 C   0  0  0  0  0  0  0  0  0  0  0  0
   28.6486   37.3040   20.5635 C   0  0  1  0  0  0  0  0  0  0  0  0
   29.6341   37.2030   18.3807 C   0  0  1  0  0  0  0  0  0  0  0  0
   29.3303   37.9179   19.5235 N   0  0  0  0  0  0  0  0  0  0  0  0
  1  2  1  1  0  0  0
  1  3  1  0  0  0  0
  1  4  2  0  0  0  0
  1  6  1  0  0  0  0
  5  6  1  0  0  0  0
  7  5  1  1  0  0  0
  7  8  1  0  0  0  0
  7  9  1  0  0  0  0
  9 10  1  1  0  0  0
  9 11  1  0  0  0  0
 11 12  1  6  0  0  0
 11 13  1  0  0  0  0
 13 31  1  0  0  0  0
 14 15  1  0  0  0  0
 15 16  2  0  0  0  0
 15 17  1  0  0  0  0
 17 18  1  0  0  0  0
 18 20  2  0  0  0  0
 19 18  1  1  0  0  0
 19 22  1  0  0  0  0
 19 30  1  0  0  0  0
 21 23  1  6  0  0  0
 21 29  1  0  0  0  0
 21 22  1  0  0  0  0
 23 24  1  0  0  0  0
 24 25  1  1  0  0  0
 24 26  1  0  0  0  0
 26 27  1  1  0  0  0
 26 28  1  0  0  0  0
 29 28  1  1  0  0  0
 29 31  1  0  0  0  0
 30 14  1  1  0  0  0
 30 31  1  0  0  0  0
M  CHG  1   3  -1
M  END
>  <CHROM.1>
62.73860812,38.29519049,57.48918348,-61.73014277,66.27592108,-86.13347121
-78.23271981,27.83016634,39.03071467,18.81468619,2.33293570,0.91200922,-0.87965372

>  <Name>
ligand

>  <RI>
0

>  <Rbt.Current_Directory>
/home/itssahil/PROJECTS/Mol_Feturizer/New_Systems/rnas/3F2T

>  <Rbt.Executable>
rbdock ($Id: //depot/dev/client3/rdock/2013.1/src/exe/rbdock.cxx#4 $)

>  <Rbt.Library>
libRbt.so (2013.1, Build901 2013/11/27)

>  <Rbt.Parameter_File>
/export/apps/rDock/src/rDock_2013.1_src/data/scripts/dock_solv.prm

>  <Rbt.Receptor>
prm/blind_docking_80.prm

>  <SCORE>
-18.2185

>  <SCORE.INTER>
-19.3718

>  <SCORE.INTER.CONST>
1

>  <SCORE.INTER.POLAR>
0

>  <SCORE.INTER.ROT>
7

>  <SCORE.INTER.SOLV>
18.7943

>  <SCORE.INTER.VDW>
-27.446

>  <SCORE.INTER.norm>
-0.624898

>  <SCORE.INTRA>
1.15332

>  <SCORE.INTRA.DIHEDRAL>
-0.501581

>  <SCORE.INTRA.DIHEDRAL.0>
4.64198

>  <SCORE.INTRA.POLAR>
0

>  <SCORE.INTRA.POLAR.0>
0

>  <SCORE.INTRA.REPUL>
0

>  <SCORE.INTRA.REPUL.0>
0

>  <SCORE.INTRA.SOLV>
1.80873

>  <SCORE.INTRA.SOLV.lig_0>
-49.3611

>  <SCORE.INTRA.VDW>
0.499742

>  <SCORE.INTRA.VDW.0>
-1.91858

>  <SCORE.INTRA.norm>
0.0372037

>  <SCORE.RESTR>
0

>  <SCORE.RESTR.CAVITY>
0

>  <SCORE.RESTR.norm>
0

>  <SCORE.SYSTEM>
0

>  <SCORE.SYSTEM.CONST>
0

>  <SCORE.SYSTEM.DIHEDRAL>
0

>  <SCORE.SYSTEM.SOLV>
0

>  <SCORE.SYSTEM.norm>
0

>  <SCORE.heavy>
31

>  <SCORE.norm>
-0.587694

>  <RMSD>
3.116

$$$$
ligand
 OpenBabel11021811473D
libRbt.so/2013.1/901 2013/11/27
 31 33  0  0  0  0  0  0  0  0999 V2000
   27.7707   42.3926   16.7949 P   0  0  1  0  0  0  0  0  0  0  0  0
   26.9688   42.6953   15.5545 O   0  0  0  0  0  0  0  0  0  0  0  0
   29.2079   42.1791   16.3999 O   0  5  0  0  0  0  0  0  0  0  0  0
   27.6029   43.5725   17.7124 O   0  0  0  0  0  0  0  0  0  0  0  0
   27.1900   39.8381   16.8823 C   0  0  0  0  0  0  0  0  0  0  0  0
   27.2669   41.0744   17.5609 O   0  0  0  0  0  0  0  0  0  0  0  0
   26.6487   38.7751   17.8348 C   0  0  1  0  0  0  0  0  0  0  0  0
   26.2240   37.6457   17.0980 O   0  0  0  0  0  0  0  0  0  0  0  0
   27.7336   38.3501   18.8101 C   0  0  1  0  0  0  0  0  0  0  0  0
   28.7699   37.7442   18.0847 O   0  0  0  0  0  0  0  0  0  0  0  0
   28.3025   39.5185   19.5974 C   0  0  1  0  0  0  0  0  0  0  0  0
   27.2513   40.1348   20.2912 O   0  0  0  0  0  0  0  0  0  0  0  0
   29.3487   39.0444   20.5925 C   0  0  0  0  0  0  0  0  0  0  0  0
   28.2116   36.4854   20.8731 N   0  0  0  0  0  0  0  0  0  0  0  0
   27.6188   35.2433   20.9404 C   0  0  0  0  0  0  0  0  0  0  0  0
   27.7137   34.4636   19.9970 O   0  0  0  0  0  0  0  0  0  0  0  0
   26.9146   34.8662   22.0610 N   0  0  0  0  0  0  0  0  0  0  0  0
   26.8054   35.7273   23.1355 C   0  0  0  0  0  0  0  0  0  0  0  0
   27.3996   36.9830   23.0764 C   0  0  1  0  0  0  0  0  0  0  0  0
   26.1894   35.3775   24.1444 O   0  0  0  0  0  0  0  0  0  0  0  0
   27.8858   39.0960   24.0855 C   0  0  2  0  0  0  0  0  0  0  0  0
   27.2928   37.8493   24.1459 N   0  0  0  0  0  0  0  0  0  0  0  0
   27.7770   39.9707   25.1671 C   0  0  0  0  0  0  0  0  0  0  0  0
   28.3653   41.2289   25.1148 C   0  0  1  0  0  0  0  0  0  0  0  0
   28.2249   42.1414   26.2919 C   0  0  0  0  0  0  0  0  0  0  0  0
   29.0764   41.6187   23.9698 C   0  0  1  0  0  0  0  0  0  0  0  0
   29.7353   42.9675   23.8766 C   0  0  0  0  0  0  0  0  0  0  0  0
   29.1817   40.7442   22.8914 C   0  0  0  0  0  0  0  0  0  0  0  0
   28.5878   39.4818   22.9411 C   0  0  1  0  0  0  0  0  0  0  0  0
   28.1027   37.3612   21.9344 C   0  0  1  0  0  0  0  0  0  0  0  0
   28.6897   38.6103   21.8672 N   0  0  0  0  0  0  0  0  0  0  0  0
  1  2  1  6  0  0  0
  1  3  1  0  0  0  0
  1  4  2  0  0  0  0
  1  6  1  0  0  0  0
  5  6  1  0  0  0  0
  7  5  1  6  0  0  0
  7  8  1  0  0  0  0
  7  9  1  0  0  0  0
  9 10  1  6  0  0  0
  9 11  1  0  0  0  0
 11 12  1  1  0  0  0
 11 13  1  0  0  0  0
 13 31  1  0  0  0  0
 14 15  1  0  0  0  0
 15 16  2  0  0  0  0
 15 17  1  0  0  0  0
 17 18  1  0  0  0  0
 18 20  2  0  0  0  0
 19 18  1  1  0  0  0
 19 22  1  0  0  0  0
 19 30  1  0  0  0  0
 21 23  1  6  0  0  0
 21 29  1  0  0  0  0
 21 22  1  0  0  0  0
 23 24  1  0  0  0  0
 24 25  1  1  0  0  0
 24 26  1  0  0  0  0
 26 27  1  1  0  0  0
 26 28  1  0  0  0  0
 29 28  1  1  0  0  0
 29 31  1  0  0  0  0
 30 14  1  1  0  0  0
 30 31  1  0  0  0  0
M  CHG  1   3  -1
M  END
>  <CHROM.1>
-178.49495188,55.79756112,164.11066122,-63.90402582,58.24095078,-85.44198562
-96.04835498,27.85065686,39.30477637,20.63244736,-1.61801056,1.37080796,2.09328361

>  <Name>
ligand

>  <RI>
0

>  <Rbt.Current_Directory>
/home/itssahil/PROJECTS/Mol_Feturizer/New_Systems/rnas/3F2T

>  <Rbt.Executable>
rbdock ($Id: //depot/dev/client3/rdock/2013.1/src/exe/rbdock.cxx#4 $)

>  <Rbt.Library>
libRbt.so (2013.1, Build901 2013/11/27)

>  <Rbt.Parameter_File>
/export/apps/rDock/src/rDock_2013.1_src/data/scripts/dock_solv.prm

>  <Rbt.Receptor>
prm/pocket_docking_8.prm

>  <SCORE>
-23.1219

>  <SCORE.INTER>
-23.1881

>  <SCORE.INTER.CONST>
1

>  <SCORE.INTER.POLAR>
0

>  <SCORE.INTER.ROT>
7

>  <SCORE.INTER.SOLV>
17.4212

>  <SCORE.INTER.VDW>
-29.5325

>  <SCORE.INTER.norm>
-0.748003

>  <SCORE.INTRA>
0.0662247

>  <SCORE.INTRA.DIHEDRAL>
-0.568858

>  <SCORE.INTRA.DIHEDRAL.0>
4.64198

>  <SCORE.INTRA.POLAR>
0

>  <SCORE.INTRA.POLAR.0>
0

>  <SCORE.INTRA.REPUL>
0

>  <SCORE.INTRA.REPUL.0>
0

>  <SCORE.INTRA.SOLV>
0.481169

>  <SCORE.INTRA.SOLV.lig_0>
-49.3611

>  <SCORE.INTRA.VDW>
0.110069

>  <SCORE.INTRA.VDW.0>
-1.91858

>  <SCORE.INTRA.norm>
0.00213628

>  <SCORE.RESTR>
0

>  <SCORE.RESTR.CAVITY>
0

>  <SCORE.RESTR.norm>
0

>  <SCORE.SYSTEM>
0

>  <SCORE.SYSTEM.CONST>
0

>  <SCORE.SYSTEM.DIHEDRAL>
0

>  <SCORE.SYSTEM.SOLV>
0

>  <SCORE.SYSTEM.norm>
0

>  <SCORE.heavy>
31

>  <SCORE.norm>
-0.745867

>  <RMSD>
3.116

$$$$
ligand
 OpenBabel11021811473D
libRbt.so/2013.1/901 2013/11/27
 31 33  0  0  0  0  0  0  0  0999 V2000
   25.6647   43.8218   16.3160 P   0  0  1  0  0  0  0  0  0  0  0  0
   24.5313   43.4741   15.3845 O   0  0  0  0  0  0  0  0  0  0  0  0
   26.8748   44.1746   15.4926 O   0  5  0  0  0  0  0  0  0  0  0  0
   25.1914   44.9772   17.1545 O   0  0  0  0  0  0  0  0  0  0  0  0
   27.1621   42.7394   18.1752 C   0  0  0  0  0  0  0  0  0  0  0  0
   26.0663   42.6126   17.2932 O   0  0  0  0  0  0  0  0  0  0  0  0
   27.2867   41.4660   19.0079 C   0  0  1  0  0  0  0  0  0  0  0  0
   27.5423   40.3642   18.1597 O   0  0  0  0  0  0  0  0  0  0  0  0
   28.4301   41.6030   19.9991 C   0  0  1  0  0  0  0  0  0  0  0  0
   28.1713   42.7064   20.8254 O   0  0  0  0  0  0  0  0  0  0  0  0
   28.6021   40.3682   20.8676 C   0  0  1  0  0  0  0  0  0  0  0  0
   29.6919   40.5810   21.7238 O   0  0  0  0  0  0  0  0  0  0  0  0
   27.3559   40.1111   21.6985 C   0  0  0  0  0  0  0  0  0  0  0  0
   27.1936   37.4825   20.7065 N   0  0  0  0  0  0  0  0  0  0  0  0
   27.0462   36.2157   20.1846 C   0  0  0  0  0  0  0  0  0  0  0  0
   26.8419   36.0643   18.9837 O   0  0  0  0  0  0  0  0  0  0  0  0
   27.1238   35.1111   21.0018 N   0  0  0  0  0  0  0  0  0  0  0  0
   27.3623   35.2625   22.3539 C   0  0  0  0  0  0  0  0  0  0  0  0
   27.5116   36.5368   22.8896 C   0  0  1  0  0  0  0  0  0  0  0  0
   27.4497   34.2690   23.0784 O   0  0  0  0  0  0  0  0  0  0  0  0
   27.8982   37.9629   24.7702 C   0  0  2  0  0  0  0  0  0  0  0  0
   27.7483   36.6955   24.2404 N   0  0  0  0  0  0  0  0  0  0  0  0
   28.1373   38.1218   26.1356 C   0  0  0  0  0  0  0  0  0  0  0  0
   28.2844   39.3924   26.6797 C   0  0  1  0  0  0  0  0  0  0  0  0
   28.5362   39.5245   28.1484 C   0  0  0  0  0  0  0  0  0  0  0  0
   28.1970   40.5203   25.8497 C   0  0  1  0  0  0  0  0  0  0  0  0
   28.3594   41.9118   26.3970 C   0  0  0  0  0  0  0  0  0  0  0  0
   27.9567   40.3585   24.4878 C   0  0  0  0  0  0  0  0  0  0  0  0
   27.8046   39.0831   23.9409 C   0  0  1  0  0  0  0  0  0  0  0  0
   27.4221   37.6508   22.0573 C   0  0  1  0  0  0  0  0  0  0  0  0
   27.5629   38.9200   22.5851 N   0  0  0  0  0  0  0  0  0  0  0  0
  1  2  1  6  0  0  0
  1  3  1  0  0  0  0
  1  4  2  0  0  0  0
  1  6  1  0  0  0  0
  5  6  1  0  0  0  0
  7  5  1  6  0  0  0
  7  8  1  0  0  0  0
  7  9  1  0  0  0  0
  9 10  1  1  0  0  0
  9 11  1  0  0  0  0
 11 12  1  1  0  0  0
 11 13  1  0  0  0  0
 13 31  1  0  0  0  0
 14 15  1  0  0  0  0
 15 16  2  0  0  0  0
 15 17  1  0  0  0  0
 17 18  1  0  0  0  0
 18 20  2  0  0  0  0
 19 18  1  6  0  0  0
 19 22  1  0  0  0  0
 19 30  1  0  0  0  0
 21 23  1  1  0  0  0
 21 29  1  0  0  0  0
 21 22  1  0  0  0  0
 23 24  1  0  0  0  0
 24 25  1  6  0  0  0
 24 26  1  0  0  0  0
 26 27  1  6  0  0  0
 26 28  1  0  0  0  0
 29 28  1  6  0  0  0
 29 31  1  0  0  0  0
 30 14  1  6  0  0  0
 30 31  1  0  0  0  0
M  CHG  1   3  -1
M  END
>  <CHROM.1>
178.27112725,176.16289943,62.13322950,59.06849499,178.79656623,-177.91780147
104.06710234,27.34969459,39.95576955,21.12173188,-2.46569909,1.32801096,3.06845557

>  <Name>
ligand

>  <RI>
0

>  <Rbt.Current_Directory>
/home/itssahil/PROJECTS/Mol_Feturizer/New_Systems/rnas/3F2T

>  <Rbt.Executable>
rbdock ($Id: //depot/dev/client3/rdock/2013.1/src/exe/rbdock.cxx#4 $)

>  <Rbt.Library>
libRbt.so (2013.1, Build901 2013/11/27)

>  <Rbt.Parameter_File>
/export/apps/rDock/src/rDock_2013.1_src/data/scripts/dock_solv.prm

>  <Rbt.Receptor>
prm/blind_docking_80.prm

>  <SCORE>
-27.0571

>  <SCORE.INTER>
-25.724

>  <SCORE.INTER.CONST>
1

>  <SCORE.INTER.POLAR>
0

>  <SCORE.INTER.ROT>
7

>  <SCORE.INTER.SOLV>
18.8499

>  <SCORE.INTER.VDW>
-31.6993

>  <SCORE.INTER.norm>
-0.829807

>  <SCORE.INTRA>
-1.33309

>  <SCORE.INTRA.DIHEDRAL>
-3.23712

>  <SCORE.INTRA.DIHEDRAL.0>
4.64198

>  <SCORE.INTRA.POLAR>
0

>  <SCORE.INTRA.POLAR.0>
0

>  <SCORE.INTRA.REPUL>
0

>  <SCORE.INTRA.REPUL.0>
0

>  <SCORE.INTRA.SOLV>
-0.252392

>  <SCORE.INTRA.SOLV.lig_0>
-49.3611

>  <SCORE.INTRA.VDW>
0.411665

>  <SCORE.INTRA.VDW.0>
-1.91858

>  <SCORE.INTRA.norm>
-0.0430029

>  <SCORE.RESTR>
0

>  <SCORE.RESTR.CAVITY>
0

>  <SCORE.RESTR.norm>
0

>  <SCORE.SYSTEM>
0

>  <SCORE.SYSTEM.CONST>
0

>  <SCORE.SYSTEM.DIHEDRAL>
0

>  <SCORE.SYSTEM.SOLV>
0

>  <SCORE.SYSTEM.norm>
0

>  <SCORE.heavy>
31

>  <SCORE.norm>
-0.87281

>  <RMSD>
3.142

$$$$
ligand
 OpenBabel11021811473D
libRbt.so/2013.1/901 2013/11/27
 31 33  0  0  0  0  0  0  0  0999 V2000
   28.4879   42.2686   16.7777 P   0  0  1  0  0  0  0  0  0  0  0  0
   28.7006   43.4072   17.7429 O   0  0  0  0  0  0  0  0  0  0  0  0
   27.7338   41.1729   17.4831 O   0  5  0  0  0  0  0  0  0  0  0  0
   27.7175   42.8307   15.6147 O   0  0  0  0  0  0  0  0  0  0  0  0
   29.8956   40.3393   15.6974 C   0  0  0  0  0  0  0  0  0  0  0  0
   29.8628   41.6481   16.2274 O   0  0  0  0  0  0  0  0  0  0  0  0
   29.6343   39.3367   16.8184 C   0  0  1  0  0  0  0  0  0  0  0  0
   29.3436   38.0682   16.2661 O   0  0  0  0  0  0  0  0  0  0  0  0
   30.8609   39.2198   17.7075 C   0  0  1  0  0  0  0  0  0  0  0  0
   31.4759   40.4781   17.7829 O   0  0  0  0  0  0  0  0  0  0  0  0
   30.5219   38.7534   19.1133 C   0  0  1  0  0  0  0  0  0  0  0  0
   31.5899   39.0888   19.9575 O   0  0  0  0  0  0  0  0  0  0  0  0
   29.2555   39.4253   19.6174 C   0  0  0  0  0  0  0  0  0  0  0  0
   28.6573   36.6804   19.7828 N   0  0  0  0  0  0  0  0  0  0  0  0
   28.3207   35.3442   19.7978 C   0  0  0  0  0  0  0  0  0  0  0  0
   28.4758   34.6587   18.7914 O   0  0  0  0  0  0  0  0  0  0  0  0
   27.8066   34.7670   20.9365 N   0  0  0  0  0  0  0  0  0  0  0  0
   27.6340   35.5213   22.0807 C   0  0  0  0  0  0  0  0  0  0  0  0
   27.9702   36.8704   22.0748 C   0  0  1  0  0  0  0  0  0  0  0  0
   27.1908   34.9951   23.1036 O   0  0  0  0  0  0  0  0  0  0  0  0
   28.1350   38.9708   23.2066 C   0  0  2  0  0  0  0  0  0  0  0  0
   27.7985   37.6306   23.2143 N   0  0  0  0  0  0  0  0  0  0  0  0
   27.9609   39.7380   24.3589 C   0  0  0  0  0  0  0  0  0  0  0  0
   28.2913   41.0881   24.3605 C   0  0  1  0  0  0  0  0  0  0  0  0
   28.0877   41.8801   25.6132 C   0  0  0  0  0  0  0  0  0  0  0  0
   28.8074   41.6805   23.1980 C   0  0  1  0  0  0  0  0  0  0  0  0
   29.1860   43.1357   23.1606 C   0  0  0  0  0  0  0  0  0  0  0  0
   28.9785   40.9127   22.0492 C   0  0  0  0  0  0  0  0  0  0  0  0
   28.6431   39.5576   22.0452 C   0  0  1  0  0  0  0  0  0  0  0  0
   28.4810   37.4499   20.9151 C   0  0  1  0  0  0  0  0  0  0  0  0
   28.8106   38.7917   20.9012 N   0  0  0  0  0  0  0  0  0  0  0  0
  1  2  1  1  0  0  0
  1  3  1  0  0  0  0
  1  4  2  0  0  0  0
  1  6  1  0  0  0  0
  5  6  1  0  0  0  0
  7  5  1  6  0  0  0
  7  8  1  0  0  0  0
  7  9  1  0  0  0  0
  9 10  1  1  0  0  0
  9 11  1  0  0  0  0
 11 12  1  1  0  0  0
 11 13  1  0  0  0  0
 13 31  1  0  0  0  0
 14 15  1  0  0  0  0
 15 16  2  0  0  0  0
 15 17  1  0  0  0  0
 17 18  1  0  0  0  0
 18 20  2  0  0  0  0
 19 18  1  1  0  0  0
 19 22  1  0  0  0  0
 19 30  1  0  0  0  0
 21 23  1  6  0  0  0
 21 29  1  0  0  0  0
 21 22  1  0  0  0  0
 23 24  1  0  0  0  0
 24 25  1  1  0  0  0
 24 26  1  0  0  0  0
 26 27  1  1  0  0  0
 26 28  1  0  0  0  0
 29 28  1  1  0  0  0
 29 31  1  0  0  0  0
 30 14  1  1  0  0  0
 30 31  1  0  0  0  0
M  CHG  1   3  -1
M  END
>  <CHROM.1>
-67.53467430,158.57848967,165.92293877,34.67794800,-160.89371277,170.63831114
123.25819868,28.85881546,39.38538294,19.92888461,0.16127606,1.40694367,0.37497692

>  <Name>
ligand

>  <RI>
0

>  <Rbt.Current_Directory>
/home/itssahil/PROJECTS/Mol_Feturizer/New_Systems/rnas/3F2T

>  <Rbt.Executable>
rbdock ($Id: //depot/dev/client3/rdock/2013.1/src/exe/rbdock.cxx#4 $)

>  <Rbt.Library>
libRbt.so (2013.1, Build901 2013/11/27)

>  <Rbt.Parameter_File>
/export/apps/rDock/src/rDock_2013.1_src/data/scripts/dock_solv.prm

>  <Rbt.Receptor>
prm/pocket_docking_6.prm

>  <SCORE>
-16.1912

>  <SCORE.INTER>
-22.372

>  <SCORE.INTER.CONST>
1

>  <SCORE.INTER.POLAR>
0

>  <SCORE.INTER.ROT>
7

>  <SCORE.INTER.SOLV>
17.9644

>  <SCORE.INTER.VDW>
-29.1695

>  <SCORE.INTER.norm>
-0.721678

>  <SCORE.INTRA>
6.1808

>  <SCORE.INTRA.DIHEDRAL>
1.83043

>  <SCORE.INTRA.DIHEDRAL.0>
4.64198

>  <SCORE.INTRA.POLAR>
0

>  <SCORE.INTRA.POLAR.0>
0

>  <SCORE.INTRA.REPUL>
0

>  <SCORE.INTRA.REPUL.0>
0

>  <SCORE.INTRA.SOLV>
4.14974

>  <SCORE.INTRA.SOLV.lig_0>
-49.3611

>  <SCORE.INTRA.VDW>
3.19072

>  <SCORE.INTRA.VDW.0>
-1.91858

>  <SCORE.INTRA.norm>
0.199381

>  <SCORE.RESTR>
0

>  <SCORE.RESTR.CAVITY>
0

>  <SCORE.RESTR.norm>
0

>  <SCORE.SYSTEM>
0

>  <SCORE.SYSTEM.CONST>
0

>  <SCORE.SYSTEM.DIHEDRAL>
0

>  <SCORE.SYSTEM.SOLV>
0

>  <SCORE.SYSTEM.norm>
0

>  <SCORE.heavy>
31

>  <SCORE.norm>
-0.522297

>  <RMSD>
3.149

$$$$
ligand
 OpenBabel11021811473D
libRbt.so/2013.1/901 2013/11/27
 31 33  0  0  0  0  0  0  0  0999 V2000
   24.8392   44.8931   15.9758 P   0  0  1  0  0  0  0  0  0  0  0  0
   23.4744   45.5107   15.8059 O   0  0  0  0  0  0  0  0  0  0  0  0
   25.1719   44.1095   14.7340 O   0  5  0  0  0  0  0  0  0  0  0  0
   25.7983   46.0287   16.2050 O   0  0  0  0  0  0  0  0  0  0  0  0
   26.1347   43.2380   17.5421 C   0  0  0  0  0  0  0  0  0  0  0  0
   24.9231   43.8931   17.2294 O   0  0  0  0  0  0  0  0  0  0  0  0
   25.9280   42.3609   18.7743 C   0  0  1  0  0  0  0  0  0  0  0  0
   24.9230   41.4012   18.5139 O   0  0  0  0  0  0  0  0  0  0  0  0
   27.2203   41.6419   19.1231 C   0  0  1  0  0  0  0  0  0  0  0  0
   28.1116   42.5737   19.6749 O   0  0  0  0  0  0  0  0  0  0  0  0
   27.0110   40.5129   20.1183 C   0  0  1  0  0  0  0  0  0  0  0  0
   26.3097   39.4835   19.4745 O   0  0  0  0  0  0  0  0  0  0  0  0
   28.3421   39.9756   20.6173 C   0  0  0  0  0  0  0  0  0  0  0  0
   27.4835   37.2957   20.5878 N   0  0  0  0  0  0  0  0  0  0  0  0
   27.0061   36.0047   20.5219 C   0  0  0  0  0  0  0  0  0  0  0  0
   26.8371   35.4654   19.4322 O   0  0  0  0  0  0  0  0  0  0  0  0
   26.7127   35.3098   21.6730 N   0  0  0  0  0  0  0  0  0  0  0  0
   26.9055   35.8978   22.9078 C   0  0  0  0  0  0  0  0  0  0  0  0
   27.3860   37.2003   22.9842 C   0  0  1  0  0  0  0  0  0  0  0  0
   26.6589   35.2645   23.9363 O   0  0  0  0  0  0  0  0  0  0  0  0
   28.0588   39.0887   24.2884 C   0  0  2  0  0  0  0  0  0  0  0  0
   27.5793   37.7948   24.2151 N   0  0  0  0  0  0  0  0  0  0  0  0
   28.2536   39.6884   25.5331 C   0  0  0  0  0  0  0  0  0  0  0  0
   28.7305   40.9912   25.6181 C   0  0  1  0  0  0  0  0  0  0  0  0
   28.9236   41.6029   26.9696 C   0  0  0  0  0  0  0  0  0  0  0  0
   29.0221   41.7045   24.4456 C   0  0  1  0  0  0  0  0  0  0  0  0
   29.5484   43.1127   24.4941 C   0  0  0  0  0  0  0  0  0  0  0  0
   28.8251   41.1039   23.2050 C   0  0  0  0  0  0  0  0  0  0  0  0
   28.3422   39.7969   23.1182 C   0  0  1  0  0  0  0  0  0  0  0  0
   27.6717   37.9008   21.8140 C   0  0  1  0  0  0  0  0  0  0  0  0
   28.1431   39.1978   21.8834 N   0  0  0  0  0  0  0  0  0  0  0  0
  1  2  1  6  0  0  0
  1  3  1  0  0  0  0
  1  4  2  0  0  0  0
  1  6  1  0  0  0  0
  5  6  1  0  0  0  0
  7  5  1  6  0  0  0
  7  8  1  0  0  0  0
  7  9  1  0  0  0  0
  9 10  1  1  0  0  0
  9 11  1  0  0  0  0
 11 12  1  6  0  0  0
 11 13  1  0  0  0  0
 13 31  1  0  0  0  0
 14 15  1  0  0  0  0
 15 16  2  0  0  0  0
 15 17  1  0  0  0  0
 17 18  1  0  0  0  0
 18 20  2  0  0  0  0
 19 18  1  1  0  0  0
 19 22  1  0  0  0  0
 19 30  1  0  0  0  0
 21 23  1  6  0  0  0
 21 29  1  0  0  0  0
 21 22  1  0  0  0  0
 23 24  1  0  0  0  0
 24 25  1  1  0  0  0
 24 26  1  0  0  0  0
 26 27  1  1  0  0  0
 26 28  1  0  0  0  0
 29 28  1  1  0  0  0
 29 31  1  0  0  0  0
 30 14  1  1  0  0  0
 30 31  1  0  0  0  0
M  CHG  1   3  -1
M  END
>  <CHROM.1>
179.77868115,-179.33402766,59.82115288,73.14185129,69.70165548,161.97751881
-96.39705537,26.93928630,40.60835472,20.63988756,-2.30315446,1.14766275,2.97588740

>  <Name>
ligand

>  <RI>
0

>  <Rbt.Current_Directory>
/home/itssahil/PROJECTS/Mol_Feturizer/New_Systems/rnas/3F2T

>  <Rbt.Executable>
rbdock ($Id: //depot/dev/client3/rdock/2013.1/src/exe/rbdock.cxx#4 $)

>  <Rbt.Library>
libRbt.so (2013.1, Build901 2013/11/27)

>  <Rbt.Parameter_File>
/export/apps/rDock/src/rDock_2013.1_src/data/scripts/dock_solv.prm

>  <Rbt.Receptor>
prm/pocket_docking_5.prm

>  <SCORE>
-24.8064

>  <SCORE.INTER>
-24.6737

>  <SCORE.INTER.CONST>
1

>  <SCORE.INTER.POLAR>
0

>  <SCORE.INTER.ROT>
7

>  <SCORE.INTER.SOLV>
20.8533

>  <SCORE.INTER.VDW>
-31.6669

>  <SCORE.INTER.norm>
-0.795926

>  <SCORE.INTRA>
-0.132721

>  <SCORE.INTRA.DIHEDRAL>
-1.52189

>  <SCORE.INTRA.DIHEDRAL.0>
4.64198

>  <SCORE.INTRA.POLAR>
0

>  <SCORE.INTRA.POLAR.0>
0

>  <SCORE.INTRA.REPUL>
0

>  <SCORE.INTRA.REPUL.0>
0

>  <SCORE.INTRA.SOLV>
0.0795897

>  <SCORE.INTRA.SOLV.lig_0>
-49.3611

>  <SCORE.INTRA.VDW>
0.588431

>  <SCORE.INTRA.VDW.0>
-1.91858

>  <SCORE.INTRA.norm>
-0.00428132

>  <SCORE.RESTR>
0

>  <SCORE.RESTR.CAVITY>
0

>  <SCORE.RESTR.norm>
0

>  <SCORE.SYSTEM>
0

>  <SCORE.SYSTEM.CONST>
0

>  <SCORE.SYSTEM.DIHEDRAL>
0

>  <SCORE.SYSTEM.SOLV>
0

>  <SCORE.SYSTEM.norm>
0

>  <SCORE.heavy>
31

>  <SCORE.norm>
-0.800207

>  <RMSD>
3.309

$$$$
ligand
 OpenBabel11021811473D
libRbt.so/2013.1/901 2013/11/27
 31 33  0  0  0  0  0  0  0  0999 V2000
   24.3163   42.2882   18.8180 P   0  0  1  0  0  0  0  0  0  0  0  0
   24.2011   42.4580   20.3117 O   0  0  0  0  0  0  0  0  0  0  0  0
   23.1250   41.5088   18.3280 O   0  5  0  0  0  0  0  0  0  0  0  0
   24.3698   43.6724   18.2321 O   0  0  0  0  0  0  0  0  0  0  0  0
   26.4434   40.8498   19.3445 C   0  0  0  0  0  0  0  0  0  0  0  0
   25.6416   41.4958   18.3777 O   0  0  0  0  0  0  0  0  0  0  0  0
   27.7119   40.3258   18.6763 C   0  0  1  0  0  0  0  0  0  0  0  0
   27.9141   40.9930   17.4464 O   0  0  0  0  0  0  0  0  0  0  0  0
   28.9121   40.5709   19.5753 C   0  0  1  0  0  0  0  0  0  0  0  0
   28.8326   41.8791   20.0749 O   0  0  0  0  0  0  0  0  0  0  0  0
   28.9753   39.6015   20.7436 C   0  0  1  0  0  0  0  0  0  0  0  0
   30.2598   39.6686   21.3018 O   0  0  0  0  0  0  0  0  0  0  0  0
   27.9492   39.9628   21.8047 C   0  0  0  0  0  0  0  0  0  0  0  0
   27.1874   37.3844   20.9731 N   0  0  0  0  0  0  0  0  0  0  0  0
   26.7561   36.1554   20.5234 C   0  0  0  0  0  0  0  0  0  0  0  0
   26.5926   35.9617   19.3223 O   0  0  0  0  0  0  0  0  0  0  0  0
   26.5026   35.1365   21.4131 N   0  0  0  0  0  0  0  0  0  0  0  0
   26.6899   35.3339   22.7673 C   0  0  0  0  0  0  0  0  0  0  0  0
   27.1242   36.5709   23.2305 C   0  0  1  0  0  0  0  0  0  0  0  0
   26.4795   34.4123   23.5585 O   0  0  0  0  0  0  0  0  0  0  0  0
   27.7451   38.0054   25.0406 C   0  0  2  0  0  0  0  0  0  0  0  0
   27.3117   36.7757   24.5828 N   0  0  0  0  0  0  0  0  0  0  0  0
   27.9341   38.2111   26.4076 C   0  0  0  0  0  0  0  0  0  0  0  0
   28.3648   39.4456   26.8792 C   0  0  1  0  0  0  0  0  0  0  0  0
   28.5531   39.6306   28.3517 C   0  0  0  0  0  0  0  0  0  0  0  0
   28.6155   40.4883   25.9745 C   0  0  1  0  0  0  0  0  0  0  0  0
   29.0913   41.8361   26.4428 C   0  0  0  0  0  0  0  0  0  0  0  0
   28.4244   40.2805   24.6111 C   0  0  0  0  0  0  0  0  0  0  0  0
   27.9878   39.0423   24.1366 C   0  0  1  0  0  0  0  0  0  0  0  0
   27.3694   37.6005   22.3242 C   0  0  1  0  0  0  0  0  0  0  0  0
   27.7946   38.8340   22.7792 N   0  0  0  0  0  0  0  0  0  0  0  0
  1  2  1  1  0  0  0
  1  3  1  0  0  0  0
  1  4  2  0  0  0  0
  1  6  1  0  0  0  0
  5  6  1  0  0  0  0
  7  5  1  1  0  0  0
  7  8  1  0  0  0  0
  7  9  1  0  0  0  0
  9 10  1  1  0  0  0
  9 11  1  0  0  0  0
 11 12  1  1  0  0  0
 11 13  1  0  0  0  0
 13 31  1  0  0  0  0
 14 15  1  0  0  0  0
 15 16  2  0  0  0  0
 15 17  1  0  0  0  0
 17 18  1  0  0  0  0
 18 20  2  0  0  0  0
 19 18  1  6  0  0  0
 19 22  1  0  0  0  0
 19 30  1  0  0  0  0
 21 23  1  1  0  0  0
 21 29  1  0  0  0  0
 21 22  1  0  0  0  0
 23 24  1  0  0  0  0
 24 25  1  6  0  0  0
 24 26  1  0  0  0  0
 26 27  1  6  0  0  0
 26 28  1  0  0  0  0
 29 28  1  6  0  0  0
 29 31  1  0  0  0  0
 30 14  1  6  0  0  0
 30 31  1  0  0  0  0
M  CHG  1   3  -1
M  END
>  <CHROM.1>
-173.29773395,10.31518953,18.82854060,-44.89628489,164.90660709,166.55030881
123.81934983,27.09610393,39.44400379,21.73962364,-2.65608704,1.20082293,3.12619062

>  <Name>
ligand

>  <RI>
0

>  <Rbt.Current_Directory>
/home/itssahil/PROJECTS/Mol_Feturizer/New_Systems/rnas/3F2T

>  <Rbt.Executable>
rbdock ($Id: //depot/dev/client3/rdock/2013.1/src/exe/rbdock.cxx#4 $)

>  <Rbt.Library>
libRbt.so (2013.1, Build901 2013/11/27)

>  <Rbt.Parameter_File>
/export/apps/rDock/src/rDock_2013.1_src/data/scripts/dock_solv.prm

>  <Rbt.Receptor>
prm/blind_docking_60.prm

>  <SCORE>
-18.3878

>  <SCORE.INTER>
-23.344

>  <SCORE.INTER.CONST>
1

>  <SCORE.INTER.POLAR>
0

>  <SCORE.INTER.ROT>
7

>  <SCORE.INTER.SOLV>
23.375

>  <SCORE.INTER.VDW>
-31.621

>  <SCORE.INTER.norm>
-0.753031

>  <SCORE.INTRA>
4.95611

>  <SCORE.INTRA.DIHEDRAL>
5.34401

>  <SCORE.INTRA.DIHEDRAL.0>
4.64198

>  <SCORE.INTRA.POLAR>
0

>  <SCORE.INTRA.POLAR.0>
0

>  <SCORE.INTRA.REPUL>
0

>  <SCORE.INTRA.REPUL.0>
0

>  <SCORE.INTRA.SOLV>
-0.963787

>  <SCORE.INTRA.SOLV.lig_0>
-49.3611

>  <SCORE.INTRA.VDW>
2.766

>  <SCORE.INTRA.VDW.0>
-1.91858

>  <SCORE.INTRA.norm>
0.159875

>  <SCORE.RESTR>
0

>  <SCORE.RESTR.CAVITY>
0

>  <SCORE.RESTR.norm>
0

>  <SCORE.SYSTEM>
0

>  <SCORE.SYSTEM.CONST>
0

>  <SCORE.SYSTEM.DIHEDRAL>
0

>  <SCORE.SYSTEM.SOLV>
0

>  <SCORE.SYSTEM.norm>
0

>  <SCORE.heavy>
31

>  <SCORE.norm>
-0.593156

>  <RMSD>
3.421

$$$$
ligand
 OpenBabel11021811473D
libRbt.so/2013.1/901 2013/11/27
 31 33  0  0  0  0  0  0  0  0999 V2000
   29.5856   36.7415   16.0464 P   0  0  1  0  0  0  0  0  0  0  0  0
   30.5066   36.6662   14.8551 O   0  0  0  0  0  0  0  0  0  0  0  0
   28.1947   36.3706   15.6049 O   0  5  0  0  0  0  0  0  0  0  0  0
   30.1306   35.7847   17.0708 O   0  0  0  0  0  0  0  0  0  0  0  0
   28.3709   38.6316   17.3965 C   0  0  0  0  0  0  0  0  0  0  0  0
   29.5234   38.2074   16.6989 O   0  0  0  0  0  0  0  0  0  0  0  0
   28.7043   39.8843   18.2026 C   0  0  1  0  0  0  0  0  0  0  0  0
   28.9269   40.9709   17.3259 O   0  0  0  0  0  0  0  0  0  0  0  0
   27.5518   40.2264   19.1318 C   0  0  1  0  0  0  0  0  0  0  0  0
   26.4287   40.5357   18.3506 O   0  0  0  0  0  0  0  0  0  0  0  0
   27.1985   39.0848   20.0702 C   0  0  1  0  0  0  0  0  0  0  0  0
   26.5318   38.0977   19.3305 O   0  0  0  0  0  0  0  0  0  0  0  0
   28.4496   38.4854   20.6907 C   0  0  0  0  0  0  0  0  0  0  0  0
   28.3120   35.7630   19.9911 N   0  0  0  0  0  0  0  0  0  0  0  0
   28.2023   34.4510   19.5845 C   0  0  0  0  0  0  0  0  0  0  0  0
   28.5007   34.1349   18.4365 O   0  0  0  0  0  0  0  0  0  0  0  0
   27.7562   33.4850   20.4574 N   0  0  0  0  0  0  0  0  0  0  0  0
   27.4248   33.8212   21.7555 C   0  0  0  0  0  0  0  0  0  0  0  0
   27.5316   35.1427   22.1746 C   0  0  1  0  0  0  0  0  0  0  0  0
   27.0437   32.9491   22.5389 O   0  0  0  0  0  0  0  0  0  0  0  0
   27.3090   36.7997   23.8847 C   0  0  2  0  0  0  0  0  0  0  0  0
   27.2003   35.4860   23.4700 N   0  0  0  0  0  0  0  0  0  0  0  0
   26.9737   37.1453   25.1942 C   0  0  0  0  0  0  0  0  0  0  0  0
   27.0745   38.4645   25.6202 C   0  0  1  0  0  0  0  0  0  0  0  0
   26.7029   38.7987   27.0302 C   0  0  0  0  0  0  0  0  0  0  0  0
   27.5208   39.4523   24.7293 C   0  0  1  0  0  0  0  0  0  0  0  0
   27.6527   40.8895   25.1529 C   0  0  0  0  0  0  0  0  0  0  0  0
   27.8531   39.1046   23.4226 C   0  0  0  0  0  0  0  0  0  0  0  0
   27.7483   37.7806   22.9924 C   0  0  1  0  0  0  0  0  0  0  0  0
   27.9748   36.1166   21.2820 C   0  0  1  0  0  0  0  0  0  0  0  0
   28.0766   37.4326   21.6908 N   0  0  0  0  0  0  0  0  0  0  0  0
  1  2  1  6  0  0  0
  1  3  1  0  0  0  0
  1  4  2  0  0  0  0
  1  6  1  0  0  0  0
  5  6  1  0  0  0  0
  7  5  1  6  0  0  0
  7  8  1  0  0  0  0
  7  9  1  0  0  0  0
  9 10  1  6  0  0  0
  9 11  1  0  0  0  0
 11 12  1  6  0  0  0
 11 13  1  0  0  0  0
 13 31  1  0  0  0  0
 14 15  1  0  0  0  0
 15 16  2  0  0  0  0
 15 17  1  0  0  0  0
 17 18  1  0  0  0  0
 18 20  2  0  0  0  0
 19 18  1  1  0  0  0
 19 22  1  0  0  0  0
 19 30  1  0  0  0  0
 21 23  1  6  0  0  0
 21 29  1  0  0  0  0
 21 22  1  0  0  0  0
 23 24  1  0  0  0  0
 24 25  1  1  0  0  0
 24 26  1  0  0  0  0
 26 27  1  1  0  0  0
 26 28  1  0  0  0  0
 29 28  1  1  0  0  0
 29 31  1  0  0  0  0
 30 14  1  1  0  0  0
 30 31  1  0  0  0  0
M  CHG  1   3  -1
M  END
>  <CHROM.1>
165.58871913,152.79420487,69.24297848,-63.60550022,-74.02827800,175.69888897
-83.89833784,28.06138056,37.30566348,20.29015124,-0.05807754,-1.33742256
3.01103388

>  <Name>
ligand

>  <RI>
0

>  <Rbt.Current_Directory>
/home/itssahil/PROJECTS/Mol_Feturizer/New_Systems/rnas/3F2T

>  <Rbt.Executable>
rbdock ($Id: //depot/dev/client3/rdock/2013.1/src/exe/rbdock.cxx#4 $)

>  <Rbt.Library>
libRbt.so (2013.1, Build901 2013/11/27)

>  <Rbt.Parameter_File>
/export/apps/rDock/src/rDock_2013.1_src/data/scripts/dock_solv.prm

>  <Rbt.Receptor>
prm/pocket_docking_4.prm

>  <SCORE>
-22.3124

>  <SCORE.INTER>
-25.0948

>  <SCORE.INTER.CONST>
1

>  <SCORE.INTER.POLAR>
0

>  <SCORE.INTER.ROT>
7

>  <SCORE.INTER.SOLV>
10.6301

>  <SCORE.INTER.VDW>
-28.5399

>  <SCORE.INTER.norm>
-0.809511

>  <SCORE.INTRA>
2.732

>  <SCORE.INTRA.DIHEDRAL>
-0.405986

>  <SCORE.INTRA.DIHEDRAL.0>
4.64198

>  <SCORE.INTRA.POLAR>
0

>  <SCORE.INTRA.POLAR.0>
0

>  <SCORE.INTRA.REPUL>
0

>  <SCORE.INTRA.REPUL.0>
0

>  <SCORE.INTRA.SOLV>
2.19498

>  <SCORE.INTRA.SOLV.lig_0>
-49.3611

>  <SCORE.INTRA.VDW>
1.83751

>  <SCORE.INTRA.VDW.0>
-1.91858

>  <SCORE.INTRA.norm>
0.0881292

>  <SCORE.RESTR>
0.0504029

>  <SCORE.RESTR.CAVITY>
0.0504029

>  <SCORE.RESTR.norm>
0.0016259

>  <SCORE.SYSTEM>
0

>  <SCORE.SYSTEM.CONST>
0

>  <SCORE.SYSTEM.DIHEDRAL>
0

>  <SCORE.SYSTEM.SOLV>
0

>  <SCORE.SYSTEM.norm>
0

>  <SCORE.heavy>
31

>  <SCORE.norm>
-0.719756

>  <RMSD>
3.438

$$$$
ligand
 OpenBabel11021811473D
libRbt.so/2013.1/901 2013/11/27
 31 33  0  0  0  0  0  0  0  0999 V2000
   24.7791   44.0501   17.0459 P   0  0  1  0  0  0  0  0  0  0  0  0
   24.3524   42.9840   16.0689 O   0  0  0  0  0  0  0  0  0  0  0  0
   26.0900   44.6298   16.5851 O   0  5  0  0  0  0  0  0  0  0  0  0
   23.6801   45.0766   17.0673 O   0  0  0  0  0  0  0  0  0  0  0  0
   25.8270   42.3820   18.7751 C   0  0  0  0  0  0  0  0  0  0  0  0
   24.9828   43.4889   18.5365 O   0  0  0  0  0  0  0  0  0  0  0  0
   26.0965   42.2694   20.2733 C   0  0  1  0  0  0  0  0  0  0  0  0
   24.9144   41.8784   20.9430 O   0  0  0  0  0  0  0  0  0  0  0  0
   27.1769   41.2324   20.5306 C   0  0  1  0  0  0  0  0  0  0  0  0
   28.2811   41.5312   19.7190 O   0  0  0  0  0  0  0  0  0  0  0  0
   27.6267   41.2043   21.9817 C   0  0  1  0  0  0  0  0  0  0  0  0
   26.5310   40.8351   22.7748 O   0  0  0  0  0  0  0  0  0  0  0  0
   28.7502   40.2008   22.1823 C   0  0  0  0  0  0  0  0  0  0  0  0
   27.6687   37.7952   21.2007 N   0  0  0  0  0  0  0  0  0  0  0  0
   27.0922   36.6606   20.6725 C   0  0  0  0  0  0  0  0  0  0  0  0
   27.0322   36.5095   19.4558 O   0  0  0  0  0  0  0  0  0  0  0  0
   26.5773   35.6894   21.5006 N   0  0  0  0  0  0  0  0  0  0  0  0
   26.6446   35.8386   22.8721 C   0  0  0  0  0  0  0  0  0  0  0  0
   27.2238   36.9805   23.4142 C   0  0  1  0  0  0  0  0  0  0  0  0
   26.1989   34.9571   23.6096 O   0  0  0  0  0  0  0  0  0  0  0  0
   27.8704   38.2718   25.3205 C   0  0  2  0  0  0  0  0  0  0  0  0
   27.2926   37.1369   24.7841 N   0  0  0  0  0  0  0  0  0  0  0  0
   27.9392   38.4287   26.7053 C   0  0  0  0  0  0  0  0  0  0  0  0
   28.5135   39.5687   27.2553 C   0  0  1  0  0  0  0  0  0  0  0  0
   28.5666   39.7043   28.7441 C   0  0  0  0  0  0  0  0  0  0  0  0
   29.0312   40.5640   26.4127 C   0  0  1  0  0  0  0  0  0  0  0  0
   29.6690   41.8082   26.9675 C   0  0  0  0  0  0  0  0  0  0  0  0
   28.9596   40.4053   25.0312 C   0  0  0  0  0  0  0  0  0  0  0  0
   28.3792   39.2627   24.4776 C   0  0  1  0  0  0  0  0  0  0  0  0
   27.7341   37.9638   22.5691 C   0  0  1  0  0  0  0  0  0  0  0  0
   28.3048   39.1038   23.1020 N   0  0  0  0  0  0  0  0  0  0  0  0
  1  2  1  6  0  0  0
  1  3  1  0  0  0  0
  1  4  2  0  0  0  0
  1  6  1  0  0  0  0
  5  6  1  0  0  0  0
  7  5  1  6  0  0  0
  7  8  1  0  0  0  0
  7  9  1  0  0  0  0
  9 10  1  6  0  0  0
  9 11  1  0  0  0  0
 11 12  1  1  0  0  0
 11 13  1  0  0  0  0
 13 31  1  0  0  0  0
 14 15  1  0  0  0  0
 15 16  2  0  0  0  0
 15 17  1  0  0  0  0
 17 18  1  0  0  0  0
 18 20  2  0  0  0  0
 19 18  1  1  0  0  0
 19 22  1  0  0  0  0
 19 30  1  0  0  0  0
 21 23  1  6  0  0  0
 21 29  1  0  0  0  0
 21 22  1  0  0  0  0
 23 24  1  0  0  0  0
 24 25  1  1  0  0  0
 24 26  1  0  0  0  0
 26 27  1  1  0  0  0
 26 28  1  0  0  0  0
 29 28  1  1  0  0  0
 29 31  1  0  0  0  0
 30 14  1  1  0  0  0
 30 31  1  0  0  0  0
M  CHG  1   3  -1
M  END
>  <CHROM.1>
166.78446412,53.39743412,69.30447635,51.66211300,62.77772450,-116.29169001
-84.29264102,26.92252107,40.22122453,21.77592617,-2.56845070,1.20347816,3.12878748

>  <Name>
ligand

>  <RI>
0

>  <Rbt.Current_Directory>
/home/itssahil/PROJECTS/Mol_Feturizer/New_Systems/rnas/3F2T

>  <Rbt.Executable>
rbdock ($Id: //depot/dev/client3/rdock/2013.1/src/exe/rbdock.cxx#4 $)

>  <Rbt.Library>
libRbt.so (2013.1, Build901 2013/11/27)

>  <Rbt.Parameter_File>
/export/apps/rDock/src/rDock_2013.1_src/data/scripts/dock_solv.prm

>  <Rbt.Receptor>
prm/pocket_docking_8.prm

>  <SCORE>
-23.033

>  <SCORE.INTER>
-24.9319

>  <SCORE.INTER.CONST>
1

>  <SCORE.INTER.POLAR>
0

>  <SCORE.INTER.ROT>
7

>  <SCORE.INTER.SOLV>
18.2898

>  <SCORE.INTER.VDW>
-30.9846

>  <SCORE.INTER.norm>
-0.804256

>  <SCORE.INTRA>
1.89896

>  <SCORE.INTRA.DIHEDRAL>
3.16129

>  <SCORE.INTRA.DIHEDRAL.0>
4.64198

>  <SCORE.INTRA.POLAR>
0

>  <SCORE.INTRA.POLAR.0>
0

>  <SCORE.INTRA.REPUL>
0

>  <SCORE.INTRA.REPUL.0>
0

>  <SCORE.INTRA.SOLV>
-0.480864

>  <SCORE.INTRA.SOLV.lig_0>
-49.3611

>  <SCORE.INTRA.VDW>
0.558749

>  <SCORE.INTRA.VDW.0>
-1.91858

>  <SCORE.INTRA.norm>
0.0612568

>  <SCORE.RESTR>
0

>  <SCORE.RESTR.CAVITY>
0

>  <SCORE.RESTR.norm>
0

>  <SCORE.SYSTEM>
0

>  <SCORE.SYSTEM.CONST>
0

>  <SCORE.SYSTEM.DIHEDRAL>
0

>  <SCORE.SYSTEM.SOLV>
0

>  <SCORE.SYSTEM.norm>
0

>  <SCORE.heavy>
31

>  <SCORE.norm>
-0.742999

>  <RMSD>
3.670

$$$$
ligand
 OpenBabel11021811473D
libRbt.so/2013.1/901 2013/11/27
 31 33  0  0  0  0  0  0  0  0999 V2000
   30.5587   38.6519   17.5352 P   0  0  1  0  0  0  0  0  0  0  0  0
   29.9083   37.9711   16.3576 O   0  0  0  0  0  0  0  0  0  0  0  0
   29.9916   38.0695   18.8026 O   0  5  0  0  0  0  0  0  0  0  0  0
   32.0372   38.4070   17.4093 O   0  0  0  0  0  0  0  0  0  0  0  0
   29.0518   40.7671   17.1802 C   0  0  0  0  0  0  0  0  0  0  0  0
   30.3041   40.2371   17.5618 O   0  0  0  0  0  0  0  0  0  0  0  0
   28.0667   40.6099   18.3357 C   0  0  1  0  0  0  0  0  0  0  0  0
   27.7421   39.2443   18.5040 O   0  0  0  0  0  0  0  0  0  0  0  0
   28.6854   41.1334   19.6210 C   0  0  1  0  0  0  0  0  0  0  0  0
   27.8981   42.1940   20.0927 O   0  0  0  0  0  0  0  0  0  0  0  0
   28.7756   40.0695   20.7021 C   0  0  1  0  0  0  0  0  0  0  0  0
   29.6126   40.5474   21.7205 O   0  0  0  0  0  0  0  0  0  0  0  0
   27.4039   39.7676   21.2823 C   0  0  0  0  0  0  0  0  0  0  0  0
   27.1969   37.1108   20.3777 N   0  0  0  0  0  0  0  0  0  0  0  0
   27.0317   35.8316   19.8927 C   0  0  0  0  0  0  0  0  0  0  0  0
   26.9137   35.6410   18.6858 O   0  0  0  0  0  0  0  0  0  0  0  0
   26.9948   34.7584   20.7535 N   0  0  0  0  0  0  0  0  0  0  0  0
   27.1351   34.9535   22.1137 C   0  0  0  0  0  0  0  0  0  0  0  0
   27.3015   36.2408   22.6124 C   0  0  1  0  0  0  0  0  0  0  0  0
   27.1202   33.9871   22.8788 O   0  0  0  0  0  0  0  0  0  0  0  0
   27.6077   37.7232   24.4639 C   0  0  2  0  0  0  0  0  0  0  0  0
   27.4405   36.4432   23.9709 N   0  0  0  0  0  0  0  0  0  0  0  0
   27.7479   37.9264   25.8372 C   0  0  0  0  0  0  0  0  0  0  0  0
   27.9114   39.2102   26.3442 C   0  0  1  0  0  0  0  0  0  0  0  0
   28.0550   39.3903   27.8223 C   0  0  0  0  0  0  0  0  0  0  0  0
   27.9405   40.3066   25.4691 C   0  0  1  0  0  0  0  0  0  0  0  0
   28.1246   41.7106   25.9760 C   0  0  0  0  0  0  0  0  0  0  0  0
   27.7987   40.1007   24.0993 C   0  0  0  0  0  0  0  0  0  0  0  0
   27.6302   38.8121   23.5893 C   0  0  1  0  0  0  0  0  0  0  0  0
   27.3281   37.3231   21.7353 C   0  0  1  0  0  0  0  0  0  0  0  0
   27.4865   38.6053   22.2256 N   0  0  0  0  0  0  0  0  0  0  0  0
  1  2  1  6  0  0  0
  1  3  1  0  0  0  0
  1  4  2  0  0  0  0
  1  6  1  0  0  0  0
  5  6  1  0  0  0  0
  7  5  1  6  0  0  0
  7  8  1  0  0  0  0
  7  9  1  0  0  0  0
  9 10  1  1  0  0  0
  9 11  1  0  0  0  0
 11 12  1  1  0  0  0
 11 13  1  0  0  0  0
 13 31  1  0  0  0  0
 14 15  1  0  0  0  0
 15 16  2  0  0  0  0
 15 17  1  0  0  0  0
 17 18  1  0  0  0  0
 18 20  2  0  0  0  0
 19 18  1  6  0  0  0
 19 22  1  0  0  0  0
 19 30  1  0  0  0  0
 21 23  1  1  0  0  0
 21 29  1  0  0  0  0
 21 22  1  0  0  0  0
 23 24  1  0  0  0  0
 24 25  1  6  0  0  0
 24 26  1  0  0  0  0
 26 27  1  6  0  0  0
 26 28  1  0  0  0  0
 29 28  1  6  0  0  0
 29 31  1  0  0  0  0
 30 14  1  6  0  0  0
 30 31  1  0  0  0  0
M  CHG  1   3  -1
M  END
>  <CHROM.1>
79.13257309,38.44714592,-70.12540539,118.89510892,167.05678442,173.22050495
95.46467144,28.36910186,38.53740748,21.11804978,-0.75221342,1.20806592,0.84428674

>  <Name>
ligand

>  <RI>
0

>  <Rbt.Current_Directory>
/home/itssahil/PROJECTS/Mol_Feturizer/New_Systems/rnas/3F2T

>  <Rbt.Executable>
rbdock ($Id: //depot/dev/client3/rdock/2013.1/src/exe/rbdock.cxx#4 $)

>  <Rbt.Library>
libRbt.so (2013.1, Build901 2013/11/27)

>  <Rbt.Parameter_File>
/export/apps/rDock/src/rDock_2013.1_src/data/scripts/dock_solv.prm

>  <Rbt.Receptor>
prm/pocket_docking_8.prm

>  <SCORE>
-17.025

>  <SCORE.INTER>
-22.9569

>  <SCORE.INTER.CONST>
1

>  <SCORE.INTER.POLAR>
0

>  <SCORE.INTER.ROT>
7

>  <SCORE.INTER.SOLV>
12.7521

>  <SCORE.INTER.VDW>
-27.8219

>  <SCORE.INTER.norm>
-0.740544

>  <SCORE.INTRA>
5.93186

>  <SCORE.INTRA.DIHEDRAL>
5.60193

>  <SCORE.INTRA.DIHEDRAL.0>
4.64198

>  <SCORE.INTRA.POLAR>
0

>  <SCORE.INTRA.POLAR.0>
0

>  <SCORE.INTRA.REPUL>
0

>  <SCORE.INTRA.REPUL.0>
0

>  <SCORE.INTRA.SOLV>
5.08833

>  <SCORE.INTRA.SOLV.lig_0>
-49.3611

>  <SCORE.INTRA.VDW>
0.58673

>  <SCORE.INTRA.VDW.0>
-1.91858

>  <SCORE.INTRA.norm>
0.19135

>  <SCORE.RESTR>
0

>  <SCORE.RESTR.CAVITY>
0

>  <SCORE.RESTR.norm>
0

>  <SCORE.SYSTEM>
0

>  <SCORE.SYSTEM.CONST>
0

>  <SCORE.SYSTEM.DIHEDRAL>
0

>  <SCORE.SYSTEM.SOLV>
0

>  <SCORE.SYSTEM.norm>
0

>  <SCORE.heavy>
31

>  <SCORE.norm>
-0.549194

>  <RMSD>
3.754

$$$$
ligand
 OpenBabel11021811473D
libRbt.so/2013.1/901 2013/11/27
 31 33  0  0  0  0  0  0  0  0999 V2000
   31.6807   36.5071   16.9537 P   0  0  1  0  0  0  0  0  0  0  0  0
   32.5053   35.4292   17.6105 O   0  0  0  0  0  0  0  0  0  0  0  0
   31.9740   37.8192   17.6316 O   0  5  0  0  0  0  0  0  0  0  0  0
   32.0693   36.5189   15.5009 O   0  0  0  0  0  0  0  0  0  0  0  0
   29.1808   37.1661   16.5210 C   0  0  0  0  0  0  0  0  0  0  0  0
   30.1010   36.2386   17.0576 O   0  0  0  0  0  0  0  0  0  0  0  0
   29.1567   38.4149   17.3986 C   0  0  1  0  0  0  0  0  0  0  0  0
   29.4605   39.5533   16.6173 O   0  0  0  0  0  0  0  0  0  0  0  0
   27.7788   38.5908   18.0143 C   0  0  1  0  0  0  0  0  0  0  0  0
   26.8352   38.6584   16.9788 O   0  0  0  0  0  0  0  0  0  0  0  0
   27.4049   37.4505   18.9464 C   0  0  1  0  0  0  0  0  0  0  0  0
   27.0551   36.3403   18.1647 O   0  0  0  0  0  0  0  0  0  0  0  0
   28.5718   37.0808   19.8469 C   0  0  0  0  0  0  0  0  0  0  0  0
   28.5088   34.3126   19.3439 N   0  0  0  0  0  0  0  0  0  0  0  0
   28.4405   32.9728   19.0291 C   0  0  0  0  0  0  0  0  0  0  0  0
   28.8309   32.5766   17.9348 O   0  0  0  0  0  0  0  0  0  0  0  0
   27.9336   32.0684   19.9341 N   0  0  0  0  0  0  0  0  0  0  0  0
   27.4984   32.4953   21.1736 C   0  0  0  0  0  0  0  0  0  0  0  0
   27.5627   33.8454   21.4999 C   0  0  1  0  0  0  0  0  0  0  0  0
   27.0627   31.6787   21.9877 O   0  0  0  0  0  0  0  0  0  0  0  0
   27.1943   35.6212   23.0588 C   0  0  2  0  0  0  0  0  0  0  0  0
   27.1277   34.2792   22.7361 N   0  0  0  0  0  0  0  0  0  0  0  0
   26.7543   36.0584   24.3086 C   0  0  0  0  0  0  0  0  0  0  0  0
   26.8120   37.4067   24.6414 C   0  0  1  0  0  0  0  0  0  0  0  0
   26.3279   37.8393   25.9892 C   0  0  0  0  0  0  0  0  0  0  0  0
   27.3204   38.3315   23.7169 C   0  0  1  0  0  0  0  0  0  0  0  0
   27.4085   39.7977   24.0411 C   0  0  0  0  0  0  0  0  0  0  0  0
   27.7572   37.8924   22.4699 C   0  0  0  0  0  0  0  0  0  0  0  0
   27.6958   36.5391   22.1329 C   0  0  1  0  0  0  0  0  0  0  0  0
   28.0682   34.7562   20.5745 C   0  0  1  0  0  0  0  0  0  0  0  0
   28.1283   36.1001   20.8905 N   0  0  0  0  0  0  0  0  0  0  0  0
  1  2  1  1  0  0  0
  1  3  1  0  0  0  0
  1  4  2  0  0  0  0
  1  6  1  0  0  0  0
  5  6  1  0  0  0  0
  7  5  1  6  0  0  0
  7  8  1  0  0  0  0
  7  9  1  0  0  0  0
  9 10  1  6  0  0  0
  9 11  1  0  0  0  0
 11 12  1  6  0  0  0
 11 13  1  0  0  0  0
 13 31  1  0  0  0  0
 14 15  1  0  0  0  0
 15 16  2  0  0  0  0
 15 17  1  0  0  0  0
 17 18  1  0  0  0  0
 18 20  2  0  0  0  0
 19 18  1  1  0  0  0
 19 22  1  0  0  0  0
 19 30  1  0  0  0  0
 21 23  1  6  0  0  0
 21 29  1  0  0  0  0
 21 22  1  0  0  0  0
 23 24  1  0  0  0  0
 24 25  1  1  0  0  0
 24 26  1  0  0  0  0
 26 27  1  1  0  0  0
 26 28  1  0  0  0  0
 29 28  1  1  0  0  0
 29 31  1  0  0  0  0
 30 14  1  1  0  0  0
 30 31  1  0  0  0  0
M  CHG  1   3  -1
M  END
>  <CHROM.1>
-72.06423679,178.55561936,123.27308465,-57.21871525,-75.99324609,171.69158840
-92.77278677,28.59840339,36.17536699,19.81264177,-0.06064505,-1.08487988
-3.10540378

>  <Name>
ligand

>  <RI>
0

>  <Rbt.Current_Directory>
/home/itssahil/PROJECTS/Mol_Feturizer/New_Systems/rnas/3F2T

>  <Rbt.Executable>
rbdock ($Id: //depot/dev/client3/rdock/2013.1/src/exe/rbdock.cxx#4 $)

>  <Rbt.Library>
libRbt.so (2013.1, Build901 2013/11/27)

>  <Rbt.Parameter_File>
/export/apps/rDock/src/rDock_2013.1_src/data/scripts/dock_solv.prm

>  <Rbt.Receptor>
prm/blind_docking_60.prm

>  <SCORE>
-26.4555

>  <SCORE.INTER>
-31.0438

>  <SCORE.INTER.CONST>
1

>  <SCORE.INTER.POLAR>
0

>  <SCORE.INTER.ROT>
7

>  <SCORE.INTER.SOLV>
15.4056

>  <SCORE.INTER.VDW>
-34.0977

>  <SCORE.INTER.norm>
-1.00141

>  <SCORE.INTRA>
4.58827

>  <SCORE.INTRA.DIHEDRAL>
3.54297

>  <SCORE.INTRA.DIHEDRAL.0>
4.64198

>  <SCORE.INTRA.POLAR>
0

>  <SCORE.INTRA.POLAR.0>
0

>  <SCORE.INTRA.REPUL>
0

>  <SCORE.INTRA.REPUL.0>
0

>  <SCORE.INTRA.SOLV>
3.21118

>  <SCORE.INTRA.SOLV.lig_0>
-49.3611

>  <SCORE.INTRA.VDW>
1.2112

>  <SCORE.INTRA.VDW.0>
-1.91858

>  <SCORE.INTRA.norm>
0.148009

>  <SCORE.RESTR>
0

>  <SCORE.RESTR.CAVITY>
0

>  <SCORE.RESTR.norm>
0

>  <SCORE.SYSTEM>
0

>  <SCORE.SYSTEM.CONST>
0

>  <SCORE.SYSTEM.DIHEDRAL>
0

>  <SCORE.SYSTEM.SOLV>
0

>  <SCORE.SYSTEM.norm>
0

>  <SCORE.heavy>
31

>  <SCORE.norm>
-0.853403

>  <RMSD>
3.795

$$$$
ligand
 OpenBabel11021811473D
libRbt.so/2013.1/901 2013/11/27
 31 33  0  0  0  0  0  0  0  0999 V2000
   30.4256   36.3136   16.3972 P   0  0  1  0  0  0  0  0  0  0  0  0
   30.0283   35.7199   17.7250 O   0  0  0  0  0  0  0  0  0  0  0  0
   31.8131   35.8406   16.0534 O   0  5  0  0  0  0  0  0  0  0  0  0
   29.4030   35.8495   15.3968 O   0  0  0  0  0  0  0  0  0  0  0  0
   31.2959   38.6225   17.2816 C   0  0  0  0  0  0  0  0  0  0  0  0
   30.4383   37.9192   16.4071 O   0  0  0  0  0  0  0  0  0  0  0  0
   30.8308   38.4101   18.7199 C   0  0  1  0  0  0  0  0  0  0  0  0
   31.8706   38.7548   19.6137 O   0  0  0  0  0  0  0  0  0  0  0  0
   29.6206   39.2821   19.0090 C   0  0  1  0  0  0  0  0  0  0  0  0
   28.6945   39.1148   17.9690 O   0  0  0  0  0  0  0  0  0  0  0  0
   28.9489   38.9322   20.3263 C   0  0  1  0  0  0  0  0  0  0  0  0
   28.5336   40.1234   20.9382 O   0  0  0  0  0  0  0  0  0  0  0  0
   27.7408   38.0388   20.0990 C   0  0  0  0  0  0  0  0  0  0  0  0
   27.9141   35.2848   19.5464 N   0  0  0  0  0  0  0  0  0  0  0  0
   27.9465   33.9472   19.2169 C   0  0  0  0  0  0  0  0  0  0  0  0
   28.1459   33.6036   18.0554 O   0  0  0  0  0  0  0  0  0  0  0  0
   27.7538   32.9859   20.1827 N   0  0  0  0  0  0  0  0  0  0  0  0
   27.5373   33.3542   21.4962 C   0  0  0  0  0  0  0  0  0  0  0  0
   27.5021   34.7015   21.8380 C   0  0  1  0  0  0  0  0  0  0  0  0
   27.3840   32.4889   22.3607 O   0  0  0  0  0  0  0  0  0  0  0  0
   27.2517   36.4163   23.4861 C   0  0  2  0  0  0  0  0  0  0  0  0
   27.2843   35.0767   23.1485 N   0  0  0  0  0  0  0  0  0  0  0  0
   27.0313   36.7942   24.8111 C   0  0  0  0  0  0  0  0  0  0  0  0
   26.9914   38.1389   25.1606 C   0  0  1  0  0  0  0  0  0  0  0  0
   26.7493   38.5067   26.5903 C   0  0  0  0  0  0  0  0  0  0  0  0
   27.1789   39.1207   24.1759 C   0  0  1  0  0  0  0  0  0  0  0  0
   27.1522   40.5861   24.5139 C   0  0  0  0  0  0  0  0  0  0  0  0
   27.3970   38.7405   22.8544 C   0  0  0  0  0  0  0  0  0  0  0  0
   27.4331   37.3903   22.5014 C   0  0  1  0  0  0  0  0  0  0  0  0
   27.6884   35.6691   20.8527 C   0  0  1  0  0  0  0  0  0  0  0  0
   27.6478   37.0096   21.1853 N   0  0  0  0  0  0  0  0  0  0  0  0
  1  2  1  1  0  0  0
  1  3  1  0  0  0  0
  1  4  2  0  0  0  0
  1  6  1  0  0  0  0
  5  6  1  0  0  0  0
  7  5  1  6  0  0  0
  7  8  1  0  0  0  0
  7  9  1  0  0  0  0
  9 10  1  6  0  0  0
  9 11  1  0  0  0  0
 11 12  1  6  0  0  0
 11 13  1  0  0  0  0
 13 31  1  0  0  0  0
 14 15  1  0  0  0  0
 15 16  2  0  0  0  0
 15 17  1  0  0  0  0
 17 18  1  0  0  0  0
 18 20  2  0  0  0  0
 19 18  1  1  0  0  0
 19 22  1  0  0  0  0
 19 30  1  0  0  0  0
 21 23  1  6  0  0  0
 21 29  1  0  0  0  0
 21 22  1  0  0  0  0
 23 24  1  0  0  0  0
 24 25  1  1  0  0  0
 24 26  1  0  0  0  0
 26 27  1  1  0  0  0
 26 28  1  0  0  0  0
 29 28  1  1  0  0  0
 29 31  1  0  0  0  0
 30 14  1  1  0  0  0
 30 31  1  0  0  0  0
M  CHG  1   3  -1
M  END
>  <CHROM.1>
-68.19830079,60.83579651,162.62801104,48.62981271,141.49706633,141.95638940
63.90889926,28.65420748,36.84976492,20.26662110,-0.56309560,1.08045815,0.48665126

>  <Name>
ligand

>  <RI>
0

>  <Rbt.Current_Directory>
/home/itssahil/PROJECTS/Mol_Feturizer/New_Systems/rnas/3F2T

>  <Rbt.Executable>
rbdock ($Id: //depot/dev/client3/rdock/2013.1/src/exe/rbdock.cxx#4 $)

>  <Rbt.Library>
libRbt.so (2013.1, Build901 2013/11/27)

>  <Rbt.Parameter_File>
/export/apps/rDock/src/rDock_2013.1_src/data/scripts/dock_solv.prm

>  <Rbt.Receptor>
prm/pocket_docking_7.prm

>  <SCORE>
-22.4913

>  <SCORE.INTER>
-28.1327

>  <SCORE.INTER.CONST>
1

>  <SCORE.INTER.POLAR>
0

>  <SCORE.INTER.ROT>
7

>  <SCORE.INTER.SOLV>
10.7935

>  <SCORE.INTER.VDW>
-30.6197

>  <SCORE.INTER.norm>
-0.907508

>  <SCORE.INTRA>
5.64149

>  <SCORE.INTRA.DIHEDRAL>
5.96511

>  <SCORE.INTRA.DIHEDRAL.0>
4.64198

>  <SCORE.INTRA.POLAR>
0

>  <SCORE.INTRA.POLAR.0>
0

>  <SCORE.INTRA.REPUL>
0

>  <SCORE.INTRA.REPUL.0>
0

>  <SCORE.INTRA.SOLV>
1.61088

>  <SCORE.INTRA.SOLV.lig_0>
-49.3611

>  <SCORE.INTRA.VDW>
1.85349

>  <SCORE.INTRA.VDW.0>
-1.91858

>  <SCORE.INTRA.norm>
0.181984

>  <SCORE.RESTR>
0

>  <SCORE.RESTR.CAVITY>
0

>  <SCORE.RESTR.norm>
0

>  <SCORE.SYSTEM>
0

>  <SCORE.SYSTEM.CONST>
0

>  <SCORE.SYSTEM.DIHEDRAL>
0

>  <SCORE.SYSTEM.SOLV>
0

>  <SCORE.SYSTEM.norm>
0

>  <SCORE.heavy>
31

>  <SCORE.norm>
-0.725524

>  <RMSD>
3.853

$$$$
ligand
 OpenBabel11021811473D
libRbt.so/2013.1/901 2013/11/27
 31 33  0  0  0  0  0  0  0  0999 V2000
   31.4518   36.7363   15.3117 P   0  0  1  0  0  0  0  0  0  0  0  0
   32.8367   37.2135   15.6685 O   0  0  0  0  0  0  0  0  0  0  0  0
   30.6642   37.9009   14.7729 O   0  5  0  0  0  0  0  0  0  0  0  0
   31.6239   35.6457   14.2904 O   0  0  0  0  0  0  0  0  0  0  0  0
   30.5028   36.8971   17.7498 C   0  0  0  0  0  0  0  0  0  0  0  0
   30.6521   36.1372   16.5687 O   0  0  0  0  0  0  0  0  0  0  0  0
   29.5608   38.0672   17.4785 C   0  0  1  0  0  0  0  0  0  0  0  0
   28.2436   37.5873   17.2961 O   0  0  0  0  0  0  0  0  0  0  0  0
   29.5778   39.0312   18.6529 C   0  0  1  0  0  0  0  0  0  0  0  0
   28.6057   40.0177   18.4314 O   0  0  0  0  0  0  0  0  0  0  0  0
   29.2886   38.3447   19.9772 C   0  0  1  0  0  0  0  0  0  0  0  0
   29.5027   39.2703   21.0084 O   0  0  0  0  0  0  0  0  0  0  0  0
   27.8503   37.8572   20.0331 C   0  0  0  0  0  0  0  0  0  0  0  0
   28.0113   35.0947   19.5211 N   0  0  0  0  0  0  0  0  0  0  0  0
   28.0407   33.7528   19.2088 C   0  0  0  0  0  0  0  0  0  0  0  0
   28.2909   33.3926   18.0623 O   0  0  0  0  0  0  0  0  0  0  0  0
   27.7885   32.8060   20.1752 N   0  0  0  0  0  0  0  0  0  0  0  0
   27.5143   33.1931   21.4725 C   0  0  0  0  0  0  0  0  0  0  0  0
   27.4816   34.5448   21.7967 C   0  0  1  0  0  0  0  0  0  0  0  0
   27.3076   32.3406   22.3385 O   0  0  0  0  0  0  0  0  0  0  0  0
   27.1763   36.2827   23.4111 C   0  0  2  0  0  0  0  0  0  0  0  0
   27.2064   34.9388   23.0908 N   0  0  0  0  0  0  0  0  0  0  0  0
   26.8979   36.6796   24.7194 C   0  0  0  0  0  0  0  0  0  0  0  0
   26.8601   38.0288   25.0512 C   0  0  1  0  0  0  0  0  0  0  0  0
   26.5548   38.4172   26.4632 C   0  0  0  0  0  0  0  0  0  0  0  0
   27.1084   38.9960   24.0655 C   0  0  1  0  0  0  0  0  0  0  0  0
   27.0861   40.4656   24.3849 C   0  0  0  0  0  0  0  0  0  0  0  0
   27.3844   38.5969   22.7604 C   0  0  0  0  0  0  0  0  0  0  0  0
   27.4185   37.2421   22.4251 C   0  0  1  0  0  0  0  0  0  0  0  0
   27.7285   35.4978   20.8105 C   0  0  1  0  0  0  0  0  0  0  0  0
   27.6909   36.8427   21.1253 N   0  0  0  0  0  0  0  0  0  0  0  0
  1  2  1  1  0  0  0
  1  3  1  0  0  0  0
  1  4  2  0  0  0  0
  1  6  1  0  0  0  0
  5  6  1  0  0  0  0
  7  5  1  1  0  0  0
  7  8  1  0  0  0  0
  7  9  1  0  0  0  0
  9 10  1  6  0  0  0
  9 11  1  0  0  0  0
 11 12  1  1  0  0  0
 11 13  1  0  0  0  0
 13 31  1  0  0  0  0
 14 15  1  0  0  0  0
 15 16  2  0  0  0  0
 15 17  1  0  0  0  0
 17 18  1  0  0  0  0
 18 20  2  0  0  0  0
 19 18  1  1  0  0  0
 19 22  1  0  0  0  0
 19 30  1  0  0  0  0
 21 23  1  6  0  0  0
 21 29  1  0  0  0  0
 21 22  1  0  0  0  0
 23 24  1  0  0  0  0
 24 25  1  1  0  0  0
 24 26  1  0  0  0  0
 26 27  1  1  0  0  0
 26 28  1  0  0  0  0
 29 28  1  1  0  0  0
 29 31  1  0  0  0  0
 30 14  1  1  0  0  0
 30 31  1  0  0  0  0
M  CHG  1   3  -1
M  END
>  <CHROM.1>
69.54929436,53.80595834,70.05339942,-174.10850326,172.17829604,162.85664222
86.64412419,28.71099465,36.72106017,19.89931099,-0.33026068,1.09890107,0.32165877

>  <Name>
ligand

>  <RI>
0

>  <Rbt.Current_Directory>
/home/itssahil/PROJECTS/Mol_Feturizer/New_Systems/rnas/3F2T

>  <Rbt.Executable>
rbdock ($Id: //depot/dev/client3/rdock/2013.1/src/exe/rbdock.cxx#4 $)

>  <Rbt.Library>
libRbt.so (2013.1, Build901 2013/11/27)

>  <Rbt.Parameter_File>
/export/apps/rDock/src/rDock_2013.1_src/data/scripts/dock_solv.prm

>  <Rbt.Receptor>
prm/pocket_docking_8.prm

>  <SCORE>
-27.6674

>  <SCORE.INTER>
-28.9601

>  <SCORE.INTER.CONST>
1

>  <SCORE.INTER.POLAR>
0

>  <SCORE.INTER.ROT>
7

>  <SCORE.INTER.SOLV>
15.6063

>  <SCORE.INTER.VDW>
-32.7755

>  <SCORE.INTER.norm>
-0.934195

>  <SCORE.INTRA>
1.29269

>  <SCORE.INTRA.DIHEDRAL>
-1.08974

>  <SCORE.INTRA.DIHEDRAL.0>
4.64198

>  <SCORE.INTRA.POLAR>
0

>  <SCORE.INTRA.POLAR.0>
0

>  <SCORE.INTRA.REPUL>
0

>  <SCORE.INTRA.REPUL.0>
0

>  <SCORE.INTRA.SOLV>
1.86401

>  <SCORE.INTRA.SOLV.lig_0>
-49.3611

>  <SCORE.INTRA.VDW>
0.905557

>  <SCORE.INTRA.VDW.0>
-1.91858

>  <SCORE.INTRA.norm>
0.0416997

>  <SCORE.RESTR>
0

>  <SCORE.RESTR.CAVITY>
0

>  <SCORE.RESTR.norm>
0

>  <SCORE.SYSTEM>
0

>  <SCORE.SYSTEM.CONST>
0

>  <SCORE.SYSTEM.DIHEDRAL>
0

>  <SCORE.SYSTEM.SOLV>
0

>  <SCORE.SYSTEM.norm>
0

>  <SCORE.heavy>
31

>  <SCORE.norm>
-0.892496

>  <RMSD>
3.881

$$$$
ligand
 OpenBabel11021811473D
libRbt.so/2013.1/901 2013/11/27
 31 33  0  0  0  0  0  0  0  0999 V2000
   32.0356   36.3101   16.7301 P   0  0  1  0  0  0  0  0  0  0  0  0
   32.4797   34.9833   17.2919 O   0  0  0  0  0  0  0  0  0  0  0  0
   31.9583   37.3084   17.8545 O   0  5  0  0  0  0  0  0  0  0  0  0
   33.0538   36.6993   15.6939 O   0  0  0  0  0  0  0  0  0  0  0  0
   29.8580   37.4242   15.7882 C   0  0  0  0  0  0  0  0  0  0  0  0
   30.5930   36.2423   16.0282 O   0  0  0  0  0  0  0  0  0  0  0  0
   29.2157   37.8899   17.0923 C   0  0  1  0  0  0  0  0  0  0  0  0
   28.8038   39.2365   16.9673 O   0  0  0  0  0  0  0  0  0  0  0  0
   28.0045   37.0297   17.4114 C   0  0  1  0  0  0  0  0  0  0  0  0
   28.3706   35.6820   17.2812 O   0  0  0  0  0  0  0  0  0  0  0  0
   27.4762   37.2620   18.8170 C   0  0  1  0  0  0  0  0  0  0  0  0
   26.4512   36.3367   19.0601 O   0  0  0  0  0  0  0  0  0  0  0  0
   28.5762   37.0725   19.8484 C   0  0  0  0  0  0  0  0  0  0  0  0
   28.5132   34.2968   19.3888 N   0  0  0  0  0  0  0  0  0  0  0  0
   28.4451   32.9522   19.0949 C   0  0  0  0  0  0  0  0  0  0  0  0
   28.8366   32.5389   18.0074 O   0  0  0  0  0  0  0  0  0  0  0  0
   27.9370   32.0622   20.0135 N   0  0  0  0  0  0  0  0  0  0  0  0
   27.5004   32.5086   21.2456 C   0  0  0  0  0  0  0  0  0  0  0  0
   27.5646   33.8637   21.5507 C   0  0  1  0  0  0  0  0  0  0  0  0
   27.0637   31.7049   22.0720 O   0  0  0  0  0  0  0  0  0  0  0  0
   27.1947   35.6638   23.0812 C   0  0  2  0  0  0  0  0  0  0  0  0
   27.1283   34.3169   22.7795 N   0  0  0  0  0  0  0  0  0  0  0  0
   26.7533   36.1206   24.3235 C   0  0  0  0  0  0  0  0  0  0  0  0
   26.8109   37.4739   24.6352 C   0  0  1  0  0  0  0  0  0  0  0  0
   26.3254   37.9277   25.9755 C   0  0  0  0  0  0  0  0  0  0  0  0
   27.3205   38.3841   23.6969 C   0  0  1  0  0  0  0  0  0  0  0  0
   27.4085   39.8551   23.9981 C   0  0  0  0  0  0  0  0  0  0  0  0
   27.7587   37.9254   22.4574 C   0  0  0  0  0  0  0  0  0  0  0  0
   27.6975   36.5669   22.1416 C   0  0  1  0  0  0  0  0  0  0  0  0
   28.0713   34.7598   20.6117 C   0  0  1  0  0  0  0  0  0  0  0  0
   28.1313   36.1084   20.9067 N   0  0  0  0  0  0  0  0  0  0  0  0
  1  2  1  1  0  0  0
  1  3  1  0  0  0  0
  1  4  2  0  0  0  0
  1  6  1  0  0  0  0
  5  6  1  0  0  0  0
  7  5  1  6  0  0  0
  7  8  1  0  0  0  0
  7  9  1  0  0  0  0
  9 10  1  1  0  0  0
  9 11  1  0  0  0  0
 11 12  1  1  0  0  0
 11 13  1  0  0  0  0
 13 31  1  0  0  0  0
 14 15  1  0  0  0  0
 15 16  2  0  0  0  0
 15 17  1  0  0  0  0
 17 18  1  0  0  0  0
 18 20  2  0  0  0  0
 19 18  1  1  0  0  0
 19 22  1  0  0  0  0
 19 30  1  0  0  0  0
 21 23  1  6  0  0  0
 21 29  1  0  0  0  0
 21 22  1  0  0  0  0
 23 24  1  0  0  0  0
 24 25  1  1  0  0  0
 24 26  1  0  0  0  0
 26 27  1  1  0  0  0
 26 28  1  0  0  0  0
 29 28  1  1  0  0  0
 29 31  1  0  0  0  0
 30 14  1  1  0  0  0
 30 31  1  0  0  0  0
M  CHG  1   3  -1
M  END
>  <CHROM.1>
-77.59034425,162.07453088,163.58825985,48.51105512,-174.28011831,-127.58816140
-101.52004905,28.71649070,35.97154185,19.78181550,-0.17174802,1.03683803
0.20942829

>  <Name>
ligand

>  <RI>
0

>  <Rbt.Current_Directory>
/home/itssahil/PROJECTS/Mol_Feturizer/New_Systems/rnas/3F2T

>  <Rbt.Executable>
rbdock ($Id: //depot/dev/client3/rdock/2013.1/src/exe/rbdock.cxx#4 $)

>  <Rbt.Library>
libRbt.so (2013.1, Build901 2013/11/27)

>  <Rbt.Parameter_File>
/export/apps/rDock/src/rDock_2013.1_src/data/scripts/dock_solv.prm

>  <Rbt.Receptor>
prm/blind_docking_60.prm

>  <SCORE>
-24.0663

>  <SCORE.INTER>
-29.5136

>  <SCORE.INTER.CONST>
1

>  <SCORE.INTER.POLAR>
0

>  <SCORE.INTER.ROT>
7

>  <SCORE.INTER.SOLV>
17.0407

>  <SCORE.INTER.VDW>
-33.6226

>  <SCORE.INTER.norm>
-0.95205

>  <SCORE.INTRA>
5.44723

>  <SCORE.INTRA.DIHEDRAL>
4.99436

>  <SCORE.INTRA.DIHEDRAL.0>
4.64198

>  <SCORE.INTRA.POLAR>
0

>  <SCORE.INTRA.POLAR.0>
0

>  <SCORE.INTRA.REPUL>
0

>  <SCORE.INTRA.REPUL.0>
0

>  <SCORE.INTRA.SOLV>
3.50428

>  <SCORE.INTRA.SOLV.lig_0>
-49.3611

>  <SCORE.INTRA.VDW>
1.19791

>  <SCORE.INTRA.VDW.0>
-1.91858

>  <SCORE.INTRA.norm>
0.175717

>  <SCORE.RESTR>
0

>  <SCORE.RESTR.CAVITY>
0

>  <SCORE.RESTR.norm>
0

>  <SCORE.SYSTEM>
0

>  <SCORE.SYSTEM.CONST>
0

>  <SCORE.SYSTEM.DIHEDRAL>
0

>  <SCORE.SYSTEM.SOLV>
0

>  <SCORE.SYSTEM.norm>
0

>  <SCORE.heavy>
31

>  <SCORE.norm>
-0.776333

>  <RMSD>
4.006

$$$$
ligand
 OpenBabel11021811473D
libRbt.so/2013.1/901 2013/11/27
 31 33  0  0  0  0  0  0  0  0999 V2000
   27.5085   35.4588   14.0683 P   0  0  1  0  0  0  0  0  0  0  0  0
   26.6375   36.6809   14.2134 O   0  0  0  0  0  0  0  0  0  0  0  0
   26.9784   34.3786   14.9734 O   0  5  0  0  0  0  0  0  0  0  0  0
   27.4535   35.0628   12.6184 O   0  0  0  0  0  0  0  0  0  0  0  0
   29.5118   35.4092   15.7579 C   0  0  0  0  0  0  0  0  0  0  0  0
   29.0404   35.7302   14.4658 O   0  0  0  0  0  0  0  0  0  0  0  0
   29.0495   36.4808   16.7419 C   0  0  1  0  0  0  0  0  0  0  0  0
   27.6461   36.4115   16.8986 O   0  0  0  0  0  0  0  0  0  0  0  0
   29.7094   36.2649   18.0934 C   0  0  1  0  0  0  0  0  0  0  0  0
   31.1007   36.2953   17.9178 O   0  0  0  0  0  0  0  0  0  0  0  0
   29.3192   37.3241   19.1105 C   0  0  1  0  0  0  0  0  0  0  0  0
   29.4894   38.5845   18.5204 O   0  0  0  0  0  0  0  0  0  0  0  0
   27.8686   37.1617   19.5338 C   0  0  0  0  0  0  0  0  0  0  0  0
   28.0217   34.3833   19.1132 N   0  0  0  0  0  0  0  0  0  0  0  0
   28.0443   33.0313   18.8479 C   0  0  0  0  0  0  0  0  0  0  0  0
   28.2416   32.6313   17.7042 O   0  0  0  0  0  0  0  0  0  0  0  0
   27.8441   32.1186   19.8583 N   0  0  0  0  0  0  0  0  0  0  0  0
   27.6298   32.5507   21.1526 C   0  0  0  0  0  0  0  0  0  0  0  0
   27.6046   33.9130   21.4297 C   0  0  1  0  0  0  0  0  0  0  0  0
   27.4699   31.7288   22.0573 O   0  0  0  0  0  0  0  0  0  0  0  0
   27.3662   35.7063   22.9940 C   0  0  2  0  0  0  0  0  0  0  0  0
   27.3890   34.3519   22.7207 N   0  0  0  0  0  0  0  0  0  0  0  0
   27.1482   36.1485   24.2993 C   0  0  0  0  0  0  0  0  0  0  0  0
   27.1181   37.5086   24.5843 C   0  0  1  0  0  0  0  0  0  0  0  0
   26.8782   37.9460   25.9946 C   0  0  0  0  0  0  0  0  0  0  0  0
   27.3133   38.4409   23.5541 C   0  0  1  0  0  0  0  0  0  0  0  0
   27.2974   39.9210   23.8217 C   0  0  0  0  0  0  0  0  0  0  0  0
   27.5290   37.9965   22.2523 C   0  0  0  0  0  0  0  0  0  0  0  0
   27.5552   36.6308   21.9641 C   0  0  1  0  0  0  0  0  0  0  0  0
   27.7984   34.8311   20.3996 C   0  0  1  0  0  0  0  0  0  0  0  0
   27.7677   36.1863   20.6678 N   0  0  0  0  0  0  0  0  0  0  0  0
  1  2  1  1  0  0  0
  1  3  1  0  0  0  0
  1  4  2  0  0  0  0
  1  6  1  0  0  0  0
  5  6  1  0  0  0  0
  7  5  1  6  0  0  0
  7  8  1  0  0  0  0
  7  9  1  0  0  0  0
  9 10  1  6  0  0  0
  9 11  1  0  0  0  0
 11 12  1  6  0  0  0
 11 13  1  0  0  0  0
 13 31  1  0  0  0  0
 14 15  1  0  0  0  0
 15 16  2  0  0  0  0
 15 17  1  0  0  0  0
 17 18  1  0  0  0  0
 18 20  2  0  0  0  0
 19 18  1  1  0  0  0
 19 22  1  0  0  0  0
 19 30  1  0  0  0  0
 21 23  1  6  0  0  0
 21 29  1  0  0  0  0
 21 22  1  0  0  0  0
 23 24  1  0  0  0  0
 24 25  1  1  0  0  0
 24 26  1  0  0  0  0
 26 27  1  1  0  0  0
 26 28  1  0  0  0  0
 29 28  1  1  0  0  0
 29 31  1  0  0  0  0
 30 14  1  1  0  0  0
 30 31  1  0  0  0  0
M  CHG  1   3  -1
M  END
>  <CHROM.1>
-77.41206952,96.60071737,68.21294070,57.86417753,-49.42583264,86.54013346
104.11052443,27.97827374,35.70116992,19.15218288,-0.93793332,1.44229109,0.78985399

>  <Name>
ligand

>  <RI>
0

>  <Rbt.Current_Directory>
/home/itssahil/PROJECTS/Mol_Feturizer/New_Systems/rnas/3F2T

>  <Rbt.Executable>
rbdock ($Id: //depot/dev/client3/rdock/2013.1/src/exe/rbdock.cxx#4 $)

>  <Rbt.Library>
libRbt.so (2013.1, Build901 2013/11/27)

>  <Rbt.Parameter_File>
/export/apps/rDock/src/rDock_2013.1_src/data/scripts/dock_solv.prm

>  <Rbt.Receptor>
prm/pocket_docking_6.prm

>  <SCORE>
-27.4429

>  <SCORE.INTER>
-30.5107

>  <SCORE.INTER.CONST>
1

>  <SCORE.INTER.POLAR>
0

>  <SCORE.INTER.ROT>
7

>  <SCORE.INTER.SOLV>
13.3235

>  <SCORE.INTER.VDW>
-33.0483

>  <SCORE.INTER.norm>
-0.984215

>  <SCORE.INTRA>
3.06773

>  <SCORE.INTRA.DIHEDRAL>
2.45381

>  <SCORE.INTRA.DIHEDRAL.0>
4.64198

>  <SCORE.INTRA.POLAR>
0

>  <SCORE.INTRA.POLAR.0>
0

>  <SCORE.INTRA.REPUL>
0.0125559

>  <SCORE.INTRA.REPUL.0>
0

>  <SCORE.INTRA.SOLV>
2.94518

>  <SCORE.INTRA.SOLV.lig_0>
-49.3611

>  <SCORE.INTRA.VDW>
0.305457

>  <SCORE.INTRA.VDW.0>
-1.91858

>  <SCORE.INTRA.norm>
0.098959

>  <SCORE.RESTR>
0

>  <SCORE.RESTR.CAVITY>
0

>  <SCORE.RESTR.norm>
0

>  <SCORE.SYSTEM>
0

>  <SCORE.SYSTEM.CONST>
0

>  <SCORE.SYSTEM.DIHEDRAL>
0

>  <SCORE.SYSTEM.SOLV>
0

>  <SCORE.SYSTEM.norm>
0

>  <SCORE.heavy>
31

>  <SCORE.norm>
-0.885256

>  <RMSD>
4.023

$$$$
ligand
 OpenBabel11021811473D
libRbt.so/2013.1/901 2013/11/27
 31 33  0  0  0  0  0  0  0  0999 V2000
   31.9055   36.3975   16.1569 P   0  0  1  0  0  0  0  0  0  0  0  0
   33.3970   36.4218   16.3756 O   0  0  0  0  0  0  0  0  0  0  0  0
   31.6366   36.2498   14.6828 O   0  5  0  0  0  0  0  0  0  0  0  0
   31.3746   35.2354   16.9505 O   0  0  0  0  0  0  0  0  0  0  0  0
   31.4909   38.2908   17.9216 C   0  0  0  0  0  0  0  0  0  0  0  0
   31.1761   37.7360   16.6614 O   0  0  0  0  0  0  0  0  0  0  0  0
   30.5799   39.4868   18.1857 C   0  0  1  0  0  0  0  0  0  0  0  0
   30.5737   40.3402   17.0586 O   0  0  0  0  0  0  0  0  0  0  0  0
   29.1620   39.0110   18.4538 C   0  0  1  0  0  0  0  0  0  0  0  0
   28.7341   38.2504   17.3558 O   0  0  0  0  0  0  0  0  0  0  0  0
   29.0576   38.1627   19.7101 C   0  0  1  0  0  0  0  0  0  0  0  0
   29.5042   38.9287   20.7963 O   0  0  0  0  0  0  0  0  0  0  0  0
   27.6208   37.7338   19.9575 C   0  0  0  0  0  0  0  0  0  0  0  0
   27.7671   34.9657   19.4712 N   0  0  0  0  0  0  0  0  0  0  0  0
   27.7842   33.6199   19.1759 C   0  0  0  0  0  0  0  0  0  0  0  0
   27.9403   33.2455   18.0173 O   0  0  0  0  0  0  0  0  0  0  0  0
   27.6247   32.6848   20.1730 N   0  0  0  0  0  0  0  0  0  0  0  0
   27.4572   33.0880   21.4834 C   0  0  0  0  0  0  0  0  0  0  0  0
   27.4378   34.4439   21.7908 C   0  0  1  0  0  0  0  0  0  0  0  0
   27.3335   32.2461   22.3754 O   0  0  0  0  0  0  0  0  0  0  0  0
   27.2519   36.2020   23.4015 C   0  0  2  0  0  0  0  0  0  0  0  0
   27.2689   34.8539   23.0982 N   0  0  0  0  0  0  0  0  0  0  0  0
   27.0810   36.6151   24.7232 C   0  0  0  0  0  0  0  0  0  0  0  0
   27.0571   37.9685   25.0386 C   0  0  1  0  0  0  0  0  0  0  0  0
   26.8683   38.3744   26.4660 C   0  0  0  0  0  0  0  0  0  0  0  0
   27.2109   38.9237   24.0224 C   0  0  1  0  0  0  0  0  0  0  0  0
   27.2001   40.3975   24.3225 C   0  0  0  0  0  0  0  0  0  0  0  0
   27.3796   38.5084   22.7041 C   0  0  0  0  0  0  0  0  0  0  0  0
   27.3995   37.1493   22.3856 C   0  0  1  0  0  0  0  0  0  0  0  0
   27.5903   35.3848   20.7744 C   0  0  1  0  0  0  0  0  0  0  0  0
   27.5651   36.7337   21.0729 N   0  0  0  0  0  0  0  0  0  0  0  0
  1  2  1  1  0  0  0
  1  3  1  0  0  0  0
  1  4  2  0  0  0  0
  1  6  1  0  0  0  0
  5  6  1  0  0  0  0
  7  5  1  6  0  0  0
  7  8  1  0  0  0  0
  7  9  1  0  0  0  0
  9 10  1  6  0  0  0
  9 11  1  0  0  0  0
 11 12  1  1  0  0  0
 11 13  1  0  0  0  0
 13 31  1  0  0  0  0
 14 15  1  0  0  0  0
 15 16  2  0  0  0  0
 15 17  1  0  0  0  0
 17 18  1  0  0  0  0
 18 20  2  0  0  0  0
 19 18  1  1  0  0  0
 19 22  1  0  0  0  0
 19 30  1  0  0  0  0
 21 23  1  6  0  0  0
 21 29  1  0  0  0  0
 21 22  1  0  0  0  0
 23 24  1  0  0  0  0
 24 25  1  1  0  0  0
 24 26  1  0  0  0  0
 26 27  1  1  0  0  0
 26 28  1  0  0  0  0
 29 28  1  1  0  0  0
 29 31  1  0  0  0  0
 30 14  1  1  0  0  0
 30 31  1  0  0  0  0
M  CHG  1   3  -1
M  END
>  <CHROM.1>
-175.71516853,-45.74446075,-48.72433814,-56.92217072,58.93164867,171.44771145
90.50360943,28.91826669,36.70033688,20.02230390,0.31078273,-1.01508608,-2.75812886

>  <Name>
ligand

>  <RI>
0

>  <Rbt.Current_Directory>
/home/itssahil/PROJECTS/Mol_Feturizer/New_Systems/rnas/3F2T

>  <Rbt.Executable>
rbdock ($Id: //depot/dev/client3/rdock/2013.1/src/exe/rbdock.cxx#4 $)

>  <Rbt.Library>
libRbt.so (2013.1, Build901 2013/11/27)

>  <Rbt.Parameter_File>
/export/apps/rDock/src/rDock_2013.1_src/data/scripts/dock_solv.prm

>  <Rbt.Receptor>
prm/pocket_docking_8.prm

>  <SCORE>
-30.3005

>  <SCORE.INTER>
-29.7785

>  <SCORE.INTER.CONST>
1

>  <SCORE.INTER.POLAR>
0

>  <SCORE.INTER.ROT>
7

>  <SCORE.INTER.SOLV>
14.3279

>  <SCORE.INTER.VDW>
-32.895

>  <SCORE.INTER.norm>
-0.960598

>  <SCORE.INTRA>
-0.521954

>  <SCORE.INTRA.DIHEDRAL>
-2.18092

>  <SCORE.INTRA.DIHEDRAL.0>
4.64198

>  <SCORE.INTRA.POLAR>
0

>  <SCORE.INTRA.POLAR.0>
0

>  <SCORE.INTRA.REPUL>
0

>  <SCORE.INTRA.REPUL.0>
0

>  <SCORE.INTRA.SOLV>
0.295753

>  <SCORE.INTRA.SOLV.lig_0>
-49.3611

>  <SCORE.INTRA.VDW>
0.420628

>  <SCORE.INTRA.VDW.0>
-1.91858

>  <SCORE.INTRA.norm>
-0.0168372

>  <SCORE.RESTR>
0

>  <SCORE.RESTR.CAVITY>
0

>  <SCORE.RESTR.norm>
0

>  <SCORE.SYSTEM>
0

>  <SCORE.SYSTEM.CONST>
0

>  <SCORE.SYSTEM.DIHEDRAL>
0

>  <SCORE.SYSTEM.SOLV>
0

>  <SCORE.SYSTEM.norm>
0

>  <SCORE.heavy>
31

>  <SCORE.norm>
-0.977435

>  <RMSD>
4.028

$$$$
ligand
 OpenBabel11021811473D
libRbt.so/2013.1/901 2013/11/27
 31 33  0  0  0  0  0  0  0  0999 V2000
   31.0733   36.1226   15.4711 P   0  0  1  0  0  0  0  0  0  0  0  0
   30.8370   35.3166   16.7232 O   0  0  0  0  0  0  0  0  0  0  0  0
   32.1583   35.4571   14.6668 O   0  5  0  0  0  0  0  0  0  0  0  0
   29.7631   36.1632   14.7337 O   0  0  0  0  0  0  0  0  0  0  0  0
   30.6801   38.5154   16.4663 C   0  0  0  0  0  0  0  0  0  0  0  0
   31.5356   37.6301   15.7740 O   0  0  0  0  0  0  0  0  0  0  0  0
   30.4425   37.9837   17.8774 C   0  0  1  0  0  0  0  0  0  0  0  0
   31.6657   37.5457   18.4348 O   0  0  0  0  0  0  0  0  0  0  0  0
   29.8634   39.0803   18.7553 C   0  0  1  0  0  0  0  0  0  0  0  0
   28.7970   39.6807   18.0700 O   0  0  0  0  0  0  0  0  0  0  0  0
   29.3578   38.5560   20.0888 C   0  0  1  0  0  0  0  0  0  0  0  0
   29.2180   39.6424   20.9641 O   0  0  0  0  0  0  0  0  0  0  0  0
   28.0125   37.8679   19.9266 C   0  0  0  0  0  0  0  0  0  0  0  0
   28.1572   35.1152   19.3590 N   0  0  0  0  0  0  0  0  0  0  0  0
   28.1796   33.7800   19.0193 C   0  0  0  0  0  0  0  0  0  0  0  0
   28.4422   33.4415   17.8689 O   0  0  0  0  0  0  0  0  0  0  0  0
   27.9065   32.8155   19.9622 N   0  0  0  0  0  0  0  0  0  0  0  0
   27.6181   33.1779   21.2635 C   0  0  0  0  0  0  0  0  0  0  0  0
   27.5925   34.5228   21.6155 C   0  0  1  0  0  0  0  0  0  0  0  0
   27.3927   32.3093   22.1087 O   0  0  0  0  0  0  0  0  0  0  0  0
   27.2801   36.2293   23.2616 C   0  0  2  0  0  0  0  0  0  0  0  0
   27.3031   34.8921   22.9138 N   0  0  0  0  0  0  0  0  0  0  0  0
   26.9874   36.6013   24.5742 C   0  0  0  0  0  0  0  0  0  0  0  0
   26.9565   37.9436   24.9335 C   0  0  1  0  0  0  0  0  0  0  0  0
   26.6355   38.3051   26.3492 C   0  0  0  0  0  0  0  0  0  0  0  0
   27.2261   38.9289   23.9717 C   0  0  1  0  0  0  0  0  0  0  0  0
   27.2118   40.3917   24.3215 C   0  0  0  0  0  0  0  0  0  0  0  0
   27.5162   38.5546   22.6623 C   0  0  0  0  0  0  0  0  0  0  0  0
   27.5435   37.2069   22.2992 C   0  0  1  0  0  0  0  0  0  0  0  0
   27.8606   35.4939   20.6528 C   0  0  1  0  0  0  0  0  0  0  0  0
   27.8299   36.8322   20.9951 N   0  0  0  0  0  0  0  0  0  0  0  0
  1  2  1  1  0  0  0
  1  3  1  0  0  0  0
  1  4  2  0  0  0  0
  1  6  1  0  0  0  0
  5  6  1  0  0  0  0
  7  5  1  6  0  0  0
  7  8  1  0  0  0  0
  7  9  1  0  0  0  0
  9 10  1  6  0  0  0
  9 11  1  0  0  0  0
 11 12  1  1  0  0  0
 11 13  1  0  0  0  0
 13 31  1  0  0  0  0
 14 15  1  0  0  0  0
 15 16  2  0  0  0  0
 15 17  1  0  0  0  0
 17 18  1  0  0  0  0
 18 20  2  0  0  0  0
 19 18  1  1  0  0  0
 19 22  1  0  0  0  0
 19 30  1  0  0  0  0
 21 23  1  6  0  0  0
 21 29  1  0  0  0  0
 21 22  1  0  0  0  0
 23 24  1  0  0  0  0
 24 25  1  1  0  0  0
 24 26  1  0  0  0  0
 26 27  1  1  0  0  0
 26 28  1  0  0  0  0
 29 28  1  1  0  0  0
 29 31  1  0  0  0  0
 30 14  1  1  0  0  0
 30 31  1  0  0  0  0
M  CHG  1   3  -1
M  END
>  <CHROM.1>
63.43563220,-62.65107746,44.29858357,48.50341041,162.79761334,153.01045334
74.56191064,28.85903404,36.63484123,19.85040967,-0.44955762,1.08470105,0.38863070

>  <Name>
ligand

>  <RI>
0

>  <Rbt.Current_Directory>
/home/itssahil/PROJECTS/Mol_Feturizer/New_Systems/rnas/3F2T

>  <Rbt.Executable>
rbdock ($Id: //depot/dev/client3/rdock/2013.1/src/exe/rbdock.cxx#4 $)

>  <Rbt.Library>
libRbt.so (2013.1, Build901 2013/11/27)

>  <Rbt.Parameter_File>
/export/apps/rDock/src/rDock_2013.1_src/data/scripts/dock_solv.prm

>  <Rbt.Receptor>
prm/blind_docking_80.prm

>  <SCORE>
-26.1949

>  <SCORE.INTER>
-28.47

>  <SCORE.INTER.CONST>
1

>  <SCORE.INTER.POLAR>
0

>  <SCORE.INTER.ROT>
7

>  <SCORE.INTER.SOLV>
12.1126

>  <SCORE.INTER.VDW>
-31.2842

>  <SCORE.INTER.norm>
-0.918386

>  <SCORE.INTRA>
2.27503

>  <SCORE.INTRA.DIHEDRAL>
1.2862

>  <SCORE.INTRA.DIHEDRAL.0>
4.64198

>  <SCORE.INTRA.POLAR>
0

>  <SCORE.INTRA.POLAR.0>
0

>  <SCORE.INTRA.REPUL>
0

>  <SCORE.INTRA.REPUL.0>
0

>  <SCORE.INTRA.SOLV>
0.978695

>  <SCORE.INTRA.SOLV.lig_0>
-49.3611

>  <SCORE.INTRA.VDW>
1.14258

>  <SCORE.INTRA.VDW.0>
-1.91858

>  <SCORE.INTRA.norm>
0.0733882

>  <SCORE.RESTR>
0

>  <SCORE.RESTR.CAVITY>
0

>  <SCORE.RESTR.norm>
0

>  <SCORE.SYSTEM>
0

>  <SCORE.SYSTEM.CONST>
0

>  <SCORE.SYSTEM.DIHEDRAL>
0

>  <SCORE.SYSTEM.SOLV>
0

>  <SCORE.SYSTEM.norm>
0

>  <SCORE.heavy>
31

>  <SCORE.norm>
-0.844998

>  <RMSD>
4.033

$$$$
ligand
 OpenBabel11021811473D
libRbt.so/2013.1/901 2013/11/27
 31 33  0  0  0  0  0  0  0  0999 V2000
   29.1726   43.2195   24.4106 P   0  0  1  0  0  0  0  0  0  0  0  0
   28.0586   43.9266   25.1402 O   0  0  0  0  0  0  0  0  0  0  0  0
   30.2041   44.2375   24.0026 O   0  5  0  0  0  0  0  0  0  0  0  0
   29.7287   42.1978   25.3640 O   0  0  0  0  0  0  0  0  0  0  0  0
   27.7608   43.0870   22.2061 C   0  0  0  0  0  0  0  0  0  0  0  0
   28.6728   42.4627   23.0856 O   0  0  0  0  0  0  0  0  0  0  0  0
   27.7160   42.3090   20.8935 C   0  0  1  0  0  0  0  0  0  0  0  0
   29.0318   42.0197   20.4649 O   0  0  0  0  0  0  0  0  0  0  0  0
   26.9610   41.0048   21.0879 C   0  0  1  0  0  0  0  0  0  0  0  0
   25.5867   41.2701   20.9989 O   0  0  0  0  0  0  0  0  0  0  0  0
   27.3276   39.9567   20.0506 C   0  0  1  0  0  0  0  0  0  0  0  0
   27.5578   40.6076   18.8302 O   0  0  0  0  0  0  0  0  0  0  0  0
   28.5821   39.2032   20.4602 C   0  0  0  0  0  0  0  0  0  0  0  0
   28.8038   36.6593   19.2773 N   0  0  0  0  0  0  0  0  0  0  0  0
   28.8752   35.4428   18.6340 C   0  0  0  0  0  0  0  0  0  0  0  0
   29.3268   35.3742   17.4946 O   0  0  0  0  0  0  0  0  0  0  0  0
   28.4403   34.2964   19.2591 N   0  0  0  0  0  0  0  0  0  0  0  0
   27.9378   34.3538   20.5444 C   0  0  0  0  0  0  0  0  0  0  0  0
   27.8612   35.5769   21.2012 C   0  0  1  0  0  0  0  0  0  0  0  0
   27.5671   33.3214   21.1069 O   0  0  0  0  0  0  0  0  0  0  0  0
   27.2850   36.8583   23.1366 C   0  0  2  0  0  0  0  0  0  0  0  0
   27.3584   35.6418   22.4852 N   0  0  0  0  0  0  0  0  0  0  0  0
   26.7764   36.9224   24.4343 C   0  0  0  0  0  0  0  0  0  0  0  0
   26.6934   38.1415   25.0966 C   0  0  1  0  0  0  0  0  0  0  0  0
   26.1394   38.1725   26.4859 C   0  0  0  0  0  0  0  0  0  0  0  0
   27.1282   39.3127   24.4579 C   0  0  1  0  0  0  0  0  0  0  0  0
   27.0639   40.6503   25.1428 C   0  0  0  0  0  0  0  0  0  0  0  0
   27.6337   39.2457   23.1623 C   0  0  0  0  0  0  0  0  0  0  0  0
   27.7137   38.0224   22.4944 C   0  0  1  0  0  0  0  0  0  0  0  0
   28.2946   36.7345   20.5580 C   0  0  1  0  0  0  0  0  0  0  0  0
   28.2147   37.9539   21.2031 N   0  0  0  0  0  0  0  0  0  0  0  0
  1  2  1  1  0  0  0
  1  3  1  0  0  0  0
  1  4  2  0  0  0  0
  1  6  1  0  0  0  0
  5  6  1  0  0  0  0
  7  5  1  1  0  0  0
  7  8  1  0  0  0  0
  7  9  1  0  0  0  0
  9 10  1  6  0  0  0
  9 11  1  0  0  0  0
 11 12  1  6  0  0  0
 11 13  1  0  0  0  0
 13 31  1  0  0  0  0
 14 15  1  0  0  0  0
 15 16  2  0  0  0  0
 15 17  1  0  0  0  0
 17 18  1  0  0  0  0
 18 20  2  0  0  0  0
 19 18  1  1  0  0  0
 19 22  1  0  0  0  0
 19 30  1  0  0  0  0
 21 23  1  6  0  0  0
 21 29  1  0  0  0  0
 21 22  1  0  0  0  0
 23 24  1  0  0  0  0
 24 25  1  1  0  0  0
 24 26  1  0  0  0  0
 26 27  1  1  0  0  0
 26 28  1  0  0  0  0
 29 28  1  1  0  0  0
 29 31  1  0  0  0  0
 30 14  1  1  0  0  0
 30 31  1  0  0  0  0
M  CHG  1   3  -1
M  END
>  <CHROM.1>
166.65918284,42.98237209,-46.33260264,82.17800572,-35.65944725,93.55249465
-72.20600226,27.99698117,39.27286079,22.13068586,-1.37587695,-1.33924721
-2.47699939

>  <Name>
ligand

>  <RI>
0

>  <Rbt.Current_Directory>
/home/itssahil/PROJECTS/Mol_Feturizer/New_Systems/rnas/3F2T

>  <Rbt.Executable>
rbdock ($Id: //depot/dev/client3/rdock/2013.1/src/exe/rbdock.cxx#4 $)

>  <Rbt.Library>
libRbt.so (2013.1, Build901 2013/11/27)

>  <Rbt.Parameter_File>
/export/apps/rDock/src/rDock_2013.1_src/data/scripts/dock_solv.prm

>  <Rbt.Receptor>
prm/blind_docking_60.prm

>  <SCORE>
-25.6648

>  <SCORE.INTER>
-29.1923

>  <SCORE.INTER.CONST>
1

>  <SCORE.INTER.POLAR>
0

>  <SCORE.INTER.ROT>
7

>  <SCORE.INTER.SOLV>
16.8389

>  <SCORE.INTER.VDW>
-33.3412

>  <SCORE.INTER.norm>
-0.941687

>  <SCORE.INTRA>
3.52754

>  <SCORE.INTRA.DIHEDRAL>
5.10298

>  <SCORE.INTRA.DIHEDRAL.0>
4.64198

>  <SCORE.INTRA.POLAR>
0

>  <SCORE.INTRA.POLAR.0>
0

>  <SCORE.INTRA.REPUL>
0

>  <SCORE.INTRA.REPUL.0>
0

>  <SCORE.INTRA.SOLV>
1.25057

>  <SCORE.INTRA.SOLV.lig_0>
-49.3611

>  <SCORE.INTRA.VDW>
0.350761

>  <SCORE.INTRA.VDW.0>
-1.91858

>  <SCORE.INTRA.norm>
0.113792

>  <SCORE.RESTR>
0

>  <SCORE.RESTR.CAVITY>
0

>  <SCORE.RESTR.norm>
0

>  <SCORE.SYSTEM>
0

>  <SCORE.SYSTEM.CONST>
0

>  <SCORE.SYSTEM.DIHEDRAL>
0

>  <SCORE.SYSTEM.SOLV>
0

>  <SCORE.SYSTEM.norm>
0

>  <SCORE.heavy>
31

>  <SCORE.norm>
-0.827896

>  <RMSD>
4.037

$$$$
ligand
 OpenBabel11021811473D
libRbt.so/2013.1/901 2013/11/27
 31 33  0  0  0  0  0  0  0  0999 V2000
   27.8464   35.0785   13.7268 P   0  0  1  0  0  0  0  0  0  0  0  0
   28.4576   35.5337   12.4259 O   0  0  0  0  0  0  0  0  0  0  0  0
   26.5977   34.2935   13.4243 O   0  5  0  0  0  0  0  0  0  0  0  0
   28.8876   34.2444   14.4210 O   0  0  0  0  0  0  0  0  0  0  0  0
   26.6791   36.0665   15.8556 C   0  0  0  0  0  0  0  0  0  0  0  0
   27.4431   36.2979   14.6905 O   0  0  0  0  0  0  0  0  0  0  0  0
   26.4412   37.3932   16.5722 C   0  0  1  0  0  0  0  0  0  0  0  0
   25.4024   37.2445   17.5195 O   0  0  0  0  0  0  0  0  0  0  0  0
   27.7069   37.8302   17.2904 C   0  0  1  0  0  0  0  0  0  0  0  0
   27.5351   39.1517   17.7278 O   0  0  0  0  0  0  0  0  0  0  0  0
   28.0316   36.9541   18.4885 C   0  0  1  0  0  0  0  0  0  0  0  0
   29.3246   37.2717   18.9282 O   0  0  0  0  0  0  0  0  0  0  0  0
   27.0454   37.1943   19.6196 C   0  0  0  0  0  0  0  0  0  0  0  0
   27.2574   34.4271   19.1528 N   0  0  0  0  0  0  0  0  0  0  0  0
   27.2952   33.0770   18.8800 C   0  0  0  0  0  0  0  0  0  0  0  0
   27.2229   32.6807   17.7205 O   0  0  0  0  0  0  0  0  0  0  0  0
   27.4117   32.1618   19.9013 N   0  0  0  0  0  0  0  0  0  0  0  0
   27.5035   32.5904   21.2112 C   0  0  0  0  0  0  0  0  0  0  0  0
   27.4655   33.9508   21.4962 C   0  0  1  0  0  0  0  0  0  0  0  0
   27.6266   31.7675   22.1207 O   0  0  0  0  0  0  0  0  0  0  0  0
   27.5187   35.7385   23.0838 C   0  0  2  0  0  0  0  0  0  0  0  0
   27.5549   34.3859   22.8032 N   0  0  0  0  0  0  0  0  0  0  0  0
   27.6091   36.1770   24.4053 C   0  0  0  0  0  0  0  0  0  0  0  0
   27.5685   37.5349   24.6991 C   0  0  1  0  0  0  0  0  0  0  0  0
   27.6645   37.9681   26.1278 C   0  0  0  0  0  0  0  0  0  0  0  0
   27.4411   38.4692   23.6601 C   0  0  1  0  0  0  0  0  0  0  0  0
   27.4026   39.9476   23.9345 C   0  0  0  0  0  0  0  0  0  0  0  0
   27.3495   38.0284   22.3425 C   0  0  0  0  0  0  0  0  0  0  0  0
   27.3859   36.6646   22.0466 C   0  0  1  0  0  0  0  0  0  0  0  0
   27.3377   34.8707   20.4574 C   0  0  1  0  0  0  0  0  0  0  0  0
   27.2925   36.2235   20.7351 N   0  0  0  0  0  0  0  0  0  0  0  0
  1  2  1  6  0  0  0
  1  3  1  0  0  0  0
  1  4  2  0  0  0  0
  1  6  1  0  0  0  0
  5  6  1  0  0  0  0
  7  5  1  1  0  0  0
  7  8  1  0  0  0  0
  7  9  1  0  0  0  0
  9 10  1  1  0  0  0
  9 11  1  0  0  0  0
 11 12  1  1  0  0  0
 11 13  1  0  0  0  0
 13 31  1  0  0  0  0
 14 15  1  0  0  0  0
 15 16  2  0  0  0  0
 15 17  1  0  0  0  0
 17 18  1  0  0  0  0
 18 20  2  0  0  0  0
 19 18  1  6  0  0  0
 19 22  1  0  0  0  0
 19 30  1  0  0  0  0
 21 23  1  1  0  0  0
 21 29  1  0  0  0  0
 21 22  1  0  0  0  0
 23 24  1  0  0  0  0
 24 25  1  6  0  0  0
 24 26  1  0  0  0  0
 26 27  1  6  0  0  0
 26 28  1  0  0  0  0
 29 28  1  6  0  0  0
 29 31  1  0  0  0  0
 30 14  1  6  0  0  0
 30 31  1  0  0  0  0
M  CHG  1   3  -1
M  END
>  <CHROM.1>
-179.79599723,170.45949159,164.46763411,169.38378081,169.16698912,174.12580748
131.46340732,27.48340067,35.80851311,19.11112745,1.00005830,1.55263899,-1.15883479

>  <Name>
ligand

>  <RI>
0

>  <Rbt.Current_Directory>
/home/itssahil/PROJECTS/Mol_Feturizer/New_Systems/rnas/3F2T

>  <Rbt.Executable>
rbdock ($Id: //depot/dev/client3/rdock/2013.1/src/exe/rbdock.cxx#4 $)

>  <Rbt.Library>
libRbt.so (2013.1, Build901 2013/11/27)

>  <Rbt.Parameter_File>
/export/apps/rDock/src/rDock_2013.1_src/data/scripts/dock_solv.prm

>  <Rbt.Receptor>
prm/blind_docking_60.prm

>  <SCORE>
-27.5772

>  <SCORE.INTER>
-29.0078

>  <SCORE.INTER.CONST>
1

>  <SCORE.INTER.POLAR>
0

>  <SCORE.INTER.ROT>
7

>  <SCORE.INTER.SOLV>
12.0229

>  <SCORE.INTER.VDW>
-31.6129

>  <SCORE.INTER.norm>
-0.935737

>  <SCORE.INTRA>
1.43065

>  <SCORE.INTRA.DIHEDRAL>
-1.55019

>  <SCORE.INTRA.DIHEDRAL.0>
4.64198

>  <SCORE.INTRA.POLAR>
0

>  <SCORE.INTRA.POLAR.0>
0

>  <SCORE.INTRA.REPUL>
0

>  <SCORE.INTRA.REPUL.0>
0

>  <SCORE.INTRA.SOLV>
0.271087

>  <SCORE.INTRA.SOLV.lig_0>
-49.3611

>  <SCORE.INTRA.VDW>
2.0702

>  <SCORE.INTRA.VDW.0>
-1.91858

>  <SCORE.INTRA.norm>
0.04615

>  <SCORE.RESTR>
0

>  <SCORE.RESTR.CAVITY>
0

>  <SCORE.RESTR.norm>
0

>  <SCORE.SYSTEM>
0

>  <SCORE.SYSTEM.CONST>
0

>  <SCORE.SYSTEM.DIHEDRAL>
0

>  <SCORE.SYSTEM.SOLV>
0

>  <SCORE.SYSTEM.norm>
0

>  <SCORE.heavy>
31

>  <SCORE.norm>
-0.889587

>  <RMSD>
4.046

$$$$
ligand
 OpenBabel11021811473D
libRbt.so/2013.1/901 2013/11/27
 31 33  0  0  0  0  0  0  0  0999 V2000
   31.2976   36.2319   15.2685 P   0  0  1  0  0  0  0  0  0  0  0  0
   32.1999   37.0946   14.4231 O   0  0  0  0  0  0  0  0  0  0  0  0
   29.9069   36.2800   14.6935 O   0  5  0  0  0  0  0  0  0  0  0  0
   31.8778   34.8447   15.2368 O   0  0  0  0  0  0  0  0  0  0  0  0
   30.7249   38.0021   17.1149 C   0  0  0  0  0  0  0  0  0  0  0  0
   31.2182   36.7174   16.7970 O   0  0  0  0  0  0  0  0  0  0  0  0
   30.6878   38.1647   18.6322 C   0  0  1  0  0  0  0  0  0  0  0  0
   31.9854   38.4538   19.1133 O   0  0  0  0  0  0  0  0  0  0  0  0
   29.7550   39.3030   19.0103 C   0  0  1  0  0  0  0  0  0  0  0  0
   28.7235   39.3651   18.0620 O   0  0  0  0  0  0  0  0  0  0  0  0
   29.1442   39.1248   20.3901 C   0  0  1  0  0  0  0  0  0  0  0  0
   28.9741   40.3932   20.9630 O   0  0  0  0  0  0  0  0  0  0  0  0
   27.7950   38.4311   20.3008 C   0  0  0  0  0  0  0  0  0  0  0  0
   28.0004   35.6978   19.6629 N   0  0  0  0  0  0  0  0  0  0  0  0
   28.0496   34.3718   19.2911 C   0  0  0  0  0  0  0  0  0  0  0  0
   28.2725   34.0676   18.1229 O   0  0  0  0  0  0  0  0  0  0  0  0
   27.8475   33.3784   20.2218 N   0  0  0  0  0  0  0  0  0  0  0  0
   27.6046   33.7023   21.5423 C   0  0  0  0  0  0  0  0  0  0  0  0
   27.5524   35.0376   21.9267 C   0  0  1  0  0  0  0  0  0  0  0  0
   27.4430   32.8084   22.3756 O   0  0  0  0  0  0  0  0  0  0  0  0
   27.2587   36.6962   23.6244 C   0  0  2  0  0  0  0  0  0  0  0  0
   27.3082   35.3685   23.2445 N   0  0  0  0  0  0  0  0  0  0  0  0
   27.0116   37.0293   24.9567 C   0  0  0  0  0  0  0  0  0  0  0  0
   26.9546   38.3616   25.3486 C   0  0  1  0  0  0  0  0  0  0  0  0
   26.6840   38.6811   26.7848 C   0  0  0  0  0  0  0  0  0  0  0  0
   27.1517   39.3762   24.3997 C   0  0  1  0  0  0  0  0  0  0  0  0
   27.1071   40.8296   24.7841 C   0  0  0  0  0  0  0  0  0  0  0  0
   27.3964   39.0406   23.0707 C   0  0  0  0  0  0  0  0  0  0  0  0
   27.4497   37.7028   22.6751 C   0  0  1  0  0  0  0  0  0  0  0  0
   27.7484   36.0379   20.9767 C   0  0  1  0  0  0  0  0  0  0  0  0
   27.6910   37.3666   21.3515 N   0  0  0  0  0  0  0  0  0  0  0  0
  1  2  1  6  0  0  0
  1  3  1  0  0  0  0
  1  4  2  0  0  0  0
  1  6  1  0  0  0  0
  5  6  1  0  0  0  0
  7  5  1  6  0  0  0
  7  8  1  0  0  0  0
  7  9  1  0  0  0  0
  9 10  1  6  0  0  0
  9 11  1  0  0  0  0
 11 12  1  6  0  0  0
 11 13  1  0  0  0  0
 13 31  1  0  0  0  0
 14 15  1  0  0  0  0
 15 16  2  0  0  0  0
 15 17  1  0  0  0  0
 17 18  1  0  0  0  0
 18 20  2  0  0  0  0
 19 18  1  1  0  0  0
 19 22  1  0  0  0  0
 19 30  1  0  0  0  0
 21 23  1  6  0  0  0
 21 29  1  0  0  0  0
 21 22  1  0  0  0  0
 23 24  1  0  0  0  0
 24 25  1  1  0  0  0
 24 26  1  0  0  0  0
 26 27  1  1  0  0  0
 26 28  1  0  0  0  0
 29 28  1  1  0  0  0
 29 31  1  0  0  0  0
 30 14  1  1  0  0  0
 30 31  1  0  0  0  0
M  CHG  1   3  -1
M  END
>  <CHROM.1>
176.79784701,61.15724507,79.03075360,31.78678958,146.77603434,135.41392927
76.58506605,28.86674081,36.99989788,20.08683063,-0.53102298,1.06489288,0.42521042

>  <Name>
ligand

>  <RI>
0

>  <Rbt.Current_Directory>
/home/itssahil/PROJECTS/Mol_Feturizer/New_Systems/rnas/3F2T

>  <Rbt.Executable>
rbdock ($Id: //depot/dev/client3/rdock/2013.1/src/exe/rbdock.cxx#4 $)

>  <Rbt.Library>
libRbt.so (2013.1, Build901 2013/11/27)

>  <Rbt.Parameter_File>
/export/apps/rDock/src/rDock_2013.1_src/data/scripts/dock_solv.prm

>  <Rbt.Receptor>
prm/blind_docking_80.prm

>  <SCORE>
-22.3608

>  <SCORE.INTER>
-28.2063

>  <SCORE.INTER.CONST>
1

>  <SCORE.INTER.POLAR>
0

>  <SCORE.INTER.ROT>
7

>  <SCORE.INTER.SOLV>
11.5044

>  <SCORE.INTER.VDW>
-30.9057

>  <SCORE.INTER.norm>
-0.909881

>  <SCORE.INTRA>
5.84546

>  <SCORE.INTRA.DIHEDRAL>
7.97942

>  <SCORE.INTRA.DIHEDRAL.0>
4.64198

>  <SCORE.INTRA.POLAR>
0

>  <SCORE.INTRA.POLAR.0>
0

>  <SCORE.INTRA.REPUL>
0

>  <SCORE.INTRA.REPUL.0>
0

>  <SCORE.INTRA.SOLV>
-0.943869

>  <SCORE.INTRA.SOLV.lig_0>
-49.3611

>  <SCORE.INTRA.VDW>
2.32768

>  <SCORE.INTRA.VDW.0>
-1.91858

>  <SCORE.INTRA.norm>
0.188563

>  <SCORE.RESTR>
0

>  <SCORE.RESTR.CAVITY>
0

>  <SCORE.RESTR.norm>
0

>  <SCORE.SYSTEM>
0

>  <SCORE.SYSTEM.CONST>
0

>  <SCORE.SYSTEM.DIHEDRAL>
0

>  <SCORE.SYSTEM.SOLV>
0

>  <SCORE.SYSTEM.norm>
0

>  <SCORE.heavy>
31

>  <SCORE.norm>
-0.721318

>  <RMSD>
4.093

$$$$
ligand
 OpenBabel11021811473D
libRbt.so/2013.1/901 2013/11/27
 31 33  0  0  0  0  0  0  0  0999 V2000
   32.5459   36.4489   16.7119 P   0  0  1  0  0  0  0  0  0  0  0  0
   32.9657   36.2876   15.2728 O   0  0  0  0  0  0  0  0  0  0  0  0
   31.7491   35.2385   17.1204 O   0  5  0  0  0  0  0  0  0  0  0  0
   33.8102   36.5939   17.5136 O   0  0  0  0  0  0  0  0  0  0  0  0
   31.6809   38.4320   18.1917 C   0  0  0  0  0  0  0  0  0  0  0  0
   31.6341   37.7476   16.9571 O   0  0  0  0  0  0  0  0  0  0  0  0
   30.5838   39.4930   18.2200 C   0  0  1  0  0  0  0  0  0  0  0  0
   30.6227   40.2518   17.0278 O   0  0  0  0  0  0  0  0  0  0  0  0
   29.2221   38.8295   18.3399 C   0  0  1  0  0  0  0  0  0  0  0  0
   29.0392   37.9884   17.2324 O   0  0  0  0  0  0  0  0  0  0  0  0
   29.0820   38.0074   19.6100 C   0  0  1  0  0  0  0  0  0  0  0  0
   29.3454   38.8420   20.7054 O   0  0  0  0  0  0  0  0  0  0  0  0
   27.6772   37.4419   19.7382 C   0  0  0  0  0  0  0  0  0  0  0  0
   27.8548   34.6680   19.2981 N   0  0  0  0  0  0  0  0  0  0  0  0
   27.8878   33.3178   19.0246 C   0  0  0  0  0  0  0  0  0  0  0  0
   28.0613   32.9265   17.8741 O   0  0  0  0  0  0  0  0  0  0  0  0
   27.7249   32.3972   20.0345 N   0  0  0  0  0  0  0  0  0  0  0  0
   27.5379   32.8196   21.3362 C   0  0  0  0  0  0  0  0  0  0  0  0
   27.5024   34.1799   21.6217 C   0  0  1  0  0  0  0  0  0  0  0  0
   27.4113   31.9909   22.2400 O   0  0  0  0  0  0  0  0  0  0  0  0
   27.2809   35.9616   23.2017 C   0  0  2  0  0  0  0  0  0  0  0  0
   27.3140   34.6091   22.9202 N   0  0  0  0  0  0  0  0  0  0  0  0
   27.0903   36.3940   24.5145 C   0  0  0  0  0  0  0  0  0  0  0  0
   27.0503   37.7520   24.8079 C   0  0  1  0  0  0  0  0  0  0  0  0
   26.8406   38.1787   26.2263 C   0  0  0  0  0  0  0  0  0  0  0  0
   27.2075   38.6923   23.7784 C   0  0  1  0  0  0  0  0  0  0  0  0
   27.1796   40.1705   24.0548 C   0  0  0  0  0  0  0  0  0  0  0  0
   27.3959   38.2577   22.4691 C   0  0  0  0  0  0  0  0  0  0  0  0
   27.4321   36.8940   22.1726 C   0  0  1  0  0  0  0  0  0  0  0  0
   27.6584   35.1059   20.5922 C   0  0  1  0  0  0  0  0  0  0  0  0
   27.6173   36.4591   20.8688 N   0  0  0  0  0  0  0  0  0  0  0  0
  1  2  1  6  0  0  0
  1  3  1  0  0  0  0
  1  4  2  0  0  0  0
  1  6  1  0  0  0  0
  5  6  1  0  0  0  0
  7  5  1  6  0  0  0
  7  8  1  0  0  0  0
  7  9  1  0  0  0  0
  9 10  1  6  0  0  0
  9 11  1  0  0  0  0
 11 12  1  1  0  0  0
 11 13  1  0  0  0  0
 13 31  1  0  0  0  0
 14 15  1  0  0  0  0
 15 16  2  0  0  0  0
 15 17  1  0  0  0  0
 17 18  1  0  0  0  0
 18 20  2  0  0  0  0
 19 18  1  1  0  0  0
 19 22  1  0  0  0  0
 19 30  1  0  0  0  0
 21 23  1  6  0  0  0
 21 29  1  0  0  0  0
 21 22  1  0  0  0  0
 23 24  1  0  0  0  0
 24 25  1  1  0  0  0
 24 26  1  0  0  0  0
 26 27  1  1  0  0  0
 26 28  1  0  0  0  0
 29 28  1  1  0  0  0
 29 31  1  0  0  0  0
 30 14  1  1  0  0  0
 30 31  1  0  0  0  0
M  CHG  1   3  -1
M  END
>  <CHROM.1>
-172.09215920,-148.83083421,-48.64407088,-59.98171050,56.21557060,170.84591056
83.66615635,29.09661429,36.54505228,20.02483476,0.19878725,-0.93766705,-2.79557652

>  <Name>
ligand

>  <RI>
0

>  <Rbt.Current_Directory>
/home/itssahil/PROJECTS/Mol_Feturizer/New_Systems/rnas/3F2T

>  <Rbt.Executable>
rbdock ($Id: //depot/dev/client3/rdock/2013.1/src/exe/rbdock.cxx#4 $)

>  <Rbt.Library>
libRbt.so (2013.1, Build901 2013/11/27)

>  <Rbt.Parameter_File>
/export/apps/rDock/src/rDock_2013.1_src/data/scripts/dock_solv.prm

>  <Rbt.Receptor>
prm/blind_docking_100.prm

>  <SCORE>
-30.2787

>  <SCORE.INTER>
-31.1692

>  <SCORE.INTER.CONST>
1

>  <SCORE.INTER.POLAR>
0

>  <SCORE.INTER.ROT>
7

>  <SCORE.INTER.SOLV>
17.7612

>  <SCORE.INTER.VDW>
-34.9665

>  <SCORE.INTER.norm>
-1.00546

>  <SCORE.INTRA>
0.890502

>  <SCORE.INTRA.DIHEDRAL>
-0.984111

>  <SCORE.INTRA.DIHEDRAL.0>
4.64198

>  <SCORE.INTRA.POLAR>
0

>  <SCORE.INTRA.POLAR.0>
0

>  <SCORE.INTRA.REPUL>
0

>  <SCORE.INTRA.REPUL.0>
0

>  <SCORE.INTRA.SOLV>
0.939592

>  <SCORE.INTRA.SOLV.lig_0>
-49.3611

>  <SCORE.INTRA.VDW>
0.912762

>  <SCORE.INTRA.VDW.0>
-1.91858

>  <SCORE.INTRA.norm>
0.0287259

>  <SCORE.RESTR>
0

>  <SCORE.RESTR.CAVITY>
0

>  <SCORE.RESTR.norm>
0

>  <SCORE.SYSTEM>
0

>  <SCORE.SYSTEM.CONST>
0

>  <SCORE.SYSTEM.DIHEDRAL>
0

>  <SCORE.SYSTEM.SOLV>
0

>  <SCORE.SYSTEM.norm>
0

>  <SCORE.heavy>
31

>  <SCORE.norm>
-0.976732

>  <RMSD>
4.130

$$$$
ligand
 OpenBabel11021811473D
libRbt.so/2013.1/901 2013/11/27
 31 33  0  0  0  0  0  0  0  0999 V2000
   27.6116   34.9829   13.4857 P   0  0  1  0  0  0  0  0  0  0  0  0
   26.7268   36.1675   13.1904 O   0  0  0  0  0  0  0  0  0  0  0  0
   26.7402   33.7818   13.7404 O   0  5  0  0  0  0  0  0  0  0  0  0
   28.4963   34.7983   12.2834 O   0  0  0  0  0  0  0  0  0  0  0  0
   29.4215   36.3051   14.8446 C   0  0  0  0  0  0  0  0  0  0  0  0
   28.5423   35.2018   14.7757 O   0  0  0  0  0  0  0  0  0  0  0  0
   29.9633   36.4276   16.2665 C   0  0  1  0  0  0  0  0  0  0  0  0
   31.0650   37.3135   16.2828 O   0  0  0  0  0  0  0  0  0  0  0  0
   28.8828   36.9649   17.1898 C   0  0  1  0  0  0  0  0  0  0  0  0
   27.7173   36.2089   16.9962 O   0  0  0  0  0  0  0  0  0  0  0  0
   29.2773   36.8933   18.6554 C   0  0  1  0  0  0  0  0  0  0  0  0
   30.3566   37.7638   18.8634 O   0  0  0  0  0  0  0  0  0  0  0  0
   28.1207   37.3078   19.5498 C   0  0  0  0  0  0  0  0  0  0  0  0
   28.1811   34.5381   19.0549 N   0  0  0  0  0  0  0  0  0  0  0  0
   28.1612   33.1941   18.7514 C   0  0  0  0  0  0  0  0  0  0  0  0
   28.3903   32.8180   17.6056 O   0  0  0  0  0  0  0  0  0  0  0  0
   27.8830   32.2629   19.7258 N   0  0  0  0  0  0  0  0  0  0  0  0
   27.6319   32.6677   21.0224 C   0  0  0  0  0  0  0  0  0  0  0  0
   27.6490   34.0217   21.3378 C   0  0  1  0  0  0  0  0  0  0  0  0
   27.4018   31.8284   21.8955 O   0  0  0  0  0  0  0  0  0  0  0  0
   27.4165   35.7795   22.9427 C   0  0  2  0  0  0  0  0  0  0  0  0
   27.3972   34.4334   22.6312 N   0  0  0  0  0  0  0  0  0  0  0  0
   27.1617   36.1942   24.2504 C   0  0  0  0  0  0  0  0  0  0  0  0
   27.1736   37.5461   24.5734 C   0  0  1  0  0  0  0  0  0  0  0  0
   26.8923   37.9539   25.9850 C   0  0  0  0  0  0  0  0  0  0  0  0
   27.4485   38.4976   23.5796 C   0  0  1  0  0  0  0  0  0  0  0  0
   27.4800   39.9692   23.8894 C   0  0  0  0  0  0  0  0  0  0  0  0
   27.7008   38.0808   22.2753 C   0  0  0  0  0  0  0  0  0  0  0  0
   27.6850   36.7235   21.9488 C   0  0  1  0  0  0  0  0  0  0  0  0
   27.9220   34.9591   20.3437 C   0  0  1  0  0  0  0  0  0  0  0  0
   27.9338   36.3065   20.6498 N   0  0  0  0  0  0  0  0  0  0  0  0
  1  2  1  6  0  0  0
  1  3  1  0  0  0  0
  1  4  2  0  0  0  0
  1  6  1  0  0  0  0
  5  6  1  0  0  0  0
  7  5  1  6  0  0  0
  7  8  1  0  0  0  0
  7  9  1  0  0  0  0
  9 10  1  1  0  0  0
  9 11  1  0  0  0  0
 11 12  1  6  0  0  0
 11 13  1  0  0  0  0
 13 31  1  0  0  0  0
 14 15  1  0  0  0  0
 15 16  2  0  0  0  0
 15 17  1  0  0  0  0
 17 18  1  0  0  0  0
 18 20  2  0  0  0  0
 19 18  1  1  0  0  0
 19 22  1  0  0  0  0
 19 30  1  0  0  0  0
 21 23  1  6  0  0  0
 21 29  1  0  0  0  0
 21 22  1  0  0  0  0
 23 24  1  0  0  0  0
 24 25  1  1  0  0  0
 24 26  1  0  0  0  0
 26 27  1  1  0  0  0
 26 28  1  0  0  0  0
 29 28  1  1  0  0  0
 29 31  1  0  0  0  0
 30 14  1  1  0  0  0
 30 31  1  0  0  0  0
M  CHG  1   3  -1
M  END
>  <CHROM.1>
168.65173995,-56.63685170,166.40965473,49.83081945,65.85990467,131.74058945
137.35915507,28.08183000,35.69109611,18.87776304,1.22045394,-1.33462604,-2.07980453

>  <Name>
ligand

>  <RI>
0

>  <Rbt.Current_Directory>
/home/itssahil/PROJECTS/Mol_Feturizer/New_Systems/rnas/3F2T

>  <Rbt.Executable>
rbdock ($Id: //depot/dev/client3/rdock/2013.1/src/exe/rbdock.cxx#4 $)

>  <Rbt.Library>
libRbt.so (2013.1, Build901 2013/11/27)

>  <Rbt.Parameter_File>
/export/apps/rDock/src/rDock_2013.1_src/data/scripts/dock_solv.prm

>  <Rbt.Receptor>
prm/pocket_docking_8.prm

>  <SCORE>
-27.242

>  <SCORE.INTER>
-30.6188

>  <SCORE.INTER.CONST>
1

>  <SCORE.INTER.POLAR>
0

>  <SCORE.INTER.ROT>
7

>  <SCORE.INTER.SOLV>
11.8265

>  <SCORE.INTER.VDW>
-32.6214

>  <SCORE.INTER.norm>
-0.987705

>  <SCORE.INTRA>
3.3726

>  <SCORE.INTRA.DIHEDRAL>
3.02536

>  <SCORE.INTRA.DIHEDRAL.0>
4.64198

>  <SCORE.INTRA.POLAR>
0

>  <SCORE.INTRA.POLAR.0>
0

>  <SCORE.INTRA.REPUL>
0.0432509

>  <SCORE.INTRA.REPUL.0>
0

>  <SCORE.INTRA.SOLV>
0.521099

>  <SCORE.INTRA.SOLV.lig_0>
-49.3611

>  <SCORE.INTRA.VDW>
1.38312

>  <SCORE.INTRA.VDW.0>
-1.91858

>  <SCORE.INTRA.norm>
0.108794

>  <SCORE.RESTR>
0.00424293

>  <SCORE.RESTR.CAVITY>
0.00424293

>  <SCORE.RESTR.norm>
0.000136869

>  <SCORE.SYSTEM>
0

>  <SCORE.SYSTEM.CONST>
0

>  <SCORE.SYSTEM.DIHEDRAL>
0

>  <SCORE.SYSTEM.SOLV>
0

>  <SCORE.SYSTEM.norm>
0

>  <SCORE.heavy>
31

>  <SCORE.norm>
-0.878774

>  <RMSD>
4.224

$$$$
ligand
 OpenBabel11021811473D
libRbt.so/2013.1/901 2013/11/27
 31 33  0  0  0  0  0  0  0  0999 V2000
   27.2198   35.5687   14.4048 P   0  0  1  0  0  0  0  0  0  0  0  0
   26.4458   36.4696   13.4762 O   0  0  0  0  0  0  0  0  0  0  0  0
   26.2697   34.5708   15.0117 O   0  5  0  0  0  0  0  0  0  0  0  0
   28.2833   34.9069   13.5723 O   0  0  0  0  0  0  0  0  0  0  0  0
   27.1618   37.1099   16.5241 C   0  0  0  0  0  0  0  0  0  0  0  0
   27.9318   36.3662   15.6028 O   0  0  0  0  0  0  0  0  0  0  0  0
   28.0952   37.8194   17.5017 C   0  0  1  0  0  0  0  0  0  0  0  0
   28.9983   38.6408   16.7886 O   0  0  0  0  0  0  0  0  0  0  0  0
   27.2886   38.6835   18.4564 C   0  0  1  0  0  0  0  0  0  0  0  0
   26.5427   37.8417   19.2944 O   0  0  0  0  0  0  0  0  0  0  0  0
   28.1643   39.5810   19.3146 C   0  0  1  0  0  0  0  0  0  0  0  0
   27.3385   40.2739   20.2112 O   0  0  0  0  0  0  0  0  0  0  0  0
   29.1773   38.7625   20.0978 C   0  0  0  0  0  0  0  0  0  0  0  0
   28.2388   36.1385   20.4897 N   0  0  0  0  0  0  0  0  0  0  0  0
   27.7406   34.8596   20.6123 C   0  0  0  0  0  0  0  0  0  0  0  0
   27.8663   34.0586   19.6906 O   0  0  0  0  0  0  0  0  0  0  0  0
   27.0971   34.4690   21.7644 N   0  0  0  0  0  0  0  0  0  0  0  0
   26.9548   35.3544   22.8151 C   0  0  0  0  0  0  0  0  0  0  0  0
   27.4537   36.6471   22.7002 C   0  0  1  0  0  0  0  0  0  0  0  0
   26.3942   34.9938   23.8521 O   0  0  0  0  0  0  0  0  0  0  0  0
   27.8116   38.8214   23.6298 C   0  0  2  0  0  0  0  0  0  0  0  0
   27.3133   37.5377   23.7456 N   0  0  0  0  0  0  0  0  0  0  0  0
   27.6689   39.7205   24.6872 C   0  0  0  0  0  0  0  0  0  0  0  0
   28.1618   41.0156   24.5792 C   0  0  1  0  0  0  0  0  0  0  0  0
   27.9875   41.9533   25.7317 C   0  0  0  0  0  0  0  0  0  0  0  0
   28.8106   41.4185   23.4021 C   0  0  1  0  0  0  0  0  0  0  0  0
   29.3662   42.8077   23.2484 C   0  0  0  0  0  0  0  0  0  0  0  0
   28.9499   40.5194   22.3481 C   0  0  0  0  0  0  0  0  0  0  0  0
   28.4516   39.2196   22.4538 C   0  0  1  0  0  0  0  0  0  0  0  0
   28.0954   37.0380   21.5268 C   0  0  1  0  0  0  0  0  0  0  0  0
   28.5873   38.3235   21.4042 N   0  0  0  0  0  0  0  0  0  0  0  0
  1  2  1  6  0  0  0
  1  3  1  0  0  0  0
  1  4  2  0  0  0  0
  1  6  1  0  0  0  0
  5  6  1  0  0  0  0
  7  5  1  6  0  0  0
  7  8  1  0  0  0  0
  7  9  1  0  0  0  0
  9 10  1  1  0  0  0
  9 11  1  0  0  0  0
 11 12  1  1  0  0  0
 11 13  1  0  0  0  0
 13 31  1  0  0  0  0
 14 15  1  0  0  0  0
 15 16  2  0  0  0  0
 15 17  1  0  0  0  0
 17 18  1  0  0  0  0
 18 20  2  0  0  0  0
 19 18  1  1  0  0  0
 19 22  1  0  0  0  0
 19 30  1  0  0  0  0
 21 23  1  6  0  0  0
 21 29  1  0  0  0  0
 21 22  1  0  0  0  0
 23 24  1  0  0  0  0
 24 25  1  1  0  0  0
 24 26  1  0  0  0  0
 26 27  1  1  0  0  0
 26 28  1  0  0  0  0
 29 28  1  1  0  0  0
 29 31  1  0  0  0  0
 30 14  1  1  0  0  0
 30 31  1  0  0  0  0
M  CHG  1   3  -1
M  END
>  <CHROM.1>
-176.99434572,60.52976309,57.12755721,68.28753527,-176.49810656,-87.99964438
-75.78030090,27.75615476,37.63786016,19.87029678,-1.93478252,1.34466224,1.48858716

>  <Name>
ligand

>  <RI>
0

>  <Rbt.Current_Directory>
/home/itssahil/PROJECTS/Mol_Feturizer/New_Systems/rnas/3F2T

>  <Rbt.Executable>
rbdock ($Id: //depot/dev/client3/rdock/2013.1/src/exe/rbdock.cxx#4 $)

>  <Rbt.Library>
libRbt.so (2013.1, Build901 2013/11/27)

>  <Rbt.Parameter_File>
/export/apps/rDock/src/rDock_2013.1_src/data/scripts/dock_solv.prm

>  <Rbt.Receptor>
prm/pocket_docking_8.prm

>  <SCORE>
-26.0405

>  <SCORE.INTER>
-25.9666

>  <SCORE.INTER.CONST>
1

>  <SCORE.INTER.POLAR>
0

>  <SCORE.INTER.ROT>
7

>  <SCORE.INTER.SOLV>
10.7868

>  <SCORE.INTER.VDW>
-29.1734

>  <SCORE.INTER.norm>
-0.837632

>  <SCORE.INTRA>
-0.0739393

>  <SCORE.INTRA.DIHEDRAL>
-0.821129

>  <SCORE.INTRA.DIHEDRAL.0>
4.64198

>  <SCORE.INTRA.POLAR>
0

>  <SCORE.INTRA.POLAR.0>
0

>  <SCORE.INTRA.REPUL>
0

>  <SCORE.INTRA.REPUL.0>
0

>  <SCORE.INTRA.SOLV>
0.0517858

>  <SCORE.INTRA.SOLV.lig_0>
-49.3611

>  <SCORE.INTRA.VDW>
0.310733

>  <SCORE.INTRA.VDW.0>
-1.91858

>  <SCORE.INTRA.norm>
-0.00238514

>  <SCORE.RESTR>
0

>  <SCORE.RESTR.CAVITY>
0

>  <SCORE.RESTR.norm>
0

>  <SCORE.SYSTEM>
0

>  <SCORE.SYSTEM.CONST>
0

>  <SCORE.SYSTEM.DIHEDRAL>
0

>  <SCORE.SYSTEM.SOLV>
0

>  <SCORE.SYSTEM.norm>
0

>  <SCORE.heavy>
31

>  <SCORE.norm>
-0.840018

>  <RMSD>
4.322

$$$$
ligand
 OpenBabel11021811473D
libRbt.so/2013.1/901 2013/11/27
 31 33  0  0  0  0  0  0  0  0999 V2000
   31.7526   35.3333   16.0767 P   0  0  1  0  0  0  0  0  0  0  0  0
   30.9126   34.1584   16.5095 O   0  0  0  0  0  0  0  0  0  0  0  0
   33.1218   34.8340   15.6987 O   0  5  0  0  0  0  0  0  0  0  0  0
   31.0378   35.9664   14.9147 O   0  0  0  0  0  0  0  0  0  0  0  0
   30.8032   37.1084   17.7554 C   0  0  0  0  0  0  0  0  0  0  0  0
   31.9290   36.4364   17.2301 O   0  0  0  0  0  0  0  0  0  0  0  0
   31.2732   38.2736   18.6225 C   0  0  1  0  0  0  0  0  0  0  0  0
   32.2550   39.0185   17.9298 O   0  0  0  0  0  0  0  0  0  0  0  0
   30.1012   39.1837   18.9497 C   0  0  1  0  0  0  0  0  0  0  0  0
   29.2807   39.2757   17.8159 O   0  0  0  0  0  0  0  0  0  0  0  0
   29.2723   38.6731   20.1163 C   0  0  1  0  0  0  0  0  0  0  0  0
   28.6358   39.7689   20.7164 O   0  0  0  0  0  0  0  0  0  0  0  0
   28.2220   37.6820   19.6431 C   0  0  0  0  0  0  0  0  0  0  0  0
   28.3354   34.9455   18.9961 N   0  0  0  0  0  0  0  0  0  0  0  0
   28.3434   33.6206   18.6173 C   0  0  0  0  0  0  0  0  0  0  0  0
   28.6151   33.3124   17.4606 O   0  0  0  0  0  0  0  0  0  0  0  0
   28.0456   32.6328   19.5281 N   0  0  0  0  0  0  0  0  0  0  0  0
   27.7466   32.9608   20.8361 C   0  0  0  0  0  0  0  0  0  0  0  0
   27.7353   34.2950   21.2273 C   0  0  1  0  0  0  0  0  0  0  0  0
   27.4990   32.0711   21.6525 O   0  0  0  0  0  0  0  0  0  0  0  0
   27.4268   35.9567   22.9195 C   0  0  2  0  0  0  0  0  0  0  0  0
   27.4355   34.6301   22.5325 N   0  0  0  0  0  0  0  0  0  0  0  0
   27.1234   36.2940   24.2390 C   0  0  0  0  0  0  0  0  0  0  0  0
   27.1068   37.6255   24.6374 C   0  0  1  0  0  0  0  0  0  0  0  0
   26.7737   37.9498   26.0594 C   0  0  0  0  0  0  0  0  0  0  0  0
   27.4016   38.6347   23.7084 C   0  0  1  0  0  0  0  0  0  0  0  0
   27.4034   40.0866   24.1010 C   0  0  0  0  0  0  0  0  0  0  0  0
   27.7023   38.2950   22.3920 C   0  0  0  0  0  0  0  0  0  0  0  0
   27.7152   36.9583   21.9895 C   0  0  1  0  0  0  0  0  0  0  0  0
   28.0284   35.2901   20.2970 C   0  0  1  0  0  0  0  0  0  0  0  0
   28.0122   36.6181   20.6783 N   0  0  0  0  0  0  0  0  0  0  0  0
  1  2  1  1  0  0  0
  1  3  1  0  0  0  0
  1  4  2  0  0  0  0
  1  6  1  0  0  0  0
  5  6  1  0  0  0  0
  7  5  1  6  0  0  0
  7  8  1  0  0  0  0
  7  9  1  0  0  0  0
  9 10  1  6  0  0  0
  9 11  1  0  0  0  0
 11 12  1  6  0  0  0
 11 13  1  0  0  0  0
 13 31  1  0  0  0  0
 14 15  1  0  0  0  0
 15 16  2  0  0  0  0
 15 17  1  0  0  0  0
 17 18  1  0  0  0  0
 18 20  2  0  0  0  0
 19 18  1  1  0  0  0
 19 22  1  0  0  0  0
 19 30  1  0  0  0  0
 21 23  1  6  0  0  0
 21 29  1  0  0  0  0
 21 22  1  0  0  0  0
 23 24  1  0  0  0  0
 24 25  1  1  0  0  0
 24 26  1  0  0  0  0
 26 27  1  1  0  0  0
 26 28  1  0  0  0  0
 29 28  1  1  0  0  0
 29 31  1  0  0  0  0
 30 14  1  1  0  0  0
 30 31  1  0  0  0  0
M  CHG  1   3  -1
M  END
>  <CHROM.1>
-169.09642586,-61.58849525,47.87513941,-38.51911456,154.29638789,145.41527290
53.41550475,29.14188550,36.34634481,19.81798347,-0.52855801,0.97212935,0.38563671

>  <Name>
ligand

>  <RI>
0

>  <Rbt.Current_Directory>
/home/itssahil/PROJECTS/Mol_Feturizer/New_Systems/rnas/3F2T

>  <Rbt.Executable>
rbdock ($Id: //depot/dev/client3/rdock/2013.1/src/exe/rbdock.cxx#4 $)

>  <Rbt.Library>
libRbt.so (2013.1, Build901 2013/11/27)

>  <Rbt.Parameter_File>
/export/apps/rDock/src/rDock_2013.1_src/data/scripts/dock_solv.prm

>  <Rbt.Receptor>
prm/blind_docking_60.prm

>  <SCORE>
-23.1861

>  <SCORE.INTER>
-30.1176

>  <SCORE.INTER.CONST>
1

>  <SCORE.INTER.POLAR>
0

>  <SCORE.INTER.ROT>
7

>  <SCORE.INTER.SOLV>
12.4007

>  <SCORE.INTER.VDW>
-32.4786

>  <SCORE.INTER.norm>
-0.971535

>  <SCORE.INTRA>
6.93147

>  <SCORE.INTRA.DIHEDRAL>
4.4919

>  <SCORE.INTRA.DIHEDRAL.0>
4.64198

>  <SCORE.INTRA.POLAR>
0

>  <SCORE.INTRA.POLAR.0>
0

>  <SCORE.INTRA.REPUL>
0

>  <SCORE.INTRA.REPUL.0>
0

>  <SCORE.INTRA.SOLV>
-0.0514464

>  <SCORE.INTRA.SOLV.lig_0>
-49.3611

>  <SCORE.INTRA.VDW>
4.71125

>  <SCORE.INTRA.VDW.0>
-1.91858

>  <SCORE.INTRA.norm>
0.223596

>  <SCORE.RESTR>
0

>  <SCORE.RESTR.CAVITY>
0

>  <SCORE.RESTR.norm>
0

>  <SCORE.SYSTEM>
0

>  <SCORE.SYSTEM.CONST>
0

>  <SCORE.SYSTEM.DIHEDRAL>
0

>  <SCORE.SYSTEM.SOLV>
0

>  <SCORE.SYSTEM.norm>
0

>  <SCORE.heavy>
31

>  <SCORE.norm>
-0.747939

>  <RMSD>
4.356

$$$$
ligand
 OpenBabel11021811473D
libRbt.so/2013.1/901 2013/11/27
 31 33  0  0  0  0  0  0  0  0999 V2000
   32.7482   35.8524   16.4081 P   0  0  1  0  0  0  0  0  0  0  0  0
   33.4089   35.7585   15.0561 O   0  0  0  0  0  0  0  0  0  0  0  0
   32.2130   34.4948   16.7786 O   0  5  0  0  0  0  0  0  0  0  0  0
   33.8030   36.3288   17.3686 O   0  0  0  0  0  0  0  0  0  0  0  0
   31.1272   37.4955   17.6503 C   0  0  0  0  0  0  0  0  0  0  0  0
   31.5245   36.8917   16.4369 O   0  0  0  0  0  0  0  0  0  0  0  0
   29.8853   38.3482   17.4041 C   0  0  1  0  0  0  0  0  0  0  0  0
   28.7859   37.5134   17.0986 O   0  0  0  0  0  0  0  0  0  0  0  0
   29.5589   39.1618   18.6452 C   0  0  1  0  0  0  0  0  0  0  0  0
   28.4038   39.9156   18.3906 O   0  0  0  0  0  0  0  0  0  0  0  0
   29.3189   38.2923   19.8679 C   0  0  1  0  0  0  0  0  0  0  0  0
   29.4683   39.0902   21.0112 O   0  0  0  0  0  0  0  0  0  0  0  0
   27.9181   37.7032   19.8485 C   0  0  0  0  0  0  0  0  0  0  0  0
   28.0847   34.9528   19.2763 N   0  0  0  0  0  0  0  0  0  0  0  0
   28.1159   33.6180   18.9356 C   0  0  0  0  0  0  0  0  0  0  0  0
   28.3511   33.2831   17.7783 O   0  0  0  0  0  0  0  0  0  0  0  0
   27.8823   32.6499   19.8854 N   0  0  0  0  0  0  0  0  0  0  0  0
   27.6251   33.0084   21.1943 C   0  0  0  0  0  0  0  0  0  0  0  0
   27.5908   34.3528   21.5473 C   0  0  1  0  0  0  0  0  0  0  0  0
   27.4351   32.1369   22.0451 O   0  0  0  0  0  0  0  0  0  0  0  0
   27.3008   36.0550   23.2020 C   0  0  2  0  0  0  0  0  0  0  0  0
   27.3326   34.7183   22.8533 N   0  0  0  0  0  0  0  0  0  0  0  0
   27.0396   36.4230   24.5223 C   0  0  0  0  0  0  0  0  0  0  0  0
   27.0002   37.7648   24.8828 C   0  0  1  0  0  0  0  0  0  0  0  0
   26.7136   38.1220   26.3070 C   0  0  0  0  0  0  0  0  0  0  0  0
   27.2296   38.7536   23.9142 C   0  0  1  0  0  0  0  0  0  0  0  0
   27.2050   40.2161   24.2647 C   0  0  0  0  0  0  0  0  0  0  0  0
   27.4884   38.3833   22.5972 C   0  0  0  0  0  0  0  0  0  0  0  0
   27.5240   37.0361   22.2331 C   0  0  1  0  0  0  0  0  0  0  0  0
   27.8188   35.3274   20.5779 C   0  0  1  0  0  0  0  0  0  0  0  0
   27.7794   36.6653   20.9214 N   0  0  0  0  0  0  0  0  0  0  0  0
  1  2  1  6  0  0  0
  1  3  1  0  0  0  0
  1  4  2  0  0  0  0
  1  6  1  0  0  0  0
  5  6  1  0  0  0  0
  7  5  1  1  0  0  0
  7  8  1  0  0  0  0
  7  9  1  0  0  0  0
  9 10  1  6  0  0  0
  9 11  1  0  0  0  0
 11 12  1  1  0  0  0
 11 13  1  0  0  0  0
 13 31  1  0  0  0  0
 14 15  1  0  0  0  0
 15 16  2  0  0  0  0
 15 17  1  0  0  0  0
 17 18  1  0  0  0  0
 18 20  2  0  0  0  0
 19 18  1  1  0  0  0
 19 22  1  0  0  0  0
 19 30  1  0  0  0  0
 21 23  1  6  0  0  0
 21 29  1  0  0  0  0
 21 22  1  0  0  0  0
 23 24  1  0  0  0  0
 24 25  1  1  0  0  0
 24 26  1  0  0  0  0
 26 27  1  1  0  0  0
 26 28  1  0  0  0  0
 29 28  1  1  0  0  0
 29 31  1  0  0  0  0
 30 14  1  1  0  0  0
 30 31  1  0  0  0  0
M  CHG  1   3  -1
M  END
>  <CHROM.1>
-175.77046610,-155.53590526,68.17530638,-179.11088490,160.68518960,170.03411733
81.37083006,29.08554611,36.44217113,19.99006429,-0.32032038,0.94796827,0.24233806

>  <Name>
ligand

>  <RI>
0

>  <Rbt.Current_Directory>
/home/itssahil/PROJECTS/Mol_Feturizer/New_Systems/rnas/3F2T

>  <Rbt.Executable>
rbdock ($Id: //depot/dev/client3/rdock/2013.1/src/exe/rbdock.cxx#4 $)

>  <Rbt.Library>
libRbt.so (2013.1, Build901 2013/11/27)

>  <Rbt.Parameter_File>
/export/apps/rDock/src/rDock_2013.1_src/data/scripts/dock_solv.prm

>  <Rbt.Receptor>
prm/blind_docking_100.prm

>  <SCORE>
-27.4137

>  <SCORE.INTER>
-28.8264

>  <SCORE.INTER.CONST>
1

>  <SCORE.INTER.POLAR>
0

>  <SCORE.INTER.ROT>
7

>  <SCORE.INTER.SOLV>
16.5031

>  <SCORE.INTER.VDW>
-32.9853

>  <SCORE.INTER.norm>
-0.929882

>  <SCORE.INTRA>
1.41269

>  <SCORE.INTRA.DIHEDRAL>
-0.563526

>  <SCORE.INTRA.DIHEDRAL.0>
4.64198

>  <SCORE.INTRA.POLAR>
0

>  <SCORE.INTRA.POLAR.0>
0

>  <SCORE.INTRA.REPUL>
0

>  <SCORE.INTRA.REPUL.0>
0

>  <SCORE.INTRA.SOLV>
0.249652

>  <SCORE.INTRA.SOLV.lig_0>
-49.3611

>  <SCORE.INTRA.VDW>
1.56962

>  <SCORE.INTRA.VDW.0>
-1.91858

>  <SCORE.INTRA.norm>
0.0455706

>  <SCORE.RESTR>
0

>  <SCORE.RESTR.CAVITY>
0

>  <SCORE.RESTR.norm>
0

>  <SCORE.SYSTEM>
0

>  <SCORE.SYSTEM.CONST>
0

>  <SCORE.SYSTEM.DIHEDRAL>
0

>  <SCORE.SYSTEM.SOLV>
0

>  <SCORE.SYSTEM.norm>
0

>  <SCORE.heavy>
31

>  <SCORE.norm>
-0.884312

>  <RMSD>
4.384

$$$$
ligand
 OpenBabel11021811473D
libRbt.so/2013.1/901 2013/11/27
 31 33  0  0  0  0  0  0  0  0999 V2000
   31.1691   36.6500   16.0340 P   0  0  1  0  0  0  0  0  0  0  0  0
   30.6285   35.6278   17.0014 O   0  0  0  0  0  0  0  0  0  0  0  0
   32.6326   36.3758   15.8104 O   0  5  0  0  0  0  0  0  0  0  0  0
   30.3655   36.5113   14.7702 O   0  0  0  0  0  0  0  0  0  0  0  0
   29.7566   38.6731   16.9185 C   0  0  0  0  0  0  0  0  0  0  0  0
   31.0239   38.1571   16.5685 O   0  0  0  0  0  0  0  0  0  0  0  0
   29.9372   40.0190   17.6158 C   0  0  1  0  0  0  0  0  0  0  0  0
   30.3605   40.9892   16.6785 O   0  0  0  0  0  0  0  0  0  0  0  0
   28.6219   40.4663   18.2310 C   0  0  1  0  0  0  0  0  0  0  0  0
   27.6636   40.5589   17.2111 O   0  0  0  0  0  0  0  0  0  0  0  0
   28.1169   39.5054   19.2942 C   0  0  1  0  0  0  0  0  0  0  0  0
   27.6117   38.3656   18.6526 O   0  0  0  0  0  0  0  0  0  0  0  0
   29.2399   39.0950   20.2323 C   0  0  0  0  0  0  0  0  0  0  0  0
   28.3361   36.4516   20.5725 N   0  0  0  0  0  0  0  0  0  0  0  0
   27.8537   35.1646   20.6706 C   0  0  0  0  0  0  0  0  0  0  0  0
   27.9738   34.3883   19.7273 O   0  0  0  0  0  0  0  0  0  0  0  0
   27.2324   34.7383   21.8222 N   0  0  0  0  0  0  0  0  0  0  0  0
   27.0968   35.5955   22.8968 C   0  0  0  0  0  0  0  0  0  0  0  0
   27.5798   36.8963   22.8067 C   0  0  1  0  0  0  0  0  0  0  0  0
   26.5563   35.2030   23.9328 O   0  0  0  0  0  0  0  0  0  0  0  0
   27.9284   39.0506   23.7850 C   0  0  2  0  0  0  0  0  0  0  0  0
   27.4460   37.7589   23.8762 N   0  0  0  0  0  0  0  0  0  0  0  0
   27.7924   39.9214   24.8666 C   0  0  0  0  0  0  0  0  0  0  0  0
   28.2695   41.2243   24.7837 C   0  0  1  0  0  0  0  0  0  0  0  0
   28.1029   42.1309   25.9619 C   0  0  0  0  0  0  0  0  0  0  0  0
   28.8956   41.6636   23.6074 C   0  0  1  0  0  0  0  0  0  0  0  0
   29.4336   43.0624   23.4801 C   0  0  0  0  0  0  0  0  0  0  0  0
   29.0283   40.7927   22.5291 C   0  0  0  0  0  0  0  0  0  0  0  0
   28.5458   39.4852   22.6098 C   0  0  1  0  0  0  0  0  0  0  0  0
   28.1990   37.3234   21.6339 C   0  0  1  0  0  0  0  0  0  0  0  0
   28.6750   38.6169   21.5361 N   0  0  0  0  0  0  0  0  0  0  0  0
  1  2  1  1  0  0  0
  1  3  1  0  0  0  0
  1  4  2  0  0  0  0
  1  6  1  0  0  0  0
  5  6  1  0  0  0  0
  7  5  1  6  0  0  0
  7  8  1  0  0  0  0
  7  9  1  0  0  0  0
  9 10  1  6  0  0  0
  9 11  1  0  0  0  0
 11 12  1  6  0  0  0
 11 13  1  0  0  0  0
 13 31  1  0  0  0  0
 14 15  1  0  0  0  0
 15 16  2  0  0  0  0
 15 17  1  0  0  0  0
 17 18  1  0  0  0  0
 18 20  2  0  0  0  0
 19 18  1  1  0  0  0
 19 22  1  0  0  0  0
 19 30  1  0  0  0  0
 21 23  1  6  0  0  0
 21 29  1  0  0  0  0
 21 22  1  0  0  0  0
 23 24  1  0  0  0  0
 24 25  1  1  0  0  0
 24 26  1  0  0  0  0
 26 27  1  1  0  0  0
 26 28  1  0  0  0  0
 29 28  1  1  0  0  0
 29 31  1  0  0  0  0
 30 14  1  1  0  0  0
 30 31  1  0  0  0  0
M  CHG  1   3  -1
M  END
>  <CHROM.1>
170.16378534,-57.13617324,70.72951604,-58.70378664,-74.55785631,157.88660726
-94.59196140,28.92156472,38.28867299,20.16395276,0.68619482,-1.16515002,-2.70420152

>  <Name>
ligand

>  <RI>
0

>  <Rbt.Current_Directory>
/home/itssahil/PROJECTS/Mol_Feturizer/New_Systems/rnas/3F2T

>  <Rbt.Executable>
rbdock ($Id: //depot/dev/client3/rdock/2013.1/src/exe/rbdock.cxx#4 $)

>  <Rbt.Library>
libRbt.so (2013.1, Build901 2013/11/27)

>  <Rbt.Parameter_File>
/export/apps/rDock/src/rDock_2013.1_src/data/scripts/dock_solv.prm

>  <Rbt.Receptor>
prm/pocket_docking_6.prm

>  <SCORE>
-22.288

>  <SCORE.INTER>
-23.737

>  <SCORE.INTER.CONST>
1

>  <SCORE.INTER.POLAR>
0

>  <SCORE.INTER.ROT>
7

>  <SCORE.INTER.SOLV>
12.7396

>  <SCORE.INTER.VDW>
-28.3379

>  <SCORE.INTER.norm>
-0.765709

>  <SCORE.INTRA>
1.44895

>  <SCORE.INTRA.DIHEDRAL>
-0.352679

>  <SCORE.INTRA.DIHEDRAL.0>
4.64198

>  <SCORE.INTRA.POLAR>
0

>  <SCORE.INTRA.POLAR.0>
0

>  <SCORE.INTRA.REPUL>
0

>  <SCORE.INTRA.REPUL.0>
0

>  <SCORE.INTRA.SOLV>
-0.583934

>  <SCORE.INTRA.SOLV.lig_0>
-49.3611

>  <SCORE.INTRA.VDW>
1.91726

>  <SCORE.INTRA.VDW.0>
-1.91858

>  <SCORE.INTRA.norm>
0.0467404

>  <SCORE.RESTR>
0

>  <SCORE.RESTR.CAVITY>
0

>  <SCORE.RESTR.norm>
0

>  <SCORE.SYSTEM>
0

>  <SCORE.SYSTEM.CONST>
0

>  <SCORE.SYSTEM.DIHEDRAL>
0

>  <SCORE.SYSTEM.SOLV>
0

>  <SCORE.SYSTEM.norm>
0

>  <SCORE.heavy>
31

>  <SCORE.norm>
-0.718968

>  <RMSD>
4.388

$$$$
ligand
 OpenBabel11021811473D
libRbt.so/2013.1/901 2013/11/27
 31 33  0  0  0  0  0  0  0  0999 V2000
   29.1316   36.1917   16.7560 P   0  0  1  0  0  0  0  0  0  0  0  0
   30.2953   35.7018   15.9319 O   0  0  0  0  0  0  0  0  0  0  0  0
   27.8780   36.0907   15.9282 O   0  5  0  0  0  0  0  0  0  0  0  0
   29.0759   35.3197   17.9801 O   0  0  0  0  0  0  0  0  0  0  0  0
   30.4082   38.1162   17.9957 C   0  0  0  0  0  0  0  0  0  0  0  0
   29.2939   37.7191   17.2240 O   0  0  0  0  0  0  0  0  0  0  0  0
   30.3659   39.6287   18.1978 C   0  0  1  0  0  0  0  0  0  0  0  0
   30.2108   40.2730   16.9490 O   0  0  0  0  0  0  0  0  0  0  0  0
   29.1973   40.0007   19.0950 C   0  0  1  0  0  0  0  0  0  0  0  0
   28.0066   39.6588   18.4374 O   0  0  0  0  0  0  0  0  0  0  0  0
   29.2401   39.2884   20.4365 C   0  0  1  0  0  0  0  0  0  0  0  0
   30.4500   39.6109   21.0673 O   0  0  0  0  0  0  0  0  0  0  0  0
   28.0833   39.7251   21.3199 C   0  0  0  0  0  0  0  0  0  0  0  0
   27.2012   37.1100   20.7692 N   0  0  0  0  0  0  0  0  0  0  0  0
   26.7133   35.8609   20.4524 C   0  0  0  0  0  0  0  0  0  0  0  0
   26.5543   35.5414   19.2779 O   0  0  0  0  0  0  0  0  0  0  0  0
   26.3980   34.9624   21.4461 N   0  0  0  0  0  0  0  0  0  0  0  0
   26.5793   35.3017   22.7727 C   0  0  0  0  0  0  0  0  0  0  0  0
   27.0704   36.5602   23.1020 C   0  0  1  0  0  0  0  0  0  0  0  0
   26.3131   34.4866   23.6583 O   0  0  0  0  0  0  0  0  0  0  0  0
   27.7422   38.1572   24.7506 C   0  0  2  0  0  0  0  0  0  0  0  0
   27.2522   36.9066   24.4259 N   0  0  0  0  0  0  0  0  0  0  0  0
   27.9254   38.5060   26.0891 C   0  0  0  0  0  0  0  0  0  0  0  0
   28.4127   39.7631   26.4269 C   0  0  1  0  0  0  0  0  0  0  0  0
   28.5929   40.1035   27.8724 C   0  0  0  0  0  0  0  0  0  0  0  0
   28.7266   40.6837   25.4156 C   0  0  1  0  0  0  0  0  0  0  0  0
   29.2648   42.0507   25.7383 C   0  0  0  0  0  0  0  0  0  0  0  0
   28.5411   40.3332   24.0809 C   0  0  0  0  0  0  0  0  0  0  0  0
   28.0477   39.0724   23.7405 C   0  0  1  0  0  0  0  0  0  0  0  0
   27.3781   37.4678   22.0905 C   0  0  1  0  0  0  0  0  0  0  0  0
   27.8602   38.7223   22.4118 N   0  0  0  0  0  0  0  0  0  0  0  0
  1  2  1  6  0  0  0
  1  3  1  0  0  0  0
  1  4  2  0  0  0  0
  1  6  1  0  0  0  0
  5  6  1  0  0  0  0
  7  5  1  6  0  0  0
  7  8  1  0  0  0  0
  7  9  1  0  0  0  0
  9 10  1  6  0  0  0
  9 11  1  0  0  0  0
 11 12  1  1  0  0  0
 11 13  1  0  0  0  0
 13 31  1  0  0  0  0
 14 15  1  0  0  0  0
 15 16  2  0  0  0  0
 15 17  1  0  0  0  0
 17 18  1  0  0  0  0
 18 20  2  0  0  0  0
 19 18  1  6  0  0  0
 19 22  1  0  0  0  0
 19 30  1  0  0  0  0
 21 23  1  1  0  0  0
 21 29  1  0  0  0  0
 21 22  1  0  0  0  0
 23 24  1  0  0  0  0
 24 25  1  6  0  0  0
 24 26  1  0  0  0  0
 26 27  1  6  0  0  0
 26 28  1  0  0  0  0
 29 28  1  6  0  0  0
 29 31  1  0  0  0  0
 30 14  1  6  0  0  0
 30 31  1  0  0  0  0
M  CHG  1   3  -1
M  END
>  <CHROM.1>
175.39477344,-58.34543030,-51.59482425,-64.17476791,58.15847757,161.05020365
115.76459631,28.39539834,37.92211128,20.98718569,1.34401032,-1.04167910,-2.03555136

>  <Name>
ligand

>  <RI>
0

>  <Rbt.Current_Directory>
/home/itssahil/PROJECTS/Mol_Feturizer/New_Systems/rnas/3F2T

>  <Rbt.Executable>
rbdock ($Id: //depot/dev/client3/rdock/2013.1/src/exe/rbdock.cxx#4 $)

>  <Rbt.Library>
libRbt.so (2013.1, Build901 2013/11/27)

>  <Rbt.Parameter_File>
/export/apps/rDock/src/rDock_2013.1_src/data/scripts/dock_solv.prm

>  <Rbt.Receptor>
prm/pocket_docking_5.prm

>  <SCORE>
-21.8879

>  <SCORE.INTER>
-21.6835

>  <SCORE.INTER.CONST>
1

>  <SCORE.INTER.POLAR>
0

>  <SCORE.INTER.ROT>
7

>  <SCORE.INTER.SOLV>
11.4723

>  <SCORE.INTER.VDW>
-26.5464

>  <SCORE.INTER.norm>
-0.699468

>  <SCORE.INTRA>
-0.204441

>  <SCORE.INTRA.DIHEDRAL>
-1.76636

>  <SCORE.INTRA.DIHEDRAL.0>
4.64198

>  <SCORE.INTRA.POLAR>
0

>  <SCORE.INTRA.POLAR.0>
0

>  <SCORE.INTRA.REPUL>
0

>  <SCORE.INTRA.REPUL.0>
0

>  <SCORE.INTRA.SOLV>
1.84732

>  <SCORE.INTRA.SOLV.lig_0>
-49.3611

>  <SCORE.INTRA.VDW>
-0.244923

>  <SCORE.INTRA.VDW.0>
-1.91858

>  <SCORE.INTRA.norm>
-0.00659487

>  <SCORE.RESTR>
0

>  <SCORE.RESTR.CAVITY>
0

>  <SCORE.RESTR.norm>
0

>  <SCORE.SYSTEM>
0

>  <SCORE.SYSTEM.CONST>
0

>  <SCORE.SYSTEM.DIHEDRAL>
0

>  <SCORE.SYSTEM.SOLV>
0

>  <SCORE.SYSTEM.norm>
0

>  <SCORE.heavy>
31

>  <SCORE.norm>
-0.706063

>  <RMSD>
4.392

$$$$
ligand
 OpenBabel11021811473D
libRbt.so/2013.1/901 2013/11/27
 31 33  0  0  0  0  0  0  0  0999 V2000
   29.8853   34.8496   13.5210 P   0  0  1  0  0  0  0  0  0  0  0  0
   29.5009   33.4751   13.0348 O   0  0  0  0  0  0  0  0  0  0  0  0
   31.3693   35.0279   13.3392 O   0  5  0  0  0  0  0  0  0  0  0  0
   29.0909   35.8311   12.7039 O   0  0  0  0  0  0  0  0  0  0  0  0
   29.7517   36.3475   15.6678 C   0  0  0  0  0  0  0  0  0  0  0  0
   29.5451   35.0834   15.0727 O   0  0  0  0  0  0  0  0  0  0  0  0
   29.3998   36.2681   17.1510 C   0  0  1  0  0  0  0  0  0  0  0  0
   30.2722   35.3652   17.8010 O   0  0  0  0  0  0  0  0  0  0  0  0
   29.5388   37.6386   17.7923 C   0  0  1  0  0  0  0  0  0  0  0  0
   28.6306   38.5114   17.1753 O   0  0  0  0  0  0  0  0  0  0  0  0
   29.2614   37.6161   19.2861 C   0  0  1  0  0  0  0  0  0  0  0  0
   29.5264   38.8927   19.8019 O   0  0  0  0  0  0  0  0  0  0  0  0
   27.8114   37.2555   19.5634 C   0  0  0  0  0  0  0  0  0  0  0  0
   27.9355   34.4787   19.1230 N   0  0  0  0  0  0  0  0  0  0  0  0
   27.9425   33.1283   18.8492 C   0  0  0  0  0  0  0  0  0  0  0  0
   28.1102   32.7339   17.6989 O   0  0  0  0  0  0  0  0  0  0  0  0
   27.7600   32.2108   19.8587 N   0  0  0  0  0  0  0  0  0  0  0  0
   27.5791   32.6365   21.1602 C   0  0  0  0  0  0  0  0  0  0  0  0
   27.5697   33.9973   21.4459 C   0  0  1  0  0  0  0  0  0  0  0  0
   27.4348   31.8103   22.0636 O   0  0  0  0  0  0  0  0  0  0  0  0
   27.3805   35.7826   23.0259 C   0  0  2  0  0  0  0  0  0  0  0  0
   27.3876   34.4298   22.7442 N   0  0  0  0  0  0  0  0  0  0  0  0
   27.1962   36.2184   24.3385 C   0  0  0  0  0  0  0  0  0  0  0  0
   27.1821   37.5769   24.6321 C   0  0  1  0  0  0  0  0  0  0  0  0
   26.9784   38.0073   26.0503 C   0  0  0  0  0  0  0  0  0  0  0  0
   27.3594   38.5141   23.6031 C   0  0  1  0  0  0  0  0  0  0  0  0
   27.3600   39.9926   23.8798 C   0  0  0  0  0  0  0  0  0  0  0  0
   27.5415   38.0762   22.2940 C   0  0  0  0  0  0  0  0  0  0  0  0
   27.5515   36.7121   21.9973 C   0  0  1  0  0  0  0  0  0  0  0  0
   27.7455   34.9202   20.4169 C   0  0  1  0  0  0  0  0  0  0  0  0
   27.7304   36.2739   20.6937 N   0  0  0  0  0  0  0  0  0  0  0  0
  1  2  1  6  0  0  0
  1  3  1  0  0  0  0
  1  4  2  0  0  0  0
  1  6  1  0  0  0  0
  5  6  1  0  0  0  0
  7  5  1  6  0  0  0
  7  8  1  0  0  0  0
  7  9  1  0  0  0  0
  9 10  1  6  0  0  0
  9 11  1  0  0  0  0
 11 12  1  6  0  0  0
 11 13  1  0  0  0  0
 13 31  1  0  0  0  0
 14 15  1  0  0  0  0
 15 16  2  0  0  0  0
 15 17  1  0  0  0  0
 17 18  1  0  0  0  0
 18 20  2  0  0  0  0
 19 18  1  1  0  0  0
 19 22  1  0  0  0  0
 19 30  1  0  0  0  0
 21 23  1  6  0  0  0
 21 29  1  0  0  0  0
 21 22  1  0  0  0  0
 23 24  1  0  0  0  0
 24 25  1  1  0  0  0
 24 26  1  0  0  0  0
 26 27  1  1  0  0  0
 26 28  1  0  0  0  0
 29 28  1  1  0  0  0
 29 31  1  0  0  0  0
 30 14  1  1  0  0  0
 30 31  1  0  0  0  0
M  CHG  1   3  -1
M  END
>  <CHROM.1>
-177.76540691,-175.47725584,63.34599823,61.97656160,174.96898880,136.65536691
93.14937585,28.48541867,35.74304004,19.10983978,-0.62125079,1.26186083,0.44422686

>  <Name>
ligand

>  <RI>
0

>  <Rbt.Current_Directory>
/home/itssahil/PROJECTS/Mol_Feturizer/New_Systems/rnas/3F2T

>  <Rbt.Executable>
rbdock ($Id: //depot/dev/client3/rdock/2013.1/src/exe/rbdock.cxx#4 $)

>  <Rbt.Library>
libRbt.so (2013.1, Build901 2013/11/27)

>  <Rbt.Parameter_File>
/export/apps/rDock/src/rDock_2013.1_src/data/scripts/dock_solv.prm

>  <Rbt.Receptor>
prm/pocket_docking_6.prm

>  <SCORE>
-26.07

>  <SCORE.INTER>
-26.3273

>  <SCORE.INTER.CONST>
1

>  <SCORE.INTER.POLAR>
0

>  <SCORE.INTER.ROT>
7

>  <SCORE.INTER.SOLV>
14.2407

>  <SCORE.INTER.VDW>
-30.5651

>  <SCORE.INTER.norm>
-0.849269

>  <SCORE.INTRA>
0.257321

>  <SCORE.INTRA.DIHEDRAL>
1.22677

>  <SCORE.INTRA.DIHEDRAL.0>
4.64198

>  <SCORE.INTRA.POLAR>
0

>  <SCORE.INTRA.POLAR.0>
0

>  <SCORE.INTRA.REPUL>
0

>  <SCORE.INTRA.REPUL.0>
0

>  <SCORE.INTRA.SOLV>
0.262915

>  <SCORE.INTRA.SOLV.lig_0>
-49.3611

>  <SCORE.INTRA.VDW>
-0.487521

>  <SCORE.INTRA.VDW.0>
-1.91858

>  <SCORE.INTRA.norm>
0.00830068

>  <SCORE.RESTR>
0

>  <SCORE.RESTR.CAVITY>
0

>  <SCORE.RESTR.norm>
0

>  <SCORE.SYSTEM>
0

>  <SCORE.SYSTEM.CONST>
0

>  <SCORE.SYSTEM.DIHEDRAL>
0

>  <SCORE.SYSTEM.SOLV>
0

>  <SCORE.SYSTEM.norm>
0

>  <SCORE.heavy>
31

>  <SCORE.norm>
-0.840968

>  <RMSD>
4.432

$$$$
ligand
 OpenBabel11021811473D
libRbt.so/2013.1/901 2013/11/27
 31 33  0  0  0  0  0  0  0  0999 V2000
   31.7760   36.6829   16.3406 P   0  0  1  0  0  0  0  0  0  0  0  0
   30.9289   35.6226   16.9975 O   0  0  0  0  0  0  0  0  0  0  0  0
   33.2240   36.3949   16.6361 O   0  5  0  0  0  0  0  0  0  0  0  0
   31.4736   36.6222   14.8686 O   0  0  0  0  0  0  0  0  0  0  0  0
   30.1115   38.6115   16.9576 C   0  0  0  0  0  0  0  0  0  0  0  0
   31.4480   38.1634   16.8687 O   0  0  0  0  0  0  0  0  0  0  0  0
   30.0826   39.9716   17.6501 C   0  0  1  0  0  0  0  0  0  0  0  0
   30.4860   40.9779   16.7427 O   0  0  0  0  0  0  0  0  0  0  0  0
   28.6757   40.2780   18.1353 C   0  0  1  0  0  0  0  0  0  0  0  0
   27.8082   40.2394   17.0339 O   0  0  0  0  0  0  0  0  0  0  0  0
   28.1887   39.2877   19.1797 C   0  0  1  0  0  0  0  0  0  0  0  0
   27.8281   38.1009   18.5260 O   0  0  0  0  0  0  0  0  0  0  0  0
   29.2797   38.9884   20.1944 C   0  0  0  0  0  0  0  0  0  0  0  0
   28.3396   36.3563   20.5227 N   0  0  0  0  0  0  0  0  0  0  0  0
   27.8415   35.0747   20.6138 C   0  0  0  0  0  0  0  0  0  0  0  0
   27.9809   34.2919   19.6786 O   0  0  0  0  0  0  0  0  0  0  0  0
   27.1827   34.6613   21.7492 N   0  0  0  0  0  0  0  0  0  0  0  0
   27.0248   35.5261   22.8146 C   0  0  0  0  0  0  0  0  0  0  0  0
   27.5234   36.8214   22.7315 C   0  0  1  0  0  0  0  0  0  0  0  0
   26.4505   35.1450   23.8367 O   0  0  0  0  0  0  0  0  0  0  0  0
   27.8655   38.9777   23.7077 C   0  0  2  0  0  0  0  0  0  0  0  0
   27.3675   37.6914   23.7919 N   0  0  0  0  0  0  0  0  0  0  0  0
   27.7072   39.8561   24.7802 C   0  0  0  0  0  0  0  0  0  0  0  0
   28.1997   41.1536   24.7039 C   0  0  1  0  0  0  0  0  0  0  0  0
   28.0083   42.0686   25.8719 C   0  0  0  0  0  0  0  0  0  0  0  0
   28.8640   41.5798   23.5439 C   0  0  1  0  0  0  0  0  0  0  0  0
   29.4198   42.9724   23.4246 C   0  0  0  0  0  0  0  0  0  0  0  0
   29.0191   40.7014   22.4748 C   0  0  0  0  0  0  0  0  0  0  0  0
   28.5211   39.3993   22.5485 C   0  0  1  0  0  0  0  0  0  0  0  0
   28.1807   37.2355   21.5748 C   0  0  1  0  0  0  0  0  0  0  0  0
   28.6725   38.5236   21.4838 N   0  0  0  0  0  0  0  0  0  0  0  0
  1  2  1  1  0  0  0
  1  3  1  0  0  0  0
  1  4  2  0  0  0  0
  1  6  1  0  0  0  0
  5  6  1  0  0  0  0
  7  5  1  6  0  0  0
  7  8  1  0  0  0  0
  7  9  1  0  0  0  0
  9 10  1  6  0  0  0
  9 11  1  0  0  0  0
 11 12  1  6  0  0  0
 11 13  1  0  0  0  0
 13 31  1  0  0  0  0
 14 15  1  0  0  0  0
 15 16  2  0  0  0  0
 15 17  1  0  0  0  0
 17 18  1  0  0  0  0
 18 20  2  0  0  0  0
 19 18  1  1  0  0  0
 19 22  1  0  0  0  0
 19 30  1  0  0  0  0
 21 23  1  6  0  0  0
 21 29  1  0  0  0  0
 21 22  1  0  0  0  0
 23 24  1  0  0  0  0
 24 25  1  1  0  0  0
 24 26  1  0  0  0  0
 26 27  1  1  0  0  0
 26 28  1  0  0  0  0
 29 28  1  1  0  0  0
 29 31  1  0  0  0  0
 30 14  1  1  0  0  0
 30 31  1  0  0  0  0
M  CHG  1   3  -1
M  END
>  <CHROM.1>
172.84168963,-47.75547518,77.27975961,-57.62375515,-76.65870701,155.84316031
-99.58668644,29.06460220,38.21369683,20.17827179,0.61322534,-1.08976187,-2.74771209

>  <Name>
ligand

>  <RI>
0

>  <Rbt.Current_Directory>
/home/itssahil/PROJECTS/Mol_Feturizer/New_Systems/rnas/3F2T

>  <Rbt.Executable>
rbdock ($Id: //depot/dev/client3/rdock/2013.1/src/exe/rbdock.cxx#4 $)

>  <Rbt.Library>
libRbt.so (2013.1, Build901 2013/11/27)

>  <Rbt.Parameter_File>
/export/apps/rDock/src/rDock_2013.1_src/data/scripts/dock_solv.prm

>  <Rbt.Receptor>
prm/blind_docking_80.prm

>  <SCORE>
-22.444

>  <SCORE.INTER>
-24.5552

>  <SCORE.INTER.CONST>
1

>  <SCORE.INTER.POLAR>
0

>  <SCORE.INTER.ROT>
7

>  <SCORE.INTER.SOLV>
14.3641

>  <SCORE.INTER.VDW>
-29.4248

>  <SCORE.INTER.norm>
-0.792104

>  <SCORE.INTRA>
2.11124

>  <SCORE.INTRA.DIHEDRAL>
0.748452

>  <SCORE.INTRA.DIHEDRAL.0>
4.64198

>  <SCORE.INTRA.POLAR>
0

>  <SCORE.INTRA.POLAR.0>
0

>  <SCORE.INTRA.REPUL>
0

>  <SCORE.INTRA.REPUL.0>
0

>  <SCORE.INTRA.SOLV>
-0.636163

>  <SCORE.INTRA.SOLV.lig_0>
-49.3611

>  <SCORE.INTRA.VDW>
2.05509

>  <SCORE.INTRA.VDW.0>
-1.91858

>  <SCORE.INTRA.norm>
0.0681044

>  <SCORE.RESTR>
0

>  <SCORE.RESTR.CAVITY>
0

>  <SCORE.RESTR.norm>
0

>  <SCORE.SYSTEM>
0

>  <SCORE.SYSTEM.CONST>
0

>  <SCORE.SYSTEM.DIHEDRAL>
0

>  <SCORE.SYSTEM.SOLV>
0

>  <SCORE.SYSTEM.norm>
0

>  <SCORE.heavy>
31

>  <SCORE.norm>
-0.723999

>  <RMSD>
4.436

$$$$
ligand
 OpenBabel11021811473D
libRbt.so/2013.1/901 2013/11/27
 31 33  0  0  0  0  0  0  0  0999 V2000
   27.4050   35.3664   15.3485 P   0  0  1  0  0  0  0  0  0  0  0  0
   28.6044   36.2604   15.1600 O   0  0  0  0  0  0  0  0  0  0  0  0
   26.5058   35.5066   14.1489 O   0  5  0  0  0  0  0  0  0  0  0  0
   27.9334   33.9667   15.5020 O   0  0  0  0  0  0  0  0  0  0  0  0
   26.0209   37.0345   16.8223 C   0  0  0  0  0  0  0  0  0  0  0  0
   26.5478   35.7348   16.6553 O   0  0  0  0  0  0  0  0  0  0  0  0
   27.1685   38.0183   17.0353 C   0  0  1  0  0  0  0  0  0  0  0  0
   26.6762   39.3429   16.9910 O   0  0  0  0  0  0  0  0  0  0  0  0
   27.8163   37.7763   18.3882 C   0  0  1  0  0  0  0  0  0  0  0  0
   28.7542   36.7422   18.2526 O   0  0  0  0  0  0  0  0  0  0  0  0
   28.5195   39.0100   18.9289 C   0  0  1  0  0  0  0  0  0  0  0  0
   27.5436   39.9122   19.3754 O   0  0  0  0  0  0  0  0  0  0  0  0
   29.4346   38.6491   20.0873 C   0  0  0  0  0  0  0  0  0  0  0  0
   28.4544   36.1085   20.7974 N   0  0  0  0  0  0  0  0  0  0  0  0
   27.9482   34.8562   21.0704 C   0  0  0  0  0  0  0  0  0  0  0  0
   28.2347   33.9054   20.3489 O   0  0  0  0  0  0  0  0  0  0  0  0
   27.1171   34.6598   22.1497 N   0  0  0  0  0  0  0  0  0  0  0  0
   26.7916   35.7165   22.9775 C   0  0  0  0  0  0  0  0  0  0  0  0
   27.2970   36.9838   22.7094 C   0  0  1  0  0  0  0  0  0  0  0  0
   26.0620   35.5315   23.9537 O   0  0  0  0  0  0  0  0  0  0  0  0
   27.4793   39.3030   23.2642 C   0  0  2  0  0  0  0  0  0  0  0  0
   26.9743   38.0448   23.5316 N   0  0  0  0  0  0  0  0  0  0  0  0
   27.1522   40.3745   24.0959 C   0  0  0  0  0  0  0  0  0  0  0  0
   27.6505   41.6451   23.8331 C   0  0  1  0  0  0  0  0  0  0  0  0
   27.2756   42.7708   24.7443 C   0  0  0  0  0  0  0  0  0  0  0  0
   28.4909   41.8494   22.7283 C   0  0  1  0  0  0  0  0  0  0  0  0
   29.0585   43.2064   22.4143 C   0  0  0  0  0  0  0  0  0  0  0  0
   28.8142   40.7784   21.8993 C   0  0  0  0  0  0  0  0  0  0  0  0
   28.3109   39.5026   22.1598 C   0  0  1  0  0  0  0  0  0  0  0  0
   28.1300   37.1766   21.6092 C   0  0  1  0  0  0  0  0  0  0  0  0
   28.6299   38.4351   21.3340 N   0  0  0  0  0  0  0  0  0  0  0  0
  1  2  1  6  0  0  0
  1  3  1  0  0  0  0
  1  4  2  0  0  0  0
  1  6  1  0  0  0  0
  5  6  1  0  0  0  0
  7  5  1  1  0  0  0
  7  8  1  0  0  0  0
  7  9  1  0  0  0  0
  9 10  1  6  0  0  0
  9 11  1  0  0  0  0
 11 12  1  1  0  0  0
 11 13  1  0  0  0  0
 13 31  1  0  0  0  0
 14 15  1  0  0  0  0
 15 16  2  0  0  0  0
 15 17  1  0  0  0  0
 17 18  1  0  0  0  0
 18 20  2  0  0  0  0
 19 18  1  1  0  0  0
 19 22  1  0  0  0  0
 19 30  1  0  0  0  0
 21 23  1  6  0  0  0
 21 29  1  0  0  0  0
 21 22  1  0  0  0  0
 23 24  1  0  0  0  0
 24 25  1  1  0  0  0
 24 26  1  0  0  0  0
 26 27  1  1  0  0  0
 26 28  1  0  0  0  0
 29 28  1  1  0  0  0
 29 31  1  0  0  0  0
 30 14  1  1  0  0  0
 30 31  1  0  0  0  0
M  CHG  1   3  -1
M  END
>  <CHROM.1>
-67.87680026,57.04743547,170.73536125,83.93680267,74.35173145,-77.39037219
-86.97431063,27.67767657,37.69813724,19.90803111,-1.96468321,1.44927439,1.38767453

>  <Name>
ligand

>  <RI>
0

>  <Rbt.Current_Directory>
/home/itssahil/PROJECTS/Mol_Feturizer/New_Systems/rnas/3F2T

>  <Rbt.Executable>
rbdock ($Id: //depot/dev/client3/rdock/2013.1/src/exe/rbdock.cxx#4 $)

>  <Rbt.Library>
libRbt.so (2013.1, Build901 2013/11/27)

>  <Rbt.Parameter_File>
/export/apps/rDock/src/rDock_2013.1_src/data/scripts/dock_solv.prm

>  <Rbt.Receptor>
prm/blind_docking_80.prm

>  <SCORE>
-20.6435

>  <SCORE.INTER>
-21.6284

>  <SCORE.INTER.CONST>
1

>  <SCORE.INTER.POLAR>
0

>  <SCORE.INTER.ROT>
7

>  <SCORE.INTER.SOLV>
13.1897

>  <SCORE.INTER.VDW>
-27.0822

>  <SCORE.INTER.norm>
-0.697692

>  <SCORE.INTRA>
0.984976

>  <SCORE.INTRA.DIHEDRAL>
0.650049

>  <SCORE.INTRA.DIHEDRAL.0>
4.64198

>  <SCORE.INTRA.POLAR>
0

>  <SCORE.INTRA.POLAR.0>
0

>  <SCORE.INTRA.REPUL>
0

>  <SCORE.INTRA.REPUL.0>
0

>  <SCORE.INTRA.SOLV>
1.87453

>  <SCORE.INTRA.SOLV.lig_0>
-49.3611

>  <SCORE.INTRA.VDW>
-0.277314

>  <SCORE.INTRA.VDW.0>
-1.91858

>  <SCORE.INTRA.norm>
0.0317734

>  <SCORE.RESTR>
0

>  <SCORE.RESTR.CAVITY>
0

>  <SCORE.RESTR.norm>
0

>  <SCORE.SYSTEM>
0

>  <SCORE.SYSTEM.CONST>
0

>  <SCORE.SYSTEM.DIHEDRAL>
0

>  <SCORE.SYSTEM.SOLV>
0

>  <SCORE.SYSTEM.norm>
0

>  <SCORE.heavy>
31

>  <SCORE.norm>
-0.665918

>  <RMSD>
4.459

$$$$
ligand
 OpenBabel11021811473D
libRbt.so/2013.1/901 2013/11/27
 31 33  0  0  0  0  0  0  0  0999 V2000
   26.9803   33.6413   15.2930 P   0  0  1  0  0  0  0  0  0  0  0  0
   26.3317   33.4592   16.6418 O   0  0  0  0  0  0  0  0  0  0  0  0
   28.0105   32.5598   15.1034 O   0  5  0  0  0  0  0  0  0  0  0  0
   25.8781   33.5611   14.2729 O   0  0  0  0  0  0  0  0  0  0  0  0
   26.9636   36.2459   14.9995 C   0  0  0  0  0  0  0  0  0  0  0  0
   27.7172   35.0595   15.1382 O   0  0  0  0  0  0  0  0  0  0  0  0
   26.4706   36.6915   16.3737 C   0  0  1  0  0  0  0  0  0  0  0  0
   25.4314   35.8370   16.8082 O   0  0  0  0  0  0  0  0  0  0  0  0
   27.6096   36.6355   17.3778 C   0  0  1  0  0  0  0  0  0  0  0  0
   28.7046   37.3323   16.8462 O   0  0  0  0  0  0  0  0  0  0  0  0
   27.2392   37.2499   18.7172 C   0  0  1  0  0  0  0  0  0  0  0  0
   26.1191   36.5710   19.2178 O   0  0  0  0  0  0  0  0  0  0  0  0
   28.3848   37.1236   19.7077 C   0  0  0  0  0  0  0  0  0  0  0  0
   28.4016   34.3450   19.2619 N   0  0  0  0  0  0  0  0  0  0  0  0
   28.3688   32.9972   18.9766 C   0  0  0  0  0  0  0  0  0  0  0  0
   28.7225   32.5925   17.8730 O   0  0  0  0  0  0  0  0  0  0  0  0
   27.9384   32.0943   19.9219 N   0  0  0  0  0  0  0  0  0  0  0  0
   27.5455   32.5312   21.1719 C   0  0  0  0  0  0  0  0  0  0  0  0
   27.5745   33.8893   21.4686 C   0  0  1  0  0  0  0  0  0  0  0  0
   27.1787   31.7166   22.0213 O   0  0  0  0  0  0  0  0  0  0  0  0
   27.2128   35.6830   23.0085 C   0  0  2  0  0  0  0  0  0  0  0  0
   27.1814   34.3330   22.7154 N   0  0  0  0  0  0  0  0  0  0  0  0
   26.8151   36.1302   24.2689 C   0  0  0  0  0  0  0  0  0  0  0  0
   26.8379   37.4864   24.5725 C   0  0  1  0  0  0  0  0  0  0  0  0
   26.4010   37.9295   25.9330 C   0  0  0  0  0  0  0  0  0  0  0  0
   27.2682   38.4094   23.6074 C   0  0  1  0  0  0  0  0  0  0  0  0
   27.3165   39.8842   23.8986 C   0  0  0  0  0  0  0  0  0  0  0  0
   27.6628   37.9603   22.3499 C   0  0  0  0  0  0  0  0  0  0  0  0
   27.6364   36.5987   22.0424 C   0  0  1  0  0  0  0  0  0  0  0  0
   28.0023   34.7982   20.5030 C   0  0  1  0  0  0  0  0  0  0  0  0
   28.0269   36.1497   20.7898 N   0  0  0  0  0  0  0  0  0  0  0  0
  1  2  1  1  0  0  0
  1  3  1  0  0  0  0
  1  4  2  0  0  0  0
  1  6  1  0  0  0  0
  5  6  1  0  0  0  0
  7  5  1  6  0  0  0
  7  8  1  0  0  0  0
  7  9  1  0  0  0  0
  9 10  1  6  0  0  0
  9 11  1  0  0  0  0
 11 12  1  1  0  0  0
 11 13  1  0  0  0  0
 13 31  1  0  0  0  0
 14 15  1  0  0  0  0
 15 16  2  0  0  0  0
 15 17  1  0  0  0  0
 17 18  1  0  0  0  0
 18 20  2  0  0  0  0
 19 18  1  1  0  0  0
 19 22  1  0  0  0  0
 19 30  1  0  0  0  0
 21 23  1  6  0  0  0
 21 29  1  0  0  0  0
 21 22  1  0  0  0  0
 23 24  1  0  0  0  0
 24 25  1  1  0  0  0
 24 26  1  0  0  0  0
 26 27  1  1  0  0  0
 26 28  1  0  0  0  0
 29 28  1  1  0  0  0
 29 31  1  0  0  0  0
 30 14  1  1  0  0  0
 30 31  1  0  0  0  0
M  CHG  1   3  -1
M  END
>  <CHROM.1>
79.82049777,-72.55477441,-73.20684401,51.36414687,57.90041134,-110.61208176
-102.44991181,27.32247185,35.28787424,19.36211462,-1.61460891,-1.47722634
1.17970410

>  <Name>
ligand

>  <RI>
0

>  <Rbt.Current_Directory>
/home/itssahil/PROJECTS/Mol_Feturizer/New_Systems/rnas/3F2T

>  <Rbt.Executable>
rbdock ($Id: //depot/dev/client3/rdock/2013.1/src/exe/rbdock.cxx#4 $)

>  <Rbt.Library>
libRbt.so (2013.1, Build901 2013/11/27)

>  <Rbt.Parameter_File>
/export/apps/rDock/src/rDock_2013.1_src/data/scripts/dock_solv.prm

>  <Rbt.Receptor>
prm/pocket_docking_6.prm

>  <SCORE>
-27.3823

>  <SCORE.INTER>
-30.7804

>  <SCORE.INTER.CONST>
1

>  <SCORE.INTER.POLAR>
0

>  <SCORE.INTER.ROT>
7

>  <SCORE.INTER.SOLV>
11.5785

>  <SCORE.INTER.VDW>
-32.6464

>  <SCORE.INTER.norm>
-0.992916

>  <SCORE.INTRA>
3.39809

>  <SCORE.INTRA.DIHEDRAL>
4.37264

>  <SCORE.INTRA.DIHEDRAL.0>
4.64198

>  <SCORE.INTRA.POLAR>
0

>  <SCORE.INTRA.POLAR.0>
0

>  <SCORE.INTRA.REPUL>
0

>  <SCORE.INTRA.REPUL.0>
0

>  <SCORE.INTRA.SOLV>
3.7903

>  <SCORE.INTRA.SOLV.lig_0>
-49.3611

>  <SCORE.INTRA.VDW>
-0.683379

>  <SCORE.INTRA.VDW.0>
-1.91858

>  <SCORE.INTRA.norm>
0.109616

>  <SCORE.RESTR>
0

>  <SCORE.RESTR.CAVITY>
0

>  <SCORE.RESTR.norm>
0

>  <SCORE.SYSTEM>
0

>  <SCORE.SYSTEM.CONST>
0

>  <SCORE.SYSTEM.DIHEDRAL>
0

>  <SCORE.SYSTEM.SOLV>
0

>  <SCORE.SYSTEM.norm>
0

>  <SCORE.heavy>
31

>  <SCORE.norm>
-0.8833

>  <RMSD>
4.466

$$$$
ligand
 OpenBabel11021811473D
libRbt.so/2013.1/901 2013/11/27
 31 33  0  0  0  0  0  0  0  0999 V2000
   32.0810   35.4398   14.9739 P   0  0  1  0  0  0  0  0  0  0  0  0
   32.1076   35.4076   13.4667 O   0  0  0  0  0  0  0  0  0  0  0  0
   31.2474   34.2866   15.4662 O   0  5  0  0  0  0  0  0  0  0  0  0
   33.5109   35.3428   15.4301 O   0  0  0  0  0  0  0  0  0  0  0  0
   30.0524   37.0052   15.5261 C   0  0  0  0  0  0  0  0  0  0  0  0
   31.4485   36.7939   15.5608 O   0  0  0  0  0  0  0  0  0  0  0  0
   29.4675   36.7259   16.9081 C   0  0  1  0  0  0  0  0  0  0  0  0
   30.0690   35.5698   17.4563 O   0  0  0  0  0  0  0  0  0  0  0  0
   29.7289   37.9044   17.8310 C   0  0  1  0  0  0  0  0  0  0  0  0
   28.9231   38.9766   17.4206 O   0  0  0  0  0  0  0  0  0  0  0  0
   29.4224   37.5876   19.2851 C   0  0  1  0  0  0  0  0  0  0  0  0
   29.6859   38.7330   20.0497 O   0  0  0  0  0  0  0  0  0  0  0  0
   27.9648   37.1943   19.4593 C   0  0  0  0  0  0  0  0  0  0  0  0
   28.0833   34.4168   19.0220 N   0  0  0  0  0  0  0  0  0  0  0  0
   28.0904   33.0664   18.7475 C   0  0  0  0  0  0  0  0  0  0  0  0
   28.3048   32.6713   17.6053 O   0  0  0  0  0  0  0  0  0  0  0  0
   27.8556   32.1501   19.7471 N   0  0  0  0  0  0  0  0  0  0  0  0
   27.6216   32.5766   21.0398 C   0  0  0  0  0  0  0  0  0  0  0  0
   27.6118   33.9372   21.3261 C   0  0  1  0  0  0  0  0  0  0  0  0
   27.4305   31.7512   21.9352 O   0  0  0  0  0  0  0  0  0  0  0  0
   27.3694   35.7232   22.8981 C   0  0  2  0  0  0  0  0  0  0  0  0
   27.3768   34.3706   22.6156 N   0  0  0  0  0  0  0  0  0  0  0  0
   27.1316   36.1599   24.2018 C   0  0  0  0  0  0  0  0  0  0  0  0
   27.1169   37.5183   24.4958 C   0  0  1  0  0  0  0  0  0  0  0  0
   26.8550   37.9497   25.9041 C   0  0  0  0  0  0  0  0  0  0  0  0
   27.3474   38.4545   23.4765 C   0  0  1  0  0  0  0  0  0  0  0  0
   27.3490   39.9327   23.7544 C   0  0  0  0  0  0  0  0  0  0  0  0
   27.5828   38.0157   22.1762 C   0  0  0  0  0  0  0  0  0  0  0  0
   27.5937   36.6517   21.8789 C   0  0  1  0  0  0  0  0  0  0  0  0
   27.8408   34.8592   20.3068 C   0  0  1  0  0  0  0  0  0  0  0  0
   27.8256   36.2128   20.5840 N   0  0  0  0  0  0  0  0  0  0  0  0
  1  2  1  6  0  0  0
  1  3  1  0  0  0  0
  1  4  2  0  0  0  0
  1  6  1  0  0  0  0
  5  6  1  0  0  0  0
  7  5  1  6  0  0  0
  7  8  1  0  0  0  0
  7  9  1  0  0  0  0
  9 10  1  6  0  0  0
  9 11  1  0  0  0  0
 11 12  1  1  0  0  0
 11 13  1  0  0  0  0
 13 31  1  0  0  0  0
 14 15  1  0  0  0  0
 15 16  2  0  0  0  0
 15 17  1  0  0  0  0
 17 18  1  0  0  0  0
 18 20  2  0  0  0  0
 19 18  1  1  0  0  0
 19 22  1  0  0  0  0
 19 30  1  0  0  0  0
 21 23  1  6  0  0  0
 21 29  1  0  0  0  0
 21 22  1  0  0  0  0
 23 24  1  0  0  0  0
 24 25  1  1  0  0  0
 24 26  1  0  0  0  0
 26 27  1  1  0  0  0
 26 28  1  0  0  0  0
 29 28  1  1  0  0  0
 29 31  1  0  0  0  0
 30 14  1  1  0  0  0
 30 31  1  0  0  0  0
M  CHG  1   3  -1
M  END
>  <CHROM.1>
101.39930213,75.28116150,-41.71646681,70.81736689,-179.64549624,148.80680896
90.72598619,29.00619466,35.89505775,19.34423335,-0.38269602,1.05271116,0.30332935

>  <Name>
ligand

>  <RI>
0

>  <Rbt.Current_Directory>
/home/itssahil/PROJECTS/Mol_Feturizer/New_Systems/rnas/3F2T

>  <Rbt.Executable>
rbdock ($Id: //depot/dev/client3/rdock/2013.1/src/exe/rbdock.cxx#4 $)

>  <Rbt.Library>
libRbt.so (2013.1, Build901 2013/11/27)

>  <Rbt.Parameter_File>
/export/apps/rDock/src/rDock_2013.1_src/data/scripts/dock_solv.prm

>  <Rbt.Receptor>
prm/pocket_docking_8.prm

>  <SCORE>
-24.3469

>  <SCORE.INTER>
-28.9257

>  <SCORE.INTER.CONST>
1

>  <SCORE.INTER.POLAR>
0

>  <SCORE.INTER.ROT>
7

>  <SCORE.INTER.SOLV>
12.8382

>  <SCORE.INTER.VDW>
-31.8299

>  <SCORE.INTER.norm>
-0.933089

>  <SCORE.INTRA>
4.57881

>  <SCORE.INTRA.DIHEDRAL>
6.99091

>  <SCORE.INTRA.DIHEDRAL.0>
4.64198

>  <SCORE.INTRA.POLAR>
0

>  <SCORE.INTRA.POLAR.0>
0

>  <SCORE.INTRA.REPUL>
0

>  <SCORE.INTRA.REPUL.0>
0

>  <SCORE.INTRA.SOLV>
2.67807

>  <SCORE.INTRA.SOLV.lig_0>
-49.3611

>  <SCORE.INTRA.VDW>
-0.255684

>  <SCORE.INTRA.VDW.0>
-1.91858

>  <SCORE.INTRA.norm>
0.147703

>  <SCORE.RESTR>
0

>  <SCORE.RESTR.CAVITY>
0

>  <SCORE.RESTR.norm>
0

>  <SCORE.SYSTEM>
0

>  <SCORE.SYSTEM.CONST>
0

>  <SCORE.SYSTEM.DIHEDRAL>
0

>  <SCORE.SYSTEM.SOLV>
0

>  <SCORE.SYSTEM.norm>
0

>  <SCORE.heavy>
31

>  <SCORE.norm>
-0.785385

>  <RMSD>
4.481

$$$$
ligand
 OpenBabel11021811473D
libRbt.so/2013.1/901 2013/11/27
 31 33  0  0  0  0  0  0  0  0999 V2000
   32.3325   35.4251   15.2171 P   0  0  1  0  0  0  0  0  0  0  0  0
   31.9768   34.8070   16.5455 O   0  0  0  0  0  0  0  0  0  0  0  0
   33.7466   35.0420   14.8701 O   0  5  0  0  0  0  0  0  0  0  0  0
   31.3395   34.8968   14.2187 O   0  0  0  0  0  0  0  0  0  0  0  0
   31.0799   37.6764   15.7003 C   0  0  0  0  0  0  0  0  0  0  0  0
   32.2424   37.0283   15.2275 O   0  0  0  0  0  0  0  0  0  0  0  0
   30.9774   37.4851   17.2112 C   0  0  1  0  0  0  0  0  0  0  0  0
   31.6925   38.5102   17.8719 O   0  0  0  0  0  0  0  0  0  0  0  0
   29.5220   37.5390   17.6444 C   0  0  1  0  0  0  0  0  0  0  0  0
   28.8354   36.4840   17.0255 O   0  0  0  0  0  0  0  0  0  0  0  0
   29.3550   37.4180   19.1498 C   0  0  1  0  0  0  0  0  0  0  0  0
   29.8146   38.6040   19.7399 O   0  0  0  0  0  0  0  0  0  0  0  0
   27.8958   37.2083   19.5189 C   0  0  0  0  0  0  0  0  0  0  0  0
   28.0400   34.4298   19.0957 N   0  0  0  0  0  0  0  0  0  0  0  0
   28.0586   33.0780   18.8289 C   0  0  0  0  0  0  0  0  0  0  0  0
   28.2606   32.6786   17.6858 O   0  0  0  0  0  0  0  0  0  0  0  0
   27.8493   32.1649   19.8370 N   0  0  0  0  0  0  0  0  0  0  0  0
   27.6296   32.5963   21.1307 C   0  0  0  0  0  0  0  0  0  0  0  0
   27.6083   33.9584   21.4094 C   0  0  1  0  0  0  0  0  0  0  0  0
   27.4613   31.7740   22.0335 O   0  0  0  0  0  0  0  0  0  0  0  0
   27.3685   35.7507   22.9745 C   0  0  2  0  0  0  0  0  0  0  0  0
   27.3874   34.3966   22.6997 N   0  0  0  0  0  0  0  0  0  0  0  0
   27.1450   36.1923   24.2791 C   0  0  0  0  0  0  0  0  0  0  0  0
   27.1189   37.5521   24.5656 C   0  0  1  0  0  0  0  0  0  0  0  0
   26.8730   37.9887   25.9751 C   0  0  0  0  0  0  0  0  0  0  0  0
   27.3235   38.4849   23.5376 C   0  0  1  0  0  0  0  0  0  0  0  0
   27.3120   39.9646   23.8070 C   0  0  0  0  0  0  0  0  0  0  0  0
   27.5446   38.0412   22.2365 C   0  0  0  0  0  0  0  0  0  0  0  0
   27.5669   36.6757   21.9468 C   0  0  1  0  0  0  0  0  0  0  0  0
   27.8114   34.8769   20.3814 C   0  0  1  0  0  0  0  0  0  0  0  0
   27.7847   36.2319   20.6511 N   0  0  0  0  0  0  0  0  0  0  0  0
  1  2  1  1  0  0  0
  1  3  1  0  0  0  0
  1  4  2  0  0  0  0
  1  6  1  0  0  0  0
  5  6  1  0  0  0  0
  7  5  1  6  0  0  0
  7  8  1  0  0  0  0
  7  9  1  0  0  0  0
  9 10  1  6  0  0  0
  9 11  1  0  0  0  0
 11 12  1  1  0  0  0
 11 13  1  0  0  0  0
 13 31  1  0  0  0  0
 14 15  1  0  0  0  0
 15 16  2  0  0  0  0
 15 17  1  0  0  0  0
 17 18  1  0  0  0  0
 18 20  2  0  0  0  0
 19 18  1  1  0  0  0
 19 22  1  0  0  0  0
 19 30  1  0  0  0  0
 21 23  1  6  0  0  0
 21 29  1  0  0  0  0
 21 22  1  0  0  0  0
 23 24  1  0  0  0  0
 24 25  1  1  0  0  0
 24 26  1  0  0  0  0
 26 27  1  1  0  0  0
 26 28  1  0  0  0  0
 29 28  1  1  0  0  0
 29 31  1  0  0  0  0
 30 14  1  1  0  0  0
 30 31  1  0  0  0  0
M  CHG  1   3  -1
M  END
>  <CHROM.1>
69.76177325,-51.08330427,87.53288314,62.04781801,71.04504188,141.38751337
101.29264591,29.17708818,35.94360641,19.43123254,-0.42268937,0.98294622,0.40647129

>  <Name>
ligand

>  <RI>
0

>  <Rbt.Current_Directory>
/home/itssahil/PROJECTS/Mol_Feturizer/New_Systems/rnas/3F2T

>  <Rbt.Executable>
rbdock ($Id: //depot/dev/client3/rdock/2013.1/src/exe/rbdock.cxx#4 $)

>  <Rbt.Library>
libRbt.so (2013.1, Build901 2013/11/27)

>  <Rbt.Parameter_File>
/export/apps/rDock/src/rDock_2013.1_src/data/scripts/dock_solv.prm

>  <Rbt.Receptor>
prm/blind_docking_80.prm

>  <SCORE>
-28.3672

>  <SCORE.INTER>
-30.4823

>  <SCORE.INTER.CONST>
1

>  <SCORE.INTER.POLAR>
0

>  <SCORE.INTER.ROT>
7

>  <SCORE.INTER.SOLV>
14.6488

>  <SCORE.INTER.VDW>
-33.4711

>  <SCORE.INTER.norm>
-0.983301

>  <SCORE.INTRA>
2.11509

>  <SCORE.INTRA.DIHEDRAL>
3.78713

>  <SCORE.INTRA.DIHEDRAL.0>
4.64198

>  <SCORE.INTRA.POLAR>
0

>  <SCORE.INTRA.POLAR.0>
0

>  <SCORE.INTRA.REPUL>
0

>  <SCORE.INTRA.REPUL.0>
0

>  <SCORE.INTRA.SOLV>
0.883442

>  <SCORE.INTRA.SOLV.lig_0>
-49.3611

>  <SCORE.INTRA.VDW>
-0.220191

>  <SCORE.INTRA.VDW.0>
-1.91858

>  <SCORE.INTRA.norm>
0.0682288

>  <SCORE.RESTR>
0

>  <SCORE.RESTR.CAVITY>
0

>  <SCORE.RESTR.norm>
0

>  <SCORE.SYSTEM>
0

>  <SCORE.SYSTEM.CONST>
0

>  <SCORE.SYSTEM.DIHEDRAL>
0

>  <SCORE.SYSTEM.SOLV>
0

>  <SCORE.SYSTEM.norm>
0

>  <SCORE.heavy>
31

>  <SCORE.norm>
-0.915072

>  <RMSD>
4.534

$$$$
ligand
 OpenBabel11021811473D
libRbt.so/2013.1/901 2013/11/27
 31 33  0  0  0  0  0  0  0  0999 V2000
   30.2642   34.6757   13.3155 P   0  0  1  0  0  0  0  0  0  0  0  0
   29.4083   35.5128   12.3990 O   0  0  0  0  0  0  0  0  0  0  0  0
   29.5378   33.3911   13.6139 O   0  5  0  0  0  0  0  0  0  0  0  0
   31.5622   34.4398   12.5932 O   0  0  0  0  0  0  0  0  0  0  0  0
   29.5889   36.1663   15.3630 C   0  0  0  0  0  0  0  0  0  0  0  0
   30.5817   35.4009   14.7125 O   0  0  0  0  0  0  0  0  0  0  0  0
   30.0429   36.4706   16.7884 C   0  0  1  0  0  0  0  0  0  0  0  0
   31.1641   37.3313   16.7588 O   0  0  0  0  0  0  0  0  0  0  0  0
   28.9206   37.1465   17.5581 C   0  0  1  0  0  0  0  0  0  0  0  0
   27.7443   36.4065   17.3688 O   0  0  0  0  0  0  0  0  0  0  0  0
   29.2074   37.2414   19.0472 C   0  0  1  0  0  0  0  0  0  0  0  0
   30.1137   38.2910   19.2546 O   0  0  0  0  0  0  0  0  0  0  0  0
   27.9338   37.5183   19.8287 C   0  0  0  0  0  0  0  0  0  0  0  0
   28.0728   34.7489   19.3481 N   0  0  0  0  0  0  0  0  0  0  0  0
   28.0909   33.4033   19.0517 C   0  0  0  0  0  0  0  0  0  0  0  0
   28.3280   33.0279   17.9073 O   0  0  0  0  0  0  0  0  0  0  0  0
   27.8420   32.4696   20.0316 N   0  0  0  0  0  0  0  0  0  0  0  0
   27.5825   32.8738   21.3267 C   0  0  0  0  0  0  0  0  0  0  0  0
   27.5613   34.2295   21.6351 C   0  0  1  0  0  0  0  0  0  0  0  0
   27.3787   32.0329   22.2047 O   0  0  0  0  0  0  0  0  0  0  0  0
   27.2821   35.9883   23.2314 C   0  0  2  0  0  0  0  0  0  0  0  0
   27.3008   34.6405   22.9269 N   0  0  0  0  0  0  0  0  0  0  0  0
   27.0186   36.4024   24.5375 C   0  0  0  0  0  0  0  0  0  0  0  0
   26.9923   37.7557   24.8534 C   0  0  1  0  0  0  0  0  0  0  0  0
   26.7028   38.1628   26.2636 C   0  0  0  0  0  0  0  0  0  0  0  0
   27.2373   38.7095   23.8540 C   0  0  1  0  0  0  0  0  0  0  0  0
   27.2271   40.1830   24.1561 C   0  0  0  0  0  0  0  0  0  0  0  0
   27.4984   38.2932   22.5512 C   0  0  0  0  0  0  0  0  0  0  0  0
   27.5209   36.9344   22.2318 C   0  0  1  0  0  0  0  0  0  0  0  0
   27.8048   35.1691   20.6353 C   0  0  1  0  0  0  0  0  0  0  0  0
   27.7784   36.5178   20.9344 N   0  0  0  0  0  0  0  0  0  0  0  0
  1  2  1  6  0  0  0
  1  3  1  0  0  0  0
  1  4  2  0  0  0  0
  1  6  1  0  0  0  0
  5  6  1  0  0  0  0
  7  5  1  6  0  0  0
  7  8  1  0  0  0  0
  7  9  1  0  0  0  0
  9 10  1  1  0  0  0
  9 11  1  0  0  0  0
 11 12  1  6  0  0  0
 11 13  1  0  0  0  0
 13 31  1  0  0  0  0
 14 15  1  0  0  0  0
 15 16  2  0  0  0  0
 15 17  1  0  0  0  0
 17 18  1  0  0  0  0
 18 20  2  0  0  0  0
 19 18  1  1  0  0  0
 19 22  1  0  0  0  0
 19 30  1  0  0  0  0
 21 23  1  6  0  0  0
 21 29  1  0  0  0  0
 21 22  1  0  0  0  0
 23 24  1  0  0  0  0
 24 25  1  1  0  0  0
 24 26  1  0  0  0  0
 26 27  1  1  0  0  0
 26 28  1  0  0  0  0
 29 28  1  1  0  0  0
 29 31  1  0  0  0  0
 30 14  1  1  0  0  0
 30 31  1  0  0  0  0
M  CHG  1   3  -1
M  END
>  <CHROM.1>
167.36855644,38.91267857,66.92759985,48.65781528,77.46895264,127.88999598
129.69545554,28.57258942,35.78346040,19.10264887,-0.65031415,1.20620861,0.47754485

>  <Name>
ligand

>  <RI>
0

>  <Rbt.Current_Directory>
/home/itssahil/PROJECTS/Mol_Feturizer/New_Systems/rnas/3F2T

>  <Rbt.Executable>
rbdock ($Id: //depot/dev/client3/rdock/2013.1/src/exe/rbdock.cxx#4 $)

>  <Rbt.Library>
libRbt.so (2013.1, Build901 2013/11/27)

>  <Rbt.Parameter_File>
/export/apps/rDock/src/rDock_2013.1_src/data/scripts/dock_solv.prm

>  <Rbt.Receptor>
prm/pocket_docking_6.prm

>  <SCORE>
-24.5106

>  <SCORE.INTER>
-27.8968

>  <SCORE.INTER.CONST>
1

>  <SCORE.INTER.POLAR>
0

>  <SCORE.INTER.ROT>
7

>  <SCORE.INTER.SOLV>
10.3475

>  <SCORE.INTER.VDW>
-30.3137

>  <SCORE.INTER.norm>
-0.899897

>  <SCORE.INTRA>
3.38518

>  <SCORE.INTRA.DIHEDRAL>
4.70923

>  <SCORE.INTRA.DIHEDRAL.0>
4.64198

>  <SCORE.INTRA.POLAR>
0

>  <SCORE.INTRA.POLAR.0>
0

>  <SCORE.INTRA.REPUL>
0

>  <SCORE.INTRA.REPUL.0>
0

>  <SCORE.INTRA.SOLV>
-0.320653

>  <SCORE.INTRA.SOLV.lig_0>
-49.3611

>  <SCORE.INTRA.VDW>
1.19089

>  <SCORE.INTRA.VDW.0>
-1.91858

>  <SCORE.INTRA.norm>
0.109199

>  <SCORE.RESTR>
0.000988586

>  <SCORE.RESTR.CAVITY>
0.000988586

>  <SCORE.RESTR.norm>
3.18899e-05

>  <SCORE.SYSTEM>
0

>  <SCORE.SYSTEM.CONST>
0

>  <SCORE.SYSTEM.DIHEDRAL>
0

>  <SCORE.SYSTEM.SOLV>
0

>  <SCORE.SYSTEM.norm>
0

>  <SCORE.heavy>
31

>  <SCORE.norm>
-0.790666

>  <RMSD>
4.578

$$$$
ligand
 OpenBabel11021811473D
libRbt.so/2013.1/901 2013/11/27
 31 33  0  0  0  0  0  0  0  0999 V2000
   26.9065   35.4775   14.9085 P   0  0  1  0  0  0  0  0  0  0  0  0
   26.5526   36.5436   13.9029 O   0  0  0  0  0  0  0  0  0  0  0  0
   25.9687   35.5902   16.0810 O   0  5  0  0  0  0  0  0  0  0  0  0
   26.7734   34.1579   14.1993 O   0  0  0  0  0  0  0  0  0  0  0  0
   28.8835   36.8480   15.9496 C   0  0  0  0  0  0  0  0  0  0  0  0
   28.4082   35.6109   15.4612 O   0  0  0  0  0  0  0  0  0  0  0  0
   28.1718   37.1781   17.2591 C   0  0  1  0  0  0  0  0  0  0  0  0
   28.5904   36.2816   18.2690 O   0  0  0  0  0  0  0  0  0  0  0  0
   28.5047   38.5971   17.6882 C   0  0  1  0  0  0  0  0  0  0  0  0
   27.9021   39.4864   16.7863 O   0  0  0  0  0  0  0  0  0  0  0  0
   28.0155   38.9136   19.0915 C   0  0  1  0  0  0  0  0  0  0  0  0
   26.7599   38.3143   19.2652 O   0  0  0  0  0  0  0  0  0  0  0  0
   28.9771   38.3723   20.1365 C   0  0  0  0  0  0  0  0  0  0  0  0
   28.0478   35.9703   21.2706 N   0  0  0  0  0  0  0  0  0  0  0  0
   27.5582   34.7772   21.7562 C   0  0  0  0  0  0  0  0  0  0  0  0
   27.7489   33.7352   21.1361 O   0  0  0  0  0  0  0  0  0  0  0  0
   26.8508   34.7420   22.9362 N   0  0  0  0  0  0  0  0  0  0  0  0
   26.6347   35.9036   23.6517 C   0  0  0  0  0  0  0  0  0  0  0  0
   27.1243   37.1122   23.1692 C   0  0  1  0  0  0  0  0  0  0  0  0
   26.0167   35.8639   24.7176 O   0  0  0  0  0  0  0  0  0  0  0  0
   27.3995   39.4769   23.3976 C   0  0  2  0  0  0  0  0  0  0  0  0
   26.9104   38.2772   23.8783 N   0  0  0  0  0  0  0  0  0  0  0  0
   27.1824   40.6536   24.1152 C   0  0  0  0  0  0  0  0  0  0  0  0
   27.6656   41.8664   23.6382 C   0  0  1  0  0  0  0  0  0  0  0  0
   27.4108   43.1082   24.4325 C   0  0  0  0  0  0  0  0  0  0  0  0
   28.3796   41.9058   22.4310 C   0  0  1  0  0  0  0  0  0  0  0  0
   28.9270   43.1959   21.8847 C   0  0  0  0  0  0  0  0  0  0  0  0
   28.5931   40.7301   21.7163 C   0  0  0  0  0  0  0  0  0  0  0  0
   28.1047   39.5120   22.1923 C   0  0  1  0  0  0  0  0  0  0  0  0
   27.8312   37.1411   21.9688 C   0  0  1  0  0  0  0  0  0  0  0  0
   28.3143   38.3402   21.4808 N   0  0  0  0  0  0  0  0  0  0  0  0
  1  2  1  6  0  0  0
  1  3  1  0  0  0  0
  1  4  2  0  0  0  0
  1  6  1  0  0  0  0
  5  6  1  0  0  0  0
  7  5  1  6  0  0  0
  7  8  1  0  0  0  0
  7  9  1  0  0  0  0
  9 10  1  6  0  0  0
  9 11  1  0  0  0  0
 11 12  1  1  0  0  0
 11 13  1  0  0  0  0
 13 31  1  0  0  0  0
 14 15  1  0  0  0  0
 15 16  2  0  0  0  0
 15 17  1  0  0  0  0
 17 18  1  0  0  0  0
 18 20  2  0  0  0  0
 19 18  1  1  0  0  0
 19 22  1  0  0  0  0
 19 30  1  0  0  0  0
 21 23  1  6  0  0  0
 21 29  1  0  0  0  0
 21 22  1  0  0  0  0
 23 24  1  0  0  0  0
 24 25  1  1  0  0  0
 24 26  1  0  0  0  0
 26 27  1  1  0  0  0
 26 28  1  0  0  0  0
 29 28  1  1  0  0  0
 29 31  1  0  0  0  0
 30 14  1  1  0  0  0
 30 31  1  0  0  0  0
M  CHG  1   3  -1
M  END
>  <CHROM.1>
69.17564156,50.26495459,68.90471920,68.79002343,-38.99552143,-164.02351383
-74.27051333,27.60114884,37.67831652,19.89427757,-1.74282333,1.38276006,1.25810328

>  <Name>
ligand

>  <RI>
0

>  <Rbt.Current_Directory>
/home/itssahil/PROJECTS/Mol_Feturizer/New_Systems/rnas/3F2T

>  <Rbt.Executable>
rbdock ($Id: //depot/dev/client3/rdock/2013.1/src/exe/rbdock.cxx#4 $)

>  <Rbt.Library>
libRbt.so (2013.1, Build901 2013/11/27)

>  <Rbt.Parameter_File>
/export/apps/rDock/src/rDock_2013.1_src/data/scripts/dock_solv.prm

>  <Rbt.Receptor>
prm/pocket_docking_8.prm

>  <SCORE>
-22.733

>  <SCORE.INTER>
-23.7836

>  <SCORE.INTER.CONST>
1

>  <SCORE.INTER.POLAR>
0

>  <SCORE.INTER.ROT>
7

>  <SCORE.INTER.SOLV>
12.4899

>  <SCORE.INTER.VDW>
-28.2857

>  <SCORE.INTER.norm>
-0.767214

>  <SCORE.INTRA>
1.05067

>  <SCORE.INTRA.DIHEDRAL>
-0.0505173

>  <SCORE.INTRA.DIHEDRAL.0>
4.64198

>  <SCORE.INTRA.POLAR>
0

>  <SCORE.INTRA.POLAR.0>
0

>  <SCORE.INTRA.REPUL>
0

>  <SCORE.INTRA.REPUL.0>
0

>  <SCORE.INTRA.SOLV>
2.04995

>  <SCORE.INTRA.SOLV.lig_0>
-49.3611

>  <SCORE.INTRA.VDW>
0.0509541

>  <SCORE.INTRA.VDW.0>
-1.91858

>  <SCORE.INTRA.norm>
0.0338926

>  <SCORE.RESTR>
0

>  <SCORE.RESTR.CAVITY>
0

>  <SCORE.RESTR.norm>
0

>  <SCORE.SYSTEM>
0

>  <SCORE.SYSTEM.CONST>
0

>  <SCORE.SYSTEM.DIHEDRAL>
0

>  <SCORE.SYSTEM.SOLV>
0

>  <SCORE.SYSTEM.norm>
0

>  <SCORE.heavy>
31

>  <SCORE.norm>
-0.733321

>  <RMSD>
4.616

$$$$
ligand
 OpenBabel11021811473D
libRbt.so/2013.1/901 2013/11/27
 31 33  0  0  0  0  0  0  0  0999 V2000
   26.4791   34.9646   14.3162 P   0  0  1  0  0  0  0  0  0  0  0  0
   25.3328   34.3089   13.5888 O   0  0  0  0  0  0  0  0  0  0  0  0
   27.3504   33.8904   14.9110 O   0  5  0  0  0  0  0  0  0  0  0  0
   27.2141   35.7938   13.2992 O   0  0  0  0  0  0  0  0  0  0  0  0
   26.9231   36.7595   16.1741 C   0  0  0  0  0  0  0  0  0  0  0  0
   25.9970   35.9270   15.5076 O   0  0  0  0  0  0  0  0  0  0  0  0
   26.2339   37.4289   17.3603 C   0  0  1  0  0  0  0  0  0  0  0  0
   25.6866   36.4430   18.2130 O   0  0  0  0  0  0  0  0  0  0  0  0
   27.2370   38.2590   18.1436 C   0  0  1  0  0  0  0  0  0  0  0  0
   26.5616   38.8946   19.1958 O   0  0  0  0  0  0  0  0  0  0  0  0
   28.3664   37.4212   18.7193 C   0  0  1  0  0  0  0  0  0  0  0  0
   29.2387   37.0821   17.6752 O   0  0  0  0  0  0  0  0  0  0  0  0
   29.1317   38.1967   19.7787 C   0  0  0  0  0  0  0  0  0  0  0  0
   28.2458   35.7357   20.8174 N   0  0  0  0  0  0  0  0  0  0  0  0
   27.7806   34.5146   21.2547 C   0  0  0  0  0  0  0  0  0  0  0  0
   28.0287   33.4963   20.6157 O   0  0  0  0  0  0  0  0  0  0  0  0
   27.0335   34.4246   22.4070 N   0  0  0  0  0  0  0  0  0  0  0  0
   26.7526   35.5589   23.1433 C   0  0  0  0  0  0  0  0  0  0  0  0
   27.2171   36.7956   22.7095 C   0  0  1  0  0  0  0  0  0  0  0  0
   26.0990   35.4704   24.1847 O   0  0  0  0  0  0  0  0  0  0  0  0
   27.4028   39.1612   23.0074 C   0  0  2  0  0  0  0  0  0  0  0  0
   26.9385   37.9336   23.4396 N   0  0  0  0  0  0  0  0  0  0  0  0
   27.1203   40.3107   23.7462 C   0  0  0  0  0  0  0  0  0  0  0  0
   27.5782   41.5511   23.3178 C   0  0  1  0  0  0  0  0  0  0  0  0
   27.2530   42.7623   24.1335 C   0  0  0  0  0  0  0  0  0  0  0  0
   28.3326   41.6463   22.1387 C   0  0  1  0  0  0  0  0  0  0  0  0
   28.8544   42.9679   21.6454 C   0  0  0  0  0  0  0  0  0  0  0  0
   28.6115   40.4977   21.4027 C   0  0  0  0  0  0  0  0  0  0  0  0
   28.1486   39.2517   21.8298 C   0  0  1  0  0  0  0  0  0  0  0  0
   27.9647   36.8798   21.5366 C   0  0  1  0  0  0  0  0  0  0  0  0
   28.4233   38.1069   21.0970 N   0  0  0  0  0  0  0  0  0  0  0  0
  1  2  1  6  0  0  0
  1  3  1  0  0  0  0
  1  4  2  0  0  0  0
  1  6  1  0  0  0  0
  5  6  1  0  0  0  0
  7  5  1  6  0  0  0
  7  8  1  0  0  0  0
  7  9  1  0  0  0  0
  9 10  1  1  0  0  0
  9 11  1  0  0  0  0
 11 12  1  6  0  0  0
 11 13  1  0  0  0  0
 13 31  1  0  0  0  0
 14 15  1  0  0  0  0
 15 16  2  0  0  0  0
 15 17  1  0  0  0  0
 17 18  1  0  0  0  0
 18 20  2  0  0  0  0
 19 18  1  1  0  0  0
 19 22  1  0  0  0  0
 19 30  1  0  0  0  0
 21 23  1  6  0  0  0
 21 29  1  0  0  0  0
 21 22  1  0  0  0  0
 23 24  1  0  0  0  0
 24 25  1  1  0  0  0
 24 26  1  0  0  0  0
 26 27  1  1  0  0  0
 26 28  1  0  0  0  0
 29 28  1  1  0  0  0
 29 31  1  0  0  0  0
 30 14  1  1  0  0  0
 30 31  1  0  0  0  0
M  CHG  1   3  -1
M  END
>  <CHROM.1>
-173.11160831,-171.36031103,56.43918323,177.99139162,75.05922262,82.92083945
-129.54951108,27.33772012,37.30355521,19.58047909,-2.44056405,1.42530983
1.90800036

>  <Name>
ligand

>  <RI>
0

>  <Rbt.Current_Directory>
/home/itssahil/PROJECTS/Mol_Feturizer/New_Systems/rnas/3F2T

>  <Rbt.Executable>
rbdock ($Id: //depot/dev/client3/rdock/2013.1/src/exe/rbdock.cxx#4 $)

>  <Rbt.Library>
libRbt.so (2013.1, Build901 2013/11/27)

>  <Rbt.Parameter_File>
/export/apps/rDock/src/rDock_2013.1_src/data/scripts/dock_solv.prm

>  <Rbt.Receptor>
prm/blind_docking_100.prm

>  <SCORE>
-24.7849

>  <SCORE.INTER>
-26.1366

>  <SCORE.INTER.CONST>
1

>  <SCORE.INTER.POLAR>
0

>  <SCORE.INTER.ROT>
7

>  <SCORE.INTER.SOLV>
15.27

>  <SCORE.INTER.VDW>
-30.781

>  <SCORE.INTER.norm>
-0.843116

>  <SCORE.INTRA>
1.35169

>  <SCORE.INTRA.DIHEDRAL>
-0.486061

>  <SCORE.INTRA.DIHEDRAL.0>
4.64198

>  <SCORE.INTRA.POLAR>
0

>  <SCORE.INTRA.POLAR.0>
0

>  <SCORE.INTRA.REPUL>
0

>  <SCORE.INTRA.REPUL.0>
0

>  <SCORE.INTRA.SOLV>
0.277563

>  <SCORE.INTRA.SOLV.lig_0>
-49.3611

>  <SCORE.INTRA.VDW>
1.45593

>  <SCORE.INTRA.VDW.0>
-1.91858

>  <SCORE.INTRA.norm>
0.0436028

>  <SCORE.RESTR>
0

>  <SCORE.RESTR.CAVITY>
0

>  <SCORE.RESTR.norm>
0

>  <SCORE.SYSTEM>
0

>  <SCORE.SYSTEM.CONST>
0

>  <SCORE.SYSTEM.DIHEDRAL>
0

>  <SCORE.SYSTEM.SOLV>
0

>  <SCORE.SYSTEM.norm>
0

>  <SCORE.heavy>
31

>  <SCORE.norm>
-0.799513

>  <RMSD>
4.649

$$$$
ligand
 OpenBabel11021811473D
libRbt.so/2013.1/901 2013/11/27
 31 33  0  0  0  0  0  0  0  0999 V2000
   24.7570   33.1882   15.8814 P   0  0  1  0  0  0  0  0  0  0  0  0
   25.7874   32.3460   15.1728 O   0  0  0  0  0  0  0  0  0  0  0  0
   23.6238   33.4657   14.9296 O   0  5  0  0  0  0  0  0  0  0  0  0
   24.3105   32.3996   17.0818 O   0  0  0  0  0  0  0  0  0  0  0  0
   24.5765   35.4200   17.2441 C   0  0  0  0  0  0  0  0  0  0  0  0
   25.3379   34.5982   16.3840 O   0  0  0  0  0  0  0  0  0  0  0  0
   25.3837   36.6683   17.5910 C   0  0  1  0  0  0  0  0  0  0  0  0
   24.6313   37.4992   18.4526 O   0  0  0  0  0  0  0  0  0  0  0  0
   26.6758   36.2749   18.2870 C   0  0  1  0  0  0  0  0  0  0  0  0
   27.4732   35.5673   17.3755 O   0  0  0  0  0  0  0  0  0  0  0  0
   27.4563   37.4761   18.7937 C   0  0  1  0  0  0  0  0  0  0  0  0
   26.6061   38.2436   19.6025 O   0  0  0  0  0  0  0  0  0  0  0  0
   28.6605   37.0361   19.6097 C   0  0  0  0  0  0  0  0  0  0  0  0
   28.5454   34.2526   19.2107 N   0  0  0  0  0  0  0  0  0  0  0  0
   28.4501   32.9034   18.9473 C   0  0  0  0  0  0  0  0  0  0  0  0
   28.8053   32.4619   17.8584 O   0  0  0  0  0  0  0  0  0  0  0  0
   27.9553   32.0402   19.8981 N   0  0  0  0  0  0  0  0  0  0  0  0
   27.5596   32.5184   21.1321 C   0  0  0  0  0  0  0  0  0  0  0  0
   27.6514   33.8784   21.4066 C   0  0  1  0  0  0  0  0  0  0  0  0
   27.1347   31.7386   21.9870 O   0  0  0  0  0  0  0  0  0  0  0  0
   27.3499   35.7151   22.9083 C   0  0  2  0  0  0  0  0  0  0  0  0
   27.2560   34.3634   22.6372 N   0  0  0  0  0  0  0  0  0  0  0  0
   26.9497   36.2040   24.1524 C   0  0  0  0  0  0  0  0  0  0  0  0
   27.0351   37.5625   24.4338 C   0  0  1  0  0  0  0  0  0  0  0  0
   26.5936   38.0511   25.7770 C   0  0  0  0  0  0  0  0  0  0  0  0
   27.5312   38.4454   23.4627 C   0  0  1  0  0  0  0  0  0  0  0  0
   27.6484   39.9209   23.7303 C   0  0  0  0  0  0  0  0  0  0  0  0
   27.9282   37.9548   22.2216 C   0  0  0  0  0  0  0  0  0  0  0  0
   27.8389   36.5911   21.9364 C   0  0  1  0  0  0  0  0  0  0  0  0
   28.1444   34.7473   20.4353 C   0  0  1  0  0  0  0  0  0  0  0  0
   28.2316   36.1007   20.7000 N   0  0  0  0  0  0  0  0  0  0  0  0
  1  2  1  6  0  0  0
  1  3  1  0  0  0  0
  1  4  2  0  0  0  0
  1  6  1  0  0  0  0
  5  6  1  0  0  0  0
  7  5  1  1  0  0  0
  7  8  1  0  0  0  0
  7  9  1  0  0  0  0
  9 10  1  6  0  0  0
  9 11  1  0  0  0  0
 11 12  1  1  0  0  0
 11 13  1  0  0  0  0
 13 31  1  0  0  0  0
 14 15  1  0  0  0  0
 15 16  2  0  0  0  0
 15 17  1  0  0  0  0
 17 18  1  0  0  0  0
 18 20  2  0  0  0  0
 19 18  1  1  0  0  0
 19 22  1  0  0  0  0
 19 30  1  0  0  0  0
 21 23  1  6  0  0  0
 21 29  1  0  0  0  0
 21 22  1  0  0  0  0
 23 24  1  0  0  0  0
 24 25  1  1  0  0  0
 24 26  1  0  0  0  0
 26 27  1  1  0  0  0
 26 28  1  0  0  0  0
 29 28  1  1  0  0  0
 29 31  1  0  0  0  0
 30 14  1  1  0  0  0
 30 31  1  0  0  0  0
M  CHG  1   3  -1
M  END
>  <CHROM.1>
178.32592776,-170.06503726,-179.98530067,65.63144949,54.10771675,-53.57820961
-88.34363530,26.75172401,35.21138467,19.66608466,2.16871138,1.11633811,-2.63786065

>  <Name>
ligand

>  <RI>
0

>  <Rbt.Current_Directory>
/home/itssahil/PROJECTS/Mol_Feturizer/New_Systems/rnas/3F2T

>  <Rbt.Executable>
rbdock ($Id: //depot/dev/client3/rdock/2013.1/src/exe/rbdock.cxx#4 $)

>  <Rbt.Library>
libRbt.so (2013.1, Build901 2013/11/27)

>  <Rbt.Parameter_File>
/export/apps/rDock/src/rDock_2013.1_src/data/scripts/dock_solv.prm

>  <Rbt.Receptor>
prm/pocket_docking_6.prm

>  <SCORE>
-29.6699

>  <SCORE.INTER>
-29.7205

>  <SCORE.INTER.CONST>
1

>  <SCORE.INTER.POLAR>
0

>  <SCORE.INTER.ROT>
7

>  <SCORE.INTER.SOLV>
17.2569

>  <SCORE.INTER.VDW>
-33.8326

>  <SCORE.INTER.norm>
-0.958726

>  <SCORE.INTRA>
0.0506199

>  <SCORE.INTRA.DIHEDRAL>
-3.02954

>  <SCORE.INTRA.DIHEDRAL.0>
4.64198

>  <SCORE.INTRA.POLAR>
0

>  <SCORE.INTRA.POLAR.0>
0

>  <SCORE.INTRA.REPUL>
0

>  <SCORE.INTRA.REPUL.0>
0

>  <SCORE.INTRA.SOLV>
1.13637

>  <SCORE.INTRA.SOLV.lig_0>
-49.3611

>  <SCORE.INTRA.VDW>
0.997206

>  <SCORE.INTRA.VDW.0>
-1.91858

>  <SCORE.INTRA.norm>
0.0016329

>  <SCORE.RESTR>
0

>  <SCORE.RESTR.CAVITY>
0

>  <SCORE.RESTR.norm>
0

>  <SCORE.SYSTEM>
0

>  <SCORE.SYSTEM.CONST>
0

>  <SCORE.SYSTEM.DIHEDRAL>
0

>  <SCORE.SYSTEM.SOLV>
0

>  <SCORE.SYSTEM.norm>
0

>  <SCORE.heavy>
31

>  <SCORE.norm>
-0.957093

>  <RMSD>
4.681

$$$$
ligand
 OpenBabel11021811473D
libRbt.so/2013.1/901 2013/11/27
 31 33  0  0  0  0  0  0  0  0999 V2000
   26.8021   42.8311   16.5327 P   0  0  1  0  0  0  0  0  0  0  0  0
   28.1719   43.1650   15.9985 O   0  0  0  0  0  0  0  0  0  0  0  0
   25.7812   43.6492   15.7875 O   0  5  0  0  0  0  0  0  0  0  0  0
   26.6088   41.3542   16.3239 O   0  0  0  0  0  0  0  0  0  0  0  0
   26.7219   42.1108   19.0517 C   0  0  0  0  0  0  0  0  0  0  0  0
   26.6450   43.1502   18.0985 O   0  0  0  0  0  0  0  0  0  0  0  0
   28.1329   41.5283   19.0469 C   0  0  1  0  0  0  0  0  0  0  0  0
   28.6163   41.4372   20.3723 O   0  0  0  0  0  0  0  0  0  0  0  0
   28.1200   40.1404   18.4285 C   0  0  1  0  0  0  0  0  0  0  0  0
   29.4367   39.7913   18.0940 O   0  0  0  0  0  0  0  0  0  0  0  0
   27.5557   39.0872   19.3672 C   0  0  1  0  0  0  0  0  0  0  0  0
   27.1448   37.9884   18.5993 O   0  0  0  0  0  0  0  0  0  0  0  0
   28.6055   38.6336   20.3680 C   0  0  0  0  0  0  0  0  0  0  0  0
   27.7481   39.5066   22.9023 N   0  0  0  0  0  0  0  0  0  0  0  0
   27.3977   39.9721   24.1510 C   0  0  0  0  0  0  0  0  0  0  0  0
   27.4941   41.1677   24.4120 O   0  0  0  0  0  0  0  0  0  0  0  0
   26.9400   39.1041   25.1160 N   0  0  0  0  0  0  0  0  0  0  0  0
   26.8166   37.7571   24.8368 C   0  0  0  0  0  0  0  0  0  0  0  0
   27.1684   37.2781   23.5798 C   0  0  1  0  0  0  0  0  0  0  0  0
   26.3883   36.9866   25.6985 O   0  0  0  0  0  0  0  0  0  0  0  0
   27.3979   35.4592   22.0439 C   0  0  2  0  0  0  0  0  0  0  0  0
   27.0493   35.9326   23.2945 N   0  0  0  0  0  0  0  0  0  0  0  0
   27.2771   34.0991   21.7570 C   0  0  0  0  0  0  0  0  0  0  0  0
   27.6298   33.6116   20.5040 C   0  0  1  0  0  0  0  0  0  0  0  0
   27.4905   32.1470   20.2333 C   0  0  0  0  0  0  0  0  0  0  0  0
   28.1048   34.4935   19.5215 C   0  0  1  0  0  0  0  0  0  0  0  0
   28.4885   34.0081   18.1506 C   0  0  0  0  0  0  0  0  0  0  0  0
   28.2258   35.8500   19.8115 C   0  0  0  0  0  0  0  0  0  0  0  0
   27.8758   36.3402   21.0709 C   0  0  1  0  0  0  0  0  0  0  0  0
   27.6402   38.1617   22.6112 C   0  0  1  0  0  0  0  0  0  0  0  0
   27.9978   37.6905   21.3624 N   0  0  0  0  0  0  0  0  0  0  0  0
  1  2  1  6  0  0  0
  1  3  1  0  0  0  0
  1  4  2  0  0  0  0
  1  6  1  0  0  0  0
  5  6  1  0  0  0  0
  7  5  1  1  0  0  0
  7  8  1  0  0  0  0
  7  9  1  0  0  0  0
  9 10  1  1  0  0  0
  9 11  1  0  0  0  0
 11 12  1  6  0  0  0
 11 13  1  0  0  0  0
 13 31  1  0  0  0  0
 14 15  1  0  0  0  0
 15 16  2  0  0  0  0
 15 17  1  0  0  0  0
 17 18  1  0  0  0  0
 18 20  2  0  0  0  0
 19 18  1  6  0  0  0
 19 22  1  0  0  0  0
 19 30  1  0  0  0  0
 21 23  1  1  0  0  0
 21 29  1  0  0  0  0
 21 22  1  0  0  0  0
 23 24  1  0  0  0  0
 24 25  1  6  0  0  0
 24 26  1  0  0  0  0
 26 27  1  6  0  0  0
 26 28  1  0  0  0  0
 29 28  1  6  0  0  0
 29 31  1  0  0  0  0
 30 14  1  6  0  0  0
 30 31  1  0  0  0  0
M  CHG  1   3  -1
M  END
>  <CHROM.1>
65.61862517,-101.24958466,131.38568729,163.60584162,159.41987805,174.82697081
84.05036663,27.49561044,38.85328567,20.28915268,-1.87329948,-1.46492222,2.17114581

>  <Name>
ligand

>  <RI>
0

>  <Rbt.Current_Directory>
/home/itssahil/PROJECTS/Mol_Feturizer/New_Systems/rnas/3F2T

>  <Rbt.Executable>
rbdock ($Id: //depot/dev/client3/rdock/2013.1/src/exe/rbdock.cxx#4 $)

>  <Rbt.Library>
libRbt.so (2013.1, Build901 2013/11/27)

>  <Rbt.Parameter_File>
/export/apps/rDock/src/rDock_2013.1_src/data/scripts/dock_solv.prm

>  <Rbt.Receptor>
prm/pocket_docking_2.prm

>  <SCORE>
-18.1358

>  <SCORE.INTER>
-24.9767

>  <SCORE.INTER.CONST>
1

>  <SCORE.INTER.POLAR>
0

>  <SCORE.INTER.ROT>
7

>  <SCORE.INTER.SOLV>
17.4165

>  <SCORE.INTER.VDW>
-30.7233

>  <SCORE.INTER.norm>
-0.805701

>  <SCORE.INTRA>
5.89491

>  <SCORE.INTRA.DIHEDRAL>
6.02481

>  <SCORE.INTRA.DIHEDRAL.0>
4.64198

>  <SCORE.INTRA.POLAR>
0

>  <SCORE.INTRA.POLAR.0>
0

>  <SCORE.INTRA.REPUL>
0

>  <SCORE.INTRA.REPUL.0>
0

>  <SCORE.INTRA.SOLV>
2.9773

>  <SCORE.INTRA.SOLV.lig_0>
-49.3611

>  <SCORE.INTRA.VDW>
1.39385

>  <SCORE.INTRA.VDW.0>
-1.91858

>  <SCORE.INTRA.norm>
0.190158

>  <SCORE.RESTR>
0.946022

>  <SCORE.RESTR.CAVITY>
0.946022

>  <SCORE.RESTR.norm>
0.0305168

>  <SCORE.SYSTEM>
0

>  <SCORE.SYSTEM.CONST>
0

>  <SCORE.SYSTEM.DIHEDRAL>
0

>  <SCORE.SYSTEM.SOLV>
0

>  <SCORE.SYSTEM.norm>
0

>  <SCORE.heavy>
31

>  <SCORE.norm>
-0.585026

>  <RMSD>
4.693

$$$$
ligand
 OpenBabel11021811473D
libRbt.so/2013.1/901 2013/11/27
 31 33  0  0  0  0  0  0  0  0999 V2000
   25.9844   43.6296   16.6170 P   0  0  1  0  0  0  0  0  0  0  0  0
   25.6829   43.5096   18.0894 O   0  0  0  0  0  0  0  0  0  0  0  0
   24.7366   44.0787   15.9042 O   0  5  0  0  0  0  0  0  0  0  0  0
   27.1026   44.6271   16.4883 O   0  0  0  0  0  0  0  0  0  0  0  0
   27.5553   41.5347   16.4972 C   0  0  0  0  0  0  0  0  0  0  0  0
   26.4585   42.2435   15.9593 O   0  0  0  0  0  0  0  0  0  0  0  0
   27.2269   41.1099   17.9261 C   0  0  1  0  0  0  0  0  0  0  0  0
   25.8327   40.9167   18.0583 O   0  0  0  0  0  0  0  0  0  0  0  0
   27.9401   39.8101   18.2589 C   0  0  1  0  0  0  0  0  0  0  0  0
   29.3102   40.0780   18.3952 O   0  0  0  0  0  0  0  0  0  0  0  0
   27.4328   39.1770   19.5437 C   0  0  1  0  0  0  0  0  0  0  0  0
   26.2480   38.4850   19.2549 O   0  0  0  0  0  0  0  0  0  0  0  0
   28.4546   38.2051   20.1101 C   0  0  0  0  0  0  0  0  0  0  0  0
   27.7200   39.6614   22.4035 N   0  0  0  0  0  0  0  0  0  0  0  0
   27.4298   40.4129   23.5215 C   0  0  0  0  0  0  0  0  0  0  0  0
   27.5313   41.6357   23.4850 O   0  0  0  0  0  0  0  0  0  0  0  0
   27.0270   39.8023   24.6872 N   0  0  0  0  0  0  0  0  0  0  0  0
   26.8985   38.4282   24.7434 C   0  0  0  0  0  0  0  0  0  0  0  0
   27.1898   37.6616   23.6205 C   0  0  1  0  0  0  0  0  0  0  0  0
   26.5192   37.8876   25.7843 O   0  0  0  0  0  0  0  0  0  0  0  0
   27.3537   35.5281   22.5525 C   0  0  2  0  0  0  0  0  0  0  0  0
   27.0654   36.2877   23.6703 N   0  0  0  0  0  0  0  0  0  0  0  0
   27.2276   34.1395   22.6041 C   0  0  0  0  0  0  0  0  0  0  0  0
   27.5200   33.3656   21.4872 C   0  0  1  0  0  0  0  0  0  0  0  0
   27.3769   31.8794   21.5805 C   0  0  0  0  0  0  0  0  0  0  0  0
   27.9392   33.9855   20.3003 C   0  0  1  0  0  0  0  0  0  0  0  0
   28.2566   33.1854   19.0669 C   0  0  0  0  0  0  0  0  0  0  0  0
   28.0656   35.3713   20.2524 C   0  0  0  0  0  0  0  0  0  0  0  0
   27.7763   36.1492   21.3749 C   0  0  1  0  0  0  0  0  0  0  0  0
   27.6065   38.2865   22.4469 C   0  0  1  0  0  0  0  0  0  0  0  0
   27.9038   37.5294   21.3298 N   0  0  0  0  0  0  0  0  0  0  0  0
  1  2  1  1  0  0  0
  1  3  1  0  0  0  0
  1  4  2  0  0  0  0
  1  6  1  0  0  0  0
  5  6  1  0  0  0  0
  7  5  1  6  0  0  0
  7  8  1  0  0  0  0
  7  9  1  0  0  0  0
  9 10  1  1  0  0  0
  9 11  1  0  0  0  0
 11 12  1  6  0  0  0
 11 13  1  0  0  0  0
 13 31  1  0  0  0  0
 14 15  1  0  0  0  0
 15 16  2  0  0  0  0
 15 17  1  0  0  0  0
 17 18  1  0  0  0  0
 18 20  2  0  0  0  0
 19 18  1  6  0  0  0
 19 22  1  0  0  0  0
 19 30  1  0  0  0  0
 21 23  1  1  0  0  0
 21 29  1  0  0  0  0
 21 22  1  0  0  0  0
 23 24  1  0  0  0  0
 24 25  1  6  0  0  0
 24 26  1  0  0  0  0
 26 27  1  6  0  0  0
 26 28  1  0  0  0  0
 29 28  1  6  0  0  0
 29 31  1  0  0  0  0
 30 14  1  6  0  0  0
 30 31  1  0  0  0  0
M  CHG  1   3  -1
M  END
>  <CHROM.1>
62.70130946,-55.09763413,29.60090721,71.65867524,80.79373913,-176.58052255
120.60699576,27.15403829,39.03254741,20.24294036,-2.50069587,-1.42230476
1.59298374

>  <Name>
ligand

>  <RI>
0

>  <Rbt.Current_Directory>
/home/itssahil/PROJECTS/Mol_Feturizer/New_Systems/rnas/3F2T

>  <Rbt.Executable>
rbdock ($Id: //depot/dev/client3/rdock/2013.1/src/exe/rbdock.cxx#4 $)

>  <Rbt.Library>
libRbt.so (2013.1, Build901 2013/11/27)

>  <Rbt.Parameter_File>
/export/apps/rDock/src/rDock_2013.1_src/data/scripts/dock_solv.prm

>  <Rbt.Receptor>
prm/pocket_docking_2.prm

>  <SCORE>
-19.5559

>  <SCORE.INTER>
-23.0941

>  <SCORE.INTER.CONST>
1

>  <SCORE.INTER.POLAR>
0

>  <SCORE.INTER.ROT>
7

>  <SCORE.INTER.SOLV>
17.5246

>  <SCORE.INTER.VDW>
-29.5043

>  <SCORE.INTER.norm>
-0.744971

>  <SCORE.INTRA>
3.05317

>  <SCORE.INTRA.DIHEDRAL>
1.30493

>  <SCORE.INTRA.DIHEDRAL.0>
4.64198

>  <SCORE.INTRA.POLAR>
0

>  <SCORE.INTRA.POLAR.0>
0

>  <SCORE.INTRA.REPUL>
0

>  <SCORE.INTRA.REPUL.0>
0

>  <SCORE.INTRA.SOLV>
1.27947

>  <SCORE.INTRA.SOLV.lig_0>
-49.3611

>  <SCORE.INTRA.VDW>
1.76098

>  <SCORE.INTRA.VDW.0>
-1.91858

>  <SCORE.INTRA.norm>
0.0984895

>  <SCORE.RESTR>
0.485025

>  <SCORE.RESTR.CAVITY>
0.485025

>  <SCORE.RESTR.norm>
0.015646

>  <SCORE.SYSTEM>
0

>  <SCORE.SYSTEM.CONST>
0

>  <SCORE.SYSTEM.DIHEDRAL>
0

>  <SCORE.SYSTEM.SOLV>
0

>  <SCORE.SYSTEM.norm>
0

>  <SCORE.heavy>
31

>  <SCORE.norm>
-0.630836

>  <RMSD>
4.699

$$$$
ligand
 OpenBabel11021811473D
libRbt.so/2013.1/901 2013/11/27
 31 33  0  0  0  0  0  0  0  0999 V2000
   26.5125   43.1463   16.8977 P   0  0  1  0  0  0  0  0  0  0  0  0
   26.9491   42.8513   15.4850 O   0  0  0  0  0  0  0  0  0  0  0  0
   25.6030   44.3461   16.8807 O   0  5  0  0  0  0  0  0  0  0  0  0
   25.8145   41.9114   17.3975 O   0  0  0  0  0  0  0  0  0  0  0  0
   28.8342   42.5811   17.9748 C   0  0  0  0  0  0  0  0  0  0  0  0
   27.7415   43.4707   17.8788 O   0  0  0  0  0  0  0  0  0  0  0  0
   28.4003   41.3331   18.7393 C   0  0  1  0  0  0  0  0  0  0  0  0
   29.3260   40.2887   18.5131 O   0  0  0  0  0  0  0  0  0  0  0  0
   28.3430   41.6294   20.2285 C   0  0  1  0  0  0  0  0  0  0  0  0
   27.4814   42.7173   20.4316 O   0  0  0  0  0  0  0  0  0  0  0  0
   27.8422   40.4472   21.0411 C   0  0  1  0  0  0  0  0  0  0  0  0
   26.7977   39.8371   20.3321 O   0  0  0  0  0  0  0  0  0  0  0  0
   28.9524   39.4343   21.2667 C   0  0  0  0  0  0  0  0  0  0  0  0
   27.5092   38.5820   23.5273 N   0  0  0  0  0  0  0  0  0  0  0  0
   26.8606   38.1945   24.6797 C   0  0  0  0  0  0  0  0  0  0  0  0
   26.6710   39.0050   25.5819 O   0  0  0  0  0  0  0  0  0  0  0  0
   26.4225   36.8988   24.8317 N   0  0  0  0  0  0  0  0  0  0  0  0
   26.6192   35.9759   23.8230 C   0  0  0  0  0  0  0  0  0  0  0  0
   27.2733   36.3576   22.6568 C   0  0  1  0  0  0  0  0  0  0  0  0
   26.2081   34.8215   23.9562 O   0  0  0  0  0  0  0  0  0  0  0  0
   28.1237   35.8220   20.4867 C   0  0  2  0  0  0  0  0  0  0  0  0
   27.4750   35.4399   21.6454 N   0  0  0  0  0  0  0  0  0  0  0  0
   28.3270   34.8935   19.4652 C   0  0  0  0  0  0  0  0  0  0  0  0
   28.9828   35.2659   18.2977 C   0  0  1  0  0  0  0  0  0  0  0  0
   29.1861   34.2427   17.2255 C   0  0  0  0  0  0  0  0  0  0  0  0
   29.4380   36.5842   18.1444 C   0  0  1  0  0  0  0  0  0  0  0  0
   30.1440   37.0301   16.8933 C   0  0  0  0  0  0  0  0  0  0  0  0
   29.2351   37.5081   19.1661 C   0  0  0  0  0  0  0  0  0  0  0  0
   28.5802   37.1341   20.3409 C   0  0  1  0  0  0  0  0  0  0  0  0
   27.7226   37.6688   22.5145 C   0  0  1  0  0  0  0  0  0  0  0  0
   28.3792   38.0522   21.3607 N   0  0  0  0  0  0  0  0  0  0  0  0
  1  2  1  6  0  0  0
  1  3  1  0  0  0  0
  1  4  2  0  0  0  0
  1  6  1  0  0  0  0
  5  6  1  0  0  0  0
  7  5  1  6  0  0  0
  7  8  1  0  0  0  0
  7  9  1  0  0  0  0
  9 10  1  6  0  0  0
  9 11  1  0  0  0  0
 11 12  1  6  0  0  0
 11 13  1  0  0  0  0
 13 31  1  0  0  0  0
 14 15  1  0  0  0  0
 15 16  2  0  0  0  0
 15 17  1  0  0  0  0
 17 18  1  0  0  0  0
 18 20  2  0  0  0  0
 19 18  1  6  0  0  0
 19 22  1  0  0  0  0
 19 30  1  0  0  0  0
 21 23  1  1  0  0  0
 21 29  1  0  0  0  0
 21 22  1  0  0  0  0
 23 24  1  0  0  0  0
 24 25  1  6  0  0  0
 24 26  1  0  0  0  0
 26 27  1  6  0  0  0
 26 28  1  0  0  0  0
 29 28  1  6  0  0  0
 29 31  1  0  0  0  0
 30 14  1  6  0  0  0
 30 31  1  0  0  0  0
M  CHG  1   3  -1
M  END
>  <CHROM.1>
-72.60162946,-52.67691132,162.97496090,56.25166022,-39.82125203,-149.27610565
108.97210111,27.70800943,39.14544270,20.05012540,1.67905962,1.20644278,-0.77901741

>  <Name>
ligand

>  <RI>
0

>  <Rbt.Current_Directory>
/home/itssahil/PROJECTS/Mol_Feturizer/New_Systems/rnas/3F2T

>  <Rbt.Executable>
rbdock ($Id: //depot/dev/client3/rdock/2013.1/src/exe/rbdock.cxx#4 $)

>  <Rbt.Library>
libRbt.so (2013.1, Build901 2013/11/27)

>  <Rbt.Parameter_File>
/export/apps/rDock/src/rDock_2013.1_src/data/scripts/dock_solv.prm

>  <Rbt.Receptor>
prm/pocket_docking_3.prm

>  <SCORE>
-24.0356

>  <SCORE.INTER>
-26.8022

>  <SCORE.INTER.CONST>
1

>  <SCORE.INTER.POLAR>
0

>  <SCORE.INTER.ROT>
7

>  <SCORE.INTER.SOLV>
15.718

>  <SCORE.INTER.VDW>
-31.3741

>  <SCORE.INTER.norm>
-0.864587

>  <SCORE.INTRA>
2.76455

>  <SCORE.INTRA.DIHEDRAL>
2.6186

>  <SCORE.INTRA.DIHEDRAL.0>
4.64198

>  <SCORE.INTRA.POLAR>
0

>  <SCORE.INTRA.POLAR.0>
0

>  <SCORE.INTRA.REPUL>
0

>  <SCORE.INTRA.REPUL.0>
0

>  <SCORE.INTRA.SOLV>
3.25934

>  <SCORE.INTRA.SOLV.lig_0>
-49.3611

>  <SCORE.INTRA.VDW>
-0.174417

>  <SCORE.INTRA.VDW.0>
-1.91858

>  <SCORE.INTRA.norm>
0.089179

>  <SCORE.RESTR>
0.00209184

>  <SCORE.RESTR.CAVITY>
0.00209184

>  <SCORE.RESTR.norm>
6.74789e-05

>  <SCORE.SYSTEM>
0

>  <SCORE.SYSTEM.CONST>
0

>  <SCORE.SYSTEM.DIHEDRAL>
0

>  <SCORE.SYSTEM.SOLV>
0

>  <SCORE.SYSTEM.norm>
0

>  <SCORE.heavy>
31

>  <SCORE.norm>
-0.775341

>  <RMSD>
4.702

$$$$
ligand
 OpenBabel11021811473D
libRbt.so/2013.1/901 2013/11/27
 31 33  0  0  0  0  0  0  0  0999 V2000
   25.7658   43.7659   16.9413 P   0  0  1  0  0  0  0  0  0  0  0  0
   24.8758   43.9545   18.1436 O   0  0  0  0  0  0  0  0  0  0  0  0
   24.9000   43.5225   15.7338 O   0  5  0  0  0  0  0  0  0  0  0  0
   26.5822   45.0223   16.8110 O   0  0  0  0  0  0  0  0  0  0  0  0
   26.3520   41.3450   17.7573 C   0  0  0  0  0  0  0  0  0  0  0  0
   26.7670   42.5197   17.0919 O   0  0  0  0  0  0  0  0  0  0  0  0
   26.4665   41.5545   19.2650 C   0  0  1  0  0  0  0  0  0  0  0  0
   25.2632   41.1610   19.8943 O   0  0  0  0  0  0  0  0  0  0  0  0
   27.6102   40.7224   19.8201 C   0  0  1  0  0  0  0  0  0  0  0  0
   28.7809   41.0566   19.1236 O   0  0  0  0  0  0  0  0  0  0  0  0
   27.8372   40.9567   21.3041 C   0  0  1  0  0  0  0  0  0  0  0  0
   26.6181   40.7685   21.9706 O   0  0  0  0  0  0  0  0  0  0  0  0
   28.8648   39.9828   21.8564 C   0  0  0  0  0  0  0  0  0  0  0  0
   27.3668   38.8075   23.9287 N   0  0  0  0  0  0  0  0  0  0  0  0
   26.6880   38.2585   24.9948 C   0  0  0  0  0  0  0  0  0  0  0  0
   26.4246   38.9459   25.9771 O   0  0  0  0  0  0  0  0  0  0  0  0
   26.3018   36.9378   24.9705 N   0  0  0  0  0  0  0  0  0  0  0  0
   26.5818   36.1521   23.8695 C   0  0  0  0  0  0  0  0  0  0  0  0
   27.2670   36.6973   22.7893 C   0  0  1  0  0  0  0  0  0  0  0  0
   26.2172   34.9748   23.8447 O   0  0  0  0  0  0  0  0  0  0  0  0
   28.2312   36.4618   20.6134 C   0  0  2  0  0  0  0  0  0  0  0  0
   27.5517   35.9172   21.6865 N   0  0  0  0  0  0  0  0  0  0  0  0
   28.5185   35.6722   19.4995 C   0  0  0  0  0  0  0  0  0  0  0  0
   29.2058   36.2085   18.4169 C   0  0  1  0  0  0  0  0  0  0  0  0
   29.4995   35.3312   17.2413 C   0  0  0  0  0  0  0  0  0  0  0  0
   29.6081   37.5524   18.4434 C   0  0  1  0  0  0  0  0  0  0  0  0
   30.3457   38.1736   17.2891 C   0  0  0  0  0  0  0  0  0  0  0  0
   29.3214   38.3373   19.5571 C   0  0  0  0  0  0  0  0  0  0  0  0
   28.6347   37.7986   20.6468 C   0  0  1  0  0  0  0  0  0  0  0  0
   27.6632   38.0327   22.8256 C   0  0  1  0  0  0  0  0  0  0  0  0
   28.3502   38.5781   21.7579 N   0  0  0  0  0  0  0  0  0  0  0  0
  1  2  1  1  0  0  0
  1  3  1  0  0  0  0
  1  4  2  0  0  0  0
  1  6  1  0  0  0  0
  5  6  1  0  0  0  0
  7  5  1  6  0  0  0
  7  8  1  0  0  0  0
  7  9  1  0  0  0  0
  9 10  1  6  0  0  0
  9 11  1  0  0  0  0
 11 12  1  1  0  0  0
 11 13  1  0  0  0  0
 13 31  1  0  0  0  0
 14 15  1  0  0  0  0
 15 16  2  0  0  0  0
 15 17  1  0  0  0  0
 17 18  1  0  0  0  0
 18 20  2  0  0  0  0
 19 18  1  6  0  0  0
 19 22  1  0  0  0  0
 19 30  1  0  0  0  0
 21 23  1  1  0  0  0
 21 29  1  0  0  0  0
 21 22  1  0  0  0  0
 23 24  1  0  0  0  0
 24 25  1  6  0  0  0
 24 26  1  0  0  0  0
 26 27  1  6  0  0  0
 26 28  1  0  0  0  0
 29 28  1  6  0  0  0
 29 31  1  0  0  0  0
 30 14  1  6  0  0  0
 30 31  1  0  0  0  0
M  CHG  1   3  -1
M  END
>  <CHROM.1>
-80.53515881,35.92598807,130.74547067,55.61680805,52.94920477,-64.10931265
92.30357294,27.30392654,39.52613069,20.25212728,1.86428496,1.02946538,-0.98830386

>  <Name>
ligand

>  <RI>
0

>  <Rbt.Current_Directory>
/home/itssahil/PROJECTS/Mol_Feturizer/New_Systems/rnas/3F2T

>  <Rbt.Executable>
rbdock ($Id: //depot/dev/client3/rdock/2013.1/src/exe/rbdock.cxx#4 $)

>  <Rbt.Library>
libRbt.so (2013.1, Build901 2013/11/27)

>  <Rbt.Parameter_File>
/export/apps/rDock/src/rDock_2013.1_src/data/scripts/dock_solv.prm

>  <Rbt.Receptor>
prm/pocket_docking_3.prm

>  <SCORE>
-22.1192

>  <SCORE.INTER>
-24.5336

>  <SCORE.INTER.CONST>
1

>  <SCORE.INTER.POLAR>
0

>  <SCORE.INTER.ROT>
7

>  <SCORE.INTER.SOLV>
18.7395

>  <SCORE.INTER.VDW>
-30.8689

>  <SCORE.INTER.norm>
-0.791407

>  <SCORE.INTRA>
2.41445

>  <SCORE.INTRA.DIHEDRAL>
4.65082

>  <SCORE.INTRA.DIHEDRAL.0>
4.64198

>  <SCORE.INTRA.POLAR>
0

>  <SCORE.INTRA.POLAR.0>
0

>  <SCORE.INTRA.REPUL>
0

>  <SCORE.INTRA.REPUL.0>
0

>  <SCORE.INTRA.SOLV>
0.622823

>  <SCORE.INTRA.SOLV.lig_0>
-49.3611

>  <SCORE.INTRA.VDW>
-0.222368

>  <SCORE.INTRA.VDW.0>
-1.91858

>  <SCORE.INTRA.norm>
0.0778856

>  <SCORE.RESTR>
0

>  <SCORE.RESTR.CAVITY>
0

>  <SCORE.RESTR.norm>
0

>  <SCORE.SYSTEM>
0

>  <SCORE.SYSTEM.CONST>
0

>  <SCORE.SYSTEM.DIHEDRAL>
0

>  <SCORE.SYSTEM.SOLV>
0

>  <SCORE.SYSTEM.norm>
0

>  <SCORE.heavy>
31

>  <SCORE.norm>
-0.713522

>  <RMSD>
4.707

$$$$
ligand
 OpenBabel11021811473D
libRbt.so/2013.1/901 2013/11/27
 31 33  0  0  0  0  0  0  0  0999 V2000
   32.7078   34.9338   16.4701 P   0  0  1  0  0  0  0  0  0  0  0  0
   32.1711   33.5262   16.5319 O   0  0  0  0  0  0  0  0  0  0  0  0
   33.1125   35.3569   17.8572 O   0  5  0  0  0  0  0  0  0  0  0  0
   33.8745   34.9065   15.5213 O   0  0  0  0  0  0  0  0  0  0  0  0
   31.7393   37.3602   16.2576 C   0  0  0  0  0  0  0  0  0  0  0  0
   31.6305   35.9920   15.9243 O   0  0  0  0  0  0  0  0  0  0  0  0
   31.3403   37.5548   17.7181 C   0  0  1  0  0  0  0  0  0  0  0  0
   31.5968   38.8889   18.1093 O   0  0  0  0  0  0  0  0  0  0  0  0
   29.8598   37.2631   17.8958 C   0  0  1  0  0  0  0  0  0  0  0  0
   29.6381   35.9065   17.6168 O   0  0  0  0  0  0  0  0  0  0  0  0
   29.3696   37.5621   19.3026 C   0  0  1  0  0  0  0  0  0  0  0  0
   29.4807   38.9423   19.5229 O   0  0  0  0  0  0  0  0  0  0  0  0
   27.9185   37.1436   19.4721 C   0  0  0  0  0  0  0  0  0  0  0  0
   28.0644   34.3615   19.0734 N   0  0  0  0  0  0  0  0  0  0  0  0
   28.0847   33.0077   18.8177 C   0  0  0  0  0  0  0  0  0  0  0  0
   28.3026   32.5988   17.6809 O   0  0  0  0  0  0  0  0  0  0  0  0
   27.8595   32.1030   19.8300 N   0  0  0  0  0  0  0  0  0  0  0  0
   27.6219   32.5451   21.1169 C   0  0  0  0  0  0  0  0  0  0  0  0
   27.5987   33.9094   21.3843 C   0  0  1  0  0  0  0  0  0  0  0  0
   27.4394   31.7304   22.0237 O   0  0  0  0  0  0  0  0  0  0  0  0
   27.3393   35.7146   22.9314 C   0  0  2  0  0  0  0  0  0  0  0  0
   27.3600   34.3583   22.6677 N   0  0  0  0  0  0  0  0  0  0  0  0
   27.0977   36.1670   24.2290 C   0  0  0  0  0  0  0  0  0  0  0  0
   27.0696   37.5291   24.5042 C   0  0  1  0  0  0  0  0  0  0  0  0
   26.8041   37.9774   25.9065 C   0  0  0  0  0  0  0  0  0  0  0  0
   27.2904   38.4533   23.4718 C   0  0  1  0  0  0  0  0  0  0  0  0
   27.2774   39.9352   23.7291 C   0  0  0  0  0  0  0  0  0  0  0  0
   27.5295   37.9988   22.1776 C   0  0  0  0  0  0  0  0  0  0  0  0
   27.5539   36.6310   21.8992 C   0  0  1  0  0  0  0  0  0  0  0  0
   27.8181   34.8193   20.3520 C   0  0  1  0  0  0  0  0  0  0  0  0
   27.7896   36.1765   20.6104 N   0  0  0  0  0  0  0  0  0  0  0  0
  1  2  1  1  0  0  0
  1  3  1  0  0  0  0
  1  4  2  0  0  0  0
  1  6  1  0  0  0  0
  5  6  1  0  0  0  0
  7  5  1  6  0  0  0
  7  8  1  0  0  0  0
  7  9  1  0  0  0  0
  9 10  1  1  0  0  0
  9 11  1  0  0  0  0
 11 12  1  6  0  0  0
 11 13  1  0  0  0  0
 13 31  1  0  0  0  0
 14 15  1  0  0  0  0
 15 16  2  0  0  0  0
 15 17  1  0  0  0  0
 17 18  1  0  0  0  0
 18 20  2  0  0  0  0
 19 18  1  1  0  0  0
 19 22  1  0  0  0  0
 19 30  1  0  0  0  0
 21 23  1  6  0  0  0
 21 29  1  0  0  0  0
 21 22  1  0  0  0  0
 23 24  1  0  0  0  0
 24 25  1  1  0  0  0
 24 26  1  0  0  0  0
 26 27  1  1  0  0  0
 26 28  1  0  0  0  0
 29 28  1  1  0  0  0
 29 31  1  0  0  0  0
 30 14  1  1  0  0  0
 30 31  1  0  0  0  0
M  CHG  1   3  -1
M  END
>  <CHROM.1>
-73.40743146,155.86256434,173.03883651,64.72731503,65.13664279,123.24670394
90.02938697,29.30442584,35.80548693,19.74005285,-0.41619881,0.87952248,0.33905292

>  <Name>
ligand

>  <RI>
0

>  <Rbt.Current_Directory>
/home/itssahil/PROJECTS/Mol_Feturizer/New_Systems/rnas/3F2T

>  <Rbt.Executable>
rbdock ($Id: //depot/dev/client3/rdock/2013.1/src/exe/rbdock.cxx#4 $)

>  <Rbt.Library>
libRbt.so (2013.1, Build901 2013/11/27)

>  <Rbt.Parameter_File>
/export/apps/rDock/src/rDock_2013.1_src/data/scripts/dock_solv.prm

>  <Rbt.Receptor>
prm/blind_docking_60.prm

>  <SCORE>
-26.4347

>  <SCORE.INTER>
-30.4704

>  <SCORE.INTER.CONST>
1

>  <SCORE.INTER.POLAR>
0

>  <SCORE.INTER.ROT>
7

>  <SCORE.INTER.SOLV>
17.75

>  <SCORE.INTER.VDW>
-34.4969

>  <SCORE.INTER.norm>
-0.982916

>  <SCORE.INTRA>
4.03572

>  <SCORE.INTRA.DIHEDRAL>
4.01872

>  <SCORE.INTRA.DIHEDRAL.0>
4.64198

>  <SCORE.INTRA.POLAR>
0

>  <SCORE.INTRA.POLAR.0>
0

>  <SCORE.INTRA.REPUL>
0

>  <SCORE.INTRA.REPUL.0>
0

>  <SCORE.INTRA.SOLV>
3.46507

>  <SCORE.INTRA.SOLV.lig_0>
-49.3611

>  <SCORE.INTRA.VDW>
0.293827

>  <SCORE.INTRA.VDW.0>
-1.91858

>  <SCORE.INTRA.norm>
0.130184

>  <SCORE.RESTR>
0

>  <SCORE.RESTR.CAVITY>
0

>  <SCORE.RESTR.norm>
0

>  <SCORE.SYSTEM>
0

>  <SCORE.SYSTEM.CONST>
0

>  <SCORE.SYSTEM.DIHEDRAL>
0

>  <SCORE.SYSTEM.SOLV>
0

>  <SCORE.SYSTEM.norm>
0

>  <SCORE.heavy>
31

>  <SCORE.norm>
-0.852731

>  <RMSD>
4.709

$$$$
ligand
 OpenBabel11021811473D
libRbt.so/2013.1/901 2013/11/27
 31 33  0  0  0  0  0  0  0  0999 V2000
   27.2926   42.5804   17.2165 P   0  0  1  0  0  0  0  0  0  0  0  0
   27.0267   41.1792   16.7276 O   0  0  0  0  0  0  0  0  0  0  0  0
   28.3617   43.1973   16.3544 O   0  5  0  0  0  0  0  0  0  0  0  0
   25.9878   43.3225   17.1216 O   0  0  0  0  0  0  0  0  0  0  0  0
   26.8893   42.4153   19.8012 C   0  0  0  0  0  0  0  0  0  0  0  0
   27.7970   42.6275   18.7402 O   0  0  0  0  0  0  0  0  0  0  0  0
   26.5245   40.9342   19.8616 C   0  0  1  0  0  0  0  0  0  0  0  0
   25.6666   40.6097   18.7858 O   0  0  0  0  0  0  0  0  0  0  0  0
   27.7809   40.0851   19.7659 C   0  0  1  0  0  0  0  0  0  0  0  0
   28.6037   40.3850   20.8615 O   0  0  0  0  0  0  0  0  0  0  0  0
   27.4816   38.5954   19.7690 C   0  0  1  0  0  0  0  0  0  0  0  0
   26.7376   38.2939   18.6194 O   0  0  0  0  0  0  0  0  0  0  0  0
   28.7663   37.7837   19.7607 C   0  0  0  0  0  0  0  0  0  0  0  0
   27.7039   36.6070   22.0859 N   0  0  0  0  0  0  0  0  0  0  0  0
   27.2396   36.0689   23.2664 C   0  0  0  0  0  0  0  0  0  0  0  0
   26.9948   36.7994   24.2221 O   0  0  0  0  0  0  0  0  0  0  0  0
   27.0484   34.7113   23.3867 N   0  0  0  0  0  0  0  0  0  0  0  0
   27.3099   33.8754   22.3186 C   0  0  0  0  0  0  0  0  0  0  0  0
   27.7794   34.4093   21.1237 C   0  0  1  0  0  0  0  0  0  0  0  0
   27.1191   32.6623   22.4254 O   0  0  0  0  0  0  0  0  0  0  0  0
   28.5094   34.1127   18.8657 C   0  0  2  0  0  0  0  0  0  0  0  0
   28.0446   33.5795   20.0528 N   0  0  0  0  0  0  0  0  0  0  0  0
   28.7772   33.2728   17.7841 C   0  0  0  0  0  0  0  0  0  0  0  0
   29.2499   33.7981   16.5872 C   0  0  1  0  0  0  0  0  0  0  0  0
   29.5294   32.8669   15.4501 C   0  0  0  0  0  0  0  0  0  0  0  0
   29.4538   35.1809   16.4652 C   0  0  1  0  0  0  0  0  0  0  0  0
   29.9553   35.7903   15.1848 C   0  0  0  0  0  0  0  0  0  0  0  0
   29.1872   36.0162   17.5469 C   0  0  0  0  0  0  0  0  0  0  0  0
   28.7164   35.4893   18.7509 C   0  0  1  0  0  0  0  0  0  0  0  0
   27.9797   35.7838   21.0129 C   0  0  1  0  0  0  0  0  0  0  0  0
   28.4525   36.3194   19.8301 N   0  0  0  0  0  0  0  0  0  0  0  0
  1  2  1  6  0  0  0
  1  3  1  0  0  0  0
  1  4  2  0  0  0  0
  1  6  1  0  0  0  0
  5  6  1  0  0  0  0
  7  5  1  6  0  0  0
  7  8  1  0  0  0  0
  7  9  1  0  0  0  0
  9 10  1  1  0  0  0
  9 11  1  0  0  0  0
 11 12  1  6  0  0  0
 11 13  1  0  0  0  0
 13 31  1  0  0  0  0
 14 15  1  0  0  0  0
 15 16  2  0  0  0  0
 15 17  1  0  0  0  0
 17 18  1  0  0  0  0
 18 20  2  0  0  0  0
 19 18  1  6  0  0  0
 19 22  1  0  0  0  0
 19 30  1  0  0  0  0
 21 23  1  1  0  0  0
 21 29  1  0  0  0  0
 21 22  1  0  0  0  0
 23 24  1  0  0  0  0
 24 25  1  6  0  0  0
 24 26  1  0  0  0  0
 26 27  1  6  0  0  0
 26 28  1  0  0  0  0
 29 28  1  6  0  0  0
 29 31  1  0  0  0  0
 30 14  1  6  0  0  0
 30 31  1  0  0  0  0
M  CHG  1   3  -1
M  END
>  <CHROM.1>
73.39319082,-74.87465632,-73.10991991,61.53022371,63.74846258,177.30668721
112.51824857,27.80708889,37.78006489,19.24225674,-1.93672545,-1.24581664
2.51354703

>  <Name>
ligand

>  <RI>
0

>  <Rbt.Current_Directory>
/home/itssahil/PROJECTS/Mol_Feturizer/New_Systems/rnas/3F2T

>  <Rbt.Executable>
rbdock ($Id: //depot/dev/client3/rdock/2013.1/src/exe/rbdock.cxx#4 $)

>  <Rbt.Library>
libRbt.so (2013.1, Build901 2013/11/27)

>  <Rbt.Parameter_File>
/export/apps/rDock/src/rDock_2013.1_src/data/scripts/dock_solv.prm

>  <Rbt.Receptor>
prm/pocket_docking_7.prm

>  <SCORE>
-20.4058

>  <SCORE.INTER>
-21.2752

>  <SCORE.INTER.CONST>
1

>  <SCORE.INTER.POLAR>
0

>  <SCORE.INTER.ROT>
7

>  <SCORE.INTER.SOLV>
15.3131

>  <SCORE.INTER.VDW>
-27.5545

>  <SCORE.INTER.norm>
-0.686297

>  <SCORE.INTRA>
0.86937

>  <SCORE.INTRA.DIHEDRAL>
-1.46112

>  <SCORE.INTRA.DIHEDRAL.0>
4.64198

>  <SCORE.INTRA.POLAR>
0

>  <SCORE.INTRA.POLAR.0>
0

>  <SCORE.INTRA.REPUL>
0

>  <SCORE.INTRA.REPUL.0>
0

>  <SCORE.INTRA.SOLV>
2.18924

>  <SCORE.INTRA.SOLV.lig_0>
-49.3611

>  <SCORE.INTRA.VDW>
0.505311

>  <SCORE.INTRA.VDW.0>
-1.91858

>  <SCORE.INTRA.norm>
0.0280442

>  <SCORE.RESTR>
0

>  <SCORE.RESTR.CAVITY>
0

>  <SCORE.RESTR.norm>
0

>  <SCORE.SYSTEM>
0

>  <SCORE.SYSTEM.CONST>
0

>  <SCORE.SYSTEM.DIHEDRAL>
0

>  <SCORE.SYSTEM.SOLV>
0

>  <SCORE.SYSTEM.norm>
0

>  <SCORE.heavy>
31

>  <SCORE.norm>
-0.658253

>  <RMSD>
4.710

$$$$
ligand
 OpenBabel11021811473D
libRbt.so/2013.1/901 2013/11/27
 31 33  0  0  0  0  0  0  0  0999 V2000
   28.0207   35.2189   15.0216 P   0  0  1  0  0  0  0  0  0  0  0  0
   28.2060   36.3307   14.0201 O   0  0  0  0  0  0  0  0  0  0  0  0
   26.6437   34.6359   14.8457 O   0  5  0  0  0  0  0  0  0  0  0  0
   29.1034   34.2113   14.7488 O   0  0  0  0  0  0  0  0  0  0  0  0
   29.4309   35.8714   17.1325 C   0  0  0  0  0  0  0  0  0  0  0  0
   28.1572   35.7160   16.5423 O   0  0  0  0  0  0  0  0  0  0  0  0
   29.9398   37.2854   16.8644 C   0  0  1  0  0  0  0  0  0  0  0  0
   29.9255   37.5423   15.4742 O   0  0  0  0  0  0  0  0  0  0  0  0
   29.0502   38.2994   17.5639 C   0  0  1  0  0  0  0  0  0  0  0  0
   27.7346   38.1229   17.1107 O   0  0  0  0  0  0  0  0  0  0  0  0
   29.0731   38.1524   19.0761 C   0  0  1  0  0  0  0  0  0  0  0  0
   30.3355   38.5515   19.5376 O   0  0  0  0  0  0  0  0  0  0  0  0
   28.0066   39.0213   19.7220 C   0  0  0  0  0  0  0  0  0  0  0  0
   27.3341   36.4018   20.5004 N   0  0  0  0  0  0  0  0  0  0  0  0
   26.9475   35.1200   20.8263 C   0  0  0  0  0  0  0  0  0  0  0  0
   26.8356   34.2686   19.9491 O   0  0  0  0  0  0  0  0  0  0  0  0
   26.6814   34.7827   22.1338 N   0  0  0  0  0  0  0  0  0  0  0  0
   26.8110   35.7256   23.1348 C   0  0  0  0  0  0  0  0  0  0  0  0
   27.1998   37.0218   22.8154 C   0  0  1  0  0  0  0  0  0  0  0  0
   26.5897   35.4135   24.3066 O   0  0  0  0  0  0  0  0  0  0  0  0
   27.7179   39.2567   23.4909 C   0  0  2  0  0  0  0  0  0  0  0  0
   27.3296   37.9697   23.8106 N   0  0  0  0  0  0  0  0  0  0  0  0
   27.8485   40.2138   24.4978 C   0  0  0  0  0  0  0  0  0  0  0  0
   28.2336   41.5126   24.1866 C   0  0  1  0  0  0  0  0  0  0  0  0
   28.3597   42.5130   25.2917 C   0  0  0  0  0  0  0  0  0  0  0  0
   28.4970   41.8608   22.8532 C   0  0  1  0  0  0  0  0  0  0  0  0
   28.9247   43.2524   22.4753 C   0  0  0  0  0  0  0  0  0  0  0  0
   28.3641   40.9039   21.8504 C   0  0  0  0  0  0  0  0  0  0  0  0
   27.9734   39.6002   22.1613 C   0  0  1  0  0  0  0  0  0  0  0  0
   27.4581   37.3581   21.4880 C   0  0  1  0  0  0  0  0  0  0  0  0
   27.8383   38.6463   21.1637 N   0  0  0  0  0  0  0  0  0  0  0  0
  1  2  1  6  0  0  0
  1  3  1  0  0  0  0
  1  4  2  0  0  0  0
  1  6  1  0  0  0  0
  5  6  1  0  0  0  0
  7  5  1  6  0  0  0
  7  8  1  0  0  0  0
  7  9  1  0  0  0  0
  9 10  1  6  0  0  0
  9 11  1  0  0  0  0
 11 12  1  1  0  0  0
 11 13  1  0  0  0  0
 13 31  1  0  0  0  0
 14 15  1  0  0  0  0
 15 16  2  0  0  0  0
 15 17  1  0  0  0  0
 17 18  1  0  0  0  0
 18 20  2  0  0  0  0
 19 18  1  1  0  0  0
 19 22  1  0  0  0  0
 19 30  1  0  0  0  0
 21 23  1  6  0  0  0
 21 29  1  0  0  0  0
 21 22  1  0  0  0  0
 23 24  1  0  0  0  0
 24 25  1  1  0  0  0
 24 26  1  0  0  0  0
 26 27  1  1  0  0  0
 26 28  1  0  0  0  0
 29 28  1  1  0  0  0
 29 31  1  0  0  0  0
 30 14  1  1  0  0  0
 30 31  1  0  0  0  0
M  CHG  1   3  -1
M  END
>  <CHROM.1>
88.73590721,-81.88336028,-54.89418249,-57.36697099,69.54049188,167.63330883
124.29040899,28.09511669,37.57742948,19.76126800,-1.45646132,1.16624110,0.96003078

>  <Name>
ligand

>  <RI>
0

>  <Rbt.Current_Directory>
/home/itssahil/PROJECTS/Mol_Feturizer/New_Systems/rnas/3F2T

>  <Rbt.Executable>
rbdock ($Id: //depot/dev/client3/rdock/2013.1/src/exe/rbdock.cxx#4 $)

>  <Rbt.Library>
libRbt.so (2013.1, Build901 2013/11/27)

>  <Rbt.Parameter_File>
/export/apps/rDock/src/rDock_2013.1_src/data/scripts/dock_solv.prm

>  <Rbt.Receptor>
prm/blind_docking_100.prm

>  <SCORE>
-16.8478

>  <SCORE.INTER>
-19.7757

>  <SCORE.INTER.CONST>
1

>  <SCORE.INTER.POLAR>
0

>  <SCORE.INTER.ROT>
7

>  <SCORE.INTER.SOLV>
8.15479

>  <SCORE.INTER.VDW>
-24.1687

>  <SCORE.INTER.norm>
-0.637925

>  <SCORE.INTRA>
2.92786

>  <SCORE.INTRA.DIHEDRAL>
1.63485

>  <SCORE.INTRA.DIHEDRAL.0>
4.64198

>  <SCORE.INTRA.POLAR>
0

>  <SCORE.INTRA.POLAR.0>
0

>  <SCORE.INTRA.REPUL>
0

>  <SCORE.INTRA.REPUL.0>
0

>  <SCORE.INTRA.SOLV>
2.00975

>  <SCORE.INTRA.SOLV.lig_0>
-49.3611

>  <SCORE.INTRA.VDW>
1.10556

>  <SCORE.INTRA.VDW.0>
-1.91858

>  <SCORE.INTRA.norm>
0.0944469

>  <SCORE.RESTR>
0

>  <SCORE.RESTR.CAVITY>
0

>  <SCORE.RESTR.norm>
0

>  <SCORE.SYSTEM>
0

>  <SCORE.SYSTEM.CONST>
0

>  <SCORE.SYSTEM.DIHEDRAL>
0

>  <SCORE.SYSTEM.SOLV>
0

>  <SCORE.SYSTEM.norm>
0

>  <SCORE.heavy>
31

>  <SCORE.norm>
-0.543478

>  <RMSD>
4.723

$$$$
ligand
 OpenBabel11021811473D
libRbt.so/2013.1/901 2013/11/27
 31 33  0  0  0  0  0  0  0  0999 V2000
   26.0312   44.0779   16.1934 P   0  0  1  0  0  0  0  0  0  0  0  0
   25.8650   43.9729   14.6985 O   0  0  0  0  0  0  0  0  0  0  0  0
   26.0925   45.5342   16.5707 O   0  5  0  0  0  0  0  0  0  0  0  0
   24.8475   43.3814   16.8063 O   0  0  0  0  0  0  0  0  0  0  0  0
   27.5405   41.9747   16.6050 C   0  0  0  0  0  0  0  0  0  0  0  0
   27.3713   43.3717   16.7262 O   0  0  0  0  0  0  0  0  0  0  0  0
   27.3657   41.3266   17.9759 C   0  0  1  0  0  0  0  0  0  0  0  0
   26.1997   41.8303   18.5969 O   0  0  0  0  0  0  0  0  0  0  0  0
   27.2351   39.8203   17.8259 C   0  0  1  0  0  0  0  0  0  0  0  0
   28.4734   39.3062   17.4141 O   0  0  0  0  0  0  0  0  0  0  0  0
   26.8249   39.1372   19.1197 C   0  0  1  0  0  0  0  0  0  0  0  0
   26.2825   37.8837   18.8025 O   0  0  0  0  0  0  0  0  0  0  0  0
   28.0222   38.9468   20.0361 C   0  0  0  0  0  0  0  0  0  0  0  0
   27.4086   39.9070   22.6094 N   0  0  0  0  0  0  0  0  0  0  0  0
   27.1730   40.4231   23.8651 C   0  0  0  0  0  0  0  0  0  0  0  0
   27.1577   41.6383   24.0386 O   0  0  0  0  0  0  0  0  0  0  0  0
   26.9555   39.5847   24.9345 N   0  0  0  0  0  0  0  0  0  0  0  0
   26.9600   38.2150   24.7557 C   0  0  0  0  0  0  0  0  0  0  0  0
   27.1976   37.6850   23.4924 C   0  0  1  0  0  0  0  0  0  0  0  0
   26.7459   37.4687   25.7132 O   0  0  0  0  0  0  0  0  0  0  0  0
   27.4399   35.7927   22.0502 C   0  0  2  0  0  0  0  0  0  0  0  0
   27.2054   36.3171   23.3070 N   0  0  0  0  0  0  0  0  0  0  0  0
   27.4476   34.4099   21.8642 C   0  0  0  0  0  0  0  0  0  0  0  0
   27.6876   33.8719   20.6053 C   0  0  1  0  0  0  0  0  0  0  0  0
   27.6919   32.3846   20.4442 C   0  0  0  0  0  0  0  0  0  0  0  0
   27.9183   34.7248   19.5153 C   0  0  1  0  0  0  0  0  0  0  0  0
   28.1729   34.1834   18.1353 C   0  0  0  0  0  0  0  0  0  0  0  0
   27.9116   36.1043   19.7044 C   0  0  0  0  0  0  0  0  0  0  0  0
   27.6748   36.6457   20.9692 C   0  0  1  0  0  0  0  0  0  0  0  0
   27.4266   38.5403   22.4165 C   0  0  1  0  0  0  0  0  0  0  0  0
   27.6700   38.0193   21.1601 N   0  0  0  0  0  0  0  0  0  0  0  0
  1  2  1  6  0  0  0
  1  3  1  0  0  0  0
  1  4  2  0  0  0  0
  1  6  1  0  0  0  0
  5  6  1  0  0  0  0
  7  5  1  6  0  0  0
  7  8  1  0  0  0  0
  7  9  1  0  0  0  0
  9 10  1  1  0  0  0
  9 11  1  0  0  0  0
 11 12  1  6  0  0  0
 11 13  1  0  0  0  0
 13 31  1  0  0  0  0
 14 15  1  0  0  0  0
 15 16  2  0  0  0  0
 15 17  1  0  0  0  0
 17 18  1  0  0  0  0
 18 20  2  0  0  0  0
 19 18  1  6  0  0  0
 19 22  1  0  0  0  0
 19 30  1  0  0  0  0
 21 23  1  1  0  0  0
 21 29  1  0  0  0  0
 21 22  1  0  0  0  0
 23 24  1  0  0  0  0
 24 25  1  6  0  0  0
 24 26  1  0  0  0  0
 26 27  1  6  0  0  0
 26 28  1  0  0  0  0
 29 28  1  6  0  0  0
 29 31  1  0  0  0  0
 30 14  1  6  0  0  0
 30 31  1  0  0  0  0
M  CHG  1   3  -1
M  END
>  <CHROM.1>
-105.85617877,-64.76181336,47.54370860,69.14024913,159.54857051,-167.74038924
80.63777572,27.08370087,39.28911250,19.94800172,2.41367910,1.40986223,-1.49599564

>  <Name>
ligand

>  <RI>
0

>  <Rbt.Current_Directory>
/home/itssahil/PROJECTS/Mol_Feturizer/New_Systems/rnas/3F2T

>  <Rbt.Executable>
rbdock ($Id: //depot/dev/client3/rdock/2013.1/src/exe/rbdock.cxx#4 $)

>  <Rbt.Library>
libRbt.so (2013.1, Build901 2013/11/27)

>  <Rbt.Parameter_File>
/export/apps/rDock/src/rDock_2013.1_src/data/scripts/dock_solv.prm

>  <Rbt.Receptor>
prm/pocket_docking_7.prm

>  <SCORE>
-21.1536

>  <SCORE.INTER>
-26.2738

>  <SCORE.INTER.CONST>
1

>  <SCORE.INTER.POLAR>
0

>  <SCORE.INTER.ROT>
7

>  <SCORE.INTER.SOLV>
18.2462

>  <SCORE.INTER.VDW>
-31.8646

>  <SCORE.INTER.norm>
-0.847543

>  <SCORE.INTRA>
5.1202

>  <SCORE.INTRA.DIHEDRAL>
5.76127

>  <SCORE.INTRA.DIHEDRAL.0>
4.64198

>  <SCORE.INTRA.POLAR>
0

>  <SCORE.INTRA.POLAR.0>
0

>  <SCORE.INTRA.REPUL>
0

>  <SCORE.INTRA.REPUL.0>
0

>  <SCORE.INTRA.SOLV>
1.82544

>  <SCORE.INTRA.SOLV.lig_0>
-49.3611

>  <SCORE.INTRA.VDW>
1.32685

>  <SCORE.INTRA.VDW.0>
-1.91858

>  <SCORE.INTRA.norm>
0.165168

>  <SCORE.RESTR>
0

>  <SCORE.RESTR.CAVITY>
0

>  <SCORE.RESTR.norm>
0

>  <SCORE.SYSTEM>
0

>  <SCORE.SYSTEM.CONST>
0

>  <SCORE.SYSTEM.DIHEDRAL>
0

>  <SCORE.SYSTEM.SOLV>
0

>  <SCORE.SYSTEM.norm>
0

>  <SCORE.heavy>
31

>  <SCORE.norm>
-0.682375

>  <RMSD>
4.739

$$$$
ligand
 OpenBabel11021811473D
libRbt.so/2013.1/901 2013/11/27
 31 33  0  0  0  0  0  0  0  0999 V2000
   26.4296   43.5580   16.9491 P   0  0  1  0  0  0  0  0  0  0  0  0
   25.6089   42.9586   15.8354 O   0  0  0  0  0  0  0  0  0  0  0  0
   27.8881   43.3451   16.6417 O   0  5  0  0  0  0  0  0  0  0  0  0
   26.0690   45.0168   17.0102 O   0  0  0  0  0  0  0  0  0  0  0  0
   26.0671   41.4917   18.5206 C   0  0  0  0  0  0  0  0  0  0  0  0
   26.1235   42.8959   18.3796 O   0  0  0  0  0  0  0  0  0  0  0  0
   27.4640   40.9101   18.3197 C   0  0  1  0  0  0  0  0  0  0  0  0
   28.2589   41.1728   19.4590 O   0  0  0  0  0  0  0  0  0  0  0  0
   27.3767   39.4073   18.1133 C   0  0  1  0  0  0  0  0  0  0  0  0
   28.6402   38.9385   17.7249 O   0  0  0  0  0  0  0  0  0  0  0  0
   26.9428   38.6689   19.3684 C   0  0  1  0  0  0  0  0  0  0  0  0
   26.4208   37.4243   18.9881 O   0  0  0  0  0  0  0  0  0  0  0  0
   28.1197   38.4528   20.3051 C   0  0  0  0  0  0  0  0  0  0  0  0
   27.4434   39.8099   22.6759 N   0  0  0  0  0  0  0  0  0  0  0  0
   27.1793   40.5165   23.8291 C   0  0  0  0  0  0  0  0  0  0  0  0
   27.2165   41.7435   23.8218 O   0  0  0  0  0  0  0  0  0  0  0  0
   26.8746   39.8563   24.9975 N   0  0  0  0  0  0  0  0  0  0  0  0
   26.8193   38.4763   25.0218 C   0  0  0  0  0  0  0  0  0  0  0  0
   27.0850   37.7548   23.8633 C   0  0  1  0  0  0  0  0  0  0  0  0
   26.5274   37.8904   26.0663 O   0  0  0  0  0  0  0  0  0  0  0  0
   27.2959   35.6606   22.7278 C   0  0  2  0  0  0  0  0  0  0  0  0
   27.0333   36.3754   23.8808 N   0  0  0  0  0  0  0  0  0  0  0  0
   27.2435   34.2665   22.7469 C   0  0  0  0  0  0  0  0  0  0  0  0
   27.5110   33.5376   21.5940 C   0  0  1  0  0  0  0  0  0  0  0  0
   27.4488   32.0441   21.6530 C   0  0  0  0  0  0  0  0  0  0  0  0
   27.8304   34.2085   20.4039 C   0  0  1  0  0  0  0  0  0  0  0  0
   28.1175   33.4577   19.1326 C   0  0  0  0  0  0  0  0  0  0  0  0
   27.8835   35.5998   20.3883 C   0  0  0  0  0  0  0  0  0  0  0  0
   27.6192   36.3328   21.5467 C   0  0  1  0  0  0  0  0  0  0  0  0
   27.4023   38.4303   22.6865 C   0  0  1  0  0  0  0  0  0  0  0  0
   27.6739   37.7184   21.5338 N   0  0  0  0  0  0  0  0  0  0  0  0
  1  2  1  6  0  0  0
  1  3  1  0  0  0  0
  1  4  2  0  0  0  0
  1  6  1  0  0  0  0
  5  6  1  0  0  0  0
  7  5  1  1  0  0  0
  7  8  1  0  0  0  0
  7  9  1  0  0  0  0
  9 10  1  1  0  0  0
  9 11  1  0  0  0  0
 11 12  1  6  0  0  0
 11 13  1  0  0  0  0
 13 31  1  0  0  0  0
 14 15  1  0  0  0  0
 15 16  2  0  0  0  0
 15 17  1  0  0  0  0
 17 18  1  0  0  0  0
 18 20  2  0  0  0  0
 19 18  1  6  0  0  0
 19 22  1  0  0  0  0
 19 30  1  0  0  0  0
 21 23  1  1  0  0  0
 21 29  1  0  0  0  0
 21 22  1  0  0  0  0
 23 24  1  0  0  0  0
 24 25  1  6  0  0  0
 24 26  1  0  0  0  0
 26 27  1  6  0  0  0
 26 28  1  0  0  0  0
 29 28  1  6  0  0  0
 29 31  1  0  0  0  0
 30 14  1  6  0  0  0
 30 31  1  0  0  0  0
M  CHG  1   3  -1
M  END
>  <CHROM.1>
68.27647970,47.04741597,74.48215192,170.83728905,158.50767723,-179.75823987
85.88543465,27.16862456,38.99627992,20.51374763,-2.24404984,-1.44508035,1.86375474

>  <Name>
ligand

>  <RI>
0

>  <Rbt.Current_Directory>
/home/itssahil/PROJECTS/Mol_Feturizer/New_Systems/rnas/3F2T

>  <Rbt.Executable>
rbdock ($Id: //depot/dev/client3/rdock/2013.1/src/exe/rbdock.cxx#4 $)

>  <Rbt.Library>
libRbt.so (2013.1, Build901 2013/11/27)

>  <Rbt.Parameter_File>
/export/apps/rDock/src/rDock_2013.1_src/data/scripts/dock_solv.prm

>  <Rbt.Receptor>
prm/pocket_docking_4.prm

>  <SCORE>
-23.6354

>  <SCORE.INTER>
-25.5568

>  <SCORE.INTER.CONST>
1

>  <SCORE.INTER.POLAR>
0

>  <SCORE.INTER.ROT>
7

>  <SCORE.INTER.SOLV>
17.3081

>  <SCORE.INTER.VDW>
-31.0739

>  <SCORE.INTER.norm>
-0.824413

>  <SCORE.INTRA>
1.92138

>  <SCORE.INTRA.DIHEDRAL>
-0.110989

>  <SCORE.INTRA.DIHEDRAL.0>
4.64198

>  <SCORE.INTRA.POLAR>
0

>  <SCORE.INTRA.POLAR.0>
0

>  <SCORE.INTRA.REPUL>
0

>  <SCORE.INTRA.REPUL.0>
0

>  <SCORE.INTRA.SOLV>
1.63523

>  <SCORE.INTRA.SOLV.lig_0>
-49.3611

>  <SCORE.INTRA.VDW>
1.15926

>  <SCORE.INTRA.VDW.0>
-1.91858

>  <SCORE.INTRA.norm>
0.0619799

>  <SCORE.RESTR>
0

>  <SCORE.RESTR.CAVITY>
0

>  <SCORE.RESTR.norm>
0

>  <SCORE.SYSTEM>
0

>  <SCORE.SYSTEM.CONST>
0

>  <SCORE.SYSTEM.DIHEDRAL>
0

>  <SCORE.SYSTEM.SOLV>
0

>  <SCORE.SYSTEM.norm>
0

>  <SCORE.heavy>
31

>  <SCORE.norm>
-0.762433

>  <RMSD>
4.743

$$$$
ligand
 OpenBabel11021811473D
libRbt.so/2013.1/901 2013/11/27
 31 33  0  0  0  0  0  0  0  0999 V2000
   26.6406   43.2791   16.7491 P   0  0  1  0  0  0  0  0  0  0  0  0
   26.5195   43.7835   15.3334 O   0  0  0  0  0  0  0  0  0  0  0  0
   25.6707   44.0374   17.6158 O   0  5  0  0  0  0  0  0  0  0  0  0
   26.3347   41.8072   16.7074 O   0  0  0  0  0  0  0  0  0  0  0  0
   28.6279   42.5538   18.2967 C   0  0  0  0  0  0  0  0  0  0  0  0
   28.1116   43.4778   17.3615 O   0  0  0  0  0  0  0  0  0  0  0  0
   28.0296   42.8426   19.6710 C   0  0  1  0  0  0  0  0  0  0  0  0
   26.6412   42.5764   19.6528 O   0  0  0  0  0  0  0  0  0  0  0  0
   28.6883   41.9626   20.7201 C   0  0  1  0  0  0  0  0  0  0  0  0
   28.5140   42.5628   21.9757 O   0  0  0  0  0  0  0  0  0  0  0  0
   28.1024   40.5613   20.7594 C   0  0  1  0  0  0  0  0  0  0  0  0
   27.9180   40.1245   19.4399 O   0  0  0  0  0  0  0  0  0  0  0  0
   29.0371   39.6022   21.4778 C   0  0  0  0  0  0  0  0  0  0  0  0
   27.5440   38.6079   23.6463 N   0  0  0  0  0  0  0  0  0  0  0  0
   26.8700   38.1478   24.7566 C   0  0  0  0  0  0  0  0  0  0  0  0
   26.6602   38.8988   25.7047 O   0  0  0  0  0  0  0  0  0  0  0  0
   26.4288   36.8456   24.8150 N   0  0  0  0  0  0  0  0  0  0  0  0
   26.6481   35.9893   23.7536 C   0  0  0  0  0  0  0  0  0  0  0  0
   27.3280   36.4445   22.6293 C   0  0  1  0  0  0  0  0  0  0  0  0
   26.2344   34.8292   23.8030 O   0  0  0  0  0  0  0  0  0  0  0  0
   28.2265   36.0487   20.4486 C   0  0  2  0  0  0  0  0  0  0  0  0
   27.5523   35.5936   21.5656 N   0  0  0  0  0  0  0  0  0  0  0  0
   28.4527   35.1876   19.3742 C   0  0  0  0  0  0  0  0  0  0  0  0
   29.1343   35.6336   18.2480 C   0  0  1  0  0  0  0  0  0  0  0  0
   29.3616   34.6813   17.1169 C   0  0  0  0  0  0  0  0  0  0  0  0
   29.5926   36.9585   18.1900 C   0  0  1  0  0  0  0  0  0  0  0  0
   30.3262   37.4832   16.9863 C   0  0  0  0  0  0  0  0  0  0  0  0
   29.3669   37.8149   19.2644 C   0  0  0  0  0  0  0  0  0  0  0  0
   28.6860   37.3669   20.3979 C   0  0  1  0  0  0  0  0  0  0  0  0
   27.7801   37.7616   22.5817 C   0  0  1  0  0  0  0  0  0  0  0  0
   28.4622   38.2176   21.4699 N   0  0  0  0  0  0  0  0  0  0  0  0
  1  2  1  6  0  0  0
  1  3  1  0  0  0  0
  1  4  2  0  0  0  0
  1  6  1  0  0  0  0
  5  6  1  0  0  0  0
  7  5  1  6  0  0  0
  7  8  1  0  0  0  0
  7  9  1  0  0  0  0
  9 10  1  1  0  0  0
  9 11  1  0  0  0  0
 11 12  1  6  0  0  0
 11 13  1  0  0  0  0
 13 31  1  0  0  0  0
 14 15  1  0  0  0  0
 15 16  2  0  0  0  0
 15 17  1  0  0  0  0
 17 18  1  0  0  0  0
 18 20  2  0  0  0  0
 19 18  1  6  0  0  0
 19 22  1  0  0  0  0
 19 30  1  0  0  0  0
 21 23  1  1  0  0  0
 21 29  1  0  0  0  0
 21 22  1  0  0  0  0
 23 24  1  0  0  0  0
 24 25  1  6  0  0  0
 24 26  1  0  0  0  0
 26 27  1  6  0  0  0
 26 28  1  0  0  0  0
 29 28  1  6  0  0  0
 29 31  1  0  0  0  0
 30 14  1  6  0  0  0
 30 31  1  0  0  0  0
M  CHG  1   3  -1
M  END
>  <CHROM.1>
-78.74366656,-147.86561591,66.42731406,158.16521022,42.41344489,-178.27235172
86.14655691,27.76331492,39.40874060,20.13572730,1.71276219,1.25642601,-0.80991951

>  <Name>
ligand

>  <RI>
0

>  <Rbt.Current_Directory>
/home/itssahil/PROJECTS/Mol_Feturizer/New_Systems/rnas/3F2T

>  <Rbt.Executable>
rbdock ($Id: //depot/dev/client3/rdock/2013.1/src/exe/rbdock.cxx#4 $)

>  <Rbt.Library>
libRbt.so (2013.1, Build901 2013/11/27)

>  <Rbt.Parameter_File>
/export/apps/rDock/src/rDock_2013.1_src/data/scripts/dock_solv.prm

>  <Rbt.Receptor>
prm/blind_docking_100.prm

>  <SCORE>
-23.8679

>  <SCORE.INTER>
-28.0389

>  <SCORE.INTER.CONST>
1

>  <SCORE.INTER.POLAR>
0

>  <SCORE.INTER.ROT>
7

>  <SCORE.INTER.SOLV>
17.5526

>  <SCORE.INTER.VDW>
-32.8101

>  <SCORE.INTER.norm>
-0.904481

>  <SCORE.INTRA>
4.17098

>  <SCORE.INTRA.DIHEDRAL>
2.38668

>  <SCORE.INTRA.DIHEDRAL.0>
4.64198

>  <SCORE.INTRA.POLAR>
0

>  <SCORE.INTRA.POLAR.0>
0

>  <SCORE.INTRA.REPUL>
0

>  <SCORE.INTRA.REPUL.0>
0

>  <SCORE.INTRA.SOLV>
4.32775

>  <SCORE.INTRA.SOLV.lig_0>
-49.3611

>  <SCORE.INTRA.VDW>
0.813764

>  <SCORE.INTRA.VDW.0>
-1.91858

>  <SCORE.INTRA.norm>
0.134548

>  <SCORE.RESTR>
0

>  <SCORE.RESTR.CAVITY>
0

>  <SCORE.RESTR.norm>
0

>  <SCORE.SYSTEM>
0

>  <SCORE.SYSTEM.CONST>
0

>  <SCORE.SYSTEM.DIHEDRAL>
0

>  <SCORE.SYSTEM.SOLV>
0

>  <SCORE.SYSTEM.norm>
0

>  <SCORE.heavy>
31

>  <SCORE.norm>
-0.769933

>  <RMSD>
4.747

$$$$
ligand
 OpenBabel11021811473D
libRbt.so/2013.1/901 2013/11/27
 31 33  0  0  0  0  0  0  0  0999 V2000
   26.5426   43.0428   16.6496 P   0  0  1  0  0  0  0  0  0  0  0  0
   26.6910   44.4266   17.2294 O   0  0  0  0  0  0  0  0  0  0  0  0
   25.5516   42.2745   17.4830 O   0  5  0  0  0  0  0  0  0  0  0  0
   26.0753   43.2201   15.2310 O   0  0  0  0  0  0  0  0  0  0  0  0
   28.8501   42.3591   17.6880 C   0  0  0  0  0  0  0  0  0  0  0  0
   27.9205   42.2186   16.6340 O   0  0  0  0  0  0  0  0  0  0  0  0
   28.3459   41.5928   18.9081 C   0  0  1  0  0  0  0  0  0  0  0  0
   27.2461   42.2738   19.4786 O   0  0  0  0  0  0  0  0  0  0  0  0
   27.9058   40.1970   18.4998 C   0  0  1  0  0  0  0  0  0  0  0  0
   29.0209   39.5085   18.0000 O   0  0  0  0  0  0  0  0  0  0  0  0
   27.3186   39.4070   19.6573 C   0  0  1  0  0  0  0  0  0  0  0  0
   26.6857   38.2691   19.1370 O   0  0  0  0  0  0  0  0  0  0  0  0
   28.4062   38.9752   20.6269 C   0  0  0  0  0  0  0  0  0  0  0  0
   27.5347   39.8811   23.1448 N   0  0  0  0  0  0  0  0  0  0  0  0
   27.1759   40.3655   24.3839 C   0  0  0  0  0  0  0  0  0  0  0  0
   27.2282   41.5703   24.6129 O   0  0  0  0  0  0  0  0  0  0  0  0
   26.7591   39.5063   25.3749 N   0  0  0  0  0  0  0  0  0  0  0  0
   26.6855   38.1486   25.1318 C   0  0  0  0  0  0  0  0  0  0  0  0
   27.0462   37.6505   23.8847 C   0  0  1  0  0  0  0  0  0  0  0  0
   26.2936   37.3852   26.0168 O   0  0  0  0  0  0  0  0  0  0  0  0
   27.3340   35.8021   22.3948 C   0  0  2  0  0  0  0  0  0  0  0  0
   26.9768   36.2945   23.6355 N   0  0  0  0  0  0  0  0  0  0  0  0
   27.2635   34.4313   22.1442 C   0  0  0  0  0  0  0  0  0  0  0  0
   27.6254   33.9249   20.9015 C   0  0  1  0  0  0  0  0  0  0  0  0
   27.5405   32.4494   20.6701 C   0  0  0  0  0  0  0  0  0  0  0  0
   28.0589   34.7982   19.8925 C   0  0  1  0  0  0  0  0  0  0  0  0
   28.4507   34.2920   18.5314 C   0  0  0  0  0  0  0  0  0  0  0  0
   28.1297   36.1655   20.1460 C   0  0  0  0  0  0  0  0  0  0  0  0
   27.7705   36.6748   21.3952 C   0  0  1  0  0  0  0  0  0  0  0  0
   27.4765   38.5258   22.8896 C   0  0  1  0  0  0  0  0  0  0  0  0
   27.8426   38.0360   21.6505 N   0  0  0  0  0  0  0  0  0  0  0  0
  1  2  1  1  0  0  0
  1  3  1  0  0  0  0
  1  4  2  0  0  0  0
  1  6  1  0  0  0  0
  5  6  1  0  0  0  0
  7  5  1  6  0  0  0
  7  8  1  0  0  0  0
  7  9  1  0  0  0  0
  9 10  1  1  0  0  0
  9 11  1  0  0  0  0
 11 12  1  6  0  0  0
 11 13  1  0  0  0  0
 13 31  1  0  0  0  0
 14 15  1  0  0  0  0
 15 16  2  0  0  0  0
 15 17  1  0  0  0  0
 17 18  1  0  0  0  0
 18 20  2  0  0  0  0
 19 18  1  6  0  0  0
 19 22  1  0  0  0  0
 19 30  1  0  0  0  0
 21 23  1  1  0  0  0
 21 29  1  0  0  0  0
 21 22  1  0  0  0  0
 23 24  1  0  0  0  0
 24 25  1  6  0  0  0
 24 26  1  0  0  0  0
 26 27  1  6  0  0  0
 26 28  1  0  0  0  0
 29 28  1  6  0  0  0
 29 31  1  0  0  0  0
 30 14  1  6  0  0  0
 30 31  1  0  0  0  0
M  CHG  1   3  -1
M  END
>  <CHROM.1>
75.76562872,36.16953143,-72.03985470,62.67161084,167.38338159,-171.89190955
86.38205535,27.35858275,39.14571296,20.43529872,-1.80187819,-1.42846242,2.18990666

>  <Name>
ligand

>  <RI>
0

>  <Rbt.Current_Directory>
/home/itssahil/PROJECTS/Mol_Feturizer/New_Systems/rnas/3F2T

>  <Rbt.Executable>
rbdock ($Id: //depot/dev/client3/rdock/2013.1/src/exe/rbdock.cxx#4 $)

>  <Rbt.Library>
libRbt.so (2013.1, Build901 2013/11/27)

>  <Rbt.Parameter_File>
/export/apps/rDock/src/rDock_2013.1_src/data/scripts/dock_solv.prm

>  <Rbt.Receptor>
prm/pocket_docking_4.prm

>  <SCORE>
-25.3792

>  <SCORE.INTER>
-27.4619

>  <SCORE.INTER.CONST>
1

>  <SCORE.INTER.POLAR>
0

>  <SCORE.INTER.ROT>
7

>  <SCORE.INTER.SOLV>
17.6703

>  <SCORE.INTER.VDW>
-32.4647

>  <SCORE.INTER.norm>
-0.885868

>  <SCORE.INTRA>
2.08271

>  <SCORE.INTRA.DIHEDRAL>
0.052859

>  <SCORE.INTRA.DIHEDRAL.0>
4.64198

>  <SCORE.INTRA.POLAR>
0

>  <SCORE.INTRA.POLAR.0>
0

>  <SCORE.INTRA.REPUL>
0

>  <SCORE.INTRA.REPUL.0>
0

>  <SCORE.INTRA.SOLV>
3.17158

>  <SCORE.INTRA.SOLV.lig_0>
-49.3611

>  <SCORE.INTRA.VDW>
0.470494

>  <SCORE.INTRA.VDW.0>
-1.91858

>  <SCORE.INTRA.norm>
0.0671843

>  <SCORE.RESTR>
0

>  <SCORE.RESTR.CAVITY>
0

>  <SCORE.RESTR.norm>
0

>  <SCORE.SYSTEM>
0

>  <SCORE.SYSTEM.CONST>
0

>  <SCORE.SYSTEM.DIHEDRAL>
0

>  <SCORE.SYSTEM.SOLV>
0

>  <SCORE.SYSTEM.norm>
0

>  <SCORE.heavy>
31

>  <SCORE.norm>
-0.818684

>  <RMSD>
4.768

$$$$
ligand
 OpenBabel11021811473D
libRbt.so/2013.1/901 2013/11/27
 31 33  0  0  0  0  0  0  0  0999 V2000
   26.7906   35.5397   14.6964 P   0  0  1  0  0  0  0  0  0  0  0  0
   26.2138   36.2399   15.9007 O   0  0  0  0  0  0  0  0  0  0  0  0
   26.0554   34.2413   14.4954 O   0  5  0  0  0  0  0  0  0  0  0  0
   26.6182   36.4764   13.5325 O   0  0  0  0  0  0  0  0  0  0  0  0
   29.2385   36.1617   15.3974 C   0  0  0  0  0  0  0  0  0  0  0  0
   28.3529   35.2045   14.8550 O   0  0  0  0  0  0  0  0  0  0  0  0
   28.9644   36.3097   16.8918 C   0  0  1  0  0  0  0  0  0  0  0  0
   29.2821   35.1034   17.5572 O   0  0  0  0  0  0  0  0  0  0  0  0
   29.8135   37.4306   17.4675 C   0  0  1  0  0  0  0  0  0  0  0  0
   29.4811   38.6228   16.8076 O   0  0  0  0  0  0  0  0  0  0  0  0
   29.5996   37.6188   18.9600 C   0  0  1  0  0  0  0  0  0  0  0  0
   30.3968   38.6903   19.3869 O   0  0  0  0  0  0  0  0  0  0  0  0
   28.1429   37.9262   19.2650 C   0  0  0  0  0  0  0  0  0  0  0  0
   27.6440   35.6425   20.8321 N   0  0  0  0  0  0  0  0  0  0  0  0
   27.3454   34.5021   21.5456 C   0  0  0  0  0  0  0  0  0  0  0  0
   27.3457   33.4087   20.9877 O   0  0  0  0  0  0  0  0  0  0  0  0
   27.0424   34.5772   22.8860 N   0  0  0  0  0  0  0  0  0  0  0  0
   27.0463   35.7980   23.5320 C   0  0  0  0  0  0  0  0  0  0  0  0
   27.3457   36.9542   22.8200 C   0  0  1  0  0  0  0  0  0  0  0  0
   26.7926   35.8576   24.7368 O   0  0  0  0  0  0  0  0  0  0  0  0
   27.6493   39.3254   22.7497 C   0  0  2  0  0  0  0  0  0  0  0  0
   27.3496   38.1780   23.4589 N   0  0  0  0  0  0  0  0  0  0  0  0
   27.6527   40.5616   23.3966 C   0  0  0  0  0  0  0  0  0  0  0  0
   27.9477   41.7225   22.6915 C   0  0  1  0  0  0  0  0  0  0  0  0
   27.9384   43.0306   23.4174 C   0  0  0  0  0  0  0  0  0  0  0  0
   28.2484   41.6493   21.3230 C   0  0  1  0  0  0  0  0  0  0  0  0
   28.5819   42.8804   20.5258 C   0  0  0  0  0  0  0  0  0  0  0  0
   28.2425   40.4144   20.6798 C   0  0  0  0  0  0  0  0  0  0  0  0
   27.9423   39.2482   21.3861 C   0  0  1  0  0  0  0  0  0  0  0  0
   27.6419   36.8712   21.4610 C   0  0  1  0  0  0  0  0  0  0  0  0
   27.9337   38.0176   20.7468 N   0  0  0  0  0  0  0  0  0  0  0  0
  1  2  1  1  0  0  0
  1  3  1  0  0  0  0
  1  4  2  0  0  0  0
  1  6  1  0  0  0  0
  5  6  1  0  0  0  0
  7  5  1  6  0  0  0
  7  8  1  0  0  0  0
  7  9  1  0  0  0  0
  9 10  1  6  0  0  0
  9 11  1  0  0  0  0
 11 12  1  6  0  0  0
 11 13  1  0  0  0  0
 13 31  1  0  0  0  0
 14 15  1  0  0  0  0
 15 16  2  0  0  0  0
 15 17  1  0  0  0  0
 17 18  1  0  0  0  0
 18 20  2  0  0  0  0
 19 18  1  1  0  0  0
 19 22  1  0  0  0  0
 19 30  1  0  0  0  0
 21 23  1  6  0  0  0
 21 29  1  0  0  0  0
 21 22  1  0  0  0  0
 23 24  1  0  0  0  0
 24 25  1  1  0  0  0
 24 26  1  0  0  0  0
 26 27  1  1  0  0  0
 26 28  1  0  0  0  0
 29 28  1  1  0  0  0
 29 31  1  0  0  0  0
 30 14  1  1  0  0  0
 30 31  1  0  0  0  0
M  CHG  1   3  -1
M  END
>  <CHROM.1>
71.00591863,-43.13366993,65.56090430,60.13904659,-178.54636744,176.22091251
96.45266573,27.90992850,37.39223550,19.45475383,-1.69307276,1.34129599,1.21276068

>  <Name>
ligand

>  <RI>
0

>  <Rbt.Current_Directory>
/home/itssahil/PROJECTS/Mol_Feturizer/New_Systems/rnas/3F2T

>  <Rbt.Executable>
rbdock ($Id: //depot/dev/client3/rdock/2013.1/src/exe/rbdock.cxx#4 $)

>  <Rbt.Library>
libRbt.so (2013.1, Build901 2013/11/27)

>  <Rbt.Parameter_File>
/export/apps/rDock/src/rDock_2013.1_src/data/scripts/dock_solv.prm

>  <Rbt.Receptor>
prm/blind_docking_60.prm

>  <SCORE>
-23.0409

>  <SCORE.INTER>
-22.1477

>  <SCORE.INTER.CONST>
1

>  <SCORE.INTER.POLAR>
0

>  <SCORE.INTER.ROT>
7

>  <SCORE.INTER.SOLV>
17.4729

>  <SCORE.INTER.VDW>
-28.8561

>  <SCORE.INTER.norm>
-0.714442

>  <SCORE.INTRA>
-0.89323

>  <SCORE.INTRA.DIHEDRAL>
-2.15302

>  <SCORE.INTRA.DIHEDRAL.0>
4.64198

>  <SCORE.INTRA.POLAR>
0

>  <SCORE.INTRA.POLAR.0>
0

>  <SCORE.INTRA.REPUL>
0

>  <SCORE.INTRA.REPUL.0>
0

>  <SCORE.INTRA.SOLV>
0.215081

>  <SCORE.INTRA.SOLV.lig_0>
-49.3611

>  <SCORE.INTRA.VDW>
0.0757405

>  <SCORE.INTRA.VDW.0>
-1.91858

>  <SCORE.INTRA.norm>
-0.0288139

>  <SCORE.RESTR>
0

>  <SCORE.RESTR.CAVITY>
0

>  <SCORE.RESTR.norm>
0

>  <SCORE.SYSTEM>
0

>  <SCORE.SYSTEM.CONST>
0

>  <SCORE.SYSTEM.DIHEDRAL>
0

>  <SCORE.SYSTEM.SOLV>
0

>  <SCORE.SYSTEM.norm>
0

>  <SCORE.heavy>
31

>  <SCORE.norm>
-0.743256

>  <RMSD>
4.769

$$$$
ligand
 OpenBabel11021811473D
libRbt.so/2013.1/901 2013/11/27
 31 33  0  0  0  0  0  0  0  0999 V2000
   26.5809   43.2874   16.3543 P   0  0  1  0  0  0  0  0  0  0  0  0
   26.1507   43.5306   14.9299 O   0  0  0  0  0  0  0  0  0  0  0  0
   26.4477   44.5741   17.1247 O   0  5  0  0  0  0  0  0  0  0  0  0
   25.6851   42.2066   16.8941 O   0  0  0  0  0  0  0  0  0  0  0  0
   28.5918   42.2637   17.6881 C   0  0  0  0  0  0  0  0  0  0  0  0
   28.1045   42.7946   16.4734 O   0  0  0  0  0  0  0  0  0  0  0  0
   28.0612   40.8432   17.8642 C   0  0  1  0  0  0  0  0  0  0  0  0
   29.1039   39.9137   17.6460 O   0  0  0  0  0  0  0  0  0  0  0  0
   27.5225   40.6605   19.2731 C   0  0  1  0  0  0  0  0  0  0  0  0
   26.4594   41.5560   19.4613 O   0  0  0  0  0  0  0  0  0  0  0  0
   27.0265   39.2476   19.5309 C   0  0  1  0  0  0  0  0  0  0  0  0
   26.5014   38.7405   18.3338 O   0  0  0  0  0  0  0  0  0  0  0  0
   28.1608   38.3512   19.9991 C   0  0  0  0  0  0  0  0  0  0  0  0
   27.6438   39.7635   22.3777 N   0  0  0  0  0  0  0  0  0  0  0  0
   27.4578   40.4958   23.5301 C   0  0  0  0  0  0  0  0  0  0  0  0
   27.5146   41.7215   23.4967 O   0  0  0  0  0  0  0  0  0  0  0  0
   27.2098   39.8627   24.7266 N   0  0  0  0  0  0  0  0  0  0  0  0
   27.1334   38.4846   24.7808 C   0  0  0  0  0  0  0  0  0  0  0  0
   27.3205   37.7373   23.6233 C   0  0  1  0  0  0  0  0  0  0  0  0
   26.8924   37.9232   25.8515 O   0  0  0  0  0  0  0  0  0  0  0  0
   27.4317   35.6191   22.5186 C   0  0  2  0  0  0  0  0  0  0  0  0
   27.2473   36.3595   23.6706 N   0  0  0  0  0  0  0  0  0  0  0  0
   27.3577   34.2266   22.5678 C   0  0  0  0  0  0  0  0  0  0  0  0
   27.5467   33.4720   21.4160 C   0  0  1  0  0  0  0  0  0  0  0  0
   27.4636   31.9812   21.5074 C   0  0  0  0  0  0  0  0  0  0  0  0
   27.8083   34.1151   20.1967 C   0  0  1  0  0  0  0  0  0  0  0  0
   28.0097   33.3360   18.9260 C   0  0  0  0  0  0  0  0  0  0  0  0
   27.8832   35.5047   20.1511 C   0  0  0  0  0  0  0  0  0  0  0  0
   27.6977   36.2635   21.3081 C   0  0  1  0  0  0  0  0  0  0  0  0
   27.5808   38.3852   22.4175 C   0  0  1  0  0  0  0  0  0  0  0  0
   27.7742   37.6475   21.2652 N   0  0  0  0  0  0  0  0  0  0  0  0
  1  2  1  6  0  0  0
  1  3  1  0  0  0  0
  1  4  2  0  0  0  0
  1  6  1  0  0  0  0
  5  6  1  0  0  0  0
  7  5  1  1  0  0  0
  7  8  1  0  0  0  0
  7  9  1  0  0  0  0
  9 10  1  6  0  0  0
  9 11  1  0  0  0  0
 11 12  1  6  0  0  0
 11 13  1  0  0  0  0
 13 31  1  0  0  0  0
 14 15  1  0  0  0  0
 15 16  2  0  0  0  0
 15 17  1  0  0  0  0
 17 18  1  0  0  0  0
 18 20  2  0  0  0  0
 19 18  1  6  0  0  0
 19 22  1  0  0  0  0
 19 30  1  0  0  0  0
 21 23  1  1  0  0  0
 21 29  1  0  0  0  0
 21 22  1  0  0  0  0
 23 24  1  0  0  0  0
 24 25  1  6  0  0  0
 24 26  1  0  0  0  0
 26 27  1  6  0  0  0
 26 28  1  0  0  0  0
 29 28  1  6  0  0  0
 29 31  1  0  0  0  0
 30 14  1  6  0  0  0
 30 31  1  0  0  0  0
M  CHG  1   3  -1
M  END
>  <CHROM.1>
75.61257515,-167.13418311,106.85540805,61.63858444,-32.86338375,128.08184053
118.18891975,27.34672964,39.08301418,20.22345048,-2.32770337,-1.48430865
1.73083831

>  <Name>
ligand

>  <RI>
0

>  <Rbt.Current_Directory>
/home/itssahil/PROJECTS/Mol_Feturizer/New_Systems/rnas/3F2T

>  <Rbt.Executable>
rbdock ($Id: //depot/dev/client3/rdock/2013.1/src/exe/rbdock.cxx#4 $)

>  <Rbt.Library>
libRbt.so (2013.1, Build901 2013/11/27)

>  <Rbt.Parameter_File>
/export/apps/rDock/src/rDock_2013.1_src/data/scripts/dock_solv.prm

>  <Rbt.Receptor>
prm/pocket_docking_2.prm

>  <SCORE>
-18.8281

>  <SCORE.INTER>
-26.1425

>  <SCORE.INTER.CONST>
1

>  <SCORE.INTER.POLAR>
0

>  <SCORE.INTER.ROT>
7

>  <SCORE.INTER.SOLV>
16.1392

>  <SCORE.INTER.VDW>
-31.0747

>  <SCORE.INTER.norm>
-0.843306

>  <SCORE.INTRA>
7.12088

>  <SCORE.INTRA.DIHEDRAL>
9.98441

>  <SCORE.INTRA.DIHEDRAL.0>
4.64198

>  <SCORE.INTRA.POLAR>
0

>  <SCORE.INTRA.POLAR.0>
0

>  <SCORE.INTRA.REPUL>
0

>  <SCORE.INTRA.REPUL.0>
0

>  <SCORE.INTRA.SOLV>
4.28873

>  <SCORE.INTRA.SOLV.lig_0>
-49.3611

>  <SCORE.INTRA.VDW>
-0.0156944

>  <SCORE.INTRA.VDW.0>
-1.91858

>  <SCORE.INTRA.norm>
0.229706

>  <SCORE.RESTR>
0.193529

>  <SCORE.RESTR.CAVITY>
0.193529

>  <SCORE.RESTR.norm>
0.00624288

>  <SCORE.SYSTEM>
0

>  <SCORE.SYSTEM.CONST>
0

>  <SCORE.SYSTEM.DIHEDRAL>
0

>  <SCORE.SYSTEM.SOLV>
0

>  <SCORE.SYSTEM.norm>
0

>  <SCORE.heavy>
31

>  <SCORE.norm>
-0.607358

>  <RMSD>
4.774

$$$$
ligand
 OpenBabel11021811473D
libRbt.so/2013.1/901 2013/11/27
 31 33  0  0  0  0  0  0  0  0999 V2000
   24.5859   34.4442   17.9298 P   0  0  1  0  0  0  0  0  0  0  0  0
   23.9657   33.9190   19.1998 O   0  0  0  0  0  0  0  0  0  0  0  0
   25.0427   33.2759   17.0972 O   0  5  0  0  0  0  0  0  0  0  0  0
   23.5246   35.2546   17.2377 O   0  0  0  0  0  0  0  0  0  0  0  0
   26.6043   35.9047   17.1153 C   0  0  0  0  0  0  0  0  0  0  0  0
   25.8566   35.3888   18.1968 O   0  0  0  0  0  0  0  0  0  0  0  0
   27.7197   36.7959   17.6555 C   0  0  1  0  0  0  0  0  0  0  0  0
   28.5927   37.1583   16.6042 O   0  0  0  0  0  0  0  0  0  0  0  0
   27.1289   38.0563   18.2647 C   0  0  1  0  0  0  0  0  0  0  0  0
   26.3890   37.6956   19.4003 O   0  0  0  0  0  0  0  0  0  0  0  0
   28.1918   39.0636   18.6700 C   0  0  1  0  0  0  0  0  0  0  0  0
   27.5554   40.1510   19.2852 O   0  0  0  0  0  0  0  0  0  0  0  0
   29.1812   38.4462   19.6444 C   0  0  0  0  0  0  0  0  0  0  0  0
   28.3267   35.8639   20.3665 N   0  0  0  0  0  0  0  0  0  0  0  0
   27.8748   34.5929   20.6481 C   0  0  0  0  0  0  0  0  0  0  0  0
   28.1043   33.6713   19.8705 O   0  0  0  0  0  0  0  0  0  0  0  0
   27.1618   34.3450   21.7989 N   0  0  0  0  0  0  0  0  0  0  0  0
   26.9023   35.3684   22.6895 C   0  0  0  0  0  0  0  0  0  0  0  0
   27.3537   36.6542   22.4134 C   0  0  1  0  0  0  0  0  0  0  0  0
   26.2796   35.1374   23.7280 O   0  0  0  0  0  0  0  0  0  0  0  0
   27.5475   38.9588   23.0226 C   0  0  2  0  0  0  0  0  0  0  0  0
   27.0963   37.6821   23.2983 N   0  0  0  0  0  0  0  0  0  0  0  0
   27.2866   39.9968   23.9178 C   0  0  0  0  0  0  0  0  0  0  0  0
   27.7313   41.2856   23.6477 C   0  0  1  0  0  0  0  0  0  0  0  0
   27.4299   42.3742   24.6287 C   0  0  0  0  0  0  0  0  0  0  0  0
   28.4509   41.5422   22.4708 C   0  0  1  0  0  0  0  0  0  0  0  0
   28.9577   42.9205   22.1457 C   0  0  0  0  0  0  0  0  0  0  0  0
   28.7083   40.5047   21.5787 C   0  0  0  0  0  0  0  0  0  0  0  0
   28.2584   39.2106   21.8469 C   0  0  1  0  0  0  0  0  0  0  0  0
   28.0665   36.8992   21.2415 C   0  0  1  0  0  0  0  0  0  0  0  0
   28.5118   38.1763   20.9585 N   0  0  0  0  0  0  0  0  0  0  0  0
  1  2  1  1  0  0  0
  1  3  1  0  0  0  0
  1  4  2  0  0  0  0
  1  6  1  0  0  0  0
  5  6  1  0  0  0  0
  7  5  1  6  0  0  0
  7  8  1  0  0  0  0
  7  9  1  0  0  0  0
  9 10  1  1  0  0  0
  9 11  1  0  0  0  0
 11 12  1  1  0  0  0
 11 13  1  0  0  0  0
 13 31  1  0  0  0  0
 14 15  1  0  0  0  0
 15 16  2  0  0  0  0
 15 17  1  0  0  0  0
 17 18  1  0  0  0  0
 18 20  2  0  0  0  0
 19 18  1  1  0  0  0
 19 22  1  0  0  0  0
 19 30  1  0  0  0  0
 21 23  1  6  0  0  0
 21 29  1  0  0  0  0
 21 22  1  0  0  0  0
 23 24  1  0  0  0  0
 24 25  1  1  0  0  0
 24 26  1  0  0  0  0
 26 27  1  1  0  0  0
 26 28  1  0  0  0  0
 29 28  1  1  0  0  0
 29 31  1  0  0  0  0
 30 14  1  1  0  0  0
 30 31  1  0  0  0  0
M  CHG  1   3  -1
M  END
>  <CHROM.1>
178.32483515,176.36274893,171.39231473,66.37101358,-176.75753705,-68.53194968
-76.66285805,27.06988588,37.23471366,20.32054797,-2.62838166,1.19859169,1.66725081

>  <Name>
ligand

>  <RI>
0

>  <Rbt.Current_Directory>
/home/itssahil/PROJECTS/Mol_Feturizer/New_Systems/rnas/3F2T

>  <Rbt.Executable>
rbdock ($Id: //depot/dev/client3/rdock/2013.1/src/exe/rbdock.cxx#4 $)

>  <Rbt.Library>
libRbt.so (2013.1, Build901 2013/11/27)

>  <Rbt.Parameter_File>
/export/apps/rDock/src/rDock_2013.1_src/data/scripts/dock_solv.prm

>  <Rbt.Receptor>
prm/blind_docking_80.prm

>  <SCORE>
-24.0194

>  <SCORE.INTER>
-23.0324

>  <SCORE.INTER.CONST>
1

>  <SCORE.INTER.POLAR>
0

>  <SCORE.INTER.ROT>
7

>  <SCORE.INTER.SOLV>
9.97457

>  <SCORE.INTER.VDW>
-26.9465

>  <SCORE.INTER.norm>
-0.742982

>  <SCORE.INTRA>
-0.986991

>  <SCORE.INTRA.DIHEDRAL>
-2.79907

>  <SCORE.INTRA.DIHEDRAL.0>
4.64198

>  <SCORE.INTRA.POLAR>
0

>  <SCORE.INTRA.POLAR.0>
0

>  <SCORE.INTRA.REPUL>
0

>  <SCORE.INTRA.REPUL.0>
0

>  <SCORE.INTRA.SOLV>
1.61898

>  <SCORE.INTRA.SOLV.lig_0>
-49.3611

>  <SCORE.INTRA.VDW>
-0.396944

>  <SCORE.INTRA.VDW.0>
-1.91858

>  <SCORE.INTRA.norm>
-0.0318384

>  <SCORE.RESTR>
0

>  <SCORE.RESTR.CAVITY>
0

>  <SCORE.RESTR.norm>
0

>  <SCORE.SYSTEM>
0

>  <SCORE.SYSTEM.CONST>
0

>  <SCORE.SYSTEM.DIHEDRAL>
0

>  <SCORE.SYSTEM.SOLV>
0

>  <SCORE.SYSTEM.norm>
0

>  <SCORE.heavy>
31

>  <SCORE.norm>
-0.774821

>  <RMSD>
4.775

$$$$
ligand
 OpenBabel11021811473D
libRbt.so/2013.1/901 2013/11/27
 31 33  0  0  0  0  0  0  0  0999 V2000
   27.3498   34.8918   13.8117 P   0  0  1  0  0  0  0  0  0  0  0  0
   27.4694   35.3570   12.3825 O   0  0  0  0  0  0  0  0  0  0  0  0
   26.1615   33.9738   13.9222 O   0  5  0  0  0  0  0  0  0  0  0  0
   28.6397   34.1940   14.1448 O   0  0  0  0  0  0  0  0  0  0  0  0
   27.4426   35.9281   16.2175 C   0  0  0  0  0  0  0  0  0  0  0  0
   27.1402   36.0998   14.8486 O   0  0  0  0  0  0  0  0  0  0  0  0
   27.3004   37.2678   16.9352 C   0  0  1  0  0  0  0  0  0  0  0  0
   25.9376   37.5153   17.2187 O   0  0  0  0  0  0  0  0  0  0  0  0
   28.0805   37.2445   18.2389 C   0  0  1  0  0  0  0  0  0  0  0  0
   29.3722   36.7660   17.9746 O   0  0  0  0  0  0  0  0  0  0  0  0
   28.1867   38.6172   18.8816 C   0  0  1  0  0  0  0  0  0  0  0  0
   26.9225   38.9713   19.3740 O   0  0  0  0  0  0  0  0  0  0  0  0
   29.1844   38.6042   20.0278 C   0  0  0  0  0  0  0  0  0  0  0  0
   28.2865   36.0663   20.8481 N   0  0  0  0  0  0  0  0  0  0  0  0
   27.8155   34.8139   21.1772 C   0  0  0  0  0  0  0  0  0  0  0  0
   28.0624   33.8533   20.4538 O   0  0  0  0  0  0  0  0  0  0  0  0
   27.0641   34.6278   22.3151 N   0  0  0  0  0  0  0  0  0  0  0  0
   26.7845   35.6957   23.1454 C   0  0  0  0  0  0  0  0  0  0  0  0
   27.2548   36.9633   22.8210 C   0  0  1  0  0  0  0  0  0  0  0  0
   26.1269   35.5204   24.1732 O   0  0  0  0  0  0  0  0  0  0  0  0
   27.4475   39.2939   23.3219 C   0  0  2  0  0  0  0  0  0  0  0  0
   26.9774   38.0354   23.6454 N   0  0  0  0  0  0  0  0  0  0  0  0
   27.1664   40.3766   24.1559 C   0  0  0  0  0  0  0  0  0  0  0  0
   27.6300   41.6476   23.8373 C   0  0  1  0  0  0  0  0  0  0  0  0
   27.3061   42.7853   24.7531 C   0  0  0  0  0  0  0  0  0  0  0  0
   28.3889   41.8410   22.6731 C   0  0  1  0  0  0  0  0  0  0  0  0
   28.9169   43.1982   22.2970 C   0  0  0  0  0  0  0  0  0  0  0  0
   28.6664   40.7589   21.8420 C   0  0  0  0  0  0  0  0  0  0  0  0
   28.1978   39.4826   22.1588 C   0  0  1  0  0  0  0  0  0  0  0  0
   28.0067   37.1454   21.6622 C   0  0  1  0  0  0  0  0  0  0  0  0
   28.4711   38.4040   21.3311 N   0  0  0  0  0  0  0  0  0  0  0  0
  1  2  1  6  0  0  0
  1  3  1  0  0  0  0
  1  4  2  0  0  0  0
  1  6  1  0  0  0  0
  5  6  1  0  0  0  0
  7  5  1  1  0  0  0
  7  8  1  0  0  0  0
  7  9  1  0  0  0  0
  9 10  1  6  0  0  0
  9 11  1  0  0  0  0
 11 12  1  1  0  0  0
 11 13  1  0  0  0  0
 13 31  1  0  0  0  0
 14 15  1  0  0  0  0
 15 16  2  0  0  0  0
 15 17  1  0  0  0  0
 17 18  1  0  0  0  0
 18 20  2  0  0  0  0
 19 18  1  1  0  0  0
 19 22  1  0  0  0  0
 19 30  1  0  0  0  0
 21 23  1  6  0  0  0
 21 29  1  0  0  0  0
 21 22  1  0  0  0  0
 23 24  1  0  0  0  0
 24 25  1  1  0  0  0
 24 26  1  0  0  0  0
 26 27  1  1  0  0  0
 26 28  1  0  0  0  0
 29 28  1  1  0  0  0
 29 31  1  0  0  0  0
 30 14  1  1  0  0  0
 30 31  1  0  0  0  0
M  CHG  1   3  -1
M  END
>  <CHROM.1>
173.73215745,-159.07937322,80.64339770,49.23951096,70.94089045,-95.94000776
-99.88954586,27.64120003,37.40680030,19.58061720,-1.76845783,1.42066632,1.25954100

>  <Name>
ligand

>  <RI>
0

>  <Rbt.Current_Directory>
/home/itssahil/PROJECTS/Mol_Feturizer/New_Systems/rnas/3F2T

>  <Rbt.Executable>
rbdock ($Id: //depot/dev/client3/rdock/2013.1/src/exe/rbdock.cxx#4 $)

>  <Rbt.Library>
libRbt.so (2013.1, Build901 2013/11/27)

>  <Rbt.Parameter_File>
/export/apps/rDock/src/rDock_2013.1_src/data/scripts/dock_solv.prm

>  <Rbt.Receptor>
prm/pocket_docking_6.prm

>  <SCORE>
-23.1915

>  <SCORE.INTER>
-25.1356

>  <SCORE.INTER.CONST>
1

>  <SCORE.INTER.POLAR>
0

>  <SCORE.INTER.ROT>
7

>  <SCORE.INTER.SOLV>
11.3443

>  <SCORE.INTER.VDW>
-28.8051

>  <SCORE.INTER.norm>
-0.810824

>  <SCORE.INTRA>
1.94411

>  <SCORE.INTRA.DIHEDRAL>
2.94081

>  <SCORE.INTRA.DIHEDRAL.0>
4.64198

>  <SCORE.INTRA.POLAR>
0

>  <SCORE.INTRA.POLAR.0>
0

>  <SCORE.INTRA.REPUL>
0

>  <SCORE.INTRA.REPUL.0>
0

>  <SCORE.INTRA.SOLV>
0.120939

>  <SCORE.INTRA.SOLV.lig_0>
-49.3611

>  <SCORE.INTRA.VDW>
0.41323

>  <SCORE.INTRA.VDW.0>
-1.91858

>  <SCORE.INTRA.norm>
0.0627131

>  <SCORE.RESTR>
0

>  <SCORE.RESTR.CAVITY>
0

>  <SCORE.RESTR.norm>
0

>  <SCORE.SYSTEM>
0

>  <SCORE.SYSTEM.CONST>
0

>  <SCORE.SYSTEM.DIHEDRAL>
0

>  <SCORE.SYSTEM.SOLV>
0

>  <SCORE.SYSTEM.norm>
0

>  <SCORE.heavy>
31

>  <SCORE.norm>
-0.748111

>  <RMSD>
4.781

$$$$
ligand
 OpenBabel11021811473D
libRbt.so/2013.1/901 2013/11/27
 31 33  0  0  0  0  0  0  0  0999 V2000
   26.3469   43.5295   16.8528 P   0  0  1  0  0  0  0  0  0  0  0  0
   25.9958   44.9349   17.2707 O   0  0  0  0  0  0  0  0  0  0  0  0
   25.6993   43.2456   15.5235 O   0  5  0  0  0  0  0  0  0  0  0  0
   27.8477   43.4666   16.7785 O   0  0  0  0  0  0  0  0  0  0  0  0
   26.3347   42.4043   19.2201 C   0  0  0  0  0  0  0  0  0  0  0  0
   25.8404   42.4200   17.8972 O   0  0  0  0  0  0  0  0  0  0  0  0
   27.7790   41.9103   19.2109 C   0  0  1  0  0  0  0  0  0  0  0  0
   28.3024   41.9408   20.5239 O   0  0  0  0  0  0  0  0  0  0  0  0
   27.8375   40.4848   18.6881 C   0  0  1  0  0  0  0  0  0  0  0  0
   29.1744   40.1713   18.4027 O   0  0  0  0  0  0  0  0  0  0  0  0
   27.2976   39.4736   19.6855 C   0  0  1  0  0  0  0  0  0  0  0  0
   26.8666   38.3434   18.9763 O   0  0  0  0  0  0  0  0  0  0  0  0
   28.3731   39.0619   20.6771 C   0  0  0  0  0  0  0  0  0  0  0  0
   27.4795   39.9358   23.1985 N   0  0  0  0  0  0  0  0  0  0  0  0
   27.1097   40.4049   24.4403 C   0  0  0  0  0  0  0  0  0  0  0  0
   27.1541   41.6074   24.6828 O   0  0  0  0  0  0  0  0  0  0  0  0
   26.6906   39.5329   25.4191 N   0  0  0  0  0  0  0  0  0  0  0  0
   26.6258   38.1775   25.1608 C   0  0  0  0  0  0  0  0  0  0  0  0
   26.9976   37.6949   23.9109 C   0  0  1  0  0  0  0  0  0  0  0  0
   26.2317   37.4026   26.0347 O   0  0  0  0  0  0  0  0  0  0  0  0
   27.3053   35.8643   22.4030 C   0  0  2  0  0  0  0  0  0  0  0  0
   26.9370   36.3413   23.6465 N   0  0  0  0  0  0  0  0  0  0  0  0
   27.2437   34.4959   22.1372 C   0  0  0  0  0  0  0  0  0  0  0  0
   27.6168   34.0050   20.8915 C   0  0  1  0  0  0  0  0  0  0  0  0
   27.5412   32.5316   20.6436 C   0  0  0  0  0  0  0  0  0  0  0  0
   28.0526   34.8914   19.8951 C   0  0  1  0  0  0  0  0  0  0  0  0
   28.4565   34.4020   18.5314 C   0  0  0  0  0  0  0  0  0  0  0  0
   28.1146   36.2562   20.1639 C   0  0  0  0  0  0  0  0  0  0  0  0
   27.7441   36.7500   21.4161 C   0  0  1  0  0  0  0  0  0  0  0  0
   27.4301   38.5832   22.9283 C   0  0  1  0  0  0  0  0  0  0  0  0
   27.8073   38.1087   21.6865 N   0  0  0  0  0  0  0  0  0  0  0  0
  1  2  1  1  0  0  0
  1  3  1  0  0  0  0
  1  4  2  0  0  0  0
  1  6  1  0  0  0  0
  5  6  1  0  0  0  0
  7  5  1  1  0  0  0
  7  8  1  0  0  0  0
  7  9  1  0  0  0  0
  9 10  1  1  0  0  0
  9 11  1  0  0  0  0
 11 12  1  6  0  0  0
 11 13  1  0  0  0  0
 13 31  1  0  0  0  0
 14 15  1  0  0  0  0
 15 16  2  0  0  0  0
 15 17  1  0  0  0  0
 17 18  1  0  0  0  0
 18 20  2  0  0  0  0
 19 18  1  6  0  0  0
 19 22  1  0  0  0  0
 19 30  1  0  0  0  0
 21 23  1  1  0  0  0
 21 29  1  0  0  0  0
 21 22  1  0  0  0  0
 23 24  1  0  0  0  0
 24 25  1  6  0  0  0
 24 26  1  0  0  0  0
 26 27  1  6  0  0  0
 26 28  1  0  0  0  0
 29 28  1  6  0  0  0
 29 31  1  0  0  0  0
 30 14  1  6  0  0  0
 30 31  1  0  0  0  0
M  CHG  1   3  -1
M  END
>  <CHROM.1>
-72.45530383,-62.58597667,177.67911023,166.62732010,155.52925505,177.64983784
85.07667881,27.24580384,39.31791057,20.60340078,-2.07080115,-1.42195515,2.00004321

>  <Name>
ligand

>  <RI>
0

>  <Rbt.Current_Directory>
/home/itssahil/PROJECTS/Mol_Feturizer/New_Systems/rnas/3F2T

>  <Rbt.Executable>
rbdock ($Id: //depot/dev/client3/rdock/2013.1/src/exe/rbdock.cxx#4 $)

>  <Rbt.Library>
libRbt.so (2013.1, Build901 2013/11/27)

>  <Rbt.Parameter_File>
/export/apps/rDock/src/rDock_2013.1_src/data/scripts/dock_solv.prm

>  <Rbt.Receptor>
prm/pocket_docking_6.prm

>  <SCORE>
-24.5046

>  <SCORE.INTER>
-26.7101

>  <SCORE.INTER.CONST>
1

>  <SCORE.INTER.POLAR>
0

>  <SCORE.INTER.ROT>
7

>  <SCORE.INTER.SOLV>
17.7932

>  <SCORE.INTER.VDW>
-32.0045

>  <SCORE.INTER.norm>
-0.861617

>  <SCORE.INTRA>
2.20554

>  <SCORE.INTRA.DIHEDRAL>
0.054254

>  <SCORE.INTRA.DIHEDRAL.0>
4.64198

>  <SCORE.INTRA.POLAR>
0

>  <SCORE.INTRA.POLAR.0>
0

>  <SCORE.INTRA.REPUL>
0

>  <SCORE.INTRA.REPUL.0>
0

>  <SCORE.INTRA.SOLV>
1.99093

>  <SCORE.INTRA.SOLV.lig_0>
-49.3611

>  <SCORE.INTRA.VDW>
1.18294

>  <SCORE.INTRA.VDW.0>
-1.91858

>  <SCORE.INTRA.norm>
0.0711463

>  <SCORE.RESTR>
0

>  <SCORE.RESTR.CAVITY>
0

>  <SCORE.RESTR.norm>
0

>  <SCORE.SYSTEM>
0

>  <SCORE.SYSTEM.CONST>
0

>  <SCORE.SYSTEM.DIHEDRAL>
0

>  <SCORE.SYSTEM.SOLV>
0

>  <SCORE.SYSTEM.norm>
0

>  <SCORE.heavy>
31

>  <SCORE.norm>
-0.790471

>  <RMSD>
4.789

$$$$
ligand
 OpenBabel11021811473D
libRbt.so/2013.1/901 2013/11/27
 31 33  0  0  0  0  0  0  0  0999 V2000
   27.8772   42.5449   17.7194 P   0  0  1  0  0  0  0  0  0  0  0  0
   29.3396   42.4634   18.0771 O   0  0  0  0  0  0  0  0  0  0  0  0
   27.6937   43.6206   16.6821 O   0  5  0  0  0  0  0  0  0  0  0  0
   27.4853   41.1869   17.2052 O   0  0  0  0  0  0  0  0  0  0  0  0
   27.2614   42.4211   20.2642 C   0  0  0  0  0  0  0  0  0  0  0  0
   26.9438   42.9041   18.9755 O   0  0  0  0  0  0  0  0  0  0  0  0
   26.8707   40.9486   20.3593 C   0  0  1  0  0  0  0  0  0  0  0  0
   25.7378   40.7021   19.5502 O   0  0  0  0  0  0  0  0  0  0  0  0
   28.0185   40.0744   19.8828 C   0  0  1  0  0  0  0  0  0  0  0  0
   29.1121   40.2726   20.7385 O   0  0  0  0  0  0  0  0  0  0  0  0
   27.6634   38.5971   19.8731 C   0  0  1  0  0  0  0  0  0  0  0  0
   26.7480   38.3716   18.8352 O   0  0  0  0  0  0  0  0  0  0  0  0
   28.8996   37.7433   19.6442 C   0  0  0  0  0  0  0  0  0  0  0  0
   27.8168   36.6513   22.0011 N   0  0  0  0  0  0  0  0  0  0  0  0
   27.3436   36.1543   23.1960 C   0  0  0  0  0  0  0  0  0  0  0  0
   27.1203   36.9142   24.1339 O   0  0  0  0  0  0  0  0  0  0  0  0
   27.1195   34.8053   23.3507 N   0  0  0  0  0  0  0  0  0  0  0  0
   27.3565   33.9369   22.3030 C   0  0  0  0  0  0  0  0  0  0  0  0
   27.8348   34.4292   21.0938 C   0  0  1  0  0  0  0  0  0  0  0  0
   27.1363   32.7319   22.4406 O   0  0  0  0  0  0  0  0  0  0  0  0
   28.5492   34.0585   18.8417 C   0  0  2  0  0  0  0  0  0  0  0  0
   28.0757   33.5667   20.0431 N   0  0  0  0  0  0  0  0  0  0  0  0
   28.7924   33.1857   17.7806 C   0  0  0  0  0  0  0  0  0  0  0  0
   29.2736   33.6692   16.5696 C   0  0  1  0  0  0  0  0  0  0  0  0
   29.5261   32.7035   15.4553 C   0  0  0  0  0  0  0  0  0  0  0  0
   29.5110   35.0431   16.4126 C   0  0  1  0  0  0  0  0  0  0  0  0
   30.0228   35.6079   15.1159 C   0  0  0  0  0  0  0  0  0  0  0  0
   29.2689   35.9114   17.4739 C   0  0  0  0  0  0  0  0  0  0  0  0
   28.7896   35.4264   18.6920 C   0  0  1  0  0  0  0  0  0  0  0  0
   28.0684   35.7951   20.9481 C   0  0  1  0  0  0  0  0  0  0  0  0
   28.5501   36.2893   19.7509 N   0  0  0  0  0  0  0  0  0  0  0  0
  1  2  1  1  0  0  0
  1  3  1  0  0  0  0
  1  4  2  0  0  0  0
  1  6  1  0  0  0  0
  5  6  1  0  0  0  0
  7  5  1  6  0  0  0
  7  8  1  0  0  0  0
  7  9  1  0  0  0  0
  9 10  1  1  0  0  0
  9 11  1  0  0  0  0
 11 12  1  6  0  0  0
 11 13  1  0  0  0  0
 13 31  1  0  0  0  0
 14 15  1  0  0  0  0
 15 16  2  0  0  0  0
 15 17  1  0  0  0  0
 17 18  1  0  0  0  0
 18 20  2  0  0  0  0
 19 18  1  6  0  0  0
 19 22  1  0  0  0  0
 19 30  1  0  0  0  0
 21 23  1  1  0  0  0
 21 29  1  0  0  0  0
 21 22  1  0  0  0  0
 23 24  1  0  0  0  0
 24 25  1  6  0  0  0
 24 26  1  0  0  0  0
 26 27  1  6  0  0  0
 26 28  1  0  0  0  0
 29 28  1  6  0  0  0
 29 31  1  0  0  0  0
 30 14  1  6  0  0  0
 30 31  1  0  0  0  0
M  CHG  1   3  -1
M  END
>  <CHROM.1>
-76.86808256,-34.92840734,-31.98225672,62.89358365,70.72441255,175.31810563
122.12862792,28.02099221,37.76064875,19.38827845,-1.81535121,-1.25376992
2.73887556

>  <Name>
ligand

>  <RI>
0

>  <Rbt.Current_Directory>
/home/itssahil/PROJECTS/Mol_Feturizer/New_Systems/rnas/3F2T

>  <Rbt.Executable>
rbdock ($Id: //depot/dev/client3/rdock/2013.1/src/exe/rbdock.cxx#4 $)

>  <Rbt.Library>
libRbt.so (2013.1, Build901 2013/11/27)

>  <Rbt.Parameter_File>
/export/apps/rDock/src/rDock_2013.1_src/data/scripts/dock_solv.prm

>  <Rbt.Receptor>
prm/pocket_docking_6.prm

>  <SCORE>
-18.8628

>  <SCORE.INTER>
-21.7347

>  <SCORE.INTER.CONST>
1

>  <SCORE.INTER.POLAR>
0

>  <SCORE.INTER.ROT>
7

>  <SCORE.INTER.SOLV>
14.983

>  <SCORE.INTER.VDW>
-27.7508

>  <SCORE.INTER.norm>
-0.701121

>  <SCORE.INTRA>
2.87197

>  <SCORE.INTRA.DIHEDRAL>
1.61249

>  <SCORE.INTRA.DIHEDRAL.0>
4.64198

>  <SCORE.INTRA.POLAR>
0

>  <SCORE.INTRA.POLAR.0>
0

>  <SCORE.INTRA.REPUL>
0

>  <SCORE.INTRA.REPUL.0>
0

>  <SCORE.INTRA.SOLV>
4.37124

>  <SCORE.INTRA.SOLV.lig_0>
-49.3611

>  <SCORE.INTRA.VDW>
-0.119895

>  <SCORE.INTRA.VDW.0>
-1.91858

>  <SCORE.INTRA.norm>
0.0926442

>  <SCORE.RESTR>
0

>  <SCORE.RESTR.CAVITY>
0

>  <SCORE.RESTR.norm>
0

>  <SCORE.SYSTEM>
0

>  <SCORE.SYSTEM.CONST>
0

>  <SCORE.SYSTEM.DIHEDRAL>
0

>  <SCORE.SYSTEM.SOLV>
0

>  <SCORE.SYSTEM.norm>
0

>  <SCORE.heavy>
31

>  <SCORE.norm>
-0.608476

>  <RMSD>
4.790

$$$$
ligand
 OpenBabel11021811473D
libRbt.so/2013.1/901 2013/11/27
 31 33  0  0  0  0  0  0  0  0999 V2000
   25.4477   35.4099   17.5431 P   0  0  1  0  0  0  0  0  0  0  0  0
   25.2266   35.8738   18.9605 O   0  0  0  0  0  0  0  0  0  0  0  0
   26.4851   34.3186   17.5491 O   0  5  0  0  0  0  0  0  0  0  0  0
   24.1165   34.9254   17.0379 O   0  0  0  0  0  0  0  0  0  0  0  0
   26.9593   37.4844   17.0120 C   0  0  0  0  0  0  0  0  0  0  0  0
   25.9663   36.5805   16.5741 O   0  0  0  0  0  0  0  0  0  0  0  0
   28.2893   36.7462   17.1399 C   0  0  1  0  0  0  0  0  0  0  0  0
   28.6800   36.2442   15.8774 O   0  0  0  0  0  0  0  0  0  0  0  0
   29.3626   37.6935   17.6493 C   0  0  1  0  0  0  0  0  0  0  0  0
   29.1912   38.9366   17.0227 O   0  0  0  0  0  0  0  0  0  0  0  0
   29.3028   37.8896   19.1549 C   0  0  1  0  0  0  0  0  0  0  0  0
   30.3490   38.7449   19.5289 O   0  0  0  0  0  0  0  0  0  0  0  0
   27.9782   38.5084   19.5695 C   0  0  0  0  0  0  0  0  0  0  0  0
   27.3583   36.1059   20.8974 N   0  0  0  0  0  0  0  0  0  0  0  0
   26.9971   34.9174   21.4940 C   0  0  0  0  0  0  0  0  0  0  0  0
   26.8967   33.8959   20.8208 O   0  0  0  0  0  0  0  0  0  0  0  0
   26.7438   34.8640   22.8457 N   0  0  0  0  0  0  0  0  0  0  0  0
   26.8609   36.0018   23.6200 C   0  0  0  0  0  0  0  0  0  0  0  0
   27.2240   37.2057   23.0267 C   0  0  1  0  0  0  0  0  0  0  0  0
   26.6513   35.9447   24.8335 O   0  0  0  0  0  0  0  0  0  0  0  0
   27.7040   39.5420   23.2027 C   0  0  2  0  0  0  0  0  0  0  0  0
   27.3411   38.3471   23.7943 N   0  0  0  0  0  0  0  0  0  0  0  0
   27.8218   40.6949   23.9797 C   0  0  0  0  0  0  0  0  0  0  0  0
   28.1811   41.9030   23.3939 C   0  0  1  0  0  0  0  0  0  0  0  0
   28.2942   43.1192   24.2576 C   0  0  0  0  0  0  0  0  0  0  0  0
   28.4314   41.9615   22.0145 C   0  0  1  0  0  0  0  0  0  0  0  0
   28.8314   43.2467   21.3433 C   0  0  0  0  0  0  0  0  0  0  0  0
   28.3113   40.8096   21.2415 C   0  0  0  0  0  0  0  0  0  0  0  0
   27.9464   39.5965   21.8281 C   0  0  1  0  0  0  0  0  0  0  0  0
   27.4694   37.2537   21.6559 C   0  0  1  0  0  0  0  0  0  0  0  0
   27.8241   38.4486   21.0595 N   0  0  0  0  0  0  0  0  0  0  0  0
  1  2  1  1  0  0  0
  1  3  1  0  0  0  0
  1  4  2  0  0  0  0
  1  6  1  0  0  0  0
  5  6  1  0  0  0  0
  7  5  1  6  0  0  0
  7  8  1  0  0  0  0
  7  9  1  0  0  0  0
  9 10  1  6  0  0  0
  9 11  1  0  0  0  0
 11 12  1  6  0  0  0
 11 13  1  0  0  0  0
 13 31  1  0  0  0  0
 14 15  1  0  0  0  0
 15 16  2  0  0  0  0
 15 17  1  0  0  0  0
 17 18  1  0  0  0  0
 18 20  2  0  0  0  0
 19 18  1  1  0  0  0
 19 22  1  0  0  0  0
 19 30  1  0  0  0  0
 21 23  1  6  0  0  0
 21 29  1  0  0  0  0
 21 22  1  0  0  0  0
 23 24  1  0  0  0  0
 24 25  1  1  0  0  0
 24 26  1  0  0  0  0
 26 27  1  1  0  0  0
 26 28  1  0  0  0  0
 29 28  1  1  0  0  0
 29 31  1  0  0  0  0
 30 14  1  1  0  0  0
 30 31  1  0  0  0  0
M  CHG  1   3  -1
M  END
>  <CHROM.1>
69.25543931,42.73751864,61.72805996,-40.21253723,178.39957642,168.97333549
106.98082375,27.44567005,37.66235202,20.26494947,2.12591070,-1.13898095,-1.81280968

>  <Name>
ligand

>  <RI>
0

>  <Rbt.Current_Directory>
/home/itssahil/PROJECTS/Mol_Feturizer/New_Systems/rnas/3F2T

>  <Rbt.Executable>
rbdock ($Id: //depot/dev/client3/rdock/2013.1/src/exe/rbdock.cxx#4 $)

>  <Rbt.Library>
libRbt.so (2013.1, Build901 2013/11/27)

>  <Rbt.Parameter_File>
/export/apps/rDock/src/rDock_2013.1_src/data/scripts/dock_solv.prm

>  <Rbt.Receptor>
prm/pocket_docking_7.prm

>  <SCORE>
-19.9363

>  <SCORE.INTER>
-21.87

>  <SCORE.INTER.CONST>
1

>  <SCORE.INTER.POLAR>
0

>  <SCORE.INTER.ROT>
7

>  <SCORE.INTER.SOLV>
9.66526

>  <SCORE.INTER.VDW>
-26.0684

>  <SCORE.INTER.norm>
-0.705483

>  <SCORE.INTRA>
1.93366

>  <SCORE.INTRA.DIHEDRAL>
-0.664903

>  <SCORE.INTRA.DIHEDRAL.0>
4.64198

>  <SCORE.INTRA.POLAR>
0

>  <SCORE.INTRA.POLAR.0>
0

>  <SCORE.INTRA.REPUL>
0

>  <SCORE.INTRA.REPUL.0>
0

>  <SCORE.INTRA.SOLV>
2.35917

>  <SCORE.INTRA.SOLV.lig_0>
-49.3611

>  <SCORE.INTRA.VDW>
1.08653

>  <SCORE.INTRA.VDW.0>
-1.91858

>  <SCORE.INTRA.norm>
0.0623762

>  <SCORE.RESTR>
0

>  <SCORE.RESTR.CAVITY>
0

>  <SCORE.RESTR.norm>
0

>  <SCORE.SYSTEM>
0

>  <SCORE.SYSTEM.CONST>
0

>  <SCORE.SYSTEM.DIHEDRAL>
0

>  <SCORE.SYSTEM.SOLV>
0

>  <SCORE.SYSTEM.norm>
0

>  <SCORE.heavy>
31

>  <SCORE.norm>
-0.643107

>  <RMSD>
4.794

$$$$
ligand
 OpenBabel11021811473D
libRbt.so/2013.1/901 2013/11/27
 31 33  0  0  0  0  0  0  0  0999 V2000
   26.2001   44.0807   16.3697 P   0  0  1  0  0  0  0  0  0  0  0  0
   27.3217   44.1273   15.3633 O   0  0  0  0  0  0  0  0  0  0  0  0
   26.0605   45.4411   16.9997 O   0  5  0  0  0  0  0  0  0  0  0  0
   24.9639   43.6744   15.6155 O   0  0  0  0  0  0  0  0  0  0  0  0
   27.7382   42.8769   18.1177 C   0  0  0  0  0  0  0  0  0  0  0  0
   26.4552   43.0154   17.5437 O   0  0  0  0  0  0  0  0  0  0  0  0
   27.6927   41.7964   19.1950 C   0  0  1  0  0  0  0  0  0  0  0  0
   26.7234   42.1326   20.1677 O   0  0  0  0  0  0  0  0  0  0  0  0
   27.3273   40.4586   18.5742 C   0  0  1  0  0  0  0  0  0  0  0  0
   28.4430   39.9736   17.8763 O   0  0  0  0  0  0  0  0  0  0  0  0
   26.9092   39.4282   19.6097 C   0  0  1  0  0  0  0  0  0  0  0  0
   26.4319   38.2954   18.9351 O   0  0  0  0  0  0  0  0  0  0  0  0
   28.0858   39.0303   20.4853 C   0  0  0  0  0  0  0  0  0  0  0  0
   27.3131   39.9490   23.0306 N   0  0  0  0  0  0  0  0  0  0  0  0
   27.0006   40.4434   24.2783 C   0  0  0  0  0  0  0  0  0  0  0  0
   27.0001   41.6545   24.4784 O   0  0  0  0  0  0  0  0  0  0  0  0
   26.6893   39.5875   25.3100 N   0  0  0  0  0  0  0  0  0  0  0  0
   26.6761   38.2223   25.1003 C   0  0  0  0  0  0  0  0  0  0  0  0
   26.9907   37.7142   23.8448 C   0  0  1  0  0  0  0  0  0  0  0  0
   26.3782   37.4608   26.0227 O   0  0  0  0  0  0  0  0  0  0  0  0
   27.2925   35.8482   22.3797 C   0  0  2  0  0  0  0  0  0  0  0  0
   26.9812   36.3507   23.6287 N   0  0  0  0  0  0  0  0  0  0  0  0
   27.2826   34.4699   22.1626 C   0  0  0  0  0  0  0  0  0  0  0  0
   27.5992   33.9537   20.9115 C   0  0  1  0  0  0  0  0  0  0  0  0
   27.5818   32.4705   20.7167 C   0  0  0  0  0  0  0  0  0  0  0  0
   27.9253   34.8242   19.8606 C   0  0  1  0  0  0  0  0  0  0  0  0
   28.2648   34.3068   18.4897 C   0  0  0  0  0  0  0  0  0  0  0  0
   27.9358   36.1990   20.0807 C   0  0  0  0  0  0  0  0  0  0  0  0
   27.6222   36.7185   21.3380 C   0  0  1  0  0  0  0  0  0  0  0  0
   27.3143   38.5868   22.8078 C   0  0  1  0  0  0  0  0  0  0  0  0
   27.6344   38.0874   21.5599 N   0  0  0  0  0  0  0  0  0  0  0  0
  1  2  1  6  0  0  0
  1  3  1  0  0  0  0
  1  4  2  0  0  0  0
  1  6  1  0  0  0  0
  5  6  1  0  0  0  0
  7  5  1  6  0  0  0
  7  8  1  0  0  0  0
  7  9  1  0  0  0  0
  9 10  1  1  0  0  0
  9 11  1  0  0  0  0
 11 12  1  6  0  0  0
 11 13  1  0  0  0  0
 13 31  1  0  0  0  0
 14 15  1  0  0  0  0
 15 16  2  0  0  0  0
 15 17  1  0  0  0  0
 17 18  1  0  0  0  0
 18 20  2  0  0  0  0
 19 18  1  6  0  0  0
 19 22  1  0  0  0  0
 19 30  1  0  0  0  0
 21 23  1  1  0  0  0
 21 29  1  0  0  0  0
 21 22  1  0  0  0  0
 23 24  1  0  0  0  0
 24 25  1  6  0  0  0
 24 26  1  0  0  0  0
 26 27  1  6  0  0  0
 26 28  1  0  0  0  0
 29 28  1  6  0  0  0
 29 31  1  0  0  0  0
 30 14  1  6  0  0  0
 30 31  1  0  0  0  0
M  CHG  1   3  -1
M  END
>  <CHROM.1>
-179.70625352,40.98752926,-57.49364004,74.48953226,172.56694157,176.05302207
88.87643606,27.09254114,39.43710357,20.38560489,-2.15507587,-1.42131436,1.90862452

>  <Name>
ligand

>  <RI>
0

>  <Rbt.Current_Directory>
/home/itssahil/PROJECTS/Mol_Feturizer/New_Systems/rnas/3F2T

>  <Rbt.Executable>
rbdock ($Id: //depot/dev/client3/rdock/2013.1/src/exe/rbdock.cxx#4 $)

>  <Rbt.Library>
libRbt.so (2013.1, Build901 2013/11/27)

>  <Rbt.Parameter_File>
/export/apps/rDock/src/rDock_2013.1_src/data/scripts/dock_solv.prm

>  <Rbt.Receptor>
prm/blind_docking_100.prm

>  <SCORE>
-27.4654

>  <SCORE.INTER>
-26.6713

>  <SCORE.INTER.CONST>
1

>  <SCORE.INTER.POLAR>
0

>  <SCORE.INTER.ROT>
7

>  <SCORE.INTER.SOLV>
20.029

>  <SCORE.INTER.VDW>
-32.7239

>  <SCORE.INTER.norm>
-0.860364

>  <SCORE.INTRA>
-0.794078

>  <SCORE.INTRA.DIHEDRAL>
-1.6977

>  <SCORE.INTRA.DIHEDRAL.0>
4.64198

>  <SCORE.INTRA.POLAR>
0

>  <SCORE.INTRA.POLAR.0>
0

>  <SCORE.INTRA.REPUL>
0

>  <SCORE.INTRA.REPUL.0>
0

>  <SCORE.INTRA.SOLV>
-0.503748

>  <SCORE.INTRA.SOLV.lig_0>
-49.3611

>  <SCORE.INTRA.VDW>
0.306646

>  <SCORE.INTRA.VDW.0>
-1.91858

>  <SCORE.INTRA.norm>
-0.0256154

>  <SCORE.RESTR>
0

>  <SCORE.RESTR.CAVITY>
0

>  <SCORE.RESTR.norm>
0

>  <SCORE.SYSTEM>
0

>  <SCORE.SYSTEM.CONST>
0

>  <SCORE.SYSTEM.DIHEDRAL>
0

>  <SCORE.SYSTEM.SOLV>
0

>  <SCORE.SYSTEM.norm>
0

>  <SCORE.heavy>
31

>  <SCORE.norm>
-0.88598

>  <RMSD>
4.799

$$$$
ligand
 OpenBabel11021811473D
libRbt.so/2013.1/901 2013/11/27
 31 33  0  0  0  0  0  0  0  0999 V2000
   26.2070   43.3592   16.0675 P   0  0  1  0  0  0  0  0  0  0  0  0
   24.8590   43.4395   15.3969 O   0  0  0  0  0  0  0  0  0  0  0  0
   27.2132   44.0872   15.2163 O   0  5  0  0  0  0  0  0  0  0  0  0
   26.0491   43.9888   17.4243 O   0  0  0  0  0  0  0  0  0  0  0  0
   28.0065   41.5955   16.7898 C   0  0  0  0  0  0  0  0  0  0  0  0
   26.7218   41.8507   16.2614 O   0  0  0  0  0  0  0  0  0  0  0  0
   27.9480   40.3533   17.6750 C   0  0  1  0  0  0  0  0  0  0  0  0
   29.2508   39.8356   17.8578 O   0  0  0  0  0  0  0  0  0  0  0  0
   27.3621   40.7086   19.0312 C   0  0  1  0  0  0  0  0  0  0  0  0
   26.2458   41.5336   18.8300 O   0  0  0  0  0  0  0  0  0  0  0  0
   26.9322   39.4840   19.8214 C   0  0  1  0  0  0  0  0  0  0  0  0
   26.2726   38.6068   18.9489 O   0  0  0  0  0  0  0  0  0  0  0  0
   28.1349   38.7784   20.4257 C   0  0  0  0  0  0  0  0  0  0  0  0
   27.3435   39.5927   23.0007 N   0  0  0  0  0  0  0  0  0  0  0  0
   27.0216   40.0366   24.2649 C   0  0  0  0  0  0  0  0  0  0  0  0
   27.0093   41.2391   24.5109 O   0  0  0  0  0  0  0  0  0  0  0  0
   26.7140   39.1393   25.2620 N   0  0  0  0  0  0  0  0  0  0  0  0
   26.7140   37.7830   25.0006 C   0  0  0  0  0  0  0  0  0  0  0  0
   27.0383   37.3258   23.7281 C   0  0  1  0  0  0  0  0  0  0  0  0
   26.4194   36.9843   25.8921 O   0  0  0  0  0  0  0  0  0  0  0  0
   27.3629   35.5196   22.1945 C   0  0  2  0  0  0  0  0  0  0  0  0
   27.0421   35.9715   23.4603 N   0  0  0  0  0  0  0  0  0  0  0  0
   27.3665   34.1505   21.9252 C   0  0  0  0  0  0  0  0  0  0  0  0
   27.6927   33.6850   20.6569 C   0  0  1  0  0  0  0  0  0  0  0  0
   27.6896   32.2103   20.4058 C   0  0  0  0  0  0  0  0  0  0  0  0
   28.0151   34.5977   19.6411 C   0  0  1  0  0  0  0  0  0  0  0  0
   28.3649   34.1359   18.2531 C   0  0  0  0  0  0  0  0  0  0  0  0
   28.0123   35.9632   19.9134 C   0  0  0  0  0  0  0  0  0  0  0  0
   27.6889   36.4318   21.1881 C   0  0  1  0  0  0  0  0  0  0  0  0
   27.3581   38.2401   22.7264 C   0  0  1  0  0  0  0  0  0  0  0  0
   27.6877   37.7913   21.4618 N   0  0  0  0  0  0  0  0  0  0  0  0
  1  2  1  6  0  0  0
  1  3  1  0  0  0  0
  1  4  2  0  0  0  0
  1  6  1  0  0  0  0
  5  6  1  0  0  0  0
  7  5  1  6  0  0  0
  7  8  1  0  0  0  0
  7  9  1  0  0  0  0
  9 10  1  6  0  0  0
  9 11  1  0  0  0  0
 11 12  1  6  0  0  0
 11 13  1  0  0  0  0
 13 31  1  0  0  0  0
 14 15  1  0  0  0  0
 15 16  2  0  0  0  0
 15 17  1  0  0  0  0
 17 18  1  0  0  0  0
 18 20  2  0  0  0  0
 19 18  1  6  0  0  0
 19 22  1  0  0  0  0
 19 30  1  0  0  0  0
 21 23  1  1  0  0  0
 21 29  1  0  0  0  0
 21 22  1  0  0  0  0
 23 24  1  0  0  0  0
 24 25  1  6  0  0  0
 24 26  1  0  0  0  0
 26 27  1  6  0  0  0
 26 28  1  0  0  0  0
 29 28  1  6  0  0  0
 29 31  1  0  0  0  0
 30 14  1  6  0  0  0
 30 31  1  0  0  0  0
M  CHG  1   3  -1
M  END
>  <CHROM.1>
143.62992635,175.65518844,161.24020054,44.14686425,-42.99198882,166.14089645
104.48123314,27.15060235,39.00833526,20.13154485,2.01718195,1.38285985,-1.18259248

>  <Name>
ligand

>  <RI>
0

>  <Rbt.Current_Directory>
/home/itssahil/PROJECTS/Mol_Feturizer/New_Systems/rnas/3F2T

>  <Rbt.Executable>
rbdock ($Id: //depot/dev/client3/rdock/2013.1/src/exe/rbdock.cxx#4 $)

>  <Rbt.Library>
libRbt.so (2013.1, Build901 2013/11/27)

>  <Rbt.Parameter_File>
/export/apps/rDock/src/rDock_2013.1_src/data/scripts/dock_solv.prm

>  <Rbt.Receptor>
prm/pocket_docking_2.prm

>  <SCORE>
-20.7173

>  <SCORE.INTER>
-25.149

>  <SCORE.INTER.CONST>
1

>  <SCORE.INTER.POLAR>
0

>  <SCORE.INTER.ROT>
7

>  <SCORE.INTER.SOLV>
20.1644

>  <SCORE.INTER.VDW>
-31.7541

>  <SCORE.INTER.norm>
-0.811257

>  <SCORE.INTRA>
4.27501

>  <SCORE.INTRA.DIHEDRAL>
5.20469

>  <SCORE.INTRA.DIHEDRAL.0>
4.64198

>  <SCORE.INTRA.POLAR>
0

>  <SCORE.INTRA.POLAR.0>
0

>  <SCORE.INTRA.REPUL>
0

>  <SCORE.INTRA.REPUL.0>
0

>  <SCORE.INTRA.SOLV>
2.23915

>  <SCORE.INTRA.SOLV.lig_0>
-49.3611

>  <SCORE.INTRA.VDW>
0.553082

>  <SCORE.INTRA.VDW.0>
-1.91858

>  <SCORE.INTRA.norm>
0.137903

>  <SCORE.RESTR>
0.156687

>  <SCORE.RESTR.CAVITY>
0.156687

>  <SCORE.RESTR.norm>
0.00505441

>  <SCORE.SYSTEM>
0

>  <SCORE.SYSTEM.CONST>
0

>  <SCORE.SYSTEM.DIHEDRAL>
0

>  <SCORE.SYSTEM.SOLV>
0

>  <SCORE.SYSTEM.norm>
0

>  <SCORE.heavy>
31

>  <SCORE.norm>
-0.6683

>  <RMSD>
4.799

$$$$
ligand
 OpenBabel11021811473D
libRbt.so/2013.1/901 2013/11/27
 31 33  0  0  0  0  0  0  0  0999 V2000
   25.5498   43.6976   16.3807 P   0  0  1  0  0  0  0  0  0  0  0  0
   26.3093   42.8585   15.3846 O   0  0  0  0  0  0  0  0  0  0  0  0
   26.4166   44.8571   16.7947 O   0  5  0  0  0  0  0  0  0  0  0  0
   24.2910   44.1471   15.6913 O   0  0  0  0  0  0  0  0  0  0  0  0
   25.7582   41.6479   18.0011 C   0  0  0  0  0  0  0  0  0  0  0  0
   25.1445   42.8850   17.7050 O   0  0  0  0  0  0  0  0  0  0  0  0
   27.2363   41.8799   18.3034 C   0  0  1  0  0  0  0  0  0  0  0  0
   27.3687   42.6075   19.5083 O   0  0  0  0  0  0  0  0  0  0  0  0
   27.9525   40.5477   18.4488 C   0  0  1  0  0  0  0  0  0  0  0  0
   29.3241   40.7960   18.6046 O   0  0  0  0  0  0  0  0  0  0  0  0
   27.4594   39.7458   19.6415 C   0  0  1  0  0  0  0  0  0  0  0  0
   26.2733   39.0948   19.2737 O   0  0  0  0  0  0  0  0  0  0  0  0
   28.4889   38.7102   20.0622 C   0  0  0  0  0  0  0  0  0  0  0  0
   27.8460   39.9708   22.4947 N   0  0  0  0  0  0  0  0  0  0  0  0
   27.6004   40.6271   23.6812 C   0  0  0  0  0  0  0  0  0  0  0  0
   27.6992   41.8492   23.7410 O   0  0  0  0  0  0  0  0  0  0  0  0
   27.2454   39.9215   24.8082 N   0  0  0  0  0  0  0  0  0  0  0  0
   27.1205   38.5468   24.7568 C   0  0  0  0  0  0  0  0  0  0  0  0
   27.3671   37.8759   23.5641 C   0  0  1  0  0  0  0  0  0  0  0  0
   26.7840   37.9213   25.7643 O   0  0  0  0  0  0  0  0  0  0  0  0
   27.4898   35.8376   22.3192 C   0  0  2  0  0  0  0  0  0  0  0  0
   27.2460   36.5020   23.5061 N   0  0  0  0  0  0  0  0  0  0  0  0
   27.3672   34.4489   22.2620 C   0  0  0  0  0  0  0  0  0  0  0  0
   27.6150   33.7703   21.0746 C   0  0  1  0  0  0  0  0  0  0  0  0
   27.4772   32.2809   21.0515 C   0  0  0  0  0  0  0  0  0  0  0  0
   27.9855   34.4869   19.9266 C   0  0  1  0  0  0  0  0  0  0  0  0
   28.2537   33.7917   18.6200 C   0  0  0  0  0  0  0  0  0  0  0  0
   28.1087   35.8725   19.9873 C   0  0  0  0  0  0  0  0  0  0  0  0
   27.8640   36.5548   21.1804 C   0  0  1  0  0  0  0  0  0  0  0  0
   27.7356   38.5965   22.4298 C   0  0  1  0  0  0  0  0  0  0  0  0
   27.9884   37.9346   21.2435 N   0  0  0  0  0  0  0  0  0  0  0  0
  1  2  1  6  0  0  0
  1  3  1  0  0  0  0
  1  4  2  0  0  0  0
  1  6  1  0  0  0  0
  5  6  1  0  0  0  0
  7  5  1  1  0  0  0
  7  8  1  0  0  0  0
  7  9  1  0  0  0  0
  9 10  1  1  0  0  0
  9 11  1  0  0  0  0
 11 12  1  6  0  0  0
 11 13  1  0  0  0  0
 13 31  1  0  0  0  0
 14 15  1  0  0  0  0
 15 16  2  0  0  0  0
 15 17  1  0  0  0  0
 17 18  1  0  0  0  0
 18 20  2  0  0  0  0
 19 18  1  6  0  0  0
 19 22  1  0  0  0  0
 19 30  1  0  0  0  0
 21 23  1  1  0  0  0
 21 29  1  0  0  0  0
 21 22  1  0  0  0  0
 23 24  1  0  0  0  0
 24 25  1  6  0  0  0
 24 26  1  0  0  0  0
 26 27  1  6  0  0  0
 26 28  1  0  0  0  0
 29 28  1  6  0  0  0
 29 31  1  0  0  0  0
 30 14  1  6  0  0  0
 30 31  1  0  0  0  0
M  CHG  1   3  -1
M  END
>  <CHROM.1>
66.49499660,15.32570879,67.32789226,174.73210726,80.97974108,179.70060978
122.09757793,27.13270463,39.39842974,20.24885680,-3.08383045,-1.39664996
1.00565895

>  <Name>
ligand

>  <RI>
0

>  <Rbt.Current_Directory>
/home/itssahil/PROJECTS/Mol_Feturizer/New_Systems/rnas/3F2T

>  <Rbt.Executable>
rbdock ($Id: //depot/dev/client3/rdock/2013.1/src/exe/rbdock.cxx#4 $)

>  <Rbt.Library>
libRbt.so (2013.1, Build901 2013/11/27)

>  <Rbt.Parameter_File>
/export/apps/rDock/src/rDock_2013.1_src/data/scripts/dock_solv.prm

>  <Rbt.Receptor>
prm/pocket_docking_3.prm

>  <SCORE>
-22.5676

>  <SCORE.INTER>
-24.6963

>  <SCORE.INTER.CONST>
1

>  <SCORE.INTER.POLAR>
0

>  <SCORE.INTER.ROT>
7

>  <SCORE.INTER.SOLV>
16.4083

>  <SCORE.INTER.VDW>
-30.2003

>  <SCORE.INTER.norm>
-0.796654

>  <SCORE.INTRA>
2.12863

>  <SCORE.INTRA.DIHEDRAL>
0.596141

>  <SCORE.INTRA.DIHEDRAL.0>
4.64198

>  <SCORE.INTRA.POLAR>
0

>  <SCORE.INTRA.POLAR.0>
0

>  <SCORE.INTRA.REPUL>
0

>  <SCORE.INTRA.REPUL.0>
0

>  <SCORE.INTRA.SOLV>
0.99217

>  <SCORE.INTRA.SOLV.lig_0>
-49.3611

>  <SCORE.INTRA.VDW>
1.33447

>  <SCORE.INTRA.VDW.0>
-1.91858

>  <SCORE.INTRA.norm>
0.0686655

>  <SCORE.RESTR>
0

>  <SCORE.RESTR.CAVITY>
0

>  <SCORE.RESTR.norm>
0

>  <SCORE.SYSTEM>
0

>  <SCORE.SYSTEM.CONST>
0

>  <SCORE.SYSTEM.DIHEDRAL>
0

>  <SCORE.SYSTEM.SOLV>
0

>  <SCORE.SYSTEM.norm>
0

>  <SCORE.heavy>
31

>  <SCORE.norm>
-0.727989

>  <RMSD>
4.800

$$$$
ligand
 OpenBabel11021811473D
libRbt.so/2013.1/901 2013/11/27
 31 33  0  0  0  0  0  0  0  0999 V2000
   26.2846   43.4962   16.8932 P   0  0  1  0  0  0  0  0  0  0  0  0
   25.8504   43.1892   15.4823 O   0  0  0  0  0  0  0  0  0  0  0  0
   27.7866   43.5961   16.9245 O   0  5  0  0  0  0  0  0  0  0  0  0
   25.6210   44.7911   17.2739 O   0  0  0  0  0  0  0  0  0  0  0  0
   26.3734   42.3597   19.2535 C   0  0  0  0  0  0  0  0  0  0  0  0
   25.8416   42.3668   17.9451 O   0  0  0  0  0  0  0  0  0  0  0  0
   27.8246   41.8889   19.2033 C   0  0  1  0  0  0  0  0  0  0  0  0
   28.3865   41.9349   20.4999 O   0  0  0  0  0  0  0  0  0  0  0  0
   27.8905   40.4618   18.6859 C   0  0  1  0  0  0  0  0  0  0  0  0
   29.2314   40.1475   18.4204 O   0  0  0  0  0  0  0  0  0  0  0  0
   27.3366   39.4537   19.6788 C   0  0  1  0  0  0  0  0  0  0  0  0
   26.8858   38.3348   18.9641 O   0  0  0  0  0  0  0  0  0  0  0  0
   28.4076   39.0189   20.6654 C   0  0  0  0  0  0  0  0  0  0  0  0
   27.5176   39.8629   23.1983 N   0  0  0  0  0  0  0  0  0  0  0  0
   27.1500   40.3166   24.4465 C   0  0  0  0  0  0  0  0  0  0  0  0
   27.2035   41.5151   24.7065 O   0  0  0  0  0  0  0  0  0  0  0  0
   26.7227   39.4337   25.4118 N   0  0  0  0  0  0  0  0  0  0  0  0
   26.6475   38.0828   25.1336 C   0  0  0  0  0  0  0  0  0  0  0  0
   27.0172   37.6157   23.8772 C   0  0  1  0  0  0  0  0  0  0  0  0
   26.2463   37.2983   25.9956 O   0  0  0  0  0  0  0  0  0  0  0  0
   27.3124   35.8049   22.3431 C   0  0  2  0  0  0  0  0  0  0  0  0
   26.9462   36.2666   23.5930 N   0  0  0  0  0  0  0  0  0  0  0  0
   27.2404   34.4411   22.0571 C   0  0  0  0  0  0  0  0  0  0  0  0
   27.6111   33.9655   20.8048 C   0  0  1  0  0  0  0  0  0  0  0  0
   27.5242   32.4966   20.5352 C   0  0  0  0  0  0  0  0  0  0  0  0
   28.0552   34.8630   19.8220 C   0  0  1  0  0  0  0  0  0  0  0  0
   28.4570   34.3905   18.4517 C   0  0  0  0  0  0  0  0  0  0  0  0
   28.1276   36.2232   20.1109 C   0  0  0  0  0  0  0  0  0  0  0  0
   27.7595   36.7015   21.3697 C   0  0  1  0  0  0  0  0  0  0  0  0
   27.4580   38.5147   22.9083 C   0  0  1  0  0  0  0  0  0  0  0  0
   27.8330   38.0556   21.6601 N   0  0  0  0  0  0  0  0  0  0  0  0
  1  2  1  6  0  0  0
  1  3  1  0  0  0  0
  1  4  2  0  0  0  0
  1  6  1  0  0  0  0
  5  6  1  0  0  0  0
  7  5  1  1  0  0  0
  7  8  1  0  0  0  0
  7  9  1  0  0  0  0
  9 10  1  1  0  0  0
  9 11  1  0  0  0  0
 11 12  1  6  0  0  0
 11 13  1  0  0  0  0
 13 31  1  0  0  0  0
 14 15  1  0  0  0  0
 15 16  2  0  0  0  0
 15 17  1  0  0  0  0
 17 18  1  0  0  0  0
 18 20  2  0  0  0  0
 19 18  1  6  0  0  0
 19 22  1  0  0  0  0
 19 30  1  0  0  0  0
 21 23  1  1  0  0  0
 21 29  1  0  0  0  0
 21 22  1  0  0  0  0
 23 24  1  0  0  0  0
 24 25  1  6  0  0  0
 24 26  1  0  0  0  0
 26 27  1  6  0  0  0
 26 28  1  0  0  0  0
 29 28  1  6  0  0  0
 29 31  1  0  0  0  0
 30 14  1  6  0  0  0
 30 31  1  0  0  0  0
M  CHG  1   3  -1
M  END
>  <CHROM.1>
-73.32909296,168.02648273,177.38848444,169.31986929,154.10909229,178.37382337
85.08098215,27.25210879,39.27133924,20.58900198,-2.11966637,-1.42277990,1.95989039

>  <Name>
ligand

>  <RI>
0

>  <Rbt.Current_Directory>
/home/itssahil/PROJECTS/Mol_Feturizer/New_Systems/rnas/3F2T

>  <Rbt.Executable>
rbdock ($Id: //depot/dev/client3/rdock/2013.1/src/exe/rbdock.cxx#4 $)

>  <Rbt.Library>
libRbt.so (2013.1, Build901 2013/11/27)

>  <Rbt.Parameter_File>
/export/apps/rDock/src/rDock_2013.1_src/data/scripts/dock_solv.prm

>  <Rbt.Receptor>
prm/blind_docking_100.prm

>  <SCORE>
-24.4694

>  <SCORE.INTER>
-27.2656

>  <SCORE.INTER.CONST>
1

>  <SCORE.INTER.POLAR>
0

>  <SCORE.INTER.ROT>
7

>  <SCORE.INTER.SOLV>
17.232

>  <SCORE.INTER.VDW>
-32.1877

>  <SCORE.INTER.norm>
-0.879536

>  <SCORE.INTRA>
2.7962

>  <SCORE.INTRA.DIHEDRAL>
0.360399

>  <SCORE.INTRA.DIHEDRAL.0>
4.64198

>  <SCORE.INTRA.POLAR>
0

>  <SCORE.INTRA.POLAR.0>
0

>  <SCORE.INTRA.REPUL>
0

>  <SCORE.INTRA.REPUL.0>
0

>  <SCORE.INTRA.SOLV>
2.49893

>  <SCORE.INTRA.SOLV.lig_0>
-49.3611

>  <SCORE.INTRA.VDW>
1.36654

>  <SCORE.INTRA.VDW.0>
-1.91858

>  <SCORE.INTRA.norm>
0.0902

>  <SCORE.RESTR>
0

>  <SCORE.RESTR.CAVITY>
0

>  <SCORE.RESTR.norm>
0

>  <SCORE.SYSTEM>
0

>  <SCORE.SYSTEM.CONST>
0

>  <SCORE.SYSTEM.DIHEDRAL>
0

>  <SCORE.SYSTEM.SOLV>
0

>  <SCORE.SYSTEM.norm>
0

>  <SCORE.heavy>
31

>  <SCORE.norm>
-0.789336

>  <RMSD>
4.809

$$$$
ligand
 OpenBabel11021811473D
libRbt.so/2013.1/901 2013/11/27
 31 33  0  0  0  0  0  0  0  0999 V2000
   26.6765   34.6461   13.8892 P   0  0  1  0  0  0  0  0  0  0  0  0
   27.4367   35.1641   12.6946 O   0  0  0  0  0  0  0  0  0  0  0  0
   25.2935   34.2492   13.4456 O   0  5  0  0  0  0  0  0  0  0  0  0
   27.4595   33.4778   14.4219 O   0  0  0  0  0  0  0  0  0  0  0  0
   27.5268   35.8655   16.0480 C   0  0  0  0  0  0  0  0  0  0  0  0
   26.5274   35.7367   15.0583 O   0  0  0  0  0  0  0  0  0  0  0  0
   27.2258   37.0893   16.9094 C   0  0  1  0  0  0  0  0  0  0  0  0
   25.9160   36.9941   17.4330 O   0  0  0  0  0  0  0  0  0  0  0  0
   28.2141   37.1703   18.0607 C   0  0  1  0  0  0  0  0  0  0  0  0
   29.5062   36.9760   17.5509 O   0  0  0  0  0  0  0  0  0  0  0  0
   28.1655   38.5078   18.7801 C   0  0  1  0  0  0  0  0  0  0  0  0
   26.8756   38.6797   19.3021 O   0  0  0  0  0  0  0  0  0  0  0  0
   29.1746   38.5502   19.9156 C   0  0  0  0  0  0  0  0  0  0  0  0
   28.3063   36.0107   20.7624 N   0  0  0  0  0  0  0  0  0  0  0  0
   27.8489   34.7569   21.1050 C   0  0  0  0  0  0  0  0  0  0  0  0
   28.0921   33.7941   20.3833 O   0  0  0  0  0  0  0  0  0  0  0  0
   27.1152   34.5719   22.2545 N   0  0  0  0  0  0  0  0  0  0  0  0
   26.8400   35.6423   23.0830 C   0  0  0  0  0  0  0  0  0  0  0  0
   27.2967   36.9114   22.7451 C   0  0  1  0  0  0  0  0  0  0  0  0
   26.1985   35.4680   24.1211 O   0  0  0  0  0  0  0  0  0  0  0  0
   27.4802   39.2459   23.2306 C   0  0  2  0  0  0  0  0  0  0  0  0
   27.0237   37.9859   23.5676 N   0  0  0  0  0  0  0  0  0  0  0  0
   27.2035   40.3312   24.0628 C   0  0  0  0  0  0  0  0  0  0  0  0
   27.6535   41.6036   23.7306 C   0  0  1  0  0  0  0  0  0  0  0  0
   27.3348   42.7440   24.6449 C   0  0  0  0  0  0  0  0  0  0  0  0
   28.3943   41.7959   22.5547 C   0  0  1  0  0  0  0  0  0  0  0  0
   28.9074   43.1546   22.1637 C   0  0  0  0  0  0  0  0  0  0  0  0
   28.6675   40.7112   21.7255 C   0  0  0  0  0  0  0  0  0  0  0  0
   28.2124   39.4334   22.0559 C   0  0  1  0  0  0  0  0  0  0  0  0
   28.0307   37.0922   21.5746 C   0  0  1  0  0  0  0  0  0  0  0  0
   28.4814   38.3522   21.2302 N   0  0  0  0  0  0  0  0  0  0  0  0
  1  2  1  6  0  0  0
  1  3  1  0  0  0  0
  1  4  2  0  0  0  0
  1  6  1  0  0  0  0
  5  6  1  0  0  0  0
  7  5  1  1  0  0  0
  7  8  1  0  0  0  0
  7  9  1  0  0  0  0
  9 10  1  6  0  0  0
  9 11  1  0  0  0  0
 11 12  1  1  0  0  0
 11 13  1  0  0  0  0
 13 31  1  0  0  0  0
 14 15  1  0  0  0  0
 15 16  2  0  0  0  0
 15 17  1  0  0  0  0
 17 18  1  0  0  0  0
 18 20  2  0  0  0  0
 19 18  1  1  0  0  0
 19 22  1  0  0  0  0
 19 30  1  0  0  0  0
 21 23  1  6  0  0  0
 21 29  1  0  0  0  0
 21 22  1  0  0  0  0
 23 24  1  0  0  0  0
 24 25  1  1  0  0  0
 24 26  1  0  0  0  0
 26 27  1  1  0  0  0
 26 28  1  0  0  0  0
 29 28  1  1  0  0  0
 29 31  1  0  0  0  0
 30 14  1  1  0  0  0
 30 31  1  0  0  0  0
M  CHG  1   3  -1
M  END
>  <CHROM.1>
172.34664688,-87.79296784,54.73102910,47.16429056,60.58243303,-102.55507065
-101.60684126,27.51974703,37.29183041,19.52226175,-2.12542881,1.40663533
1.58526160

>  <Name>
ligand

>  <RI>
0

>  <Rbt.Current_Directory>
/home/itssahil/PROJECTS/Mol_Feturizer/New_Systems/rnas/3F2T

>  <Rbt.Executable>
rbdock ($Id: //depot/dev/client3/rdock/2013.1/src/exe/rbdock.cxx#4 $)

>  <Rbt.Library>
libRbt.so (2013.1, Build901 2013/11/27)

>  <Rbt.Parameter_File>
/export/apps/rDock/src/rDock_2013.1_src/data/scripts/dock_solv.prm

>  <Rbt.Receptor>
prm/pocket_docking_6.prm

>  <SCORE>
-22.9022

>  <SCORE.INTER>
-24.8319

>  <SCORE.INTER.CONST>
1

>  <SCORE.INTER.POLAR>
0

>  <SCORE.INTER.ROT>
7

>  <SCORE.INTER.SOLV>
13.3062

>  <SCORE.INTER.VDW>
-29.2566

>  <SCORE.INTER.norm>
-0.801028

>  <SCORE.INTRA>
1.92963

>  <SCORE.INTRA.DIHEDRAL>
2.78972

>  <SCORE.INTRA.DIHEDRAL.0>
4.64198

>  <SCORE.INTRA.POLAR>
0

>  <SCORE.INTRA.POLAR.0>
0

>  <SCORE.INTRA.REPUL>
0

>  <SCORE.INTRA.REPUL.0>
0

>  <SCORE.INTRA.SOLV>
-0.11607

>  <SCORE.INTRA.SOLV.lig_0>
-49.3611

>  <SCORE.INTRA.VDW>
0.592805

>  <SCORE.INTRA.VDW.0>
-1.91858

>  <SCORE.INTRA.norm>
0.0622461

>  <SCORE.RESTR>
0

>  <SCORE.RESTR.CAVITY>
0

>  <SCORE.RESTR.norm>
0

>  <SCORE.SYSTEM>
0

>  <SCORE.SYSTEM.CONST>
0

>  <SCORE.SYSTEM.DIHEDRAL>
0

>  <SCORE.SYSTEM.SOLV>
0

>  <SCORE.SYSTEM.norm>
0

>  <SCORE.heavy>
31

>  <SCORE.norm>
-0.738782

>  <RMSD>
4.814

$$$$
ligand
 OpenBabel11021811473D
libRbt.so/2013.1/901 2013/11/27
 31 33  0  0  0  0  0  0  0  0999 V2000
   25.6259   43.9259   16.7867 P   0  0  1  0  0  0  0  0  0  0  0  0
   24.6932   42.7567   16.5965 O   0  0  0  0  0  0  0  0  0  0  0  0
   25.9605   44.5006   15.4359 O   0  5  0  0  0  0  0  0  0  0  0  0
   24.9028   44.9133   17.6609 O   0  0  0  0  0  0  0  0  0  0  0  0
   26.9912   42.7324   18.6793 C   0  0  0  0  0  0  0  0  0  0  0  0
   27.0024   43.5190   17.5063 O   0  0  0  0  0  0  0  0  0  0  0  0
   27.6243   41.3759   18.3806 C   0  0  1  0  0  0  0  0  0  0  0  0
   28.9643   41.5551   17.9673 O   0  0  0  0  0  0  0  0  0  0  0  0
   27.6029   40.5066   19.6267 C   0  0  1  0  0  0  0  0  0  0  0  0
   26.2841   40.4411   20.0995 O   0  0  0  0  0  0  0  0  0  0  0  0
   28.1015   39.0955   19.3639 C   0  0  1  0  0  0  0  0  0  0  0  0
   28.8428   39.1055   18.1737 O   0  0  0  0  0  0  0  0  0  0  0  0
   28.9868   38.6122   20.5006 C   0  0  0  0  0  0  0  0  0  0  0  0
   28.0084   39.4778   22.9933 N   0  0  0  0  0  0  0  0  0  0  0  0
   27.6011   39.9326   24.2287 C   0  0  0  0  0  0  0  0  0  0  0  0
   27.7862   41.1040   24.5455 O   0  0  0  0  0  0  0  0  0  0  0  0
   26.9870   39.0806   25.1180 N   0  0  0  0  0  0  0  0  0  0  0  0
   26.7624   37.7617   24.7747 C   0  0  0  0  0  0  0  0  0  0  0  0
   27.1706   37.2936   23.5306 C   0  0  1  0  0  0  0  0  0  0  0  0
   26.1950   37.0073   25.5675 O   0  0  0  0  0  0  0  0  0  0  0  0
   27.3559   35.5138   21.9440 C   0  0  2  0  0  0  0  0  0  0  0  0
   26.9510   35.9761   23.1817 N   0  0  0  0  0  0  0  0  0  0  0  0
   27.1335   34.1819   21.5926 C   0  0  0  0  0  0  0  0  0  0  0  0
   27.5413   33.7052   20.3523 C   0  0  1  0  0  0  0  0  0  0  0  0
   27.2894   32.2705   20.0114 C   0  0  0  0  0  0  0  0  0  0  0  0
   28.1754   34.5700   19.4475 C   0  0  1  0  0  0  0  0  0  0  0  0
   28.6239   34.0963   18.0922 C   0  0  0  0  0  0  0  0  0  0  0  0
   28.3975   35.8981   19.8017 C   0  0  0  0  0  0  0  0  0  0  0  0
   27.9920   36.3770   21.0488 C   0  0  1  0  0  0  0  0  0  0  0  0
   27.8005   38.1600   22.6394 C   0  0  1  0  0  0  0  0  0  0  0  0
   28.2143   37.6989   21.4043 N   0  0  0  0  0  0  0  0  0  0  0  0
  1  2  1  6  0  0  0
  1  3  1  0  0  0  0
  1  4  2  0  0  0  0
  1  6  1  0  0  0  0
  5  6  1  0  0  0  0
  7  5  1  1  0  0  0
  7  8  1  0  0  0  0
  7  9  1  0  0  0  0
  9 10  1  6  0  0  0
  9 11  1  0  0  0  0
 11 12  1  6  0  0  0
 11 13  1  0  0  0  0
 13 31  1  0  0  0  0
 14 15  1  0  0  0  0
 15 16  2  0  0  0  0
 15 17  1  0  0  0  0
 17 18  1  0  0  0  0
 18 20  2  0  0  0  0
 19 18  1  6  0  0  0
 19 22  1  0  0  0  0
 19 30  1  0  0  0  0
 21 23  1  1  0  0  0
 21 29  1  0  0  0  0
 21 22  1  0  0  0  0
 23 24  1  0  0  0  0
 24 25  1  6  0  0  0
 24 26  1  0  0  0  0
 26 27  1  6  0  0  0
 26 28  1  0  0  0  0
 29 28  1  6  0  0  0
 29 31  1  0  0  0  0
 30 14  1  6  0  0  0
 30 31  1  0  0  0  0
M  CHG  1   3  -1
M  END
>  <CHROM.1>
113.62686229,-48.13649880,60.91457712,54.10062549,19.07444413,101.14012827
78.77820224,27.24061448,39.19293587,20.29773297,-2.46271738,-1.38369446,1.68799540

>  <Name>
ligand

>  <RI>
0

>  <Rbt.Current_Directory>
/home/itssahil/PROJECTS/Mol_Feturizer/New_Systems/rnas/3F2T

>  <Rbt.Executable>
rbdock ($Id: //depot/dev/client3/rdock/2013.1/src/exe/rbdock.cxx#4 $)

>  <Rbt.Library>
libRbt.so (2013.1, Build901 2013/11/27)

>  <Rbt.Parameter_File>
/export/apps/rDock/src/rDock_2013.1_src/data/scripts/dock_solv.prm

>  <Rbt.Receptor>
prm/pocket_docking_2.prm

>  <SCORE>
-16.8163

>  <SCORE.INTER>
-24.0182

>  <SCORE.INTER.CONST>
1

>  <SCORE.INTER.POLAR>
0

>  <SCORE.INTER.ROT>
7

>  <SCORE.INTER.SOLV>
17.4022

>  <SCORE.INTER.VDW>
-30.0796

>  <SCORE.INTER.norm>
-0.774781

>  <SCORE.INTRA>
7.14464

>  <SCORE.INTRA.DIHEDRAL>
12.2568

>  <SCORE.INTRA.DIHEDRAL.0>
4.64198

>  <SCORE.INTRA.POLAR>
0

>  <SCORE.INTRA.POLAR.0>
0

>  <SCORE.INTRA.REPUL>
0

>  <SCORE.INTRA.REPUL.0>
0

>  <SCORE.INTRA.SOLV>
-0.38016

>  <SCORE.INTRA.SOLV.lig_0>
-49.3611

>  <SCORE.INTRA.VDW>
1.20631

>  <SCORE.INTRA.VDW.0>
-1.91858

>  <SCORE.INTRA.norm>
0.230472

>  <SCORE.RESTR>
0.057318

>  <SCORE.RESTR.CAVITY>
0.057318

>  <SCORE.RESTR.norm>
0.00184897

>  <SCORE.SYSTEM>
0

>  <SCORE.SYSTEM.CONST>
0

>  <SCORE.SYSTEM.DIHEDRAL>
0

>  <SCORE.SYSTEM.SOLV>
0

>  <SCORE.SYSTEM.norm>
0

>  <SCORE.heavy>
31

>  <SCORE.norm>
-0.54246

>  <RMSD>
4.815

$$$$
ligand
 OpenBabel11021811473D
libRbt.so/2013.1/901 2013/11/27
 31 33  0  0  0  0  0  0  0  0999 V2000
   26.8172   43.4310   16.8062 P   0  0  1  0  0  0  0  0  0  0  0  0
   28.3239   43.3750   16.8047 O   0  0  0  0  0  0  0  0  0  0  0  0
   26.3872   44.8380   17.1263 O   0  5  0  0  0  0  0  0  0  0  0  0
   26.3707   42.9981   15.4368 O   0  0  0  0  0  0  0  0  0  0  0  0
   26.6076   42.4564   19.2304 C   0  0  0  0  0  0  0  0  0  0  0  0
   26.1547   42.4517   17.8926 O   0  0  0  0  0  0  0  0  0  0  0  0
   28.0236   41.8885   19.2833 C   0  0  1  0  0  0  0  0  0  0  0  0
   28.4900   41.8926   20.6180 O   0  0  0  0  0  0  0  0  0  0  0  0
   28.0312   40.4616   18.7611 C   0  0  1  0  0  0  0  0  0  0  0  0
   29.3582   40.0938   18.4944 O   0  0  0  0  0  0  0  0  0  0  0  0
   27.4365   39.4736   19.7505 C   0  0  1  0  0  0  0  0  0  0  0  0
   26.9746   38.3594   19.0355 O   0  0  0  0  0  0  0  0  0  0  0  0
   28.4788   39.0230   20.7605 C   0  0  0  0  0  0  0  0  0  0  0  0
   27.5466   39.8458   23.2851 N   0  0  0  0  0  0  0  0  0  0  0  0
   27.1585   40.2882   24.5311 C   0  0  0  0  0  0  0  0  0  0  0  0
   27.2204   41.4826   24.8075 O   0  0  0  0  0  0  0  0  0  0  0  0
   26.7012   39.3984   25.4762 N   0  0  0  0  0  0  0  0  0  0  0  0
   26.6161   38.0521   25.1793 C   0  0  0  0  0  0  0  0  0  0  0  0
   27.0062   37.5963   23.9250 C   0  0  1  0  0  0  0  0  0  0  0  0
   26.1881   37.2617   26.0229 O   0  0  0  0  0  0  0  0  0  0  0  0
   27.3121   35.8015   22.3743 C   0  0  2  0  0  0  0  0  0  0  0  0
   26.9256   36.2518   23.6222 N   0  0  0  0  0  0  0  0  0  0  0  0
   27.2303   34.4423   22.0696 C   0  0  0  0  0  0  0  0  0  0  0  0
   27.6213   33.9780   20.8192 C   0  0  1  0  0  0  0  0  0  0  0  0
   27.5230   32.5137   20.5293 C   0  0  0  0  0  0  0  0  0  0  0  0
   28.0960   34.8824   19.8572 C   0  0  1  0  0  0  0  0  0  0  0  0
   28.5204   34.4223   18.4896 C   0  0  0  0  0  0  0  0  0  0  0  0
   28.1780   36.2379   20.1648 C   0  0  0  0  0  0  0  0  0  0  0  0
   27.7895   36.7048   21.4218 C   0  0  1  0  0  0  0  0  0  0  0  0
   27.4773   38.5021   22.9768 C   0  0  1  0  0  0  0  0  0  0  0  0
   27.8727   38.0542   21.7308 N   0  0  0  0  0  0  0  0  0  0  0  0
  1  2  1  1  0  0  0
  1  3  1  0  0  0  0
  1  4  2  0  0  0  0
  1  6  1  0  0  0  0
  5  6  1  0  0  0  0
  7  5  1  1  0  0  0
  7  8  1  0  0  0  0
  7  9  1  0  0  0  0
  9 10  1  1  0  0  0
  9 11  1  0  0  0  0
 11 12  1  6  0  0  0
 11 13  1  0  0  0  0
 13 31  1  0  0  0  0
 14 15  1  0  0  0  0
 15 16  2  0  0  0  0
 15 17  1  0  0  0  0
 17 18  1  0  0  0  0
 18 20  2  0  0  0  0
 19 18  1  6  0  0  0
 19 22  1  0  0  0  0
 19 30  1  0  0  0  0
 21 23  1  1  0  0  0
 21 29  1  0  0  0  0
 21 22  1  0  0  0  0
 23 24  1  0  0  0  0
 24 25  1  6  0  0  0
 24 26  1  0  0  0  0
 26 27  1  6  0  0  0
 26 28  1  0  0  0  0
 29 28  1  6  0  0  0
 29 31  1  0  0  0  0
 30 14  1  6  0  0  0
 30 31  1  0  0  0  0
M  CHG  1   3  -1
M  END
>  <CHROM.1>
-68.45029638,49.34873562,179.78654356,164.82435833,155.75823564,179.75577599
84.60101566,27.40318478,39.25386201,20.61364809,-1.72812125,-1.43292845,2.32194166

>  <Name>
ligand

>  <RI>
0

>  <Rbt.Current_Directory>
/home/itssahil/PROJECTS/Mol_Feturizer/New_Systems/rnas/3F2T

>  <Rbt.Executable>
rbdock ($Id: //depot/dev/client3/rdock/2013.1/src/exe/rbdock.cxx#4 $)

>  <Rbt.Library>
libRbt.so (2013.1, Build901 2013/11/27)

>  <Rbt.Parameter_File>
/export/apps/rDock/src/rDock_2013.1_src/data/scripts/dock_solv.prm

>  <Rbt.Receptor>
prm/pocket_docking_3.prm

>  <SCORE>
-25.3567

>  <SCORE.INTER>
-26.9286

>  <SCORE.INTER.CONST>
1

>  <SCORE.INTER.POLAR>
0

>  <SCORE.INTER.ROT>
7

>  <SCORE.INTER.SOLV>
19.5581

>  <SCORE.INTER.VDW>
-32.7385

>  <SCORE.INTER.norm>
-0.868665

>  <SCORE.INTRA>
1.57187

>  <SCORE.INTRA.DIHEDRAL>
-0.0462383

>  <SCORE.INTRA.DIHEDRAL.0>
4.64198

>  <SCORE.INTRA.POLAR>
0

>  <SCORE.INTRA.POLAR.0>
0

>  <SCORE.INTRA.REPUL>
0

>  <SCORE.INTRA.REPUL.0>
0

>  <SCORE.INTRA.SOLV>
0.638259

>  <SCORE.INTRA.SOLV.lig_0>
-49.3611

>  <SCORE.INTRA.VDW>
1.27586

>  <SCORE.INTRA.VDW.0>
-1.91858

>  <SCORE.INTRA.norm>
0.0507055

>  <SCORE.RESTR>
0

>  <SCORE.RESTR.CAVITY>
0

>  <SCORE.RESTR.norm>
0

>  <SCORE.SYSTEM>
0

>  <SCORE.SYSTEM.CONST>
0

>  <SCORE.SYSTEM.DIHEDRAL>
0

>  <SCORE.SYSTEM.SOLV>
0

>  <SCORE.SYSTEM.norm>
0

>  <SCORE.heavy>
31

>  <SCORE.norm>
-0.817959

>  <RMSD>
4.816

$$$$
ligand
 OpenBabel11021811473D
libRbt.so/2013.1/901 2013/11/27
 31 33  0  0  0  0  0  0  0  0999 V2000
   28.3602   42.3400   16.6824 P   0  0  1  0  0  0  0  0  0  0  0  0
   29.7056   42.2676   16.0057 O   0  0  0  0  0  0  0  0  0  0  0  0
   27.5741   43.4704   16.0731 O   0  5  0  0  0  0  0  0  0  0  0  0
   27.6990   41.0067   16.4657 O   0  0  0  0  0  0  0  0  0  0  0  0
   27.3123   42.5616   19.0747 C   0  0  0  0  0  0  0  0  0  0  0  0
   28.4667   42.6064   18.2622 O   0  0  0  0  0  0  0  0  0  0  0  0
   27.7143   42.7789   20.5312 C   0  0  1  0  0  0  0  0  0  0  0  0
   26.5654   42.7416   21.3542 O   0  0  0  0  0  0  0  0  0  0  0  0
   28.6753   41.6882   20.9735 C   0  0  1  0  0  0  0  0  0  0  0  0
   29.2338   42.0613   22.2048 O   0  0  0  0  0  0  0  0  0  0  0  0
   27.9954   40.3385   21.1309 C   0  0  1  0  0  0  0  0  0  0  0  0
   27.5142   39.9394   19.8758 O   0  0  0  0  0  0  0  0  0  0  0  0
   28.9728   39.2954   21.6468 C   0  0  0  0  0  0  0  0  0  0  0  0
   27.4458   38.3581   23.8170 N   0  0  0  0  0  0  0  0  0  0  0  0
   26.7566   37.9231   24.9281 C   0  0  0  0  0  0  0  0  0  0  0  0
   26.5860   38.6774   25.8814 O   0  0  0  0  0  0  0  0  0  0  0  0
   26.2562   36.6422   24.9814 N   0  0  0  0  0  0  0  0  0  0  0  0
   26.4309   35.7830   23.9141 C   0  0  0  0  0  0  0  0  0  0  0  0
   27.1256   36.2129   22.7890 C   0  0  1  0  0  0  0  0  0  0  0  0
   25.9644   34.6428   23.9591 O   0  0  0  0  0  0  0  0  0  0  0  0
   27.9948   35.7889   20.6016 C   0  0  2  0  0  0  0  0  0  0  0  0
   27.3055   35.3588   21.7194 N   0  0  0  0  0  0  0  0  0  0  0  0
   28.1760   34.9246   19.5214 C   0  0  0  0  0  0  0  0  0  0  0  0
   28.8721   35.3454   18.3943 C   0  0  1  0  0  0  0  0  0  0  0  0
   29.0500   34.3903   17.2568 C   0  0  0  0  0  0  0  0  0  0  0  0
   29.3906   36.6481   18.3415 C   0  0  1  0  0  0  0  0  0  0  0  0
   30.1419   37.1455   17.1371 C   0  0  0  0  0  0  0  0  0  0  0  0
   29.2096   37.5077   19.4218 C   0  0  0  0  0  0  0  0  0  0  0  0
   28.5142   37.0849   20.5560 C   0  0  1  0  0  0  0  0  0  0  0  0
   27.6377   37.5081   22.7466 C   0  0  1  0  0  0  0  0  0  0  0  0
   28.3348   37.9388   21.6339 N   0  0  0  0  0  0  0  0  0  0  0  0
  1  2  1  6  0  0  0
  1  3  1  0  0  0  0
  1  4  2  0  0  0  0
  1  6  1  0  0  0  0
  5  6  1  0  0  0  0
  7  5  1  6  0  0  0
  7  8  1  0  0  0  0
  7  9  1  0  0  0  0
  9 10  1  1  0  0  0
  9 11  1  0  0  0  0
 11 12  1  6  0  0  0
 11 13  1  0  0  0  0
 13 31  1  0  0  0  0
 14 15  1  0  0  0  0
 15 16  2  0  0  0  0
 15 17  1  0  0  0  0
 17 18  1  0  0  0  0
 18 20  2  0  0  0  0
 19 18  1  6  0  0  0
 19 22  1  0  0  0  0
 19 30  1  0  0  0  0
 21 23  1  1  0  0  0
 21 29  1  0  0  0  0
 21 22  1  0  0  0  0
 23 24  1  0  0  0  0
 24 25  1  6  0  0  0
 24 26  1  0  0  0  0
 26 27  1  6  0  0  0
 26 28  1  0  0  0  0
 29 28  1  6  0  0  0
 29 31  1  0  0  0  0
 30 14  1  6  0  0  0
 30 31  1  0  0  0  0
M  CHG  1   3  -1
M  END
>  <CHROM.1>
177.12877396,-173.23418575,179.76252921,168.06404659,63.28596911,-172.97816215
94.73349977,27.97585762,39.02936652,20.36493559,-1.00566903,-1.28815094,2.91004300

>  <Name>
ligand

>  <RI>
0

>  <Rbt.Current_Directory>
/home/itssahil/PROJECTS/Mol_Feturizer/New_Systems/rnas/3F2T

>  <Rbt.Executable>
rbdock ($Id: //depot/dev/client3/rdock/2013.1/src/exe/rbdock.cxx#4 $)

>  <Rbt.Library>
libRbt.so (2013.1, Build901 2013/11/27)

>  <Rbt.Parameter_File>
/export/apps/rDock/src/rDock_2013.1_src/data/scripts/dock_solv.prm

>  <Rbt.Receptor>
prm/pocket_docking_4.prm

>  <SCORE>
-28.6889

>  <SCORE.INTER>
-28.5145

>  <SCORE.INTER.CONST>
1

>  <SCORE.INTER.POLAR>
0

>  <SCORE.INTER.ROT>
7

>  <SCORE.INTER.SOLV>
20.331

>  <SCORE.INTER.VDW>
-34.0534

>  <SCORE.INTER.norm>
-0.919824

>  <SCORE.INTRA>
-0.184404

>  <SCORE.INTRA.DIHEDRAL>
-2.47509

>  <SCORE.INTRA.DIHEDRAL.0>
4.64198

>  <SCORE.INTRA.POLAR>
0

>  <SCORE.INTRA.POLAR.0>
0

>  <SCORE.INTRA.REPUL>
0

>  <SCORE.INTRA.REPUL.0>
0

>  <SCORE.INTRA.SOLV>
0.993171

>  <SCORE.INTRA.SOLV.lig_0>
-49.3611

>  <SCORE.INTRA.VDW>
0.556558

>  <SCORE.INTRA.VDW.0>
-1.91858

>  <SCORE.INTRA.norm>
-0.0059485

>  <SCORE.RESTR>
0.0100373

>  <SCORE.RESTR.CAVITY>
0.0100373

>  <SCORE.RESTR.norm>
0.000323785

>  <SCORE.SYSTEM>
0

>  <SCORE.SYSTEM.CONST>
0

>  <SCORE.SYSTEM.DIHEDRAL>
0

>  <SCORE.SYSTEM.SOLV>
0

>  <SCORE.SYSTEM.norm>
0

>  <SCORE.heavy>
31

>  <SCORE.norm>
-0.925448

>  <RMSD>
4.829

$$$$
ligand
 OpenBabel11021811473D
libRbt.so/2013.1/901 2013/11/27
 31 33  0  0  0  0  0  0  0  0999 V2000
   28.3230   42.3427   16.7108 P   0  0  1  0  0  0  0  0  0  0  0  0
   27.4926   41.1352   16.3562 O   0  0  0  0  0  0  0  0  0  0  0  0
   29.7135   42.1483   16.1671 O   0  5  0  0  0  0  0  0  0  0  0  0
   27.6345   43.5313   16.0984 O   0  0  0  0  0  0  0  0  0  0  0  0
   27.2818   42.5894   19.1037 C   0  0  0  0  0  0  0  0  0  0  0  0
   28.4395   42.5801   18.2946 O   0  0  0  0  0  0  0  0  0  0  0  0
   27.6887   42.7946   20.5605 C   0  0  1  0  0  0  0  0  0  0  0  0
   26.5444   42.7356   21.3887 O   0  0  0  0  0  0  0  0  0  0  0  0
   28.6636   41.7095   20.9858 C   0  0  1  0  0  0  0  0  0  0  0  0
   29.2749   42.1068   22.1840 O   0  0  0  0  0  0  0  0  0  0  0  0
   27.9862   40.3665   21.2012 C   0  0  1  0  0  0  0  0  0  0  0  0
   27.3631   39.9909   20.0026 O   0  0  0  0  0  0  0  0  0  0  0  0
   28.9998   39.3040   21.5925 C   0  0  0  0  0  0  0  0  0  0  0  0
   27.4825   38.3930   23.7806 N   0  0  0  0  0  0  0  0  0  0  0  0
   26.7984   37.9709   24.8999 C   0  0  0  0  0  0  0  0  0  0  0  0
   26.6383   38.7340   25.8480 O   0  0  0  0  0  0  0  0  0  0  0  0
   26.2916   36.6932   24.9672 N   0  0  0  0  0  0  0  0  0  0  0  0
   26.4545   35.8242   23.9059 C   0  0  0  0  0  0  0  0  0  0  0  0
   27.1440   36.2411   22.7727 C   0  0  1  0  0  0  0  0  0  0  0  0
   25.9824   34.6870   23.9636 O   0  0  0  0  0  0  0  0  0  0  0  0
   27.9961   35.7943   20.5832 C   0  0  2  0  0  0  0  0  0  0  0  0
   27.3122   35.3772   21.7091 N   0  0  0  0  0  0  0  0  0  0  0  0
   28.1655   34.9201   19.5090 C   0  0  0  0  0  0  0  0  0  0  0  0
   28.8563   35.3278   18.3738 C   0  0  1  0  0  0  0  0  0  0  0  0
   29.0214   34.3623   17.2431 C   0  0  0  0  0  0  0  0  0  0  0  0
   29.3813   36.6272   18.3067 C   0  0  1  0  0  0  0  0  0  0  0  0
   30.1271   37.1105   17.0932 C   0  0  0  0  0  0  0  0  0  0  0  0
   29.2121   37.4967   19.3810 C   0  0  0  0  0  0  0  0  0  0  0  0
   28.5221   37.0870   20.5233 C   0  0  1  0  0  0  0  0  0  0  0  0
   27.6626   37.5331   22.7161 C   0  0  1  0  0  0  0  0  0  0  0  0
   28.3545   37.9508   21.5953 N   0  0  0  0  0  0  0  0  0  0  0  0
  1  2  1  6  0  0  0
  1  3  1  0  0  0  0
  1  4  2  0  0  0  0
  1  6  1  0  0  0  0
  5  6  1  0  0  0  0
  7  5  1  6  0  0  0
  7  8  1  0  0  0  0
  7  9  1  0  0  0  0
  9 10  1  1  0  0  0
  9 11  1  0  0  0  0
 11 12  1  6  0  0  0
 11 13  1  0  0  0  0
 13 31  1  0  0  0  0
 14 15  1  0  0  0  0
 15 16  2  0  0  0  0
 15 17  1  0  0  0  0
 17 18  1  0  0  0  0
 18 20  2  0  0  0  0
 19 18  1  6  0  0  0
 19 22  1  0  0  0  0
 19 30  1  0  0  0  0
 21 23  1  1  0  0  0
 21 29  1  0  0  0  0
 21 22  1  0  0  0  0
 23 24  1  0  0  0  0
 24 25  1  6  0  0  0
 24 26  1  0  0  0  0
 26 27  1  6  0  0  0
 26 28  1  0  0  0  0
 29 28  1  6  0  0  0
 29 31  1  0  0  0  0
 30 14  1  6  0  0  0
 30 31  1  0  0  0  0
M  CHG  1   3  -1
M  END
>  <CHROM.1>
178.40230617,-50.10240026,-176.94868323,165.08321373,58.81877677,-171.33668445
100.10395748,27.96764315,39.04507777,20.36571916,-1.02447052,-1.29442130
2.90067843

>  <Name>
ligand

>  <RI>
0

>  <Rbt.Current_Directory>
/home/itssahil/PROJECTS/Mol_Feturizer/New_Systems/rnas/3F2T

>  <Rbt.Executable>
rbdock ($Id: //depot/dev/client3/rdock/2013.1/src/exe/rbdock.cxx#4 $)

>  <Rbt.Library>
libRbt.so (2013.1, Build901 2013/11/27)

>  <Rbt.Parameter_File>
/export/apps/rDock/src/rDock_2013.1_src/data/scripts/dock_solv.prm

>  <Rbt.Receptor>
prm/pocket_docking_4.prm

>  <SCORE>
-28.5115

>  <SCORE.INTER>
-27.9182

>  <SCORE.INTER.CONST>
1

>  <SCORE.INTER.POLAR>
0

>  <SCORE.INTER.ROT>
7

>  <SCORE.INTER.SOLV>
21.8339

>  <SCORE.INTER.VDW>
-34.1568

>  <SCORE.INTER.norm>
-0.900588

>  <SCORE.INTRA>
-0.59323

>  <SCORE.INTRA.DIHEDRAL>
-2.0744

>  <SCORE.INTRA.DIHEDRAL.0>
4.64198

>  <SCORE.INTRA.POLAR>
0

>  <SCORE.INTRA.POLAR.0>
0

>  <SCORE.INTRA.REPUL>
0

>  <SCORE.INTRA.REPUL.0>
0

>  <SCORE.INTRA.SOLV>
-0.136137

>  <SCORE.INTRA.SOLV.lig_0>
-49.3611

>  <SCORE.INTRA.VDW>
0.512037

>  <SCORE.INTRA.VDW.0>
-1.91858

>  <SCORE.INTRA.norm>
-0.0191365

>  <SCORE.RESTR>
0

>  <SCORE.RESTR.CAVITY>
0

>  <SCORE.RESTR.norm>
0

>  <SCORE.SYSTEM>
0

>  <SCORE.SYSTEM.CONST>
0

>  <SCORE.SYSTEM.DIHEDRAL>
0

>  <SCORE.SYSTEM.SOLV>
0

>  <SCORE.SYSTEM.norm>
0

>  <SCORE.heavy>
31

>  <SCORE.norm>
-0.919725

>  <RMSD>
4.831

$$$$
ligand
 OpenBabel11021811473D
libRbt.so/2013.1/901 2013/11/27
 31 33  0  0  0  0  0  0  0  0999 V2000
   25.8902   44.1937   16.1085 P   0  0  1  0  0  0  0  0  0  0  0  0
   25.8422   44.0456   14.6088 O   0  0  0  0  0  0  0  0  0  0  0  0
   25.6994   45.6462   16.4560 O   0  5  0  0  0  0  0  0  0  0  0  0
   24.7906   43.3284   16.6601 O   0  0  0  0  0  0  0  0  0  0  0  0
   27.6239   42.3415   16.7673 C   0  0  0  0  0  0  0  0  0  0  0  0
   27.2851   43.7124   16.7416 O   0  0  0  0  0  0  0  0  0  0  0  0
   29.0059   42.1772   17.3943 C   0  0  1  0  0  0  0  0  0  0  0  0
   29.0089   42.7309   18.6951 O   0  0  0  0  0  0  0  0  0  0  0  0
   29.3644   40.7033   17.4833 C   0  0  1  0  0  0  0  0  0  0  0  0
   30.7539   40.5932   17.6394 O   0  0  0  0  0  0  0  0  0  0  0  0
   28.6820   40.0047   18.6474 C   0  0  1  0  0  0  0  0  0  0  0  0
   27.3648   39.7067   18.2704 O   0  0  0  0  0  0  0  0  0  0  0  0
   29.4037   38.7161   19.0055 C   0  0  0  0  0  0  0  0  0  0  0  0
   28.9347   40.2042   21.3476 N   0  0  0  0  0  0  0  0  0  0  0  0
   28.7794   40.9608   22.4888 C   0  0  0  0  0  0  0  0  0  0  0  0
   29.0591   42.1560   22.4783 O   0  0  0  0  0  0  0  0  0  0  0  0
   28.3129   40.3858   23.6489 N   0  0  0  0  0  0  0  0  0  0  0  0
   27.9846   39.0444   23.6764 C   0  0  0  0  0  0  0  0  0  0  0  0
   28.1387   38.2729   22.5299 C   0  0  1  0  0  0  0  0  0  0  0  0
   27.5494   38.5384   24.7128 O   0  0  0  0  0  0  0  0  0  0  0  0
   27.9665   36.1670   21.4097 C   0  0  2  0  0  0  0  0  0  0  0  0
   27.8142   36.9313   22.5508 N   0  0  0  0  0  0  0  0  0  0  0  0
   27.6383   34.8110   21.4322 C   0  0  0  0  0  0  0  0  0  0  0  0
   27.7925   34.0320   20.2915 C   0  0  1  0  0  0  0  0  0  0  0  0
   27.4339   32.5810   20.3538 C   0  0  0  0  0  0  0  0  0  0  0  0
   28.2761   34.6143   19.1101 C   0  0  1  0  0  0  0  0  0  0  0  0
   28.4490   33.8087   17.8518 C   0  0  0  0  0  0  0  0  0  0  0  0
   28.6044   35.9673   19.0912 C   0  0  0  0  0  0  0  0  0  0  0  0
   28.4538   36.7498   20.2375 C   0  0  1  0  0  0  0  0  0  0  0  0
   28.6207   38.8602   21.3619 C   0  0  1  0  0  0  0  0  0  0  0  0
   28.7824   38.0970   20.2214 N   0  0  0  0  0  0  0  0  0  0  0  0
  1  2  1  6  0  0  0
  1  3  1  0  0  0  0
  1  4  2  0  0  0  0
  1  6  1  0  0  0  0
  5  6  1  0  0  0  0
  7  5  1  1  0  0  0
  7  8  1  0  0  0  0
  7  9  1  0  0  0  0
  9 10  1  1  0  0  0
  9 11  1  0  0  0  0
 11 12  1  6  0  0  0
 11 13  1  0  0  0  0
 13 31  1  0  0  0  0
 14 15  1  0  0  0  0
 15 16  2  0  0  0  0
 15 17  1  0  0  0  0
 17 18  1  0  0  0  0
 18 20  2  0  0  0  0
 19 18  1  6  0  0  0
 19 22  1  0  0  0  0
 19 30  1  0  0  0  0
 21 23  1  1  0  0  0
 21 29  1  0  0  0  0
 21 22  1  0  0  0  0
 23 24  1  0  0  0  0
 24 25  1  6  0  0  0
 24 26  1  0  0  0  0
 26 27  1  6  0  0  0
 26 28  1  0  0  0  0
 29 28  1  6  0  0  0
 29 31  1  0  0  0  0
 30 14  1  6  0  0  0
 30 31  1  0  0  0  0
M  CHG  1   3  -1
M  END
>  <CHROM.1>
178.85460233,-70.31790836,57.76250800,161.01029396,80.01605048,175.57781729
131.80147421,27.92328812,39.72570561,19.41464793,2.54313896,-1.37949510,0.43087354

>  <Name>
ligand

>  <RI>
0

>  <Rbt.Current_Directory>
/home/itssahil/PROJECTS/Mol_Feturizer/New_Systems/rnas/3F2T

>  <Rbt.Executable>
rbdock ($Id: //depot/dev/client3/rdock/2013.1/src/exe/rbdock.cxx#4 $)

>  <Rbt.Library>
libRbt.so (2013.1, Build901 2013/11/27)

>  <Rbt.Parameter_File>
/export/apps/rDock/src/rDock_2013.1_src/data/scripts/dock_solv.prm

>  <Rbt.Receptor>
prm/blind_docking_80.prm

>  <SCORE>
-23.1337

>  <SCORE.INTER>
-24.1307

>  <SCORE.INTER.CONST>
1

>  <SCORE.INTER.POLAR>
0

>  <SCORE.INTER.ROT>
7

>  <SCORE.INTER.SOLV>
19.621

>  <SCORE.INTER.VDW>
-30.8941

>  <SCORE.INTER.norm>
-0.778409

>  <SCORE.INTRA>
0.99702

>  <SCORE.INTRA.DIHEDRAL>
-0.635876

>  <SCORE.INTRA.DIHEDRAL.0>
4.64198

>  <SCORE.INTRA.POLAR>
0

>  <SCORE.INTRA.POLAR.0>
0

>  <SCORE.INTRA.REPUL>
0

>  <SCORE.INTRA.REPUL.0>
0

>  <SCORE.INTRA.SOLV>
-0.290301

>  <SCORE.INTRA.SOLV.lig_0>
-49.3611

>  <SCORE.INTRA.VDW>
1.46011

>  <SCORE.INTRA.VDW.0>
-1.91858

>  <SCORE.INTRA.norm>
0.032162

>  <SCORE.RESTR>
0

>  <SCORE.RESTR.CAVITY>
0

>  <SCORE.RESTR.norm>
0

>  <SCORE.SYSTEM>
0

>  <SCORE.SYSTEM.CONST>
0

>  <SCORE.SYSTEM.DIHEDRAL>
0

>  <SCORE.SYSTEM.SOLV>
0

>  <SCORE.SYSTEM.norm>
0

>  <SCORE.heavy>
31

>  <SCORE.norm>
-0.746247

>  <RMSD>
4.841

$$$$
ligand
 OpenBabel11021811473D
libRbt.so/2013.1/901 2013/11/27
 31 33  0  0  0  0  0  0  0  0999 V2000
   31.2257   35.7798   15.0721 P   0  0  1  0  0  0  0  0  0  0  0  0
   32.3672   36.3397   14.2616 O   0  0  0  0  0  0  0  0  0  0  0  0
   30.0483   35.5606   14.1596 O   0  5  0  0  0  0  0  0  0  0  0  0
   31.7205   34.4960   15.6795 O   0  0  0  0  0  0  0  0  0  0  0  0
   30.4304   38.1048   15.9843 C   0  0  0  0  0  0  0  0  0  0  0  0
   30.7587   36.7584   16.2564 O   0  0  0  0  0  0  0  0  0  0  0  0
   29.9412   38.7718   17.2673 C   0  0  1  0  0  0  0  0  0  0  0  0
   29.8964   40.1736   17.0895 O   0  0  0  0  0  0  0  0  0  0  0  0
   28.5487   38.2724   17.6143 C   0  0  1  0  0  0  0  0  0  0  0  0
   28.5684   36.8700   17.6184 O   0  0  0  0  0  0  0  0  0  0  0  0
   28.0737   38.7614   18.9723 C   0  0  1  0  0  0  0  0  0  0  0  0
   26.8291   38.1740   19.2405 O   0  0  0  0  0  0  0  0  0  0  0  0
   29.0565   38.3714   20.0638 C   0  0  0  0  0  0  0  0  0  0  0  0
   28.1271   35.9597   21.1773 N   0  0  0  0  0  0  0  0  0  0  0  0
   27.6393   34.7616   21.6520 C   0  0  0  0  0  0  0  0  0  0  0  0
   27.8550   33.7216   21.0367 O   0  0  0  0  0  0  0  0  0  0  0  0
   26.9056   34.7190   22.8156 N   0  0  0  0  0  0  0  0  0  0  0  0
   26.6611   35.8783   23.5257 C   0  0  0  0  0  0  0  0  0  0  0  0
   27.1487   37.0920   23.0540 C   0  0  1  0  0  0  0  0  0  0  0  0
   26.0194   35.8321   24.5772 O   0  0  0  0  0  0  0  0  0  0  0  0
   27.3936   39.4594   23.2878 C   0  0  2  0  0  0  0  0  0  0  0  0
   26.9064   38.2547   23.7576 N   0  0  0  0  0  0  0  0  0  0  0  0
   27.1479   40.6339   24.0000 C   0  0  0  0  0  0  0  0  0  0  0  0
   27.6289   41.8517   23.5336 C   0  0  1  0  0  0  0  0  0  0  0  0
   27.3430   43.0908   24.3216 C   0  0  0  0  0  0  0  0  0  0  0  0
   28.3698   41.8985   22.3430 C   0  0  1  0  0  0  0  0  0  0  0  0
   28.9158   43.1943   21.8089 C   0  0  0  0  0  0  0  0  0  0  0  0
   28.6119   40.7251   21.6337 C   0  0  0  0  0  0  0  0  0  0  0  0
   28.1257   39.5019   22.0989 C   0  0  1  0  0  0  0  0  0  0  0  0
   27.8824   37.1282   21.8699 C   0  0  1  0  0  0  0  0  0  0  0  0
   28.3638   38.3324   21.3927 N   0  0  0  0  0  0  0  0  0  0  0  0
  1  2  1  6  0  0  0
  1  3  1  0  0  0  0
  1  4  2  0  0  0  0
  1  6  1  0  0  0  0
  5  6  1  0  0  0  0
  7  5  1  6  0  0  0
  7  8  1  0  0  0  0
  7  9  1  0  0  0  0
  9 10  1  1  0  0  0
  9 11  1  0  0  0  0
 11 12  1  1  0  0  0
 11 13  1  0  0  0  0
 13 31  1  0  0  0  0
 14 15  1  0  0  0  0
 15 16  2  0  0  0  0
 15 17  1  0  0  0  0
 17 18  1  0  0  0  0
 18 20  2  0  0  0  0
 19 18  1  1  0  0  0
 19 22  1  0  0  0  0
 19 30  1  0  0  0  0
 21 23  1  6  0  0  0
 21 29  1  0  0  0  0
 21 22  1  0  0  0  0
 23 24  1  0  0  0  0
 24 25  1  1  0  0  0
 24 26  1  0  0  0  0
 26 27  1  1  0  0  0
 26 28  1  0  0  0  0
 29 28  1  1  0  0  0
 29 31  1  0  0  0  0
 30 14  1  1  0  0  0
 30 31  1  0  0  0  0
M  CHG  1   3  -1
M  END
>  <CHROM.1>
176.50712748,52.85535265,166.91348327,52.13712888,-175.85910451,-156.68652844
-80.23964958,28.70176495,37.84792390,19.85532802,0.56811699,-1.10383326,-2.90726374

>  <Name>
ligand

>  <RI>
0

>  <Rbt.Current_Directory>
/home/itssahil/PROJECTS/Mol_Feturizer/New_Systems/rnas/3F2T

>  <Rbt.Executable>
rbdock ($Id: //depot/dev/client3/rdock/2013.1/src/exe/rbdock.cxx#4 $)

>  <Rbt.Library>
libRbt.so (2013.1, Build901 2013/11/27)

>  <Rbt.Parameter_File>
/export/apps/rDock/src/rDock_2013.1_src/data/scripts/dock_solv.prm

>  <Rbt.Receptor>
prm/blind_docking_100.prm

>  <SCORE>
-23.079

>  <SCORE.INTER>
-23.511

>  <SCORE.INTER.CONST>
1

>  <SCORE.INTER.POLAR>
0

>  <SCORE.INTER.ROT>
7

>  <SCORE.INTER.SOLV>
10.8633

>  <SCORE.INTER.VDW>
-27.5618

>  <SCORE.INTER.norm>
-0.758419

>  <SCORE.INTRA>
0.432029

>  <SCORE.INTRA.DIHEDRAL>
-0.77936

>  <SCORE.INTRA.DIHEDRAL.0>
4.64198

>  <SCORE.INTRA.POLAR>
0

>  <SCORE.INTRA.POLAR.0>
0

>  <SCORE.INTRA.REPUL>
0

>  <SCORE.INTRA.REPUL.0>
0

>  <SCORE.INTRA.SOLV>
0.0149683

>  <SCORE.INTRA.SOLV.lig_0>
-49.3611

>  <SCORE.INTRA.VDW>
0.814225

>  <SCORE.INTRA.VDW.0>
-1.91858

>  <SCORE.INTRA.norm>
0.0139364

>  <SCORE.RESTR>
0

>  <SCORE.RESTR.CAVITY>
0

>  <SCORE.RESTR.norm>
0

>  <SCORE.SYSTEM>
0

>  <SCORE.SYSTEM.CONST>
0

>  <SCORE.SYSTEM.DIHEDRAL>
0

>  <SCORE.SYSTEM.SOLV>
0

>  <SCORE.SYSTEM.norm>
0

>  <SCORE.heavy>
31

>  <SCORE.norm>
-0.744483

>  <RMSD>
4.845

$$$$
ligand
 OpenBabel11021811473D
libRbt.so/2013.1/901 2013/11/27
 31 33  0  0  0  0  0  0  0  0999 V2000
   25.9144   43.9684   16.0834 P   0  0  1  0  0  0  0  0  0  0  0  0
   26.9961   44.9092   16.5504 O   0  0  0  0  0  0  0  0  0  0  0  0
   24.5883   44.4675   16.5926 O   0  5  0  0  0  0  0  0  0  0  0  0
   25.9774   43.9548   14.5807 O   0  0  0  0  0  0  0  0  0  0  0  0
   27.4075   41.8991   16.6824 C   0  0  0  0  0  0  0  0  0  0  0  0
   26.1162   42.4673   16.6165 O   0  0  0  0  0  0  0  0  0  0  0  0
   27.3310   40.5615   17.4139 C   0  0  1  0  0  0  0  0  0  0  0  0
   28.5647   39.8812   17.2952 O   0  0  0  0  0  0  0  0  0  0  0  0
   27.0320   40.7904   18.8860 C   0  0  1  0  0  0  0  0  0  0  0  0
   25.8970   41.6083   18.9863 O   0  0  0  0  0  0  0  0  0  0  0  0
   26.7731   39.4959   19.6383 C   0  0  1  0  0  0  0  0  0  0  0  0
   26.3404   38.5311   18.7175 O   0  0  0  0  0  0  0  0  0  0  0  0
   28.0377   39.0033   20.3221 C   0  0  0  0  0  0  0  0  0  0  0  0
   27.4946   39.9024   22.9329 N   0  0  0  0  0  0  0  0  0  0  0  0
   27.2943   40.3875   24.2070 C   0  0  0  0  0  0  0  0  0  0  0  0
   27.3061   41.5973   24.4143 O   0  0  0  0  0  0  0  0  0  0  0  0
   27.0820   39.5236   25.2571 N   0  0  0  0  0  0  0  0  0  0  0  0
   27.0563   38.1597   25.0405 C   0  0  0  0  0  0  0  0  0  0  0  0
   27.2582   37.6609   23.7584 C   0  0  1  0  0  0  0  0  0  0  0  0
   26.8470   37.3910   25.9812 O   0  0  0  0  0  0  0  0  0  0  0  0
   27.4348   35.8055   22.2598 C   0  0  2  0  0  0  0  0  0  0  0  0
   27.2357   36.2988   23.5352 N   0  0  0  0  0  0  0  0  0  0  0  0
   27.4119   34.4286   22.0355 C   0  0  0  0  0  0  0  0  0  0  0  0
   27.6161   33.9216   20.7575 C   0  0  1  0  0  0  0  0  0  0  0  0
   27.5882   32.4396   20.5554 C   0  0  0  0  0  0  0  0  0  0  0  0
   27.8414   34.8002   19.6871 C   0  0  1  0  0  0  0  0  0  0  0  0
   28.0577   34.2930   18.2877 C   0  0  0  0  0  0  0  0  0  0  0  0
   27.8653   36.1737   19.9143 C   0  0  0  0  0  0  0  0  0  0  0  0
   27.6644   36.6839   21.1982 C   0  0  1  0  0  0  0  0  0  0  0  0
   27.4822   38.5416   22.7021 C   0  0  1  0  0  0  0  0  0  0  0  0
   27.6902   38.0515   21.4270 N   0  0  0  0  0  0  0  0  0  0  0  0
  1  2  1  1  0  0  0
  1  3  1  0  0  0  0
  1  4  2  0  0  0  0
  1  6  1  0  0  0  0
  5  6  1  0  0  0  0
  7  5  1  6  0  0  0
  7  8  1  0  0  0  0
  7  9  1  0  0  0  0
  9 10  1  6  0  0  0
  9 11  1  0  0  0  0
 11 12  1  6  0  0  0
 11 13  1  0  0  0  0
 13 31  1  0  0  0  0
 14 15  1  0  0  0  0
 15 16  2  0  0  0  0
 15 17  1  0  0  0  0
 17 18  1  0  0  0  0
 18 20  2  0  0  0  0
 19 18  1  6  0  0  0
 19 22  1  0  0  0  0
 19 30  1  0  0  0  0
 21 23  1  1  0  0  0
 21 29  1  0  0  0  0
 21 22  1  0  0  0  0
 23 24  1  0  0  0  0
 24 25  1  6  0  0  0
 24 26  1  0  0  0  0
 26 27  1  6  0  0  0
 26 28  1  0  0  0  0
 29 28  1  6  0  0  0
 29 31  1  0  0  0  0
 30 14  1  6  0  0  0
 30 31  1  0  0  0  0
M  CHG  1   3  -1
M  END
>  <CHROM.1>
171.52593507,-38.98297661,170.39127895,52.35645083,-24.11847451,159.67312236
93.88095015,27.05240863,39.32026421,20.10112992,2.51382048,1.41191704,-1.66062633

>  <Name>
ligand

>  <RI>
0

>  <Rbt.Current_Directory>
/home/itssahil/PROJECTS/Mol_Feturizer/New_Systems/rnas/3F2T

>  <Rbt.Executable>
rbdock ($Id: //depot/dev/client3/rdock/2013.1/src/exe/rbdock.cxx#4 $)

>  <Rbt.Library>
libRbt.so (2013.1, Build901 2013/11/27)

>  <Rbt.Parameter_File>
/export/apps/rDock/src/rDock_2013.1_src/data/scripts/dock_solv.prm

>  <Rbt.Receptor>
prm/pocket_docking_7.prm

>  <SCORE>
-23.3222

>  <SCORE.INTER>
-25.8975

>  <SCORE.INTER.CONST>
1

>  <SCORE.INTER.POLAR>
0

>  <SCORE.INTER.ROT>
7

>  <SCORE.INTER.SOLV>
18.4079

>  <SCORE.INTER.VDW>
-31.6676

>  <SCORE.INTER.norm>
-0.835403

>  <SCORE.INTRA>
2.5753

>  <SCORE.INTRA.DIHEDRAL>
3.06897

>  <SCORE.INTRA.DIHEDRAL.0>
4.64198

>  <SCORE.INTRA.POLAR>
0

>  <SCORE.INTRA.POLAR.0>
0

>  <SCORE.INTRA.REPUL>
0

>  <SCORE.INTRA.REPUL.0>
0

>  <SCORE.INTRA.SOLV>
0.250818

>  <SCORE.INTRA.SOLV.lig_0>
-49.3611

>  <SCORE.INTRA.VDW>
0.915406

>  <SCORE.INTRA.VDW.0>
-1.91858

>  <SCORE.INTRA.norm>
0.0830743

>  <SCORE.RESTR>
0

>  <SCORE.RESTR.CAVITY>
0

>  <SCORE.RESTR.norm>
0

>  <SCORE.SYSTEM>
0

>  <SCORE.SYSTEM.CONST>
0

>  <SCORE.SYSTEM.DIHEDRAL>
0

>  <SCORE.SYSTEM.SOLV>
0

>  <SCORE.SYSTEM.norm>
0

>  <SCORE.heavy>
31

>  <SCORE.norm>
-0.752329

>  <RMSD>
4.846

$$$$
ligand
 OpenBabel11021811473D
libRbt.so/2013.1/901 2013/11/27
 31 33  0  0  0  0  0  0  0  0999 V2000
   25.6446   43.9356   16.0421 P   0  0  1  0  0  0  0  0  0  0  0  0
   26.5122   44.4219   14.9090 O   0  0  0  0  0  0  0  0  0  0  0  0
   25.7741   44.8955   17.1948 O   0  5  0  0  0  0  0  0  0  0  0  0
   24.2393   43.8731   15.5099 O   0  0  0  0  0  0  0  0  0  0  0  0
   27.3783   42.2157   16.9944 C   0  0  0  0  0  0  0  0  0  0  0  0
   26.0578   42.4749   16.5656 O   0  0  0  0  0  0  0  0  0  0  0  0
   27.4579   40.7941   17.5448 C   0  0  1  0  0  0  0  0  0  0  0  0
   28.8108   40.4316   17.7370 O   0  0  0  0  0  0  0  0  0  0  0  0
   26.7295   40.7105   18.8757 C   0  0  1  0  0  0  0  0  0  0  0  0
   25.4184   41.1743   18.6939 O   0  0  0  0  0  0  0  0  0  0  0  0
   26.6784   39.2953   19.4265 C   0  0  1  0  0  0  0  0  0  0  0  0
   26.6124   38.4048   18.3454 O   0  0  0  0  0  0  0  0  0  0  0  0
   27.9170   38.9892   20.2520 C   0  0  0  0  0  0  0  0  0  0  0  0
   27.3408   39.8782   22.8592 N   0  0  0  0  0  0  0  0  0  0  0  0
   27.1234   40.3596   24.1319 C   0  0  0  0  0  0  0  0  0  0  0  0
   27.1125   41.5695   24.3393 O   0  0  0  0  0  0  0  0  0  0  0  0
   26.9195   39.4920   25.1806 N   0  0  0  0  0  0  0  0  0  0  0  0
   26.9193   38.1279   24.9638 C   0  0  0  0  0  0  0  0  0  0  0  0
   27.1385   37.6329   23.6831 C   0  0  1  0  0  0  0  0  0  0  0  0
   26.7174   37.3555   25.9031 O   0  0  0  0  0  0  0  0  0  0  0  0
   27.3578   35.7810   22.1857 C   0  0  2  0  0  0  0  0  0  0  0  0
   27.1416   36.2706   23.4597 N   0  0  0  0  0  0  0  0  0  0  0  0
   27.3608   34.4039   21.9613 C   0  0  0  0  0  0  0  0  0  0  0  0
   27.5824   33.9008   20.6847 C   0  0  1  0  0  0  0  0  0  0  0  0
   27.5821   32.4185   20.4824 C   0  0  0  0  0  0  0  0  0  0  0  0
   27.7992   34.7834   19.6158 C   0  0  1  0  0  0  0  0  0  0  0  0
   28.0337   34.2802   18.2179 C   0  0  0  0  0  0  0  0  0  0  0  0
   27.7973   36.1570   19.8432 C   0  0  0  0  0  0  0  0  0  0  0  0
   27.5790   36.6635   21.1257 C   0  0  1  0  0  0  0  0  0  0  0  0
   27.3540   38.5174   22.6283 C   0  0  1  0  0  0  0  0  0  0  0  0
   27.5790   38.0312   21.3546 N   0  0  0  0  0  0  0  0  0  0  0  0
  1  2  1  6  0  0  0
  1  3  1  0  0  0  0
  1  4  2  0  0  0  0
  1  6  1  0  0  0  0
  5  6  1  0  0  0  0
  7  5  1  1  0  0  0
  7  8  1  0  0  0  0
  7  9  1  0  0  0  0
  9 10  1  6  0  0  0
  9 11  1  0  0  0  0
 11 12  1  6  0  0  0
 11 13  1  0  0  0  0
 13 31  1  0  0  0  0
 14 15  1  0  0  0  0
 15 16  2  0  0  0  0
 15 17  1  0  0  0  0
 17 18  1  0  0  0  0
 18 20  2  0  0  0  0
 19 18  1  6  0  0  0
 19 22  1  0  0  0  0
 19 30  1  0  0  0  0
 21 23  1  1  0  0  0
 21 29  1  0  0  0  0
 21 22  1  0  0  0  0
 23 24  1  0  0  0  0
 24 25  1  6  0  0  0
 24 26  1  0  0  0  0
 26 27  1  6  0  0  0
 26 28  1  0  0  0  0
 29 28  1  6  0  0  0
 29 31  1  0  0  0  0
 30 14  1  6  0  0  0
 30 31  1  0  0  0  0
M  CHG  1   3  -1
M  END
>  <CHROM.1>
175.26068383,55.61493287,168.80333160,54.97292125,-32.57630324,148.32383854
85.29652259,26.93026558,39.30798140,20.05019472,2.51868304,1.39354868,-1.65254309

>  <Name>
ligand

>  <RI>
0

>  <Rbt.Current_Directory>
/home/itssahil/PROJECTS/Mol_Feturizer/New_Systems/rnas/3F2T

>  <Rbt.Executable>
rbdock ($Id: //depot/dev/client3/rdock/2013.1/src/exe/rbdock.cxx#4 $)

>  <Rbt.Library>
libRbt.so (2013.1, Build901 2013/11/27)

>  <Rbt.Parameter_File>
/export/apps/rDock/src/rDock_2013.1_src/data/scripts/dock_solv.prm

>  <Rbt.Receptor>
prm/pocket_docking_3.prm

>  <SCORE>
-24.0987

>  <SCORE.INTER>
-26.2285

>  <SCORE.INTER.CONST>
1

>  <SCORE.INTER.POLAR>
0

>  <SCORE.INTER.ROT>
7

>  <SCORE.INTER.SOLV>
17.8517

>  <SCORE.INTER.VDW>
-31.7029

>  <SCORE.INTER.norm>
-0.846082

>  <SCORE.INTRA>
2.12966

>  <SCORE.INTRA.DIHEDRAL>
2.57392

>  <SCORE.INTRA.DIHEDRAL.0>
4.64198

>  <SCORE.INTRA.POLAR>
0

>  <SCORE.INTRA.POLAR.0>
0

>  <SCORE.INTRA.REPUL>
0

>  <SCORE.INTRA.REPUL.0>
0

>  <SCORE.INTRA.SOLV>
0.380148

>  <SCORE.INTRA.SOLV.lig_0>
-49.3611

>  <SCORE.INTRA.VDW>
0.652625

>  <SCORE.INTRA.VDW.0>
-1.91858

>  <SCORE.INTRA.norm>
0.0686987

>  <SCORE.RESTR>
0.000221195

>  <SCORE.RESTR.CAVITY>
0.000221195

>  <SCORE.RESTR.norm>
7.13531e-06

>  <SCORE.SYSTEM>
0

>  <SCORE.SYSTEM.CONST>
0

>  <SCORE.SYSTEM.DIHEDRAL>
0

>  <SCORE.SYSTEM.SOLV>
0

>  <SCORE.SYSTEM.norm>
0

>  <SCORE.heavy>
31

>  <SCORE.norm>
-0.777376

>  <RMSD>
4.851

$$$$
ligand
 OpenBabel11021811473D
libRbt.so/2013.1/901 2013/11/27
 31 33  0  0  0  0  0  0  0  0999 V2000
   25.9868   43.8880   15.9848 P   0  0  1  0  0  0  0  0  0  0  0  0
   26.9563   44.3825   14.9415 O   0  0  0  0  0  0  0  0  0  0  0  0
   26.0088   44.8382   17.1526 O   0  5  0  0  0  0  0  0  0  0  0  0
   24.6371   43.8318   15.3236 O   0  0  0  0  0  0  0  0  0  0  0  0
   27.6520   42.1324   16.9924 C   0  0  0  0  0  0  0  0  0  0  0  0
   26.3486   42.4225   16.5323 O   0  0  0  0  0  0  0  0  0  0  0  0
   27.6479   40.7747   17.6901 C   0  0  1  0  0  0  0  0  0  0  0  0
   28.9710   40.2878   17.7949 O   0  0  0  0  0  0  0  0  0  0  0  0
   27.0580   40.9083   19.0840 C   0  0  1  0  0  0  0  0  0  0  0  0
   25.8494   41.6135   18.9886 O   0  0  0  0  0  0  0  0  0  0  0  0
   26.7918   39.5627   19.7377 C   0  0  1  0  0  0  0  0  0  0  0  0
   26.4126   38.6555   18.7382 O   0  0  0  0  0  0  0  0  0  0  0  0
   28.0366   39.0439   20.4383 C   0  0  0  0  0  0  0  0  0  0  0  0
   27.3607   39.8133   23.0595 N   0  0  0  0  0  0  0  0  0  0  0  0
   27.0945   40.2363   24.3437 C   0  0  0  0  0  0  0  0  0  0  0  0
   27.0730   41.4355   24.6052 O   0  0  0  0  0  0  0  0  0  0  0  0
   26.8532   39.3219   25.3435 N   0  0  0  0  0  0  0  0  0  0  0  0
   26.8643   37.9690   25.0652 C   0  0  0  0  0  0  0  0  0  0  0  0
   27.1327   37.5328   23.7726 C   0  0  1  0  0  0  0  0  0  0  0  0
   26.6289   37.1546   25.9602 O   0  0  0  0  0  0  0  0  0  0  0  0
   27.4123   35.7510   22.2020 C   0  0  2  0  0  0  0  0  0  0  0  0
   27.1472   36.1820   23.4878 N   0  0  0  0  0  0  0  0  0  0  0  0
   27.4268   34.3855   21.9156 C   0  0  0  0  0  0  0  0  0  0  0  0
   27.6975   33.9410   20.6268 C   0  0  1  0  0  0  0  0  0  0  0  0
   27.7081   32.4695   20.3575 C   0  0  0  0  0  0  0  0  0  0  0  0
   27.9523   34.8713   19.6079 C   0  0  1  0  0  0  0  0  0  0  0  0
   28.2404   34.4323   18.1984 C   0  0  0  0  0  0  0  0  0  0  0  0
   27.9388   36.2332   19.8971 C   0  0  0  0  0  0  0  0  0  0  0  0
   27.6712   36.6808   21.1922 C   0  0  1  0  0  0  0  0  0  0  0  0
   27.3856   38.4645   22.7678 C   0  0  1  0  0  0  0  0  0  0  0  0
   27.6595   38.0367   21.4828 N   0  0  0  0  0  0  0  0  0  0  0  0
  1  2  1  6  0  0  0
  1  3  1  0  0  0  0
  1  4  2  0  0  0  0
  1  6  1  0  0  0  0
  5  6  1  0  0  0  0
  7  5  1  1  0  0  0
  7  8  1  0  0  0  0
  7  9  1  0  0  0  0
  9 10  1  6  0  0  0
  9 11  1  0  0  0  0
 11 12  1  6  0  0  0
 11 13  1  0  0  0  0
 13 31  1  0  0  0  0
 14 15  1  0  0  0  0
 15 16  2  0  0  0  0
 15 17  1  0  0  0  0
 17 18  1  0  0  0  0
 18 20  2  0  0  0  0
 19 18  1  6  0  0  0
 19 22  1  0  0  0  0
 19 30  1  0  0  0  0
 21 23  1  1  0  0  0
 21 29  1  0  0  0  0
 21 22  1  0  0  0  0
 23 24  1  0  0  0  0
 24 25  1  6  0  0  0
 24 26  1  0  0  0  0
 26 27  1  6  0  0  0
 26 28  1  0  0  0  0
 29 28  1  6  0  0  0
 29 31  1  0  0  0  0
 30 14  1  6  0  0  0
 30 31  1  0  0  0  0
M  CHG  1   3  -1
M  END
>  <CHROM.1>
169.39397495,51.11431868,162.45146159,49.05306130,-33.99541457,158.47614867
94.88524138,27.07028939,39.30733480,20.12784910,2.25155842,1.39333021,-1.40548546

>  <Name>
ligand

>  <RI>
0

>  <Rbt.Current_Directory>
/home/itssahil/PROJECTS/Mol_Feturizer/New_Systems/rnas/3F2T

>  <Rbt.Executable>
rbdock ($Id: //depot/dev/client3/rdock/2013.1/src/exe/rbdock.cxx#4 $)

>  <Rbt.Library>
libRbt.so (2013.1, Build901 2013/11/27)

>  <Rbt.Parameter_File>
/export/apps/rDock/src/rDock_2013.1_src/data/scripts/dock_solv.prm

>  <Rbt.Receptor>
prm/pocket_docking_8.prm

>  <SCORE>
-24.3788

>  <SCORE.INTER>
-26.3845

>  <SCORE.INTER.CONST>
1

>  <SCORE.INTER.POLAR>
0

>  <SCORE.INTER.ROT>
7

>  <SCORE.INTER.SOLV>
18.5077

>  <SCORE.INTER.VDW>
-32.0256

>  <SCORE.INTER.norm>
-0.851113

>  <SCORE.INTRA>
2.00569

>  <SCORE.INTRA.DIHEDRAL>
2.49315

>  <SCORE.INTRA.DIHEDRAL.0>
4.64198

>  <SCORE.INTRA.POLAR>
0

>  <SCORE.INTRA.POLAR.0>
0

>  <SCORE.INTRA.REPUL>
0

>  <SCORE.INTRA.REPUL.0>
0

>  <SCORE.INTRA.SOLV>
0.510503

>  <SCORE.INTRA.SOLV.lig_0>
-49.3611

>  <SCORE.INTRA.VDW>
0.503862

>  <SCORE.INTRA.VDW.0>
-1.91858

>  <SCORE.INTRA.norm>
0.0646996

>  <SCORE.RESTR>
0

>  <SCORE.RESTR.CAVITY>
0

>  <SCORE.RESTR.norm>
0

>  <SCORE.SYSTEM>
0

>  <SCORE.SYSTEM.CONST>
0

>  <SCORE.SYSTEM.DIHEDRAL>
0

>  <SCORE.SYSTEM.SOLV>
0

>  <SCORE.SYSTEM.norm>
0

>  <SCORE.heavy>
31

>  <SCORE.norm>
-0.786414

>  <RMSD>
4.856

$$$$
ligand
 OpenBabel11021811473D
libRbt.so/2013.1/901 2013/11/27
 31 33  0  0  0  0  0  0  0  0999 V2000
   25.9161   43.9557   16.0430 P   0  0  1  0  0  0  0  0  0  0  0  0
   26.9324   44.4653   15.0527 O   0  0  0  0  0  0  0  0  0  0  0  0
   25.7499   44.9800   17.1339 O   0  5  0  0  0  0  0  0  0  0  0  0
   24.6428   43.7329   15.2742 O   0  0  0  0  0  0  0  0  0  0  0  0
   27.6140   42.4382   17.3409 C   0  0  0  0  0  0  0  0  0  0  0  0
   26.3485   42.5691   16.7275 O   0  0  0  0  0  0  0  0  0  0  0  0
   27.7368   41.0423   17.9465 C   0  0  1  0  0  0  0  0  0  0  0  0
   29.0862   40.7834   18.2793 O   0  0  0  0  0  0  0  0  0  0  0  0
   26.8896   40.9449   19.2040 C   0  0  1  0  0  0  0  0  0  0  0  0
   25.6139   41.4541   18.9202 O   0  0  0  0  0  0  0  0  0  0  0  0
   26.7488   39.5174   19.7051 C   0  0  1  0  0  0  0  0  0  0  0  0
   26.5700   38.6778   18.5965 O   0  0  0  0  0  0  0  0  0  0  0  0
   27.9912   39.0842   20.4656 C   0  0  0  0  0  0  0  0  0  0  0  0
   27.3526   39.9255   23.0741 N   0  0  0  0  0  0  0  0  0  0  0  0
   27.1049   40.3834   24.3500 C   0  0  0  0  0  0  0  0  0  0  0  0
   27.0917   41.5892   24.5799 O   0  0  0  0  0  0  0  0  0  0  0  0
   26.8729   39.4968   25.3766 N   0  0  0  0  0  0  0  0  0  0  0  0
   26.8749   38.1370   25.1342 C   0  0  0  0  0  0  0  0  0  0  0  0
   27.1246   37.6656   23.8501 C   0  0  1  0  0  0  0  0  0  0  0  0
   26.6479   37.3476   26.0534 O   0  0  0  0  0  0  0  0  0  0  0  0
   27.3766   35.8418   22.3238 C   0  0  2  0  0  0  0  0  0  0  0  0
   27.1300   36.3078   23.6011 N   0  0  0  0  0  0  0  0  0  0  0  0
   27.3818   34.4691   22.0735 C   0  0  0  0  0  0  0  0  0  0  0  0
   27.6338   33.9895   20.7935 C   0  0  1  0  0  0  0  0  0  0  0  0
   27.6349   32.5114   20.5632 C   0  0  0  0  0  0  0  0  0  0  0  0
   27.8791   34.8915   19.7471 C   0  0  1  0  0  0  0  0  0  0  0  0
   28.1471   34.4141   18.3462 C   0  0  0  0  0  0  0  0  0  0  0  0
   27.8749   36.2606   20.0004 C   0  0  0  0  0  0  0  0  0  0  0  0
   27.6260   36.7434   21.2865 C   0  0  1  0  0  0  0  0  0  0  0  0
   27.3682   38.5693   22.8179 C   0  0  1  0  0  0  0  0  0  0  0  0
   27.6237   38.1066   21.5412 N   0  0  0  0  0  0  0  0  0  0  0  0
  1  2  1  6  0  0  0
  1  3  1  0  0  0  0
  1  4  2  0  0  0  0
  1  6  1  0  0  0  0
  5  6  1  0  0  0  0
  7  5  1  1  0  0  0
  7  8  1  0  0  0  0
  7  9  1  0  0  0  0
  9 10  1  6  0  0  0
  9 11  1  0  0  0  0
 11 12  1  6  0  0  0
 11 13  1  0  0  0  0
 13 31  1  0  0  0  0
 14 15  1  0  0  0  0
 15 16  2  0  0  0  0
 15 17  1  0  0  0  0
 17 18  1  0  0  0  0
 18 20  2  0  0  0  0
 19 18  1  6  0  0  0
 19 22  1  0  0  0  0
 19 30  1  0  0  0  0
 21 23  1  1  0  0  0
 21 29  1  0  0  0  0
 21 22  1  0  0  0  0
 23 24  1  0  0  0  0
 24 25  1  6  0  0  0
 24 26  1  0  0  0  0
 26 27  1  6  0  0  0
 26 28  1  0  0  0  0
 29 28  1  6  0  0  0
 29 31  1  0  0  0  0
 30 14  1  6  0  0  0
 30 31  1  0  0  0  0
M  CHG  1   3  -1
M  END
>  <CHROM.1>
178.05282036,52.32734375,166.23385385,48.24514905,-40.58398278,148.65640464
91.02412524,27.03625855,39.40485694,20.21946778,-2.36733543,-1.40826610,1.62777059

>  <Name>
ligand

>  <RI>
0

>  <Rbt.Current_Directory>
/home/itssahil/PROJECTS/Mol_Feturizer/New_Systems/rnas/3F2T

>  <Rbt.Executable>
rbdock ($Id: //depot/dev/client3/rdock/2013.1/src/exe/rbdock.cxx#4 $)

>  <Rbt.Library>
libRbt.so (2013.1, Build901 2013/11/27)

>  <Rbt.Parameter_File>
/export/apps/rDock/src/rDock_2013.1_src/data/scripts/dock_solv.prm

>  <Rbt.Receptor>
prm/blind_docking_100.prm

>  <SCORE>
-24.6365

>  <SCORE.INTER>
-26.5223

>  <SCORE.INTER.CONST>
1

>  <SCORE.INTER.POLAR>
0

>  <SCORE.INTER.ROT>
7

>  <SCORE.INTER.SOLV>
18.4148

>  <SCORE.INTER.VDW>
-32.0865

>  <SCORE.INTER.norm>
-0.855559

>  <SCORE.INTRA>
1.88586

>  <SCORE.INTRA.DIHEDRAL>
2.07846

>  <SCORE.INTRA.DIHEDRAL.0>
4.64198

>  <SCORE.INTRA.POLAR>
0

>  <SCORE.INTRA.POLAR.0>
0

>  <SCORE.INTRA.REPUL>
0

>  <SCORE.INTRA.REPUL.0>
0

>  <SCORE.INTRA.SOLV>
0.230267

>  <SCORE.INTRA.SOLV.lig_0>
-49.3611

>  <SCORE.INTRA.VDW>
0.731497

>  <SCORE.INTRA.VDW.0>
-1.91858

>  <SCORE.INTRA.norm>
0.0608343

>  <SCORE.RESTR>
0

>  <SCORE.RESTR.CAVITY>
0

>  <SCORE.RESTR.norm>
0

>  <SCORE.SYSTEM>
0

>  <SCORE.SYSTEM.CONST>
0

>  <SCORE.SYSTEM.DIHEDRAL>
0

>  <SCORE.SYSTEM.SOLV>
0

>  <SCORE.SYSTEM.norm>
0

>  <SCORE.heavy>
31

>  <SCORE.norm>
-0.794725

>  <RMSD>
4.878

$$$$
ligand
 OpenBabel11021811473D
libRbt.so/2013.1/901 2013/11/27
 31 33  0  0  0  0  0  0  0  0999 V2000
   26.0790   43.5468   16.3099 P   0  0  1  0  0  0  0  0  0  0  0  0
   26.4853   44.9685   16.6049 O   0  0  0  0  0  0  0  0  0  0  0  0
   25.2893   43.0187   17.4781 O   0  5  0  0  0  0  0  0  0  0  0  0
   25.2653   43.5869   15.0457 O   0  0  0  0  0  0  0  0  0  0  0  0
   28.4022   42.5497   17.0022 C   0  0  0  0  0  0  0  0  0  0  0  0
   27.3334   42.5715   16.0790 O   0  0  0  0  0  0  0  0  0  0  0  0
   29.5049   41.6367   16.4726 C   0  0  1  0  0  0  0  0  0  0  0  0
   30.7309   41.9549   17.1007 O   0  0  0  0  0  0  0  0  0  0  0  0
   29.1623   40.1852   16.7634 C   0  0  1  0  0  0  0  0  0  0  0  0
   30.2242   39.3817   16.3230 O   0  0  0  0  0  0  0  0  0  0  0  0
   28.9289   39.9244   18.2420 C   0  0  1  0  0  0  0  0  0  0  0  0
   27.5486   39.7975   18.4537 O   0  0  0  0  0  0  0  0  0  0  0  0
   29.6224   38.6463   18.6838 C   0  0  0  0  0  0  0  0  0  0  0  0
   29.1766   40.2522   20.9515 N   0  0  0  0  0  0  0  0  0  0  0  0
   29.0336   41.0636   22.0560 C   0  0  0  0  0  0  0  0  0  0  0  0
   29.3533   42.2473   21.9961 O   0  0  0  0  0  0  0  0  0  0  0  0
   28.5349   40.5567   23.2342 N   0  0  0  0  0  0  0  0  0  0  0  0
   28.1615   39.2294   23.3167 C   0  0  0  0  0  0  0  0  0  0  0  0
   28.3028   38.4028   22.2076 C   0  0  1  0  0  0  0  0  0  0  0  0
   27.6977   38.7848   24.3688 O   0  0  0  0  0  0  0  0  0  0  0  0
   28.0731   36.2558   21.1796 C   0  0  2  0  0  0  0  0  0  0  0  0
   27.9334   37.0749   22.2837 N   0  0  0  0  0  0  0  0  0  0  0  0
   27.6994   34.9137   21.2578 C   0  0  0  0  0  0  0  0  0  0  0  0
   27.8405   34.0799   20.1547 C   0  0  1  0  0  0  0  0  0  0  0  0
   27.4328   32.6457   20.2765 C   0  0  0  0  0  0  0  0  0  0  0  0
   28.3569   34.5926   18.9551 C   0  0  1  0  0  0  0  0  0  0  0  0
   28.5172   33.7263   17.7360 C   0  0  0  0  0  0  0  0  0  0  0  0
   28.7305   35.9319   18.8807 C   0  0  0  0  0  0  0  0  0  0  0  0
   28.5931   36.7693   19.9891 C   0  0  1  0  0  0  0  0  0  0  0  0
   28.8177   38.9212   21.0211 C   0  0  1  0  0  0  0  0  0  0  0  0
   28.9667   38.1029   19.9177 N   0  0  0  0  0  0  0  0  0  0  0  0
  1  2  1  1  0  0  0
  1  3  1  0  0  0  0
  1  4  2  0  0  0  0
  1  6  1  0  0  0  0
  5  6  1  0  0  0  0
  7  5  1  1  0  0  0
  7  8  1  0  0  0  0
  7  9  1  0  0  0  0
  9 10  1  1  0  0  0
  9 11  1  0  0  0  0
 11 12  1  6  0  0  0
 11 13  1  0  0  0  0
 13 31  1  0  0  0  0
 14 15  1  0  0  0  0
 15 16  2  0  0  0  0
 15 17  1  0  0  0  0
 17 18  1  0  0  0  0
 18 20  2  0  0  0  0
 19 18  1  6  0  0  0
 19 22  1  0  0  0  0
 19 30  1  0  0  0  0
 21 23  1  1  0  0  0
 21 29  1  0  0  0  0
 21 22  1  0  0  0  0
 23 24  1  0  0  0  0
 24 25  1  6  0  0  0
 24 26  1  0  0  0  0
 26 27  1  6  0  0  0
 26 28  1  0  0  0  0
 29 28  1  6  0  0  0
 29 31  1  0  0  0  0
 30 14  1  6  0  0  0
 30 31  1  0  0  0  0
M  CHG  1   3  -1
M  END
>  <CHROM.1>
-174.84507191,49.55336524,159.39125314,-177.16251789,104.30991954,-157.01481305
130.55765582,28.13771602,39.53343870,19.14642045,2.92411272,-1.43627013,0.81957859

>  <Name>
ligand

>  <RI>
0

>  <Rbt.Current_Directory>
/home/itssahil/PROJECTS/Mol_Feturizer/New_Systems/rnas/3F2T

>  <Rbt.Executable>
rbdock ($Id: //depot/dev/client3/rdock/2013.1/src/exe/rbdock.cxx#4 $)

>  <Rbt.Library>
libRbt.so (2013.1, Build901 2013/11/27)

>  <Rbt.Parameter_File>
/export/apps/rDock/src/rDock_2013.1_src/data/scripts/dock_solv.prm

>  <Rbt.Receptor>
prm/blind_docking_80.prm

>  <SCORE>
-18.5475

>  <SCORE.INTER>
-23.5855

>  <SCORE.INTER.CONST>
1

>  <SCORE.INTER.POLAR>
0

>  <SCORE.INTER.ROT>
7

>  <SCORE.INTER.SOLV>
19.3898

>  <SCORE.INTER.VDW>
-30.4536

>  <SCORE.INTER.norm>
-0.760821

>  <SCORE.INTRA>
5.03799

>  <SCORE.INTRA.DIHEDRAL>
4.4879

>  <SCORE.INTRA.DIHEDRAL.0>
4.64198

>  <SCORE.INTRA.POLAR>
0

>  <SCORE.INTRA.POLAR.0>
0

>  <SCORE.INTRA.REPUL>
0

>  <SCORE.INTRA.REPUL.0>
0

>  <SCORE.INTRA.SOLV>
-0.440472

>  <SCORE.INTRA.SOLV.lig_0>
-49.3611

>  <SCORE.INTRA.VDW>
3.01428

>  <SCORE.INTRA.VDW.0>
-1.91858

>  <SCORE.INTRA.norm>
0.162516

>  <SCORE.RESTR>
0

>  <SCORE.RESTR.CAVITY>
0

>  <SCORE.RESTR.norm>
0

>  <SCORE.SYSTEM>
0

>  <SCORE.SYSTEM.CONST>
0

>  <SCORE.SYSTEM.DIHEDRAL>
0

>  <SCORE.SYSTEM.SOLV>
0

>  <SCORE.SYSTEM.norm>
0

>  <SCORE.heavy>
31

>  <SCORE.norm>
-0.598305

>  <RMSD>
4.884

$$$$
ligand
 OpenBabel11021811473D
libRbt.so/2013.1/901 2013/11/27
 31 33  0  0  0  0  0  0  0  0999 V2000
   24.7367   43.0184   17.5325 P   0  0  1  0  0  0  0  0  0  0  0  0
   23.7005   42.0634   18.0686 O   0  0  0  0  0  0  0  0  0  0  0  0
   24.6226   43.0612   16.0318 O   0  5  0  0  0  0  0  0  0  0  0  0
   24.4545   44.3548   18.1621 O   0  0  0  0  0  0  0  0  0  0  0  0
   26.6315   42.4505   19.2523 C   0  0  0  0  0  0  0  0  0  0  0  0
   26.2383   42.5865   17.9026 O   0  0  0  0  0  0  0  0  0  0  0  0
   28.0456   41.8784   19.3084 C   0  0  1  0  0  0  0  0  0  0  0  0
   28.5093   41.8818   20.6440 O   0  0  0  0  0  0  0  0  0  0  0  0
   28.0500   40.4513   18.7869 C   0  0  1  0  0  0  0  0  0  0  0  0
   29.3764   40.0795   18.5227 O   0  0  0  0  0  0  0  0  0  0  0  0
   27.4508   39.4655   19.7757 C   0  0  1  0  0  0  0  0  0  0  0  0
   26.9533   38.3691   19.0570 O   0  0  0  0  0  0  0  0  0  0  0  0
   28.4998   38.9820   20.7633 C   0  0  0  0  0  0  0  0  0  0  0  0
   27.5679   39.8325   23.2789 N   0  0  0  0  0  0  0  0  0  0  0  0
   27.1802   40.2882   24.5202 C   0  0  0  0  0  0  0  0  0  0  0  0
   27.2486   41.4846   24.7861 O   0  0  0  0  0  0  0  0  0  0  0  0
   26.7162   39.4094   25.4724 N   0  0  0  0  0  0  0  0  0  0  0  0
   26.6239   38.0611   25.1873 C   0  0  0  0  0  0  0  0  0  0  0  0
   27.0135   37.5919   23.9377 C   0  0  1  0  0  0  0  0  0  0  0  0
   26.1898   37.2807   26.0371 O   0  0  0  0  0  0  0  0  0  0  0  0
   27.3117   35.7817   22.4036 C   0  0  2  0  0  0  0  0  0  0  0  0
   26.9256   36.2453   23.6468 N   0  0  0  0  0  0  0  0  0  0  0  0
   27.2225   34.4203   22.1108 C   0  0  0  0  0  0  0  0  0  0  0  0
   27.6130   33.9427   20.8653 C   0  0  1  0  0  0  0  0  0  0  0  0
   27.5068   32.4765   20.5882 C   0  0  0  0  0  0  0  0  0  0  0  0
   28.0946   34.8357   19.8962 C   0  0  1  0  0  0  0  0  0  0  0  0
   28.5187   34.3610   18.5334 C   0  0  0  0  0  0  0  0  0  0  0  0
   28.1839   36.1934   20.1919 C   0  0  0  0  0  0  0  0  0  0  0  0
   27.7960   36.6738   21.4439 C   0  0  1  0  0  0  0  0  0  0  0  0
   27.4914   38.4866   22.9824 C   0  0  1  0  0  0  0  0  0  0  0  0
   27.8864   38.0253   21.7412 N   0  0  0  0  0  0  0  0  0  0  0  0
  1  2  1  1  0  0  0
  1  3  1  0  0  0  0
  1  4  2  0  0  0  0
  1  6  1  0  0  0  0
  5  6  1  0  0  0  0
  7  5  1  1  0  0  0
  7  8  1  0  0  0  0
  7  9  1  0  0  0  0
  9 10  1  1  0  0  0
  9 11  1  0  0  0  0
 11 12  1  6  0  0  0
 11 13  1  0  0  0  0
 13 31  1  0  0  0  0
 14 15  1  0  0  0  0
 15 16  2  0  0  0  0
 15 17  1  0  0  0  0
 17 18  1  0  0  0  0
 18 20  2  0  0  0  0
 19 18  1  6  0  0  0
 19 22  1  0  0  0  0
 19 30  1  0  0  0  0
 21 23  1  1  0  0  0
 21 29  1  0  0  0  0
 21 22  1  0  0  0  0
 23 24  1  0  0  0  0
 24 25  1  6  0  0  0
 24 26  1  0  0  0  0
 26 27  1  6  0  0  0
 26 28  1  0  0  0  0
 29 28  1  6  0  0  0
 29 31  1  0  0  0  0
 30 14  1  6  0  0  0
 30 31  1  0  0  0  0
M  CHG  1   3  -1
M  END
>  <CHROM.1>
173.46158271,-59.14576301,173.27455276,164.80487756,154.13590202,179.24619119
86.48801722,26.97285808,39.15614938,20.78305602,-2.70564590,-1.32297155,1.42936402

>  <Name>
ligand

>  <RI>
0

>  <Rbt.Current_Directory>
/home/itssahil/PROJECTS/Mol_Feturizer/New_Systems/rnas/3F2T

>  <Rbt.Executable>
rbdock ($Id: //depot/dev/client3/rdock/2013.1/src/exe/rbdock.cxx#4 $)

>  <Rbt.Library>
libRbt.so (2013.1, Build901 2013/11/27)

>  <Rbt.Parameter_File>
/export/apps/rDock/src/rDock_2013.1_src/data/scripts/dock_solv.prm

>  <Rbt.Receptor>
prm/pocket_docking_3.prm

>  <SCORE>
-25.5106

>  <SCORE.INTER>
-26.5319

>  <SCORE.INTER.CONST>
1

>  <SCORE.INTER.POLAR>
0

>  <SCORE.INTER.ROT>
7

>  <SCORE.INTER.SOLV>
19.3851

>  <SCORE.INTER.VDW>
-32.4163

>  <SCORE.INTER.norm>
-0.855869

>  <SCORE.INTRA>
1.02135

>  <SCORE.INTRA.DIHEDRAL>
0.000320916

>  <SCORE.INTRA.DIHEDRAL.0>
4.64198

>  <SCORE.INTRA.POLAR>
0

>  <SCORE.INTRA.POLAR.0>
0

>  <SCORE.INTRA.REPUL>
0

>  <SCORE.INTRA.REPUL.0>
0

>  <SCORE.INTRA.SOLV>
-0.391958

>  <SCORE.INTRA.SOLV.lig_0>
-49.3611

>  <SCORE.INTRA.VDW>
1.21717

>  <SCORE.INTRA.VDW.0>
-1.91858

>  <SCORE.INTRA.norm>
0.0329469

>  <SCORE.RESTR>
0

>  <SCORE.RESTR.CAVITY>
0

>  <SCORE.RESTR.norm>
0

>  <SCORE.SYSTEM>
0

>  <SCORE.SYSTEM.CONST>
0

>  <SCORE.SYSTEM.DIHEDRAL>
0

>  <SCORE.SYSTEM.SOLV>
0

>  <SCORE.SYSTEM.norm>
0

>  <SCORE.heavy>
31

>  <SCORE.norm>
-0.822922

>  <RMSD>
4.893

$$$$
ligand
 OpenBabel11021811473D
libRbt.so/2013.1/901 2013/11/27
 31 33  0  0  0  0  0  0  0  0999 V2000
   32.8830   36.7986   17.6196 P   0  0  1  0  0  0  0  0  0  0  0  0
   32.9319   35.4793   18.3478 O   0  0  0  0  0  0  0  0  0  0  0  0
   33.9406   37.7047   18.1919 O   0  5  0  0  0  0  0  0  0  0  0  0
   33.1208   36.4951   16.1659 O   0  0  0  0  0  0  0  0  0  0  0  0
   31.0310   38.4472   16.7694 C   0  0  0  0  0  0  0  0  0  0  0  0
   31.4661   37.5406   17.7612 O   0  0  0  0  0  0  0  0  0  0  0  0
   29.7455   39.1246   17.2372 C   0  0  1  0  0  0  0  0  0  0  0  0
   29.3738   40.1308   16.3162 O   0  0  0  0  0  0  0  0  0  0  0  0
   28.6248   38.1031   17.3328 C   0  0  1  0  0  0  0  0  0  0  0  0
   28.9999   36.9634   16.6064 O   0  0  0  0  0  0  0  0  0  0  0  0
   28.3253   37.6961   18.7658 C   0  0  1  0  0  0  0  0  0  0  0  0
   29.5429   37.4571   19.4187 O   0  0  0  0  0  0  0  0  0  0  0  0
   27.5732   38.7960   19.4965 C   0  0  0  0  0  0  0  0  0  0  0  0
   27.0584   36.2564   20.5944 N   0  0  0  0  0  0  0  0  0  0  0  0
   26.7418   35.0084   21.0854 C   0  0  0  0  0  0  0  0  0  0  0  0
   26.5234   34.0798   20.3129 O   0  0  0  0  0  0  0  0  0  0  0  0
   26.6653   34.7914   22.4423 N   0  0  0  0  0  0  0  0  0  0  0  0
   26.9170   35.8225   23.3262 C   0  0  0  0  0  0  0  0  0  0  0  0
   27.2364   37.0854   22.8399 C   0  0  1  0  0  0  0  0  0  0  0  0
   26.8656   35.6183   24.5408 O   0  0  0  0  0  0  0  0  0  0  0  0
   27.8064   39.3747   23.2321 C   0  0  2  0  0  0  0  0  0  0  0  0
   27.4874   38.1209   23.7177 N   0  0  0  0  0  0  0  0  0  0  0  0
   28.0597   40.4205   24.1204 C   0  0  0  0  0  0  0  0  0  0  0  0
   28.3764   41.6867   23.6426 C   0  0  1  0  0  0  0  0  0  0  0  0
   28.6382   42.7846   24.6244 C   0  0  0  0  0  0  0  0  0  0  0  0
   28.4465   41.9122   22.2595 C   0  0  1  0  0  0  0  0  0  0  0  0
   28.7948   43.2649   21.7016 C   0  0  0  0  0  0  0  0  0  0  0  0
   28.1916   40.8670   21.3756 C   0  0  0  0  0  0  0  0  0  0  0  0
   27.8693   39.5958   21.8543 C   0  0  1  0  0  0  0  0  0  0  0  0
   27.3025   37.2996   21.4647 C   0  0  1  0  0  0  0  0  0  0  0  0
   27.6128   38.5541   20.9756 N   0  0  0  0  0  0  0  0  0  0  0  0
  1  2  1  1  0  0  0
  1  3  1  0  0  0  0
  1  4  2  0  0  0  0
  1  6  1  0  0  0  0
  5  6  1  0  0  0  0
  7  5  1  6  0  0  0
  7  8  1  0  0  0  0
  7  9  1  0  0  0  0
  9 10  1  6  0  0  0
  9 11  1  0  0  0  0
 11 12  1  1  0  0  0
 11 13  1  0  0  0  0
 13 31  1  0  0  0  0
 14 15  1  0  0  0  0
 15 16  2  0  0  0  0
 15 17  1  0  0  0  0
 17 18  1  0  0  0  0
 18 20  2  0  0  0  0
 19 18  1  1  0  0  0
 19 22  1  0  0  0  0
 19 30  1  0  0  0  0
 21 23  1  6  0  0  0
 21 29  1  0  0  0  0
 21 22  1  0  0  0  0
 23 24  1  0  0  0  0
 24 25  1  1  0  0  0
 24 26  1  0  0  0  0
 26 27  1  1  0  0  0
 26 28  1  0  0  0  0
 29 28  1  1  0  0  0
 29 31  1  0  0  0  0
 30 14  1  1  0  0  0
 30 31  1  0  0  0  0
M  CHG  1   3  -1
M  END
>  <CHROM.1>
-173.22192442,-153.93436437,174.10435741,-16.93589859,-45.21893243,-164.59670043
136.02022215,29.10531714,38.05334351,20.21367831,-0.51604316,0.86284038,0.34503958

>  <Name>
ligand

>  <RI>
0

>  <Rbt.Current_Directory>
/home/itssahil/PROJECTS/Mol_Feturizer/New_Systems/rnas/3F2T

>  <Rbt.Executable>
rbdock ($Id: //depot/dev/client3/rdock/2013.1/src/exe/rbdock.cxx#4 $)

>  <Rbt.Library>
libRbt.so (2013.1, Build901 2013/11/27)

>  <Rbt.Parameter_File>
/export/apps/rDock/src/rDock_2013.1_src/data/scripts/dock_solv.prm

>  <Rbt.Receptor>
prm/blind_docking_80.prm

>  <SCORE>
-14.53

>  <SCORE.INTER>
-20.8225

>  <SCORE.INTER.CONST>
1

>  <SCORE.INTER.POLAR>
0

>  <SCORE.INTER.ROT>
7

>  <SCORE.INTER.SOLV>
18.9786

>  <SCORE.INTER.VDW>
-28.4745

>  <SCORE.INTER.norm>
-0.671693

>  <SCORE.INTRA>
6.29244

>  <SCORE.INTRA.DIHEDRAL>
3.71294

>  <SCORE.INTRA.DIHEDRAL.0>
4.64198

>  <SCORE.INTRA.POLAR>
0

>  <SCORE.INTRA.POLAR.0>
0

>  <SCORE.INTRA.REPUL>
0

>  <SCORE.INTRA.REPUL.0>
0

>  <SCORE.INTRA.SOLV>
0.957575

>  <SCORE.INTRA.SOLV.lig_0>
-49.3611

>  <SCORE.INTRA.VDW>
3.95718

>  <SCORE.INTRA.VDW.0>
-1.91858

>  <SCORE.INTRA.norm>
0.202982

>  <SCORE.RESTR>
0

>  <SCORE.RESTR.CAVITY>
0

>  <SCORE.RESTR.norm>
0

>  <SCORE.SYSTEM>
0

>  <SCORE.SYSTEM.CONST>
0

>  <SCORE.SYSTEM.DIHEDRAL>
0

>  <SCORE.SYSTEM.SOLV>
0

>  <SCORE.SYSTEM.norm>
0

>  <SCORE.heavy>
31

>  <SCORE.norm>
-0.468711

>  <RMSD>
4.900

$$$$
ligand
 OpenBabel11021811473D
libRbt.so/2013.1/901 2013/11/27
 31 33  0  0  0  0  0  0  0  0999 V2000
   31.3865   35.4748   15.1475 P   0  0  1  0  0  0  0  0  0  0  0  0
   30.6345   35.5695   13.8442 O   0  0  0  0  0  0  0  0  0  0  0  0
   31.2410   34.0769   15.6878 O   0  5  0  0  0  0  0  0  0  0  0  0
   32.8182   35.8198   14.8425 O   0  0  0  0  0  0  0  0  0  0  0  0
   30.4458   37.8023   15.9014 C   0  0  0  0  0  0  0  0  0  0  0  0
   30.8415   36.4951   16.2612 O   0  0  0  0  0  0  0  0  0  0  0  0
   29.9150   38.5245   17.1371 C   0  0  1  0  0  0  0  0  0  0  0  0
   29.7378   39.8971   16.8485 O   0  0  0  0  0  0  0  0  0  0  0  0
   28.5800   37.9301   17.5532 C   0  0  1  0  0  0  0  0  0  0  0  0
   28.7454   36.5486   17.7308 O   0  0  0  0  0  0  0  0  0  0  0  0
   28.0489   38.5314   18.8436 C   0  0  1  0  0  0  0  0  0  0  0  0
   26.8838   37.8397   19.2043 O   0  0  0  0  0  0  0  0  0  0  0  0
   29.0709   38.4070   19.9613 C   0  0  0  0  0  0  0  0  0  0  0  0
   28.1703   35.9482   20.9923 N   0  0  0  0  0  0  0  0  0  0  0  0
   27.6969   34.7289   21.4261 C   0  0  0  0  0  0  0  0  0  0  0  0
   27.9260   33.7128   20.7766 O   0  0  0  0  0  0  0  0  0  0  0  0
   26.9627   34.6384   22.5866 N   0  0  0  0  0  0  0  0  0  0  0  0
   26.7032   35.7702   23.3347 C   0  0  0  0  0  0  0  0  0  0  0  0
   27.1762   37.0049   22.9045 C   0  0  1  0  0  0  0  0  0  0  0  0
   26.0612   35.6809   24.3833 O   0  0  0  0  0  0  0  0  0  0  0  0
   27.3917   39.3660   23.2178 C   0  0  2  0  0  0  0  0  0  0  0  0
   26.9190   38.1403   23.6464 N   0  0  0  0  0  0  0  0  0  0  0  0
   27.1309   40.5129   23.9685 C   0  0  0  0  0  0  0  0  0  0  0  0
   27.5972   41.7514   23.5438 C   0  0  1  0  0  0  0  0  0  0  0  0
   27.2953   42.9599   24.3724 C   0  0  0  0  0  0  0  0  0  0  0  0
   28.3385   41.8472   22.3563 C   0  0  1  0  0  0  0  0  0  0  0  0
   28.8690   43.1667   21.8666 C   0  0  0  0  0  0  0  0  0  0  0  0
   28.5958   40.7012   21.6086 C   0  0  0  0  0  0  0  0  0  0  0  0
   28.1243   39.4572   22.0319 C   0  0  1  0  0  0  0  0  0  0  0  0
   27.9105   37.0898   21.7234 C   0  0  1  0  0  0  0  0  0  0  0  0
   28.3775   38.3150   21.2873 N   0  0  0  0  0  0  0  0  0  0  0  0
  1  2  1  6  0  0  0
  1  3  1  0  0  0  0
  1  4  2  0  0  0  0
  1  6  1  0  0  0  0
  5  6  1  0  0  0  0
  7  5  1  6  0  0  0
  7  8  1  0  0  0  0
  7  9  1  0  0  0  0
  9 10  1  1  0  0  0
  9 11  1  0  0  0  0
 11 12  1  1  0  0  0
 11 13  1  0  0  0  0
 13 31  1  0  0  0  0
 14 15  1  0  0  0  0
 15 16  2  0  0  0  0
 15 17  1  0  0  0  0
 17 18  1  0  0  0  0
 18 20  2  0  0  0  0
 19 18  1  1  0  0  0
 19 22  1  0  0  0  0
 19 30  1  0  0  0  0
 21 23  1  6  0  0  0
 21 29  1  0  0  0  0
 21 22  1  0  0  0  0
 23 24  1  0  0  0  0
 24 25  1  1  0  0  0
 24 26  1  0  0  0  0
 26 27  1  1  0  0  0
 26 28  1  0  0  0  0
 29 28  1  1  0  0  0
 29 31  1  0  0  0  0
 30 14  1  1  0  0  0
 30 31  1  0  0  0  0
M  CHG  1   3  -1
M  END
>  <CHROM.1>
177.43357112,-39.12459246,169.72667750,54.88651960,-174.80342075,-150.80306088
-92.08528651,28.74502272,37.68202837,19.79357813,-0.60235410,1.08482025,0.22299243

>  <Name>
ligand

>  <RI>
0

>  <Rbt.Current_Directory>
/home/itssahil/PROJECTS/Mol_Feturizer/New_Systems/rnas/3F2T

>  <Rbt.Executable>
rbdock ($Id: //depot/dev/client3/rdock/2013.1/src/exe/rbdock.cxx#4 $)

>  <Rbt.Library>
libRbt.so (2013.1, Build901 2013/11/27)

>  <Rbt.Parameter_File>
/export/apps/rDock/src/rDock_2013.1_src/data/scripts/dock_solv.prm

>  <Rbt.Receptor>
prm/blind_docking_80.prm

>  <SCORE>
-21.7853

>  <SCORE.INTER>
-22.7657

>  <SCORE.INTER.CONST>
1

>  <SCORE.INTER.POLAR>
0

>  <SCORE.INTER.ROT>
7

>  <SCORE.INTER.SOLV>
12.4511

>  <SCORE.INTER.VDW>
-27.5942

>  <SCORE.INTER.norm>
-0.734378

>  <SCORE.INTRA>
0.980458

>  <SCORE.INTRA.DIHEDRAL>
0.168598

>  <SCORE.INTRA.DIHEDRAL.0>
4.64198

>  <SCORE.INTRA.POLAR>
0

>  <SCORE.INTRA.POLAR.0>
0

>  <SCORE.INTRA.REPUL>
0

>  <SCORE.INTRA.REPUL.0>
0

>  <SCORE.INTRA.SOLV>
-0.0473607

>  <SCORE.INTRA.SOLV.lig_0>
-49.3611

>  <SCORE.INTRA.VDW>
0.919839

>  <SCORE.INTRA.VDW.0>
-1.91858

>  <SCORE.INTRA.norm>
0.0316277

>  <SCORE.RESTR>
0

>  <SCORE.RESTR.CAVITY>
0

>  <SCORE.RESTR.norm>
0

>  <SCORE.SYSTEM>
0

>  <SCORE.SYSTEM.CONST>
0

>  <SCORE.SYSTEM.DIHEDRAL>
0

>  <SCORE.SYSTEM.SOLV>
0

>  <SCORE.SYSTEM.norm>
0

>  <SCORE.heavy>
31

>  <SCORE.norm>
-0.702751

>  <RMSD>
4.903

$$$$
ligand
 OpenBabel11021811473D
libRbt.so/2013.1/901 2013/11/27
 31 33  0  0  0  0  0  0  0  0999 V2000
   27.2968   43.1030   16.6800 P   0  0  1  0  0  0  0  0  0  0  0  0
   28.1125   44.2483   16.1358 O   0  0  0  0  0  0  0  0  0  0  0  0
   27.2745   43.1981   18.1825 O   0  5  0  0  0  0  0  0  0  0  0  0
   25.9229   43.2330   16.0821 O   0  0  0  0  0  0  0  0  0  0  0  0
   29.1483   41.2503   16.7785 C   0  0  0  0  0  0  0  0  0  0  0  0
   27.8922   41.6654   16.2838 O   0  0  0  0  0  0  0  0  0  0  0  0
   29.1466   39.7328   16.9439 C   0  0  1  0  0  0  0  0  0  0  0  0
   30.4072   39.3028   17.4179 O   0  0  0  0  0  0  0  0  0  0  0  0
   28.0762   39.3198   17.9402 C   0  0  1  0  0  0  0  0  0  0  0  0
   26.8243   39.6837   17.4230 O   0  0  0  0  0  0  0  0  0  0  0  0
   28.0789   37.8255   18.2154 C   0  0  1  0  0  0  0  0  0  0  0  0
   29.2495   37.5100   18.9197 O   0  0  0  0  0  0  0  0  0  0  0  0
   26.8715   37.4246   19.0466 C   0  0  0  0  0  0  0  0  0  0  0  0
   27.0930   36.3382   21.6333 N   0  0  0  0  0  0  0  0  0  0  0  0
   27.2622   35.8560   22.9130 C   0  0  0  0  0  0  0  0  0  0  0  0
   27.3132   36.6328   23.8621 O   0  0  0  0  0  0  0  0  0  0  0  0
   27.3778   34.5034   23.1392 N   0  0  0  0  0  0  0  0  0  0  0  0
   27.3134   33.6144   22.0841 C   0  0  0  0  0  0  0  0  0  0  0  0
   27.1436   34.0918   20.7892 C   0  0  1  0  0  0  0  0  0  0  0  0
   27.3986   32.4027   22.2941 O   0  0  0  0  0  0  0  0  0  0  0  0
   26.9097   33.6857   18.4440 C   0  0  2  0  0  0  0  0  0  0  0  0
   27.0803   33.2090   19.7298 N   0  0  0  0  0  0  0  0  0  0  0  0
   26.8460   32.7924   17.3741 C   0  0  0  0  0  0  0  0  0  0  0  0
   26.6798   33.2615   16.0763 C   0  0  1  0  0  0  0  0  0  0  0  0
   26.6195   32.2746   14.9537 C   0  0  0  0  0  0  0  0  0  0  0  0
   26.5704   34.6406   15.8425 C   0  0  1  0  0  0  0  0  0  0  0  0
   26.3806   35.1886   14.4547 C   0  0  0  0  0  0  0  0  0  0  0  0
   26.6360   35.5297   16.9121 C   0  0  0  0  0  0  0  0  0  0  0  0
   26.8072   35.0599   18.2155 C   0  0  1  0  0  0  0  0  0  0  0  0
   27.0371   35.4633   20.5672 C   0  0  1  0  0  0  0  0  0  0  0  0
   26.8750   35.9440   19.2819 N   0  0  0  0  0  0  0  0  0  0  0  0
  1  2  1  6  0  0  0
  1  3  1  0  0  0  0
  1  4  2  0  0  0  0
  1  6  1  0  0  0  0
  5  6  1  0  0  0  0
  7  5  1  1  0  0  0
  7  8  1  0  0  0  0
  7  9  1  0  0  0  0
  9 10  1  6  0  0  0
  9 11  1  0  0  0  0
 11 12  1  1  0  0  0
 11 13  1  0  0  0  0
 13 31  1  0  0  0  0
 14 15  1  0  0  0  0
 15 16  2  0  0  0  0
 15 17  1  0  0  0  0
 17 18  1  0  0  0  0
 18 20  2  0  0  0  0
 19 18  1  1  0  0  0
 19 22  1  0  0  0  0
 19 30  1  0  0  0  0
 21 23  1  6  0  0  0
 21 29  1  0  0  0  0
 21 22  1  0  0  0  0
 23 24  1  0  0  0  0
 24 25  1  1  0  0  0
 24 26  1  0  0  0  0
 26 27  1  1  0  0  0
 26 28  1  0  0  0  0
 29 28  1  1  0  0  0
 29 31  1  0  0  0  0
 30 14  1  1  0  0  0
 30 31  1  0  0  0  0
M  CHG  1   3  -1
M  END
>  <CHROM.1>
148.76288613,65.50349761,179.03383790,62.96992832,68.70276479,178.74564429
-61.24220748,27.43105034,37.46044107,18.43549933,-0.98798429,1.44162773,2.18676366

>  <Name>
ligand

>  <RI>
0

>  <Rbt.Current_Directory>
/home/itssahil/PROJECTS/Mol_Feturizer/New_Systems/rnas/3F2T

>  <Rbt.Executable>
rbdock ($Id: //depot/dev/client3/rdock/2013.1/src/exe/rbdock.cxx#4 $)

>  <Rbt.Library>
libRbt.so (2013.1, Build901 2013/11/27)

>  <Rbt.Parameter_File>
/export/apps/rDock/src/rDock_2013.1_src/data/scripts/dock_solv.prm

>  <Rbt.Receptor>
prm/blind_docking_60.prm

>  <SCORE>
-15.6917

>  <SCORE.INTER>
-17.6109

>  <SCORE.INTER.CONST>
1

>  <SCORE.INTER.POLAR>
0

>  <SCORE.INTER.ROT>
7

>  <SCORE.INTER.SOLV>
16.7648

>  <SCORE.INTER.VDW>
-25.5956

>  <SCORE.INTER.norm>
-0.568095

>  <SCORE.INTRA>
1.86921

>  <SCORE.INTRA.DIHEDRAL>
0.722504

>  <SCORE.INTRA.DIHEDRAL.0>
4.64198

>  <SCORE.INTRA.POLAR>
0

>  <SCORE.INTRA.POLAR.0>
0

>  <SCORE.INTRA.REPUL>
0

>  <SCORE.INTRA.REPUL.0>
0

>  <SCORE.INTRA.SOLV>
1.42939

>  <SCORE.INTRA.SOLV.lig_0>
-49.3611

>  <SCORE.INTRA.VDW>
0.793258

>  <SCORE.INTRA.VDW.0>
-1.91858

>  <SCORE.INTRA.norm>
0.060297

>  <SCORE.RESTR>
0.0500641

>  <SCORE.RESTR.CAVITY>
0.0500641

>  <SCORE.RESTR.norm>
0.00161497

>  <SCORE.SYSTEM>
0

>  <SCORE.SYSTEM.CONST>
0

>  <SCORE.SYSTEM.DIHEDRAL>
0

>  <SCORE.SYSTEM.SOLV>
0

>  <SCORE.SYSTEM.norm>
0

>  <SCORE.heavy>
31

>  <SCORE.norm>
-0.506183

>  <RMSD>
4.909

$$$$
ligand
 OpenBabel11021811473D
libRbt.so/2013.1/901 2013/11/27
 31 33  0  0  0  0  0  0  0  0999 V2000
   26.3662   43.8992   16.2449 P   0  0  1  0  0  0  0  0  0  0  0  0
   25.8832   43.7512   14.8243 O   0  0  0  0  0  0  0  0  0  0  0  0
   27.7940   44.3763   16.2215 O   0  5  0  0  0  0  0  0  0  0  0  0
   25.4477   44.8877   16.9092 O   0  0  0  0  0  0  0  0  0  0  0  0
   27.1194   41.4268   16.6812 C   0  0  0  0  0  0  0  0  0  0  0  0
   26.3177   42.5227   17.0701 O   0  0  0  0  0  0  0  0  0  0  0  0
   26.7787   40.2208   17.5527 C   0  0  1  0  0  0  0  0  0  0  0  0
   27.0417   39.0279   16.8409 O   0  0  0  0  0  0  0  0  0  0  0  0
   27.6213   40.2384   18.8170 C   0  0  1  0  0  0  0  0  0  0  0  0
   27.5284   41.5132   19.3945 O   0  0  0  0  0  0  0  0  0  0  0  0
   27.1708   39.2038   19.8345 C   0  0  1  0  0  0  0  0  0  0  0  0
   26.8145   38.0357   19.1457 O   0  0  0  0  0  0  0  0  0  0  0  0
   28.2870   38.8854   20.8155 C   0  0  0  0  0  0  0  0  0  0  0  0
   27.5215   39.9089   23.3228 N   0  0  0  0  0  0  0  0  0  0  0  0
   27.2147   40.4514   24.5518 C   0  0  0  0  0  0  0  0  0  0  0  0
   27.2683   41.6663   24.7194 O   0  0  0  0  0  0  0  0  0  0  0  0
   26.8485   39.6396   25.6010 N   0  0  0  0  0  0  0  0  0  0  0  0
   26.7740   38.2713   25.4277 C   0  0  0  0  0  0  0  0  0  0  0  0
   27.0825   37.7147   24.1914 C   0  0  1  0  0  0  0  0  0  0  0  0
   26.4273   37.5502   26.3654 O   0  0  0  0  0  0  0  0  0  0  0  0
   27.3173   35.7971   22.7817 C   0  0  2  0  0  0  0  0  0  0  0  0
   27.0120   36.3478   24.0118 N   0  0  0  0  0  0  0  0  0  0  0  0
   27.2457   34.4154   22.6015 C   0  0  0  0  0  0  0  0  0  0  0  0
   27.5556   33.8507   21.3698 C   0  0  1  0  0  0  0  0  0  0  0  0
   27.4712   32.3652   21.2145 C   0  0  0  0  0  0  0  0  0  0  0  0
   27.9375   34.6758   20.3012 C   0  0  1  0  0  0  0  0  0  0  0  0
   28.2722   34.1057   18.9502 C   0  0  0  0  0  0  0  0  0  0  0  0
   28.0097   36.0542   20.4846 C   0  0  0  0  0  0  0  0  0  0  0  0
   27.7027   36.6222   21.7224 C   0  0  1  0  0  0  0  0  0  0  0  0
   27.4619   38.5425   23.1367 C   0  0  1  0  0  0  0  0  0  0  0  0
   27.7761   37.9945   21.9077 N   0  0  0  0  0  0  0  0  0  0  0  0
  1  2  1  6  0  0  0
  1  3  1  0  0  0  0
  1  4  2  0  0  0  0
  1  6  1  0  0  0  0
  5  6  1  0  0  0  0
  7  5  1  6  0  0  0
  7  8  1  0  0  0  0
  7  9  1  0  0  0  0
  9 10  1  1  0  0  0
  9 11  1  0  0  0  0
 11 12  1  6  0  0  0
 11 13  1  0  0  0  0
 13 31  1  0  0  0  0
 14 15  1  0  0  0  0
 15 16  2  0  0  0  0
 15 17  1  0  0  0  0
 17 18  1  0  0  0  0
 18 20  2  0  0  0  0
 19 18  1  6  0  0  0
 19 22  1  0  0  0  0
 19 30  1  0  0  0  0
 21 23  1  1  0  0  0
 21 29  1  0  0  0  0
 21 22  1  0  0  0  0
 23 24  1  0  0  0  0
 24 25  1  6  0  0  0
 24 26  1  0  0  0  0
 26 27  1  6  0  0  0
 26 28  1  0  0  0  0
 29 28  1  6  0  0  0
 29 31  1  0  0  0  0
 30 14  1  6  0  0  0
 30 31  1  0  0  0  0
M  CHG  1   3  -1
M  END
>  <CHROM.1>
-174.75774226,63.72044092,152.40407548,49.70499596,39.10504410,173.08694410
83.38435775,27.13827995,39.20020824,20.42944961,2.29570700,1.44997540,-1.48704930

>  <Name>
ligand

>  <RI>
0

>  <Rbt.Current_Directory>
/home/itssahil/PROJECTS/Mol_Feturizer/New_Systems/rnas/3F2T

>  <Rbt.Executable>
rbdock ($Id: //depot/dev/client3/rdock/2013.1/src/exe/rbdock.cxx#4 $)

>  <Rbt.Library>
libRbt.so (2013.1, Build901 2013/11/27)

>  <Rbt.Parameter_File>
/export/apps/rDock/src/rDock_2013.1_src/data/scripts/dock_solv.prm

>  <Rbt.Receptor>
prm/pocket_docking_8.prm

>  <SCORE>
-24.855

>  <SCORE.INTER>
-26.5212

>  <SCORE.INTER.CONST>
1

>  <SCORE.INTER.POLAR>
0

>  <SCORE.INTER.ROT>
7

>  <SCORE.INTER.SOLV>
21.3313

>  <SCORE.INTER.VDW>
-33.0579

>  <SCORE.INTER.norm>
-0.855523

>  <SCORE.INTRA>
1.66625

>  <SCORE.INTRA.DIHEDRAL>
1.1591

>  <SCORE.INTRA.DIHEDRAL.0>
4.64198

>  <SCORE.INTRA.POLAR>
0

>  <SCORE.INTRA.POLAR.0>
0

>  <SCORE.INTRA.REPUL>
0

>  <SCORE.INTRA.REPUL.0>
0

>  <SCORE.INTRA.SOLV>
-0.0814741

>  <SCORE.INTRA.SOLV.lig_0>
-49.3611

>  <SCORE.INTRA.VDW>
1.12744

>  <SCORE.INTRA.VDW.0>
-1.91858

>  <SCORE.INTRA.norm>
0.0537499

>  <SCORE.RESTR>
0

>  <SCORE.RESTR.CAVITY>
0

>  <SCORE.RESTR.norm>
0

>  <SCORE.SYSTEM>
0

>  <SCORE.SYSTEM.CONST>
0

>  <SCORE.SYSTEM.DIHEDRAL>
0

>  <SCORE.SYSTEM.SOLV>
0

>  <SCORE.SYSTEM.norm>
0

>  <SCORE.heavy>
31

>  <SCORE.norm>
-0.801773

>  <RMSD>
4.922

$$$$
ligand
 OpenBabel11021811473D
libRbt.so/2013.1/901 2013/11/27
 31 33  0  0  0  0  0  0  0  0999 V2000
   26.3260   34.2225   16.1274 P   0  0  1  0  0  0  0  0  0  0  0  0
   25.2264   33.1909   16.1312 O   0  0  0  0  0  0  0  0  0  0  0  0
   27.1279   34.0773   17.3934 O   0  5  0  0  0  0  0  0  0  0  0  0
   27.1529   33.9632   14.8982 O   0  0  0  0  0  0  0  0  0  0  0  0
   26.6662   36.8214   16.1002 C   0  0  0  0  0  0  0  0  0  0  0  0
   25.7725   35.7284   16.0621 O   0  0  0  0  0  0  0  0  0  0  0  0
   26.7119   37.3838   17.5186 C   0  0  1  0  0  0  0  0  0  0  0  0
   27.2011   36.3989   18.4071 O   0  0  0  0  0  0  0  0  0  0  0  0
   27.6287   38.5944   17.5685 C   0  0  1  0  0  0  0  0  0  0  0  0
   27.1087   39.5803   16.7172 O   0  0  0  0  0  0  0  0  0  0  0  0
   27.7590   39.1720   18.9679 C   0  0  1  0  0  0  0  0  0  0  0  0
   26.4785   39.2452   19.5344 O   0  0  0  0  0  0  0  0  0  0  0  0
   28.6415   38.2925   19.8381 C   0  0  0  0  0  0  0  0  0  0  0  0
   27.8494   35.9197   21.1274 N   0  0  0  0  0  0  0  0  0  0  0  0
   27.4192   34.7395   21.6938 C   0  0  0  0  0  0  0  0  0  0  0  0
   27.5368   33.6829   21.0801 O   0  0  0  0  0  0  0  0  0  0  0  0
   26.8531   34.7334   22.9482 N   0  0  0  0  0  0  0  0  0  0  0  0
   26.7214   35.9116   23.6569 C   0  0  0  0  0  0  0  0  0  0  0  0
   27.1519   37.1075   23.0931 C   0  0  1  0  0  0  0  0  0  0  0  0
   26.2309   35.8981   24.7877 O   0  0  0  0  0  0  0  0  0  0  0  0
   27.4519   39.4760   23.2334 C   0  0  2  0  0  0  0  0  0  0  0  0
   27.0216   38.2891   23.7950 N   0  0  0  0  0  0  0  0  0  0  0  0
   27.3195   40.6696   23.9439 C   0  0  0  0  0  0  0  0  0  0  0  0
   27.7443   41.8697   23.3862 C   0  0  1  0  0  0  0  0  0  0  0  0
   27.5833   43.1302   24.1757 C   0  0  0  0  0  0  0  0  0  0  0  0
   28.3139   41.8794   22.1039 C   0  0  1  0  0  0  0  0  0  0  0  0
   28.7945   43.1551   21.4683 C   0  0  0  0  0  0  0  0  0  0  0  0
   28.4431   40.6870   21.3968 C   0  0  0  0  0  0  0  0  0  0  0  0
   28.0130   39.4815   21.9541 C   0  0  1  0  0  0  0  0  0  0  0  0
   27.7152   37.1069   21.8186 C   0  0  1  0  0  0  0  0  0  0  0  0
   28.1387   38.2931   21.2505 N   0  0  0  0  0  0  0  0  0  0  0  0
  1  2  1  1  0  0  0
  1  3  1  0  0  0  0
  1  4  2  0  0  0  0
  1  6  1  0  0  0  0
  5  6  1  0  0  0  0
  7  5  1  6  0  0  0
  7  8  1  0  0  0  0
  7  9  1  0  0  0  0
  9 10  1  6  0  0  0
  9 11  1  0  0  0  0
 11 12  1  1  0  0  0
 11 13  1  0  0  0  0
 13 31  1  0  0  0  0
 14 15  1  0  0  0  0
 15 16  2  0  0  0  0
 15 17  1  0  0  0  0
 17 18  1  0  0  0  0
 18 20  2  0  0  0  0
 19 18  1  1  0  0  0
 19 22  1  0  0  0  0
 19 30  1  0  0  0  0
 21 23  1  6  0  0  0
 21 29  1  0  0  0  0
 21 22  1  0  0  0  0
 23 24  1  0  0  0  0
 24 25  1  1  0  0  0
 24 26  1  0  0  0  0
 26 27  1  1  0  0  0
 26 28  1  0  0  0  0
 29 28  1  1  0  0  0
 29 31  1  0  0  0  0
 30 14  1  1  0  0  0
 30 31  1  0  0  0  0
M  CHG  1   3  -1
M  END
>  <CHROM.1>
-99.23753719,177.66515603,62.21859055,61.57427901,-45.25885777,-144.73909045
-57.57948328,27.21991374,37.45778193,20.07614470,-2.54361367,1.40252460,1.80898826

>  <Name>
ligand

>  <RI>
0

>  <Rbt.Current_Directory>
/home/itssahil/PROJECTS/Mol_Feturizer/New_Systems/rnas/3F2T

>  <Rbt.Executable>
rbdock ($Id: //depot/dev/client3/rdock/2013.1/src/exe/rbdock.cxx#4 $)

>  <Rbt.Library>
libRbt.so (2013.1, Build901 2013/11/27)

>  <Rbt.Parameter_File>
/export/apps/rDock/src/rDock_2013.1_src/data/scripts/dock_solv.prm

>  <Rbt.Receptor>
prm/pocket_docking_5.prm

>  <SCORE>
-17.8867

>  <SCORE.INTER>
-23.3691

>  <SCORE.INTER.CONST>
1

>  <SCORE.INTER.POLAR>
0

>  <SCORE.INTER.ROT>
7

>  <SCORE.INTER.SOLV>
9.74367

>  <SCORE.INTER.VDW>
-27.094

>  <SCORE.INTER.norm>
-0.753842

>  <SCORE.INTRA>
5.4824

>  <SCORE.INTRA.DIHEDRAL>
6.00319

>  <SCORE.INTRA.DIHEDRAL.0>
4.64198

>  <SCORE.INTRA.POLAR>
0

>  <SCORE.INTRA.POLAR.0>
0

>  <SCORE.INTRA.REPUL>
0

>  <SCORE.INTRA.REPUL.0>
0

>  <SCORE.INTRA.SOLV>
3.28915

>  <SCORE.INTRA.SOLV.lig_0>
-49.3611

>  <SCORE.INTRA.VDW>
0.836234

>  <SCORE.INTRA.VDW.0>
-1.91858

>  <SCORE.INTRA.norm>
0.176852

>  <SCORE.RESTR>
0

>  <SCORE.RESTR.CAVITY>
0

>  <SCORE.RESTR.norm>
0

>  <SCORE.SYSTEM>
0

>  <SCORE.SYSTEM.CONST>
0

>  <SCORE.SYSTEM.DIHEDRAL>
0

>  <SCORE.SYSTEM.SOLV>
0

>  <SCORE.SYSTEM.norm>
0

>  <SCORE.heavy>
31

>  <SCORE.norm>
-0.57699

>  <RMSD>
4.932

$$$$
ligand
 OpenBabel11021811473D
libRbt.so/2013.1/901 2013/11/27
 31 33  0  0  0  0  0  0  0  0999 V2000
   25.4660   43.4672   16.4173 P   0  0  1  0  0  0  0  0  0  0  0  0
   24.5763   42.5704   17.2404 O   0  0  0  0  0  0  0  0  0  0  0  0
   24.7616   43.7925   15.1269 O   0  5  0  0  0  0  0  0  0  0  0  0
   25.7248   44.6938   17.2482 O   0  0  0  0  0  0  0  0  0  0  0  0
   27.7710   42.4087   17.0783 C   0  0  0  0  0  0  0  0  0  0  0  0
   26.8757   42.7894   16.0545 O   0  0  0  0  0  0  0  0  0  0  0  0
   27.1559   41.2680   17.8850 C   0  0  1  0  0  0  0  0  0  0  0  0
   26.8985   40.1674   17.0358 O   0  0  0  0  0  0  0  0  0  0  0  0
   28.1123   40.8329   18.9827 C   0  0  1  0  0  0  0  0  0  0  0  0
   28.4642   41.9614   19.7377 O   0  0  0  0  0  0  0  0  0  0  0  0
   27.5054   39.7919   19.9083 C   0  0  1  0  0  0  0  0  0  0  0  0
   26.9884   38.7524   19.1221 O   0  0  0  0  0  0  0  0  0  0  0  0
   28.5536   39.2299   20.8543 C   0  0  0  0  0  0  0  0  0  0  0  0
   27.5983   40.0018   23.3864 N   0  0  0  0  0  0  0  0  0  0  0  0
   27.1992   40.4183   24.6378 C   0  0  0  0  0  0  0  0  0  0  0  0
   27.2695   41.6052   24.9433 O   0  0  0  0  0  0  0  0  0  0  0  0
   26.7216   39.5110   25.5557 N   0  0  0  0  0  0  0  0  0  0  0  0
   26.6270   38.1731   25.2258 C   0  0  0  0  0  0  0  0  0  0  0  0
   27.0281   37.7433   23.9657 C   0  0  1  0  0  0  0  0  0  0  0  0
   26.1809   37.3672   26.0450 O   0  0  0  0  0  0  0  0  0  0  0  0
   27.3355   35.9829   22.3764 C   0  0  2  0  0  0  0  0  0  0  0  0
   26.9380   36.4073   23.6299 N   0  0  0  0  0  0  0  0  0  0  0  0
   27.2440   34.6322   22.0383 C   0  0  0  0  0  0  0  0  0  0  0  0
   27.6459   34.1939   20.7821 C   0  0  1  0  0  0  0  0  0  0  0  0
   27.5369   32.7379   20.4560 C   0  0  0  0  0  0  0  0  0  0  0  0
   28.1413   35.1160   19.8477 C   0  0  1  0  0  0  0  0  0  0  0  0
   28.5781   34.6842   18.4747 C   0  0  0  0  0  0  0  0  0  0  0  0
   28.2329   36.4629   20.1886 C   0  0  0  0  0  0  0  0  0  0  0  0
   27.8335   36.9037   21.4516 C   0  0  1  0  0  0  0  0  0  0  0  0
   27.5197   38.6666   23.0452 C   0  0  1  0  0  0  0  0  0  0  0  0
   27.9261   38.2444   21.7938 N   0  0  0  0  0  0  0  0  0  0  0  0
  1  2  1  1  0  0  0
  1  3  1  0  0  0  0
  1  4  2  0  0  0  0
  1  6  1  0  0  0  0
  5  6  1  0  0  0  0
  7  5  1  6  0  0  0
  7  8  1  0  0  0  0
  7  9  1  0  0  0  0
  9 10  1  1  0  0  0
  9 11  1  0  0  0  0
 11 12  1  6  0  0  0
 11 13  1  0  0  0  0
 13 31  1  0  0  0  0
 14 15  1  0  0  0  0
 15 16  2  0  0  0  0
 15 17  1  0  0  0  0
 17 18  1  0  0  0  0
 18 20  2  0  0  0  0
 19 18  1  6  0  0  0
 19 22  1  0  0  0  0
 19 30  1  0  0  0  0
 21 23  1  1  0  0  0
 21 29  1  0  0  0  0
 21 22  1  0  0  0  0
 23 24  1  0  0  0  0
 24 25  1  6  0  0  0
 24 26  1  0  0  0  0
 26 27  1  6  0  0  0
 26 28  1  0  0  0  0
 29 28  1  6  0  0  0
 29 31  1  0  0  0  0
 30 14  1  6  0  0  0
 30 31  1  0  0  0  0
M  CHG  1   3  -1
M  END
>  <CHROM.1>
66.51400099,-61.42023284,59.42767426,53.83363728,51.49928862,177.82145845
88.76600075,27.06724232,39.38105699,20.37259542,2.42961390,1.38269184,-1.62715550

>  <Name>
ligand

>  <RI>
0

>  <Rbt.Current_Directory>
/home/itssahil/PROJECTS/Mol_Feturizer/New_Systems/rnas/3F2T

>  <Rbt.Executable>
rbdock ($Id: //depot/dev/client3/rdock/2013.1/src/exe/rbdock.cxx#4 $)

>  <Rbt.Library>
libRbt.so (2013.1, Build901 2013/11/27)

>  <Rbt.Parameter_File>
/export/apps/rDock/src/rDock_2013.1_src/data/scripts/dock_solv.prm

>  <Rbt.Receptor>
prm/pocket_docking_4.prm

>  <SCORE>
-28.4151

>  <SCORE.INTER>
-28.1282

>  <SCORE.INTER.CONST>
1

>  <SCORE.INTER.POLAR>
0

>  <SCORE.INTER.ROT>
7

>  <SCORE.INTER.SOLV>
18.7857

>  <SCORE.INTER.VDW>
-33.2807

>  <SCORE.INTER.norm>
-0.907362

>  <SCORE.INTRA>
-0.286872

>  <SCORE.INTRA.DIHEDRAL>
-2.66638

>  <SCORE.INTRA.DIHEDRAL.0>
4.64198

>  <SCORE.INTRA.POLAR>
0

>  <SCORE.INTRA.POLAR.0>
0

>  <SCORE.INTRA.REPUL>
0

>  <SCORE.INTRA.REPUL.0>
0

>  <SCORE.INTRA.SOLV>
0.811495

>  <SCORE.INTRA.SOLV.lig_0>
-49.3611

>  <SCORE.INTRA.VDW>
0.640568

>  <SCORE.INTRA.VDW.0>
-1.91858

>  <SCORE.INTRA.norm>
-0.00925395

>  <SCORE.RESTR>
0

>  <SCORE.RESTR.CAVITY>
0

>  <SCORE.RESTR.norm>
0

>  <SCORE.SYSTEM>
0

>  <SCORE.SYSTEM.CONST>
0

>  <SCORE.SYSTEM.DIHEDRAL>
0

>  <SCORE.SYSTEM.SOLV>
0

>  <SCORE.SYSTEM.norm>
0

>  <SCORE.heavy>
31

>  <SCORE.norm>
-0.916616

>  <RMSD>
4.935

$$$$
ligand
 OpenBabel11021811473D
libRbt.so/2013.1/901 2013/11/27
 31 33  0  0  0  0  0  0  0  0999 V2000
   26.0459   43.9140   16.5403 P   0  0  1  0  0  0  0  0  0  0  0  0
   25.6082   43.7859   15.1032 O   0  0  0  0  0  0  0  0  0  0  0  0
   27.4054   44.5604   16.5745 O   0  5  0  0  0  0  0  0  0  0  0  0
   25.0031   44.7471   17.2335 O   0  0  0  0  0  0  0  0  0  0  0  0
   26.9893   41.4809   16.7856 C   0  0  0  0  0  0  0  0  0  0  0  0
   26.1515   42.4990   17.2919 O   0  0  0  0  0  0  0  0  0  0  0  0
   26.7465   40.1941   17.5702 C   0  0  1  0  0  0  0  0  0  0  0  0
   27.1611   39.0816   16.8026 O   0  0  0  0  0  0  0  0  0  0  0  0
   27.5348   40.2206   18.8688 C   0  0  1  0  0  0  0  0  0  0  0  0
   27.2672   41.4305   19.5258 O   0  0  0  0  0  0  0  0  0  0  0  0
   27.1769   39.0694   19.7937 C   0  0  1  0  0  0  0  0  0  0  0  0
   27.0497   37.9069   19.0201 O   0  0  0  0  0  0  0  0  0  0  0  0
   28.2581   38.8579   20.8405 C   0  0  0  0  0  0  0  0  0  0  0  0
   27.4826   39.9348   23.3222 N   0  0  0  0  0  0  0  0  0  0  0  0
   27.1709   40.5035   24.5380 C   0  0  0  0  0  0  0  0  0  0  0  0
   27.2252   41.7215   24.6802 O   0  0  0  0  0  0  0  0  0  0  0  0
   26.7990   39.7144   25.6025 N   0  0  0  0  0  0  0  0  0  0  0  0
   26.7236   38.3428   25.4577 C   0  0  0  0  0  0  0  0  0  0  0  0
   27.0370   37.7599   24.2349 C   0  0  1  0  0  0  0  0  0  0  0  0
   26.3718   37.6420   26.4089 O   0  0  0  0  0  0  0  0  0  0  0  0
   27.2758   35.8128   22.8670 C   0  0  2  0  0  0  0  0  0  0  0  0
   26.9656   36.3896   24.0838 N   0  0  0  0  0  0  0  0  0  0  0  0
   27.2033   34.4276   22.7156 C   0  0  0  0  0  0  0  0  0  0  0  0
   27.5182   33.8368   21.4975 C   0  0  1  0  0  0  0  0  0  0  0  0
   27.4327   32.3484   21.3732 C   0  0  0  0  0  0  0  0  0  0  0  0
   27.9059   34.6387   20.4135 C   0  0  1  0  0  0  0  0  0  0  0  0
   28.2460   34.0398   19.0764 C   0  0  0  0  0  0  0  0  0  0  0  0
   27.9789   36.0206   20.5681 C   0  0  0  0  0  0  0  0  0  0  0  0
   27.6670   36.6149   21.7923 C   0  0  1  0  0  0  0  0  0  0  0  0
   27.4221   38.5648   23.1646 C   0  0  1  0  0  0  0  0  0  0  0  0
   27.7412   37.9908   21.9489 N   0  0  0  0  0  0  0  0  0  0  0  0
  1  2  1  6  0  0  0
  1  3  1  0  0  0  0
  1  4  2  0  0  0  0
  1  6  1  0  0  0  0
  5  6  1  0  0  0  0
  7  5  1  6  0  0  0
  7  8  1  0  0  0  0
  7  9  1  0  0  0  0
  9 10  1  1  0  0  0
  9 11  1  0  0  0  0
 11 12  1  6  0  0  0
 11 13  1  0  0  0  0
 13 31  1  0  0  0  0
 14 15  1  0  0  0  0
 15 16  2  0  0  0  0
 15 17  1  0  0  0  0
 17 18  1  0  0  0  0
 18 20  2  0  0  0  0
 19 18  1  6  0  0  0
 19 22  1  0  0  0  0
 19 30  1  0  0  0  0
 21 23  1  1  0  0  0
 21 29  1  0  0  0  0
 21 22  1  0  0  0  0
 23 24  1  0  0  0  0
 24 25  1  6  0  0  0
 24 26  1  0  0  0  0
 26 27  1  6  0  0  0
 26 28  1  0  0  0  0
 29 28  1  6  0  0  0
 29 31  1  0  0  0  0
 30 14  1  6  0  0  0
 30 31  1  0  0  0  0
M  CHG  1   3  -1
M  END
>  <CHROM.1>
-171.98541468,57.33972355,158.10338155,50.72322078,41.75473826,164.85087428
79.07860679,27.04407854,39.20339629,20.52711954,2.38109723,1.42421087,-1.54402531

>  <Name>
ligand

>  <RI>
0

>  <Rbt.Current_Directory>
/home/itssahil/PROJECTS/Mol_Feturizer/New_Systems/rnas/3F2T

>  <Rbt.Executable>
rbdock ($Id: //depot/dev/client3/rdock/2013.1/src/exe/rbdock.cxx#4 $)

>  <Rbt.Library>
libRbt.so (2013.1, Build901 2013/11/27)

>  <Rbt.Parameter_File>
/export/apps/rDock/src/rDock_2013.1_src/data/scripts/dock_solv.prm

>  <Rbt.Receptor>
prm/pocket_docking_4.prm

>  <SCORE>
-24.2101

>  <SCORE.INTER>
-25.949

>  <SCORE.INTER.CONST>
1

>  <SCORE.INTER.POLAR>
0

>  <SCORE.INTER.ROT>
7

>  <SCORE.INTER.SOLV>
19.6192

>  <SCORE.INTER.VDW>
-32.1057

>  <SCORE.INTER.norm>
-0.837063

>  <SCORE.INTRA>
1.73884

>  <SCORE.INTRA.DIHEDRAL>
0.793489

>  <SCORE.INTRA.DIHEDRAL.0>
4.64198

>  <SCORE.INTRA.POLAR>
0

>  <SCORE.INTRA.POLAR.0>
0

>  <SCORE.INTRA.REPUL>
0

>  <SCORE.INTRA.REPUL.0>
0

>  <SCORE.INTRA.SOLV>
-0.0826846

>  <SCORE.INTRA.SOLV.lig_0>
-49.3611

>  <SCORE.INTRA.VDW>
1.38343

>  <SCORE.INTRA.VDW.0>
-1.91858

>  <SCORE.INTRA.norm>
0.0560915

>  <SCORE.RESTR>
0

>  <SCORE.RESTR.CAVITY>
0

>  <SCORE.RESTR.norm>
0

>  <SCORE.SYSTEM>
0

>  <SCORE.SYSTEM.CONST>
0

>  <SCORE.SYSTEM.DIHEDRAL>
0

>  <SCORE.SYSTEM.SOLV>
0

>  <SCORE.SYSTEM.norm>
0

>  <SCORE.heavy>
31

>  <SCORE.norm>
-0.780972

>  <RMSD>
4.937

$$$$
ligand
 OpenBabel11021811473D
libRbt.so/2013.1/901 2013/11/27
 31 33  0  0  0  0  0  0  0  0999 V2000
   25.5450   43.6749   16.2933 P   0  0  1  0  0  0  0  0  0  0  0  0
   25.9437   44.7417   17.2813 O   0  0  0  0  0  0  0  0  0  0  0  0
   24.2419   44.0734   15.6530 O   0  5  0  0  0  0  0  0  0  0  0  0
   26.6635   43.5780   15.2925 O   0  0  0  0  0  0  0  0  0  0  0  0
   26.4455   41.5360   17.5117 C   0  0  0  0  0  0  0  0  0  0  0  0
   25.3423   42.2347   16.9736 O   0  0  0  0  0  0  0  0  0  0  0  0
   26.8535   42.1824   18.8331 C   0  0  1  0  0  0  0  0  0  0  0  0
   25.7325   42.2641   19.6907 O   0  0  0  0  0  0  0  0  0  0  0  0
   27.9324   41.3513   19.5069 C   0  0  1  0  0  0  0  0  0  0  0  0
   28.5669   42.1466   20.4724 O   0  0  0  0  0  0  0  0  0  0  0  0
   27.3770   40.1083   20.1817 C   0  0  1  0  0  0  0  0  0  0  0  0
   26.7991   39.2944   19.1971 O   0  0  0  0  0  0  0  0  0  0  0  0
   28.4792   39.3350   20.8865 C   0  0  0  0  0  0  0  0  0  0  0  0
   27.5378   40.0423   23.4426 N   0  0  0  0  0  0  0  0  0  0  0  0
   27.1448   40.4285   24.7055 C   0  0  0  0  0  0  0  0  0  0  0  0
   27.1927   41.6112   25.0307 O   0  0  0  0  0  0  0  0  0  0  0  0
   26.6982   39.4953   25.6131 N   0  0  0  0  0  0  0  0  0  0  0  0
   26.6290   38.1614   25.2612 C   0  0  0  0  0  0  0  0  0  0  0  0
   27.0242   37.7622   23.9893 C   0  0  1  0  0  0  0  0  0  0  0  0
   26.2106   37.3321   26.0715 O   0  0  0  0  0  0  0  0  0  0  0  0
   27.3510   36.0364   22.3663 C   0  0  2  0  0  0  0  0  0  0  0  0
   26.9594   36.4305   23.6315 N   0  0  0  0  0  0  0  0  0  0  0  0
   27.2851   34.6900   22.0060 C   0  0  0  0  0  0  0  0  0  0  0  0
   27.6814   34.2821   20.7377 C   0  0  1  0  0  0  0  0  0  0  0  0
   27.6003   32.8299   20.3878 C   0  0  0  0  0  0  0  0  0  0  0  0
   28.1451   35.2308   19.8138 C   0  0  1  0  0  0  0  0  0  0  0  0
   28.5747   34.8323   18.4285 C   0  0  0  0  0  0  0  0  0  0  0  0
   28.2112   36.5734   20.1768 C   0  0  0  0  0  0  0  0  0  0  0  0
   27.8175   36.9837   21.4518 C   0  0  1  0  0  0  0  0  0  0  0  0
   27.4844   38.7117   23.0792 C   0  0  1  0  0  0  0  0  0  0  0  0
   27.8848   38.3201   21.8161 N   0  0  0  0  0  0  0  0  0  0  0  0
  1  2  1  1  0  0  0
  1  3  1  0  0  0  0
  1  4  2  0  0  0  0
  1  6  1  0  0  0  0
  5  6  1  0  0  0  0
  7  5  1  6  0  0  0
  7  8  1  0  0  0  0
  7  9  1  0  0  0  0
  9 10  1  1  0  0  0
  9 11  1  0  0  0  0
 11 12  1  6  0  0  0
 11 13  1  0  0  0  0
 13 31  1  0  0  0  0
 14 15  1  0  0  0  0
 15 16  2  0  0  0  0
 15 17  1  0  0  0  0
 17 18  1  0  0  0  0
 18 20  2  0  0  0  0
 19 18  1  6  0  0  0
 19 22  1  0  0  0  0
 19 30  1  0  0  0  0
 21 23  1  1  0  0  0
 21 29  1  0  0  0  0
 21 22  1  0  0  0  0
 23 24  1  0  0  0  0
 24 25  1  6  0  0  0
 24 26  1  0  0  0  0
 26 27  1  6  0  0  0
 26 28  1  0  0  0  0
 29 28  1  6  0  0  0
 29 31  1  0  0  0  0
 30 14  1  6  0  0  0
 30 31  1  0  0  0  0
M  CHG  1   3  -1
M  END
>  <CHROM.1>
74.79970474,-67.48908052,53.56048166,162.17572173,62.30529385,166.06225889
101.27923721,26.97168396,39.57695498,20.54147457,-2.57864352,-1.37906216
1.40794022

>  <Name>
ligand

>  <RI>
0

>  <Rbt.Current_Directory>
/home/itssahil/PROJECTS/Mol_Feturizer/New_Systems/rnas/3F2T

>  <Rbt.Executable>
rbdock ($Id: //depot/dev/client3/rdock/2013.1/src/exe/rbdock.cxx#4 $)

>  <Rbt.Library>
libRbt.so (2013.1, Build901 2013/11/27)

>  <Rbt.Parameter_File>
/export/apps/rDock/src/rDock_2013.1_src/data/scripts/dock_solv.prm

>  <Rbt.Receptor>
prm/pocket_docking_3.prm

>  <SCORE>
-27.133

>  <SCORE.INTER>
-27.6663

>  <SCORE.INTER.CONST>
1

>  <SCORE.INTER.POLAR>
0

>  <SCORE.INTER.ROT>
7

>  <SCORE.INTER.SOLV>
18.9744

>  <SCORE.INTER.VDW>
-33.0356

>  <SCORE.INTER.norm>
-0.892461

>  <SCORE.INTRA>
0.532554

>  <SCORE.INTRA.DIHEDRAL>
-0.248728

>  <SCORE.INTRA.DIHEDRAL.0>
4.64198

>  <SCORE.INTRA.POLAR>
0

>  <SCORE.INTRA.POLAR.0>
0

>  <SCORE.INTRA.REPUL>
0

>  <SCORE.INTRA.REPUL.0>
0

>  <SCORE.INTRA.SOLV>
0.72478

>  <SCORE.INTRA.SOLV.lig_0>
-49.3611

>  <SCORE.INTRA.VDW>
0.294528

>  <SCORE.INTRA.VDW.0>
-1.91858

>  <SCORE.INTRA.norm>
0.0171792

>  <SCORE.RESTR>
0.000715767

>  <SCORE.RESTR.CAVITY>
0.000715767

>  <SCORE.RESTR.norm>
2.30893e-05

>  <SCORE.SYSTEM>
0

>  <SCORE.SYSTEM.CONST>
0

>  <SCORE.SYSTEM.DIHEDRAL>
0

>  <SCORE.SYSTEM.SOLV>
0

>  <SCORE.SYSTEM.norm>
0

>  <SCORE.heavy>
31

>  <SCORE.norm>
-0.875259

>  <RMSD>
4.941

$$$$
ligand
 OpenBabel11021811473D
libRbt.so/2013.1/901 2013/11/27
 31 33  0  0  0  0  0  0  0  0999 V2000
   28.5755   42.2726   16.6487 P   0  0  1  0  0  0  0  0  0  0  0  0
   29.6436   41.7880   15.7013 O   0  0  0  0  0  0  0  0  0  0  0  0
   29.2162   42.5988   17.9716 O   0  5  0  0  0  0  0  0  0  0  0  0
   27.9495   43.4805   16.0074 O   0  0  0  0  0  0  0  0  0  0  0  0
   26.3551   41.4658   17.7842 C   0  0  0  0  0  0  0  0  0  0  0  0
   27.4276   41.1808   16.9105 O   0  0  0  0  0  0  0  0  0  0  0  0
   26.8096   41.2482   19.2252 C   0  0  1  0  0  0  0  0  0  0  0  0
   25.9277   41.9110   20.1092 O   0  0  0  0  0  0  0  0  0  0  0  0
   26.8133   39.7640   19.5505 C   0  0  1  0  0  0  0  0  0  0  0  0
   25.9604   39.1100   18.6493 O   0  0  0  0  0  0  0  0  0  0  0  0
   28.1985   39.1472   19.4521 C   0  0  1  0  0  0  0  0  0  0  0  0
   28.9821   39.9567   18.6175 O   0  0  0  0  0  0  0  0  0  0  0  0
   28.8521   39.0596   20.8213 C   0  0  0  0  0  0  0  0  0  0  0  0
   27.8009   39.7938   23.3265 N   0  0  0  0  0  0  0  0  0  0  0  0
   27.3563   40.1871   24.5701 C   0  0  0  0  0  0  0  0  0  0  0  0
   27.4793   41.3551   24.9271 O   0  0  0  0  0  0  0  0  0  0  0  0
   26.7739   39.2773   25.4227 N   0  0  0  0  0  0  0  0  0  0  0  0
   26.6191   37.9610   25.0338 C   0  0  0  0  0  0  0  0  0  0  0  0
   27.0654   37.5547   23.7812 C   0  0  1  0  0  0  0  0  0  0  0  0
   26.0797   37.1541   25.7938 O   0  0  0  0  0  0  0  0  0  0  0  0
   27.3582   35.8392   22.1408 C   0  0  2  0  0  0  0  0  0  0  0  0
   26.9155   36.2402   23.3869 N   0  0  0  0  0  0  0  0  0  0  0  0
   27.2062   34.5103   21.7435 C   0  0  0  0  0  0  0  0  0  0  0  0
   27.6526   34.0953   20.4944 C   0  0  1  0  0  0  0  0  0  0  0  0
   27.4761   32.6620   20.1038 C   0  0  0  0  0  0  0  0  0  0  0  0
   28.2545   35.0194   19.6270 C   0  0  1  0  0  0  0  0  0  0  0  0
   28.7428   34.6131   18.2636 C   0  0  0  0  0  0  0  0  0  0  0  0
   28.4062   36.3444   20.0269 C   0  0  0  0  0  0  0  0  0  0  0  0
   27.9621   36.7615   21.2830 C   0  0  1  0  0  0  0  0  0  0  0  0
   27.6628   38.4797   22.9274 C   0  0  1  0  0  0  0  0  0  0  0  0
   28.1144   38.0803   21.6841 N   0  0  0  0  0  0  0  0  0  0  0  0
  1  2  1  6  0  0  0
  1  3  1  0  0  0  0
  1  4  2  0  0  0  0
  1  6  1  0  0  0  0
  5  6  1  0  0  0  0
  7  5  1  6  0  0  0
  7  8  1  0  0  0  0
  7  9  1  0  0  0  0
  9 10  1  6  0  0  0
  9 11  1  0  0  0  0
 11 12  1  6  0  0  0
 11 13  1  0  0  0  0
 13 31  1  0  0  0  0
 14 15  1  0  0  0  0
 15 16  2  0  0  0  0
 15 17  1  0  0  0  0
 17 18  1  0  0  0  0
 18 20  2  0  0  0  0
 19 18  1  6  0  0  0
 19 22  1  0  0  0  0
 19 30  1  0  0  0  0
 21 23  1  1  0  0  0
 21 29  1  0  0  0  0
 21 22  1  0  0  0  0
 23 24  1  0  0  0  0
 24 25  1  6  0  0  0
 24 26  1  0  0  0  0
 26 27  1  6  0  0  0
 26 28  1  0  0  0  0
 29 28  1  6  0  0  0
 29 31  1  0  0  0  0
 30 14  1  6  0  0  0
 30 31  1  0  0  0  0
M  CHG  1   3  -1
M  END
>  <CHROM.1>
-80.90274923,179.37923674,161.72761749,-21.50962312,-22.31701682,66.92519620
57.99876994,27.64578853,38.95867549,20.44028318,-0.91624877,-1.38038092,2.93998201

>  <Name>
ligand

>  <RI>
0

>  <Rbt.Current_Directory>
/home/itssahil/PROJECTS/Mol_Feturizer/New_Systems/rnas/3F2T

>  <Rbt.Executable>
rbdock ($Id: //depot/dev/client3/rdock/2013.1/src/exe/rbdock.cxx#4 $)

>  <Rbt.Library>
libRbt.so (2013.1, Build901 2013/11/27)

>  <Rbt.Parameter_File>
/export/apps/rDock/src/rDock_2013.1_src/data/scripts/dock_solv.prm

>  <Rbt.Receptor>
prm/blind_docking_60.prm

>  <SCORE>
-19.1144

>  <SCORE.INTER>
-27.3191

>  <SCORE.INTER.CONST>
1

>  <SCORE.INTER.POLAR>
0

>  <SCORE.INTER.ROT>
7

>  <SCORE.INTER.SOLV>
19.3561

>  <SCORE.INTER.VDW>
-32.9315

>  <SCORE.INTER.norm>
-0.881263

>  <SCORE.INTRA>
8.20474

>  <SCORE.INTRA.DIHEDRAL>
7.38651

>  <SCORE.INTRA.DIHEDRAL.0>
4.64198

>  <SCORE.INTRA.POLAR>
0

>  <SCORE.INTRA.POLAR.0>
0

>  <SCORE.INTRA.REPUL>
0

>  <SCORE.INTRA.REPUL.0>
0

>  <SCORE.INTRA.SOLV>
3.94146

>  <SCORE.INTRA.SOLV.lig_0>
-49.3611

>  <SCORE.INTRA.VDW>
2.54075

>  <SCORE.INTRA.VDW.0>
-1.91858

>  <SCORE.INTRA.norm>
0.264669

>  <SCORE.RESTR>
0

>  <SCORE.RESTR.CAVITY>
0

>  <SCORE.RESTR.norm>
0

>  <SCORE.SYSTEM>
0

>  <SCORE.SYSTEM.CONST>
0

>  <SCORE.SYSTEM.DIHEDRAL>
0

>  <SCORE.SYSTEM.SOLV>
0

>  <SCORE.SYSTEM.norm>
0

>  <SCORE.heavy>
31

>  <SCORE.norm>
-0.616594

>  <RMSD>
4.947

$$$$
ligand
 OpenBabel11021811473D
libRbt.so/2013.1/901 2013/11/27
 31 33  0  0  0  0  0  0  0  0999 V2000
   24.5244   43.0483   18.1553 P   0  0  1  0  0  0  0  0  0  0  0  0
   23.2534   42.7567   18.9121 O   0  0  0  0  0  0  0  0  0  0  0  0
   24.4286   42.4187   16.7910 O   0  5  0  0  0  0  0  0  0  0  0  0
   24.6463   44.5456   18.0828 O   0  0  0  0  0  0  0  0  0  0  0  0
   27.1216   42.8066   18.4133 C   0  0  0  0  0  0  0  0  0  0  0  0
   25.8331   42.4640   18.8793 O   0  0  0  0  0  0  0  0  0  0  0  0
   28.1604   41.9509   19.1337 C   0  0  1  0  0  0  0  0  0  0  0  0
   27.9834   42.0617   20.5320 O   0  0  0  0  0  0  0  0  0  0  0  0
   28.0050   40.4945   18.7293 C   0  0  1  0  0  0  0  0  0  0  0  0
   29.2729   39.9835   18.4151 O   0  0  0  0  0  0  0  0  0  0  0  0
   27.3911   39.6445   19.8290 C   0  0  1  0  0  0  0  0  0  0  0  0
   26.8138   38.5114   19.2385 O   0  0  0  0  0  0  0  0  0  0  0  0
   28.4478   39.2044   20.8286 C   0  0  0  0  0  0  0  0  0  0  0  0
   27.5288   40.0059   23.3649 N   0  0  0  0  0  0  0  0  0  0  0  0
   27.1467   40.4387   24.6161 C   0  0  0  0  0  0  0  0  0  0  0  0
   27.1964   41.6328   24.8964 O   0  0  0  0  0  0  0  0  0  0  0  0
   26.7093   39.5397   25.5618 N   0  0  0  0  0  0  0  0  0  0  0  0
   26.6383   38.1936   25.2606 C   0  0  0  0  0  0  0  0  0  0  0  0
   27.0224   37.7475   24.0009 C   0  0  1  0  0  0  0  0  0  0  0  0
   26.2280   37.3948   26.1050 O   0  0  0  0  0  0  0  0  0  0  0  0
   27.3363   35.9625   22.4405 C   0  0  2  0  0  0  0  0  0  0  0  0
   26.9558   36.4032   23.6937 N   0  0  0  0  0  0  0  0  0  0  0  0
   27.2686   34.6035   22.1313 C   0  0  0  0  0  0  0  0  0  0  0  0
   27.6538   34.1489   20.8756 C   0  0  1  0  0  0  0  0  0  0  0  0
   27.5711   32.6845   20.5809 C   0  0  0  0  0  0  0  0  0  0  0  0
   28.1082   35.0627   19.9128 C   0  0  1  0  0  0  0  0  0  0  0  0
   28.5257   34.6130   18.5395 C   0  0  0  0  0  0  0  0  0  0  0  0
   28.1763   36.4179   20.2249 C   0  0  0  0  0  0  0  0  0  0  0  0
   27.7936   36.8753   21.4872 C   0  0  1  0  0  0  0  0  0  0  0  0
   27.4734   38.6627   23.0519 C   0  0  1  0  0  0  0  0  0  0  0  0
   27.8628   38.2244   21.8007 N   0  0  0  0  0  0  0  0  0  0  0  0
  1  2  1  1  0  0  0
  1  3  1  0  0  0  0
  1  4  2  0  0  0  0
  1  6  1  0  0  0  0
  5  6  1  0  0  0  0
  7  5  1  6  0  0  0
  7  8  1  0  0  0  0
  7  9  1  0  0  0  0
  9 10  1  1  0  0  0
  9 11  1  0  0  0  0
 11 12  1  6  0  0  0
 11 13  1  0  0  0  0
 13 31  1  0  0  0  0
 14 15  1  0  0  0  0
 15 16  2  0  0  0  0
 15 17  1  0  0  0  0
 17 18  1  0  0  0  0
 18 20  2  0  0  0  0
 19 18  1  6  0  0  0
 19 22  1  0  0  0  0
 19 30  1  0  0  0  0
 21 23  1  1  0  0  0
 21 29  1  0  0  0  0
 21 22  1  0  0  0  0
 23 24  1  0  0  0  0
 24 25  1  6  0  0  0
 24 26  1  0  0  0  0
 26 27  1  6  0  0  0
 26 28  1  0  0  0  0
 29 28  1  6  0  0  0
 29 31  1  0  0  0  0
 30 14  1  6  0  0  0
 30 31  1  0  0  0  0
M  CHG  1   3  -1
M  END
>  <CHROM.1>
-171.23506224,-170.92225545,-53.18089897,132.77626114,157.22856413,-172.61026651
84.53946798,26.91724534,39.29187614,20.91207635,-2.62920673,-1.28609760,1.56039704

>  <Name>
ligand

>  <RI>
0

>  <Rbt.Current_Directory>
/home/itssahil/PROJECTS/Mol_Feturizer/New_Systems/rnas/3F2T

>  <Rbt.Executable>
rbdock ($Id: //depot/dev/client3/rdock/2013.1/src/exe/rbdock.cxx#4 $)

>  <Rbt.Library>
libRbt.so (2013.1, Build901 2013/11/27)

>  <Rbt.Parameter_File>
/export/apps/rDock/src/rDock_2013.1_src/data/scripts/dock_solv.prm

>  <Rbt.Receptor>
prm/pocket_docking_4.prm

>  <SCORE>
-22.5167

>  <SCORE.INTER>
-26.6596

>  <SCORE.INTER.CONST>
1

>  <SCORE.INTER.POLAR>
0

>  <SCORE.INTER.ROT>
7

>  <SCORE.INTER.SOLV>
19.7504

>  <SCORE.INTER.VDW>
-32.6232

>  <SCORE.INTER.norm>
-0.859987

>  <SCORE.INTRA>
4.14287

>  <SCORE.INTRA.DIHEDRAL>
4.05918

>  <SCORE.INTRA.DIHEDRAL.0>
4.64198

>  <SCORE.INTRA.POLAR>
0

>  <SCORE.INTRA.POLAR.0>
0

>  <SCORE.INTRA.REPUL>
0

>  <SCORE.INTRA.REPUL.0>
0

>  <SCORE.INTRA.SOLV>
0.436728

>  <SCORE.INTRA.SOLV.lig_0>
-49.3611

>  <SCORE.INTRA.VDW>
1.89492

>  <SCORE.INTRA.VDW.0>
-1.91858

>  <SCORE.INTRA.norm>
0.133641

>  <SCORE.RESTR>
0

>  <SCORE.RESTR.CAVITY>
0

>  <SCORE.RESTR.norm>
0

>  <SCORE.SYSTEM>
0

>  <SCORE.SYSTEM.CONST>
0

>  <SCORE.SYSTEM.DIHEDRAL>
0

>  <SCORE.SYSTEM.SOLV>
0

>  <SCORE.SYSTEM.norm>
0

>  <SCORE.heavy>
31

>  <SCORE.norm>
-0.726346

>  <RMSD>
4.947

$$$$
ligand
 OpenBabel11021811473D
libRbt.so/2013.1/901 2013/11/27
 31 33  0  0  0  0  0  0  0  0999 V2000
   25.5521   43.4488   16.3789 P   0  0  1  0  0  0  0  0  0  0  0  0
   26.5072   42.9170   15.3405 O   0  0  0  0  0  0  0  0  0  0  0  0
   26.1586   44.6743   17.0094 O   0  5  0  0  0  0  0  0  0  0  0  0
   24.2664   43.7562   15.6615 O   0  0  0  0  0  0  0  0  0  0  0  0
   26.1663   42.2010   18.6006 C   0  0  0  0  0  0  0  0  0  0  0  0
   25.2445   42.3916   17.5476 O   0  0  0  0  0  0  0  0  0  0  0  0
   27.4208   41.5246   18.0539 C   0  0  1  0  0  0  0  0  0  0  0  0
   28.1571   42.4445   17.2726 O   0  0  0  0  0  0  0  0  0  0  0  0
   28.2922   41.0409   19.2008 C   0  0  1  0  0  0  0  0  0  0  0  0
   28.5375   42.1229   20.0588 O   0  0  0  0  0  0  0  0  0  0  0  0
   27.6434   39.9203   19.9958 C   0  0  1  0  0  0  0  0  0  0  0  0
   27.1779   38.9533   19.0935 O   0  0  0  0  0  0  0  0  0  0  0  0
   28.6424   39.2793   20.9448 C   0  0  0  0  0  0  0  0  0  0  0  0
   27.5812   39.9648   23.4596 N   0  0  0  0  0  0  0  0  0  0  0  0
   27.1303   40.3374   24.7072 C   0  0  0  0  0  0  0  0  0  0  0  0
   27.2054   41.5093   25.0647 O   0  0  0  0  0  0  0  0  0  0  0  0
   26.5950   39.4023   25.5634 N   0  0  0  0  0  0  0  0  0  0  0  0
   26.4942   38.0809   25.1742 C   0  0  0  0  0  0  0  0  0  0  0  0
   26.9473   37.6955   23.9174 C   0  0  1  0  0  0  0  0  0  0  0  0
   25.9967   37.2506   25.9376 O   0  0  0  0  0  0  0  0  0  0  0  0
   27.3007   35.9958   22.2725 C   0  0  2  0  0  0  0  0  0  0  0  0
   26.8514   36.3761   23.5227 N   0  0  0  0  0  0  0  0  0  0  0  0
   27.2033   34.6620   21.8748 C   0  0  0  0  0  0  0  0  0  0  0  0
   27.6569   34.2678   20.6215 C   0  0  1  0  0  0  0  0  0  0  0  0
   27.5396   32.8286   20.2306 C   0  0  0  0  0  0  0  0  0  0  0  0
   28.2109   35.2180   19.7503 C   0  0  1  0  0  0  0  0  0  0  0  0
   28.7050   34.8345   18.3824 C   0  0  0  0  0  0  0  0  0  0  0  0
   28.3083   36.5480   20.1507 C   0  0  0  0  0  0  0  0  0  0  0  0
   27.8569   36.9443   21.4109 C   0  0  1  0  0  0  0  0  0  0  0  0
   27.4970   38.6463   23.0599 C   0  0  1  0  0  0  0  0  0  0  0  0
   27.9551   38.2681   21.8124 N   0  0  0  0  0  0  0  0  0  0  0  0
  1  2  1  6  0  0  0
  1  3  1  0  0  0  0
  1  4  2  0  0  0  0
  1  6  1  0  0  0  0
  5  6  1  0  0  0  0
  7  5  1  1  0  0  0
  7  8  1  0  0  0  0
  7  9  1  0  0  0  0
  9 10  1  1  0  0  0
  9 11  1  0  0  0  0
 11 12  1  6  0  0  0
 11 13  1  0  0  0  0
 13 31  1  0  0  0  0
 14 15  1  0  0  0  0
 15 16  2  0  0  0  0
 15 17  1  0  0  0  0
 17 18  1  0  0  0  0
 18 20  2  0  0  0  0
 19 18  1  6  0  0  0
 19 22  1  0  0  0  0
 19 30  1  0  0  0  0
 21 23  1  1  0  0  0
 21 29  1  0  0  0  0
 21 22  1  0  0  0  0
 23 24  1  0  0  0  0
 24 25  1  6  0  0  0
 24 26  1  0  0  0  0
 26 27  1  6  0  0  0
 26 28  1  0  0  0  0
 29 28  1  6  0  0  0
 29 31  1  0  0  0  0
 30 14  1  6  0  0  0
 30 31  1  0  0  0  0
M  CHG  1   3  -1
M  END
>  <CHROM.1>
-68.90312936,79.45517310,72.24393737,-53.87899940,48.80060406,174.57809360
89.99905959,27.08929202,39.48092421,20.42211804,-2.33567037,-1.38441790,1.63195350

>  <Name>
ligand

>  <RI>
0

>  <Rbt.Current_Directory>
/home/itssahil/PROJECTS/Mol_Feturizer/New_Systems/rnas/3F2T

>  <Rbt.Executable>
rbdock ($Id: //depot/dev/client3/rdock/2013.1/src/exe/rbdock.cxx#4 $)

>  <Rbt.Library>
libRbt.so (2013.1, Build901 2013/11/27)

>  <Rbt.Parameter_File>
/export/apps/rDock/src/rDock_2013.1_src/data/scripts/dock_solv.prm

>  <Rbt.Receptor>
prm/pocket_docking_3.prm

>  <SCORE>
-27.0366

>  <SCORE.INTER>
-28.141

>  <SCORE.INTER.CONST>
1

>  <SCORE.INTER.POLAR>
0

>  <SCORE.INTER.ROT>
7

>  <SCORE.INTER.SOLV>
17.8615

>  <SCORE.INTER.VDW>
-32.9812

>  <SCORE.INTER.norm>
-0.907775

>  <SCORE.INTRA>
1.10438

>  <SCORE.INTRA.DIHEDRAL>
-1.16984

>  <SCORE.INTRA.DIHEDRAL.0>
4.64198

>  <SCORE.INTRA.POLAR>
0

>  <SCORE.INTRA.POLAR.0>
0

>  <SCORE.INTRA.REPUL>
0

>  <SCORE.INTRA.REPUL.0>
0

>  <SCORE.INTRA.SOLV>
1.79785

>  <SCORE.INTRA.SOLV.lig_0>
-49.3611

>  <SCORE.INTRA.VDW>
0.790376

>  <SCORE.INTRA.VDW.0>
-1.91858

>  <SCORE.INTRA.norm>
0.0356252

>  <SCORE.RESTR>
0

>  <SCORE.RESTR.CAVITY>
0

>  <SCORE.RESTR.norm>
0

>  <SCORE.SYSTEM>
0

>  <SCORE.SYSTEM.CONST>
0

>  <SCORE.SYSTEM.DIHEDRAL>
0

>  <SCORE.SYSTEM.SOLV>
0

>  <SCORE.SYSTEM.norm>
0

>  <SCORE.heavy>
31

>  <SCORE.norm>
-0.87215

>  <RMSD>
4.951

$$$$
ligand
 OpenBabel11021811473D
libRbt.so/2013.1/901 2013/11/27
 31 33  0  0  0  0  0  0  0  0999 V2000
   27.6555   42.5894   16.6803 P   0  0  1  0  0  0  0  0  0  0  0  0
   27.0760   43.4703   15.6025 O   0  0  0  0  0  0  0  0  0  0  0  0
   28.6640   43.3865   17.4642 O   0  5  0  0  0  0  0  0  0  0  0  0
   26.5010   42.1388   17.5325 O   0  0  0  0  0  0  0  0  0  0  0  0
   29.3643   40.6109   16.8697 C   0  0  0  0  0  0  0  0  0  0  0  0
   28.3970   41.2902   16.0967 O   0  0  0  0  0  0  0  0  0  0  0  0
   28.7062   40.0714   18.1370 C   0  0  1  0  0  0  0  0  0  0  0  0
   27.4480   39.5102   17.8197 O   0  0  0  0  0  0  0  0  0  0  0  0
   29.5828   38.9991   18.7618 C   0  0  1  0  0  0  0  0  0  0  0  0
   30.9164   39.4306   18.7107 O   0  0  0  0  0  0  0  0  0  0  0  0
   29.2142   38.7116   20.2076 C   0  0  1  0  0  0  0  0  0  0  0  0
   29.5200   39.8457   20.9733 O   0  0  0  0  0  0  0  0  0  0  0  0
   27.7317   38.4041   20.3389 C   0  0  0  0  0  0  0  0  0  0  0  0
   27.3107   39.7372   22.7813 N   0  0  0  0  0  0  0  0  0  0  0  0
   27.1686   40.4345   23.9614 C   0  0  0  0  0  0  0  0  0  0  0  0
   27.1607   41.6620   23.9543 O   0  0  0  0  0  0  0  0  0  0  0  0
   27.0370   39.7643   25.1562 N   0  0  0  0  0  0  0  0  0  0  0  0
   27.0345   38.3833   25.1816 C   0  0  0  0  0  0  0  0  0  0  0  0
   27.1780   37.6712   23.9960 C   0  0  1  0  0  0  0  0  0  0  0  0
   26.8973   37.7877   26.2522 O   0  0  0  0  0  0  0  0  0  0  0  0
   27.3193   35.5854   22.8346 C   0  0  2  0  0  0  0  0  0  0  0  0
   27.1783   36.2909   24.0144 N   0  0  0  0  0  0  0  0  0  0  0  0
   27.3195   34.1902   22.8546 C   0  0  0  0  0  0  0  0  0  0  0  0
   27.4658   33.4709   21.6743 C   0  0  1  0  0  0  0  0  0  0  0  0
   27.4650   31.9761   21.7346 C   0  0  0  0  0  0  0  0  0  0  0  0
   27.6089   34.1522   20.4561 C   0  0  1  0  0  0  0  0  0  0  0  0
   27.7606   33.4116   19.1558 C   0  0  0  0  0  0  0  0  0  0  0  0
   27.6099   35.5445   20.4396 C   0  0  0  0  0  0  0  0  0  0  0  0
   27.4673   36.2681   21.6249 C   0  0  1  0  0  0  0  0  0  0  0  0
   27.3206   38.3570   22.7915 C   0  0  1  0  0  0  0  0  0  0  0  0
   27.4704   37.6548   21.6108 N   0  0  0  0  0  0  0  0  0  0  0  0
  1  2  1  6  0  0  0
  1  3  1  0  0  0  0
  1  4  2  0  0  0  0
  1  6  1  0  0  0  0
  5  6  1  0  0  0  0
  7  5  1  6  0  0  0
  7  8  1  0  0  0  0
  7  9  1  0  0  0  0
  9 10  1  1  0  0  0
  9 11  1  0  0  0  0
 11 12  1  1  0  0  0
 11 13  1  0  0  0  0
 13 31  1  0  0  0  0
 14 15  1  0  0  0  0
 15 16  2  0  0  0  0
 15 17  1  0  0  0  0
 17 18  1  0  0  0  0
 18 20  2  0  0  0  0
 19 18  1  6  0  0  0
 19 22  1  0  0  0  0
 19 30  1  0  0  0  0
 21 23  1  1  0  0  0
 21 29  1  0  0  0  0
 21 22  1  0  0  0  0
 23 24  1  0  0  0  0
 24 25  1  6  0  0  0
 24 26  1  0  0  0  0
 26 27  1  6  0  0  0
 26 28  1  0  0  0  0
 29 28  1  6  0  0  0
 29 31  1  0  0  0  0
 30 14  1  6  0  0  0
 30 31  1  0  0  0  0
M  CHG  1   3  -1
M  END
>  <CHROM.1>
62.05172558,158.33534771,42.76196321,42.50739723,-67.08926607,159.45215078
-92.13500209,27.83876538,38.73002297,20.54488072,0.97014597,1.40912863,-0.17829916

>  <Name>
ligand

>  <RI>
0

>  <Rbt.Current_Directory>
/home/itssahil/PROJECTS/Mol_Feturizer/New_Systems/rnas/3F2T

>  <Rbt.Executable>
rbdock ($Id: //depot/dev/client3/rdock/2013.1/src/exe/rbdock.cxx#4 $)

>  <Rbt.Library>
libRbt.so (2013.1, Build901 2013/11/27)

>  <Rbt.Parameter_File>
/export/apps/rDock/src/rDock_2013.1_src/data/scripts/dock_solv.prm

>  <Rbt.Receptor>
prm/blind_docking_60.prm

>  <SCORE>
-23.0032

>  <SCORE.INTER>
-27.0725

>  <SCORE.INTER.CONST>
1

>  <SCORE.INTER.POLAR>
0

>  <SCORE.INTER.ROT>
7

>  <SCORE.INTER.SOLV>
17.3864

>  <SCORE.INTER.VDW>
-32.1105

>  <SCORE.INTER.norm>
-0.873308

>  <SCORE.INTRA>
4.06937

>  <SCORE.INTRA.DIHEDRAL>
0.813898

>  <SCORE.INTRA.DIHEDRAL.0>
4.64198

>  <SCORE.INTRA.POLAR>
0

>  <SCORE.INTRA.POLAR.0>
0

>  <SCORE.INTRA.REPUL>
0

>  <SCORE.INTRA.REPUL.0>
0

>  <SCORE.INTRA.SOLV>
3.25911

>  <SCORE.INTRA.SOLV.lig_0>
-49.3611

>  <SCORE.INTRA.VDW>
2.03287

>  <SCORE.INTRA.VDW.0>
-1.91858

>  <SCORE.INTRA.norm>
0.13127

>  <SCORE.RESTR>
0

>  <SCORE.RESTR.CAVITY>
0

>  <SCORE.RESTR.norm>
0

>  <SCORE.SYSTEM>
0

>  <SCORE.SYSTEM.CONST>
0

>  <SCORE.SYSTEM.DIHEDRAL>
0

>  <SCORE.SYSTEM.SOLV>
0

>  <SCORE.SYSTEM.norm>
0

>  <SCORE.heavy>
31

>  <SCORE.norm>
-0.742038

>  <RMSD>
4.953

$$$$
ligand
 OpenBabel11021811473D
libRbt.so/2013.1/901 2013/11/27
 31 33  0  0  0  0  0  0  0  0999 V2000
   24.1256   34.3949   18.2140 P   0  0  1  0  0  0  0  0  0  0  0  0
   23.4293   33.5243   19.2291 O   0  0  0  0  0  0  0  0  0  0  0  0
   25.3682   33.6870   17.7429 O   0  5  0  0  0  0  0  0  0  0  0  0
   23.1432   34.6216   17.0979 O   0  0  0  0  0  0  0  0  0  0  0  0
   24.9333   36.8734   17.9398 C   0  0  0  0  0  0  0  0  0  0  0  0
   24.5632   35.8215   18.8067 O   0  0  0  0  0  0  0  0  0  0  0  0
   26.2689   36.5360   17.2822 C   0  0  1  0  0  0  0  0  0  0  0  0
   26.5423   37.4653   16.2525 O   0  0  0  0  0  0  0  0  0  0  0  0
   27.3849   36.5957   18.3116 C   0  0  1  0  0  0  0  0  0  0  0  0
   28.4518   35.8076   17.8557 O   0  0  0  0  0  0  0  0  0  0  0  0
   27.8855   38.0104   18.5499 C   0  0  1  0  0  0  0  0  0  0  0  0
   26.7977   38.8007   18.9475 O   0  0  0  0  0  0  0  0  0  0  0  0
   28.9459   38.0348   19.6383 C   0  0  0  0  0  0  0  0  0  0  0  0
   28.1209   35.6066   20.7973 N   0  0  0  0  0  0  0  0  0  0  0  0
   27.6824   34.3991   21.2956 C   0  0  0  0  0  0  0  0  0  0  0  0
   27.9057   33.3610   20.6797 O   0  0  0  0  0  0  0  0  0  0  0  0
   26.9898   34.3447   22.4836 N   0  0  0  0  0  0  0  0  0  0  0  0
   26.7377   35.5019   23.1945 C   0  0  0  0  0  0  0  0  0  0  0  0
   27.1756   36.7250   22.6991 C   0  0  1  0  0  0  0  0  0  0  0  0
   26.1333   35.4457   24.2674 O   0  0  0  0  0  0  0  0  0  0  0  0
   27.3633   39.0999   22.9101 C   0  0  2  0  0  0  0  0  0  0  0  0
   26.9254   37.8856   23.4035 N   0  0  0  0  0  0  0  0  0  0  0  0
   27.1097   40.2722   23.6230 C   0  0  0  0  0  0  0  0  0  0  0  0
   27.5411   41.4993   23.1332 C   0  0  1  0  0  0  0  0  0  0  0  0
   27.2481   42.7357   23.9228 C   0  0  0  0  0  0  0  0  0  0  0  0
   28.2398   41.5579   21.9179 C   0  0  1  0  0  0  0  0  0  0  0  0
   28.7318   42.8642   21.3577 C   0  0  0  0  0  0  0  0  0  0  0  0
   28.4900   40.3865   21.2080 C   0  0  0  0  0  0  0  0  0  0  0  0
   28.0535   39.1538   21.6968 C   0  0  1  0  0  0  0  0  0  0  0  0
   27.8678   36.7729   21.4907 C   0  0  1  0  0  0  0  0  0  0  0  0
   28.2996   37.9863   20.9901 N   0  0  0  0  0  0  0  0  0  0  0  0
  1  2  1  1  0  0  0
  1  3  1  0  0  0  0
  1  4  2  0  0  0  0
  1  6  1  0  0  0  0
  5  6  1  0  0  0  0
  7  5  1  1  0  0  0
  7  8  1  0  0  0  0
  7  9  1  0  0  0  0
  9 10  1  6  0  0  0
  9 11  1  0  0  0  0
 11 12  1  1  0  0  0
 11 13  1  0  0  0  0
 13 31  1  0  0  0  0
 14 15  1  0  0  0  0
 15 16  2  0  0  0  0
 15 17  1  0  0  0  0
 17 18  1  0  0  0  0
 18 20  2  0  0  0  0
 19 18  1  1  0  0  0
 19 22  1  0  0  0  0
 19 30  1  0  0  0  0
 21 23  1  6  0  0  0
 21 29  1  0  0  0  0
 21 22  1  0  0  0  0
 23 24  1  0  0  0  0
 24 25  1  1  0  0  0
 24 26  1  0  0  0  0
 26 27  1  1  0  0  0
 26 28  1  0  0  0  0
 29 28  1  1  0  0  0
 29 31  1  0  0  0  0
 30 14  1  1  0  0  0
 30 31  1  0  0  0  0
M  CHG  1   3  -1
M  END
>  <CHROM.1>
-69.61218093,-164.94117683,170.30575385,157.16828991,57.08265000,-79.90306358
-95.63214490,26.73974922,37.06906495,20.34286616,-3.08905835,1.20611608,2.12997708

>  <Name>
ligand

>  <RI>
0

>  <Rbt.Current_Directory>
/home/itssahil/PROJECTS/Mol_Feturizer/New_Systems/rnas/3F2T

>  <Rbt.Executable>
rbdock ($Id: //depot/dev/client3/rdock/2013.1/src/exe/rbdock.cxx#4 $)

>  <Rbt.Library>
libRbt.so (2013.1, Build901 2013/11/27)

>  <Rbt.Parameter_File>
/export/apps/rDock/src/rDock_2013.1_src/data/scripts/dock_solv.prm

>  <Rbt.Receptor>
prm/blind_docking_80.prm

>  <SCORE>
-25.345

>  <SCORE.INTER>
-26.6193

>  <SCORE.INTER.CONST>
1

>  <SCORE.INTER.POLAR>
0

>  <SCORE.INTER.ROT>
7

>  <SCORE.INTER.SOLV>
12.5821

>  <SCORE.INTER.VDW>
-30.2069

>  <SCORE.INTER.norm>
-0.858688

>  <SCORE.INTRA>
1.27429

>  <SCORE.INTRA.DIHEDRAL>
0.585861

>  <SCORE.INTRA.DIHEDRAL.0>
4.64198

>  <SCORE.INTRA.POLAR>
0

>  <SCORE.INTRA.POLAR.0>
0

>  <SCORE.INTRA.REPUL>
0

>  <SCORE.INTRA.REPUL.0>
0

>  <SCORE.INTRA.SOLV>
3.44009

>  <SCORE.INTRA.SOLV.lig_0>
-49.3611

>  <SCORE.INTRA.VDW>
-0.738687

>  <SCORE.INTRA.VDW.0>
-1.91858

>  <SCORE.INTRA.norm>
0.0411061

>  <SCORE.RESTR>
0

>  <SCORE.RESTR.CAVITY>
0

>  <SCORE.RESTR.norm>
0

>  <SCORE.SYSTEM>
0

>  <SCORE.SYSTEM.CONST>
0

>  <SCORE.SYSTEM.DIHEDRAL>
0

>  <SCORE.SYSTEM.SOLV>
0

>  <SCORE.SYSTEM.norm>
0

>  <SCORE.heavy>
31

>  <SCORE.norm>
-0.817582

>  <RMSD>
4.957

$$$$
ligand
 OpenBabel11021811473D
libRbt.so/2013.1/901 2013/11/27
 31 33  0  0  0  0  0  0  0  0999 V2000
   25.4013   44.0483   15.9426 P   0  0  1  0  0  0  0  0  0  0  0  0
   26.6238   44.5441   15.2127 O   0  0  0  0  0  0  0  0  0  0  0  0
   25.1036   44.9895   17.0795 O   0  5  0  0  0  0  0  0  0  0  0  0
   24.2870   44.0061   14.9333 O   0  0  0  0  0  0  0  0  0  0  0  0
   26.6023   42.3231   17.5085 C   0  0  0  0  0  0  0  0  0  0  0  0
   25.5911   42.5763   16.5554 O   0  0  0  0  0  0  0  0  0  0  0  0
   26.5192   40.8655   17.9539 C   0  0  1  0  0  0  0  0  0  0  0  0
   26.8731   40.0171   16.8798 O   0  0  0  0  0  0  0  0  0  0  0  0
   27.4719   40.6208   19.1121 C   0  0  1  0  0  0  0  0  0  0  0  0
   27.2533   41.6092   20.0829 O   0  0  0  0  0  0  0  0  0  0  0  0
   27.2792   39.2549   19.7492 C   0  0  1  0  0  0  0  0  0  0  0  0
   27.3668   38.2834   18.7419 O   0  0  0  0  0  0  0  0  0  0  0  0
   28.3484   38.9884   20.7957 C   0  0  0  0  0  0  0  0  0  0  0  0
   27.5474   39.9743   23.3069 N   0  0  0  0  0  0  0  0  0  0  0  0
   27.2233   40.4980   24.5396 C   0  0  0  0  0  0  0  0  0  0  0  0
   27.2833   41.7093   24.7293 O   0  0  0  0  0  0  0  0  0  0  0  0
   26.8329   39.6711   25.5681 N   0  0  0  0  0  0  0  0  0  0  0  0
   26.7510   38.3066   25.3697 C   0  0  0  0  0  0  0  0  0  0  0  0
   27.0767   37.7691   24.1295 C   0  0  1  0  0  0  0  0  0  0  0  0
   26.3826   37.5722   26.2887 O   0  0  0  0  0  0  0  0  0  0  0  0
   27.3213   35.8743   22.6908 C   0  0  2  0  0  0  0  0  0  0  0  0
   26.9989   36.4060   23.9249 N   0  0  0  0  0  0  0  0  0  0  0  0
   27.2424   34.4965   22.4854 C   0  0  0  0  0  0  0  0  0  0  0  0
   27.5694   33.9508   21.2496 C   0  0  1  0  0  0  0  0  0  0  0  0
   27.4764   32.4689   21.0670 C   0  0  0  0  0  0  0  0  0  0  0  0
   27.9761   34.7912   20.2023 C   0  0  1  0  0  0  0  0  0  0  0  0
   28.3298   34.2418   18.8475 C   0  0  0  0  0  0  0  0  0  0  0  0
   28.0555   36.1656   20.4109 C   0  0  0  0  0  0  0  0  0  0  0  0
   27.7313   36.7144   21.6529 C   0  0  1  0  0  0  0  0  0  0  0  0
   27.4806   38.6119   23.0960 C   0  0  1  0  0  0  0  0  0  0  0  0
   27.8120   38.0828   21.8633 N   0  0  0  0  0  0  0  0  0  0  0  0
  1  2  1  6  0  0  0
  1  3  1  0  0  0  0
  1  4  2  0  0  0  0
  1  6  1  0  0  0  0
  5  6  1  0  0  0  0
  7  5  1  6  0  0  0
  7  8  1  0  0  0  0
  7  9  1  0  0  0  0
  9 10  1  1  0  0  0
  9 11  1  0  0  0  0
 11 12  1  6  0  0  0
 11 13  1  0  0  0  0
 13 31  1  0  0  0  0
 14 15  1  0  0  0  0
 15 16  2  0  0  0  0
 15 17  1  0  0  0  0
 17 18  1  0  0  0  0
 18 20  2  0  0  0  0
 19 18  1  6  0  0  0
 19 22  1  0  0  0  0
 19 30  1  0  0  0  0
 21 23  1  1  0  0  0
 21 29  1  0  0  0  0
 21 22  1  0  0  0  0
 23 24  1  0  0  0  0
 24 25  1  6  0  0  0
 24 26  1  0  0  0  0
 26 27  1  6  0  0  0
 26 28  1  0  0  0  0
 29 28  1  6  0  0  0
 29 31  1  0  0  0  0
 30 14  1  6  0  0  0
 30 31  1  0  0  0  0
M  CHG  1   3  -1
M  END
>  <CHROM.1>
177.85009422,60.35682375,67.71570852,50.18958096,53.80828568,150.59853610
79.47315313,26.92100999,39.38023870,20.38241634,2.61227372,1.37903929,-1.79225913

>  <Name>
ligand

>  <RI>
0

>  <Rbt.Current_Directory>
/home/itssahil/PROJECTS/Mol_Feturizer/New_Systems/rnas/3F2T

>  <Rbt.Executable>
rbdock ($Id: //depot/dev/client3/rdock/2013.1/src/exe/rbdock.cxx#4 $)

>  <Rbt.Library>
libRbt.so (2013.1, Build901 2013/11/27)

>  <Rbt.Parameter_File>
/export/apps/rDock/src/rDock_2013.1_src/data/scripts/dock_solv.prm

>  <Rbt.Receptor>
prm/pocket_docking_3.prm

>  <SCORE>
-28.0842

>  <SCORE.INTER>
-28.451

>  <SCORE.INTER.CONST>
1

>  <SCORE.INTER.POLAR>
0

>  <SCORE.INTER.ROT>
7

>  <SCORE.INTER.SOLV>
18.9539

>  <SCORE.INTER.VDW>
-33.5519

>  <SCORE.INTER.norm>
-0.917773

>  <SCORE.INTRA>
0.366796

>  <SCORE.INTRA.DIHEDRAL>
-0.0523105

>  <SCORE.INTRA.DIHEDRAL.0>
4.64198

>  <SCORE.INTRA.POLAR>
0

>  <SCORE.INTRA.POLAR.0>
0

>  <SCORE.INTRA.REPUL>
0

>  <SCORE.INTRA.REPUL.0>
0

>  <SCORE.INTRA.SOLV>
-0.487385

>  <SCORE.INTRA.SOLV.lig_0>
-49.3611

>  <SCORE.INTRA.VDW>
0.636644

>  <SCORE.INTRA.VDW.0>
-1.91858

>  <SCORE.INTRA.norm>
0.0118321

>  <SCORE.RESTR>
0

>  <SCORE.RESTR.CAVITY>
0

>  <SCORE.RESTR.norm>
0

>  <SCORE.SYSTEM>
0

>  <SCORE.SYSTEM.CONST>
0

>  <SCORE.SYSTEM.DIHEDRAL>
0

>  <SCORE.SYSTEM.SOLV>
0

>  <SCORE.SYSTEM.norm>
0

>  <SCORE.heavy>
31

>  <SCORE.norm>
-0.905941

>  <RMSD>
4.959

$$$$
ligand
 OpenBabel11021811473D
libRbt.so/2013.1/901 2013/11/27
 31 33  0  0  0  0  0  0  0  0999 V2000
   27.8634   42.1486   16.8919 P   0  0  1  0  0  0  0  0  0  0  0  0
   26.6243   41.2903   16.8578 O   0  0  0  0  0  0  0  0  0  0  0  0
   27.7906   43.1456   15.7660 O   0  5  0  0  0  0  0  0  0  0  0  0
   27.8864   42.8149   18.2401 O   0  0  0  0  0  0  0  0  0  0  0  0
   29.6862   40.4793   17.7646 C   0  0  0  0  0  0  0  0  0  0  0  0
   29.2169   41.3027   16.7173 O   0  0  0  0  0  0  0  0  0  0  0  0
   28.8045   39.2369   17.8603 C   0  0  1  0  0  0  0  0  0  0  0  0
   29.5721   38.1408   18.3165 O   0  0  0  0  0  0  0  0  0  0  0  0
   27.6647   39.4822   18.8348 C   0  0  1  0  0  0  0  0  0  0  0  0
   26.9691   38.2779   19.0163 O   0  0  0  0  0  0  0  0  0  0  0  0
   28.1480   39.9794   20.1868 C   0  0  1  0  0  0  0  0  0  0  0  0
   27.0276   40.1999   21.0005 O   0  0  0  0  0  0  0  0  0  0  0  0
   29.0539   38.9549   20.8496 C   0  0  0  0  0  0  0  0  0  0  0  0
   27.9953   39.7136   23.3444 N   0  0  0  0  0  0  0  0  0  0  0  0
   27.5485   40.1145   24.5847 C   0  0  0  0  0  0  0  0  0  0  0  0
   27.7330   41.2678   24.9626 O   0  0  0  0  0  0  0  0  0  0  0  0
   26.8953   39.2286   25.4108 N   0  0  0  0  0  0  0  0  0  0  0  0
   26.6711   37.9297   24.9981 C   0  0  0  0  0  0  0  0  0  0  0  0
   27.1189   37.5159   23.7485 C   0  0  1  0  0  0  0  0  0  0  0  0
   26.0689   37.1453   25.7342 O   0  0  0  0  0  0  0  0  0  0  0  0
   27.3442   35.8102   22.0874 C   0  0  2  0  0  0  0  0  0  0  0  0
   26.8998   36.2186   23.3304 N   0  0  0  0  0  0  0  0  0  0  0  0
   27.1223   34.4987   21.6661 C   0  0  0  0  0  0  0  0  0  0  0  0
   27.5696   34.0761   20.4198 C   0  0  1  0  0  0  0  0  0  0  0  0
   27.3168   32.6617   20.0031 C   0  0  0  0  0  0  0  0  0  0  0  0
   28.2434   34.9752   19.5795 C   0  0  1  0  0  0  0  0  0  0  0  0
   28.7355   34.5606   18.2200 C   0  0  0  0  0  0  0  0  0  0  0  0
   28.4649   36.2829   20.0034 C   0  0  0  0  0  0  0  0  0  0  0  0
   28.0197   36.7074   21.2567 C   0  0  1  0  0  0  0  0  0  0  0  0
   27.7881   38.4161   22.9218 C   0  0  1  0  0  0  0  0  0  0  0  0
   28.2414   38.0087   21.6816 N   0  0  0  0  0  0  0  0  0  0  0  0
  1  2  1  6  0  0  0
  1  3  1  0  0  0  0
  1  4  2  0  0  0  0
  1  6  1  0  0  0  0
  5  6  1  0  0  0  0
  7  5  1  1  0  0  0
  7  8  1  0  0  0  0
  7  9  1  0  0  0  0
  9 10  1  1  0  0  0
  9 11  1  0  0  0  0
 11 12  1  1  0  0  0
 11 13  1  0  0  0  0
 13 31  1  0  0  0  0
 14 15  1  0  0  0  0
 15 16  2  0  0  0  0
 15 17  1  0  0  0  0
 17 18  1  0  0  0  0
 18 20  2  0  0  0  0
 19 18  1  6  0  0  0
 19 22  1  0  0  0  0
 19 30  1  0  0  0  0
 21 23  1  1  0  0  0
 21 29  1  0  0  0  0
 21 22  1  0  0  0  0
 23 24  1  0  0  0  0
 24 25  1  6  0  0  0
 24 26  1  0  0  0  0
 26 27  1  6  0  0  0
 26 28  1  0  0  0  0
 29 28  1  6  0  0  0
 29 31  1  0  0  0  0
 30 14  1  6  0  0  0
 30 31  1  0  0  0  0
M  CHG  1   3  -1
M  END
>  <CHROM.1>
73.47434946,-72.41958908,148.82008040,-173.24501178,178.84252146,-89.47086463
106.41823847,27.81334374,38.67675123,20.47072749,0.75264070,1.40688251,-0.09564780

>  <Name>
ligand

>  <RI>
0

>  <Rbt.Current_Directory>
/home/itssahil/PROJECTS/Mol_Feturizer/New_Systems/rnas/3F2T

>  <Rbt.Executable>
rbdock ($Id: //depot/dev/client3/rdock/2013.1/src/exe/rbdock.cxx#4 $)

>  <Rbt.Library>
libRbt.so (2013.1, Build901 2013/11/27)

>  <Rbt.Parameter_File>
/export/apps/rDock/src/rDock_2013.1_src/data/scripts/dock_solv.prm

>  <Rbt.Receptor>
prm/pocket_docking_7.prm

>  <SCORE>
-20.8621

>  <SCORE.INTER>
-25.6062

>  <SCORE.INTER.CONST>
1

>  <SCORE.INTER.POLAR>
0

>  <SCORE.INTER.ROT>
7

>  <SCORE.INTER.SOLV>
16.2545

>  <SCORE.INTER.VDW>
-30.7556

>  <SCORE.INTER.norm>
-0.826007

>  <SCORE.INTRA>
4.74417

>  <SCORE.INTRA.DIHEDRAL>
3.32956

>  <SCORE.INTRA.DIHEDRAL.0>
4.64198

>  <SCORE.INTRA.POLAR>
0

>  <SCORE.INTRA.POLAR.0>
0

>  <SCORE.INTRA.REPUL>
0

>  <SCORE.INTRA.REPUL.0>
0

>  <SCORE.INTRA.SOLV>
3.27825

>  <SCORE.INTRA.SOLV.lig_0>
-49.3611

>  <SCORE.INTRA.VDW>
1.44027

>  <SCORE.INTRA.VDW.0>
-1.91858

>  <SCORE.INTRA.norm>
0.153038

>  <SCORE.RESTR>
0

>  <SCORE.RESTR.CAVITY>
0

>  <SCORE.RESTR.norm>
0

>  <SCORE.SYSTEM>
0

>  <SCORE.SYSTEM.CONST>
0

>  <SCORE.SYSTEM.DIHEDRAL>
0

>  <SCORE.SYSTEM.SOLV>
0

>  <SCORE.SYSTEM.norm>
0

>  <SCORE.heavy>
31

>  <SCORE.norm>
-0.672969

>  <RMSD>
4.963

$$$$
ligand
 OpenBabel11021811473D
libRbt.so/2013.1/901 2013/11/27
 31 33  0  0  0  0  0  0  0  0999 V2000
   25.6928   43.7449   16.3444 P   0  0  1  0  0  0  0  0  0  0  0  0
   26.2224   43.0158   15.1356 O   0  0  0  0  0  0  0  0  0  0  0  0
   25.1510   45.0788   15.9039 O   0  5  0  0  0  0  0  0  0  0  0  0
   24.6269   42.8677   16.9413 O   0  0  0  0  0  0  0  0  0  0  0  0
   27.7783   43.0194   17.7568 C   0  0  0  0  0  0  0  0  0  0  0  0
   26.8181   44.0112   17.4585 O   0  0  0  0  0  0  0  0  0  0  0  0
   27.1031   41.8775   18.5120 C   0  0  1  0  0  0  0  0  0  0  0  0
   26.5130   40.9801   17.5926 O   0  0  0  0  0  0  0  0  0  0  0  0
   28.1283   41.1281   19.3462 C   0  0  1  0  0  0  0  0  0  0  0  0
   28.6986   42.0261   20.2604 O   0  0  0  0  0  0  0  0  0  0  0  0
   27.5211   39.9653   20.1131 C   0  0  1  0  0  0  0  0  0  0  0  0
   26.9879   39.0580   19.1866 O   0  0  0  0  0  0  0  0  0  0  0  0
   28.5731   39.2614   20.9541 C   0  0  0  0  0  0  0  0  0  0  0  0
   27.5788   40.0110   23.4778 N   0  0  0  0  0  0  0  0  0  0  0  0
   27.1606   40.4161   24.7268 C   0  0  0  0  0  0  0  0  0  0  0  0
   27.2336   41.5989   25.0471 O   0  0  0  0  0  0  0  0  0  0  0  0
   26.6608   39.5018   25.6257 N   0  0  0  0  0  0  0  0  0  0  0  0
   26.5629   38.1684   25.2788 C   0  0  0  0  0  0  0  0  0  0  0  0
   26.9831   37.7502   24.0211 C   0  0  1  0  0  0  0  0  0  0  0  0
   26.0970   37.3564   26.0808 O   0  0  0  0  0  0  0  0  0  0  0  0
   27.3064   36.0058   22.4172 C   0  0  2  0  0  0  0  0  0  0  0  0
   26.8899   36.4187   23.6684 N   0  0  0  0  0  0  0  0  0  0  0  0
   27.2118   34.6598   22.0621 C   0  0  0  0  0  0  0  0  0  0  0  0
   27.6327   34.2330   20.8081 C   0  0  1  0  0  0  0  0  0  0  0  0
   27.5195   32.7816   20.4635 C   0  0  0  0  0  0  0  0  0  0  0  0
   28.1506   35.1622   19.8933 C   0  0  1  0  0  0  0  0  0  0  0  0
   28.6085   34.7430   18.5232 C   0  0  0  0  0  0  0  0  0  0  0  0
   28.2453   36.5044   20.2512 C   0  0  0  0  0  0  0  0  0  0  0  0
   27.8268   36.9337   21.5119 C   0  0  1  0  0  0  0  0  0  0  0  0
   27.4971   38.6804   23.1200 C   0  0  1  0  0  0  0  0  0  0  0  0
   27.9225   38.2697   21.8711 N   0  0  0  0  0  0  0  0  0  0  0  0
  1  2  1  6  0  0  0
  1  3  1  0  0  0  0
  1  4  2  0  0  0  0
  1  6  1  0  0  0  0
  5  6  1  0  0  0  0
  7  5  1  6  0  0  0
  7  8  1  0  0  0  0
  7  9  1  0  0  0  0
  9 10  1  1  0  0  0
  9 11  1  0  0  0  0
 11 12  1  6  0  0  0
 11 13  1  0  0  0  0
 13 31  1  0  0  0  0
 14 15  1  0  0  0  0
 15 16  2  0  0  0  0
 15 17  1  0  0  0  0
 17 18  1  0  0  0  0
 18 20  2  0  0  0  0
 19 18  1  6  0  0  0
 19 22  1  0  0  0  0
 19 30  1  0  0  0  0
 21 23  1  1  0  0  0
 21 29  1  0  0  0  0
 21 22  1  0  0  0  0
 23 24  1  0  0  0  0
 24 25  1  6  0  0  0
 24 26  1  0  0  0  0
 26 27  1  6  0  0  0
 26 28  1  0  0  0  0
 29 28  1  6  0  0  0
 29 31  1  0  0  0  0
 30 14  1  6  0  0  0
 30 31  1  0  0  0  0
M  CHG  1   3  -1
M  END
>  <CHROM.1>
-71.56508903,-40.15118484,84.41747621,60.08305652,61.29236611,170.66794378
95.67436010,27.09501850,39.54401356,20.48897795,-2.45047192,-1.41085656,1.52816078

>  <Name>
ligand

>  <RI>
0

>  <Rbt.Current_Directory>
/home/itssahil/PROJECTS/Mol_Feturizer/New_Systems/rnas/3F2T

>  <Rbt.Executable>
rbdock ($Id: //depot/dev/client3/rdock/2013.1/src/exe/rbdock.cxx#4 $)

>  <Rbt.Library>
libRbt.so (2013.1, Build901 2013/11/27)

>  <Rbt.Parameter_File>
/export/apps/rDock/src/rDock_2013.1_src/data/scripts/dock_solv.prm

>  <Rbt.Receptor>
prm/pocket_docking_3.prm

>  <SCORE>
-27.0158

>  <SCORE.INTER>
-28.1864

>  <SCORE.INTER.CONST>
1

>  <SCORE.INTER.POLAR>
0

>  <SCORE.INTER.ROT>
7

>  <SCORE.INTER.SOLV>
18.0634

>  <SCORE.INTER.VDW>
-33.0787

>  <SCORE.INTER.norm>
-0.909237

>  <SCORE.INTRA>
1.16214

>  <SCORE.INTRA.DIHEDRAL>
0.0787124

>  <SCORE.INTRA.DIHEDRAL.0>
4.64198

>  <SCORE.INTRA.POLAR>
0

>  <SCORE.INTRA.POLAR.0>
0

>  <SCORE.INTRA.REPUL>
0

>  <SCORE.INTRA.REPUL.0>
0

>  <SCORE.INTRA.SOLV>
1.95991

>  <SCORE.INTRA.SOLV.lig_0>
-49.3611

>  <SCORE.INTRA.VDW>
0.142827

>  <SCORE.INTRA.VDW.0>
-1.91858

>  <SCORE.INTRA.norm>
0.0374883

>  <SCORE.RESTR>
0.00840277

>  <SCORE.RESTR.CAVITY>
0.00840277

>  <SCORE.RESTR.norm>
0.000271057

>  <SCORE.SYSTEM>
0

>  <SCORE.SYSTEM.CONST>
0

>  <SCORE.SYSTEM.DIHEDRAL>
0

>  <SCORE.SYSTEM.SOLV>
0

>  <SCORE.SYSTEM.norm>
0

>  <SCORE.heavy>
31

>  <SCORE.norm>
-0.871478

>  <RMSD>
4.965

$$$$
ligand
 OpenBabel11021811473D
libRbt.so/2013.1/901 2013/11/27
 31 33  0  0  0  0  0  0  0  0999 V2000
   25.5159   44.1289   15.9491 P   0  0  1  0  0  0  0  0  0  0  0  0
   24.4996   44.1959   14.8373 O   0  0  0  0  0  0  0  0  0  0  0  0
   26.8685   44.4784   15.3877 O   0  5  0  0  0  0  0  0  0  0  0  0
   25.0669   45.1069   16.9998 O   0  0  0  0  0  0  0  0  0  0  0  0
   26.5659   42.4170   17.6334 C   0  0  0  0  0  0  0  0  0  0  0  0
   25.6185   42.6726   16.6176 O   0  0  0  0  0  0  0  0  0  0  0  0
   26.4595   40.9562   18.0635 C   0  0  1  0  0  0  0  0  0  0  0  0
   26.8177   40.1140   16.9859 O   0  0  0  0  0  0  0  0  0  0  0  0
   27.3935   40.6890   19.2318 C   0  0  1  0  0  0  0  0  0  0  0  0
   27.1713   41.6686   20.2107 O   0  0  0  0  0  0  0  0  0  0  0  0
   27.1785   39.3180   19.8506 C   0  0  1  0  0  0  0  0  0  0  0  0
   27.2029   38.3633   18.8240 O   0  0  0  0  0  0  0  0  0  0  0  0
   28.2721   38.9990   20.8565 C   0  0  0  0  0  0  0  0  0  0  0  0
   27.4540   39.9578   23.3727 N   0  0  0  0  0  0  0  0  0  0  0  0
   27.1210   40.4690   24.6082 C   0  0  0  0  0  0  0  0  0  0  0  0
   27.1646   41.6798   24.8059 O   0  0  0  0  0  0  0  0  0  0  0  0
   26.7399   39.6303   25.6306 N   0  0  0  0  0  0  0  0  0  0  0  0
   26.6764   38.2662   25.4233 C   0  0  0  0  0  0  0  0  0  0  0  0
   27.0113   37.7411   24.1801 C   0  0  1  0  0  0  0  0  0  0  0  0
   26.3163   37.5209   26.3367 O   0  0  0  0  0  0  0  0  0  0  0  0
   27.2833   35.8593   22.7295 C   0  0  2  0  0  0  0  0  0  0  0  0
   26.9519   36.3786   23.9664 N   0  0  0  0  0  0  0  0  0  0  0  0
   27.2230   34.4819   22.5149 C   0  0  0  0  0  0  0  0  0  0  0  0
   27.5592   33.9486   21.2762 C   0  0  1  0  0  0  0  0  0  0  0  0
   27.4862   32.4669   21.0838 C   0  0  0  0  0  0  0  0  0  0  0  0
   27.9564   34.8012   20.2351 C   0  0  1  0  0  0  0  0  0  0  0  0
   28.3196   34.2654   18.8773 C   0  0  0  0  0  0  0  0  0  0  0  0
   28.0172   36.1751   20.4527 C   0  0  0  0  0  0  0  0  0  0  0  0
   27.6838   36.7115   21.6977 C   0  0  1  0  0  0  0  0  0  0  0  0
   27.4056   38.5960   23.1528 C   0  0  1  0  0  0  0  0  0  0  0  0
   27.7460   38.0794   21.9172 N   0  0  0  0  0  0  0  0  0  0  0  0
  1  2  1  6  0  0  0
  1  3  1  0  0  0  0
  1  4  2  0  0  0  0
  1  6  1  0  0  0  0
  5  6  1  0  0  0  0
  7  5  1  6  0  0  0
  7  8  1  0  0  0  0
  7  9  1  0  0  0  0
  9 10  1  1  0  0  0
  9 11  1  0  0  0  0
 11 12  1  6  0  0  0
 11 13  1  0  0  0  0
 13 31  1  0  0  0  0
 14 15  1  0  0  0  0
 15 16  2  0  0  0  0
 15 17  1  0  0  0  0
 17 18  1  0  0  0  0
 18 20  2  0  0  0  0
 19 18  1  6  0  0  0
 19 22  1  0  0  0  0
 19 30  1  0  0  0  0
 21 23  1  1  0  0  0
 21 29  1  0  0  0  0
 21 22  1  0  0  0  0
 23 24  1  0  0  0  0
 24 25  1  6  0  0  0
 24 26  1  0  0  0  0
 26 27  1  6  0  0  0
 26 28  1  0  0  0  0
 29 28  1  6  0  0  0
 29 31  1  0  0  0  0
 30 14  1  6  0  0  0
 30 31  1  0  0  0  0
M  CHG  1   3  -1
M  END
>  <CHROM.1>
-178.95314864,177.05245515,64.57641203,50.33962949,50.85334010,151.17353761
82.51821658,26.89460080,39.40766175,20.43664994,-2.53227797,-1.38504497,1.43579467

>  <Name>
ligand

>  <RI>
0

>  <Rbt.Current_Directory>
/home/itssahil/PROJECTS/Mol_Feturizer/New_Systems/rnas/3F2T

>  <Rbt.Executable>
rbdock ($Id: //depot/dev/client3/rdock/2013.1/src/exe/rbdock.cxx#4 $)

>  <Rbt.Library>
libRbt.so (2013.1, Build901 2013/11/27)

>  <Rbt.Parameter_File>
/export/apps/rDock/src/rDock_2013.1_src/data/scripts/dock_solv.prm

>  <Rbt.Receptor>
prm/pocket_docking_3.prm

>  <SCORE>
-27.5056

>  <SCORE.INTER>
-28.1178

>  <SCORE.INTER.CONST>
1

>  <SCORE.INTER.POLAR>
0

>  <SCORE.INTER.ROT>
7

>  <SCORE.INTER.SOLV>
20.0252

>  <SCORE.INTER.VDW>
-33.687

>  <SCORE.INTER.norm>
-0.907027

>  <SCORE.INTRA>
0.612193

>  <SCORE.INTRA.DIHEDRAL>
-0.0988071

>  <SCORE.INTRA.DIHEDRAL.0>
4.64198

>  <SCORE.INTRA.POLAR>
0

>  <SCORE.INTRA.POLAR.0>
0

>  <SCORE.INTRA.REPUL>
0

>  <SCORE.INTRA.REPUL.0>
0

>  <SCORE.INTRA.SOLV>
0.0337038

>  <SCORE.INTRA.SOLV.lig_0>
-49.3611

>  <SCORE.INTRA.VDW>
0.644745

>  <SCORE.INTRA.VDW.0>
-1.91858

>  <SCORE.INTRA.norm>
0.0197482

>  <SCORE.RESTR>
0

>  <SCORE.RESTR.CAVITY>
0

>  <SCORE.RESTR.norm>
0

>  <SCORE.SYSTEM>
0

>  <SCORE.SYSTEM.CONST>
0

>  <SCORE.SYSTEM.DIHEDRAL>
0

>  <SCORE.SYSTEM.SOLV>
0

>  <SCORE.SYSTEM.norm>
0

>  <SCORE.heavy>
31

>  <SCORE.norm>
-0.887279

>  <RMSD>
4.971

$$$$
ligand
 OpenBabel11021811473D
libRbt.so/2013.1/901 2013/11/27
 31 33  0  0  0  0  0  0  0  0999 V2000
   31.9608   35.6872   14.9203 P   0  0  1  0  0  0  0  0  0  0  0  0
   31.9269   37.1801   14.7123 O   0  0  0  0  0  0  0  0  0  0  0  0
   31.0261   35.0414   13.9322 O   0  5  0  0  0  0  0  0  0  0  0  0
   33.3878   35.2582   14.7165 O   0  0  0  0  0  0  0  0  0  0  0  0
   31.7318   36.1005   17.4985 C   0  0  0  0  0  0  0  0  0  0  0  0
   31.5016   35.2492   16.3952 O   0  0  0  0  0  0  0  0  0  0  0  0
   30.8212   37.3208   17.3901 C   0  0  1  0  0  0  0  0  0  0  0  0
   29.4777   36.9031   17.2509 O   0  0  0  0  0  0  0  0  0  0  0  0
   30.9464   38.1756   18.6400 C   0  0  1  0  0  0  0  0  0  0  0  0
   32.2649   38.6464   18.7254 O   0  0  0  0  0  0  0  0  0  0  0  0
   29.9996   39.3639   18.6332 C   0  0  1  0  0  0  0  0  0  0  0  0
   30.0557   39.9637   17.3670 O   0  0  0  0  0  0  0  0  0  0  0  0
   28.5729   38.9227   18.9149 C   0  0  0  0  0  0  0  0  0  0  0  0
   28.2550   36.2118   19.6005 N   0  0  0  0  0  0  0  0  0  0  0  0
   28.0430   34.8792   19.8801 C   0  0  0  0  0  0  0  0  0  0  0  0
   28.0581   34.0500   18.9751 O   0  0  0  0  0  0  0  0  0  0  0  0
   27.8107   34.4658   21.1720 N   0  0  0  0  0  0  0  0  0  0  0  0
   27.7994   35.3839   22.2040 C   0  0  0  0  0  0  0  0  0  0  0  0
   28.0115   36.7308   21.9313 C   0  0  1  0  0  0  0  0  0  0  0  0
   27.6096   35.0060   23.3619 O   0  0  0  0  0  0  0  0  0  0  0  0
   28.2126   38.9917   22.6845 C   0  0  2  0  0  0  0  0  0  0  0  0
   27.9997   37.6540   22.9576 N   0  0  0  0  0  0  0  0  0  0  0  0
   28.2003   39.9238   23.7227 C   0  0  0  0  0  0  0  0  0  0  0  0
   28.4082   41.2724   23.4583 C   0  0  1  0  0  0  0  0  0  0  0  0
   28.3844   42.2436   24.5960 C   0  0  0  0  0  0  0  0  0  0  0  0
   28.6366   41.6972   22.1407 C   0  0  1  0  0  0  0  0  0  0  0  0
   28.8749   43.1457   21.8133 C   0  0  0  0  0  0  0  0  0  0  0  0
   28.6466   40.7648   21.1066 C   0  0  0  0  0  0  0  0  0  0  0  0
   28.4338   39.4106   21.3703 C   0  0  1  0  0  0  0  0  0  0  0  0
   28.2364   37.1428   20.6194 C   0  0  1  0  0  0  0  0  0  0  0  0
   28.4411   38.4808   20.3415 N   0  0  0  0  0  0  0  0  0  0  0  0
  1  2  1  6  0  0  0
  1  3  1  0  0  0  0
  1  4  2  0  0  0  0
  1  6  1  0  0  0  0
  5  6  1  0  0  0  0
  7  5  1  1  0  0  0
  7  8  1  0  0  0  0
  7  9  1  0  0  0  0
  9 10  1  6  0  0  0
  9 11  1  0  0  0  0
 11 12  1  6  0  0  0
 11 13  1  0  0  0  0
 13 31  1  0  0  0  0
 14 15  1  0  0  0  0
 15 16  2  0  0  0  0
 15 17  1  0  0  0  0
 17 18  1  0  0  0  0
 18 20  2  0  0  0  0
 19 18  1  1  0  0  0
 19 22  1  0  0  0  0
 19 30  1  0  0  0  0
 21 23  1  6  0  0  0
 21 29  1  0  0  0  0
 21 22  1  0  0  0  0
 23 24  1  0  0  0  0
 24 25  1  1  0  0  0
 24 26  1  0  0  0  0
 26 27  1  1  0  0  0
 26 28  1  0  0  0  0
 29 28  1  1  0  0  0
 29 31  1  0  0  0  0
 30 14  1  1  0  0  0
 30 31  1  0  0  0  0
M  CHG  1   3  -1
M  END
>  <CHROM.1>
69.93015351,-30.61868542,54.11264245,62.98106824,-45.00714627,69.77886653
73.65780700,29.59430837,37.62874869,19.35951680,-0.78261150,1.00712918,0.36331811

>  <Name>
ligand

>  <RI>
0

>  <Rbt.Current_Directory>
/home/itssahil/PROJECTS/Mol_Feturizer/New_Systems/rnas/3F2T

>  <Rbt.Executable>
rbdock ($Id: //depot/dev/client3/rdock/2013.1/src/exe/rbdock.cxx#4 $)

>  <Rbt.Library>
libRbt.so (2013.1, Build901 2013/11/27)

>  <Rbt.Parameter_File>
/export/apps/rDock/src/rDock_2013.1_src/data/scripts/dock_solv.prm

>  <Rbt.Receptor>
prm/blind_docking_60.prm

>  <SCORE>
-21.246

>  <SCORE.INTER>
-21.5177

>  <SCORE.INTER.CONST>
1

>  <SCORE.INTER.POLAR>
0

>  <SCORE.INTER.ROT>
7

>  <SCORE.INTER.SOLV>
12.2267

>  <SCORE.INTER.VDW>
-26.6873

>  <SCORE.INTER.norm>
-0.694118

>  <SCORE.INTRA>
0.271613

>  <SCORE.INTRA.DIHEDRAL>
-0.488494

>  <SCORE.INTRA.DIHEDRAL.0>
4.64198

>  <SCORE.INTRA.POLAR>
0

>  <SCORE.INTRA.POLAR.0>
0

>  <SCORE.INTRA.REPUL>
0

>  <SCORE.INTRA.REPUL.0>
0

>  <SCORE.INTRA.SOLV>
0.952773

>  <SCORE.INTRA.SOLV.lig_0>
-49.3611

>  <SCORE.INTRA.VDW>
0.0394738

>  <SCORE.INTRA.VDW.0>
-1.91858

>  <SCORE.INTRA.norm>
0.00876172

>  <SCORE.RESTR>
0

>  <SCORE.RESTR.CAVITY>
0

>  <SCORE.RESTR.norm>
0

>  <SCORE.SYSTEM>
0

>  <SCORE.SYSTEM.CONST>
0

>  <SCORE.SYSTEM.DIHEDRAL>
0

>  <SCORE.SYSTEM.SOLV>
0

>  <SCORE.SYSTEM.norm>
0

>  <SCORE.heavy>
31

>  <SCORE.norm>
-0.685356

>  <RMSD>
4.972

$$$$
ligand
 OpenBabel11021811473D
libRbt.so/2013.1/901 2013/11/27
 31 33  0  0  0  0  0  0  0  0999 V2000
   25.9097   44.2523   15.9842 P   0  0  1  0  0  0  0  0  0  0  0  0
   27.1921   44.4783   15.2243 O   0  0  0  0  0  0  0  0  0  0  0  0
   25.7744   45.3251   17.0319 O   0  5  0  0  0  0  0  0  0  0  0  0
   24.7975   44.3023   14.9729 O   0  0  0  0  0  0  0  0  0  0  0  0
   26.7757   42.5300   17.7603 C   0  0  0  0  0  0  0  0  0  0  0  0
   25.8626   42.8283   16.7248 O   0  0  0  0  0  0  0  0  0  0  0  0
   26.5744   41.0841   18.2065 C   0  0  1  0  0  0  0  0  0  0  0  0
   26.8232   40.2111   17.1227 O   0  0  0  0  0  0  0  0  0  0  0  0
   27.5310   40.7517   19.3392 C   0  0  1  0  0  0  0  0  0  0  0  0
   27.3357   41.6804   20.3720 O   0  0  0  0  0  0  0  0  0  0  0  0
   27.3203   39.3517   19.8907 C   0  0  1  0  0  0  0  0  0  0  0  0
   27.4297   38.4404   18.8307 O   0  0  0  0  0  0  0  0  0  0  0  0
   28.3640   39.0208   20.9447 C   0  0  0  0  0  0  0  0  0  0  0  0
   27.4756   39.9619   23.4437 N   0  0  0  0  0  0  0  0  0  0  0  0
   27.1089   40.4631   24.6737 C   0  0  0  0  0  0  0  0  0  0  0  0
   27.1676   41.6702   24.8893 O   0  0  0  0  0  0  0  0  0  0  0  0
   26.6767   39.6185   25.6706 N   0  0  0  0  0  0  0  0  0  0  0  0
   26.5956   38.2586   25.4425 C   0  0  0  0  0  0  0  0  0  0  0  0
   26.9642   37.7436   24.2047 C   0  0  1  0  0  0  0  0  0  0  0  0
   26.1900   37.5084   26.3326 O   0  0  0  0  0  0  0  0  0  0  0  0
   27.2526   35.8760   22.7389 C   0  0  2  0  0  0  0  0  0  0  0  0
   26.8874   36.3853   23.9705 N   0  0  0  0  0  0  0  0  0  0  0  0
   27.1746   34.5030   22.5035 C   0  0  0  0  0  0  0  0  0  0  0  0
   27.5443   33.9797   21.2701 C   0  0  1  0  0  0  0  0  0  0  0  0
   27.4510   32.5022   21.0549 C   0  0  0  0  0  0  0  0  0  0  0  0
   27.9934   34.8381   20.2552 C   0  0  1  0  0  0  0  0  0  0  0  0
   28.3942   34.3134   18.9038 C   0  0  0  0  0  0  0  0  0  0  0  0
   28.0717   36.2077   20.4937 C   0  0  0  0  0  0  0  0  0  0  0  0
   27.7046   36.7340   21.7335 C   0  0  1  0  0  0  0  0  0  0  0  0
   27.4100   38.6042   23.2036 C   0  0  1  0  0  0  0  0  0  0  0  0
   27.7841   38.0975   21.9737 N   0  0  0  0  0  0  0  0  0  0  0  0
  1  2  1  6  0  0  0
  1  3  1  0  0  0  0
  1  4  2  0  0  0  0
  1  6  1  0  0  0  0
  5  6  1  0  0  0  0
  7  5  1  6  0  0  0
  7  8  1  0  0  0  0
  7  9  1  0  0  0  0
  9 10  1  1  0  0  0
  9 11  1  0  0  0  0
 11 12  1  6  0  0  0
 11 13  1  0  0  0  0
 13 31  1  0  0  0  0
 14 15  1  0  0  0  0
 15 16  2  0  0  0  0
 15 17  1  0  0  0  0
 17 18  1  0  0  0  0
 18 20  2  0  0  0  0
 19 18  1  6  0  0  0
 19 22  1  0  0  0  0
 19 30  1  0  0  0  0
 21 23  1  1  0  0  0
 21 29  1  0  0  0  0
 21 22  1  0  0  0  0
 23 24  1  0  0  0  0
 24 25  1  6  0  0  0
 24 26  1  0  0  0  0
 26 27  1  6  0  0  0
 26 28  1  0  0  0  0
 29 28  1  6  0  0  0
 29 31  1  0  0  0  0
 30 14  1  6  0  0  0
 30 31  1  0  0  0  0
M  CHG  1   3  -1
M  END
>  <CHROM.1>
-175.73594747,64.12769071,61.14592736,55.73926345,55.76996933,148.44273239
81.41305068,27.00464999,39.45746745,20.48387616,-2.35389960,-1.40900141,1.62135564

>  <Name>
ligand

>  <RI>
0

>  <Rbt.Current_Directory>
/home/itssahil/PROJECTS/Mol_Feturizer/New_Systems/rnas/3F2T

>  <Rbt.Executable>
rbdock ($Id: //depot/dev/client3/rdock/2013.1/src/exe/rbdock.cxx#4 $)

>  <Rbt.Library>
libRbt.so (2013.1, Build901 2013/11/27)

>  <Rbt.Parameter_File>
/export/apps/rDock/src/rDock_2013.1_src/data/scripts/dock_solv.prm

>  <Rbt.Receptor>
prm/pocket_docking_4.prm

>  <SCORE>
-28.0155

>  <SCORE.INTER>
-28.2059

>  <SCORE.INTER.CONST>
1

>  <SCORE.INTER.POLAR>
0

>  <SCORE.INTER.ROT>
7

>  <SCORE.INTER.SOLV>
20.3677

>  <SCORE.INTER.VDW>
-33.8598

>  <SCORE.INTER.norm>
-0.909867

>  <SCORE.INTRA>
0.190399

>  <SCORE.INTRA.DIHEDRAL>
-0.227015

>  <SCORE.INTRA.DIHEDRAL.0>
4.64198

>  <SCORE.INTRA.POLAR>
0

>  <SCORE.INTRA.POLAR.0>
0

>  <SCORE.INTRA.REPUL>
0

>  <SCORE.INTRA.REPUL.0>
0

>  <SCORE.INTRA.SOLV>
-0.425241

>  <SCORE.INTRA.SOLV.lig_0>
-49.3611

>  <SCORE.INTRA.VDW>
0.516527

>  <SCORE.INTRA.VDW.0>
-1.91858

>  <SCORE.INTRA.norm>
0.0061419

>  <SCORE.RESTR>
0

>  <SCORE.RESTR.CAVITY>
0

>  <SCORE.RESTR.norm>
0

>  <SCORE.SYSTEM>
0

>  <SCORE.SYSTEM.CONST>
0

>  <SCORE.SYSTEM.DIHEDRAL>
0

>  <SCORE.SYSTEM.SOLV>
0

>  <SCORE.SYSTEM.norm>
0

>  <SCORE.heavy>
31

>  <SCORE.norm>
-0.903726

>  <RMSD>
4.973

$$$$
ligand
 OpenBabel11021811473D
libRbt.so/2013.1/901 2013/11/27
 31 33  0  0  0  0  0  0  0  0999 V2000
   26.7976   35.2847   14.0552 P   0  0  1  0  0  0  0  0  0  0  0  0
   25.5803   34.4157   13.8647 O   0  0  0  0  0  0  0  0  0  0  0  0
   27.9686   34.6313   13.3706 O   0  5  0  0  0  0  0  0  0  0  0  0
   26.4656   36.6246   13.4579 O   0  0  0  0  0  0  0  0  0  0  0  0
   28.3125   36.2625   15.9577 C   0  0  0  0  0  0  0  0  0  0  0  0
   27.1818   35.4954   15.5999 O   0  0  0  0  0  0  0  0  0  0  0  0
   28.3313   36.4535   17.4721 C   0  0  1  0  0  0  0  0  0  0  0  0
   28.6805   35.2371   18.1023 O   0  0  0  0  0  0  0  0  0  0  0  0
   29.3496   37.5162   17.8493 C   0  0  1  0  0  0  0  0  0  0  0  0
   29.0842   38.6713   17.0992 O   0  0  0  0  0  0  0  0  0  0  0  0
   29.3068   37.8689   19.3267 C   0  0  1  0  0  0  0  0  0  0  0  0
   30.2816   38.8459   19.5741 O   0  0  0  0  0  0  0  0  0  0  0  0
   27.9424   38.4140   19.7152 C   0  0  0  0  0  0  0  0  0  0  0  0
   27.3450   36.0820   21.1728 N   0  0  0  0  0  0  0  0  0  0  0  0
   26.9946   34.9249   21.8341 C   0  0  0  0  0  0  0  0  0  0  0  0
   26.8949   33.8687   21.2166 O   0  0  0  0  0  0  0  0  0  0  0  0
   26.7514   34.9418   23.1885 N   0  0  0  0  0  0  0  0  0  0  0  0
   26.8679   36.1195   23.9008 C   0  0  0  0  0  0  0  0  0  0  0  0
   27.2203   37.2922   23.2419 C   0  0  1  0  0  0  0  0  0  0  0  0
   26.6674   36.1256   25.1171 O   0  0  0  0  0  0  0  0  0  0  0  0
   27.6888   39.6369   23.2906 C   0  0  2  0  0  0  0  0  0  0  0  0
   27.3367   38.4731   23.9473 N   0  0  0  0  0  0  0  0  0  0  0  0
   27.8061   40.8298   24.0047 C   0  0  0  0  0  0  0  0  0  0  0  0
   28.1546   42.0071   23.3532 C   0  0  1  0  0  0  0  0  0  0  0  0
   28.2674   43.2678   24.1505 C   0  0  0  0  0  0  0  0  0  0  0  0
   28.3946   41.9938   21.9708 C   0  0  1  0  0  0  0  0  0  0  0  0
   28.7828   43.2437   21.2297 C   0  0  0  0  0  0  0  0  0  0  0  0
   28.2752   40.8020   21.2607 C   0  0  0  0  0  0  0  0  0  0  0  0
   27.9211   39.6198   21.9133 C   0  0  1  0  0  0  0  0  0  0  0  0
   27.4555   37.2689   21.8687 C   0  0  1  0  0  0  0  0  0  0  0  0
   27.7994   38.4324   21.2074 N   0  0  0  0  0  0  0  0  0  0  0  0
  1  2  1  6  0  0  0
  1  3  1  0  0  0  0
  1  4  2  0  0  0  0
  1  6  1  0  0  0  0
  5  6  1  0  0  0  0
  7  5  1  6  0  0  0
  7  8  1  0  0  0  0
  7  9  1  0  0  0  0
  9 10  1  6  0  0  0
  9 11  1  0  0  0  0
 11 12  1  6  0  0  0
 11 13  1  0  0  0  0
 13 31  1  0  0  0  0
 14 15  1  0  0  0  0
 15 16  2  0  0  0  0
 15 17  1  0  0  0  0
 17 18  1  0  0  0  0
 18 20  2  0  0  0  0
 19 18  1  1  0  0  0
 19 22  1  0  0  0  0
 19 30  1  0  0  0  0
 21 23  1  6  0  0  0
 21 29  1  0  0  0  0
 21 22  1  0  0  0  0
 23 24  1  0  0  0  0
 24 25  1  1  0  0  0
 24 26  1  0  0  0  0
 26 27  1  1  0  0  0
 26 28  1  0  0  0  0
 29 28  1  1  0  0  0
 29 31  1  0  0  0  0
 30 14  1  1  0  0  0
 30 31  1  0  0  0  0
M  CHG  1   3  -1
M  END
>  <CHROM.1>
172.41361401,178.76626368,72.46678482,52.86533436,179.68507886,165.85092033
103.09961383,27.76006598,37.56929476,19.68340647,-1.80063277,1.29215014,1.31189020

>  <Name>
ligand

>  <RI>
0

>  <Rbt.Current_Directory>
/home/itssahil/PROJECTS/Mol_Feturizer/New_Systems/rnas/3F2T

>  <Rbt.Executable>
rbdock ($Id: //depot/dev/client3/rdock/2013.1/src/exe/rbdock.cxx#4 $)

>  <Rbt.Library>
libRbt.so (2013.1, Build901 2013/11/27)

>  <Rbt.Parameter_File>
/export/apps/rDock/src/rDock_2013.1_src/data/scripts/dock_solv.prm

>  <Rbt.Receptor>
prm/blind_docking_100.prm

>  <SCORE>
-21.7472

>  <SCORE.INTER>
-21.1948

>  <SCORE.INTER.CONST>
1

>  <SCORE.INTER.POLAR>
0

>  <SCORE.INTER.ROT>
7

>  <SCORE.INTER.SOLV>
18.2141

>  <SCORE.INTER.VDW>
-28.4679

>  <SCORE.INTER.norm>
-0.683702

>  <SCORE.INTRA>
-0.565068

>  <SCORE.INTRA.DIHEDRAL>
-1.61814

>  <SCORE.INTRA.DIHEDRAL.0>
4.64198

>  <SCORE.INTRA.POLAR>
0

>  <SCORE.INTRA.POLAR.0>
0

>  <SCORE.INTRA.REPUL>
0

>  <SCORE.INTRA.REPUL.0>
0

>  <SCORE.INTRA.SOLV>
-0.23985

>  <SCORE.INTRA.SOLV.lig_0>
-49.3611

>  <SCORE.INTRA.VDW>
0.363926

>  <SCORE.INTRA.VDW.0>
-1.91858

>  <SCORE.INTRA.norm>
-0.018228

>  <SCORE.RESTR>
0.012642

>  <SCORE.RESTR.CAVITY>
0.012642

>  <SCORE.RESTR.norm>
0.000407805

>  <SCORE.SYSTEM>
0

>  <SCORE.SYSTEM.CONST>
0

>  <SCORE.SYSTEM.DIHEDRAL>
0

>  <SCORE.SYSTEM.SOLV>
0

>  <SCORE.SYSTEM.norm>
0

>  <SCORE.heavy>
31

>  <SCORE.norm>
-0.701522

>  <RMSD>
4.986

$$$$
ligand
 OpenBabel11021811473D
libRbt.so/2013.1/901 2013/11/27
 31 33  0  0  0  0  0  0  0  0999 V2000
   25.7544   44.2308   15.9378 P   0  0  1  0  0  0  0  0  0  0  0  0
   27.0515   44.4859   15.2127 O   0  0  0  0  0  0  0  0  0  0  0  0
   25.5531   45.3157   16.9622 O   0  5  0  0  0  0  0  0  0  0  0  0
   24.6725   44.2282   14.8930 O   0  0  0  0  0  0  0  0  0  0  0  0
   26.6927   42.5245   17.6923 C   0  0  0  0  0  0  0  0  0  0  0  0
   25.7303   42.8185   16.7013 O   0  0  0  0  0  0  0  0  0  0  0  0
   26.5179   41.0785   18.1491 C   0  0  1  0  0  0  0  0  0  0  0  0
   26.7447   40.2037   17.0618 O   0  0  0  0  0  0  0  0  0  0  0  0
   27.5091   40.7595   19.2557 C   0  0  1  0  0  0  0  0  0  0  0  0
   27.4386   41.7748   20.2208 O   0  0  0  0  0  0  0  0  0  0  0  0
   27.2285   39.4246   19.9251 C   0  0  1  0  0  0  0  0  0  0  0  0
   27.1718   38.4374   18.9311 O   0  0  0  0  0  0  0  0  0  0  0  0
   28.3252   39.0737   20.9168 C   0  0  0  0  0  0  0  0  0  0  0  0
   27.5224   40.0209   23.4423 N   0  0  0  0  0  0  0  0  0  0  0  0
   27.1974   40.5257   24.6826 C   0  0  0  0  0  0  0  0  0  0  0  0
   27.2538   41.7343   24.8897 O   0  0  0  0  0  0  0  0  0  0  0  0
   26.8100   39.6829   25.6992 N   0  0  0  0  0  0  0  0  0  0  0  0
   26.7322   38.3211   25.4813 C   0  0  0  0  0  0  0  0  0  0  0  0
   27.0589   37.8025   24.2332 C   0  0  1  0  0  0  0  0  0  0  0  0
   26.3665   37.5724   26.3897 O   0  0  0  0  0  0  0  0  0  0  0  0
   27.3086   35.9295   22.7673 C   0  0  2  0  0  0  0  0  0  0  0  0
   26.9852   36.4424   24.0090 N   0  0  0  0  0  0  0  0  0  0  0  0
   27.2338   34.5545   22.5421 C   0  0  0  0  0  0  0  0  0  0  0  0
   27.5618   34.0277   21.2984 C   0  0  1  0  0  0  0  0  0  0  0  0
   27.4733   32.5483   21.0945 C   0  0  0  0  0  0  0  0  0  0  0  0
   27.9654   34.8843   20.2631 C   0  0  1  0  0  0  0  0  0  0  0  0
   28.3201   34.3556   18.9004 C   0  0  0  0  0  0  0  0  0  0  0  0
   28.0407   36.2558   20.4914 C   0  0  0  0  0  0  0  0  0  0  0  0
   27.7155   36.7857   21.7414 C   0  0  1  0  0  0  0  0  0  0  0  0
   27.4597   38.6614   23.2118 C   0  0  1  0  0  0  0  0  0  0  0  0
   27.7921   38.1512   21.9715 N   0  0  0  0  0  0  0  0  0  0  0  0
  1  2  1  6  0  0  0
  1  3  1  0  0  0  0
  1  4  2  0  0  0  0
  1  6  1  0  0  0  0
  5  6  1  0  0  0  0
  7  5  1  6  0  0  0
  7  8  1  0  0  0  0
  7  9  1  0  0  0  0
  9 10  1  1  0  0  0
  9 11  1  0  0  0  0
 11 12  1  6  0  0  0
 11 13  1  0  0  0  0
 13 31  1  0  0  0  0
 14 15  1  0  0  0  0
 15 16  2  0  0  0  0
 15 17  1  0  0  0  0
 17 18  1  0  0  0  0
 18 20  2  0  0  0  0
 19 18  1  6  0  0  0
 19 22  1  0  0  0  0
 19 30  1  0  0  0  0
 21 23  1  1  0  0  0
 21 29  1  0  0  0  0
 21 22  1  0  0  0  0
 23 24  1  0  0  0  0
 24 25  1  6  0  0  0
 24 26  1  0  0  0  0
 26 27  1  6  0  0  0
 26 28  1  0  0  0  0
 29 28  1  6  0  0  0
 29 31  1  0  0  0  0
 30 14  1  6  0  0  0
 30 31  1  0  0  0  0
M  CHG  1   3  -1
M  END
>  <CHROM.1>
-174.55239427,58.79524947,62.33467783,49.20866158,53.96006215,154.76019100
83.17831051,26.98346005,39.48891534,20.47442826,-2.53757609,-1.40913656,1.42324046

>  <Name>
ligand

>  <RI>
0

>  <Rbt.Current_Directory>
/home/itssahil/PROJECTS/Mol_Feturizer/New_Systems/rnas/3F2T

>  <Rbt.Executable>
rbdock ($Id: //depot/dev/client3/rdock/2013.1/src/exe/rbdock.cxx#4 $)

>  <Rbt.Library>
libRbt.so (2013.1, Build901 2013/11/27)

>  <Rbt.Parameter_File>
/export/apps/rDock/src/rDock_2013.1_src/data/scripts/dock_solv.prm

>  <Rbt.Receptor>
prm/blind_docking_80.prm

>  <SCORE>
-28.1715

>  <SCORE.INTER>
-28.2138

>  <SCORE.INTER.CONST>
1

>  <SCORE.INTER.POLAR>
0

>  <SCORE.INTER.ROT>
7

>  <SCORE.INTER.SOLV>
20.0291

>  <SCORE.INTER.VDW>
-33.7522

>  <SCORE.INTER.norm>
-0.910122

>  <SCORE.INTRA>
0.0422468

>  <SCORE.INTRA.DIHEDRAL>
-0.606052

>  <SCORE.INTRA.DIHEDRAL.0>
4.64198

>  <SCORE.INTRA.POLAR>
0

>  <SCORE.INTRA.POLAR.0>
0

>  <SCORE.INTRA.REPUL>
0

>  <SCORE.INTRA.REPUL.0>
0

>  <SCORE.INTRA.SOLV>
-0.479353

>  <SCORE.INTRA.SOLV.lig_0>
-49.3611

>  <SCORE.INTRA.VDW>
0.584949

>  <SCORE.INTRA.VDW.0>
-1.91858

>  <SCORE.INTRA.norm>
0.0013628

>  <SCORE.RESTR>
0

>  <SCORE.RESTR.CAVITY>
0

>  <SCORE.RESTR.norm>
0

>  <SCORE.SYSTEM>
0

>  <SCORE.SYSTEM.CONST>
0

>  <SCORE.SYSTEM.DIHEDRAL>
0

>  <SCORE.SYSTEM.SOLV>
0

>  <SCORE.SYSTEM.norm>
0

>  <SCORE.heavy>
31

>  <SCORE.norm>
-0.908759

>  <RMSD>
4.987

$$$$
ligand
 OpenBabel11021811473D
libRbt.so/2013.1/901 2013/11/27
 31 33  0  0  0  0  0  0  0  0999 V2000
   27.4906   41.8318   16.7862 P   0  0  1  0  0  0  0  0  0  0  0  0
   26.7780   40.5141   16.6150 O   0  0  0  0  0  0  0  0  0  0  0  0
   27.0729   42.7542   15.6719 O   0  5  0  0  0  0  0  0  0  0  0  0
   27.0969   42.3596   18.1384 O   0  0  0  0  0  0  0  0  0  0  0  0
   29.7703   40.9368   17.7202 C   0  0  0  0  0  0  0  0  0  0  0  0
   29.0894   41.6906   16.7389 O   0  0  0  0  0  0  0  0  0  0  0  0
   29.3792   39.4674   17.5859 C   0  0  1  0  0  0  0  0  0  0  0  0
   29.7671   38.9843   16.3151 O   0  0  0  0  0  0  0  0  0  0  0  0
   30.0711   38.6451   18.6601 C   0  0  1  0  0  0  0  0  0  0  0  0
   31.4043   39.0706   18.7548 O   0  0  0  0  0  0  0  0  0  0  0  0
   29.4117   38.7879   20.0215 C   0  0  1  0  0  0  0  0  0  0  0  0
   29.4216   40.1448   20.3748 O   0  0  0  0  0  0  0  0  0  0  0  0
   27.9759   38.2912   19.9838 C   0  0  0  0  0  0  0  0  0  0  0  0
   27.4578   39.7826   22.3135 N   0  0  0  0  0  0  0  0  0  0  0  0
   27.2701   40.5547   23.4393 C   0  0  0  0  0  0  0  0  0  0  0  0
   27.2963   41.7792   23.3577 O   0  0  0  0  0  0  0  0  0  0  0  0
   27.0545   39.9631   24.6630 N   0  0  0  0  0  0  0  0  0  0  0  0
   27.0128   38.5867   24.7717 C   0  0  0  0  0  0  0  0  0  0  0  0
   27.2018   37.7995   23.6413 C   0  0  1  0  0  0  0  0  0  0  0  0
   26.8006   38.0620   25.8668 O   0  0  0  0  0  0  0  0  0  0  0  0
   27.3495   35.6430   22.6179 C   0  0  2  0  0  0  0  0  0  0  0  0
   27.1632   36.4233   23.7430 N   0  0  0  0  0  0  0  0  0  0  0  0
   27.3104   34.2521   22.7221 C   0  0  0  0  0  0  0  0  0  0  0  0
   27.5017   33.4579   21.5976 C   0  0  1  0  0  0  0  0  0  0  0  0
   27.4565   31.9702   21.7480 C   0  0  0  0  0  0  0  0  0  0  0  0
   27.7302   34.0589   20.3506 C   0  0  1  0  0  0  0  0  0  0  0  0
   27.9329   33.2358   19.1081 C   0  0  0  0  0  0  0  0  0  0  0  0
   27.7704   35.4471   20.2501 C   0  0  0  0  0  0  0  0  0  0  0  0
   27.5826   36.2458   21.3795 C   0  0  1  0  0  0  0  0  0  0  0  0
   27.4292   38.4058   22.4075 C   0  0  1  0  0  0  0  0  0  0  0  0
   27.6245   37.6286   21.2819 N   0  0  0  0  0  0  0  0  0  0  0  0
  1  2  1  6  0  0  0
  1  3  1  0  0  0  0
  1  4  2  0  0  0  0
  1  6  1  0  0  0  0
  5  6  1  0  0  0  0
  7  5  1  6  0  0  0
  7  8  1  0  0  0  0
  7  9  1  0  0  0  0
  9 10  1  1  0  0  0
  9 11  1  0  0  0  0
 11 12  1  6  0  0  0
 11 13  1  0  0  0  0
 13 31  1  0  0  0  0
 14 15  1  0  0  0  0
 15 16  2  0  0  0  0
 15 17  1  0  0  0  0
 17 18  1  0  0  0  0
 18 20  2  0  0  0  0
 19 18  1  6  0  0  0
 19 22  1  0  0  0  0
 19 30  1  0  0  0  0
 21 23  1  1  0  0  0
 21 29  1  0  0  0  0
 21 22  1  0  0  0  0
 23 24  1  0  0  0  0
 24 25  1  6  0  0  0
 24 26  1  0  0  0  0
 26 27  1  6  0  0  0
 26 28  1  0  0  0  0
 29 28  1  6  0  0  0
 29 31  1  0  0  0  0
 30 14  1  6  0  0  0
 30 31  1  0  0  0  0
M  CHG  1   3  -1
M  END
>  <CHROM.1>
65.73694096,-63.24026843,61.72692458,-43.20459207,-58.10459075,144.39214452
-102.67999351,27.99662088,38.56127203,20.33092102,1.00035165,1.34259080,-0.23499662

>  <Name>
ligand

>  <RI>
0

>  <Rbt.Current_Directory>
/home/itssahil/PROJECTS/Mol_Feturizer/New_Systems/rnas/3F2T

>  <Rbt.Executable>
rbdock ($Id: //depot/dev/client3/rdock/2013.1/src/exe/rbdock.cxx#4 $)

>  <Rbt.Library>
libRbt.so (2013.1, Build901 2013/11/27)

>  <Rbt.Parameter_File>
/export/apps/rDock/src/rDock_2013.1_src/data/scripts/dock_solv.prm

>  <Rbt.Receptor>
prm/pocket_docking_5.prm

>  <SCORE>
-22.8443

>  <SCORE.INTER>
-25.2811

>  <SCORE.INTER.CONST>
1

>  <SCORE.INTER.POLAR>
0

>  <SCORE.INTER.ROT>
7

>  <SCORE.INTER.SOLV>
16.4848

>  <SCORE.INTER.VDW>
-30.6157

>  <SCORE.INTER.norm>
-0.815519

>  <SCORE.INTRA>
2.43679

>  <SCORE.INTRA.DIHEDRAL>
1.05053

>  <SCORE.INTRA.DIHEDRAL.0>
4.64198

>  <SCORE.INTRA.POLAR>
0

>  <SCORE.INTRA.POLAR.0>
0

>  <SCORE.INTRA.REPUL>
0

>  <SCORE.INTRA.REPUL.0>
0

>  <SCORE.INTRA.SOLV>
1.27554

>  <SCORE.INTRA.SOLV.lig_0>
-49.3611

>  <SCORE.INTRA.VDW>
1.27376

>  <SCORE.INTRA.VDW.0>
-1.91858

>  <SCORE.INTRA.norm>
0.0786061

>  <SCORE.RESTR>
0

>  <SCORE.RESTR.CAVITY>
0

>  <SCORE.RESTR.norm>
0

>  <SCORE.SYSTEM>
0

>  <SCORE.SYSTEM.CONST>
0

>  <SCORE.SYSTEM.DIHEDRAL>
0

>  <SCORE.SYSTEM.SOLV>
0

>  <SCORE.SYSTEM.norm>
0

>  <SCORE.heavy>
31

>  <SCORE.norm>
-0.736913

>  <RMSD>
4.990

$$$$
ligand
 OpenBabel11021811473D
libRbt.so/2013.1/901 2013/11/27
 31 33  0  0  0  0  0  0  0  0999 V2000
   29.8258   35.2133   13.9635 P   0  0  1  0  0  0  0  0  0  0  0  0
   29.1231   36.3021   13.1928 O   0  0  0  0  0  0  0  0  0  0  0  0
   28.9319   34.0027   14.0119 O   0  5  0  0  0  0  0  0  0  0  0  0
   31.1151   34.9390   13.2393 O   0  0  0  0  0  0  0  0  0  0  0  0
   31.0256   36.7283   15.7344 C   0  0  0  0  0  0  0  0  0  0  0  0
   30.1688   35.6361   15.4741 O   0  0  0  0  0  0  0  0  0  0  0  0
   31.0031   37.0395   17.2287 C   0  0  1  0  0  0  0  0  0  0  0  0
   32.0359   37.9528   17.5417 O   0  0  0  0  0  0  0  0  0  0  0  0
   29.6670   37.6534   17.6117 C   0  0  1  0  0  0  0  0  0  0  0  0
   28.6449   36.7900   17.1908 O   0  0  0  0  0  0  0  0  0  0  0  0
   29.5347   37.8789   19.1085 C   0  0  1  0  0  0  0  0  0  0  0  0
   30.5248   38.7891   19.5053 O   0  0  0  0  0  0  0  0  0  0  0  0
   28.1673   38.4453   19.4533 C   0  0  0  0  0  0  0  0  0  0  0  0
   27.5519   35.9501   20.6000 N   0  0  0  0  0  0  0  0  0  0  0  0
   27.1978   34.7170   21.1029 C   0  0  0  0  0  0  0  0  0  0  0  0
   27.1938   33.7314   20.3711 O   0  0  0  0  0  0  0  0  0  0  0  0
   26.8439   34.5784   22.4256 N   0  0  0  0  0  0  0  0  0  0  0  0
   26.8517   35.6750   23.2655 C   0  0  0  0  0  0  0  0  0  0  0  0
   27.2069   36.9234   22.7668 C   0  0  1  0  0  0  0  0  0  0  0  0
   26.5521   35.5421   24.4539 O   0  0  0  0  0  0  0  0  0  0  0  0
   27.5701   39.2632   23.1027 C   0  0  2  0  0  0  0  0  0  0  0  0
   27.2150   38.0239   23.6002 N   0  0  0  0  0  0  0  0  0  0  0  0
   27.5778   40.3747   23.9461 C   0  0  0  0  0  0  0  0  0  0  0  0
   27.9283   41.6268   23.4548 C   0  0  1  0  0  0  0  0  0  0  0  0
   27.9219   42.7964   24.3874 C   0  0  0  0  0  0  0  0  0  0  0  0
   28.2811   41.7718   22.1045 C   0  0  1  0  0  0  0  0  0  0  0  0
   28.6754   43.1071   21.5355 C   0  0  0  0  0  0  0  0  0  0  0  0
   28.2709   40.6610   21.2650 C   0  0  0  0  0  0  0  0  0  0  0  0
   27.9149   39.4037   21.7564 C   0  0  1  0  0  0  0  0  0  0  0  0
   27.5546   37.0573   21.4241 C   0  0  1  0  0  0  0  0  0  0  0  0
   27.9019   38.2966   20.9213 N   0  0  0  0  0  0  0  0  0  0  0  0
  1  2  1  6  0  0  0
  1  3  1  0  0  0  0
  1  4  2  0  0  0  0
  1  6  1  0  0  0  0
  5  6  1  0  0  0  0
  7  5  1  6  0  0  0
  7  8  1  0  0  0  0
  7  9  1  0  0  0  0
  9 10  1  1  0  0  0
  9 11  1  0  0  0  0
 11 12  1  6  0  0  0
 11 13  1  0  0  0  0
 13 31  1  0  0  0  0
 14 15  1  0  0  0  0
 15 16  2  0  0  0  0
 15 17  1  0  0  0  0
 17 18  1  0  0  0  0
 18 20  2  0  0  0  0
 19 18  1  1  0  0  0
 19 22  1  0  0  0  0
 19 30  1  0  0  0  0
 21 23  1  6  0  0  0
 21 29  1  0  0  0  0
 21 22  1  0  0  0  0
 23 24  1  0  0  0  0
 24 25  1  1  0  0  0
 24 26  1  0  0  0  0
 26 27  1  1  0  0  0
 26 28  1  0  0  0  0
 29 28  1  1  0  0  0
 29 31  1  0  0  0  0
 30 14  1  1  0  0  0
 30 31  1  0  0  0  0
M  CHG  1   3  -1
M  END
>  <CHROM.1>
171.26447843,-61.46323368,168.96434233,54.57027043,62.25606691,163.84441603
108.04938537,28.68954149,37.45790462,19.44619325,-0.99260705,1.09379731,0.60972923

>  <Name>
ligand

>  <RI>
0

>  <Rbt.Current_Directory>
/home/itssahil/PROJECTS/Mol_Feturizer/New_Systems/rnas/3F2T

>  <Rbt.Executable>
rbdock ($Id: //depot/dev/client3/rdock/2013.1/src/exe/rbdock.cxx#4 $)

>  <Rbt.Library>
libRbt.so (2013.1, Build901 2013/11/27)

>  <Rbt.Parameter_File>
/export/apps/rDock/src/rDock_2013.1_src/data/scripts/dock_solv.prm

>  <Rbt.Receptor>
prm/pocket_docking_8.prm

>  <SCORE>
-22.3881

>  <SCORE.INTER>
-22.1293

>  <SCORE.INTER.CONST>
1

>  <SCORE.INTER.POLAR>
0

>  <SCORE.INTER.ROT>
7

>  <SCORE.INTER.SOLV>
9.74077

>  <SCORE.INTER.VDW>
-26.2664

>  <SCORE.INTER.norm>
-0.713848

>  <SCORE.INTRA>
-0.258844

>  <SCORE.INTRA.DIHEDRAL>
-1.52724

>  <SCORE.INTRA.DIHEDRAL.0>
4.64198

>  <SCORE.INTRA.POLAR>
0

>  <SCORE.INTRA.POLAR.0>
0

>  <SCORE.INTRA.REPUL>
0

>  <SCORE.INTRA.REPUL.0>
0

>  <SCORE.INTRA.SOLV>
0.0247363

>  <SCORE.INTRA.SOLV.lig_0>
-49.3611

>  <SCORE.INTRA.VDW>
0.492407

>  <SCORE.INTRA.VDW.0>
-1.91858

>  <SCORE.INTRA.norm>
-0.00834981

>  <SCORE.RESTR>
0

>  <SCORE.RESTR.CAVITY>
0

>  <SCORE.RESTR.norm>
0

>  <SCORE.SYSTEM>
0

>  <SCORE.SYSTEM.CONST>
0

>  <SCORE.SYSTEM.DIHEDRAL>
0

>  <SCORE.SYSTEM.SOLV>
0

>  <SCORE.SYSTEM.norm>
0

>  <SCORE.heavy>
31

>  <SCORE.norm>
-0.722198

>  <RMSD>
4.998

$$$$
ligand
 OpenBabel11021811473D
libRbt.so/2013.1/901 2013/11/27
 31 33  0  0  0  0  0  0  0  0999 V2000
   25.9766   43.7502   16.2953 P   0  0  1  0  0  0  0  0  0  0  0  0
   25.4756   44.9818   15.5844 O   0  0  0  0  0  0  0  0  0  0  0  0
   24.8135   43.0808   16.9781 O   0  5  0  0  0  0  0  0  0  0  0  0
   26.6003   42.8728   15.2449 O   0  0  0  0  0  0  0  0  0  0  0  0
   27.9985   43.0833   17.8242 C   0  0  0  0  0  0  0  0  0  0  0  0
   27.0841   44.0773   17.4109 O   0  0  0  0  0  0  0  0  0  0  0  0
   27.2587   42.0304   18.6453 C   0  0  1  0  0  0  0  0  0  0  0  0
   26.6105   41.1192   17.7803 O   0  0  0  0  0  0  0  0  0  0  0  0
   28.2405   41.2691   19.5200 C   0  0  1  0  0  0  0  0  0  0  0  0
   28.8202   42.1706   20.4248 O   0  0  0  0  0  0  0  0  0  0  0  0
   27.5790   40.1460   20.3009 C   0  0  1  0  0  0  0  0  0  0  0  0
   27.0491   39.2262   19.3848 O   0  0  0  0  0  0  0  0  0  0  0  0
   28.5857   39.4395   21.1937 C   0  0  0  0  0  0  0  0  0  0  0  0
   27.5011   40.1019   23.7047 N   0  0  0  0  0  0  0  0  0  0  0  0
   27.0385   40.4631   24.9514 C   0  0  0  0  0  0  0  0  0  0  0  0
   27.1080   41.6322   25.3192 O   0  0  0  0  0  0  0  0  0  0  0  0
   26.4978   39.5198   25.7951 N   0  0  0  0  0  0  0  0  0  0  0  0
   26.4033   38.2015   25.3941 C   0  0  0  0  0  0  0  0  0  0  0  0
   26.8682   37.8275   24.1381 C   0  0  1  0  0  0  0  0  0  0  0  0
   25.9010   37.3639   26.1462 O   0  0  0  0  0  0  0  0  0  0  0  0
   27.2396   36.1423   22.4823 C   0  0  2  0  0  0  0  0  0  0  0  0
   26.7786   36.5112   23.7316 N   0  0  0  0  0  0  0  0  0  0  0  0
   27.1486   34.8116   22.0727 C   0  0  0  0  0  0  0  0  0  0  0  0
   27.6139   34.4289   20.8202 C   0  0  1  0  0  0  0  0  0  0  0  0
   27.5032   32.9927   20.4163 C   0  0  0  0  0  0  0  0  0  0  0  0
   28.1735   35.3874   19.9618 C   0  0  1  0  0  0  0  0  0  0  0  0
   28.6803   35.0164   18.5951 C   0  0  0  0  0  0  0  0  0  0  0  0
   28.2645   36.7142   20.3740 C   0  0  0  0  0  0  0  0  0  0  0  0
   27.8012   37.0991   21.6335 C   0  0  1  0  0  0  0  0  0  0  0  0
   27.4232   38.7866   23.2934 C   0  0  1  0  0  0  0  0  0  0  0  0
   27.8930   38.4197   22.0468 N   0  0  0  0  0  0  0  0  0  0  0  0
  1  2  1  6  0  0  0
  1  3  1  0  0  0  0
  1  4  2  0  0  0  0
  1  6  1  0  0  0  0
  5  6  1  0  0  0  0
  7  5  1  6  0  0  0
  7  8  1  0  0  0  0
  7  9  1  0  0  0  0
  9 10  1  1  0  0  0
  9 11  1  0  0  0  0
 11 12  1  6  0  0  0
 11 13  1  0  0  0  0
 13 31  1  0  0  0  0
 14 15  1  0  0  0  0
 15 16  2  0  0  0  0
 15 17  1  0  0  0  0
 17 18  1  0  0  0  0
 18 20  2  0  0  0  0
 19 18  1  6  0  0  0
 19 22  1  0  0  0  0
 19 30  1  0  0  0  0
 21 23  1  1  0  0  0
 21 29  1  0  0  0  0
 21 22  1  0  0  0  0
 23 24  1  0  0  0  0
 24 25  1  6  0  0  0
 24 26  1  0  0  0  0
 26 27  1  6  0  0  0
 26 28  1  0  0  0  0
 29 28  1  6  0  0  0
 29 31  1  0  0  0  0
 30 14  1  6  0  0  0
 30 31  1  0  0  0  0
M  CHG  1   3  -1
M  END
>  <CHROM.1>
-70.79743851,-156.91245782,81.36752191,62.98321668,61.93007040,174.86638954
93.43642049,27.14489690,39.64806257,20.58166305,-2.16459605,-1.42262248,1.77602651

>  <Name>
ligand

>  <RI>
0

>  <Rbt.Current_Directory>
/home/itssahil/PROJECTS/Mol_Feturizer/New_Systems/rnas/3F2T

>  <Rbt.Executable>
rbdock ($Id: //depot/dev/client3/rdock/2013.1/src/exe/rbdock.cxx#4 $)

>  <Rbt.Library>
libRbt.so (2013.1, Build901 2013/11/27)

>  <Rbt.Parameter_File>
/export/apps/rDock/src/rDock_2013.1_src/data/scripts/dock_solv.prm

>  <Rbt.Receptor>
prm/pocket_docking_5.prm

>  <SCORE>
-26.1164

>  <SCORE.INTER>
-28.0337

>  <SCORE.INTER.CONST>
1

>  <SCORE.INTER.POLAR>
0

>  <SCORE.INTER.ROT>
7

>  <SCORE.INTER.SOLV>
19.9681

>  <SCORE.INTER.VDW>
-33.6118

>  <SCORE.INTER.norm>
-0.904313

>  <SCORE.INTRA>
1.91727

>  <SCORE.INTRA.DIHEDRAL>
-0.385321

>  <SCORE.INTRA.DIHEDRAL.0>
4.64198

>  <SCORE.INTRA.POLAR>
0

>  <SCORE.INTRA.POLAR.0>
0

>  <SCORE.INTRA.REPUL>
0

>  <SCORE.INTRA.REPUL.0>
0

>  <SCORE.INTRA.SOLV>
3.57924

>  <SCORE.INTRA.SOLV.lig_0>
-49.3611

>  <SCORE.INTRA.VDW>
0.320308

>  <SCORE.INTRA.VDW.0>
-1.91858

>  <SCORE.INTRA.norm>
0.0618473

>  <SCORE.RESTR>
0

>  <SCORE.RESTR.CAVITY>
0

>  <SCORE.RESTR.norm>
0

>  <SCORE.SYSTEM>
0

>  <SCORE.SYSTEM.CONST>
0

>  <SCORE.SYSTEM.DIHEDRAL>
0

>  <SCORE.SYSTEM.SOLV>
0

>  <SCORE.SYSTEM.norm>
0

>  <SCORE.heavy>
31

>  <SCORE.norm>
-0.842466

>  <RMSD>
4.999

$$$$
ligand
 OpenBabel11021811473D
libRbt.so/2013.1/901 2013/11/27
 31 33  0  0  0  0  0  0  0  0999 V2000
   25.5132   43.5259   16.4523 P   0  0  1  0  0  0  0  0  0  0  0  0
   24.7622   43.8054   15.1752 O   0  0  0  0  0  0  0  0  0  0  0  0
   25.7208   44.8253   17.1839 O   0  5  0  0  0  0  0  0  0  0  0  0
   24.6738   42.5581   17.2402 O   0  0  0  0  0  0  0  0  0  0  0  0
   27.7987   42.5523   17.2884 C   0  0  0  0  0  0  0  0  0  0  0  0
   26.9543   42.8641   16.2000 O   0  0  0  0  0  0  0  0  0  0  0  0
   27.1785   41.4149   18.0957 C   0  0  1  0  0  0  0  0  0  0  0  0
   26.9117   40.3167   17.2463 O   0  0  0  0  0  0  0  0  0  0  0  0
   28.1350   40.9727   19.1904 C   0  0  1  0  0  0  0  0  0  0  0  0
   28.4666   42.0916   19.9686 O   0  0  0  0  0  0  0  0  0  0  0  0
   27.5381   39.9058   20.0927 C   0  0  1  0  0  0  0  0  0  0  0  0
   27.1028   38.8429   19.2885 O   0  0  0  0  0  0  0  0  0  0  0  0
   28.5701   39.3935   21.0835 C   0  0  0  0  0  0  0  0  0  0  0  0
   27.6225   40.1547   23.6217 N   0  0  0  0  0  0  0  0  0  0  0  0
   27.2272   40.5658   24.8762 C   0  0  0  0  0  0  0  0  0  0  0  0
   27.3017   41.7507   25.1878 O   0  0  0  0  0  0  0  0  0  0  0  0
   26.7488   39.6550   25.7902 N   0  0  0  0  0  0  0  0  0  0  0  0
   26.6495   38.3191   25.4534 C   0  0  0  0  0  0  0  0  0  0  0  0
   27.0467   37.8949   24.1902 C   0  0  1  0  0  0  0  0  0  0  0  0
   26.2027   37.5102   26.2692 O   0  0  0  0  0  0  0  0  0  0  0  0
   27.3455   36.1420   22.5909 C   0  0  2  0  0  0  0  0  0  0  0  0
   26.9519   36.5609   23.8475 N   0  0  0  0  0  0  0  0  0  0  0  0
   27.2493   34.7935   22.2459 C   0  0  0  0  0  0  0  0  0  0  0  0
   27.6473   34.3606   20.9864 C   0  0  1  0  0  0  0  0  0  0  0  0
   27.5332   32.9068   20.6529 C   0  0  0  0  0  0  0  0  0  0  0  0
   28.1435   35.2862   20.0560 C   0  0  1  0  0  0  0  0  0  0  0  0
   28.5761   34.8605   18.6798 C   0  0  0  0  0  0  0  0  0  0  0  0
   28.2398   36.6310   20.4039 C   0  0  0  0  0  0  0  0  0  0  0  0
   27.8443   37.0663   21.6700 C   0  0  1  0  0  0  0  0  0  0  0  0
   27.5391   38.8216   23.2736 C   0  0  1  0  0  0  0  0  0  0  0  0
   27.9416   38.4049   22.0191 N   0  0  0  0  0  0  0  0  0  0  0  0
  1  2  1  6  0  0  0
  1  3  1  0  0  0  0
  1  4  2  0  0  0  0
  1  6  1  0  0  0  0
  5  6  1  0  0  0  0
  7  5  1  6  0  0  0
  7  8  1  0  0  0  0
  7  9  1  0  0  0  0
  9 10  1  1  0  0  0
  9 11  1  0  0  0  0
 11 12  1  6  0  0  0
 11 13  1  0  0  0  0
 13 31  1  0  0  0  0
 14 15  1  0  0  0  0
 15 16  2  0  0  0  0
 15 17  1  0  0  0  0
 17 18  1  0  0  0  0
 18 20  2  0  0  0  0
 19 18  1  6  0  0  0
 19 22  1  0  0  0  0
 19 30  1  0  0  0  0
 21 23  1  1  0  0  0
 21 29  1  0  0  0  0
 21 22  1  0  0  0  0
 23 24  1  0  0  0  0
 24 25  1  6  0  0  0
 24 26  1  0  0  0  0
 26 27  1  6  0  0  0
 26 28  1  0  0  0  0
 29 28  1  6  0  0  0
 29 31  1  0  0  0  0
 30 14  1  6  0  0  0
 30 31  1  0  0  0  0
M  CHG  1   3  -1
M  END
>  <CHROM.1>
67.82045759,179.20076942,54.55642142,55.47586668,54.51559747,176.50732469
85.62486330,27.09256167,39.51046876,20.54991183,2.44328459,1.38991420,-1.67009509

>  <Name>
ligand

>  <RI>
0

>  <Rbt.Current_Directory>
/home/itssahil/PROJECTS/Mol_Feturizer/New_Systems/rnas/3F2T

>  <Rbt.Executable>
rbdock ($Id: //depot/dev/client3/rdock/2013.1/src/exe/rbdock.cxx#4 $)

>  <Rbt.Library>
libRbt.so (2013.1, Build901 2013/11/27)

>  <Rbt.Parameter_File>
/export/apps/rDock/src/rDock_2013.1_src/data/scripts/dock_solv.prm

>  <Rbt.Receptor>
prm/blind_docking_100.prm

>  <SCORE>
-27.6766

>  <SCORE.INTER>
-28.5635

>  <SCORE.INTER.CONST>
1

>  <SCORE.INTER.POLAR>
0

>  <SCORE.INTER.ROT>
7

>  <SCORE.INTER.SOLV>
18.1663

>  <SCORE.INTER.VDW>
-33.3644

>  <SCORE.INTER.norm>
-0.921403

>  <SCORE.INTRA>
0.886907

>  <SCORE.INTRA.DIHEDRAL>
-2.67137

>  <SCORE.INTRA.DIHEDRAL.0>
4.64198

>  <SCORE.INTRA.POLAR>
0

>  <SCORE.INTRA.POLAR.0>
0

>  <SCORE.INTRA.REPUL>
0

>  <SCORE.INTRA.REPUL.0>
0

>  <SCORE.INTRA.SOLV>
2.78581

>  <SCORE.INTRA.SOLV.lig_0>
-49.3611

>  <SCORE.INTRA.VDW>
0.829686

>  <SCORE.INTRA.VDW.0>
-1.91858

>  <SCORE.INTRA.norm>
0.0286099

>  <SCORE.RESTR>
0

>  <SCORE.RESTR.CAVITY>
0

>  <SCORE.RESTR.norm>
0

>  <SCORE.SYSTEM>
0

>  <SCORE.SYSTEM.CONST>
0

>  <SCORE.SYSTEM.DIHEDRAL>
0

>  <SCORE.SYSTEM.SOLV>
0

>  <SCORE.SYSTEM.norm>
0

>  <SCORE.heavy>
31

>  <SCORE.norm>
-0.892793

>  <RMSD>
5.001

$$$$
ligand
 OpenBabel11021811473D
libRbt.so/2013.1/901 2013/11/27
 31 33  0  0  0  0  0  0  0  0999 V2000
   32.1006   36.4223   15.6468 P   0  0  1  0  0  0  0  0  0  0  0  0
   32.0643   37.5923   14.6965 O   0  0  0  0  0  0  0  0  0  0  0  0
   30.7952   35.6789   15.5465 O   0  5  0  0  0  0  0  0  0  0  0  0
   33.2714   35.5724   15.2357 O   0  0  0  0  0  0  0  0  0  0  0  0
   31.6409   38.0031   17.6864 C   0  0  0  0  0  0  0  0  0  0  0  0
   32.3026   36.8639   17.1773 O   0  0  0  0  0  0  0  0  0  0  0  0
   30.1337   37.8221   17.5263 C   0  0  1  0  0  0  0  0  0  0  0  0
   29.7455   36.5668   18.0480 O   0  0  0  0  0  0  0  0  0  0  0  0
   29.3959   38.9189   18.2757 C   0  0  1  0  0  0  0  0  0  0  0  0
   28.0379   38.8561   17.9305 O   0  0  0  0  0  0  0  0  0  0  0  0
   29.5265   38.7864   19.7837 C   0  0  1  0  0  0  0  0  0  0  0  0
   30.8075   39.2197   20.1541 O   0  0  0  0  0  0  0  0  0  0  0  0
   28.4860   39.6353   20.4952 C   0  0  0  0  0  0  0  0  0  0  0  0
   27.4426   37.0423   20.8237 N   0  0  0  0  0  0  0  0  0  0  0  0
   26.8779   35.7897   20.9285 C   0  0  0  0  0  0  0  0  0  0  0  0
   26.7024   35.1073   19.9234 O   0  0  0  0  0  0  0  0  0  0  0  0
   26.5039   35.2935   22.1565 N   0  0  0  0  0  0  0  0  0  0  0  0
   26.7025   36.0440   23.2989 C   0  0  0  0  0  0  0  0  0  0  0  0
   27.2709   37.3093   23.2029 C   0  0  1  0  0  0  0  0  0  0  0  0
   26.3831   35.5874   24.3985 O   0  0  0  0  0  0  0  0  0  0  0  0
   28.0373   39.3220   24.2428 C   0  0  2  0  0  0  0  0  0  0  0  0
   27.4705   38.0656   24.3405 N   0  0  0  0  0  0  0  0  0  0  0  0
   28.2384   40.0854   25.3933 C   0  0  0  0  0  0  0  0  0  0  0  0
   28.8029   41.3525   25.3058 C   0  0  1  0  0  0  0  0  0  0  0  0
   29.0001   42.1436   26.5600 C   0  0  0  0  0  0  0  0  0  0  0  0
   29.1769   41.8638   24.0538 C   0  0  1  0  0  0  0  0  0  0  0  0
   29.7992   43.2262   23.9167 C   0  0  0  0  0  0  0  0  0  0  0  0
   28.9735   41.1003   22.9073 C   0  0  0  0  0  0  0  0  0  0  0  0
   28.4027   39.8292   22.9936 C   0  0  1  0  0  0  0  0  0  0  0  0
   27.6380   37.8087   21.9550 C   0  0  1  0  0  0  0  0  0  0  0  0
   28.1971   39.0682   21.8526 N   0  0  0  0  0  0  0  0  0  0  0  0
  1  2  1  6  0  0  0
  1  3  1  0  0  0  0
  1  4  2  0  0  0  0
  1  6  1  0  0  0  0
  5  6  1  0  0  0  0
  7  5  1  1  0  0  0
  7  8  1  0  0  0  0
  7  9  1  0  0  0  0
  9 10  1  1  0  0  0
  9 11  1  0  0  0  0
 11 12  1  1  0  0  0
 11 13  1  0  0  0  0
 13 31  1  0  0  0  0
 14 15  1  0  0  0  0
 15 16  2  0  0  0  0
 15 17  1  0  0  0  0
 17 18  1  0  0  0  0
 18 20  2  0  0  0  0
 19 18  1  1  0  0  0
 19 22  1  0  0  0  0
 19 30  1  0  0  0  0
 21 23  1  6  0  0  0
 21 29  1  0  0  0  0
 21 22  1  0  0  0  0
 23 24  1  0  0  0  0
 24 25  1  1  0  0  0
 24 26  1  0  0  0  0
 26 27  1  1  0  0  0
 26 28  1  0  0  0  0
 29 28  1  1  0  0  0
 29 31  1  0  0  0  0
 30 14  1  1  0  0  0
 30 31  1  0  0  0  0
M  CHG  1   3  -1
M  END
>  <CHROM.1>
58.66028565,40.03711878,50.47604048,170.39257496,76.07339755,154.58642552
120.89343825,29.22822638,38.11225087,20.46782185,-1.00554785,0.82243901,0.77622633

>  <Name>
ligand

>  <RI>
0

>  <Rbt.Current_Directory>
/home/itssahil/PROJECTS/Mol_Feturizer/New_Systems/rnas/3F2T

>  <Rbt.Executable>
rbdock ($Id: //depot/dev/client3/rdock/2013.1/src/exe/rbdock.cxx#4 $)

>  <Rbt.Library>
libRbt.so (2013.1, Build901 2013/11/27)

>  <Rbt.Parameter_File>
/export/apps/rDock/src/rDock_2013.1_src/data/scripts/dock_solv.prm

>  <Rbt.Receptor>
prm/blind_docking_60.prm

>  <SCORE>
-21.9428

>  <SCORE.INTER>
-24.3354

>  <SCORE.INTER.CONST>
1

>  <SCORE.INTER.POLAR>
0

>  <SCORE.INTER.ROT>
7

>  <SCORE.INTER.SOLV>
13.7354

>  <SCORE.INTER.VDW>
-29.0688

>  <SCORE.INTER.norm>
-0.785014

>  <SCORE.INTRA>
2.39266

>  <SCORE.INTRA.DIHEDRAL>
0.779519

>  <SCORE.INTRA.DIHEDRAL.0>
4.64198

>  <SCORE.INTRA.POLAR>
0

>  <SCORE.INTRA.POLAR.0>
0

>  <SCORE.INTRA.REPUL>
0

>  <SCORE.INTRA.REPUL.0>
0

>  <SCORE.INTRA.SOLV>
2.11676

>  <SCORE.INTRA.SOLV.lig_0>
-49.3611

>  <SCORE.INTRA.VDW>
0.944523

>  <SCORE.INTRA.VDW.0>
-1.91858

>  <SCORE.INTRA.norm>
0.0771827

>  <SCORE.RESTR>
0

>  <SCORE.RESTR.CAVITY>
0

>  <SCORE.RESTR.norm>
0

>  <SCORE.SYSTEM>
0

>  <SCORE.SYSTEM.CONST>
0

>  <SCORE.SYSTEM.DIHEDRAL>
0

>  <SCORE.SYSTEM.SOLV>
0

>  <SCORE.SYSTEM.norm>
0

>  <SCORE.heavy>
31

>  <SCORE.norm>
-0.707831

>  <RMSD>
5.006

$$$$
ligand
 OpenBabel11021811473D
libRbt.so/2013.1/901 2013/11/27
 31 33  0  0  0  0  0  0  0  0999 V2000
   27.7010   42.2353   17.8046 P   0  0  1  0  0  0  0  0  0  0  0  0
   28.9132   43.1116   17.9940 O   0  0  0  0  0  0  0  0  0  0  0  0
   26.6574   42.6308   18.8153 O   0  5  0  0  0  0  0  0  0  0  0  0
   27.2334   42.4501   16.3913 O   0  0  0  0  0  0  0  0  0  0  0  0
   28.9636   40.0244   17.1816 C   0  0  0  0  0  0  0  0  0  0  0  0
   28.0183   40.6742   18.0057 O   0  0  0  0  0  0  0  0  0  0  0  0
   28.9861   38.5361   17.5200 C   0  0  1  0  0  0  0  0  0  0  0  0
   29.4568   37.8007   16.4080 O   0  0  0  0  0  0  0  0  0  0  0  0
   29.9056   38.2860   18.7035 C   0  0  1  0  0  0  0  0  0  0  0  0
   31.0925   39.0061   18.5034 O   0  0  0  0  0  0  0  0  0  0  0  0
   29.2881   38.7135   20.0244 C   0  0  1  0  0  0  0  0  0  0  0  0
   29.3624   40.1108   20.1128 O   0  0  0  0  0  0  0  0  0  0  0  0
   27.8328   38.2836   20.1075 C   0  0  0  0  0  0  0  0  0  0  0  0
   27.4588   39.7119   22.5033 N   0  0  0  0  0  0  0  0  0  0  0  0
   27.3403   40.4542   23.6582 C   0  0  0  0  0  0  0  0  0  0  0  0
   27.3510   41.6806   23.6060 O   0  0  0  0  0  0  0  0  0  0  0  0
   27.2114   39.8305   24.8782 N   0  0  0  0  0  0  0  0  0  0  0  0
   27.1881   38.4515   24.9546 C   0  0  0  0  0  0  0  0  0  0  0  0
   27.3079   37.6943   23.7947 C   0  0  1  0  0  0  0  0  0  0  0  0
   27.0536   37.8979   26.0478 O   0  0  0  0  0  0  0  0  0  0  0  0
   27.4046   35.5652   22.7096 C   0  0  2  0  0  0  0  0  0  0  0  0
   27.2873   36.3157   23.8640 N   0  0  0  0  0  0  0  0  0  0  0  0
   27.3838   34.1719   22.7811 C   0  0  0  0  0  0  0  0  0  0  0  0
   27.5063   33.4075   21.6267 C   0  0  1  0  0  0  0  0  0  0  0  0
   27.4833   31.9161   21.7421 C   0  0  0  0  0  0  0  0  0  0  0  0
   27.6464   34.0413   20.3828 C   0  0  1  0  0  0  0  0  0  0  0  0
   27.7726   33.2511   19.1092 C   0  0  0  0  0  0  0  0  0  0  0  0
   27.6685   35.4319   20.3149 C   0  0  0  0  0  0  0  0  0  0  0  0
   27.5499   36.2006   21.4741 C   0  0  1  0  0  0  0  0  0  0  0  0
   27.4478   38.3330   22.5642 C   0  0  1  0  0  0  0  0  0  0  0  0
   27.5740   37.5857   21.4088 N   0  0  0  0  0  0  0  0  0  0  0  0
  1  2  1  1  0  0  0
  1  3  1  0  0  0  0
  1  4  2  0  0  0  0
  1  6  1  0  0  0  0
  5  6  1  0  0  0  0
  7  5  1  6  0  0  0
  7  8  1  0  0  0  0
  7  9  1  0  0  0  0
  9 10  1  6  0  0  0
  9 11  1  0  0  0  0
 11 12  1  6  0  0  0
 11 13  1  0  0  0  0
 13 31  1  0  0  0  0
 14 15  1  0  0  0  0
 15 16  2  0  0  0  0
 15 17  1  0  0  0  0
 17 18  1  0  0  0  0
 18 20  2  0  0  0  0
 19 18  1  6  0  0  0
 19 22  1  0  0  0  0
 19 30  1  0  0  0  0
 21 23  1  1  0  0  0
 21 29  1  0  0  0  0
 21 22  1  0  0  0  0
 23 24  1  0  0  0  0
 24 25  1  6  0  0  0
 24 26  1  0  0  0  0
 26 27  1  6  0  0  0
 26 28  1  0  0  0  0
 29 28  1  6  0  0  0
 29 31  1  0  0  0  0
 30 14  1  6  0  0  0
 30 31  1  0  0  0  0
M  CHG  1   3  -1
M  END
>  <CHROM.1>
-175.71348089,-60.14851479,155.66777612,-45.20990894,-76.57063487,130.61056552
-99.00200138,27.98671694,38.48974072,20.58157431,1.05659492,1.34088221,-0.16416996

>  <Name>
ligand

>  <RI>
0

>  <Rbt.Current_Directory>
/home/itssahil/PROJECTS/Mol_Feturizer/New_Systems/rnas/3F2T

>  <Rbt.Executable>
rbdock ($Id: //depot/dev/client3/rdock/2013.1/src/exe/rbdock.cxx#4 $)

>  <Rbt.Library>
libRbt.so (2013.1, Build901 2013/11/27)

>  <Rbt.Parameter_File>
/export/apps/rDock/src/rDock_2013.1_src/data/scripts/dock_solv.prm

>  <Rbt.Receptor>
prm/pocket_docking_3.prm

>  <SCORE>
-19.9268

>  <SCORE.INTER>
-24.3382

>  <SCORE.INTER.CONST>
1

>  <SCORE.INTER.POLAR>
0

>  <SCORE.INTER.ROT>
7

>  <SCORE.INTER.SOLV>
14.049

>  <SCORE.INTER.VDW>
-29.1752

>  <SCORE.INTER.norm>
-0.785104

>  <SCORE.INTRA>
4.41056

>  <SCORE.INTRA.DIHEDRAL>
5.01162

>  <SCORE.INTRA.DIHEDRAL.0>
4.64198

>  <SCORE.INTRA.POLAR>
0

>  <SCORE.INTRA.POLAR.0>
0

>  <SCORE.INTRA.REPUL>
0

>  <SCORE.INTRA.REPUL.0>
0

>  <SCORE.INTRA.SOLV>
0.578998

>  <SCORE.INTRA.SOLV.lig_0>
-49.3611

>  <SCORE.INTRA.VDW>
1.61525

>  <SCORE.INTRA.VDW.0>
-1.91858

>  <SCORE.INTRA.norm>
0.142276

>  <SCORE.RESTR>
0.000920491

>  <SCORE.RESTR.CAVITY>
0.000920491

>  <SCORE.RESTR.norm>
2.96933e-05

>  <SCORE.SYSTEM>
0

>  <SCORE.SYSTEM.CONST>
0

>  <SCORE.SYSTEM.DIHEDRAL>
0

>  <SCORE.SYSTEM.SOLV>
0

>  <SCORE.SYSTEM.norm>
0

>  <SCORE.heavy>
31

>  <SCORE.norm>
-0.642799

>  <RMSD>
5.006

$$$$
ligand
 OpenBabel11021811473D
libRbt.so/2013.1/901 2013/11/27
 31 33  0  0  0  0  0  0  0  0999 V2000
   26.9665   43.2066   16.6621 P   0  0  1  0  0  0  0  0  0  0  0  0
   25.9632   44.0755   17.3774 O   0  0  0  0  0  0  0  0  0  0  0  0
   26.4557   42.9222   15.2746 O   0  5  0  0  0  0  0  0  0  0  0  0
   28.2612   43.9718   16.6451 O   0  0  0  0  0  0  0  0  0  0  0  0
   28.1829   40.8976   16.9051 C   0  0  0  0  0  0  0  0  0  0  0  0
   27.2141   41.8003   17.3964 O   0  0  0  0  0  0  0  0  0  0  0  0
   28.2647   39.6919   17.8378 C   0  0  1  0  0  0  0  0  0  0  0  0
   28.8933   38.6149   17.1717 O   0  0  0  0  0  0  0  0  0  0  0  0
   29.0711   40.0462   19.0758 C   0  0  1  0  0  0  0  0  0  0  0  0
   28.6480   41.3015   19.5368 O   0  0  0  0  0  0  0  0  0  0  0  0
   28.9039   39.0303   20.1932 C   0  0  1  0  0  0  0  0  0  0  0  0
   29.7353   39.4064   21.2577 O   0  0  0  0  0  0  0  0  0  0  0  0
   27.4633   38.9859   20.6752 C   0  0  0  0  0  0  0  0  0  0  0  0
   27.2263   39.9819   23.2966 N   0  0  0  0  0  0  0  0  0  0  0  0
   27.1712   40.5184   24.5646 C   0  0  0  0  0  0  0  0  0  0  0  0
   27.1251   41.7355   24.7169 O   0  0  0  0  0  0  0  0  0  0  0  0
   27.1697   39.6981   25.6697 N   0  0  0  0  0  0  0  0  0  0  0  0
   27.2118   38.3260   25.5167 C   0  0  0  0  0  0  0  0  0  0  0  0
   27.2684   37.7756   24.2411 C   0  0  1  0  0  0  0  0  0  0  0  0
   27.1913   37.5952   26.5092 O   0  0  0  0  0  0  0  0  0  0  0  0
   27.3668   35.8604   22.8121 C   0  0  2  0  0  0  0  0  0  0  0  0
   27.3126   36.4052   24.0809 N   0  0  0  0  0  0  0  0  0  0  0  0
   27.4116   34.4751   22.6516 C   0  0  0  0  0  0  0  0  0  0  0  0
   27.4716   33.9170   21.3801 C   0  0  1  0  0  0  0  0  0  0  0  0
   27.5221   32.4278   21.2466 C   0  0  0  0  0  0  0  0  0  0  0  0
   27.4820   34.7517   20.2524 C   0  0  1  0  0  0  0  0  0  0  0  0
   27.5370   34.1877   18.8591 C   0  0  0  0  0  0  0  0  0  0  0  0
   27.4388   36.1338   20.4158 C   0  0  0  0  0  0  0  0  0  0  0  0
   27.3828   36.6957   21.6926 C   0  0  1  0  0  0  0  0  0  0  0  0
   27.2793   38.6130   23.1274 C   0  0  1  0  0  0  0  0  0  0  0  0
   27.3422   38.0720   21.8575 N   0  0  0  0  0  0  0  0  0  0  0  0
  1  2  1  1  0  0  0
  1  3  1  0  0  0  0
  1  4  2  0  0  0  0
  1  6  1  0  0  0  0
  5  6  1  0  0  0  0
  7  5  1  6  0  0  0
  7  8  1  0  0  0  0
  7  9  1  0  0  0  0
  9 10  1  1  0  0  0
  9 11  1  0  0  0  0
 11 12  1  1  0  0  0
 11 13  1  0  0  0  0
 13 31  1  0  0  0  0
 14 15  1  0  0  0  0
 15 16  2  0  0  0  0
 15 17  1  0  0  0  0
 17 18  1  0  0  0  0
 18 20  2  0  0  0  0
 19 18  1  6  0  0  0
 19 22  1  0  0  0  0
 19 30  1  0  0  0  0
 21 23  1  1  0  0  0
 21 29  1  0  0  0  0
 21 22  1  0  0  0  0
 23 24  1  0  0  0  0
 24 25  1  6  0  0  0
 24 26  1  0  0  0  0
 26 27  1  6  0  0  0
 26 28  1  0  0  0  0
 29 28  1  6  0  0  0
 29 31  1  0  0  0  0
 30 14  1  6  0  0  0
 30 31  1  0  0  0  0
M  CHG  1   3  -1
M  END
>  <CHROM.1>
176.56965910,-176.19431167,161.85594961,44.98274786,176.98522137,-174.87871875
-74.80753250,27.59459598,39.07602290,20.64618705,1.53552641,1.48871269,-0.77153279

>  <Name>
ligand

>  <RI>
0

>  <Rbt.Current_Directory>
/home/itssahil/PROJECTS/Mol_Feturizer/New_Systems/rnas/3F2T

>  <Rbt.Executable>
rbdock ($Id: //depot/dev/client3/rdock/2013.1/src/exe/rbdock.cxx#4 $)

>  <Rbt.Library>
libRbt.so (2013.1, Build901 2013/11/27)

>  <Rbt.Parameter_File>
/export/apps/rDock/src/rDock_2013.1_src/data/scripts/dock_solv.prm

>  <Rbt.Receptor>
prm/pocket_docking_7.prm

>  <SCORE>
-23.16

>  <SCORE.INTER>
-23.4645

>  <SCORE.INTER.CONST>
1

>  <SCORE.INTER.POLAR>
0

>  <SCORE.INTER.ROT>
7

>  <SCORE.INTER.SOLV>
21.2008

>  <SCORE.INTER.VDW>
-30.9766

>  <SCORE.INTER.norm>
-0.75692

>  <SCORE.INTRA>
0.304551

>  <SCORE.INTRA.DIHEDRAL>
-1.44178

>  <SCORE.INTRA.DIHEDRAL.0>
4.64198

>  <SCORE.INTRA.POLAR>
0

>  <SCORE.INTRA.POLAR.0>
0

>  <SCORE.INTRA.REPUL>
0

>  <SCORE.INTRA.REPUL.0>
0

>  <SCORE.INTRA.SOLV>
0.392417

>  <SCORE.INTRA.SOLV.lig_0>
-49.3611

>  <SCORE.INTRA.VDW>
0.829235

>  <SCORE.INTRA.VDW.0>
-1.91858

>  <SCORE.INTRA.norm>
0.00982423

>  <SCORE.RESTR>
0

>  <SCORE.RESTR.CAVITY>
0

>  <SCORE.RESTR.norm>
0

>  <SCORE.SYSTEM>
0

>  <SCORE.SYSTEM.CONST>
0

>  <SCORE.SYSTEM.DIHEDRAL>
0

>  <SCORE.SYSTEM.SOLV>
0

>  <SCORE.SYSTEM.norm>
0

>  <SCORE.heavy>
31

>  <SCORE.norm>
-0.747096

>  <RMSD>
5.006

$$$$
ligand
 OpenBabel11021811473D
libRbt.so/2013.1/901 2013/11/27
 31 33  0  0  0  0  0  0  0  0999 V2000
   27.3098   43.2106   17.0095 P   0  0  1  0  0  0  0  0  0  0  0  0
   28.5764   43.3011   17.8223 O   0  0  0  0  0  0  0  0  0  0  0  0
   26.6607   44.5686   16.9751 O   0  5  0  0  0  0  0  0  0  0  0  0
   27.7124   42.7384   15.6395 O   0  0  0  0  0  0  0  0  0  0  0  0
   26.6888   40.9891   18.2545 C   0  0  0  0  0  0  0  0  0  0  0  0
   26.2485   42.1699   17.6167 O   0  0  0  0  0  0  0  0  0  0  0  0
   27.2104   40.0142   17.2019 C   0  0  1  0  0  0  0  0  0  0  0  0
   28.5248   40.3752   16.8267 O   0  0  0  0  0  0  0  0  0  0  0  0
   27.2263   38.6025   17.7635 C   0  0  1  0  0  0  0  0  0  0  0  0
   27.2746   37.6990   16.6917 O   0  0  0  0  0  0  0  0  0  0  0  0
   28.4158   38.3488   18.6742 C   0  0  1  0  0  0  0  0  0  0  0  0
   28.4286   39.3386   19.6672 O   0  0  0  0  0  0  0  0  0  0  0  0
   28.3145   36.9822   19.3313 C   0  0  0  0  0  0  0  0  0  0  0  0
   30.8213   36.5218   18.1379 N   0  0  0  0  0  0  0  0  0  0  0  0
   32.0543   36.3747   17.5407 C   0  0  0  0  0  0  0  0  0  0  0  0
   33.0036   37.0591   17.9110 O   0  0  0  0  0  0  0  0  0  0  0  0
   32.2332   35.4637   16.5247 N   0  0  0  0  0  0  0  0  0  0  0  0
   31.1783   34.6787   16.1016 C   0  0  0  0  0  0  0  0  0  0  0  0
   29.9303   34.8207   16.6978 C   0  0  1  0  0  0  0  0  0  0  0  0
   31.3484   33.8510   15.2041 O   0  0  0  0  0  0  0  0  0  0  0  0
   27.6322   34.1823   16.8740 C   0  0  2  0  0  0  0  0  0  0  0  0
   28.8712   34.0407   16.2786 N   0  0  0  0  0  0  0  0  0  0  0  0
   26.5626   33.3934   16.4492 C   0  0  0  0  0  0  0  0  0  0  0  0
   25.3109   33.5314   17.0377 C   0  0  1  0  0  0  0  0  0  0  0  0
   24.1866   32.6711   16.5541 C   0  0  0  0  0  0  0  0  0  0  0  0
   25.1243   34.4656   18.0677 C   0  0  1  0  0  0  0  0  0  0  0  0
   23.7885   34.6396   18.7369 C   0  0  0  0  0  0  0  0  0  0  0  0
   26.1932   35.2526   18.4883 C   0  0  0  0  0  0  0  0  0  0  0  0
   27.4498   35.1179   17.8951 C   0  0  1  0  0  0  0  0  0  0  0  0
   29.7547   35.7521   17.7193 C   0  0  1  0  0  0  0  0  0  0  0  0
   28.5151   35.9023   18.3110 N   0  0  0  0  0  0  0  0  0  0  0  0
  1  2  1  1  0  0  0
  1  3  1  0  0  0  0
  1  4  2  0  0  0  0
  1  6  1  0  0  0  0
  5  6  1  0  0  0  0
  7  5  1  1  0  0  0
  7  8  1  0  0  0  0
  7  9  1  0  0  0  0
  9 10  1  6  0  0  0
  9 11  1  0  0  0  0
 11 12  1  1  0  0  0
 11 13  1  0  0  0  0
 13 31  1  0  0  0  0
 14 15  1  0  0  0  0
 15 16  2  0  0  0  0
 15 17  1  0  0  0  0
 17 18  1  0  0  0  0
 18 20  2  0  0  0  0
 19 18  1  1  0  0  0
 19 22  1  0  0  0  0
 19 30  1  0  0  0  0
 21 23  1  6  0  0  0
 21 29  1  0  0  0  0
 21 22  1  0  0  0  0
 23 24  1  0  0  0  0
 24 25  1  1  0  0  0
 24 26  1  0  0  0  0
 26 27  1  1  0  0  0
 26 28  1  0  0  0  0
 29 28  1  1  0  0  0
 29 31  1  0  0  0  0
 30 14  1  1  0  0  0
 30 31  1  0  0  0  0
M  CHG  1   3  -1
M  END
>  <CHROM.1>
-72.89866005,-34.67644853,79.98830751,160.78722359,54.02407900,69.58006738
-108.38647967,28.12052026,37.71453776,17.39720277,1.66701761,0.09348189,0.01820112

>  <Name>
ligand

>  <RI>
0

>  <Rbt.Current_Directory>
/home/itssahil/PROJECTS/Mol_Feturizer/New_Systems/rnas/3F2T

>  <Rbt.Executable>
rbdock ($Id: //depot/dev/client3/rdock/2013.1/src/exe/rbdock.cxx#4 $)

>  <Rbt.Library>
libRbt.so (2013.1, Build901 2013/11/27)

>  <Rbt.Parameter_File>
/export/apps/rDock/src/rDock_2013.1_src/data/scripts/dock_solv.prm

>  <Rbt.Receptor>
prm/blind_docking_100.prm

>  <SCORE>
-5.84466

>  <SCORE.INTER>
-7.34256

>  <SCORE.INTER.CONST>
1

>  <SCORE.INTER.POLAR>
0

>  <SCORE.INTER.ROT>
7

>  <SCORE.INTER.SOLV>
16.2354

>  <SCORE.INTER.VDW>
-18.5735

>  <SCORE.INTER.norm>
-0.236857

>  <SCORE.INTRA>
1.49789

>  <SCORE.INTRA.DIHEDRAL>
1.18619

>  <SCORE.INTRA.DIHEDRAL.0>
4.64198

>  <SCORE.INTRA.POLAR>
0

>  <SCORE.INTRA.POLAR.0>
0

>  <SCORE.INTRA.REPUL>
0

>  <SCORE.INTRA.REPUL.0>
0

>  <SCORE.INTRA.SOLV>
2.23021

>  <SCORE.INTRA.SOLV.lig_0>
-49.3611

>  <SCORE.INTRA.VDW>
-0.210307

>  <SCORE.INTRA.VDW.0>
-1.91858

>  <SCORE.INTRA.norm>
0.0483191

>  <SCORE.RESTR>
0

>  <SCORE.RESTR.CAVITY>
0

>  <SCORE.RESTR.norm>
0

>  <SCORE.SYSTEM>
0

>  <SCORE.SYSTEM.CONST>
0

>  <SCORE.SYSTEM.DIHEDRAL>
0

>  <SCORE.SYSTEM.SOLV>
0

>  <SCORE.SYSTEM.norm>
0

>  <SCORE.heavy>
31

>  <SCORE.norm>
-0.188538

>  <RMSD>
5.007

$$$$
ligand
 OpenBabel11021811473D
libRbt.so/2013.1/901 2013/11/27
 31 33  0  0  0  0  0  0  0  0999 V2000
   28.5148   41.9758   16.8189 P   0  0  1  0  0  0  0  0  0  0  0  0
   29.1690   42.4015   15.5289 O   0  0  0  0  0  0  0  0  0  0  0  0
   29.2693   42.5902   17.9679 O   0  5  0  0  0  0  0  0  0  0  0  0
   27.0900   42.4530   16.7548 O   0  0  0  0  0  0  0  0  0  0  0  0
   29.7088   39.6440   16.9051 C   0  0  0  0  0  0  0  0  0  0  0  0
   28.5113   40.3833   17.0241 O   0  0  0  0  0  0  0  0  0  0  0  0
   29.4091   38.1634   17.1249 C   0  0  1  0  0  0  0  0  0  0  0  0
   30.1116   37.3880   16.1741 O   0  0  0  0  0  0  0  0  0  0  0  0
   29.8424   37.7469   18.5204 C   0  0  1  0  0  0  0  0  0  0  0  0
   31.1349   38.2411   18.7498 O   0  0  0  0  0  0  0  0  0  0  0  0
   28.9152   38.2744   19.6024 C   0  0  1  0  0  0  0  0  0  0  0  0
   29.0191   39.6725   19.6274 O   0  0  0  0  0  0  0  0  0  0  0  0
   27.4739   37.8848   19.3193 C   0  0  0  0  0  0  0  0  0  0  0  0
   27.4525   36.6336   21.8400 N   0  0  0  0  0  0  0  0  0  0  0  0
   27.5073   36.0626   23.0929 C   0  0  0  0  0  0  0  0  0  0  0  0
   27.5999   36.7727   24.0899 O   0  0  0  0  0  0  0  0  0  0  0  0
   27.4614   34.6949   23.2389 N   0  0  0  0  0  0  0  0  0  0  0  0
   27.3481   33.8810   22.1287 C   0  0  0  0  0  0  0  0  0  0  0  0
   27.2929   34.4481   20.8604 C   0  0  1  0  0  0  0  0  0  0  0  0
   27.2884   32.6574   22.2661 O   0  0  0  0  0  0  0  0  0  0  0  0
   27.1250   34.2066   18.4870 C   0  0  2  0  0  0  0  0  0  0  0  0
   27.1815   33.6405   19.7463 N   0  0  0  0  0  0  0  0  0  0  0  0
   27.0125   33.3891   17.3618 C   0  0  0  0  0  0  0  0  0  0  0  0
   26.9601   33.9479   16.0902 C   0  0  1  0  0  0  0  0  0  0  0  0
   26.8431   33.0403   14.9067 C   0  0  0  0  0  0  0  0  0  0  0  0
   27.0155   35.3416   15.9386 C   0  0  1  0  0  0  0  0  0  0  0  0
   26.9525   35.9864   14.5811 C   0  0  0  0  0  0  0  0  0  0  0  0
   27.1293   36.1546   17.0632 C   0  0  0  0  0  0  0  0  0  0  0  0
   27.1863   35.5944   18.3406 C   0  0  1  0  0  0  0  0  0  0  0  0
   27.3497   35.8333   20.7201 C   0  0  1  0  0  0  0  0  0  0  0  0
   27.3021   36.4023   19.4618 N   0  0  0  0  0  0  0  0  0  0  0  0
  1  2  1  6  0  0  0
  1  3  1  0  0  0  0
  1  4  2  0  0  0  0
  1  6  1  0  0  0  0
  5  6  1  0  0  0  0
  7  5  1  6  0  0  0
  7  8  1  0  0  0  0
  7  9  1  0  0  0  0
  9 10  1  1  0  0  0
  9 11  1  0  0  0  0
 11 12  1  6  0  0  0
 11 13  1  0  0  0  0
 13 31  1  0  0  0  0
 14 15  1  0  0  0  0
 15 16  2  0  0  0  0
 15 17  1  0  0  0  0
 17 18  1  0  0  0  0
 18 20  2  0  0  0  0
 19 18  1  1  0  0  0
 19 22  1  0  0  0  0
 19 30  1  0  0  0  0
 21 23  1  6  0  0  0
 21 29  1  0  0  0  0
 21 22  1  0  0  0  0
 23 24  1  0  0  0  0
 24 25  1  1  0  0  0
 24 26  1  0  0  0  0
 26 27  1  1  0  0  0
 26 28  1  0  0  0  0
 29 28  1  1  0  0  0
 29 31  1  0  0  0  0
 30 14  1  1  0  0  0
 30 31  1  0  0  0  0
M  CHG  1   3  -1
M  END
>  <CHROM.1>
-179.06647467,51.89363044,137.36927251,-47.04969113,-65.99638422,67.98469994
-104.60888056,28.07877144,37.30447322,18.61800501,-0.59665760,1.33193077
1.65404877

>  <Name>
ligand

>  <RI>
0

>  <Rbt.Current_Directory>
/home/itssahil/PROJECTS/Mol_Feturizer/New_Systems/rnas/3F2T

>  <Rbt.Executable>
rbdock ($Id: //depot/dev/client3/rdock/2013.1/src/exe/rbdock.cxx#4 $)

>  <Rbt.Library>
libRbt.so (2013.1, Build901 2013/11/27)

>  <Rbt.Parameter_File>
/export/apps/rDock/src/rDock_2013.1_src/data/scripts/dock_solv.prm

>  <Rbt.Receptor>
prm/pocket_docking_5.prm

>  <SCORE>
-16.6446

>  <SCORE.INTER>
-17.9397

>  <SCORE.INTER.CONST>
1

>  <SCORE.INTER.POLAR>
0

>  <SCORE.INTER.ROT>
7

>  <SCORE.INTER.SOLV>
15.6967

>  <SCORE.INTER.VDW>
-25.4587

>  <SCORE.INTER.norm>
-0.578699

>  <SCORE.INTRA>
1.29507

>  <SCORE.INTRA.DIHEDRAL>
1.82539

>  <SCORE.INTRA.DIHEDRAL.0>
4.64198

>  <SCORE.INTRA.POLAR>
0

>  <SCORE.INTRA.POLAR.0>
0

>  <SCORE.INTRA.REPUL>
0

>  <SCORE.INTRA.REPUL.0>
0

>  <SCORE.INTRA.SOLV>
0.497159

>  <SCORE.INTRA.SOLV.lig_0>
-49.3611

>  <SCORE.INTRA.VDW>
0.133794

>  <SCORE.INTRA.VDW.0>
-1.91858

>  <SCORE.INTRA.norm>
0.0417764

>  <SCORE.RESTR>
0

>  <SCORE.RESTR.CAVITY>
0

>  <SCORE.RESTR.norm>
0

>  <SCORE.SYSTEM>
0

>  <SCORE.SYSTEM.CONST>
0

>  <SCORE.SYSTEM.DIHEDRAL>
0

>  <SCORE.SYSTEM.SOLV>
0

>  <SCORE.SYSTEM.norm>
0

>  <SCORE.heavy>
31

>  <SCORE.norm>
-0.536922

>  <RMSD>
5.008

$$$$
ligand
 OpenBabel11021811473D
libRbt.so/2013.1/901 2013/11/27
 31 33  0  0  0  0  0  0  0  0999 V2000
   25.8750   43.5844   16.5258 P   0  0  1  0  0  0  0  0  0  0  0  0
   24.6132   42.7603   16.4821 O   0  0  0  0  0  0  0  0  0  0  0  0
   26.8605   43.0100   15.5431 O   0  5  0  0  0  0  0  0  0  0  0  0
   25.4795   44.9928   16.1765 O   0  0  0  0  0  0  0  0  0  0  0  0
   27.2306   42.4429   18.4572 C   0  0  0  0  0  0  0  0  0  0  0  0
   26.5682   43.5930   17.9742 O   0  0  0  0  0  0  0  0  0  0  0  0
   27.6386   42.6711   19.9103 C   0  0  1  0  0  0  0  0  0  0  0  0
   26.4865   42.7138   20.7286 O   0  0  0  0  0  0  0  0  0  0  0  0
   28.5382   41.5408   20.3812 C   0  0  1  0  0  0  0  0  0  0  0  0
   29.2279   41.9697   21.5248 O   0  0  0  0  0  0  0  0  0  0  0  0
   27.7630   40.2785   20.7192 C   0  0  1  0  0  0  0  0  0  0  0  0
   27.0547   39.8783   19.5772 O   0  0  0  0  0  0  0  0  0  0  0  0
   28.7026   39.1614   21.1422 C   0  0  0  0  0  0  0  0  0  0  0  0
   27.5630   39.7752   23.6411 N   0  0  0  0  0  0  0  0  0  0  0  0
   27.0739   40.1101   24.8850 C   0  0  0  0  0  0  0  0  0  0  0  0
   27.1642   41.2647   25.2920 O   0  0  0  0  0  0  0  0  0  0  0  0
   26.4833   39.1565   25.6824 N   0  0  0  0  0  0  0  0  0  0  0  0
   26.3650   37.8544   25.2368 C   0  0  0  0  0  0  0  0  0  0  0  0
   26.8563   37.5070   23.9833 C   0  0  1  0  0  0  0  0  0  0  0  0
   25.8182   37.0081   25.9471 O   0  0  0  0  0  0  0  0  0  0  0  0
   27.2304   35.8646   22.2856 C   0  0  2  0  0  0  0  0  0  0  0  0
   26.7430   36.2071   23.5324 N   0  0  0  0  0  0  0  0  0  0  0  0
   27.1154   34.5504   21.8311 C   0  0  0  0  0  0  0  0  0  0  0  0
   27.6068   34.1940   20.5808 C   0  0  1  0  0  0  0  0  0  0  0  0
   27.4691   32.7748   20.1282 C   0  0  0  0  0  0  0  0  0  0  0  0
   28.2171   35.1629   19.7699 C   0  0  1  0  0  0  0  0  0  0  0  0
   28.7536   34.8207   18.4070 C   0  0  0  0  0  0  0  0  0  0  0  0
   28.3318   36.4731   20.2268 C   0  0  0  0  0  0  0  0  0  0  0  0
   27.8424   36.8313   21.4842 C   0  0  1  0  0  0  0  0  0  0  0  0
   27.4617   38.4761   23.1859 C   0  0  1  0  0  0  0  0  0  0  0  0
   27.9578   38.1352   21.9421 N   0  0  0  0  0  0  0  0  0  0  0  0
  1  2  1  1  0  0  0
  1  3  1  0  0  0  0
  1  4  2  0  0  0  0
  1  6  1  0  0  0  0
  5  6  1  0  0  0  0
  7  5  1  6  0  0  0
  7  8  1  0  0  0  0
  7  9  1  0  0  0  0
  9 10  1  1  0  0  0
  9 11  1  0  0  0  0
 11 12  1  6  0  0  0
 11 13  1  0  0  0  0
 13 31  1  0  0  0  0
 14 15  1  0  0  0  0
 15 16  2  0  0  0  0
 15 17  1  0  0  0  0
 17 18  1  0  0  0  0
 18 20  2  0  0  0  0
 19 18  1  6  0  0  0
 19 22  1  0  0  0  0
 19 30  1  0  0  0  0
 21 23  1  1  0  0  0
 21 29  1  0  0  0  0
 21 22  1  0  0  0  0
 23 24  1  0  0  0  0
 24 25  1  6  0  0  0
 24 26  1  0  0  0  0
 26 27  1  6  0  0  0
 26 28  1  0  0  0  0
 29 28  1  6  0  0  0
 29 31  1  0  0  0  0
 30 14  1  6  0  0  0
 30 31  1  0  0  0  0
M  CHG  1   3  -1
M  END
>  <CHROM.1>
-173.01456000,72.36815316,68.89977841,161.44402210,58.34396207,158.84486147
117.44786830,27.14287269,39.53211654,20.79188955,-2.46772570,-1.43587653
1.57425053

>  <Name>
ligand

>  <RI>
0

>  <Rbt.Current_Directory>
/home/itssahil/PROJECTS/Mol_Feturizer/New_Systems/rnas/3F2T

>  <Rbt.Executable>
rbdock ($Id: //depot/dev/client3/rdock/2013.1/src/exe/rbdock.cxx#4 $)

>  <Rbt.Library>
libRbt.so (2013.1, Build901 2013/11/27)

>  <Rbt.Parameter_File>
/export/apps/rDock/src/rDock_2013.1_src/data/scripts/dock_solv.prm

>  <Rbt.Receptor>
prm/blind_docking_60.prm

>  <SCORE>
-27.5245

>  <SCORE.INTER>
-27.9727

>  <SCORE.INTER.CONST>
1

>  <SCORE.INTER.POLAR>
0

>  <SCORE.INTER.ROT>
7

>  <SCORE.INTER.SOLV>
20.2144

>  <SCORE.INTER.VDW>
-33.6532

>  <SCORE.INTER.norm>
-0.902344

>  <SCORE.INTRA>
0.448143

>  <SCORE.INTRA.DIHEDRAL>
-0.0245565

>  <SCORE.INTRA.DIHEDRAL.0>
4.64198

>  <SCORE.INTRA.POLAR>
0

>  <SCORE.INTRA.POLAR.0>
0

>  <SCORE.INTRA.REPUL>
0

>  <SCORE.INTRA.REPUL.0>
0

>  <SCORE.INTRA.SOLV>
-0.389831

>  <SCORE.INTRA.SOLV.lig_0>
-49.3611

>  <SCORE.INTRA.VDW>
0.655336

>  <SCORE.INTRA.VDW.0>
-1.91858

>  <SCORE.INTRA.norm>
0.0144562

>  <SCORE.RESTR>
0

>  <SCORE.RESTR.CAVITY>
0

>  <SCORE.RESTR.norm>
0

>  <SCORE.SYSTEM>
0

>  <SCORE.SYSTEM.CONST>
0

>  <SCORE.SYSTEM.DIHEDRAL>
0

>  <SCORE.SYSTEM.SOLV>
0

>  <SCORE.SYSTEM.norm>
0

>  <SCORE.heavy>
31

>  <SCORE.norm>
-0.887888

>  <RMSD>
5.011

$$$$
ligand
 OpenBabel11021811473D
libRbt.so/2013.1/901 2013/11/27
 31 33  0  0  0  0  0  0  0  0999 V2000
   28.2428   42.6641   16.5187 P   0  0  1  0  0  0  0  0  0  0  0  0
   28.8983   43.4032   17.6577 O   0  0  0  0  0  0  0  0  0  0  0  0
   27.3772   43.6288   15.7524 O   0  5  0  0  0  0  0  0  0  0  0  0
   29.3546   42.1044   15.6745 O   0  0  0  0  0  0  0  0  0  0  0  0
   26.2456   41.6831   17.9041 C   0  0  0  0  0  0  0  0  0  0  0  0
   27.3147   41.4499   17.0110 O   0  0  0  0  0  0  0  0  0  0  0  0
   26.7966   42.2488   19.2104 C   0  0  1  0  0  0  0  0  0  0  0  0
   25.7525   42.3706   20.1559 O   0  0  0  0  0  0  0  0  0  0  0  0
   27.8640   41.3227   19.7687 C   0  0  1  0  0  0  0  0  0  0  0  0
   28.5700   42.0100   20.7669 O   0  0  0  0  0  0  0  0  0  0  0  0
   27.2820   40.0519   20.3646 C   0  0  1  0  0  0  0  0  0  0  0  0
   26.6479   39.3357   19.3395 O   0  0  0  0  0  0  0  0  0  0  0  0
   28.3740   39.1896   20.9758 C   0  0  0  0  0  0  0  0  0  0  0  0
   27.4167   39.9909   23.4980 N   0  0  0  0  0  0  0  0  0  0  0  0
   27.0157   40.4238   24.7432 C   0  0  0  0  0  0  0  0  0  0  0  0
   27.0578   41.6183   25.0230 O   0  0  0  0  0  0  0  0  0  0  0  0
   26.5676   39.5245   25.6837 N   0  0  0  0  0  0  0  0  0  0  0  0
   26.5050   38.1778   25.3828 C   0  0  0  0  0  0  0  0  0  0  0  0
   26.9082   37.7316   24.1292 C   0  0  1  0  0  0  0  0  0  0  0  0
   26.0851   37.3786   26.2222 O   0  0  0  0  0  0  0  0  0  0  0  0
   27.2495   35.9459   22.5753 C   0  0  2  0  0  0  0  0  0  0  0  0
   26.8500   36.3868   23.8225 N   0  0  0  0  0  0  0  0  0  0  0  0
   27.1903   34.5865   22.2666 C   0  0  0  0  0  0  0  0  0  0  0  0
   27.5946   34.1317   21.0170 C   0  0  1  0  0  0  0  0  0  0  0  0
   27.5205   32.6669   20.7227 C   0  0  0  0  0  0  0  0  0  0  0  0
   28.0599   35.0460   20.0597 C   0  0  1  0  0  0  0  0  0  0  0  0
   28.4981   34.5962   18.6930 C   0  0  0  0  0  0  0  0  0  0  0  0
   28.1194   36.4017   20.3713 C   0  0  0  0  0  0  0  0  0  0  0  0
   27.7176   36.8592   21.6276 C   0  0  1  0  0  0  0  0  0  0  0  0
   27.3698   38.6472   23.1857 C   0  0  1  0  0  0  0  0  0  0  0  0
   27.7783   38.2088   21.9406 N   0  0  0  0  0  0  0  0  0  0  0  0
  1  2  1  1  0  0  0
  1  3  1  0  0  0  0
  1  4  2  0  0  0  0
  1  6  1  0  0  0  0
  5  6  1  0  0  0  0
  7  5  1  6  0  0  0
  7  8  1  0  0  0  0
  7  9  1  0  0  0  0
  9 10  1  1  0  0  0
  9 11  1  0  0  0  0
 11 12  1  6  0  0  0
 11 13  1  0  0  0  0
 13 31  1  0  0  0  0
 14 15  1  0  0  0  0
 15 16  2  0  0  0  0
 15 17  1  0  0  0  0
 17 18  1  0  0  0  0
 18 20  2  0  0  0  0
 19 18  1  6  0  0  0
 19 22  1  0  0  0  0
 19 30  1  0  0  0  0
 21 23  1  1  0  0  0
 21 29  1  0  0  0  0
 21 22  1  0  0  0  0
 23 24  1  0  0  0  0
 24 25  1  6  0  0  0
 24 26  1  0  0  0  0
 26 27  1  6  0  0  0
 26 28  1  0  0  0  0
 29 28  1  6  0  0  0
 29 31  1  0  0  0  0
 30 14  1  6  0  0  0
 30 31  1  0  0  0  0
M  CHG  1   3  -1
M  END
>  <CHROM.1>
-61.12695132,57.43649631,-174.61821380,165.78457261,63.15773832,160.91694897
108.37004979,27.46424706,39.32143059,20.74658792,-1.07944897,-1.38483698
2.82944876

>  <Name>
ligand

>  <RI>
0

>  <Rbt.Current_Directory>
/home/itssahil/PROJECTS/Mol_Feturizer/New_Systems/rnas/3F2T

>  <Rbt.Executable>
rbdock ($Id: //depot/dev/client3/rdock/2013.1/src/exe/rbdock.cxx#4 $)

>  <Rbt.Library>
libRbt.so (2013.1, Build901 2013/11/27)

>  <Rbt.Parameter_File>
/export/apps/rDock/src/rDock_2013.1_src/data/scripts/dock_solv.prm

>  <Rbt.Receptor>
prm/blind_docking_60.prm

>  <SCORE>
-27.6907

>  <SCORE.INTER>
-28.1564

>  <SCORE.INTER.CONST>
1

>  <SCORE.INTER.POLAR>
0

>  <SCORE.INTER.ROT>
7

>  <SCORE.INTER.SOLV>
22.401

>  <SCORE.INTER.VDW>
-34.5046

>  <SCORE.INTER.norm>
-0.908271

>  <SCORE.INTRA>
0.465672

>  <SCORE.INTRA.DIHEDRAL>
-1.26086

>  <SCORE.INTRA.DIHEDRAL.0>
4.64198

>  <SCORE.INTRA.POLAR>
0

>  <SCORE.INTRA.POLAR.0>
0

>  <SCORE.INTRA.REPUL>
0

>  <SCORE.INTRA.REPUL.0>
0

>  <SCORE.INTRA.SOLV>
1.05879

>  <SCORE.INTRA.SOLV.lig_0>
-49.3611

>  <SCORE.INTRA.VDW>
0.566712

>  <SCORE.INTRA.VDW.0>
-1.91858

>  <SCORE.INTRA.norm>
0.0150217

>  <SCORE.RESTR>
0

>  <SCORE.RESTR.CAVITY>
0

>  <SCORE.RESTR.norm>
0

>  <SCORE.SYSTEM>
0

>  <SCORE.SYSTEM.CONST>
0

>  <SCORE.SYSTEM.DIHEDRAL>
0

>  <SCORE.SYSTEM.SOLV>
0

>  <SCORE.SYSTEM.norm>
0

>  <SCORE.heavy>
31

>  <SCORE.norm>
-0.893249

>  <RMSD>
5.024

$$$$
ligand
 OpenBabel11021811473D
libRbt.so/2013.1/901 2013/11/27
 31 33  0  0  0  0  0  0  0  0999 V2000
   26.3667   43.3987   16.6758 P   0  0  1  0  0  0  0  0  0  0  0  0
   27.2551   42.9597   15.5395 O   0  0  0  0  0  0  0  0  0  0  0  0
   26.3435   44.9037   16.7160 O   0  5  0  0  0  0  0  0  0  0  0  0
   25.0064   42.8166   16.4061 O   0  0  0  0  0  0  0  0  0  0  0  0
   25.9422   42.5088   19.1045 C   0  0  0  0  0  0  0  0  0  0  0  0
   26.8726   42.8731   18.1062 O   0  0  0  0  0  0  0  0  0  0  0  0
   26.6576   42.4217   20.4501 C   0  0  1  0  0  0  0  0  0  0  0  0
   25.7284   42.0953   21.4645 O   0  0  0  0  0  0  0  0  0  0  0  0
   27.7318   41.3483   20.3992 C   0  0  1  0  0  0  0  0  0  0  0  0
   28.6023   41.5399   21.4822 O   0  0  0  0  0  0  0  0  0  0  0  0
   27.1583   39.9432   20.4721 C   0  0  1  0  0  0  0  0  0  0  0  0
   26.6386   39.6144   19.2120 O   0  0  0  0  0  0  0  0  0  0  0  0
   28.2334   38.9370   20.8480 C   0  0  0  0  0  0  0  0  0  0  0  0
   27.4468   39.8973   23.3736 N   0  0  0  0  0  0  0  0  0  0  0  0
   27.1290   40.4097   24.6127 C   0  0  0  0  0  0  0  0  0  0  0  0
   27.1685   41.6211   24.8068 O   0  0  0  0  0  0  0  0  0  0  0  0
   26.7678   39.5713   25.6426 N   0  0  0  0  0  0  0  0  0  0  0  0
   26.7092   38.2064   25.4394 C   0  0  0  0  0  0  0  0  0  0  0  0
   27.0288   37.6802   24.1927 C   0  0  1  0  0  0  0  0  0  0  0  0
   26.3668   37.4613   26.3599 O   0  0  0  0  0  0  0  0  0  0  0  0
   27.2904   35.7963   22.7428 C   0  0  2  0  0  0  0  0  0  0  0  0
   26.9741   36.3167   23.9833 N   0  0  0  0  0  0  0  0  0  0  0  0
   27.2348   34.4181   22.5325 C   0  0  0  0  0  0  0  0  0  0  0  0
   27.5559   33.8837   21.2902 C   0  0  1  0  0  0  0  0  0  0  0  0
   27.4887   32.4010   21.1024 C   0  0  0  0  0  0  0  0  0  0  0  0
   27.9329   34.7359   20.2413 C   0  0  1  0  0  0  0  0  0  0  0  0
   28.2792   34.1989   18.8797 C   0  0  0  0  0  0  0  0  0  0  0  0
   27.9889   36.1107   20.4548 C   0  0  0  0  0  0  0  0  0  0  0  0
   27.6707   36.6483   21.7033 C   0  0  1  0  0  0  0  0  0  0  0  0
   27.4030   38.5347   23.1577 C   0  0  1  0  0  0  0  0  0  0  0  0
   27.7282   38.0170   21.9185 N   0  0  0  0  0  0  0  0  0  0  0  0
  1  2  1  6  0  0  0
  1  3  1  0  0  0  0
  1  4  2  0  0  0  0
  1  6  1  0  0  0  0
  5  6  1  0  0  0  0
  7  5  1  6  0  0  0
  7  8  1  0  0  0  0
  7  9  1  0  0  0  0
  9 10  1  1  0  0  0
  9 11  1  0  0  0  0
 11 12  1  6  0  0  0
 11 13  1  0  0  0  0
 13 31  1  0  0  0  0
 14 15  1  0  0  0  0
 15 16  2  0  0  0  0
 15 17  1  0  0  0  0
 17 18  1  0  0  0  0
 18 20  2  0  0  0  0
 19 18  1  6  0  0  0
 19 22  1  0  0  0  0
 19 30  1  0  0  0  0
 21 23  1  1  0  0  0
 21 29  1  0  0  0  0
 21 22  1  0  0  0  0
 23 24  1  0  0  0  0
 24 25  1  6  0  0  0
 24 26  1  0  0  0  0
 26 27  1  6  0  0  0
 26 28  1  0  0  0  0
 29 28  1  6  0  0  0
 29 31  1  0  0  0  0
 30 14  1  6  0  0  0
 30 31  1  0  0  0  0
M  CHG  1   3  -1
M  END
>  <CHROM.1>
-164.59100487,-144.71641032,178.32131643,163.68266245,77.68209907,133.70575804
120.52557165,27.06353884,39.41219843,20.98251473,-2.41199486,-1.43873667
1.64920535

>  <Name>
ligand

>  <RI>
0

>  <Rbt.Current_Directory>
/home/itssahil/PROJECTS/Mol_Feturizer/New_Systems/rnas/3F2T

>  <Rbt.Executable>
rbdock ($Id: //depot/dev/client3/rdock/2013.1/src/exe/rbdock.cxx#4 $)

>  <Rbt.Library>
libRbt.so (2013.1, Build901 2013/11/27)

>  <Rbt.Parameter_File>
/export/apps/rDock/src/rDock_2013.1_src/data/scripts/dock_solv.prm

>  <Rbt.Receptor>
prm/pocket_docking_3.prm

>  <SCORE>
-24.5539

>  <SCORE.INTER>
-28.2714

>  <SCORE.INTER.CONST>
1

>  <SCORE.INTER.POLAR>
0

>  <SCORE.INTER.ROT>
7

>  <SCORE.INTER.SOLV>
19.2409

>  <SCORE.INTER.VDW>
-33.5279

>  <SCORE.INTER.norm>
-0.91198

>  <SCORE.INTRA>
3.71517

>  <SCORE.INTRA.DIHEDRAL>
5.79914

>  <SCORE.INTRA.DIHEDRAL.0>
4.64198

>  <SCORE.INTRA.POLAR>
0

>  <SCORE.INTRA.POLAR.0>
0

>  <SCORE.INTRA.REPUL>
0

>  <SCORE.INTRA.REPUL.0>
0

>  <SCORE.INTRA.SOLV>
0.463826

>  <SCORE.INTRA.SOLV.lig_0>
-49.3611

>  <SCORE.INTRA.VDW>
0.583683

>  <SCORE.INTRA.VDW.0>
-1.91858

>  <SCORE.INTRA.norm>
0.119844

>  <SCORE.RESTR>
0.00226501

>  <SCORE.RESTR.CAVITY>
0.00226501

>  <SCORE.RESTR.norm>
7.30649e-05

>  <SCORE.SYSTEM>
0

>  <SCORE.SYSTEM.CONST>
0

>  <SCORE.SYSTEM.DIHEDRAL>
0

>  <SCORE.SYSTEM.SOLV>
0

>  <SCORE.SYSTEM.norm>
0

>  <SCORE.heavy>
31

>  <SCORE.norm>
-0.792063

>  <RMSD>
5.024

$$$$
ligand
 OpenBabel11021811473D
libRbt.so/2013.1/901 2013/11/27
 31 33  0  0  0  0  0  0  0  0999 V2000
   25.8482   44.8280   16.3132 P   0  0  1  0  0  0  0  0  0  0  0  0
   24.6048   45.0708   15.4957 O   0  0  0  0  0  0  0  0  0  0  0  0
   26.9653   44.4303   15.3854 O   0  5  0  0  0  0  0  0  0  0  0  0
   26.1420   46.1125   17.0384 O   0  0  0  0  0  0  0  0  0  0  0  0
   26.7938   42.9969   17.9328 C   0  0  0  0  0  0  0  0  0  0  0  0
   25.6663   43.6589   17.3986 O   0  0  0  0  0  0  0  0  0  0  0  0
   26.3313   41.9638   18.9571 C   0  0  1  0  0  0  0  0  0  0  0  0
   25.3612   41.1159   18.3752 O   0  0  0  0  0  0  0  0  0  0  0  0
   27.5109   41.1236   19.4169 C   0  0  1  0  0  0  0  0  0  0  0  0
   28.3278   41.9164   20.2363 O   0  0  0  0  0  0  0  0  0  0  0  0
   27.0827   39.8908   20.1951 C   0  0  1  0  0  0  0  0  0  0  0  0
   26.4870   38.9907   19.3001 O   0  0  0  0  0  0  0  0  0  0  0  0
   28.2779   39.2232   20.8549 C   0  0  0  0  0  0  0  0  0  0  0  0
   27.5948   40.0991   23.4406 N   0  0  0  0  0  0  0  0  0  0  0  0
   27.3279   40.5701   24.7078 C   0  0  0  0  0  0  0  0  0  0  0  0
   27.3757   41.7745   24.9399 O   0  0  0  0  0  0  0  0  0  0  0  0
   27.0085   39.6980   25.7234 N   0  0  0  0  0  0  0  0  0  0  0  0
   26.9412   38.3403   25.4779 C   0  0  0  0  0  0  0  0  0  0  0  0
   27.2097   37.8558   24.2026 C   0  0  1  0  0  0  0  0  0  0  0  0
   26.6363   37.5650   26.3865 O   0  0  0  0  0  0  0  0  0  0  0  0
   27.4115   36.0209   22.6820 C   0  0  2  0  0  0  0  0  0  0  0  0
   27.1461   36.4999   23.9507 N   0  0  0  0  0  0  0  0  0  0  0  0
   27.3470   34.6503   22.4288 C   0  0  0  0  0  0  0  0  0  0  0  0
   27.6171   34.1574   21.1576 C   0  0  1  0  0  0  0  0  0  0  0  0
   27.5418   32.6817   20.9240 C   0  0  0  0  0  0  0  0  0  0  0  0
   27.9514   35.0441   20.1229 C   0  0  1  0  0  0  0  0  0  0  0  0
   28.2419   34.5525   18.7314 C   0  0  0  0  0  0  0  0  0  0  0  0
   28.0166   36.4112   20.3791 C   0  0  0  0  0  0  0  0  0  0  0  0
   27.7496   36.9070   21.6565 C   0  0  1  0  0  0  0  0  0  0  0  0
   27.5419   38.7443   23.1819 C   0  0  1  0  0  0  0  0  0  0  0  0
   27.8162   38.2680   21.9142 N   0  0  0  0  0  0  0  0  0  0  0  0
  1  2  1  6  0  0  0
  1  3  1  0  0  0  0
  1  4  2  0  0  0  0
  1  6  1  0  0  0  0
  5  6  1  0  0  0  0
  7  5  1  6  0  0  0
  7  8  1  0  0  0  0
  7  9  1  0  0  0  0
  9 10  1  1  0  0  0
  9 11  1  0  0  0  0
 11 12  1  6  0  0  0
 11 13  1  0  0  0  0
 13 31  1  0  0  0  0
 14 15  1  0  0  0  0
 15 16  2  0  0  0  0
 15 17  1  0  0  0  0
 17 18  1  0  0  0  0
 18 20  2  0  0  0  0
 19 18  1  6  0  0  0
 19 22  1  0  0  0  0
 19 30  1  0  0  0  0
 21 23  1  1  0  0  0
 21 29  1  0  0  0  0
 21 22  1  0  0  0  0
 23 24  1  0  0  0  0
 24 25  1  6  0  0  0
 24 26  1  0  0  0  0
 26 27  1  6  0  0  0
 26 28  1  0  0  0  0
 29 28  1  6  0  0  0
 29 31  1  0  0  0  0
 30 14  1  6  0  0  0
 30 31  1  0  0  0  0
M  CHG  1   3  -1
M  END
>  <CHROM.1>
178.67215089,159.01178467,53.11499063,72.01438235,70.76853679,163.91713706
99.78678758,27.00358703,39.78950147,20.62602239,-2.82871652,-1.42170784,1.21919068

>  <Name>
ligand

>  <RI>
0

>  <Rbt.Current_Directory>
/home/itssahil/PROJECTS/Mol_Feturizer/New_Systems/rnas/3F2T

>  <Rbt.Executable>
rbdock ($Id: //depot/dev/client3/rdock/2013.1/src/exe/rbdock.cxx#4 $)

>  <Rbt.Library>
libRbt.so (2013.1, Build901 2013/11/27)

>  <Rbt.Parameter_File>
/export/apps/rDock/src/rDock_2013.1_src/data/scripts/dock_solv.prm

>  <Rbt.Receptor>
prm/pocket_docking_3.prm

>  <SCORE>
-26.0952

>  <SCORE.INTER>
-26.4124

>  <SCORE.INTER.CONST>
1

>  <SCORE.INTER.POLAR>
0

>  <SCORE.INTER.ROT>
7

>  <SCORE.INTER.SOLV>
23.1141

>  <SCORE.INTER.VDW>
-33.5797

>  <SCORE.INTER.norm>
-0.852014

>  <SCORE.INTRA>
0.30473

>  <SCORE.INTRA.DIHEDRAL>
-0.630145

>  <SCORE.INTRA.DIHEDRAL.0>
4.64198

>  <SCORE.INTRA.POLAR>
0

>  <SCORE.INTRA.POLAR.0>
0

>  <SCORE.INTRA.REPUL>
0

>  <SCORE.INTRA.REPUL.0>
0

>  <SCORE.INTRA.SOLV>
-0.0395313

>  <SCORE.INTRA.SOLV.lig_0>
-49.3611

>  <SCORE.INTRA.VDW>
0.639569

>  <SCORE.INTRA.VDW.0>
-1.91858

>  <SCORE.INTRA.norm>
0.00983001

>  <SCORE.RESTR>
0.0124676

>  <SCORE.RESTR.CAVITY>
0.0124676

>  <SCORE.RESTR.norm>
0.000402182

>  <SCORE.SYSTEM>
0

>  <SCORE.SYSTEM.CONST>
0

>  <SCORE.SYSTEM.DIHEDRAL>
0

>  <SCORE.SYSTEM.SOLV>
0

>  <SCORE.SYSTEM.norm>
0

>  <SCORE.heavy>
31

>  <SCORE.norm>
-0.841782

>  <RMSD>
5.027

$$$$
ligand
 OpenBabel11021811473D
libRbt.so/2013.1/901 2013/11/27
 31 33  0  0  0  0  0  0  0  0999 V2000
   25.7905   42.8254   16.9177 P   0  0  1  0  0  0  0  0  0  0  0  0
   24.5179   43.0096   16.1304 O   0  0  0  0  0  0  0  0  0  0  0  0
   26.4440   44.1696   17.0994 O   0  5  0  0  0  0  0  0  0  0  0  0
   25.3971   42.2030   18.2291 O   0  0  0  0  0  0  0  0  0  0  0  0
   28.0502   41.5001   16.8307 C   0  0  0  0  0  0  0  0  0  0  0  0
   26.8440   41.8574   16.1887 O   0  0  0  0  0  0  0  0  0  0  0  0
   27.7611   40.4375   17.8879 C   0  0  1  0  0  0  0  0  0  0  0  0
   27.7181   39.1608   17.2822 O   0  0  0  0  0  0  0  0  0  0  0  0
   28.8516   40.4467   18.9459 C   0  0  1  0  0  0  0  0  0  0  0  0
   28.7706   41.6535   19.6562 O   0  0  0  0  0  0  0  0  0  0  0  0
   28.7267   39.2910   19.9244 C   0  0  1  0  0  0  0  0  0  0  0  0
   29.7607   39.3979   20.8654 O   0  0  0  0  0  0  0  0  0  0  0  0
   27.3889   39.3315   20.6442 C   0  0  0  0  0  0  0  0  0  0  0  0
   27.3346   40.1363   23.3404 N   0  0  0  0  0  0  0  0  0  0  0  0
   27.3668   40.5816   24.6441 C   0  0  0  0  0  0  0  0  0  0  0  0
   27.3107   41.7837   24.8859 O   0  0  0  0  0  0  0  0  0  0  0  0
   27.4642   39.6864   25.6848 N   0  0  0  0  0  0  0  0  0  0  0  0
   27.5190   38.3296   25.4315 C   0  0  0  0  0  0  0  0  0  0  0  0
   27.4880   37.8711   24.1192 C   0  0  1  0  0  0  0  0  0  0  0  0
   27.5872   37.5310   26.3680 O   0  0  0  0  0  0  0  0  0  0  0  0
   27.5115   36.0632   22.5539 C   0  0  2  0  0  0  0  0  0  0  0  0
   27.5444   36.5166   23.8588 N   0  0  0  0  0  0  0  0  0  0  0  0
   27.5687   34.6938   22.2920 C   0  0  0  0  0  0  0  0  0  0  0  0
   27.5415   34.2273   20.9830 C   0  0  1  0  0  0  0  0  0  0  0  0
   27.6082   32.7527   20.7401 C   0  0  0  0  0  0  0  0  0  0  0  0
   27.4510   35.1388   19.9201 C   0  0  1  0  0  0  0  0  0  0  0  0
   27.4097   34.6749   18.4899 C   0  0  0  0  0  0  0  0  0  0  0  0
   27.3958   36.5047   20.1845 C   0  0  0  0  0  0  0  0  0  0  0  0
   27.4272   36.9747   21.4987 C   0  0  1  0  0  0  0  0  0  0  0  0
   27.3991   38.7842   23.0705 C   0  0  1  0  0  0  0  0  0  0  0  0
   27.3746   38.3348   21.7641 N   0  0  0  0  0  0  0  0  0  0  0  0
  1  2  1  6  0  0  0
  1  3  1  0  0  0  0
  1  4  2  0  0  0  0
  1  6  1  0  0  0  0
  5  6  1  0  0  0  0
  7  5  1  6  0  0  0
  7  8  1  0  0  0  0
  7  9  1  0  0  0  0
  9 10  1  1  0  0  0
  9 11  1  0  0  0  0
 11 12  1  1  0  0  0
 11 13  1  0  0  0  0
 13 31  1  0  0  0  0
 14 15  1  0  0  0  0
 15 16  2  0  0  0  0
 15 17  1  0  0  0  0
 17 18  1  0  0  0  0
 18 20  2  0  0  0  0
 19 18  1  1  0  0  0
 19 22  1  0  0  0  0
 19 30  1  0  0  0  0
 21 23  1  6  0  0  0
 21 29  1  0  0  0  0
 21 22  1  0  0  0  0
 23 24  1  0  0  0  0
 24 25  1  1  0  0  0
 24 26  1  0  0  0  0
 26 27  1  1  0  0  0
 26 28  1  0  0  0  0
 29 28  1  1  0  0  0
 29 31  1  0  0  0  0
 30 14  1  1  0  0  0
 30 31  1  0  0  0  0
M  CHG  1   3  -1
M  END
>  <CHROM.1>
76.81188555,-175.50281520,83.32483997,67.19956795,-179.20384686,-170.34072502
-66.25773267,27.34857400,39.19647912,20.58985989,2.90612436,1.43609733,-2.18021251

>  <Name>
ligand

>  <RI>
0

>  <Rbt.Current_Directory>
/home/itssahil/PROJECTS/Mol_Feturizer/New_Systems/rnas/3F2T

>  <Rbt.Executable>
rbdock ($Id: //depot/dev/client3/rdock/2013.1/src/exe/rbdock.cxx#4 $)

>  <Rbt.Library>
libRbt.so (2013.1, Build901 2013/11/27)

>  <Rbt.Parameter_File>
/export/apps/rDock/src/rDock_2013.1_src/data/scripts/dock_solv.prm

>  <Rbt.Receptor>
prm/pocket_docking_5.prm

>  <SCORE>
-22.297

>  <SCORE.INTER>
-23.7314

>  <SCORE.INTER.CONST>
1

>  <SCORE.INTER.POLAR>
0

>  <SCORE.INTER.ROT>
7

>  <SCORE.INTER.SOLV>
15.2098

>  <SCORE.INTER.VDW>
-29.1575

>  <SCORE.INTER.norm>
-0.765529

>  <SCORE.INTRA>
1.43444

>  <SCORE.INTRA.DIHEDRAL>
0.0941132

>  <SCORE.INTRA.DIHEDRAL.0>
4.64198

>  <SCORE.INTRA.POLAR>
0

>  <SCORE.INTRA.POLAR.0>
0

>  <SCORE.INTRA.REPUL>
0

>  <SCORE.INTRA.REPUL.0>
0

>  <SCORE.INTRA.SOLV>
2.66377

>  <SCORE.INTRA.SOLV.lig_0>
-49.3611

>  <SCORE.INTRA.VDW>
0.0554918

>  <SCORE.INTRA.VDW.0>
-1.91858

>  <SCORE.INTRA.norm>
0.0462721

>  <SCORE.RESTR>
0

>  <SCORE.RESTR.CAVITY>
0

>  <SCORE.RESTR.norm>
0

>  <SCORE.SYSTEM>
0

>  <SCORE.SYSTEM.CONST>
0

>  <SCORE.SYSTEM.DIHEDRAL>
0

>  <SCORE.SYSTEM.SOLV>
0

>  <SCORE.SYSTEM.norm>
0

>  <SCORE.heavy>
31

>  <SCORE.norm>
-0.719257

>  <RMSD>
5.028

$$$$
ligand
 OpenBabel11021811473D
libRbt.so/2013.1/901 2013/11/27
 31 33  0  0  0  0  0  0  0  0999 V2000
   26.9405   35.1583   14.5363 P   0  0  1  0  0  0  0  0  0  0  0  0
   26.5428   36.6011   14.7190 O   0  0  0  0  0  0  0  0  0  0  0  0
   25.9661   34.5053   13.5924 O   0  5  0  0  0  0  0  0  0  0  0  0
   28.3420   35.1657   13.9906 O   0  0  0  0  0  0  0  0  0  0  0  0
   27.9142   34.5649   16.8965 C   0  0  0  0  0  0  0  0  0  0  0  0
   26.9318   34.3270   15.9100 O   0  0  0  0  0  0  0  0  0  0  0  0
   27.7993   36.0075   17.3822 C   0  0  1  0  0  0  0  0  0  0  0  0
   26.5033   36.2354   17.8991 O   0  0  0  0  0  0  0  0  0  0  0  0
   28.8212   36.2709   18.4754 C   0  0  1  0  0  0  0  0  0  0  0  0
   30.0829   35.8743   18.0083 O   0  0  0  0  0  0  0  0  0  0  0  0
   28.8837   37.7349   18.8771 C   0  0  1  0  0  0  0  0  0  0  0  0
   29.0761   38.5010   17.7186 O   0  0  0  0  0  0  0  0  0  0  0  0
   27.5938   38.1674   19.5543 C   0  0  0  0  0  0  0  0  0  0  0  0
   27.3578   35.9165   21.2270 N   0  0  0  0  0  0  0  0  0  0  0  0
   27.1740   34.7970   22.0091 C   0  0  0  0  0  0  0  0  0  0  0  0
   26.9413   33.7114   21.4854 O   0  0  0  0  0  0  0  0  0  0  0  0
   27.2468   34.8844   23.3806 N   0  0  0  0  0  0  0  0  0  0  0  0
   27.5169   36.0960   23.9863 C   0  0  0  0  0  0  0  0  0  0  0  0
   27.7030   37.2313   23.2053 C   0  0  1  0  0  0  0  0  0  0  0  0
   27.5997   36.1653   25.2142 O   0  0  0  0  0  0  0  0  0  0  0  0
   28.1579   39.5723   23.0259 C   0  0  2  0  0  0  0  0  0  0  0  0
   27.9714   38.4458   23.8042 N   0  0  0  0  0  0  0  0  0  0  0  0
   28.4290   40.7993   23.6324 C   0  0  0  0  0  0  0  0  0  0  0  0
   28.6131   41.9395   22.8592 C   0  0  1  0  0  0  0  0  0  0  0  0
   28.8986   43.2385   23.5443 C   0  0  0  0  0  0  0  0  0  0  0  0
   28.5308   41.8543   21.4612 C   0  0  1  0  0  0  0  0  0  0  0  0
   28.7326   43.0623   20.5881 C   0  0  0  0  0  0  0  0  0  0  0  0
   28.2585   40.6288   20.8589 C   0  0  0  0  0  0  0  0  0  0  0  0
   28.0692   39.4837   21.6347 C   0  0  1  0  0  0  0  0  0  0  0  0
   27.6182   37.1366   21.8177 C   0  0  1  0  0  0  0  0  0  0  0  0
   27.7956   38.2626   21.0368 N   0  0  0  0  0  0  0  0  0  0  0  0
  1  2  1  1  0  0  0
  1  3  1  0  0  0  0
  1  4  2  0  0  0  0
  1  6  1  0  0  0  0
  5  6  1  0  0  0  0
  7  5  1  1  0  0  0
  7  8  1  0  0  0  0
  7  9  1  0  0  0  0
  9 10  1  6  0  0  0
  9 11  1  0  0  0  0
 11 12  1  6  0  0  0
 11 13  1  0  0  0  0
 13 31  1  0  0  0  0
 14 15  1  0  0  0  0
 15 16  2  0  0  0  0
 15 17  1  0  0  0  0
 17 18  1  0  0  0  0
 18 20  2  0  0  0  0
 19 18  1  6  0  0  0
 19 22  1  0  0  0  0
 19 30  1  0  0  0  0
 21 23  1  1  0  0  0
 21 29  1  0  0  0  0
 21 22  1  0  0  0  0
 23 24  1  0  0  0  0
 24 25  1  6  0  0  0
 24 26  1  0  0  0  0
 26 27  1  6  0  0  0
 26 28  1  0  0  0  0
 29 28  1  6  0  0  0
 29 31  1  0  0  0  0
 30 14  1  6  0  0  0
 30 31  1  0  0  0  0
M  CHG  1   3  -1
M  END
>  <CHROM.1>
61.91075206,-70.87207626,58.36230973,51.97326714,-52.94217665,103.52970811
97.10430796,27.81754491,37.29994330,19.68250099,-2.12664366,1.36983033,1.58116741

>  <Name>
ligand

>  <RI>
0

>  <Rbt.Current_Directory>
/home/itssahil/PROJECTS/Mol_Feturizer/New_Systems/rnas/3F2T

>  <Rbt.Executable>
rbdock ($Id: //depot/dev/client3/rdock/2013.1/src/exe/rbdock.cxx#4 $)

>  <Rbt.Library>
libRbt.so (2013.1, Build901 2013/11/27)

>  <Rbt.Parameter_File>
/export/apps/rDock/src/rDock_2013.1_src/data/scripts/dock_solv.prm

>  <Rbt.Receptor>
prm/pocket_docking_8.prm

>  <SCORE>
-19.9732

>  <SCORE.INTER>
-21.826

>  <SCORE.INTER.CONST>
1

>  <SCORE.INTER.POLAR>
0

>  <SCORE.INTER.ROT>
7

>  <SCORE.INTER.SOLV>
12.0219

>  <SCORE.INTER.VDW>
-26.8247

>  <SCORE.INTER.norm>
-0.704065

>  <SCORE.INTRA>
1.85118

>  <SCORE.INTRA.DIHEDRAL>
1.7114

>  <SCORE.INTRA.DIHEDRAL.0>
4.64198

>  <SCORE.INTRA.POLAR>
0

>  <SCORE.INTRA.POLAR.0>
0

>  <SCORE.INTRA.REPUL>
0

>  <SCORE.INTRA.REPUL.0>
0

>  <SCORE.INTRA.SOLV>
0.966837

>  <SCORE.INTRA.SOLV.lig_0>
-49.3611

>  <SCORE.INTRA.VDW>
0.512064

>  <SCORE.INTRA.VDW.0>
-1.91858

>  <SCORE.INTRA.norm>
0.0597156

>  <SCORE.RESTR>
0.00164218

>  <SCORE.RESTR.CAVITY>
0.00164218

>  <SCORE.RESTR.norm>
5.29734e-05

>  <SCORE.SYSTEM>
0

>  <SCORE.SYSTEM.CONST>
0

>  <SCORE.SYSTEM.DIHEDRAL>
0

>  <SCORE.SYSTEM.SOLV>
0

>  <SCORE.SYSTEM.norm>
0

>  <SCORE.heavy>
31

>  <SCORE.norm>
-0.644296

>  <RMSD>
5.035

$$$$
ligand
 OpenBabel11021811473D
libRbt.so/2013.1/901 2013/11/27
 31 33  0  0  0  0  0  0  0  0999 V2000
   27.0239   35.1221   13.8917 P   0  0  1  0  0  0  0  0  0  0  0  0
   26.3746   36.3674   13.3432 O   0  0  0  0  0  0  0  0  0  0  0  0
   26.0399   33.9860   13.8030 O   0  5  0  0  0  0  0  0  0  0  0  0
   28.2519   34.8765   13.0589 O   0  0  0  0  0  0  0  0  0  0  0  0
   28.4338   36.2339   15.8014 C   0  0  0  0  0  0  0  0  0  0  0  0
   27.4698   35.2719   15.4270 O   0  0  0  0  0  0  0  0  0  0  0  0
   28.4597   36.3534   17.3230 C   0  0  1  0  0  0  0  0  0  0  0  0
   28.9247   35.1441   17.8889 O   0  0  0  0  0  0  0  0  0  0  0  0
   29.3863   37.4831   17.7399 C   0  0  1  0  0  0  0  0  0  0  0  0
   29.0222   38.6391   17.0340 O   0  0  0  0  0  0  0  0  0  0  0  0
   29.3188   37.7752   19.2295 C   0  0  1  0  0  0  0  0  0  0  0  0
   30.2331   38.7980   19.5190 O   0  0  0  0  0  0  0  0  0  0  0  0
   27.9234   38.2227   19.6322 C   0  0  0  0  0  0  0  0  0  0  0  0
   27.3897   35.9626   21.2217 N   0  0  0  0  0  0  0  0  0  0  0  0
   27.0692   34.8375   21.9500 C   0  0  0  0  0  0  0  0  0  0  0  0
   26.9629   33.7506   21.3896 O   0  0  0  0  0  0  0  0  0  0  0  0
   26.8632   34.9210   23.3082 N   0  0  0  0  0  0  0  0  0  0  0  0
   26.9877   36.1342   23.9567 C   0  0  0  0  0  0  0  0  0  0  0  0
   27.3101   37.2749   23.2299 C   0  0  1  0  0  0  0  0  0  0  0  0
   26.8207   36.2002   25.1762 O   0  0  0  0  0  0  0  0  0  0  0  0
   27.7565   39.6230   23.1472 C   0  0  2  0  0  0  0  0  0  0  0  0
   27.4342   38.4910   23.8713 N   0  0  0  0  0  0  0  0  0  0  0  0
   27.8815   40.8515   23.7967 C   0  0  0  0  0  0  0  0  0  0  0  0
   28.2003   41.9972   23.0771 C   0  0  1  0  0  0  0  0  0  0  0  0
   28.3225   43.2976   23.8064 C   0  0  0  0  0  0  0  0  0  0  0  0
   28.4021   41.9159   21.6910 C   0  0  1  0  0  0  0  0  0  0  0  0
   28.7573   43.1299   20.8772 C   0  0  0  0  0  0  0  0  0  0  0  0
   28.2750   40.6888   21.0455 C   0  0  0  0  0  0  0  0  0  0  0  0
   27.9508   39.5382   21.7665 C   0  0  1  0  0  0  0  0  0  0  0  0
   27.5075   37.1841   21.8536 C   0  0  1  0  0  0  0  0  0  0  0  0
   27.8214   38.3155   21.1250 N   0  0  0  0  0  0  0  0  0  0  0  0
  1  2  1  6  0  0  0
  1  3  1  0  0  0  0
  1  4  2  0  0  0  0
  1  6  1  0  0  0  0
  5  6  1  0  0  0  0
  7  5  1  6  0  0  0
  7  8  1  0  0  0  0
  7  9  1  0  0  0  0
  9 10  1  6  0  0  0
  9 11  1  0  0  0  0
 11 12  1  6  0  0  0
 11 13  1  0  0  0  0
 13 31  1  0  0  0  0
 14 15  1  0  0  0  0
 15 16  2  0  0  0  0
 15 17  1  0  0  0  0
 17 18  1  0  0  0  0
 18 20  2  0  0  0  0
 19 18  1  1  0  0  0
 19 22  1  0  0  0  0
 19 30  1  0  0  0  0
 21 23  1  6  0  0  0
 21 29  1  0  0  0  0
 21 22  1  0  0  0  0
 23 24  1  0  0  0  0
 24 25  1  1  0  0  0
 24 26  1  0  0  0  0
 26 27  1  1  0  0  0
 26 28  1  0  0  0  0
 29 28  1  1  0  0  0
 29 31  1  0  0  0  0
 30 14  1  1  0  0  0
 30 31  1  0  0  0  0
M  CHG  1   3  -1
M  END
>  <CHROM.1>
168.68930804,-62.22672067,65.88627537,51.91192849,178.23410928,171.87570619
98.63306530,27.85494040,37.49077793,19.57389536,-1.74105588,1.31395254,1.26245206

>  <Name>
ligand

>  <RI>
0

>  <Rbt.Current_Directory>
/home/itssahil/PROJECTS/Mol_Feturizer/New_Systems/rnas/3F2T

>  <Rbt.Executable>
rbdock ($Id: //depot/dev/client3/rdock/2013.1/src/exe/rbdock.cxx#4 $)

>  <Rbt.Library>
libRbt.so (2013.1, Build901 2013/11/27)

>  <Rbt.Parameter_File>
/export/apps/rDock/src/rDock_2013.1_src/data/scripts/dock_solv.prm

>  <Rbt.Receptor>
prm/pocket_docking_7.prm

>  <SCORE>
-23.9701

>  <SCORE.INTER>
-22.9819

>  <SCORE.INTER.CONST>
1

>  <SCORE.INTER.POLAR>
0

>  <SCORE.INTER.ROT>
7

>  <SCORE.INTER.SOLV>
12.7175

>  <SCORE.INTER.VDW>
-27.8271

>  <SCORE.INTER.norm>
-0.741351

>  <SCORE.INTRA>
-0.988198

>  <SCORE.INTRA.DIHEDRAL>
-2.07323

>  <SCORE.INTRA.DIHEDRAL.0>
4.64198

>  <SCORE.INTRA.POLAR>
0

>  <SCORE.INTRA.POLAR.0>
0

>  <SCORE.INTRA.REPUL>
0

>  <SCORE.INTRA.REPUL.0>
0

>  <SCORE.INTRA.SOLV>
-0.847138

>  <SCORE.INTRA.SOLV.lig_0>
-49.3611

>  <SCORE.INTRA.VDW>
0.471984

>  <SCORE.INTRA.VDW.0>
-1.91858

>  <SCORE.INTRA.norm>
-0.0318774

>  <SCORE.RESTR>
0

>  <SCORE.RESTR.CAVITY>
0

>  <SCORE.RESTR.norm>
0

>  <SCORE.SYSTEM>
0

>  <SCORE.SYSTEM.CONST>
0

>  <SCORE.SYSTEM.DIHEDRAL>
0

>  <SCORE.SYSTEM.SOLV>
0

>  <SCORE.SYSTEM.norm>
0

>  <SCORE.heavy>
31

>  <SCORE.norm>
-0.773229

>  <RMSD>
5.043

$$$$
ligand
 OpenBabel11021811473D
libRbt.so/2013.1/901 2013/11/27
 31 33  0  0  0  0  0  0  0  0999 V2000
   25.9117   43.9729   16.4824 P   0  0  1  0  0  0  0  0  0  0  0  0
   26.1225   45.3774   16.9886 O   0  0  0  0  0  0  0  0  0  0  0  0
   25.0432   43.2318   17.4640 O   0  5  0  0  0  0  0  0  0  0  0  0
   25.2635   44.0969   15.1310 O   0  0  0  0  0  0  0  0  0  0  0  0
   28.0629   42.8296   17.4498 C   0  0  0  0  0  0  0  0  0  0  0  0
   27.2828   43.1536   16.3178 O   0  0  0  0  0  0  0  0  0  0  0  0
   27.3782   41.7088   18.2276 C   0  0  1  0  0  0  0  0  0  0  0  0
   27.1195   40.6184   17.3656 O   0  0  0  0  0  0  0  0  0  0  0  0
   28.2742   41.2408   19.3621 C   0  0  1  0  0  0  0  0  0  0  0  0
   28.5889   42.3473   20.1644 O   0  0  0  0  0  0  0  0  0  0  0  0
   27.6166   40.1781   20.2263 C   0  0  1  0  0  0  0  0  0  0  0  0
   27.1688   39.1459   19.3896 O   0  0  0  0  0  0  0  0  0  0  0  0
   28.6024   39.6124   21.2351 C   0  0  0  0  0  0  0  0  0  0  0  0
   27.5605   40.2725   23.7646 N   0  0  0  0  0  0  0  0  0  0  0  0
   27.1190   40.6327   25.0193 C   0  0  0  0  0  0  0  0  0  0  0  0
   27.1922   41.8020   25.3857 O   0  0  0  0  0  0  0  0  0  0  0  0
   26.5953   39.6883   25.8724 N   0  0  0  0  0  0  0  0  0  0  0  0
   26.4969   38.3697   25.4731 C   0  0  0  0  0  0  0  0  0  0  0  0
   26.9406   37.9966   24.2093 C   0  0  1  0  0  0  0  0  0  0  0  0
   26.0098   37.5310   26.2340 O   0  0  0  0  0  0  0  0  0  0  0  0
   27.2868   36.3122   22.5472 C   0  0  2  0  0  0  0  0  0  0  0  0
   26.8469   36.6802   23.8044 N   0  0  0  0  0  0  0  0  0  0  0  0
   27.1916   34.9812   22.1393 C   0  0  0  0  0  0  0  0  0  0  0  0
   27.6359   34.5994   20.8789 C   0  0  1  0  0  0  0  0  0  0  0  0
   27.5214   33.1630   20.4771 C   0  0  0  0  0  0  0  0  0  0  0  0
   28.1780   35.5592   20.0108 C   0  0  1  0  0  0  0  0  0  0  0  0
   28.6617   35.1892   18.6355 C   0  0  0  0  0  0  0  0  0  0  0  0
   28.2732   36.8863   20.4213 C   0  0  0  0  0  0  0  0  0  0  0  0
   27.8312   37.2702   21.6887 C   0  0  1  0  0  0  0  0  0  0  0  0
   27.4785   38.9570   23.3549 C   0  0  1  0  0  0  0  0  0  0  0  0
   27.9272   38.5910   22.1002 N   0  0  0  0  0  0  0  0  0  0  0  0
  1  2  1  1  0  0  0
  1  3  1  0  0  0  0
  1  4  2  0  0  0  0
  1  6  1  0  0  0  0
  5  6  1  0  0  0  0
  7  5  1  6  0  0  0
  7  8  1  0  0  0  0
  7  9  1  0  0  0  0
  9 10  1  1  0  0  0
  9 11  1  0  0  0  0
 11 12  1  6  0  0  0
 11 13  1  0  0  0  0
 13 31  1  0  0  0  0
 14 15  1  0  0  0  0
 15 16  2  0  0  0  0
 15 17  1  0  0  0  0
 17 18  1  0  0  0  0
 18 20  2  0  0  0  0
 19 18  1  6  0  0  0
 19 22  1  0  0  0  0
 19 30  1  0  0  0  0
 21 23  1  1  0  0  0
 21 29  1  0  0  0  0
 21 22  1  0  0  0  0
 23 24  1  0  0  0  0
 24 25  1  6  0  0  0
 24 26  1  0  0  0  0
 26 27  1  6  0  0  0
 26 28  1  0  0  0  0
 29 28  1  6  0  0  0
 29 31  1  0  0  0  0
 30 14  1  6  0  0  0
 30 31  1  0  0  0  0
M  CHG  1   3  -1
M  END
>  <CHROM.1>
73.78788889,65.41647803,53.88448252,56.13903424,52.97033239,178.60024258
85.55346191,27.18058595,39.75785852,20.59952305,2.14524928,1.40690170,-1.35441070

>  <Name>
ligand

>  <RI>
0

>  <Rbt.Current_Directory>
/home/itssahil/PROJECTS/Mol_Feturizer/New_Systems/rnas/3F2T

>  <Rbt.Executable>
rbdock ($Id: //depot/dev/client3/rdock/2013.1/src/exe/rbdock.cxx#4 $)

>  <Rbt.Library>
libRbt.so (2013.1, Build901 2013/11/27)

>  <Rbt.Parameter_File>
/export/apps/rDock/src/rDock_2013.1_src/data/scripts/dock_solv.prm

>  <Rbt.Receptor>
prm/blind_docking_100.prm

>  <SCORE>
-28.4481

>  <SCORE.INTER>
-29.2655

>  <SCORE.INTER.CONST>
1

>  <SCORE.INTER.POLAR>
0

>  <SCORE.INTER.ROT>
7

>  <SCORE.INTER.SOLV>
17.9731

>  <SCORE.INTER.VDW>
-33.7681

>  <SCORE.INTER.norm>
-0.94405

>  <SCORE.INTRA>
0.795662

>  <SCORE.INTRA.DIHEDRAL>
-1.99803

>  <SCORE.INTRA.DIHEDRAL.0>
4.64198

>  <SCORE.INTRA.POLAR>
0

>  <SCORE.INTRA.POLAR.0>
0

>  <SCORE.INTRA.REPUL>
0

>  <SCORE.INTRA.REPUL.0>
0

>  <SCORE.INTRA.SOLV>
1.92975

>  <SCORE.INTRA.SOLV.lig_0>
-49.3611

>  <SCORE.INTRA.VDW>
0.829803

>  <SCORE.INTRA.VDW.0>
-1.91858

>  <SCORE.INTRA.norm>
0.0256665

>  <SCORE.RESTR>
0.0218139

>  <SCORE.RESTR.CAVITY>
0.0218139

>  <SCORE.RESTR.norm>
0.000703674

>  <SCORE.SYSTEM>
0

>  <SCORE.SYSTEM.CONST>
0

>  <SCORE.SYSTEM.DIHEDRAL>
0

>  <SCORE.SYSTEM.SOLV>
0

>  <SCORE.SYSTEM.norm>
0

>  <SCORE.heavy>
31

>  <SCORE.norm>
-0.91768

>  <RMSD>
5.050

$$$$
ligand
 OpenBabel11021811473D
libRbt.so/2013.1/901 2013/11/27
 31 33  0  0  0  0  0  0  0  0999 V2000
   27.3819   42.3768   16.9594 P   0  0  1  0  0  0  0  0  0  0  0  0
   27.2483   40.8946   16.7176 O   0  0  0  0  0  0  0  0  0  0  0  0
   28.6778   42.6327   17.6821 O   0  5  0  0  0  0  0  0  0  0  0  0
   27.3449   43.0367   15.6084 O   0  0  0  0  0  0  0  0  0  0  0  0
   25.7590   42.3008   19.0163 C   0  0  0  0  0  0  0  0  0  0  0  0
   26.1901   42.9761   17.8531 O   0  0  0  0  0  0  0  0  0  0  0  0
   26.7737   42.5274   20.1339 C   0  0  1  0  0  0  0  0  0  0  0  0
   26.1118   42.5461   21.3831 O   0  0  0  0  0  0  0  0  0  0  0  0
   27.8029   41.4095   20.1361 C   0  0  1  0  0  0  0  0  0  0  0  0
   28.8056   41.7313   21.0624 O   0  0  0  0  0  0  0  0  0  0  0  0
   27.2036   40.0637   20.5081 C   0  0  1  0  0  0  0  0  0  0  0  0
   26.5115   39.5675   19.3941 O   0  0  0  0  0  0  0  0  0  0  0  0
   28.2895   39.0766   20.9029 C   0  0  0  0  0  0  0  0  0  0  0  0
   27.4722   39.9588   23.4473 N   0  0  0  0  0  0  0  0  0  0  0  0
   27.1395   40.4328   24.6976 C   0  0  0  0  0  0  0  0  0  0  0  0
   27.1775   41.6376   24.9298 O   0  0  0  0  0  0  0  0  0  0  0  0
   26.7649   39.5633   25.6964 N   0  0  0  0  0  0  0  0  0  0  0  0
   26.7077   38.2054   25.4502 C   0  0  0  0  0  0  0  0  0  0  0  0
   27.0424   37.7178   24.1918 C   0  0  1  0  0  0  0  0  0  0  0  0
   26.3534   37.4325   26.3427 O   0  0  0  0  0  0  0  0  0  0  0  0
   27.3205   35.8796   22.6874 C   0  0  2  0  0  0  0  0  0  0  0  0
   26.9893   36.3616   23.9394 N   0  0  0  0  0  0  0  0  0  0  0  0
   27.2666   34.5086   22.4336 C   0  0  0  0  0  0  0  0  0  0  0  0
   27.6027   34.0127   21.1794 C   0  0  1  0  0  0  0  0  0  0  0  0
   27.5366   32.5367   20.9448 C   0  0  0  0  0  0  0  0  0  0  0  0
   27.9933   34.8967   20.1623 C   0  0  1  0  0  0  0  0  0  0  0  0
   28.3561   34.4019   18.7890 C   0  0  0  0  0  0  0  0  0  0  0  0
   28.0477   36.2641   20.4191 C   0  0  0  0  0  0  0  0  0  0  0  0
   27.7145   36.7630   21.6796 C   0  0  1  0  0  0  0  0  0  0  0  0
   27.4301   38.6037   23.1886 C   0  0  1  0  0  0  0  0  0  0  0  0
   27.7703   38.1244   21.9380 N   0  0  0  0  0  0  0  0  0  0  0  0
  1  2  1  6  0  0  0
  1  3  1  0  0  0  0
  1  4  2  0  0  0  0
  1  6  1  0  0  0  0
  5  6  1  0  0  0  0
  7  5  1  6  0  0  0
  7  8  1  0  0  0  0
  7  9  1  0  0  0  0
  9 10  1  1  0  0  0
  9 11  1  0  0  0  0
 11 12  1  6  0  0  0
 11 13  1  0  0  0  0
 13 31  1  0  0  0  0
 14 15  1  0  0  0  0
 15 16  2  0  0  0  0
 15 17  1  0  0  0  0
 17 18  1  0  0  0  0
 18 20  2  0  0  0  0
 19 18  1  6  0  0  0
 19 22  1  0  0  0  0
 19 30  1  0  0  0  0
 21 23  1  1  0  0  0
 21 29  1  0  0  0  0
 21 22  1  0  0  0  0
 23 24  1  0  0  0  0
 24 25  1  6  0  0  0
 24 26  1  0  0  0  0
 26 27  1  6  0  0  0
 26 28  1  0  0  0  0
 29 28  1  6  0  0  0
 29 31  1  0  0  0  0
 30 14  1  6  0  0  0
 30 31  1  0  0  0  0
M  CHG  1   3  -1
M  END
>  <CHROM.1>
75.98352248,44.85705795,147.91631036,172.94918283,77.09191546,148.18406973
118.46308120,27.31016585,39.26621925,21.00414145,-1.64768035,-1.44264990
2.35537982

>  <Name>
ligand

>  <RI>
0

>  <Rbt.Current_Directory>
/home/itssahil/PROJECTS/Mol_Feturizer/New_Systems/rnas/3F2T

>  <Rbt.Executable>
rbdock ($Id: //depot/dev/client3/rdock/2013.1/src/exe/rbdock.cxx#4 $)

>  <Rbt.Library>
libRbt.so (2013.1, Build901 2013/11/27)

>  <Rbt.Parameter_File>
/export/apps/rDock/src/rDock_2013.1_src/data/scripts/dock_solv.prm

>  <Rbt.Receptor>
prm/pocket_docking_5.prm

>  <SCORE>
-23.9141

>  <SCORE.INTER>
-27.9195

>  <SCORE.INTER.CONST>
1

>  <SCORE.INTER.POLAR>
0

>  <SCORE.INTER.ROT>
7

>  <SCORE.INTER.SOLV>
18.829

>  <SCORE.INTER.VDW>
-33.156

>  <SCORE.INTER.norm>
-0.900628

>  <SCORE.INTRA>
4.00542

>  <SCORE.INTRA.DIHEDRAL>
5.17024

>  <SCORE.INTRA.DIHEDRAL.0>
4.64198

>  <SCORE.INTRA.POLAR>
0

>  <SCORE.INTRA.POLAR.0>
0

>  <SCORE.INTRA.REPUL>
0

>  <SCORE.INTRA.REPUL.0>
0

>  <SCORE.INTRA.SOLV>
3.21905

>  <SCORE.INTRA.SOLV.lig_0>
-49.3611

>  <SCORE.INTRA.VDW>
-0.189228

>  <SCORE.INTRA.VDW.0>
-1.91858

>  <SCORE.INTRA.norm>
0.129207

>  <SCORE.RESTR>
0

>  <SCORE.RESTR.CAVITY>
0

>  <SCORE.RESTR.norm>
0

>  <SCORE.SYSTEM>
0

>  <SCORE.SYSTEM.CONST>
0

>  <SCORE.SYSTEM.DIHEDRAL>
0

>  <SCORE.SYSTEM.SOLV>
0

>  <SCORE.SYSTEM.norm>
0

>  <SCORE.heavy>
31

>  <SCORE.norm>
-0.771421

>  <RMSD>
5.056

$$$$
ligand
 OpenBabel11021811473D
libRbt.so/2013.1/901 2013/11/27
 31 33  0  0  0  0  0  0  0  0999 V2000
   24.6814   44.2106   16.9677 P   0  0  1  0  0  0  0  0  0  0  0  0
   23.7250   44.7657   17.9925 O   0  0  0  0  0  0  0  0  0  0  0  0
   23.9699   44.1184   15.6440 O   0  5  0  0  0  0  0  0  0  0  0  0
   25.8522   45.1534   16.9189 O   0  0  0  0  0  0  0  0  0  0  0  0
   25.8675   42.5155   18.5772 C   0  0  0  0  0  0  0  0  0  0  0  0
   25.2210   42.7455   17.3427 O   0  0  0  0  0  0  0  0  0  0  0  0
   26.4263   41.0951   18.5947 C   0  0  1  0  0  0  0  0  0  0  0  0
   27.2465   40.8907   17.4615 O   0  0  0  0  0  0  0  0  0  0  0  0
   27.2540   40.8776   19.8502 C   0  0  1  0  0  0  0  0  0  0  0  0
   26.4065   40.9771   20.9633 O   0  0  0  0  0  0  0  0  0  0  0  0
   27.9373   39.5206   19.8724 C   0  0  1  0  0  0  0  0  0  0  0  0
   28.8410   39.4656   18.8017 O   0  0  0  0  0  0  0  0  0  0  0  0
   28.6919   39.3141   21.1752 C   0  0  0  0  0  0  0  0  0  0  0  0
   27.6374   40.0234   23.6861 N   0  0  0  0  0  0  0  0  0  0  0  0
   27.1905   40.4056   24.9324 C   0  0  0  0  0  0  0  0  0  0  0  0
   27.2964   41.5742   25.2929 O   0  0  0  0  0  0  0  0  0  0  0  0
   26.6252   39.4839   25.7837 N   0  0  0  0  0  0  0  0  0  0  0  0
   26.4898   38.1666   25.3909 C   0  0  0  0  0  0  0  0  0  0  0  0
   26.9384   37.7715   24.1356 C   0  0  1  0  0  0  0  0  0  0  0  0
   25.9655   37.3488   26.1499 O   0  0  0  0  0  0  0  0  0  0  0  0
   27.2528   36.0663   22.4884 C   0  0  2  0  0  0  0  0  0  0  0  0
   26.8079   36.4562   23.7373 N   0  0  0  0  0  0  0  0  0  0  0  0
   27.1205   34.7365   22.0872 C   0  0  0  0  0  0  0  0  0  0  0  0
   27.5693   34.3326   20.8352 C   0  0  1  0  0  0  0  0  0  0  0  0
   27.4141   32.8981   20.4404 C   0  0  0  0  0  0  0  0  0  0  0  0
   28.1539   35.2689   19.9691 C   0  0  1  0  0  0  0  0  0  0  0  0
   28.6442   34.8749   18.6028 C   0  0  0  0  0  0  0  0  0  0  0  0
   28.2862   36.5949   20.3731 C   0  0  0  0  0  0  0  0  0  0  0  0
   27.8395   37.0008   21.6319 C   0  0  1  0  0  0  0  0  0  0  0  0
   27.5186   38.7086   23.2830 C   0  0  1  0  0  0  0  0  0  0  0  0
   27.9724   38.3205   22.0369 N   0  0  0  0  0  0  0  0  0  0  0  0
  1  2  1  1  0  0  0
  1  3  1  0  0  0  0
  1  4  2  0  0  0  0
  1  6  1  0  0  0  0
  5  6  1  0  0  0  0
  7  5  1  1  0  0  0
  7  8  1  0  0  0  0
  7  9  1  0  0  0  0
  9 10  1  1  0  0  0
  9 11  1  0  0  0  0
 11 12  1  6  0  0  0
 11 13  1  0  0  0  0
 13 31  1  0  0  0  0
 14 15  1  0  0  0  0
 15 16  2  0  0  0  0
 15 17  1  0  0  0  0
 17 18  1  0  0  0  0
 18 20  2  0  0  0  0
 19 18  1  6  0  0  0
 19 22  1  0  0  0  0
 19 30  1  0  0  0  0
 21 23  1  1  0  0  0
 21 29  1  0  0  0  0
 21 22  1  0  0  0  0
 23 24  1  0  0  0  0
 24 25  1  6  0  0  0
 24 26  1  0  0  0  0
 26 27  1  6  0  0  0
 26 28  1  0  0  0  0
 29 28  1  6  0  0  0
 29 31  1  0  0  0  0
 30 14  1  6  0  0  0
 30 31  1  0  0  0  0
M  CHG  1   3  -1
M  END
>  <CHROM.1>
-172.94289569,-56.21027389,53.98463990,64.31377944,63.21898776,107.34928407
64.81044470,26.79114025,39.58184701,20.72878848,2.52357195,1.27590640,-1.60248536

>  <Name>
ligand

>  <RI>
0

>  <Rbt.Current_Directory>
/home/itssahil/PROJECTS/Mol_Feturizer/New_Systems/rnas/3F2T

>  <Rbt.Executable>
rbdock ($Id: //depot/dev/client3/rdock/2013.1/src/exe/rbdock.cxx#4 $)

>  <Rbt.Library>
libRbt.so (2013.1, Build901 2013/11/27)

>  <Rbt.Parameter_File>
/export/apps/rDock/src/rDock_2013.1_src/data/scripts/dock_solv.prm

>  <Rbt.Receptor>
prm/pocket_docking_4.prm

>  <SCORE>
-26.5431

>  <SCORE.INTER>
-27.7174

>  <SCORE.INTER.CONST>
1

>  <SCORE.INTER.POLAR>
0

>  <SCORE.INTER.ROT>
7

>  <SCORE.INTER.SOLV>
18.6291

>  <SCORE.INTER.VDW>
-32.9546

>  <SCORE.INTER.norm>
-0.894111

>  <SCORE.INTRA>
1.17434

>  <SCORE.INTRA.DIHEDRAL>
1.79635

>  <SCORE.INTRA.DIHEDRAL.0>
4.64198

>  <SCORE.INTRA.POLAR>
0

>  <SCORE.INTRA.POLAR.0>
0

>  <SCORE.INTRA.REPUL>
0

>  <SCORE.INTRA.REPUL.0>
0

>  <SCORE.INTRA.SOLV>
-0.398104

>  <SCORE.INTRA.SOLV.lig_0>
-49.3611

>  <SCORE.INTRA.VDW>
0.475216

>  <SCORE.INTRA.VDW.0>
-1.91858

>  <SCORE.INTRA.norm>
0.037882

>  <SCORE.RESTR>
0

>  <SCORE.RESTR.CAVITY>
0

>  <SCORE.RESTR.norm>
0

>  <SCORE.SYSTEM>
0

>  <SCORE.SYSTEM.CONST>
0

>  <SCORE.SYSTEM.DIHEDRAL>
0

>  <SCORE.SYSTEM.SOLV>
0

>  <SCORE.SYSTEM.norm>
0

>  <SCORE.heavy>
31

>  <SCORE.norm>
-0.856229

>  <RMSD>
5.057

$$$$
ligand
 OpenBabel11021811473D
libRbt.so/2013.1/901 2013/11/27
 31 33  0  0  0  0  0  0  0  0999 V2000
   28.3907   42.5592   16.5571 P   0  0  1  0  0  0  0  0  0  0  0  0
   29.1116   43.2743   17.6715 O   0  0  0  0  0  0  0  0  0  0  0  0
   27.5734   43.5636   15.7888 O   0  5  0  0  0  0  0  0  0  0  0  0
   29.4498   41.9168   15.7041 O   0  0  0  0  0  0  0  0  0  0  0  0
   26.3384   41.7352   17.9641 C   0  0  0  0  0  0  0  0  0  0  0  0
   27.3974   41.4140   17.0865 O   0  0  0  0  0  0  0  0  0  0  0  0
   26.9131   42.3132   19.2547 C   0  0  1  0  0  0  0  0  0  0  0  0
   25.8803   42.4762   20.2063 O   0  0  0  0  0  0  0  0  0  0  0  0
   27.9646   41.3743   19.8217 C   0  0  1  0  0  0  0  0  0  0  0  0
   28.7092   42.0714   20.7845 O   0  0  0  0  0  0  0  0  0  0  0  0
   27.3587   40.1398   20.4680 C   0  0  1  0  0  0  0  0  0  0  0  0
   26.6805   39.4135   19.4789 O   0  0  0  0  0  0  0  0  0  0  0  0
   28.4380   39.2630   21.0810 C   0  0  0  0  0  0  0  0  0  0  0  0
   27.4687   40.0238   23.6111 N   0  0  0  0  0  0  0  0  0  0  0  0
   27.0621   40.4360   24.8616 C   0  0  0  0  0  0  0  0  0  0  0  0
   27.1144   41.6241   25.1656 O   0  0  0  0  0  0  0  0  0  0  0  0
   26.5970   39.5228   25.7802 N   0  0  0  0  0  0  0  0  0  0  0  0
   26.5227   38.1832   25.4518 C   0  0  0  0  0  0  0  0  0  0  0  0
   26.9314   37.7578   24.1927 C   0  0  1  0  0  0  0  0  0  0  0  0
   26.0877   37.3718   26.2716 O   0  0  0  0  0  0  0  0  0  0  0  0
   27.2667   36.0001   22.6060 C   0  0  2  0  0  0  0  0  0  0  0  0
   26.8616   36.4202   23.8586 N   0  0  0  0  0  0  0  0  0  0  0  0
   27.1957   34.6479   22.2696 C   0  0  0  0  0  0  0  0  0  0  0  0
   27.6054   34.2139   21.0143 C   0  0  1  0  0  0  0  0  0  0  0  0
   27.5183   32.7561   20.6900 C   0  0  0  0  0  0  0  0  0  0  0  0
   28.0880   35.1421   20.0793 C   0  0  1  0  0  0  0  0  0  0  0  0
   28.5326   34.7152   18.7073 C   0  0  0  0  0  0  0  0  0  0  0  0
   28.1592   36.4907   20.4186 C   0  0  0  0  0  0  0  0  0  0  0  0
   27.7519   36.9271   21.6805 C   0  0  1  0  0  0  0  0  0  0  0  0
   27.4103   38.6872   23.2715 C   0  0  1  0  0  0  0  0  0  0  0  0
   27.8242   38.2695   22.0211 N   0  0  0  0  0  0  0  0  0  0  0  0
  1  2  1  1  0  0  0
  1  3  1  0  0  0  0
  1  4  2  0  0  0  0
  1  6  1  0  0  0  0
  5  6  1  0  0  0  0
  7  5  1  6  0  0  0
  7  8  1  0  0  0  0
  7  9  1  0  0  0  0
  9 10  1  1  0  0  0
  9 11  1  0  0  0  0
 11 12  1  6  0  0  0
 11 13  1  0  0  0  0
 13 31  1  0  0  0  0
 14 15  1  0  0  0  0
 15 16  2  0  0  0  0
 15 17  1  0  0  0  0
 17 18  1  0  0  0  0
 18 20  2  0  0  0  0
 19 18  1  6  0  0  0
 19 22  1  0  0  0  0
 19 30  1  0  0  0  0
 21 23  1  1  0  0  0
 21 29  1  0  0  0  0
 21 22  1  0  0  0  0
 23 24  1  0  0  0  0
 24 25  1  6  0  0  0
 24 26  1  0  0  0  0
 26 27  1  6  0  0  0
 26 28  1  0  0  0  0
 29 28  1  6  0  0  0
 29 31  1  0  0  0  0
 30 14  1  6  0  0  0
 30 31  1  0  0  0  0
M  CHG  1   3  -1
M  END
>  <CHROM.1>
-61.30816662,59.21466147,-172.41758831,164.79866738,62.94531600,164.58835600
107.80583319,27.53415032,39.34304550,20.80267844,-0.98245620,-1.38125774
2.90045614

>  <Name>
ligand

>  <RI>
0

>  <Rbt.Current_Directory>
/home/itssahil/PROJECTS/Mol_Feturizer/New_Systems/rnas/3F2T

>  <Rbt.Executable>
rbdock ($Id: //depot/dev/client3/rdock/2013.1/src/exe/rbdock.cxx#4 $)

>  <Rbt.Library>
libRbt.so (2013.1, Build901 2013/11/27)

>  <Rbt.Parameter_File>
/export/apps/rDock/src/rDock_2013.1_src/data/scripts/dock_solv.prm

>  <Rbt.Receptor>
prm/pocket_docking_4.prm

>  <SCORE>
-27.7538

>  <SCORE.INTER>
-28.1494

>  <SCORE.INTER.CONST>
1

>  <SCORE.INTER.POLAR>
0

>  <SCORE.INTER.ROT>
7

>  <SCORE.INTER.SOLV>
22.3405

>  <SCORE.INTER.VDW>
-34.4797

>  <SCORE.INTER.norm>
-0.908044

>  <SCORE.INTRA>
0.395506

>  <SCORE.INTRA.DIHEDRAL>
-1.47336

>  <SCORE.INTRA.DIHEDRAL.0>
4.64198

>  <SCORE.INTRA.POLAR>
0

>  <SCORE.INTRA.POLAR.0>
0

>  <SCORE.INTRA.REPUL>
0

>  <SCORE.INTRA.REPUL.0>
0

>  <SCORE.INTRA.SOLV>
1.14965

>  <SCORE.INTRA.SOLV.lig_0>
-49.3611

>  <SCORE.INTRA.VDW>
0.55736

>  <SCORE.INTRA.VDW.0>
-1.91858

>  <SCORE.INTRA.norm>
0.0127583

>  <SCORE.RESTR>
0

>  <SCORE.RESTR.CAVITY>
0

>  <SCORE.RESTR.norm>
0

>  <SCORE.SYSTEM>
0

>  <SCORE.SYSTEM.CONST>
0

>  <SCORE.SYSTEM.DIHEDRAL>
0

>  <SCORE.SYSTEM.SOLV>
0

>  <SCORE.SYSTEM.norm>
0

>  <SCORE.heavy>
31

>  <SCORE.norm>
-0.895285

>  <RMSD>
5.062

$$$$
ligand
 OpenBabel11021811473D
libRbt.so/2013.1/901 2013/11/27
 31 33  0  0  0  0  0  0  0  0999 V2000
   26.3160   43.6334   16.3672 P   0  0  1  0  0  0  0  0  0  0  0  0
   26.1780   45.0238   15.8007 O   0  0  0  0  0  0  0  0  0  0  0  0
   24.9784   42.9465   16.2905 O   0  5  0  0  0  0  0  0  0  0  0  0
   27.3613   42.9356   15.5411 O   0  0  0  0  0  0  0  0  0  0  0  0
   27.3716   42.4692   18.4650 C   0  0  0  0  0  0  0  0  0  0  0  0
   26.7890   43.6259   17.9016 O   0  0  0  0  0  0  0  0  0  0  0  0
   27.6706   42.7247   19.9400 C   0  0  1  0  0  0  0  0  0  0  0  0
   26.4654   42.7208   20.6790 O   0  0  0  0  0  0  0  0  0  0  0  0
   28.5858   41.6389   20.4805 C   0  0  1  0  0  0  0  0  0  0  0  0
   29.1887   42.1111   21.6556 O   0  0  0  0  0  0  0  0  0  0  0  0
   27.8437   40.3502   20.7922 C   0  0  1  0  0  0  0  0  0  0  0  0
   27.3346   39.8345   19.5919 O   0  0  0  0  0  0  0  0  0  0  0  0
   28.7743   39.3268   21.4218 C   0  0  0  0  0  0  0  0  0  0  0  0
   27.6023   39.9614   23.9004 N   0  0  0  0  0  0  0  0  0  0  0  0
   27.0979   40.3044   25.1360 C   0  0  0  0  0  0  0  0  0  0  0  0
   27.2142   41.4536   25.5514 O   0  0  0  0  0  0  0  0  0  0  0  0
   26.4628   39.3647   25.9156 N   0  0  0  0  0  0  0  0  0  0  0  0
   26.3148   38.0692   25.4601 C   0  0  0  0  0  0  0  0  0  0  0  0
   26.8213   37.7137   24.2149 C   0  0  1  0  0  0  0  0  0  0  0  0
   25.7286   37.2360   26.1541 O   0  0  0  0  0  0  0  0  0  0  0  0
   27.1811   36.0696   22.5157 C   0  0  2  0  0  0  0  0  0  0  0  0
   26.6786   36.4201   23.7543 N   0  0  0  0  0  0  0  0  0  0  0  0
   27.0364   34.7619   22.0514 C   0  0  0  0  0  0  0  0  0  0  0  0
   27.5426   34.3974   20.8093 C   0  0  1  0  0  0  0  0  0  0  0  0
   27.3720   32.9854   20.3457 C   0  0  0  0  0  0  0  0  0  0  0  0
   28.1981   35.3517   20.0167 C   0  0  1  0  0  0  0  0  0  0  0  0
   28.7521   35.0007   18.6631 C   0  0  0  0  0  0  0  0  0  0  0  0
   28.3424   36.6556   20.4834 C   0  0  0  0  0  0  0  0  0  0  0  0
   27.8381   37.0217   21.7326 C   0  0  1  0  0  0  0  0  0  0  0  0
   27.4716   38.6683   23.4357 C   0  0  1  0  0  0  0  0  0  0  0  0
   27.9829   38.3192   22.2003 N   0  0  0  0  0  0  0  0  0  0  0  0
  1  2  1  6  0  0  0
  1  3  1  0  0  0  0
  1  4  2  0  0  0  0
  1  6  1  0  0  0  0
  5  6  1  0  0  0  0
  7  5  1  6  0  0  0
  7  8  1  0  0  0  0
  7  9  1  0  0  0  0
  9 10  1  1  0  0  0
  9 11  1  0  0  0  0
 11 12  1  6  0  0  0
 11 13  1  0  0  0  0
 13 31  1  0  0  0  0
 14 15  1  0  0  0  0
 15 16  2  0  0  0  0
 15 17  1  0  0  0  0
 17 18  1  0  0  0  0
 18 20  2  0  0  0  0
 19 18  1  6  0  0  0
 19 22  1  0  0  0  0
 19 30  1  0  0  0  0
 21 23  1  1  0  0  0
 21 29  1  0  0  0  0
 21 22  1  0  0  0  0
 23 24  1  0  0  0  0
 24 25  1  6  0  0  0
 24 26  1  0  0  0  0
 26 27  1  6  0  0  0
 26 28  1  0  0  0  0
 29 28  1  6  0  0  0
 29 31  1  0  0  0  0
 30 14  1  6  0  0  0
 30 31  1  0  0  0  0
M  CHG  1   3  -1
M  END
>  <CHROM.1>
-177.74581560,-159.84054817,73.53373800,160.80491743,64.22383287,157.70950582
108.10710488,27.24396829,39.66400003,20.90316530,-2.11865272,-1.46273279
1.85144194

>  <Name>
ligand

>  <RI>
0

>  <Rbt.Current_Directory>
/home/itssahil/PROJECTS/Mol_Feturizer/New_Systems/rnas/3F2T

>  <Rbt.Executable>
rbdock ($Id: //depot/dev/client3/rdock/2013.1/src/exe/rbdock.cxx#4 $)

>  <Rbt.Library>
libRbt.so (2013.1, Build901 2013/11/27)

>  <Rbt.Parameter_File>
/export/apps/rDock/src/rDock_2013.1_src/data/scripts/dock_solv.prm

>  <Rbt.Receptor>
prm/pocket_docking_4.prm

>  <SCORE>
-27.3741

>  <SCORE.INTER>
-28.1883

>  <SCORE.INTER.CONST>
1

>  <SCORE.INTER.POLAR>
0

>  <SCORE.INTER.ROT>
7

>  <SCORE.INTER.SOLV>
21.9247

>  <SCORE.INTER.VDW>
-34.3671

>  <SCORE.INTER.norm>
-0.909299

>  <SCORE.INTRA>
0.81413

>  <SCORE.INTRA.DIHEDRAL>
0.798745

>  <SCORE.INTRA.DIHEDRAL.0>
4.64198

>  <SCORE.INTRA.POLAR>
0

>  <SCORE.INTRA.POLAR.0>
0

>  <SCORE.INTRA.REPUL>
0

>  <SCORE.INTRA.REPUL.0>
0

>  <SCORE.INTRA.SOLV>
-0.0173487

>  <SCORE.INTRA.SOLV.lig_0>
-49.3611

>  <SCORE.INTRA.VDW>
0.423432

>  <SCORE.INTRA.VDW.0>
-1.91858

>  <SCORE.INTRA.norm>
0.0262623

>  <SCORE.RESTR>
0

>  <SCORE.RESTR.CAVITY>
0

>  <SCORE.RESTR.norm>
0

>  <SCORE.SYSTEM>
0

>  <SCORE.SYSTEM.CONST>
0

>  <SCORE.SYSTEM.DIHEDRAL>
0

>  <SCORE.SYSTEM.SOLV>
0

>  <SCORE.SYSTEM.norm>
0

>  <SCORE.heavy>
31

>  <SCORE.norm>
-0.883037

>  <RMSD>
5.063

$$$$
ligand
 OpenBabel11021811473D
libRbt.so/2013.1/901 2013/11/27
 31 33  0  0  0  0  0  0  0  0999 V2000
   25.5700   43.5426   16.5546 P   0  0  1  0  0  0  0  0  0  0  0  0
   26.0192   44.8869   17.0685 O   0  0  0  0  0  0  0  0  0  0  0  0
   24.2761   43.7204   15.8056 O   0  5  0  0  0  0  0  0  0  0  0  0
   26.6733   43.0316   15.6693 O   0  0  0  0  0  0  0  0  0  0  0  0
   26.1560   42.4539   18.8658 C   0  0  0  0  0  0  0  0  0  0  0  0
   25.3204   42.4746   17.7274 O   0  0  0  0  0  0  0  0  0  0  0  0
   27.5431   41.9610   18.4620 C   0  0  1  0  0  0  0  0  0  0  0  0
   28.2594   43.0087   17.8391 O   0  0  0  0  0  0  0  0  0  0  0  0
   28.3091   41.5003   19.6907 C   0  0  1  0  0  0  0  0  0  0  0  0
   28.3522   42.5590   20.6096 O   0  0  0  0  0  0  0  0  0  0  0  0
   27.6709   40.2944   20.3596 C   0  0  1  0  0  0  0  0  0  0  0  0
   27.3047   39.3804   19.3614 O   0  0  0  0  0  0  0  0  0  0  0  0
   28.6441   39.6265   21.3169 C   0  0  0  0  0  0  0  0  0  0  0  0
   27.5285   40.2131   23.8331 N   0  0  0  0  0  0  0  0  0  0  0  0
   27.0506   40.5363   25.0844 C   0  0  0  0  0  0  0  0  0  0  0  0
   27.1193   41.6928   25.4902 O   0  0  0  0  0  0  0  0  0  0  0  0
   26.4953   39.5689   25.8905 N   0  0  0  0  0  0  0  0  0  0  0  0
   26.4015   38.2643   25.4465 C   0  0  0  0  0  0  0  0  0  0  0  0
   26.8817   37.9286   24.1855 C   0  0  1  0  0  0  0  0  0  0  0  0
   25.8862   37.4053   26.1649 O   0  0  0  0  0  0  0  0  0  0  0  0
   27.2692   36.2955   22.4819 C   0  0  2  0  0  0  0  0  0  0  0  0
   26.7929   36.6263   23.7362 N   0  0  0  0  0  0  0  0  0  0  0  0
   27.1788   34.9788   22.0290 C   0  0  0  0  0  0  0  0  0  0  0  0
   27.6595   34.6342   20.7712 C   0  0  1  0  0  0  0  0  0  0  0  0
   27.5490   33.2120   20.3204 C   0  0  0  0  0  0  0  0  0  0  0  0
   28.2338   35.6173   19.9513 C   0  0  1  0  0  0  0  0  0  0  0  0
   28.7575   35.2878   18.5803 C   0  0  0  0  0  0  0  0  0  0  0  0
   28.3241   36.9300   20.4067 C   0  0  0  0  0  0  0  0  0  0  0  0
   27.8454   37.2765   21.6715 C   0  0  1  0  0  0  0  0  0  0  0  0
   27.4514   38.9119   23.3792 C   0  0  1  0  0  0  0  0  0  0  0  0
   27.9365   38.5829   22.1278 N   0  0  0  0  0  0  0  0  0  0  0  0
  1  2  1  1  0  0  0
  1  3  1  0  0  0  0
  1  4  2  0  0  0  0
  1  6  1  0  0  0  0
  5  6  1  0  0  0  0
  7  5  1  1  0  0  0
  7  8  1  0  0  0  0
  7  9  1  0  0  0  0
  9 10  1  1  0  0  0
  9 11  1  0  0  0  0
 11 12  1  6  0  0  0
 11 13  1  0  0  0  0
 13 31  1  0  0  0  0
 14 15  1  0  0  0  0
 15 16  2  0  0  0  0
 15 17  1  0  0  0  0
 17 18  1  0  0  0  0
 18 20  2  0  0  0  0
 19 18  1  6  0  0  0
 19 22  1  0  0  0  0
 19 30  1  0  0  0  0
 21 23  1  1  0  0  0
 21 29  1  0  0  0  0
 21 22  1  0  0  0  0
 23 24  1  0  0  0  0
 24 25  1  6  0  0  0
 24 26  1  0  0  0  0
 26 27  1  6  0  0  0
 26 28  1  0  0  0  0
 29 28  1  6  0  0  0
 29 31  1  0  0  0  0
 30 14  1  6  0  0  0
 30 31  1  0  0  0  0
M  CHG  1   3  -1
M  END
>  <CHROM.1>
-69.39949913,-36.79597475,78.48720370,-56.08018527,44.00096067,170.88273578
89.25187103,27.08025729,39.75788743,20.70316424,-2.29118383,-1.39112875,1.64995908

>  <Name>
ligand

>  <RI>
0

>  <Rbt.Current_Directory>
/home/itssahil/PROJECTS/Mol_Feturizer/New_Systems/rnas/3F2T

>  <Rbt.Executable>
rbdock ($Id: //depot/dev/client3/rdock/2013.1/src/exe/rbdock.cxx#4 $)

>  <Rbt.Library>
libRbt.so (2013.1, Build901 2013/11/27)

>  <Rbt.Parameter_File>
/export/apps/rDock/src/rDock_2013.1_src/data/scripts/dock_solv.prm

>  <Rbt.Receptor>
prm/blind_docking_80.prm

>  <SCORE>
-26.7568

>  <SCORE.INTER>
-28.3268

>  <SCORE.INTER.CONST>
1

>  <SCORE.INTER.POLAR>
0

>  <SCORE.INTER.ROT>
7

>  <SCORE.INTER.SOLV>
19.3079

>  <SCORE.INTER.VDW>
-33.5872

>  <SCORE.INTER.norm>
-0.913768

>  <SCORE.INTRA>
1.56999

>  <SCORE.INTRA.DIHEDRAL>
0.249719

>  <SCORE.INTRA.DIHEDRAL.0>
4.64198

>  <SCORE.INTRA.POLAR>
0

>  <SCORE.INTRA.POLAR.0>
0

>  <SCORE.INTRA.REPUL>
0

>  <SCORE.INTRA.REPUL.0>
0

>  <SCORE.INTRA.SOLV>
1.95745

>  <SCORE.INTRA.SOLV.lig_0>
-49.3611

>  <SCORE.INTRA.VDW>
0.466402

>  <SCORE.INTRA.VDW.0>
-1.91858

>  <SCORE.INTRA.norm>
0.0506447

>  <SCORE.RESTR>
0

>  <SCORE.RESTR.CAVITY>
0

>  <SCORE.RESTR.norm>
0

>  <SCORE.SYSTEM>
0

>  <SCORE.SYSTEM.CONST>
0

>  <SCORE.SYSTEM.DIHEDRAL>
0

>  <SCORE.SYSTEM.SOLV>
0

>  <SCORE.SYSTEM.norm>
0

>  <SCORE.heavy>
31

>  <SCORE.norm>
-0.863123

>  <RMSD>
5.067

$$$$
ligand
 OpenBabel11021811473D
libRbt.so/2013.1/901 2013/11/27
 31 33  0  0  0  0  0  0  0  0999 V2000
   25.5435   43.4514   16.5563 P   0  0  1  0  0  0  0  0  0  0  0  0
   26.3769   44.6283   16.9962 O   0  0  0  0  0  0  0  0  0  0  0  0
   24.3864   43.9591   15.7375 O   0  5  0  0  0  0  0  0  0  0  0  0
   26.4527   42.5556   15.7608 O   0  0  0  0  0  0  0  0  0  0  0  0
   25.6950   42.4537   18.9754 C   0  0  0  0  0  0  0  0  0  0  0  0
   24.9474   42.6104   17.7874 O   0  0  0  0  0  0  0  0  0  0  0  0
   26.7158   41.3351   18.7827 C   0  0  1  0  0  0  0  0  0  0  0  0
   27.7078   41.7472   17.8636 O   0  0  0  0  0  0  0  0  0  0  0  0
   27.3780   41.0017   20.1090 C   0  0  1  0  0  0  0  0  0  0  0  0
   26.3743   40.7340   21.0513 O   0  0  0  0  0  0  0  0  0  0  0  0
   28.2990   39.7967   20.0161 C   0  0  1  0  0  0  0  0  0  0  0  0
   29.2864   40.0706   19.0590 O   0  0  0  0  0  0  0  0  0  0  0  0
   28.9631   39.5167   21.3540 C   0  0  0  0  0  0  0  0  0  0  0  0
   27.8231   40.1441   23.8493 N   0  0  0  0  0  0  0  0  0  0  0  0
   27.3350   40.4821   25.0929 C   0  0  0  0  0  0  0  0  0  0  0  0
   27.4741   41.6247   25.5194 O   0  0  0  0  0  0  0  0  0  0  0  0
   26.6908   39.5449   25.8679 N   0  0  0  0  0  0  0  0  0  0  0  0
   26.5173   38.2569   25.4000 C   0  0  0  0  0  0  0  0  0  0  0  0
   27.0071   37.9064   24.1467 C   0  0  1  0  0  0  0  0  0  0  0  0
   25.9231   37.4262   26.0902 O   0  0  0  0  0  0  0  0  0  0  0  0
   27.3248   36.2750   22.4271 C   0  0  2  0  0  0  0  0  0  0  0  0
   26.8388   36.6205   23.6737 N   0  0  0  0  0  0  0  0  0  0  0  0
   27.1541   34.9749   21.9502 C   0  0  0  0  0  0  0  0  0  0  0  0
   27.6436   34.6155   20.6999 C   0  0  1  0  0  0  0  0  0  0  0  0
   27.4453   33.2116   20.2229 C   0  0  0  0  0  0  0  0  0  0  0  0
   28.3083   35.5672   19.9118 C   0  0  1  0  0  0  0  0  0  0  0  0
   28.8448   35.2216   18.5498 C   0  0  0  0  0  0  0  0  0  0  0  0
   28.4785   36.8634   20.3912 C   0  0  0  0  0  0  0  0  0  0  0  0
   27.9910   37.2244   21.6485 C   0  0  1  0  0  0  0  0  0  0  0  0
   27.6667   38.8584   23.3720 C   0  0  1  0  0  0  0  0  0  0  0  0
   28.1615   38.5142   22.1287 N   0  0  0  0  0  0  0  0  0  0  0  0
  1  2  1  1  0  0  0
  1  3  1  0  0  0  0
  1  4  2  0  0  0  0
  1  6  1  0  0  0  0
  5  6  1  0  0  0  0
  7  5  1  1  0  0  0
  7  8  1  0  0  0  0
  7  9  1  0  0  0  0
  9 10  1  1  0  0  0
  9 11  1  0  0  0  0
 11 12  1  6  0  0  0
 11 13  1  0  0  0  0
 13 31  1  0  0  0  0
 14 15  1  0  0  0  0
 15 16  2  0  0  0  0
 15 17  1  0  0  0  0
 17 18  1  0  0  0  0
 18 20  2  0  0  0  0
 19 18  1  6  0  0  0
 19 22  1  0  0  0  0
 19 30  1  0  0  0  0
 21 23  1  1  0  0  0
 21 29  1  0  0  0  0
 21 22  1  0  0  0  0
 23 24  1  0  0  0  0
 24 25  1  6  0  0  0
 24 26  1  0  0  0  0
 26 27  1  6  0  0  0
 26 28  1  0  0  0  0
 29 28  1  6  0  0  0
 29 31  1  0  0  0  0
 30 14  1  6  0  0  0
 30 31  1  0  0  0  0
M  CHG  1   3  -1
M  END
>  <CHROM.1>
-80.96190169,-35.14370594,68.97785775,53.37881249,58.92140774,93.37491174
63.35273214,27.08461378,39.58416113,20.70772829,2.31151335,1.33175381,-1.53620524

>  <Name>
ligand

>  <RI>
0

>  <Rbt.Current_Directory>
/home/itssahil/PROJECTS/Mol_Feturizer/New_Systems/rnas/3F2T

>  <Rbt.Executable>
rbdock ($Id: //depot/dev/client3/rdock/2013.1/src/exe/rbdock.cxx#4 $)

>  <Rbt.Library>
libRbt.so (2013.1, Build901 2013/11/27)

>  <Rbt.Parameter_File>
/export/apps/rDock/src/rDock_2013.1_src/data/scripts/dock_solv.prm

>  <Rbt.Receptor>
prm/pocket_docking_4.prm

>  <SCORE>
-24.6095

>  <SCORE.INTER>
-27.3455

>  <SCORE.INTER.CONST>
1

>  <SCORE.INTER.POLAR>
0

>  <SCORE.INTER.ROT>
7

>  <SCORE.INTER.SOLV>
17.5921

>  <SCORE.INTER.VDW>
-32.361

>  <SCORE.INTER.norm>
-0.882114

>  <SCORE.INTRA>
2.736

>  <SCORE.INTRA.DIHEDRAL>
2.92418

>  <SCORE.INTRA.DIHEDRAL.0>
4.64198

>  <SCORE.INTRA.POLAR>
0

>  <SCORE.INTRA.POLAR.0>
0

>  <SCORE.INTRA.REPUL>
0

>  <SCORE.INTRA.REPUL.0>
0

>  <SCORE.INTRA.SOLV>
1.90466

>  <SCORE.INTRA.SOLV.lig_0>
-49.3611

>  <SCORE.INTRA.VDW>
0.321574

>  <SCORE.INTRA.VDW.0>
-1.91858

>  <SCORE.INTRA.norm>
0.0882579

>  <SCORE.RESTR>
0

>  <SCORE.RESTR.CAVITY>
0

>  <SCORE.RESTR.norm>
0

>  <SCORE.SYSTEM>
0

>  <SCORE.SYSTEM.CONST>
0

>  <SCORE.SYSTEM.DIHEDRAL>
0

>  <SCORE.SYSTEM.SOLV>
0

>  <SCORE.SYSTEM.norm>
0

>  <SCORE.heavy>
31

>  <SCORE.norm>
-0.793856

>  <RMSD>
5.068

$$$$
ligand
 OpenBabel11021811473D
libRbt.so/2013.1/901 2013/11/27
 31 33  0  0  0  0  0  0  0  0999 V2000
   29.3638   34.8218   13.5884 P   0  0  1  0  0  0  0  0  0  0  0  0
   29.0044   35.9271   12.6280 O   0  0  0  0  0  0  0  0  0  0  0  0
   28.4804   33.6348   13.3100 O   0  5  0  0  0  0  0  0  0  0  0  0
   30.8183   34.5130   13.3619 O   0  0  0  0  0  0  0  0  0  0  0  0
   29.7774   36.4025   15.6380 C   0  0  0  0  0  0  0  0  0  0  0  0
   29.1636   35.2379   15.1263 O   0  0  0  0  0  0  0  0  0  0  0  0
   29.3627   36.5901   17.0950 C   0  0  1  0  0  0  0  0  0  0  0  0
   29.7781   35.4741   17.8571 O   0  0  0  0  0  0  0  0  0  0  0  0
   30.0075   37.8438   17.6617 C   0  0  1  0  0  0  0  0  0  0  0  0
   29.5041   38.9541   16.9681 O   0  0  0  0  0  0  0  0  0  0  0  0
   29.7314   38.0242   19.1449 C   0  0  1  0  0  0  0  0  0  0  0  0
   30.4894   39.1105   19.6045 O   0  0  0  0  0  0  0  0  0  0  0  0
   28.2579   38.3016   19.3928 C   0  0  0  0  0  0  0  0  0  0  0  0
   27.6044   35.8506   20.6117 N   0  0  0  0  0  0  0  0  0  0  0  0
   27.2333   34.6372   21.1490 C   0  0  0  0  0  0  0  0  0  0  0  0
   27.2451   33.6261   20.4532 O   0  0  0  0  0  0  0  0  0  0  0  0
   26.8445   34.5471   22.4661 N   0  0  0  0  0  0  0  0  0  0  0  0
   26.8341   35.6731   23.2661 C   0  0  0  0  0  0  0  0  0  0  0  0
   27.2063   36.9019   22.7325 C   0  0  1  0  0  0  0  0  0  0  0  0
   26.5032   35.5837   24.4502 O   0  0  0  0  0  0  0  0  0  0  0  0
   27.5684   39.2514   22.9937 C   0  0  2  0  0  0  0  0  0  0  0  0
   27.1964   38.0316   23.5258 N   0  0  0  0  0  0  0  0  0  0  0  0
   27.5579   40.3925   23.7967 C   0  0  0  0  0  0  0  0  0  0  0  0
   27.9253   41.6252   23.2701 C   0  0  1  0  0  0  0  0  0  0  0  0
   27.8984   42.8277   24.1598 C   0  0  0  0  0  0  0  0  0  0  0  0
   28.3136   41.7208   21.9253 C   0  0  1  0  0  0  0  0  0  0  0  0
   28.7271   43.0339   21.3193 C   0  0  0  0  0  0  0  0  0  0  0  0
   28.3216   40.5807   21.1261 C   0  0  0  0  0  0  0  0  0  0  0  0
   27.9487   39.3427   21.6527 C   0  0  1  0  0  0  0  0  0  0  0  0
   27.5893   36.9867   21.3954 C   0  0  1  0  0  0  0  0  0  0  0  0
   27.9538   38.2063   20.8578 N   0  0  0  0  0  0  0  0  0  0  0  0
  1  2  1  6  0  0  0
  1  3  1  0  0  0  0
  1  4  2  0  0  0  0
  1  6  1  0  0  0  0
  5  6  1  0  0  0  0
  7  5  1  6  0  0  0
  7  8  1  0  0  0  0
  7  9  1  0  0  0  0
  9 10  1  6  0  0  0
  9 11  1  0  0  0  0
 11 12  1  6  0  0  0
 11 13  1  0  0  0  0
 13 31  1  0  0  0  0
 14 15  1  0  0  0  0
 15 16  2  0  0  0  0
 15 17  1  0  0  0  0
 17 18  1  0  0  0  0
 18 20  2  0  0  0  0
 19 18  1  1  0  0  0
 19 22  1  0  0  0  0
 19 30  1  0  0  0  0
 21 23  1  6  0  0  0
 21 29  1  0  0  0  0
 21 22  1  0  0  0  0
 23 24  1  0  0  0  0
 24 25  1  1  0  0  0
 24 26  1  0  0  0  0
 26 27  1  1  0  0  0
 26 28  1  0  0  0  0
 29 28  1  1  0  0  0
 29 31  1  0  0  0  0
 30 14  1  1  0  0  0
 30 31  1  0  0  0  0
M  CHG  1   3  -1
M  END
>  <CHROM.1>
177.17547273,-53.88967195,60.40267380,64.38072113,173.20758777,168.78716358
95.06622716,28.47895259,37.33713777,19.32922633,-1.06659773,1.19342913,0.62417999

>  <Name>
ligand

>  <RI>
0

>  <Rbt.Current_Directory>
/home/itssahil/PROJECTS/Mol_Feturizer/New_Systems/rnas/3F2T

>  <Rbt.Executable>
rbdock ($Id: //depot/dev/client3/rdock/2013.1/src/exe/rbdock.cxx#4 $)

>  <Rbt.Library>
libRbt.so (2013.1, Build901 2013/11/27)

>  <Rbt.Parameter_File>
/export/apps/rDock/src/rDock_2013.1_src/data/scripts/dock_solv.prm

>  <Rbt.Receptor>
prm/pocket_docking_6.prm

>  <SCORE>
-23.125

>  <SCORE.INTER>
-21.5899

>  <SCORE.INTER.CONST>
1

>  <SCORE.INTER.POLAR>
0

>  <SCORE.INTER.ROT>
7

>  <SCORE.INTER.SOLV>
9.32211

>  <SCORE.INTER.VDW>
-25.7673

>  <SCORE.INTER.norm>
-0.696449

>  <SCORE.INTRA>
-1.53502

>  <SCORE.INTRA.DIHEDRAL>
-2.53729

>  <SCORE.INTRA.DIHEDRAL.0>
4.64198

>  <SCORE.INTRA.POLAR>
0

>  <SCORE.INTRA.POLAR.0>
0

>  <SCORE.INTRA.REPUL>
0

>  <SCORE.INTRA.REPUL.0>
0

>  <SCORE.INTRA.SOLV>
-0.719629

>  <SCORE.INTRA.SOLV.lig_0>
-49.3611

>  <SCORE.INTRA.VDW>
0.0934384

>  <SCORE.INTRA.VDW.0>
-1.91858

>  <SCORE.INTRA.norm>
-0.0495169

>  <SCORE.RESTR>
0

>  <SCORE.RESTR.CAVITY>
0

>  <SCORE.RESTR.norm>
0

>  <SCORE.SYSTEM>
0

>  <SCORE.SYSTEM.CONST>
0

>  <SCORE.SYSTEM.DIHEDRAL>
0

>  <SCORE.SYSTEM.SOLV>
0

>  <SCORE.SYSTEM.norm>
0

>  <SCORE.heavy>
31

>  <SCORE.norm>
-0.745966

>  <RMSD>
5.071

$$$$
ligand
 OpenBabel11021811473D
libRbt.so/2013.1/901 2013/11/27
 31 33  0  0  0  0  0  0  0  0999 V2000
   25.6100   43.4941   16.6440 P   0  0  1  0  0  0  0  0  0  0  0  0
   24.3783   42.6254   16.6094 O   0  0  0  0  0  0  0  0  0  0  0  0
   26.6042   42.9612   15.6467 O   0  5  0  0  0  0  0  0  0  0  0  0
   25.1603   44.8893   16.3078 O   0  0  0  0  0  0  0  0  0  0  0  0
   27.0154   42.3859   18.5590 C   0  0  0  0  0  0  0  0  0  0  0  0
   26.3190   43.5193   18.0845 O   0  0  0  0  0  0  0  0  0  0  0  0
   27.5289   42.6657   19.9691 C   0  0  1  0  0  0  0  0  0  0  0  0
   26.4425   42.7095   20.8727 O   0  0  0  0  0  0  0  0  0  0  0  0
   28.4873   41.5684   20.4005 C   0  0  1  0  0  0  0  0  0  0  0  0
   29.1713   42.0017   21.5458 O   0  0  0  0  0  0  0  0  0  0  0  0
   27.7773   40.2627   20.7165 C   0  0  1  0  0  0  0  0  0  0  0  0
   27.2778   39.7326   19.5184 O   0  0  0  0  0  0  0  0  0  0  0  0
   28.7337   39.2632   21.3455 C   0  0  0  0  0  0  0  0  0  0  0  0
   27.5697   39.9266   23.8203 N   0  0  0  0  0  0  0  0  0  0  0  0
   27.0686   40.2856   25.0528 C   0  0  0  0  0  0  0  0  0  0  0  0
   27.1636   41.4459   25.4421 O   0  0  0  0  0  0  0  0  0  0  0  0
   26.4607   39.3498   25.8582 N   0  0  0  0  0  0  0  0  0  0  0  0
   26.3369   38.0417   25.4323 C   0  0  0  0  0  0  0  0  0  0  0  0
   26.8402   37.6700   24.1906 C   0  0  1  0  0  0  0  0  0  0  0  0
   25.7748   37.2115   26.1495 O   0  0  0  0  0  0  0  0  0  0  0  0
   27.2209   35.9974   22.5242 C   0  0  2  0  0  0  0  0  0  0  0  0
   26.7216   36.3640   23.7594 N   0  0  0  0  0  0  0  0  0  0  0  0
   27.1005   34.6769   22.0896 C   0  0  0  0  0  0  0  0  0  0  0  0
   27.6038   34.2964   20.8512 C   0  0  1  0  0  0  0  0  0  0  0  0
   27.4597   32.8712   20.4199 C   0  0  0  0  0  0  0  0  0  0  0  0
   28.2316   35.2470   20.0321 C   0  0  1  0  0  0  0  0  0  0  0  0
   28.7815   34.8784   18.6815 C   0  0  0  0  0  0  0  0  0  0  0  0
   28.3518   36.5635   20.4692 C   0  0  0  0  0  0  0  0  0  0  0  0
   27.8504   36.9460   21.7147 C   0  0  1  0  0  0  0  0  0  0  0  0
   27.4630   38.6212   23.3849 C   0  0  1  0  0  0  0  0  0  0  0  0
   27.9711   38.2562   22.1528 N   0  0  0  0  0  0  0  0  0  0  0  0
  1  2  1  1  0  0  0
  1  3  1  0  0  0  0
  1  4  2  0  0  0  0
  1  6  1  0  0  0  0
  5  6  1  0  0  0  0
  7  5  1  6  0  0  0
  7  8  1  0  0  0  0
  7  9  1  0  0  0  0
  9 10  1  1  0  0  0
  9 11  1  0  0  0  0
 11 12  1  6  0  0  0
 11 13  1  0  0  0  0
 13 31  1  0  0  0  0
 14 15  1  0  0  0  0
 15 16  2  0  0  0  0
 15 17  1  0  0  0  0
 17 18  1  0  0  0  0
 18 20  2  0  0  0  0
 19 18  1  6  0  0  0
 19 22  1  0  0  0  0
 19 30  1  0  0  0  0
 21 23  1  1  0  0  0
 21 29  1  0  0  0  0
 21 22  1  0  0  0  0
 23 24  1  0  0  0  0
 24 25  1  6  0  0  0
 24 26  1  0  0  0  0
 26 27  1  6  0  0  0
 26 28  1  0  0  0  0
 29 28  1  6  0  0  0
 29 31  1  0  0  0  0
 30 14  1  6  0  0  0
 30 31  1  0  0  0  0
M  CHG  1   3  -1
M  END
>  <CHROM.1>
-177.42073278,71.67469334,70.26683449,166.47882083,68.93551382,156.45591904
108.80750523,27.07851408,39.58413154,20.94967378,-2.55255168,-1.41242830
1.46082053

>  <Name>
ligand

>  <RI>
0

>  <Rbt.Current_Directory>
/home/itssahil/PROJECTS/Mol_Feturizer/New_Systems/rnas/3F2T

>  <Rbt.Executable>
rbdock ($Id: //depot/dev/client3/rdock/2013.1/src/exe/rbdock.cxx#4 $)

>  <Rbt.Library>
libRbt.so (2013.1, Build901 2013/11/27)

>  <Rbt.Parameter_File>
/export/apps/rDock/src/rDock_2013.1_src/data/scripts/dock_solv.prm

>  <Rbt.Receptor>
prm/pocket_docking_7.prm

>  <SCORE>
-27.6549

>  <SCORE.INTER>
-27.9725

>  <SCORE.INTER.CONST>
1

>  <SCORE.INTER.POLAR>
0

>  <SCORE.INTER.ROT>
7

>  <SCORE.INTER.SOLV>
19.6576

>  <SCORE.INTER.VDW>
-33.4675

>  <SCORE.INTER.norm>
-0.902337

>  <SCORE.INTRA>
0.317583

>  <SCORE.INTRA.DIHEDRAL>
-0.056757

>  <SCORE.INTRA.DIHEDRAL.0>
4.64198

>  <SCORE.INTRA.POLAR>
0

>  <SCORE.INTRA.POLAR.0>
0

>  <SCORE.INTRA.REPUL>
0

>  <SCORE.INTRA.REPUL.0>
0

>  <SCORE.INTRA.SOLV>
-0.450101

>  <SCORE.INTRA.SOLV.lig_0>
-49.3611

>  <SCORE.INTRA.VDW>
0.571012

>  <SCORE.INTRA.VDW.0>
-1.91858

>  <SCORE.INTRA.norm>
0.0102446

>  <SCORE.RESTR>
0

>  <SCORE.RESTR.CAVITY>
0

>  <SCORE.RESTR.norm>
0

>  <SCORE.SYSTEM>
0

>  <SCORE.SYSTEM.CONST>
0

>  <SCORE.SYSTEM.DIHEDRAL>
0

>  <SCORE.SYSTEM.SOLV>
0

>  <SCORE.SYSTEM.norm>
0

>  <SCORE.heavy>
31

>  <SCORE.norm>
-0.892093

>  <RMSD>
5.080

$$$$
ligand
 OpenBabel11021811473D
libRbt.so/2013.1/901 2013/11/27
 31 33  0  0  0  0  0  0  0  0999 V2000
   26.8729   34.9893   14.3896 P   0  0  1  0  0  0  0  0  0  0  0  0
   26.5917   36.4582   14.5810 O   0  0  0  0  0  0  0  0  0  0  0  0
   25.8110   34.4078   13.4944 O   0  5  0  0  0  0  0  0  0  0  0  0
   28.2449   34.8911   13.7815 O   0  0  0  0  0  0  0  0  0  0  0  0
   27.8754   34.3732   16.7318 C   0  0  0  0  0  0  0  0  0  0  0  0
   26.8648   34.1648   15.7674 O   0  0  0  0  0  0  0  0  0  0  0  0
   27.7987   35.8117   17.2369 C   0  0  1  0  0  0  0  0  0  0  0  0
   26.5038   36.0723   17.7410 O   0  0  0  0  0  0  0  0  0  0  0  0
   28.8142   36.0278   18.3463 C   0  0  1  0  0  0  0  0  0  0  0  0
   30.0638   35.5747   17.8986 O   0  0  0  0  0  0  0  0  0  0  0  0
   28.9366   37.4873   18.7509 C   0  0  1  0  0  0  0  0  0  0  0  0
   29.2149   38.2404   17.6014 O   0  0  0  0  0  0  0  0  0  0  0  0
   27.6449   37.9874   19.3760 C   0  0  0  0  0  0  0  0  0  0  0  0
   27.4500   35.7751   21.1045 N   0  0  0  0  0  0  0  0  0  0  0  0
   27.2878   34.6710   21.9129 C   0  0  0  0  0  0  0  0  0  0  0  0
   27.1047   33.5642   21.4144 O   0  0  0  0  0  0  0  0  0  0  0  0
   27.3268   34.7974   23.2827 N   0  0  0  0  0  0  0  0  0  0  0  0
   27.5410   36.0336   23.8605 C   0  0  0  0  0  0  0  0  0  0  0  0
   27.7050   37.1535   23.0529 C   0  0  1  0  0  0  0  0  0  0  0  0
   27.5938   36.1385   25.0876 O   0  0  0  0  0  0  0  0  0  0  0  0
   28.0821   39.5035   22.8190 C   0  0  2  0  0  0  0  0  0  0  0  0
   27.9176   38.3923   23.6238 N   0  0  0  0  0  0  0  0  0  0  0  0
   28.2968   40.7551   23.3973 C   0  0  0  0  0  0  0  0  0  0  0  0
   28.4584   41.8801   22.5972 C   0  0  1  0  0  0  0  0  0  0  0  0
   28.6831   43.2061   23.2523 C   0  0  0  0  0  0  0  0  0  0  0  0
   28.4103   41.7547   21.2006 C   0  0  1  0  0  0  0  0  0  0  0  0
   28.5895   42.9454   20.2991 C   0  0  0  0  0  0  0  0  0  0  0  0
   28.1943   40.5047   20.6265 C   0  0  0  0  0  0  0  0  0  0  0  0
   28.0277   39.3747   21.4292 C   0  0  1  0  0  0  0  0  0  0  0  0
   27.6545   37.0188   21.6669 C   0  0  1  0  0  0  0  0  0  0  0  0
   27.8101   38.1292   20.8593 N   0  0  0  0  0  0  0  0  0  0  0  0
  1  2  1  1  0  0  0
  1  3  1  0  0  0  0
  1  4  2  0  0  0  0
  1  6  1  0  0  0  0
  5  6  1  0  0  0  0
  7  5  1  1  0  0  0
  7  8  1  0  0  0  0
  7  9  1  0  0  0  0
  9 10  1  6  0  0  0
  9 11  1  0  0  0  0
 11 12  1  6  0  0  0
 11 13  1  0  0  0  0
 13 31  1  0  0  0  0
 14 15  1  0  0  0  0
 15 16  2  0  0  0  0
 15 17  1  0  0  0  0
 17 18  1  0  0  0  0
 18 20  2  0  0  0  0
 19 18  1  6  0  0  0
 19 22  1  0  0  0  0
 19 30  1  0  0  0  0
 21 23  1  1  0  0  0
 21 29  1  0  0  0  0
 21 22  1  0  0  0  0
 23 24  1  0  0  0  0
 24 25  1  6  0  0  0
 24 26  1  0  0  0  0
 26 27  1  6  0  0  0
 26 28  1  0  0  0  0
 29 28  1  6  0  0  0
 29 31  1  0  0  0  0
 30 14  1  6  0  0  0
 30 31  1  0  0  0  0
M  CHG  1   3  -1
M  END
>  <CHROM.1>
63.25770766,-68.19936821,56.09423380,50.82978751,-54.39443990,105.89383420
101.12621401,27.79591062,37.15869273,19.51903216,-2.21252359,1.40146159,1.65815036

>  <Name>
ligand

>  <RI>
0

>  <Rbt.Current_Directory>
/home/itssahil/PROJECTS/Mol_Feturizer/New_Systems/rnas/3F2T

>  <Rbt.Executable>
rbdock ($Id: //depot/dev/client3/rdock/2013.1/src/exe/rbdock.cxx#4 $)

>  <Rbt.Library>
libRbt.so (2013.1, Build901 2013/11/27)

>  <Rbt.Parameter_File>
/export/apps/rDock/src/rDock_2013.1_src/data/scripts/dock_solv.prm

>  <Rbt.Receptor>
prm/blind_docking_100.prm

>  <SCORE>
-20.173

>  <SCORE.INTER>
-22.2091

>  <SCORE.INTER.CONST>
1

>  <SCORE.INTER.POLAR>
0

>  <SCORE.INTER.ROT>
7

>  <SCORE.INTER.SOLV>
11.9104

>  <SCORE.INTER.VDW>
-27.0429

>  <SCORE.INTER.norm>
-0.716424

>  <SCORE.INTRA>
2.03613

>  <SCORE.INTRA.DIHEDRAL>
1.93266

>  <SCORE.INTRA.DIHEDRAL.0>
4.64198

>  <SCORE.INTRA.POLAR>
0

>  <SCORE.INTRA.POLAR.0>
0

>  <SCORE.INTRA.REPUL>
0

>  <SCORE.INTRA.REPUL.0>
0

>  <SCORE.INTRA.SOLV>
0.896639

>  <SCORE.INTRA.SOLV.lig_0>
-49.3611

>  <SCORE.INTRA.VDW>
0.621479

>  <SCORE.INTRA.VDW.0>
-1.91858

>  <SCORE.INTRA.norm>
0.0656815

>  <SCORE.RESTR>
0

>  <SCORE.RESTR.CAVITY>
0

>  <SCORE.RESTR.norm>
0

>  <SCORE.SYSTEM>
0

>  <SCORE.SYSTEM.CONST>
0

>  <SCORE.SYSTEM.DIHEDRAL>
0

>  <SCORE.SYSTEM.SOLV>
0

>  <SCORE.SYSTEM.norm>
0

>  <SCORE.heavy>
31

>  <SCORE.norm>
-0.650742

>  <RMSD>
5.085

$$$$
ligand
 OpenBabel11021811473D
libRbt.so/2013.1/901 2013/11/27
 31 33  0  0  0  0  0  0  0  0999 V2000
   24.4339   43.1528   18.0968 P   0  0  1  0  0  0  0  0  0  0  0  0
   24.0106   42.1007   17.1033 O   0  0  0  0  0  0  0  0  0  0  0  0
   24.1263   44.5101   17.5223 O   0  5  0  0  0  0  0  0  0  0  0  0
   23.6646   42.8832   19.3608 O   0  0  0  0  0  0  0  0  0  0  0  0
   26.5190   42.1040   19.2896 C   0  0  0  0  0  0  0  0  0  0  0  0
   26.0031   43.1019   18.4335 O   0  0  0  0  0  0  0  0  0  0  0  0
   28.0332   42.0247   19.1133 C   0  0  1  0  0  0  0  0  0  0  0  0
   28.5804   43.3281   19.0929 O   0  0  0  0  0  0  0  0  0  0  0  0
   28.6504   41.2471   20.2637 C   0  0  1  0  0  0  0  0  0  0  0  0
   28.3198   41.8931   21.4639 O   0  0  0  0  0  0  0  0  0  0  0  0
   28.1604   39.8102   20.3277 C   0  0  1  0  0  0  0  0  0  0  0  0
   28.2827   39.2465   19.0497 O   0  0  0  0  0  0  0  0  0  0  0  0
   28.9850   38.9990   21.3133 C   0  0  0  0  0  0  0  0  0  0  0  0
   27.7889   39.5988   23.7891 N   0  0  0  0  0  0  0  0  0  0  0  0
   27.2738   39.9192   25.0264 C   0  0  0  0  0  0  0  0  0  0  0  0
   27.4502   41.0398   25.4955 O   0  0  0  0  0  0  0  0  0  0  0  0
   26.5609   38.9888   25.7476 N   0  0  0  0  0  0  0  0  0  0  0  0
   26.3450   37.7261   25.2311 C   0  0  0  0  0  0  0  0  0  0  0  0
   26.8614   37.3935   23.9837 C   0  0  1  0  0  0  0  0  0  0  0  0
   25.6897   36.9025   25.8728 O   0  0  0  0  0  0  0  0  0  0  0  0
   27.1637   35.8050   22.2216 C   0  0  2  0  0  0  0  0  0  0  0  0
   26.6510   36.1327   23.4623 N   0  0  0  0  0  0  0  0  0  0  0  0
   26.9503   34.5303   21.6958 C   0  0  0  0  0  0  0  0  0  0  0  0
   27.4660   34.1886   20.4511 C   0  0  1  0  0  0  0  0  0  0  0  0
   27.2203   32.8115   19.9207 C   0  0  0  0  0  0  0  0  0  0  0  0
   28.2005   35.1329   19.7180 C   0  0  1  0  0  0  0  0  0  0  0  0
   28.7677   34.8063   18.3637 C   0  0  0  0  0  0  0  0  0  0  0  0
   28.4131   36.4036   20.2461 C   0  0  0  0  0  0  0  0  0  0  0  0
   27.8993   36.7466   21.4980 C   0  0  1  0  0  0  0  0  0  0  0  0
   27.5905   38.3378   23.2639 C   0  0  1  0  0  0  0  0  0  0  0  0
   28.1119   38.0109   22.0267 N   0  0  0  0  0  0  0  0  0  0  0  0
  1  2  1  6  0  0  0
  1  3  1  0  0  0  0
  1  4  2  0  0  0  0
  1  6  1  0  0  0  0
  5  6  1  0  0  0  0
  7  5  1  1  0  0  0
  7  8  1  0  0  0  0
  7  9  1  0  0  0  0
  9 10  1  1  0  0  0
  9 11  1  0  0  0  0
 11 12  1  6  0  0  0
 11 13  1  0  0  0  0
 13 31  1  0  0  0  0
 14 15  1  0  0  0  0
 15 16  2  0  0  0  0
 15 17  1  0  0  0  0
 17 18  1  0  0  0  0
 18 20  2  0  0  0  0
 19 18  1  6  0  0  0
 19 22  1  0  0  0  0
 19 30  1  0  0  0  0
 21 23  1  1  0  0  0
 21 29  1  0  0  0  0
 21 22  1  0  0  0  0
 23 24  1  0  0  0  0
 24 25  1  6  0  0  0
 24 26  1  0  0  0  0
 26 27  1  6  0  0  0
 26 28  1  0  0  0  0
 29 28  1  6  0  0  0
 29 31  1  0  0  0  0
 30 14  1  6  0  0  0
 30 31  1  0  0  0  0
M  CHG  1   3  -1
M  END
>  <CHROM.1>
163.37010452,-76.23992185,44.87212492,-58.57771550,49.46753170,143.85602028
88.64662433,26.94909549,39.32900344,21.03712732,-2.79746657,-1.33124497,1.39632660

>  <Name>
ligand

>  <RI>
0

>  <Rbt.Current_Directory>
/home/itssahil/PROJECTS/Mol_Feturizer/New_Systems/rnas/3F2T

>  <Rbt.Executable>
rbdock ($Id: //depot/dev/client3/rdock/2013.1/src/exe/rbdock.cxx#4 $)

>  <Rbt.Library>
libRbt.so (2013.1, Build901 2013/11/27)

>  <Rbt.Parameter_File>
/export/apps/rDock/src/rDock_2013.1_src/data/scripts/dock_solv.prm

>  <Rbt.Receptor>
prm/blind_docking_60.prm

>  <SCORE>
-23.7987

>  <SCORE.INTER>
-25.6039

>  <SCORE.INTER.CONST>
1

>  <SCORE.INTER.POLAR>
0

>  <SCORE.INTER.ROT>
7

>  <SCORE.INTER.SOLV>
21.1006

>  <SCORE.INTER.VDW>
-32.3695

>  <SCORE.INTER.norm>
-0.825934

>  <SCORE.INTRA>
1.80529

>  <SCORE.INTRA.DIHEDRAL>
3.08362

>  <SCORE.INTRA.DIHEDRAL.0>
4.64198

>  <SCORE.INTRA.POLAR>
0

>  <SCORE.INTRA.POLAR.0>
0

>  <SCORE.INTRA.REPUL>
0

>  <SCORE.INTRA.REPUL.0>
0

>  <SCORE.INTRA.SOLV>
-0.548158

>  <SCORE.INTRA.SOLV.lig_0>
-49.3611

>  <SCORE.INTRA.VDW>
0.537558

>  <SCORE.INTRA.VDW.0>
-1.91858

>  <SCORE.INTRA.norm>
0.0582351

>  <SCORE.RESTR>
0

>  <SCORE.RESTR.CAVITY>
0

>  <SCORE.RESTR.norm>
0

>  <SCORE.SYSTEM>
0

>  <SCORE.SYSTEM.CONST>
0

>  <SCORE.SYSTEM.DIHEDRAL>
0

>  <SCORE.SYSTEM.SOLV>
0

>  <SCORE.SYSTEM.norm>
0

>  <SCORE.heavy>
31

>  <SCORE.norm>
-0.767699

>  <RMSD>
5.086

$$$$
ligand
 OpenBabel11021811473D
libRbt.so/2013.1/901 2013/11/27
 31 33  0  0  0  0  0  0  0  0999 V2000
   26.7773   42.9354   16.5338 P   0  0  1  0  0  0  0  0  0  0  0  0
   25.9174   41.9503   17.2845 O   0  0  0  0  0  0  0  0  0  0  0  0
   26.2324   43.0859   15.1384 O   0  5  0  0  0  0  0  0  0  0  0  0
   26.7259   44.2250   17.3060 O   0  0  0  0  0  0  0  0  0  0  0  0
   29.0967   42.3066   17.5807 C   0  0  0  0  0  0  0  0  0  0  0  0
   28.3097   42.4696   16.4192 O   0  0  0  0  0  0  0  0  0  0  0  0
   28.4894   41.2076   18.4488 C   0  0  1  0  0  0  0  0  0  0  0  0
   29.3060   40.0546   18.3997 O   0  0  0  0  0  0  0  0  0  0  0  0
   28.3868   41.6801   19.8893 C   0  0  1  0  0  0  0  0  0  0  0  0
   27.6416   42.8681   19.9146 O   0  0  0  0  0  0  0  0  0  0  0  0
   27.7159   40.6595   20.7931 C   0  0  1  0  0  0  0  0  0  0  0  0
   26.6774   40.0508   20.0742 O   0  0  0  0  0  0  0  0  0  0  0  0
   28.7057   39.5962   21.2395 C   0  0  0  0  0  0  0  0  0  0  0  0
   27.6338   40.1923   23.7724 N   0  0  0  0  0  0  0  0  0  0  0  0
   27.1777   40.5201   25.0307 C   0  0  0  0  0  0  0  0  0  0  0  0
   27.2560   41.6775   25.4320 O   0  0  0  0  0  0  0  0  0  0  0  0
   26.6337   39.5562   25.8486 N   0  0  0  0  0  0  0  0  0  0  0  0
   26.5293   38.2507   25.4098 C   0  0  0  0  0  0  0  0  0  0  0  0
   26.9876   37.9103   24.1420 C   0  0  1  0  0  0  0  0  0  0  0  0
   26.0241   37.3948   26.1391 O   0  0  0  0  0  0  0  0  0  0  0  0
   27.3426   36.2716   22.4366 C   0  0  2  0  0  0  0  0  0  0  0  0
   26.8881   36.6071   23.6978 N   0  0  0  0  0  0  0  0  0  0  0  0
   27.2415   34.9540   21.9889 C   0  0  0  0  0  0  0  0  0  0  0  0
   27.7002   34.6048   20.7242 C   0  0  1  0  0  0  0  0  0  0  0  0
   27.5788   33.1816   20.2793 C   0  0  0  0  0  0  0  0  0  0  0  0
   28.2631   35.5842   19.8921 C   0  0  1  0  0  0  0  0  0  0  0  0
   28.7630   35.2498   18.5134 C   0  0  0  0  0  0  0  0  0  0  0  0
   28.3641   36.8979   20.3423 C   0  0  0  0  0  0  0  0  0  0  0  0
   27.9075   37.2490   21.6140 C   0  0  1  0  0  0  0  0  0  0  0  0
   27.5460   38.8900   23.3235 C   0  0  1  0  0  0  0  0  0  0  0  0
   28.0093   38.5565   22.0651 N   0  0  0  0  0  0  0  0  0  0  0  0
  1  2  1  1  0  0  0
  1  3  1  0  0  0  0
  1  4  2  0  0  0  0
  1  6  1  0  0  0  0
  5  6  1  0  0  0  0
  7  5  1  6  0  0  0
  7  8  1  0  0  0  0
  7  9  1  0  0  0  0
  9 10  1  6  0  0  0
  9 11  1  0  0  0  0
 11 12  1  6  0  0  0
 11 13  1  0  0  0  0
 13 31  1  0  0  0  0
 14 15  1  0  0  0  0
 15 16  2  0  0  0  0
 15 17  1  0  0  0  0
 17 18  1  0  0  0  0
 18 20  2  0  0  0  0
 19 18  1  6  0  0  0
 19 22  1  0  0  0  0
 19 30  1  0  0  0  0
 21 23  1  1  0  0  0
 21 29  1  0  0  0  0
 21 22  1  0  0  0  0
 23 24  1  0  0  0  0
 24 25  1  6  0  0  0
 24 26  1  0  0  0  0
 26 27  1  6  0  0  0
 26 28  1  0  0  0  0
 29 28  1  6  0  0  0
 29 31  1  0  0  0  0
 30 14  1  6  0  0  0
 30 31  1  0  0  0  0
M  CHG  1   3  -1
M  END
>  <CHROM.1>
62.33185538,-62.64828129,108.10577658,56.16278986,-37.87181538,-176.77905802
114.95833433,27.49733146,39.53666762,20.66688105,1.47865923,1.42223327,-0.77522097

>  <Name>
ligand

>  <RI>
0

>  <Rbt.Current_Directory>
/home/itssahil/PROJECTS/Mol_Feturizer/New_Systems/rnas/3F2T

>  <Rbt.Executable>
rbdock ($Id: //depot/dev/client3/rdock/2013.1/src/exe/rbdock.cxx#4 $)

>  <Rbt.Library>
libRbt.so (2013.1, Build901 2013/11/27)

>  <Rbt.Parameter_File>
/export/apps/rDock/src/rDock_2013.1_src/data/scripts/dock_solv.prm

>  <Rbt.Receptor>
prm/pocket_docking_4.prm

>  <SCORE>
-25.0544

>  <SCORE.INTER>
-27.6528

>  <SCORE.INTER.CONST>
1

>  <SCORE.INTER.POLAR>
0

>  <SCORE.INTER.ROT>
7

>  <SCORE.INTER.SOLV>
20.2326

>  <SCORE.INTER.VDW>
-33.4461

>  <SCORE.INTER.norm>
-0.892027

>  <SCORE.INTRA>
2.59838

>  <SCORE.INTRA.DIHEDRAL>
3.14944

>  <SCORE.INTRA.DIHEDRAL.0>
4.64198

>  <SCORE.INTRA.POLAR>
0

>  <SCORE.INTRA.POLAR.0>
0

>  <SCORE.INTRA.REPUL>
0

>  <SCORE.INTRA.REPUL.0>
0

>  <SCORE.INTRA.SOLV>
2.33068

>  <SCORE.INTRA.SOLV.lig_0>
-49.3611

>  <SCORE.INTRA.VDW>
-0.141687

>  <SCORE.INTRA.VDW.0>
-1.91858

>  <SCORE.INTRA.norm>
0.0838186

>  <SCORE.RESTR>
0

>  <SCORE.RESTR.CAVITY>
0

>  <SCORE.RESTR.norm>
0

>  <SCORE.SYSTEM>
0

>  <SCORE.SYSTEM.CONST>
0

>  <SCORE.SYSTEM.DIHEDRAL>
0

>  <SCORE.SYSTEM.SOLV>
0

>  <SCORE.SYSTEM.norm>
0

>  <SCORE.heavy>
31

>  <SCORE.norm>
-0.808208

>  <RMSD>
5.092

$$$$
ligand
 OpenBabel11021811473D
libRbt.so/2013.1/901 2013/11/27
 31 33  0  0  0  0  0  0  0  0999 V2000
   26.3162   44.0149   16.5563 P   0  0  1  0  0  0  0  0  0  0  0  0
   25.8238   45.3329   17.0981 O   0  0  0  0  0  0  0  0  0  0  0  0
   25.1303   43.1190   16.3159 O   0  5  0  0  0  0  0  0  0  0  0  0
   27.0609   44.3245   15.2868 O   0  0  0  0  0  0  0  0  0  0  0  0
   26.8229   42.6722   18.7497 C   0  0  0  0  0  0  0  0  0  0  0  0
   27.3133   43.2572   17.5613 O   0  0  0  0  0  0  0  0  0  0  0  0
   27.9989   42.1843   19.5918 C   0  0  1  0  0  0  0  0  0  0  0  0
   28.8278   43.2776   19.9330 O   0  0  0  0  0  0  0  0  0  0  0  0
   27.4902   41.5324   20.8666 C   0  0  1  0  0  0  0  0  0  0  0  0
   26.3852   42.2626   21.3281 O   0  0  0  0  0  0  0  0  0  0  0  0
   27.0715   40.0868   20.6572 C   0  0  1  0  0  0  0  0  0  0  0  0
   26.7409   39.9161   19.3054 O   0  0  0  0  0  0  0  0  0  0  0  0
   28.2007   39.1367   21.0200 C   0  0  0  0  0  0  0  0  0  0  0  0
   27.5820   40.0948   23.5928 N   0  0  0  0  0  0  0  0  0  0  0  0
   27.3465   40.6061   24.8505 C   0  0  0  0  0  0  0  0  0  0  0  0
   27.3985   41.8174   25.0426 O   0  0  0  0  0  0  0  0  0  0  0  0
   27.0540   39.7669   25.9013 N   0  0  0  0  0  0  0  0  0  0  0  0
   26.9823   38.4021   25.7013 C   0  0  0  0  0  0  0  0  0  0  0  0
   27.2192   37.8769   24.4358 C   0  0  1  0  0  0  0  0  0  0  0  0
   26.7015   37.6562   26.6417 O   0  0  0  0  0  0  0  0  0  0  0  0
   27.3850   35.9943   22.9703 C   0  0  2  0  0  0  0  0  0  0  0  0
   27.1510   36.5137   24.2293 N   0  0  0  0  0  0  0  0  0  0  0  0
   27.3159   34.6162   22.7630 C   0  0  0  0  0  0  0  0  0  0  0  0
   27.5545   34.0829   21.5018 C   0  0  1  0  0  0  0  0  0  0  0  0
   27.4753   32.6004   21.3177 C   0  0  0  0  0  0  0  0  0  0  0  0
   27.8614   34.9361   20.4311 C   0  0  1  0  0  0  0  0  0  0  0  0
   28.1174   34.4002   19.0491 C   0  0  0  0  0  0  0  0  0  0  0  0
   27.9312   36.3107   20.6415 C   0  0  0  0  0  0  0  0  0  0  0  0
   27.6959   36.8472   21.9087 C   0  0  1  0  0  0  0  0  0  0  0  0
   27.5243   38.7324   23.3791 C   0  0  1  0  0  0  0  0  0  0  0  0
   27.7672   38.2158   22.1208 N   0  0  0  0  0  0  0  0  0  0  0  0
  1  2  1  1  0  0  0
  1  3  1  0  0  0  0
  1  4  2  0  0  0  0
  1  6  1  0  0  0  0
  5  6  1  0  0  0  0
  7  5  1  6  0  0  0
  7  8  1  0  0  0  0
  7  9  1  0  0  0  0
  9 10  1  6  0  0  0
  9 11  1  0  0  0  0
 11 12  1  6  0  0  0
 11 13  1  0  0  0  0
 13 31  1  0  0  0  0
 14 15  1  0  0  0  0
 15 16  2  0  0  0  0
 15 17  1  0  0  0  0
 17 18  1  0  0  0  0
 18 20  2  0  0  0  0
 19 18  1  6  0  0  0
 19 22  1  0  0  0  0
 19 30  1  0  0  0  0
 21 23  1  1  0  0  0
 21 29  1  0  0  0  0
 21 22  1  0  0  0  0
 23 24  1  0  0  0  0
 24 25  1  6  0  0  0
 24 26  1  0  0  0  0
 26 27  1  6  0  0  0
 26 28  1  0  0  0  0
 29 28  1  6  0  0  0
 29 31  1  0  0  0  0
 30 14  1  6  0  0  0
 30 31  1  0  0  0  0
M  CHG  1   3  -1
M  END
>  <CHROM.1>
-172.80881076,71.54146726,60.92463990,-38.24719214,-24.35333594,120.10899032
117.00866023,27.20338156,39.74117045,21.00736031,-2.74347202,-1.48114751
1.29276065

>  <Name>
ligand

>  <RI>
0

>  <Rbt.Current_Directory>
/home/itssahil/PROJECTS/Mol_Feturizer/New_Systems/rnas/3F2T

>  <Rbt.Executable>
rbdock ($Id: //depot/dev/client3/rdock/2013.1/src/exe/rbdock.cxx#4 $)

>  <Rbt.Library>
libRbt.so (2013.1, Build901 2013/11/27)

>  <Rbt.Parameter_File>
/export/apps/rDock/src/rDock_2013.1_src/data/scripts/dock_solv.prm

>  <Rbt.Receptor>
prm/blind_docking_80.prm

>  <SCORE>
-22.2325

>  <SCORE.INTER>
-27.8383

>  <SCORE.INTER.CONST>
1

>  <SCORE.INTER.POLAR>
0

>  <SCORE.INTER.ROT>
7

>  <SCORE.INTER.SOLV>
21.5323

>  <SCORE.INTER.VDW>
-34.003

>  <SCORE.INTER.norm>
-0.89801

>  <SCORE.INTRA>
5.60581

>  <SCORE.INTRA.DIHEDRAL>
7.36597

>  <SCORE.INTRA.DIHEDRAL.0>
4.64198

>  <SCORE.INTRA.POLAR>
0

>  <SCORE.INTRA.POLAR.0>
0

>  <SCORE.INTRA.REPUL>
0

>  <SCORE.INTRA.REPUL.0>
0

>  <SCORE.INTRA.SOLV>
-0.39622

>  <SCORE.INTRA.SOLV.lig_0>
-49.3611

>  <SCORE.INTRA.VDW>
2.12093

>  <SCORE.INTRA.VDW.0>
-1.91858

>  <SCORE.INTRA.norm>
0.180833

>  <SCORE.RESTR>
0

>  <SCORE.RESTR.CAVITY>
0

>  <SCORE.RESTR.norm>
0

>  <SCORE.SYSTEM>
0

>  <SCORE.SYSTEM.CONST>
0

>  <SCORE.SYSTEM.DIHEDRAL>
0

>  <SCORE.SYSTEM.SOLV>
0

>  <SCORE.SYSTEM.norm>
0

>  <SCORE.heavy>
31

>  <SCORE.norm>
-0.717178

>  <RMSD>
5.098

$$$$
ligand
 OpenBabel11021811473D
libRbt.so/2013.1/901 2013/11/27
 31 33  0  0  0  0  0  0  0  0999 V2000
   26.0948   43.4940   16.2585 P   0  0  1  0  0  0  0  0  0  0  0  0
   26.4728   44.6091   17.2002 O   0  0  0  0  0  0  0  0  0  0  0  0
   24.9342   43.9486   15.4139 O   0  5  0  0  0  0  0  0  0  0  0  0
   27.3164   43.1973   15.4329 O   0  0  0  0  0  0  0  0  0  0  0  0
   26.5959   41.4189   17.7795 C   0  0  0  0  0  0  0  0  0  0  0  0
   25.6556   42.1510   17.0214 O   0  0  0  0  0  0  0  0  0  0  0  0
   27.0330   42.2542   18.9801 C   0  0  1  0  0  0  0  0  0  0  0  0
   25.9108   42.5573   19.7848 O   0  0  0  0  0  0  0  0  0  0  0  0
   28.0433   41.4812   19.8110 C   0  0  1  0  0  0  0  0  0  0  0  0
   28.6276   42.3628   20.7322 O   0  0  0  0  0  0  0  0  0  0  0  0
   27.4141   40.3243   20.5689 C   0  0  1  0  0  0  0  0  0  0  0  0
   26.9042   39.4118   19.6344 O   0  0  0  0  0  0  0  0  0  0  0  0
   28.4424   39.6243   21.4420 C   0  0  0  0  0  0  0  0  0  0  0  0
   27.3394   40.2930   23.9432 N   0  0  0  0  0  0  0  0  0  0  0  0
   26.8669   40.6592   25.1848 C   0  0  0  0  0  0  0  0  0  0  0  0
   26.9083   41.8342   25.5376 O   0  0  0  0  0  0  0  0  0  0  0  0
   26.3477   39.7143   26.0401 N   0  0  0  0  0  0  0  0  0  0  0  0
   26.2849   38.3890   25.6560 C   0  0  0  0  0  0  0  0  0  0  0  0
   26.7600   38.0100   24.4054 C   0  0  1  0  0  0  0  0  0  0  0  0
   25.8016   37.5495   26.4184 O   0  0  0  0  0  0  0  0  0  0  0  0
   27.1732   36.3130   22.7718 C   0  0  2  0  0  0  0  0  0  0  0  0
   26.7021   36.6869   24.0158 N   0  0  0  0  0  0  0  0  0  0  0  0
   27.1141   34.9753   22.3793 C   0  0  0  0  0  0  0  0  0  0  0  0
   27.5899   34.5876   21.1322 C   0  0  1  0  0  0  0  0  0  0  0  0
   27.5137   33.1441   20.7468 C   0  0  0  0  0  0  0  0  0  0  0  0
   28.1277   35.5480   20.2620 C   0  0  1  0  0  0  0  0  0  0  0  0
   28.6448   35.1715   18.9007 C   0  0  0  0  0  0  0  0  0  0  0  0
   28.1867   36.8818   20.6572 C   0  0  0  0  0  0  0  0  0  0  0  0
   27.7130   37.2718   21.9112 C   0  0  1  0  0  0  0  0  0  0  0  0
   27.2932   38.9711   23.5489 C   0  0  1  0  0  0  0  0  0  0  0  0
   27.7731   38.5994   22.3075 N   0  0  0  0  0  0  0  0  0  0  0  0
  1  2  1  1  0  0  0
  1  3  1  0  0  0  0
  1  4  2  0  0  0  0
  1  6  1  0  0  0  0
  5  6  1  0  0  0  0
  7  5  1  6  0  0  0
  7  8  1  0  0  0  0
  7  9  1  0  0  0  0
  9 10  1  1  0  0  0
  9 11  1  0  0  0  0
 11 12  1  6  0  0  0
 11 13  1  0  0  0  0
 13 31  1  0  0  0  0
 14 15  1  0  0  0  0
 15 16  2  0  0  0  0
 15 17  1  0  0  0  0
 17 18  1  0  0  0  0
 18 20  2  0  0  0  0
 19 18  1  6  0  0  0
 19 22  1  0  0  0  0
 19 30  1  0  0  0  0
 21 23  1  1  0  0  0
 21 29  1  0  0  0  0
 21 22  1  0  0  0  0
 23 24  1  0  0  0  0
 24 25  1  6  0  0  0
 24 26  1  0  0  0  0
 26 27  1  6  0  0  0
 26 28  1  0  0  0  0
 29 28  1  6  0  0  0
 29 31  1  0  0  0  0
 30 14  1  6  0  0  0
 30 31  1  0  0  0  0
M  CHG  1   3  -1
M  END
>  <CHROM.1>
66.16685844,-66.50325687,59.94617551,167.88888143,63.14364060,172.99628784
95.12302765,27.01451424,39.72122269,20.84317677,-2.08939891,-1.40546168,1.79657010

>  <Name>
ligand

>  <RI>
0

>  <Rbt.Current_Directory>
/home/itssahil/PROJECTS/Mol_Feturizer/New_Systems/rnas/3F2T

>  <Rbt.Executable>
rbdock ($Id: //depot/dev/client3/rdock/2013.1/src/exe/rbdock.cxx#4 $)

>  <Rbt.Library>
libRbt.so (2013.1, Build901 2013/11/27)

>  <Rbt.Parameter_File>
/export/apps/rDock/src/rDock_2013.1_src/data/scripts/dock_solv.prm

>  <Rbt.Receptor>
prm/blind_docking_80.prm

>  <SCORE>
-27.7487

>  <SCORE.INTER>
-27.8188

>  <SCORE.INTER.CONST>
1

>  <SCORE.INTER.POLAR>
0

>  <SCORE.INTER.ROT>
7

>  <SCORE.INTER.SOLV>
21.0405

>  <SCORE.INTER.VDW>
-33.8261

>  <SCORE.INTER.norm>
-0.897382

>  <SCORE.INTRA>
0.0670399

>  <SCORE.INTRA.DIHEDRAL>
-2.29676

>  <SCORE.INTRA.DIHEDRAL.0>
4.64198

>  <SCORE.INTRA.POLAR>
0

>  <SCORE.INTRA.POLAR.0>
0

>  <SCORE.INTRA.REPUL>
0

>  <SCORE.INTRA.REPUL.0>
0

>  <SCORE.INTRA.SOLV>
0.917656

>  <SCORE.INTRA.SOLV.lig_0>
-49.3611

>  <SCORE.INTRA.VDW>
0.756594

>  <SCORE.INTRA.VDW.0>
-1.91858

>  <SCORE.INTRA.norm>
0.00216258

>  <SCORE.RESTR>
0.0031268

>  <SCORE.RESTR.CAVITY>
0.0031268

>  <SCORE.RESTR.norm>
0.000100865

>  <SCORE.SYSTEM>
0

>  <SCORE.SYSTEM.CONST>
0

>  <SCORE.SYSTEM.DIHEDRAL>
0

>  <SCORE.SYSTEM.SOLV>
0

>  <SCORE.SYSTEM.norm>
0

>  <SCORE.heavy>
31

>  <SCORE.norm>
-0.895119

>  <RMSD>
5.100

$$$$
ligand
 OpenBabel11021811473D
libRbt.so/2013.1/901 2013/11/27
 31 33  0  0  0  0  0  0  0  0999 V2000
   25.1996   43.2392   16.8278 P   0  0  1  0  0  0  0  0  0  0  0  0
   25.2439   44.4938   17.6628 O   0  0  0  0  0  0  0  0  0  0  0  0
   24.2665   42.2562   17.4836 O   0  5  0  0  0  0  0  0  0  0  0  0
   24.7232   43.6501   15.4617 O   0  0  0  0  0  0  0  0  0  0  0  0
   27.0931   41.6288   17.6593 C   0  0  0  0  0  0  0  0  0  0  0  0
   26.6348   42.5351   16.6778 O   0  0  0  0  0  0  0  0  0  0  0  0
   27.3229   42.3797   18.9683 C   0  0  1  0  0  0  0  0  0  0  0  0
   26.0956   42.5317   19.6533 O   0  0  0  0  0  0  0  0  0  0  0  0
   28.2885   41.6051   19.8493 C   0  0  1  0  0  0  0  0  0  0  0  0
   28.8134   42.4817   20.8103 O   0  0  0  0  0  0  0  0  0  0  0  0
   27.6241   40.4377   20.5597 C   0  0  1  0  0  0  0  0  0  0  0  0
   27.0345   39.6120   19.5919 O   0  0  0  0  0  0  0  0  0  0  0  0
   28.6422   39.6332   21.3507 C   0  0  0  0  0  0  0  0  0  0  0  0
   27.5533   40.2250   23.8774 N   0  0  0  0  0  0  0  0  0  0  0  0
   27.0885   40.5513   25.1329 C   0  0  0  0  0  0  0  0  0  0  0  0
   27.1568   41.7097   25.5332 O   0  0  0  0  0  0  0  0  0  0  0  0
   26.5470   39.5847   25.9493 N   0  0  0  0  0  0  0  0  0  0  0  0
   26.4538   38.2779   25.5116 C   0  0  0  0  0  0  0  0  0  0  0  0
   26.9209   37.9392   24.2466 C   0  0  1  0  0  0  0  0  0  0  0  0
   25.9507   37.4195   26.2394 O   0  0  0  0  0  0  0  0  0  0  0  0
   27.2958   36.3008   22.5451 C   0  0  2  0  0  0  0  0  0  0  0  0
   26.8326   36.6347   23.8035 N   0  0  0  0  0  0  0  0  0  0  0  0
   27.2060   34.9820   22.0986 C   0  0  0  0  0  0  0  0  0  0  0  0
   27.6736   34.6344   20.8366 C   0  0  1  0  0  0  0  0  0  0  0  0
   27.5642   33.2099   20.3929 C   0  0  0  0  0  0  0  0  0  0  0  0
   28.2340   35.6166   20.0061 C   0  0  1  0  0  0  0  0  0  0  0  0
   28.7431   35.2840   18.6305 C   0  0  0  0  0  0  0  0  0  0  0  0
   28.3236   36.9315   20.4552 C   0  0  0  0  0  0  0  0  0  0  0  0
   27.8582   37.2811   21.7241 C   0  0  1  0  0  0  0  0  0  0  0  0
   27.4767   38.9216   23.4296 C   0  0  1  0  0  0  0  0  0  0  0  0
   27.9487   38.5897   22.1741 N   0  0  0  0  0  0  0  0  0  0  0  0
  1  2  1  1  0  0  0
  1  3  1  0  0  0  0
  1  4  2  0  0  0  0
  1  6  1  0  0  0  0
  5  6  1  0  0  0  0
  7  5  1  6  0  0  0
  7  8  1  0  0  0  0
  7  9  1  0  0  0  0
  9 10  1  1  0  0  0
  9 11  1  0  0  0  0
 11 12  1  6  0  0  0
 11 13  1  0  0  0  0
 13 31  1  0  0  0  0
 14 15  1  0  0  0  0
 15 16  2  0  0  0  0
 15 17  1  0  0  0  0
 17 18  1  0  0  0  0
 18 20  2  0  0  0  0
 19 18  1  6  0  0  0
 19 22  1  0  0  0  0
 19 30  1  0  0  0  0
 21 23  1  1  0  0  0
 21 29  1  0  0  0  0
 21 22  1  0  0  0  0
 23 24  1  0  0  0  0
 24 25  1  6  0  0  0
 24 26  1  0  0  0  0
 26 27  1  6  0  0  0
 26 28  1  0  0  0  0
 29 28  1  6  0  0  0
 29 31  1  0  0  0  0
 30 14  1  6  0  0  0
 30 31  1  0  0  0  0
M  CHG  1   3  -1
M  END
>  <CHROM.1>
-66.24554813,85.79609739,81.90950635,161.04439748,56.17125012,173.19568133
97.94094039,26.96844259,39.68104473,20.85744700,-2.54756248,-1.36061213,1.38995050

>  <Name>
ligand

>  <RI>
0

>  <Rbt.Current_Directory>
/home/itssahil/PROJECTS/Mol_Feturizer/New_Systems/rnas/3F2T

>  <Rbt.Executable>
rbdock ($Id: //depot/dev/client3/rdock/2013.1/src/exe/rbdock.cxx#4 $)

>  <Rbt.Library>
libRbt.so (2013.1, Build901 2013/11/27)

>  <Rbt.Parameter_File>
/export/apps/rDock/src/rDock_2013.1_src/data/scripts/dock_solv.prm

>  <Rbt.Receptor>
prm/pocket_docking_5.prm

>  <SCORE>
-26.2467

>  <SCORE.INTER>
-28.0786

>  <SCORE.INTER.CONST>
1

>  <SCORE.INTER.POLAR>
0

>  <SCORE.INTER.ROT>
7

>  <SCORE.INTER.SOLV>
19.8682

>  <SCORE.INTER.VDW>
-33.6085

>  <SCORE.INTER.norm>
-0.905761

>  <SCORE.INTRA>
1.83194

>  <SCORE.INTRA.DIHEDRAL>
0.773746

>  <SCORE.INTRA.DIHEDRAL.0>
4.64198

>  <SCORE.INTRA.POLAR>
0

>  <SCORE.INTRA.POLAR.0>
0

>  <SCORE.INTRA.REPUL>
0

>  <SCORE.INTRA.REPUL.0>
0

>  <SCORE.INTRA.SOLV>
2.17073

>  <SCORE.INTRA.SOLV.lig_0>
-49.3611

>  <SCORE.INTRA.VDW>
0.359696

>  <SCORE.INTRA.VDW.0>
-1.91858

>  <SCORE.INTRA.norm>
0.0590947

>  <SCORE.RESTR>
0

>  <SCORE.RESTR.CAVITY>
0

>  <SCORE.RESTR.norm>
0

>  <SCORE.SYSTEM>
0

>  <SCORE.SYSTEM.CONST>
0

>  <SCORE.SYSTEM.DIHEDRAL>
0

>  <SCORE.SYSTEM.SOLV>
0

>  <SCORE.SYSTEM.norm>
0

>  <SCORE.heavy>
31

>  <SCORE.norm>
-0.846667

>  <RMSD>
5.103

$$$$
ligand
 OpenBabel11021811473D
libRbt.so/2013.1/901 2013/11/27
 31 33  0  0  0  0  0  0  0  0999 V2000
   26.5883   43.1634   16.8398 P   0  0  1  0  0  0  0  0  0  0  0  0
   26.7611   42.5223   15.4861 O   0  0  0  0  0  0  0  0  0  0  0  0
   25.9204   44.5006   16.6584 O   0  5  0  0  0  0  0  0  0  0  0  0
   25.7534   42.2178   17.6587 O   0  0  0  0  0  0  0  0  0  0  0  0
   28.9380   42.3698   17.6882 C   0  0  0  0  0  0  0  0  0  0  0  0
   27.9812   43.4051   17.6012 O   0  0  0  0  0  0  0  0  0  0  0  0
   28.3825   41.2441   18.5567 C   0  0  1  0  0  0  0  0  0  0  0  0
   29.1971   40.0957   18.4283 O   0  0  0  0  0  0  0  0  0  0  0  0
   28.3602   41.6744   20.0138 C   0  0  1  0  0  0  0  0  0  0  0  0
   27.6381   42.8728   20.1116 O   0  0  0  0  0  0  0  0  0  0  0  0
   27.7174   40.6378   20.9199 C   0  0  1  0  0  0  0  0  0  0  0  0
   26.5611   40.1582   20.2883 O   0  0  0  0  0  0  0  0  0  0  0  0
   28.6655   39.4780   21.1758 C   0  0  0  0  0  0  0  0  0  0  0  0
   27.7604   40.2128   23.7372 N   0  0  0  0  0  0  0  0  0  0  0  0
   27.3868   40.6095   25.0028 C   0  0  0  0  0  0  0  0  0  0  0  0
   27.4868   41.7873   25.3338 O   0  0  0  0  0  0  0  0  0  0  0  0
   26.9016   39.6921   25.9067 N   0  0  0  0  0  0  0  0  0  0  0  0
   26.7736   38.3643   25.5483 C   0  0  0  0  0  0  0  0  0  0  0  0
   27.1488   37.9546   24.2737 C   0  0  1  0  0  0  0  0  0  0  0  0
   26.3208   37.5499   26.3553 O   0  0  0  0  0  0  0  0  0  0  0  0
   27.3971   36.2243   22.6415 C   0  0  2  0  0  0  0  0  0  0  0  0
   27.0253   36.6287   23.9095 N   0  0  0  0  0  0  0  0  0  0  0  0
   27.2719   34.8839   22.2747 C   0  0  0  0  0  0  0  0  0  0  0  0
   27.6477   34.4655   21.0036 C   0  0  1  0  0  0  0  0  0  0  0  0
   27.5028   33.0199   20.6467 C   0  0  0  0  0  0  0  0  0  0  0  0
   28.1508   35.3976   20.0835 C   0  0  1  0  0  0  0  0  0  0  0  0
   28.5601   34.9877   18.6954 C   0  0  0  0  0  0  0  0  0  0  0  0
   28.2761   36.7342   20.4530 C   0  0  0  0  0  0  0  0  0  0  0  0
   27.9028   37.1549   21.7308 C   0  0  1  0  0  0  0  0  0  0  0  0
   27.6483   38.8877   23.3674 C   0  0  1  0  0  0  0  0  0  0  0  0
   28.0290   38.4853   22.1015 N   0  0  0  0  0  0  0  0  0  0  0  0
  1  2  1  6  0  0  0
  1  3  1  0  0  0  0
  1  4  2  0  0  0  0
  1  6  1  0  0  0  0
  5  6  1  0  0  0  0
  7  5  1  6  0  0  0
  7  8  1  0  0  0  0
  7  9  1  0  0  0  0
  9 10  1  6  0  0  0
  9 11  1  0  0  0  0
 11 12  1  6  0  0  0
 11 13  1  0  0  0  0
 13 31  1  0  0  0  0
 14 15  1  0  0  0  0
 15 16  2  0  0  0  0
 15 17  1  0  0  0  0
 17 18  1  0  0  0  0
 18 20  2  0  0  0  0
 19 18  1  6  0  0  0
 19 22  1  0  0  0  0
 19 30  1  0  0  0  0
 21 23  1  1  0  0  0
 21 29  1  0  0  0  0
 21 22  1  0  0  0  0
 23 24  1  0  0  0  0
 24 25  1  6  0  0  0
 24 26  1  0  0  0  0
 26 27  1  6  0  0  0
 26 28  1  0  0  0  0
 29 28  1  6  0  0  0
 29 31  1  0  0  0  0
 30 14  1  6  0  0  0
 30 31  1  0  0  0  0
M  CHG  1   3  -1
M  END
>  <CHROM.1>
-66.58730670,-47.94372068,167.87390773,54.99429215,-43.33448229,178.41880181
124.27050804,27.47988271,39.57544843,20.83097661,-1.79302379,-1.45480768
2.12443270

>  <Name>
ligand

>  <RI>
0

>  <Rbt.Current_Directory>
/home/itssahil/PROJECTS/Mol_Feturizer/New_Systems/rnas/3F2T

>  <Rbt.Executable>
rbdock ($Id: //depot/dev/client3/rdock/2013.1/src/exe/rbdock.cxx#4 $)

>  <Rbt.Library>
libRbt.so (2013.1, Build901 2013/11/27)

>  <Rbt.Parameter_File>
/export/apps/rDock/src/rDock_2013.1_src/data/scripts/dock_solv.prm

>  <Rbt.Receptor>
prm/pocket_docking_5.prm

>  <SCORE>
-27.5829

>  <SCORE.INTER>
-29.2133

>  <SCORE.INTER.CONST>
1

>  <SCORE.INTER.POLAR>
0

>  <SCORE.INTER.ROT>
7

>  <SCORE.INTER.SOLV>
15.7424

>  <SCORE.INTER.VDW>
-32.9897

>  <SCORE.INTER.norm>
-0.942366

>  <SCORE.INTRA>
1.63044

>  <SCORE.INTRA.DIHEDRAL>
-1.46031

>  <SCORE.INTRA.DIHEDRAL.0>
4.64198

>  <SCORE.INTRA.POLAR>
0

>  <SCORE.INTRA.POLAR.0>
0

>  <SCORE.INTRA.REPUL>
0

>  <SCORE.INTRA.REPUL.0>
0

>  <SCORE.INTRA.SOLV>
3.62438

>  <SCORE.INTRA.SOLV.lig_0>
-49.3611

>  <SCORE.INTRA.VDW>
0.54841

>  <SCORE.INTRA.VDW.0>
-1.91858

>  <SCORE.INTRA.norm>
0.0525949

>  <SCORE.RESTR>
0

>  <SCORE.RESTR.CAVITY>
0

>  <SCORE.RESTR.norm>
0

>  <SCORE.SYSTEM>
0

>  <SCORE.SYSTEM.CONST>
0

>  <SCORE.SYSTEM.DIHEDRAL>
0

>  <SCORE.SYSTEM.SOLV>
0

>  <SCORE.SYSTEM.norm>
0

>  <SCORE.heavy>
31

>  <SCORE.norm>
-0.889771

>  <RMSD>
5.108

$$$$
ligand
 OpenBabel11021811473D
libRbt.so/2013.1/901 2013/11/27
 31 33  0  0  0  0  0  0  0  0999 V2000
   25.5742   43.5660   16.5699 P   0  0  1  0  0  0  0  0  0  0  0  0
   25.4972   43.5176   15.0649 O   0  0  0  0  0  0  0  0  0  0  0  0
   25.8501   44.9843   16.9933 O   0  5  0  0  0  0  0  0  0  0  0  0
   24.2516   43.0669   17.0832 O   0  0  0  0  0  0  0  0  0  0  0  0
   26.9043   42.5069   18.5648 C   0  0  0  0  0  0  0  0  0  0  0  0
   26.7382   42.6356   17.1681 O   0  0  0  0  0  0  0  0  0  0  0  0
   28.2221   41.7913   18.8501 C   0  0  1  0  0  0  0  0  0  0  0  0
   29.2773   42.4473   18.1758 O   0  0  0  0  0  0  0  0  0  0  0  0
   28.5067   41.8017   20.3427 C   0  0  1  0  0  0  0  0  0  0  0  0
   28.1098   43.0429   20.8614 O   0  0  0  0  0  0  0  0  0  0  0  0
   27.7702   40.7000   21.0861 C   0  0  1  0  0  0  0  0  0  0  0  0
   26.5935   40.4055   20.3829 O   0  0  0  0  0  0  0  0  0  0  0  0
   28.6231   39.4459   21.1817 C   0  0  0  0  0  0  0  0  0  0  0  0
   27.5400   40.0647   23.7044 N   0  0  0  0  0  0  0  0  0  0  0  0
   27.0782   40.4042   24.9575 C   0  0  0  0  0  0  0  0  0  0  0  0
   27.1493   41.5664   25.3461 O   0  0  0  0  0  0  0  0  0  0  0  0
   26.5364   39.4467   25.7844 N   0  0  0  0  0  0  0  0  0  0  0  0
   26.4400   38.1359   25.3598 C   0  0  0  0  0  0  0  0  0  0  0  0
   26.9041   37.7838   24.0973 C   0  0  1  0  0  0  0  0  0  0  0  0
   25.9367   37.2856   26.0970 O   0  0  0  0  0  0  0  0  0  0  0  0
   27.2729   36.1280   22.4115 C   0  0  2  0  0  0  0  0  0  0  0  0
   26.8127   36.4751   23.6674 N   0  0  0  0  0  0  0  0  0  0  0  0
   27.1800   34.8049   21.9782 C   0  0  0  0  0  0  0  0  0  0  0  0
   27.6445   34.4440   20.7190 C   0  0  1  0  0  0  0  0  0  0  0  0
   27.5317   33.0154   20.2895 C   0  0  0  0  0  0  0  0  0  0  0  0
   28.2052   35.4169   19.8777 C   0  0  1  0  0  0  0  0  0  0  0  0
   28.7112   35.0697   18.5045 C   0  0  0  0  0  0  0  0  0  0  0  0
   28.2980   36.7361   20.3136 C   0  0  0  0  0  0  0  0  0  0  0  0
   27.8356   37.0990   21.5798 C   0  0  1  0  0  0  0  0  0  0  0  0
   27.4603   38.7571   23.2697 C   0  0  1  0  0  0  0  0  0  0  0  0
   27.9293   38.4119   22.0166 N   0  0  0  0  0  0  0  0  0  0  0  0
  1  2  1  6  0  0  0
  1  3  1  0  0  0  0
  1  4  2  0  0  0  0
  1  6  1  0  0  0  0
  5  6  1  0  0  0  0
  7  5  1  1  0  0  0
  7  8  1  0  0  0  0
  7  9  1  0  0  0  0
  9 10  1  1  0  0  0
  9 11  1  0  0  0  0
 11 12  1  6  0  0  0
 11 13  1  0  0  0  0
 13 31  1  0  0  0  0
 14 15  1  0  0  0  0
 15 16  2  0  0  0  0
 15 17  1  0  0  0  0
 17 18  1  0  0  0  0
 18 20  2  0  0  0  0
 19 18  1  6  0  0  0
 19 22  1  0  0  0  0
 19 30  1  0  0  0  0
 21 23  1  1  0  0  0
 21 29  1  0  0  0  0
 21 22  1  0  0  0  0
 23 24  1  0  0  0  0
 24 25  1  6  0  0  0
 24 26  1  0  0  0  0
 26 27  1  6  0  0  0
 26 28  1  0  0  0  0
 29 28  1  6  0  0  0
 29 31  1  0  0  0  0
 30 14  1  6  0  0  0
 30 31  1  0  0  0  0
M  CHG  1   3  -1
M  END
>  <CHROM.1>
-169.42192314,-176.59800884,52.80231532,-38.43651827,-28.25207708,175.21154453
132.71655578,27.13904873,39.72239576,20.75402426,-2.37332810,-1.41949660
1.61443940

>  <Name>
ligand

>  <RI>
0

>  <Rbt.Current_Directory>
/home/itssahil/PROJECTS/Mol_Feturizer/New_Systems/rnas/3F2T

>  <Rbt.Executable>
rbdock ($Id: //depot/dev/client3/rdock/2013.1/src/exe/rbdock.cxx#4 $)

>  <Rbt.Library>
libRbt.so (2013.1, Build901 2013/11/27)

>  <Rbt.Parameter_File>
/export/apps/rDock/src/rDock_2013.1_src/data/scripts/dock_solv.prm

>  <Rbt.Receptor>
prm/pocket_docking_4.prm

>  <SCORE>
-24.1803

>  <SCORE.INTER>
-28.1759

>  <SCORE.INTER.CONST>
1

>  <SCORE.INTER.POLAR>
0

>  <SCORE.INTER.ROT>
7

>  <SCORE.INTER.SOLV>
20.717

>  <SCORE.INTER.VDW>
-33.9563

>  <SCORE.INTER.norm>
-0.908902

>  <SCORE.INTRA>
3.99568

>  <SCORE.INTRA.DIHEDRAL>
1.79179

>  <SCORE.INTRA.DIHEDRAL.0>
4.64198

>  <SCORE.INTRA.POLAR>
0

>  <SCORE.INTRA.POLAR.0>
0

>  <SCORE.INTRA.REPUL>
0

>  <SCORE.INTRA.REPUL.0>
0

>  <SCORE.INTRA.SOLV>
0.08682

>  <SCORE.INTRA.SOLV.lig_0>
-49.3611

>  <SCORE.INTRA.VDW>
3.05637

>  <SCORE.INTRA.VDW.0>
-1.91858

>  <SCORE.INTRA.norm>
0.128893

>  <SCORE.RESTR>
0

>  <SCORE.RESTR.CAVITY>
0

>  <SCORE.RESTR.norm>
0

>  <SCORE.SYSTEM>
0

>  <SCORE.SYSTEM.CONST>
0

>  <SCORE.SYSTEM.DIHEDRAL>
0

>  <SCORE.SYSTEM.SOLV>
0

>  <SCORE.SYSTEM.norm>
0

>  <SCORE.heavy>
31

>  <SCORE.norm>
-0.780009

>  <RMSD>
5.118

$$$$
ligand
 OpenBabel11021811473D
libRbt.so/2013.1/901 2013/11/27
 31 33  0  0  0  0  0  0  0  0999 V2000
   25.6707   43.6704   16.4550 P   0  0  1  0  0  0  0  0  0  0  0  0
   24.6475   42.7138   17.0128 O   0  0  0  0  0  0  0  0  0  0  0  0
   26.2958   43.0498   15.2339 O   0  5  0  0  0  0  0  0  0  0  0  0
   24.9371   44.9432   16.1330 O   0  0  0  0  0  0  0  0  0  0  0  0
   27.7830   43.0165   17.8625 C   0  0  0  0  0  0  0  0  0  0  0  0
   26.8461   44.0078   17.4955 O   0  0  0  0  0  0  0  0  0  0  0  0
   27.0874   41.9592   18.7160 C   0  0  1  0  0  0  0  0  0  0  0  0
   26.4602   41.0075   17.8796 O   0  0  0  0  0  0  0  0  0  0  0  0
   28.1033   41.2510   19.5963 C   0  0  1  0  0  0  0  0  0  0  0  0
   28.7034   42.2018   20.4348 O   0  0  0  0  0  0  0  0  0  0  0  0
   27.4770   40.1646   20.4543 C   0  0  1  0  0  0  0  0  0  0  0  0
   26.9288   39.1939   19.6039 O   0  0  0  0  0  0  0  0  0  0  0  0
   28.5173   39.5141   21.3511 C   0  0  0  0  0  0  0  0  0  0  0  0
   27.5240   40.2734   23.8723 N   0  0  0  0  0  0  0  0  0  0  0  0
   27.1064   40.6830   25.1200 C   0  0  0  0  0  0  0  0  0  0  0  0
   27.1835   41.8663   25.4375 O   0  0  0  0  0  0  0  0  0  0  0  0
   26.6026   39.7727   26.0208 N   0  0  0  0  0  0  0  0  0  0  0  0
   26.5001   38.4388   25.6770 C   0  0  0  0  0  0  0  0  0  0  0  0
   26.9196   38.0161   24.4206 C   0  0  1  0  0  0  0  0  0  0  0  0
   26.0306   37.6305   26.4806 O   0  0  0  0  0  0  0  0  0  0  0  0
   27.2376   36.2667   22.8212 C   0  0  2  0  0  0  0  0  0  0  0  0
   26.8217   36.6842   24.0711 N   0  0  0  0  0  0  0  0  0  0  0  0
   27.1383   34.9202   22.4692 C   0  0  0  0  0  0  0  0  0  0  0  0
   27.5585   34.4888   21.2165 C   0  0  1  0  0  0  0  0  0  0  0  0
   27.4402   33.0371   20.8753 C   0  0  0  0  0  0  0  0  0  0  0  0
   28.0805   35.4139   20.2998 C   0  0  1  0  0  0  0  0  0  0  0  0
   28.5378   34.9898   18.9311 C   0  0  0  0  0  0  0  0  0  0  0  0
   28.1799   36.7567   20.6546 C   0  0  0  0  0  0  0  0  0  0  0  0
   27.7621   37.1904   21.9140 C   0  0  1  0  0  0  0  0  0  0  0  0
   27.4376   38.9423   23.5176 C   0  0  1  0  0  0  0  0  0  0  0  0
   27.8624   38.5270   22.2700 N   0  0  0  0  0  0  0  0  0  0  0  0
  1  2  1  1  0  0  0
  1  3  1  0  0  0  0
  1  4  2  0  0  0  0
  1  6  1  0  0  0  0
  5  6  1  0  0  0  0
  7  5  1  6  0  0  0
  7  8  1  0  0  0  0
  7  9  1  0  0  0  0
  9 10  1  1  0  0  0
  9 11  1  0  0  0  0
 11 12  1  6  0  0  0
 11 13  1  0  0  0  0
 13 31  1  0  0  0  0
 14 15  1  0  0  0  0
 15 16  2  0  0  0  0
 15 17  1  0  0  0  0
 17 18  1  0  0  0  0
 18 20  2  0  0  0  0
 19 18  1  6  0  0  0
 19 22  1  0  0  0  0
 19 30  1  0  0  0  0
 21 23  1  1  0  0  0
 21 29  1  0  0  0  0
 21 22  1  0  0  0  0
 23 24  1  0  0  0  0
 24 25  1  6  0  0  0
 24 26  1  0  0  0  0
 26 27  1  6  0  0  0
 26 28  1  0  0  0  0
 29 28  1  6  0  0  0
 29 31  1  0  0  0  0
 30 14  1  6  0  0  0
 30 31  1  0  0  0  0
M  CHG  1   3  -1
M  END
>  <CHROM.1>
-69.62540190,68.65439788,84.40473280,60.52991500,62.04612884,175.27594975
92.57007573,27.04799492,39.70017926,20.79548858,-2.41958950,-1.41634670,1.49478717

>  <Name>
ligand

>  <RI>
0

>  <Rbt.Current_Directory>
/home/itssahil/PROJECTS/Mol_Feturizer/New_Systems/rnas/3F2T

>  <Rbt.Executable>
rbdock ($Id: //depot/dev/client3/rdock/2013.1/src/exe/rbdock.cxx#4 $)

>  <Rbt.Library>
libRbt.so (2013.1, Build901 2013/11/27)

>  <Rbt.Parameter_File>
/export/apps/rDock/src/rDock_2013.1_src/data/scripts/dock_solv.prm

>  <Rbt.Receptor>
prm/blind_docking_60.prm

>  <SCORE>
-27.3384

>  <SCORE.INTER>
-28.1225

>  <SCORE.INTER.CONST>
1

>  <SCORE.INTER.POLAR>
0

>  <SCORE.INTER.ROT>
7

>  <SCORE.INTER.SOLV>
19.23

>  <SCORE.INTER.VDW>
-33.425

>  <SCORE.INTER.norm>
-0.907176

>  <SCORE.INTRA>
0.784105

>  <SCORE.INTRA.DIHEDRAL>
-0.780426

>  <SCORE.INTRA.DIHEDRAL.0>
4.64198

>  <SCORE.INTRA.POLAR>
0

>  <SCORE.INTRA.POLAR.0>
0

>  <SCORE.INTRA.REPUL>
0

>  <SCORE.INTRA.REPUL.0>
0

>  <SCORE.INTRA.SOLV>
1.53824

>  <SCORE.INTRA.SOLV.lig_0>
-49.3611

>  <SCORE.INTRA.VDW>
0.405197

>  <SCORE.INTRA.VDW.0>
-1.91858

>  <SCORE.INTRA.norm>
0.0252937

>  <SCORE.RESTR>
0

>  <SCORE.RESTR.CAVITY>
0

>  <SCORE.RESTR.norm>
0

>  <SCORE.SYSTEM>
0

>  <SCORE.SYSTEM.CONST>
0

>  <SCORE.SYSTEM.DIHEDRAL>
0

>  <SCORE.SYSTEM.SOLV>
0

>  <SCORE.SYSTEM.norm>
0

>  <SCORE.heavy>
31

>  <SCORE.norm>
-0.881882

>  <RMSD>
5.120

$$$$
ligand
 OpenBabel11021811473D
libRbt.so/2013.1/901 2013/11/27
 31 33  0  0  0  0  0  0  0  0999 V2000
   26.0799   43.4768   16.4618 P   0  0  1  0  0  0  0  0  0  0  0  0
   26.9135   42.6616   15.5059 O   0  0  0  0  0  0  0  0  0  0  0  0
   25.9660   44.8796   15.9267 O   0  5  0  0  0  0  0  0  0  0  0  0
   24.7431   42.7939   16.5547 O   0  0  0  0  0  0  0  0  0  0  0  0
   27.3034   42.4184   18.5241 C   0  0  0  0  0  0  0  0  0  0  0  0
   26.7148   43.5588   17.9343 O   0  0  0  0  0  0  0  0  0  0  0  0
   27.6705   42.7343   19.9717 C   0  0  1  0  0  0  0  0  0  0  0  0
   26.5003   42.7680   20.7644 O   0  0  0  0  0  0  0  0  0  0  0  0
   28.6058   41.6674   20.5155 C   0  0  1  0  0  0  0  0  0  0  0  0
   29.1738   42.1408   21.7073 O   0  0  0  0  0  0  0  0  0  0  0  0
   27.8944   40.3547   20.7975 C   0  0  1  0  0  0  0  0  0  0  0  0
   27.4892   39.8024   19.5741 O   0  0  0  0  0  0  0  0  0  0  0  0
   28.8184   39.3779   21.5058 C   0  0  0  0  0  0  0  0  0  0  0  0
   27.6330   39.9926   23.9830 N   0  0  0  0  0  0  0  0  0  0  0  0
   27.1220   40.3250   25.2188 C   0  0  0  0  0  0  0  0  0  0  0  0
   27.2426   41.4689   25.6477 O   0  0  0  0  0  0  0  0  0  0  0  0
   26.4754   39.3809   25.9834 N   0  0  0  0  0  0  0  0  0  0  0  0
   26.3226   38.0914   25.5125 C   0  0  0  0  0  0  0  0  0  0  0  0
   26.8355   37.7465   24.2671 C   0  0  1  0  0  0  0  0  0  0  0  0
   25.7262   37.2544   26.1932 O   0  0  0  0  0  0  0  0  0  0  0  0
   27.1970   36.1191   22.5523 C   0  0  2  0  0  0  0  0  0  0  0  0
   26.6880   36.4590   23.7912 N   0  0  0  0  0  0  0  0  0  0  0  0
   27.0473   34.8175   22.0725 C   0  0  0  0  0  0  0  0  0  0  0  0
   27.5600   34.4636   20.8300 C   0  0  1  0  0  0  0  0  0  0  0  0
   27.3837   33.0578   20.3496 C   0  0  0  0  0  0  0  0  0  0  0  0
   28.2271   35.4224   20.0526 C   0  0  1  0  0  0  0  0  0  0  0  0
   28.7885   35.0828   18.6992 C   0  0  0  0  0  0  0  0  0  0  0  0
   28.3764   36.7200   20.5348 C   0  0  0  0  0  0  0  0  0  0  0  0
   27.8655   37.0756   21.7845 C   0  0  1  0  0  0  0  0  0  0  0  0
   27.4974   38.7055   23.5031 C   0  0  1  0  0  0  0  0  0  0  0  0
   28.0152   38.3669   22.2675 N   0  0  0  0  0  0  0  0  0  0  0  0
  1  2  1  6  0  0  0
  1  3  1  0  0  0  0
  1  4  2  0  0  0  0
  1  6  1  0  0  0  0
  5  6  1  0  0  0  0
  7  5  1  6  0  0  0
  7  8  1  0  0  0  0
  7  9  1  0  0  0  0
  9 10  1  1  0  0  0
  9 11  1  0  0  0  0
 11 12  1  6  0  0  0
 11 13  1  0  0  0  0
 13 31  1  0  0  0  0
 14 15  1  0  0  0  0
 15 16  2  0  0  0  0
 15 17  1  0  0  0  0
 17 18  1  0  0  0  0
 18 20  2  0  0  0  0
 19 18  1  6  0  0  0
 19 22  1  0  0  0  0
 19 30  1  0  0  0  0
 21 23  1  1  0  0  0
 21 29  1  0  0  0  0
 21 22  1  0  0  0  0
 23 24  1  0  0  0  0
 24 25  1  6  0  0  0
 24 26  1  0  0  0  0
 26 27  1  6  0  0  0
 26 28  1  0  0  0  0
 29 28  1  6  0  0  0
 29 31  1  0  0  0  0
 30 14  1  6  0  0  0
 30 31  1  0  0  0  0
M  CHG  1   3  -1
M  END
>  <CHROM.1>
-173.30681869,-40.89754828,74.25382308,165.97672429,67.57583639,156.59229404
103.98039569,27.21131059,39.65650247,20.96114355,-2.32224624,-1.45491575
1.63210155

>  <Name>
ligand

>  <RI>
0

>  <Rbt.Current_Directory>
/home/itssahil/PROJECTS/Mol_Feturizer/New_Systems/rnas/3F2T

>  <Rbt.Executable>
rbdock ($Id: //depot/dev/client3/rdock/2013.1/src/exe/rbdock.cxx#4 $)

>  <Rbt.Library>
libRbt.so (2013.1, Build901 2013/11/27)

>  <Rbt.Parameter_File>
/export/apps/rDock/src/rDock_2013.1_src/data/scripts/dock_solv.prm

>  <Rbt.Receptor>
prm/pocket_docking_7.prm

>  <SCORE>
-27.9076

>  <SCORE.INTER>
-28.4585

>  <SCORE.INTER.CONST>
1

>  <SCORE.INTER.POLAR>
0

>  <SCORE.INTER.ROT>
7

>  <SCORE.INTER.SOLV>
20.5919

>  <SCORE.INTER.VDW>
-34.103

>  <SCORE.INTER.norm>
-0.918016

>  <SCORE.INTRA>
0.55089

>  <SCORE.INTRA.DIHEDRAL>
0.75216

>  <SCORE.INTRA.DIHEDRAL.0>
4.64198

>  <SCORE.INTRA.POLAR>
0

>  <SCORE.INTRA.POLAR.0>
0

>  <SCORE.INTRA.REPUL>
0

>  <SCORE.INTRA.REPUL.0>
0

>  <SCORE.INTRA.SOLV>
-0.594922

>  <SCORE.INTRA.SOLV.lig_0>
-49.3611

>  <SCORE.INTRA.VDW>
0.472271

>  <SCORE.INTRA.VDW.0>
-1.91858

>  <SCORE.INTRA.norm>
0.0177706

>  <SCORE.RESTR>
0

>  <SCORE.RESTR.CAVITY>
0

>  <SCORE.RESTR.norm>
0

>  <SCORE.SYSTEM>
0

>  <SCORE.SYSTEM.CONST>
0

>  <SCORE.SYSTEM.DIHEDRAL>
0

>  <SCORE.SYSTEM.SOLV>
0

>  <SCORE.SYSTEM.norm>
0

>  <SCORE.heavy>
31

>  <SCORE.norm>
-0.900246

>  <RMSD>
5.122

$$$$
ligand
 OpenBabel11021811473D
libRbt.so/2013.1/901 2013/11/27
 31 33  0  0  0  0  0  0  0  0999 V2000
   26.9358   42.7326   16.1519 P   0  0  1  0  0  0  0  0  0  0  0  0
   28.2754   43.1115   15.5730 O   0  0  0  0  0  0  0  0  0  0  0  0
   25.8537   43.3675   15.3195 O   0  5  0  0  0  0  0  0  0  0  0  0
   26.8662   41.2304   16.1242 O   0  0  0  0  0  0  0  0  0  0  0  0
   27.7598   42.9979   18.6260 C   0  0  0  0  0  0  0  0  0  0  0  0
   26.7465   43.2247   17.6686 O   0  0  0  0  0  0  0  0  0  0  0  0
   27.9649   41.4947   18.7940 C   0  0  1  0  0  0  0  0  0  0  0  0
   28.9078   41.0327   17.8473 O   0  0  0  0  0  0  0  0  0  0  0  0
   28.4789   41.1932   20.1918 C   0  0  1  0  0  0  0  0  0  0  0  0
   27.5173   41.6194   21.1197 O   0  0  0  0  0  0  0  0  0  0  0  0
   28.7498   39.7140   20.4089 C   0  0  1  0  0  0  0  0  0  0  0  0
   29.7987   39.3300   19.5614 O   0  0  0  0  0  0  0  0  0  0  0  0
   29.1455   39.4405   21.8504 C   0  0  0  0  0  0  0  0  0  0  0  0
   27.8414   39.9636   24.2887 N   0  0  0  0  0  0  0  0  0  0  0  0
   27.2729   40.2426   25.5126 C   0  0  0  0  0  0  0  0  0  0  0  0
   27.4639   41.3313   26.0466 O   0  0  0  0  0  0  0  0  0  0  0  0
   26.4900   39.3059   26.1479 N   0  0  0  0  0  0  0  0  0  0  0  0
   26.2570   38.0792   25.5574 C   0  0  0  0  0  0  0  0  0  0  0  0
   26.8270   37.7885   24.3230 C   0  0  1  0  0  0  0  0  0  0  0  0
   25.5396   37.2507   26.1219 O   0  0  0  0  0  0  0  0  0  0  0  0
   27.1660   36.2778   22.5002 C   0  0  2  0  0  0  0  0  0  0  0  0
   26.5999   36.5637   23.7279 N   0  0  0  0  0  0  0  0  0  0  0  0
   26.9357   35.0394   21.8999 C   0  0  0  0  0  0  0  0  0  0  0  0
   27.5044   34.7396   20.6676 C   0  0  1  0  0  0  0  0  0  0  0  0
   27.2385   33.4005   20.0560 C   0  0  0  0  0  0  0  0  0  0  0  0
   28.3101   35.6899   20.0222 C   0  0  1  0  0  0  0  0  0  0  0  0
   28.9366   35.4086   18.6841 C   0  0  0  0  0  0  0  0  0  0  0  0
   28.5394   36.9241   20.6245 C   0  0  0  0  0  0  0  0  0  0  0  0
   27.9721   37.2248   21.8642 C   0  0  1  0  0  0  0  0  0  0  0  0
   27.6265   38.7384   23.6905 C   0  0  1  0  0  0  0  0  0  0  0  0
   28.2011   38.4527   22.4668 N   0  0  0  0  0  0  0  0  0  0  0  0
  1  2  1  6  0  0  0
  1  3  1  0  0  0  0
  1  4  2  0  0  0  0
  1  6  1  0  0  0  0
  5  6  1  0  0  0  0
  7  5  1  1  0  0  0
  7  8  1  0  0  0  0
  7  9  1  0  0  0  0
  9 10  1  1  0  0  0
  9 11  1  0  0  0  0
 11 12  1  6  0  0  0
 11 13  1  0  0  0  0
 13 31  1  0  0  0  0
 14 15  1  0  0  0  0
 15 16  2  0  0  0  0
 15 17  1  0  0  0  0
 17 18  1  0  0  0  0
 18 20  2  0  0  0  0
 19 18  1  6  0  0  0
 19 22  1  0  0  0  0
 19 30  1  0  0  0  0
 21 23  1  1  0  0  0
 21 29  1  0  0  0  0
 21 22  1  0  0  0  0
 23 24  1  0  0  0  0
 24 25  1  6  0  0  0
 24 26  1  0  0  0  0
 26 27  1  6  0  0  0
 26 28  1  0  0  0  0
 29 28  1  6  0  0  0
 29 31  1  0  0  0  0
 30 14  1  6  0  0  0
 30 31  1  0  0  0  0
M  CHG  1   3  -1
M  END
>  <CHROM.1>
-62.15203126,-47.67001654,87.80327326,61.39978822,65.07546384,122.01551346
54.34271004,27.57643432,39.40752652,20.75838345,1.28642966,1.44516901,-0.68806889

>  <Name>
ligand

>  <RI>
0

>  <Rbt.Current_Directory>
/home/itssahil/PROJECTS/Mol_Feturizer/New_Systems/rnas/3F2T

>  <Rbt.Executable>
rbdock ($Id: //depot/dev/client3/rdock/2013.1/src/exe/rbdock.cxx#4 $)

>  <Rbt.Library>
libRbt.so (2013.1, Build901 2013/11/27)

>  <Rbt.Parameter_File>
/export/apps/rDock/src/rDock_2013.1_src/data/scripts/dock_solv.prm

>  <Rbt.Receptor>
prm/blind_docking_60.prm

>  <SCORE>
-21.2654

>  <SCORE.INTER>
-26.0405

>  <SCORE.INTER.CONST>
1

>  <SCORE.INTER.POLAR>
0

>  <SCORE.INTER.ROT>
7

>  <SCORE.INTER.SOLV>
21.5407

>  <SCORE.INTER.VDW>
-32.8073

>  <SCORE.INTER.norm>
-0.840018

>  <SCORE.INTRA>
4.77511

>  <SCORE.INTRA.DIHEDRAL>
4.44518

>  <SCORE.INTRA.DIHEDRAL.0>
4.64198

>  <SCORE.INTRA.POLAR>
0

>  <SCORE.INTRA.POLAR.0>
0

>  <SCORE.INTRA.REPUL>
0

>  <SCORE.INTRA.REPUL.0>
0

>  <SCORE.INTRA.SOLV>
2.39872

>  <SCORE.INTRA.SOLV.lig_0>
-49.3611

>  <SCORE.INTRA.VDW>
1.35316

>  <SCORE.INTRA.VDW.0>
-1.91858

>  <SCORE.INTRA.norm>
0.154036

>  <SCORE.RESTR>
0

>  <SCORE.RESTR.CAVITY>
0

>  <SCORE.RESTR.norm>
0

>  <SCORE.SYSTEM>
0

>  <SCORE.SYSTEM.CONST>
0

>  <SCORE.SYSTEM.DIHEDRAL>
0

>  <SCORE.SYSTEM.SOLV>
0

>  <SCORE.SYSTEM.norm>
0

>  <SCORE.heavy>
31

>  <SCORE.norm>
-0.685982

>  <RMSD>
5.128

$$$$
ligand
 OpenBabel11021811473D
libRbt.so/2013.1/901 2013/11/27
 31 33  0  0  0  0  0  0  0  0999 V2000
   28.3130   42.4001   16.4950 P   0  0  1  0  0  0  0  0  0  0  0  0
   29.6235   42.2306   15.7691 O   0  0  0  0  0  0  0  0  0  0  0  0
   27.5841   43.5783   15.9057 O   0  5  0  0  0  0  0  0  0  0  0  0
   27.5537   41.1143   16.3151 O   0  0  0  0  0  0  0  0  0  0  0  0
   27.3731   42.7265   18.9201 C   0  0  0  0  0  0  0  0  0  0  0  0
   28.4976   42.6683   18.0674 O   0  0  0  0  0  0  0  0  0  0  0  0
   27.8453   42.8403   20.3672 C   0  0  1  0  0  0  0  0  0  0  0  0
   26.7279   42.8773   21.2325 O   0  0  0  0  0  0  0  0  0  0  0  0
   28.7104   41.6441   20.7273 C   0  0  1  0  0  0  0  0  0  0  0  0
   29.3818   41.9267   21.9258 O   0  0  0  0  0  0  0  0  0  0  0  0
   27.9017   40.3701   20.9054 C   0  0  1  0  0  0  0  0  0  0  0  0
   27.2786   40.0705   19.6856 O   0  0  0  0  0  0  0  0  0  0  0  0
   28.7976   39.2104   21.3078 C   0  0  0  0  0  0  0  0  0  0  0  0
   27.5964   39.7724   23.7899 N   0  0  0  0  0  0  0  0  0  0  0  0
   27.0771   40.0795   25.0288 C   0  0  0  0  0  0  0  0  0  0  0  0
   27.1826   41.2179   25.4758 O   0  0  0  0  0  0  0  0  0  0  0  0
   26.4393   39.1160   25.7763 N   0  0  0  0  0  0  0  0  0  0  0  0
   26.3034   37.8323   25.2850 C   0  0  0  0  0  0  0  0  0  0  0  0
   26.8248   37.5128   24.0362 C   0  0  1  0  0  0  0  0  0  0  0  0
   25.7147   36.9777   25.9504 O   0  0  0  0  0  0  0  0  0  0  0  0
   27.2116   35.9167   22.2977 C   0  0  2  0  0  0  0  0  0  0  0  0
   26.6942   36.2313   23.5398 N   0  0  0  0  0  0  0  0  0  0  0  0
   27.0790   34.6210   21.7973 C   0  0  0  0  0  0  0  0  0  0  0  0
   27.6002   34.2926   20.5513 C   0  0  1  0  0  0  0  0  0  0  0  0
   27.4424   32.8925   20.0486 C   0  0  0  0  0  0  0  0  0  0  0  0
   28.2585   35.2712   19.7913 C   0  0  1  0  0  0  0  0  0  0  0  0
   28.8286   34.9593   18.4348 C   0  0  0  0  0  0  0  0  0  0  0  0
   28.3907   36.5629   20.2942 C   0  0  0  0  0  0  0  0  0  0  0  0
   27.8713   36.8929   21.5473 C   0  0  1  0  0  0  0  0  0  0  0  0
   27.4778   38.4914   23.2895 C   0  0  1  0  0  0  0  0  0  0  0  0
   28.0039   38.1782   22.0508 N   0  0  0  0  0  0  0  0  0  0  0  0
  1  2  1  6  0  0  0
  1  3  1  0  0  0  0
  1  4  2  0  0  0  0
  1  6  1  0  0  0  0
  5  6  1  0  0  0  0
  7  5  1  6  0  0  0
  7  8  1  0  0  0  0
  7  9  1  0  0  0  0
  9 10  1  1  0  0  0
  9 11  1  0  0  0  0
 11 12  1  6  0  0  0
 11 13  1  0  0  0  0
 13 31  1  0  0  0  0
 14 15  1  0  0  0  0
 15 16  2  0  0  0  0
 15 17  1  0  0  0  0
 17 18  1  0  0  0  0
 18 20  2  0  0  0  0
 19 18  1  6  0  0  0
 19 22  1  0  0  0  0
 19 30  1  0  0  0  0
 21 23  1  1  0  0  0
 21 29  1  0  0  0  0
 21 22  1  0  0  0  0
 23 24  1  0  0  0  0
 24 25  1  6  0  0  0
 24 26  1  0  0  0  0
 26 27  1  6  0  0  0
 26 28  1  0  0  0  0
 29 28  1  6  0  0  0
 29 31  1  0  0  0  0
 30 14  1  6  0  0  0
 30 31  1  0  0  0  0
M  CHG  1   3  -1
M  END
>  <CHROM.1>
173.93775208,-174.09158240,-179.04906560,166.02133987,61.98656576,154.91029121
118.00802715,27.70141934,39.33100643,20.89827919,-0.70885869,-1.38374871
-3.09607345

>  <Name>
ligand

>  <RI>
0

>  <Rbt.Current_Directory>
/home/itssahil/PROJECTS/Mol_Feturizer/New_Systems/rnas/3F2T

>  <Rbt.Executable>
rbdock ($Id: //depot/dev/client3/rdock/2013.1/src/exe/rbdock.cxx#4 $)

>  <Rbt.Library>
libRbt.so (2013.1, Build901 2013/11/27)

>  <Rbt.Parameter_File>
/export/apps/rDock/src/rDock_2013.1_src/data/scripts/dock_solv.prm

>  <Rbt.Receptor>
prm/pocket_docking_8.prm

>  <SCORE>
-28.6207

>  <SCORE.INTER>
-29.4057

>  <SCORE.INTER.CONST>
1

>  <SCORE.INTER.POLAR>
0

>  <SCORE.INTER.ROT>
7

>  <SCORE.INTER.SOLV>
22.5508

>  <SCORE.INTER.VDW>
-35.3874

>  <SCORE.INTER.norm>
-0.948572

>  <SCORE.INTRA>
0.785025

>  <SCORE.INTRA.DIHEDRAL>
-0.511598

>  <SCORE.INTRA.DIHEDRAL.0>
4.64198

>  <SCORE.INTRA.POLAR>
0

>  <SCORE.INTRA.POLAR.0>
0

>  <SCORE.INTRA.REPUL>
0

>  <SCORE.INTRA.REPUL.0>
0

>  <SCORE.INTRA.SOLV>
0.8785

>  <SCORE.INTRA.SOLV.lig_0>
-49.3611

>  <SCORE.INTRA.VDW>
0.601574

>  <SCORE.INTRA.VDW.0>
-1.91858

>  <SCORE.INTRA.norm>
0.0253234

>  <SCORE.RESTR>
0

>  <SCORE.RESTR.CAVITY>
0

>  <SCORE.RESTR.norm>
0

>  <SCORE.SYSTEM>
0

>  <SCORE.SYSTEM.CONST>
0

>  <SCORE.SYSTEM.DIHEDRAL>
0

>  <SCORE.SYSTEM.SOLV>
0

>  <SCORE.SYSTEM.norm>
0

>  <SCORE.heavy>
31

>  <SCORE.norm>
-0.923249

>  <RMSD>
5.137

$$$$
ligand
 OpenBabel11021811473D
libRbt.so/2013.1/901 2013/11/27
 31 33  0  0  0  0  0  0  0  0999 V2000
   28.7171   41.6372   16.9253 P   0  0  1  0  0  0  0  0  0  0  0  0
   28.5657   41.8482   18.4105 O   0  0  0  0  0  0  0  0  0  0  0  0
   27.5468   40.8289   16.4313 O   0  5  0  0  0  0  0  0  0  0  0  0
   28.7672   43.0045   16.3009 O   0  0  0  0  0  0  0  0  0  0  0  0
   30.0625   39.4403   16.4416 C   0  0  0  0  0  0  0  0  0  0  0  0
   30.0615   40.8494   16.5379 O   0  0  0  0  0  0  0  0  0  0  0  0
   30.1121   38.8409   17.8446 C   0  0  1  0  0  0  0  0  0  0  0  0
   31.1532   39.4457   18.5856 O   0  0  0  0  0  0  0  0  0  0  0  0
   28.7927   39.0802   18.5591 C   0  0  1  0  0  0  0  0  0  0  0  0
   27.7794   38.4133   17.8550 O   0  0  0  0  0  0  0  0  0  0  0  0
   28.8054   38.5801   19.9938 C   0  0  1  0  0  0  0  0  0  0  0  0
   29.6854   39.3842   20.7321 O   0  0  0  0  0  0  0  0  0  0  0  0
   27.4182   38.6608   20.6091 C   0  0  0  0  0  0  0  0  0  0  0  0
   27.3474   39.8456   23.1608 N   0  0  0  0  0  0  0  0  0  0  0  0
   27.3731   40.4724   24.3877 C   0  0  0  0  0  0  0  0  0  0  0  0
   27.3478   41.6979   24.4538 O   0  0  0  0  0  0  0  0  0  0  0  0
   27.4296   39.7337   25.5474 N   0  0  0  0  0  0  0  0  0  0  0  0
   27.4494   38.3537   25.4920 C   0  0  0  0  0  0  0  0  0  0  0  0
   27.4245   37.7124   24.2585 C   0  0  1  0  0  0  0  0  0  0  0  0
   27.4810   37.6963   26.5343 O   0  0  0  0  0  0  0  0  0  0  0  0
   27.4193   35.6985   22.9688 C   0  0  2  0  0  0  0  0  0  0  0  0
   27.4460   36.3335   24.1958 N   0  0  0  0  0  0  0  0  0  0  0  0
   27.4412   34.3047   22.9067 C   0  0  0  0  0  0  0  0  0  0  0  0
   27.4199   33.6560   21.6777 C   0  0  1  0  0  0  0  0  0  0  0  0
   27.4481   32.1605   21.6497 C   0  0  0  0  0  0  0  0  0  0  0  0
   27.3711   34.4074   20.4938 C   0  0  1  0  0  0  0  0  0  0  0  0
   27.3375   33.7442   19.1442 C   0  0  0  0  0  0  0  0  0  0  0  0
   27.3510   35.7981   20.5589 C   0  0  0  0  0  0  0  0  0  0  0  0
   27.3766   36.4509   21.7927 C   0  0  1  0  0  0  0  0  0  0  0  0
   27.3771   38.4675   23.0884 C   0  0  1  0  0  0  0  0  0  0  0  0
   27.3590   37.8360   21.8595 N   0  0  0  0  0  0  0  0  0  0  0  0
  1  2  1  1  0  0  0
  1  3  1  0  0  0  0
  1  4  2  0  0  0  0
  1  6  1  0  0  0  0
  5  6  1  0  0  0  0
  7  5  1  6  0  0  0
  7  8  1  0  0  0  0
  7  9  1  0  0  0  0
  9 10  1  6  0  0  0
  9 11  1  0  0  0  0
 11 12  1  1  0  0  0
 11 13  1  0  0  0  0
 13 31  1  0  0  0  0
 14 15  1  0  0  0  0
 15 16  2  0  0  0  0
 15 17  1  0  0  0  0
 17 18  1  0  0  0  0
 18 20  2  0  0  0  0
 19 18  1  1  0  0  0
 19 22  1  0  0  0  0
 19 30  1  0  0  0  0
 21 23  1  6  0  0  0
 21 29  1  0  0  0  0
 21 22  1  0  0  0  0
 23 24  1  0  0  0  0
 24 25  1  1  0  0  0
 24 26  1  0  0  0  0
 26 27  1  1  0  0  0
 26 28  1  0  0  0  0
 29 28  1  1  0  0  0
 29 31  1  0  0  0  0
 30 14  1  1  0  0  0
 30 31  1  0  0  0  0
M  CHG  1   3  -1
M  END
>  <CHROM.1>
-78.05423156,90.66219990,-49.84037590,62.88012527,68.03986887,164.58424749
-71.27515415,28.15466606,38.46800244,20.67030103,0.13102908,1.35362990,0.46031620

>  <Name>
ligand

>  <RI>
0

>  <Rbt.Current_Directory>
/home/itssahil/PROJECTS/Mol_Feturizer/New_Systems/rnas/3F2T

>  <Rbt.Executable>
rbdock ($Id: //depot/dev/client3/rdock/2013.1/src/exe/rbdock.cxx#4 $)

>  <Rbt.Library>
libRbt.so (2013.1, Build901 2013/11/27)

>  <Rbt.Parameter_File>
/export/apps/rDock/src/rDock_2013.1_src/data/scripts/dock_solv.prm

>  <Rbt.Receptor>
prm/blind_docking_100.prm

>  <SCORE>
-21.3061

>  <SCORE.INTER>
-23.7469

>  <SCORE.INTER.CONST>
1

>  <SCORE.INTER.POLAR>
0

>  <SCORE.INTER.ROT>
7

>  <SCORE.INTER.SOLV>
17.5253

>  <SCORE.INTER.VDW>
-29.9397

>  <SCORE.INTER.norm>
-0.766028

>  <SCORE.INTRA>
2.42153

>  <SCORE.INTRA.DIHEDRAL>
0.599729

>  <SCORE.INTRA.DIHEDRAL.0>
4.64198

>  <SCORE.INTRA.POLAR>
0

>  <SCORE.INTRA.POLAR.0>
0

>  <SCORE.INTRA.REPUL>
0

>  <SCORE.INTRA.REPUL.0>
0

>  <SCORE.INTRA.SOLV>
3.72056

>  <SCORE.INTRA.SOLV.lig_0>
-49.3611

>  <SCORE.INTRA.VDW>
0.261385

>  <SCORE.INTRA.VDW.0>
-1.91858

>  <SCORE.INTRA.norm>
0.0781139

>  <SCORE.RESTR>
0.019246

>  <SCORE.RESTR.CAVITY>
0.019246

>  <SCORE.RESTR.norm>
0.000620839

>  <SCORE.SYSTEM>
0

>  <SCORE.SYSTEM.CONST>
0

>  <SCORE.SYSTEM.DIHEDRAL>
0

>  <SCORE.SYSTEM.SOLV>
0

>  <SCORE.SYSTEM.norm>
0

>  <SCORE.heavy>
31

>  <SCORE.norm>
-0.687293

>  <RMSD>
5.138

$$$$
ligand
 OpenBabel11021811473D
libRbt.so/2013.1/901 2013/11/27
 31 33  0  0  0  0  0  0  0  0999 V2000
   26.5494   35.4933   14.5924 P   0  0  1  0  0  0  0  0  0  0  0  0
   26.5285   36.5868   13.5545 O   0  0  0  0  0  0  0  0  0  0  0  0
   25.7811   34.3114   14.0632 O   0  5  0  0  0  0  0  0  0  0  0  0
   27.9960   35.1655   14.8408 O   0  0  0  0  0  0  0  0  0  0  0  0
   25.1434   35.0071   16.7505 C   0  0  0  0  0  0  0  0  0  0  0  0
   25.8801   35.9362   15.9831 O   0  0  0  0  0  0  0  0  0  0  0  0
   24.7571   35.6483   18.0808 C   0  0  1  0  0  0  0  0  0  0  0  0
   23.8275   34.8244   18.7558 O   0  0  0  0  0  0  0  0  0  0  0  0
   25.9899   35.8202   18.9523 C   0  0  1  0  0  0  0  0  0  0  0  0
   26.6592   34.5896   19.0220 O   0  0  0  0  0  0  0  0  0  0  0  0
   26.9463   36.8700   18.4120 C   0  0  1  0  0  0  0  0  0  0  0  0
   26.3034   38.1153   18.4568 O   0  0  0  0  0  0  0  0  0  0  0  0
   28.2139   36.9311   19.2480 C   0  0  0  0  0  0  0  0  0  0  0  0
   27.6118   35.1899   21.3754 N   0  0  0  0  0  0  0  0  0  0  0  0
   27.2665   34.2993   22.3686 C   0  0  0  0  0  0  0  0  0  0  0  0
   27.3075   33.0913   22.1542 O   0  0  0  0  0  0  0  0  0  0  0  0
   26.8712   34.7533   23.6062 N   0  0  0  0  0  0  0  0  0  0  0  0
   26.8280   36.1089   23.8678 C   0  0  0  0  0  0  0  0  0  0  0  0
   27.1739   37.0150   22.8715 C   0  0  1  0  0  0  0  0  0  0  0  0
   26.4913   36.5099   24.9837 O   0  0  0  0  0  0  0  0  0  0  0  0
   27.4772   39.2699   22.1344 C   0  0  2  0  0  0  0  0  0  0  0  0
   27.1312   38.3713   23.1255 N   0  0  0  0  0  0  0  0  0  0  0  0
   27.4335   40.6404   22.3924 C   0  0  0  0  0  0  0  0  0  0  0  0
   27.7745   41.5530   21.4010 C   0  0  1  0  0  0  0  0  0  0  0  0
   27.7125   43.0148   21.7126 C   0  0  0  0  0  0  0  0  0  0  0  0
   28.1695   41.0924   20.1359 C   0  0  1  0  0  0  0  0  0  0  0  0
   28.5551   42.0463   19.0387 C   0  0  0  0  0  0  0  0  0  0  0  0
   28.2105   39.7242   19.8810 C   0  0  0  0  0  0  0  0  0  0  0  0
   27.8642   38.8068   20.8746 C   0  0  1  0  0  0  0  0  0  0  0  0
   27.5638   36.5478   21.6180 C   0  0  1  0  0  0  0  0  0  0  0  0
   27.9022   37.4437   20.6219 N   0  0  0  0  0  0  0  0  0  0  0  0
  1  2  1  6  0  0  0
  1  3  1  0  0  0  0
  1  4  2  0  0  0  0
  1  6  1  0  0  0  0
  5  6  1  0  0  0  0
  7  5  1  6  0  0  0
  7  8  1  0  0  0  0
  7  9  1  0  0  0  0
  9 10  1  6  0  0  0
  9 11  1  0  0  0  0
 11 12  1  1  0  0  0
 11 13  1  0  0  0  0
 13 31  1  0  0  0  0
 14 15  1  0  0  0  0
 15 16  2  0  0  0  0
 15 17  1  0  0  0  0
 17 18  1  0  0  0  0
 18 20  2  0  0  0  0
 19 18  1  1  0  0  0
 19 22  1  0  0  0  0
 19 30  1  0  0  0  0
 21 23  1  6  0  0  0
 21 29  1  0  0  0  0
 21 22  1  0  0  0  0
 23 24  1  0  0  0  0
 24 25  1  1  0  0  0
 24 26  1  0  0  0  0
 26 27  1  1  0  0  0
 26 28  1  0  0  0  0
 29 28  1  1  0  0  0
 29 31  1  0  0  0  0
 30 14  1  1  0  0  0
 30 31  1  0  0  0  0
M  CHG  1   3  -1
M  END
>  <CHROM.1>
173.82288636,144.48993115,169.74393741,-51.55149725,64.74598059,-66.93867943
-85.85458043,26.90834076,36.96343535,19.48782845,-2.30037975,1.33370268,1.84823999

>  <Name>
ligand

>  <RI>
0

>  <Rbt.Current_Directory>
/home/itssahil/PROJECTS/Mol_Feturizer/New_Systems/rnas/3F2T

>  <Rbt.Executable>
rbdock ($Id: //depot/dev/client3/rdock/2013.1/src/exe/rbdock.cxx#4 $)

>  <Rbt.Library>
libRbt.so (2013.1, Build901 2013/11/27)

>  <Rbt.Parameter_File>
/export/apps/rDock/src/rDock_2013.1_src/data/scripts/dock_solv.prm

>  <Rbt.Receptor>
prm/pocket_docking_6.prm

>  <SCORE>
-24.7396

>  <SCORE.INTER>
-25.0109

>  <SCORE.INTER.CONST>
1

>  <SCORE.INTER.POLAR>
0

>  <SCORE.INTER.ROT>
7

>  <SCORE.INTER.SOLV>
13.7835

>  <SCORE.INTER.VDW>
-29.5351

>  <SCORE.INTER.norm>
-0.806802

>  <SCORE.INTRA>
0.271213

>  <SCORE.INTRA.DIHEDRAL>
-0.919004

>  <SCORE.INTRA.DIHEDRAL.0>
4.64198

>  <SCORE.INTRA.POLAR>
0

>  <SCORE.INTRA.POLAR.0>
0

>  <SCORE.INTRA.REPUL>
0

>  <SCORE.INTRA.REPUL.0>
0

>  <SCORE.INTRA.SOLV>
0.990063

>  <SCORE.INTRA.SOLV.lig_0>
-49.3611

>  <SCORE.INTRA.VDW>
0.235683

>  <SCORE.INTRA.VDW.0>
-1.91858

>  <SCORE.INTRA.norm>
0.0087488

>  <SCORE.RESTR>
0

>  <SCORE.RESTR.CAVITY>
0

>  <SCORE.RESTR.norm>
0

>  <SCORE.SYSTEM>
0

>  <SCORE.SYSTEM.CONST>
0

>  <SCORE.SYSTEM.DIHEDRAL>
0

>  <SCORE.SYSTEM.SOLV>
0

>  <SCORE.SYSTEM.norm>
0

>  <SCORE.heavy>
31

>  <SCORE.norm>
-0.798053

>  <RMSD>
5.146

$$$$
ligand
 OpenBabel11021811473D
libRbt.so/2013.1/901 2013/11/27
 31 33  0  0  0  0  0  0  0  0999 V2000
   25.9676   44.1564   16.1132 P   0  0  1  0  0  0  0  0  0  0  0  0
   26.9116   44.3609   14.9554 O   0  0  0  0  0  0  0  0  0  0  0  0
   26.0074   45.3799   16.9897 O   0  5  0  0  0  0  0  0  0  0  0  0
   24.6049   43.9266   15.5198 O   0  0  0  0  0  0  0  0  0  0  0  0
   27.6696   42.7216   17.4971 C   0  0  0  0  0  0  0  0  0  0  0  0
   26.3512   42.8866   17.0180 O   0  0  0  0  0  0  0  0  0  0  0  0
   27.7449   41.4458   18.3318 C   0  0  1  0  0  0  0  0  0  0  0  0
   29.0959   41.0659   18.5023 O   0  0  0  0  0  0  0  0  0  0  0  0
   27.1209   41.6804   19.6972 C   0  0  1  0  0  0  0  0  0  0  0  0
   25.9531   42.4385   19.5271 O   0  0  0  0  0  0  0  0  0  0  0  0
   26.7670   40.3853   20.4088 C   0  0  1  0  0  0  0  0  0  0  0  0
   26.2232   39.5004   19.4668 O   0  0  0  0  0  0  0  0  0  0  0  0
   28.0005   39.7549   21.0337 C   0  0  0  0  0  0  0  0  0  0  0  0
   27.3217   40.5106   23.6583 N   0  0  0  0  0  0  0  0  0  0  0  0
   27.0550   40.9255   24.9449 C   0  0  0  0  0  0  0  0  0  0  0  0
   27.0543   42.1222   25.2184 O   0  0  0  0  0  0  0  0  0  0  0  0
   26.7899   40.0058   25.9338 N   0  0  0  0  0  0  0  0  0  0  0  0
   26.7775   38.6558   25.6419 C   0  0  0  0  0  0  0  0  0  0  0  0
   27.0462   38.2276   24.3466 C   0  0  1  0  0  0  0  0  0  0  0  0
   26.5210   37.8371   26.5270 O   0  0  0  0  0  0  0  0  0  0  0  0
   27.3028   36.4568   22.7598 C   0  0  2  0  0  0  0  0  0  0  0  0
   27.0373   36.8798   24.0482 N   0  0  0  0  0  0  0  0  0  0  0  0
   27.2936   35.0942   22.4597 C   0  0  0  0  0  0  0  0  0  0  0  0
   27.5644   34.6576   21.1682 C   0  0  1  0  0  0  0  0  0  0  0  0
   27.5492   33.1889   20.8840 C   0  0  0  0  0  0  0  0  0  0  0  0
   27.8435   35.5932   20.1604 C   0  0  1  0  0  0  0  0  0  0  0  0
   28.1326   35.1630   18.7485 C   0  0  0  0  0  0  0  0  0  0  0  0
   27.8535   36.9522   20.4634 C   0  0  0  0  0  0  0  0  0  0  0  0
   27.5858   37.3916   21.7612 C   0  0  1  0  0  0  0  0  0  0  0  0
   27.3232   39.1644   23.3530 C   0  0  1  0  0  0  0  0  0  0  0  0
   27.5976   38.7446   22.0655 N   0  0  0  0  0  0  0  0  0  0  0  0
  1  2  1  6  0  0  0
  1  3  1  0  0  0  0
  1  4  2  0  0  0  0
  1  6  1  0  0  0  0
  5  6  1  0  0  0  0
  7  5  1  6  0  0  0
  7  8  1  0  0  0  0
  7  9  1  0  0  0  0
  9 10  1  6  0  0  0
  9 11  1  0  0  0  0
 11 12  1  6  0  0  0
 11 13  1  0  0  0  0
 13 31  1  0  0  0  0
 14 15  1  0  0  0  0
 15 16  2  0  0  0  0
 15 17  1  0  0  0  0
 17 18  1  0  0  0  0
 18 20  2  0  0  0  0
 19 18  1  6  0  0  0
 19 22  1  0  0  0  0
 19 30  1  0  0  0  0
 21 23  1  1  0  0  0
 21 29  1  0  0  0  0
 21 22  1  0  0  0  0
 23 24  1  0  0  0  0
 24 25  1  6  0  0  0
 24 26  1  0  0  0  0
 26 27  1  6  0  0  0
 26 28  1  0  0  0  0
 29 28  1  6  0  0  0
 29 31  1  0  0  0  0
 30 14  1  6  0  0  0
 30 31  1  0  0  0  0
M  CHG  1   3  -1
M  END
>  <CHROM.1>
179.54043669,50.41632989,163.71696300,41.53188083,-40.88538266,162.48856607
99.42027969,27.02404359,39.93180415,20.61951564,-2.23481549,-1.41159162,1.67680124

>  <Name>
ligand

>  <RI>
0

>  <Rbt.Current_Directory>
/home/itssahil/PROJECTS/Mol_Feturizer/New_Systems/rnas/3F2T

>  <Rbt.Executable>
rbdock ($Id: //depot/dev/client3/rdock/2013.1/src/exe/rbdock.cxx#4 $)

>  <Rbt.Library>
libRbt.so (2013.1, Build901 2013/11/27)

>  <Rbt.Parameter_File>
/export/apps/rDock/src/rDock_2013.1_src/data/scripts/dock_solv.prm

>  <Rbt.Receptor>
prm/pocket_docking_7.prm

>  <SCORE>
-24.5243

>  <SCORE.INTER>
-26.1325

>  <SCORE.INTER.CONST>
1

>  <SCORE.INTER.POLAR>
0

>  <SCORE.INTER.ROT>
7

>  <SCORE.INTER.SOLV>
19.5409

>  <SCORE.INTER.VDW>
-32.2019

>  <SCORE.INTER.norm>
-0.842983

>  <SCORE.INTRA>
1.6082

>  <SCORE.INTRA.DIHEDRAL>
1.20029

>  <SCORE.INTRA.DIHEDRAL.0>
4.64198

>  <SCORE.INTRA.POLAR>
0

>  <SCORE.INTRA.POLAR.0>
0

>  <SCORE.INTRA.REPUL>
0

>  <SCORE.INTRA.REPUL.0>
0

>  <SCORE.INTRA.SOLV>
0.180103

>  <SCORE.INTRA.SOLV.lig_0>
-49.3611

>  <SCORE.INTRA.VDW>
0.918002

>  <SCORE.INTRA.VDW.0>
-1.91858

>  <SCORE.INTRA.norm>
0.0518774

>  <SCORE.RESTR>
0

>  <SCORE.RESTR.CAVITY>
0

>  <SCORE.RESTR.norm>
0

>  <SCORE.SYSTEM>
0

>  <SCORE.SYSTEM.CONST>
0

>  <SCORE.SYSTEM.DIHEDRAL>
0

>  <SCORE.SYSTEM.SOLV>
0

>  <SCORE.SYSTEM.norm>
0

>  <SCORE.heavy>
31

>  <SCORE.norm>
-0.791105

>  <RMSD>
5.151

$$$$
ligand
 OpenBabel11021811473D
libRbt.so/2013.1/901 2013/11/27
 31 33  0  0  0  0  0  0  0  0999 V2000
   26.5455   43.7935   16.6306 P   0  0  1  0  0  0  0  0  0  0  0  0
   25.8573   43.3096   15.3795 O   0  0  0  0  0  0  0  0  0  0  0  0
   28.0328   43.7873   16.3961 O   0  5  0  0  0  0  0  0  0  0  0  0
   26.0190   45.1759   16.9022 O   0  0  0  0  0  0  0  0  0  0  0  0
   26.4035   41.4700   17.8355 C   0  0  0  0  0  0  0  0  0  0  0  0
   26.2422   42.8712   17.9095 O   0  0  0  0  0  0  0  0  0  0  0  0
   25.9132   40.8384   19.1358 C   0  0  1  0  0  0  0  0  0  0  0  0
   25.6195   39.4722   18.9218 O   0  0  0  0  0  0  0  0  0  0  0  0
   26.9861   40.9521   20.2057 C   0  0  1  0  0  0  0  0  0  0  0  0
   26.3769   40.8136   21.4615 O   0  0  0  0  0  0  0  0  0  0  0  0
   28.0672   39.8938   20.0645 C   0  0  1  0  0  0  0  0  0  0  0  0
   28.9635   40.3107   19.0701 O   0  0  0  0  0  0  0  0  0  0  0  0
   28.8204   39.7095   21.3715 C   0  0  0  0  0  0  0  0  0  0  0  0
   27.8225   40.3986   23.9110 N   0  0  0  0  0  0  0  0  0  0  0  0
   27.4040   40.7704   25.1702 C   0  0  0  0  0  0  0  0  0  0  0  0
   27.5235   41.9348   25.5401 O   0  0  0  0  0  0  0  0  0  0  0  0
   26.8518   39.8430   26.0240 N   0  0  0  0  0  0  0  0  0  0  0  0
   26.7013   38.5305   25.6210 C   0  0  0  0  0  0  0  0  0  0  0  0
   27.1214   38.1458   24.3525 C   0  0  1  0  0  0  0  0  0  0  0  0
   26.1888   37.7077   26.3826 O   0  0  0  0  0  0  0  0  0  0  0  0
   27.3923   36.4558   22.6822 C   0  0  2  0  0  0  0  0  0  0  0  0
   26.9757   36.8353   23.9440 N   0  0  0  0  0  0  0  0  0  0  0  0
   27.2445   35.1308   22.2705 C   0  0  0  0  0  0  0  0  0  0  0  0
   27.6649   34.7374   21.0055 C   0  0  1  0  0  0  0  0  0  0  0  0
   27.4939   33.3077   20.5997 C   0  0  0  0  0  0  0  0  0  0  0  0
   28.2361   35.6795   20.1366 C   0  0  1  0  0  0  0  0  0  0  0  0
   28.6954   35.2968   18.7564 C   0  0  0  0  0  0  0  0  0  0  0  0
   28.3837   37.0006   20.5509 C   0  0  0  0  0  0  0  0  0  0  0  0
   27.9657   37.3960   21.8229 C   0  0  1  0  0  0  0  0  0  0  0  0
   27.6884   39.0886   23.4974 C   0  0  1  0  0  0  0  0  0  0  0  0
   28.1139   38.7108   22.2382 N   0  0  0  0  0  0  0  0  0  0  0  0
  1  2  1  6  0  0  0
  1  3  1  0  0  0  0
  1  4  2  0  0  0  0
  1  6  1  0  0  0  0
  5  6  1  0  0  0  0
  7  5  1  6  0  0  0
  7  8  1  0  0  0  0
  7  9  1  0  0  0  0
  9 10  1  1  0  0  0
  9 11  1  0  0  0  0
 11 12  1  6  0  0  0
 11 13  1  0  0  0  0
 13 31  1  0  0  0  0
 14 15  1  0  0  0  0
 15 16  2  0  0  0  0
 15 17  1  0  0  0  0
 17 18  1  0  0  0  0
 18 20  2  0  0  0  0
 19 18  1  6  0  0  0
 19 22  1  0  0  0  0
 19 30  1  0  0  0  0
 21 23  1  1  0  0  0
 21 29  1  0  0  0  0
 21 22  1  0  0  0  0
 23 24  1  0  0  0  0
 24 25  1  6  0  0  0
 24 26  1  0  0  0  0
 26 27  1  6  0  0  0
 26 28  1  0  0  0  0
 29 28  1  6  0  0  0
 29 31  1  0  0  0  0
 30 14  1  6  0  0  0
 30 31  1  0  0  0  0
M  CHG  1   3  -1
M  END
>  <CHROM.1>
-174.25594006,50.25777772,159.36515201,159.47238437,80.37854559,86.85639418
62.68588043,27.21223624,39.65803429,20.86078103,2.19408262,1.42324552,-1.45139673

>  <Name>
ligand

>  <RI>
0

>  <Rbt.Current_Directory>
/home/itssahil/PROJECTS/Mol_Feturizer/New_Systems/rnas/3F2T

>  <Rbt.Executable>
rbdock ($Id: //depot/dev/client3/rdock/2013.1/src/exe/rbdock.cxx#4 $)

>  <Rbt.Library>
libRbt.so (2013.1, Build901 2013/11/27)

>  <Rbt.Parameter_File>
/export/apps/rDock/src/rDock_2013.1_src/data/scripts/dock_solv.prm

>  <Rbt.Receptor>
prm/pocket_docking_4.prm

>  <SCORE>
-23.8742

>  <SCORE.INTER>
-25.6821

>  <SCORE.INTER.CONST>
1

>  <SCORE.INTER.POLAR>
0

>  <SCORE.INTER.ROT>
7

>  <SCORE.INTER.SOLV>
21.1463

>  <SCORE.INTER.VDW>
-32.4368

>  <SCORE.INTER.norm>
-0.828455

>  <SCORE.INTRA>
1.80785

>  <SCORE.INTRA.DIHEDRAL>
3.32028

>  <SCORE.INTRA.DIHEDRAL.0>
4.64198

>  <SCORE.INTRA.POLAR>
0

>  <SCORE.INTRA.POLAR.0>
0

>  <SCORE.INTRA.REPUL>
0

>  <SCORE.INTRA.REPUL.0>
0

>  <SCORE.INTRA.SOLV>
-0.483599

>  <SCORE.INTRA.SOLV.lig_0>
-49.3611

>  <SCORE.INTRA.VDW>
0.389506

>  <SCORE.INTRA.VDW.0>
-1.91858

>  <SCORE.INTRA.norm>
0.0583177

>  <SCORE.RESTR>
0

>  <SCORE.RESTR.CAVITY>
0

>  <SCORE.RESTR.norm>
0

>  <SCORE.SYSTEM>
0

>  <SCORE.SYSTEM.CONST>
0

>  <SCORE.SYSTEM.DIHEDRAL>
0

>  <SCORE.SYSTEM.SOLV>
0

>  <SCORE.SYSTEM.norm>
0

>  <SCORE.heavy>
31

>  <SCORE.norm>
-0.770137

>  <RMSD>
5.169

$$$$
ligand
 OpenBabel11021811473D
libRbt.so/2013.1/901 2013/11/27
 31 33  0  0  0  0  0  0  0  0999 V2000
   26.5093   43.4111   16.5806 P   0  0  1  0  0  0  0  0  0  0  0  0
   26.5572   42.0316   15.9741 O   0  0  0  0  0  0  0  0  0  0  0  0
   27.5545   44.2668   15.9155 O   0  5  0  0  0  0  0  0  0  0  0  0
   25.1175   43.9325   16.3505 O   0  0  0  0  0  0  0  0  0  0  0  0
   27.8221   42.5997   18.6993 C   0  0  0  0  0  0  0  0  0  0  0  0
   26.8005   43.4120   18.1597 O   0  0  0  0  0  0  0  0  0  0  0  0
   27.8931   42.8179   20.2084 C   0  0  1  0  0  0  0  0  0  0  0  0
   26.5989   42.7117   20.7675 O   0  0  0  0  0  0  0  0  0  0  0  0
   28.7936   41.7715   20.8431 C   0  0  1  0  0  0  0  0  0  0  0  0
   29.0928   42.1783   22.1516 O   0  0  0  0  0  0  0  0  0  0  0  0
   28.1487   40.3965   20.8911 C   0  0  1  0  0  0  0  0  0  0  0  0
   28.0272   39.9216   19.5775 O   0  0  0  0  0  0  0  0  0  0  0  0
   28.9970   39.4270   21.6972 C   0  0  0  0  0  0  0  0  0  0  0  0
   27.7739   39.9925   24.1679 N   0  0  0  0  0  0  0  0  0  0  0  0
   27.2454   40.2961   25.4037 C   0  0  0  0  0  0  0  0  0  0  0  0
   27.4125   41.4117   25.8878 O   0  0  0  0  0  0  0  0  0  0  0  0
   26.5291   39.3544   26.1066 N   0  0  0  0  0  0  0  0  0  0  0  0
   26.3235   38.0970   25.5730 C   0  0  0  0  0  0  0  0  0  0  0  0
   26.8537   37.7813   24.3270 C   0  0  1  0  0  0  0  0  0  0  0  0
   25.6652   37.2632   26.1983 O   0  0  0  0  0  0  0  0  0  0  0  0
   27.1799   36.2152   22.5493 C   0  0  2  0  0  0  0  0  0  0  0  0
   26.6535   36.5260   23.7886 N   0  0  0  0  0  0  0  0  0  0  0  0
   26.9770   34.9460   22.0063 C   0  0  0  0  0  0  0  0  0  0  0  0
   27.5064   34.6212   20.7628 C   0  0  1  0  0  0  0  0  0  0  0  0
   27.2716   33.2496   20.2137 C   0  0  0  0  0  0  0  0  0  0  0  0
   28.2443   35.5770   20.0483 C   0  0  1  0  0  0  0  0  0  0  0  0
   28.8262   35.2689   18.6960 C   0  0  0  0  0  0  0  0  0  0  0  0
   28.4464   36.8422   20.5936 C   0  0  0  0  0  0  0  0  0  0  0  0
   27.9188   37.1682   21.8443 C   0  0  1  0  0  0  0  0  0  0  0  0
   27.5860   38.7371   23.6257 C   0  0  1  0  0  0  0  0  0  0  0  0
   28.1210   38.4269   22.3901 N   0  0  0  0  0  0  0  0  0  0  0  0
  1  2  1  6  0  0  0
  1  3  1  0  0  0  0
  1  4  2  0  0  0  0
  1  6  1  0  0  0  0
  5  6  1  0  0  0  0
  7  5  1  6  0  0  0
  7  8  1  0  0  0  0
  7  9  1  0  0  0  0
  9 10  1  1  0  0  0
  9 11  1  0  0  0  0
 11 12  1  6  0  0  0
 11 13  1  0  0  0  0
 13 31  1  0  0  0  0
 14 15  1  0  0  0  0
 15 16  2  0  0  0  0
 15 17  1  0  0  0  0
 17 18  1  0  0  0  0
 18 20  2  0  0  0  0
 19 18  1  6  0  0  0
 19 22  1  0  0  0  0
 19 30  1  0  0  0  0
 21 23  1  1  0  0  0
 21 29  1  0  0  0  0
 21 22  1  0  0  0  0
 23 24  1  0  0  0  0
 24 25  1  6  0  0  0
 24 26  1  0  0  0  0
 26 27  1  6  0  0  0
 26 28  1  0  0  0  0
 29 28  1  6  0  0  0
 29 31  1  0  0  0  0
 30 14  1  6  0  0  0
 30 31  1  0  0  0  0
M  CHG  1   3  -1
M  END
>  <CHROM.1>
178.97237306,41.64080356,49.34855242,166.14922220,67.86910601,147.94911308
98.08534966,27.37822900,39.69583276,21.06142686,-2.01091819,-1.49527768,1.91622683

>  <Name>
ligand

>  <RI>
0

>  <Rbt.Current_Directory>
/home/itssahil/PROJECTS/Mol_Feturizer/New_Systems/rnas/3F2T

>  <Rbt.Executable>
rbdock ($Id: //depot/dev/client3/rdock/2013.1/src/exe/rbdock.cxx#4 $)

>  <Rbt.Library>
libRbt.so (2013.1, Build901 2013/11/27)

>  <Rbt.Parameter_File>
/export/apps/rDock/src/rDock_2013.1_src/data/scripts/dock_solv.prm

>  <Rbt.Receptor>
prm/pocket_docking_7.prm

>  <SCORE>
-27.8589

>  <SCORE.INTER>
-28.7433

>  <SCORE.INTER.CONST>
1

>  <SCORE.INTER.POLAR>
0

>  <SCORE.INTER.ROT>
7

>  <SCORE.INTER.SOLV>
20.3615

>  <SCORE.INTER.VDW>
-34.2161

>  <SCORE.INTER.norm>
-0.927204

>  <SCORE.INTRA>
0.884365

>  <SCORE.INTRA.DIHEDRAL>
1.4696

>  <SCORE.INTRA.DIHEDRAL.0>
4.64198

>  <SCORE.INTRA.POLAR>
0

>  <SCORE.INTRA.POLAR.0>
0

>  <SCORE.INTRA.REPUL>
0

>  <SCORE.INTRA.REPUL.0>
0

>  <SCORE.INTRA.SOLV>
-0.474698

>  <SCORE.INTRA.SOLV.lig_0>
-49.3611

>  <SCORE.INTRA.VDW>
0.386915

>  <SCORE.INTRA.VDW.0>
-1.91858

>  <SCORE.INTRA.norm>
0.0285279

>  <SCORE.RESTR>
0

>  <SCORE.RESTR.CAVITY>
0

>  <SCORE.RESTR.norm>
0

>  <SCORE.SYSTEM>
0

>  <SCORE.SYSTEM.CONST>
0

>  <SCORE.SYSTEM.DIHEDRAL>
0

>  <SCORE.SYSTEM.SOLV>
0

>  <SCORE.SYSTEM.norm>
0

>  <SCORE.heavy>
31

>  <SCORE.norm>
-0.898676

>  <RMSD>
5.175

$$$$
ligand
 OpenBabel11021811473D
libRbt.so/2013.1/901 2013/11/27
 31 33  0  0  0  0  0  0  0  0999 V2000
   25.9759   33.7570   14.7318 P   0  0  1  0  0  0  0  0  0  0  0  0
   24.5158   33.8566   14.3694 O   0  0  0  0  0  0  0  0  0  0  0  0
   26.1161   33.9301   16.2209 O   0  5  0  0  0  0  0  0  0  0  0  0
   26.4407   32.4029   14.2710 O   0  0  0  0  0  0  0  0  0  0  0  0
   26.8692   36.2090   14.4858 C   0  0  0  0  0  0  0  0  0  0  0  0
   26.8772   34.8769   14.0163 O   0  0  0  0  0  0  0  0  0  0  0  0
   27.6502   36.2848   15.7952 C   0  0  1  0  0  0  0  0  0  0  0  0
   29.0082   36.5705   15.5253 O   0  0  0  0  0  0  0  0  0  0  0  0
   27.0797   37.3823   16.6778 C   0  0  1  0  0  0  0  0  0  0  0  0
   25.7038   37.1580   16.8314 O   0  0  0  0  0  0  0  0  0  0  0  0
   27.7275   37.4237   18.0517 C   0  0  1  0  0  0  0  0  0  0  0  0
   29.0640   37.8180   17.8961 O   0  0  0  0  0  0  0  0  0  0  0  0
   27.0156   38.4147   18.9576 C   0  0  0  0  0  0  0  0  0  0  0  0
   26.9332   35.8945   20.2074 N   0  0  0  0  0  0  0  0  0  0  0  0
   26.8187   34.6518   20.7917 C   0  0  0  0  0  0  0  0  0  0  0  0
   26.4493   33.6895   20.1251 O   0  0  0  0  0  0  0  0  0  0  0  0
   27.1139   34.4777   22.1246 N   0  0  0  0  0  0  0  0  0  0  0  0
   27.5397   35.5476   22.8875 C   0  0  0  0  0  0  0  0  0  0  0  0
   27.6575   36.8054   22.3067 C   0  0  1  0  0  0  0  0  0  0  0  0
   27.8209   35.3825   24.0763 O   0  0  0  0  0  0  0  0  0  0  0  0
   28.1988   39.1282   22.4840 C   0  0  2  0  0  0  0  0  0  0  0  0
   28.0807   37.8794   23.0638 N   0  0  0  0  0  0  0  0  0  0  0  0
   28.6265   40.2129   23.2503 C   0  0  0  0  0  0  0  0  0  0  0  0
   28.7438   41.4742   22.6783 C   0  0  1  0  0  0  0  0  0  0  0  0
   29.2020   42.6145   23.5314 C   0  0  0  0  0  0  0  0  0  0  0  0
   28.4351   41.6556   21.3217 C   0  0  1  0  0  0  0  0  0  0  0  0
   28.5574   43.0019   20.6623 C   0  0  0  0  0  0  0  0  0  0  0  0
   28.0069   40.5716   20.5600 C   0  0  0  0  0  0  0  0  0  0  0  0
   27.8847   39.3051   21.1344 C   0  0  1  0  0  0  0  0  0  0  0  0
   27.3475   36.9756   20.9590 C   0  0  1  0  0  0  0  0  0  0  0  0
   27.4562   38.2246   20.3780 N   0  0  0  0  0  0  0  0  0  0  0  0
  1  2  1  6  0  0  0
  1  3  1  0  0  0  0
  1  4  2  0  0  0  0
  1  6  1  0  0  0  0
  5  6  1  0  0  0  0
  7  5  1  6  0  0  0
  7  8  1  0  0  0  0
  7  9  1  0  0  0  0
  9 10  1  1  0  0  0
  9 11  1  0  0  0  0
 11 12  1  6  0  0  0
 11 13  1  0  0  0  0
 13 31  1  0  0  0  0
 14 15  1  0  0  0  0
 15 16  2  0  0  0  0
 15 17  1  0  0  0  0
 17 18  1  0  0  0  0
 18 20  2  0  0  0  0
 19 18  1  6  0  0  0
 19 22  1  0  0  0  0
 19 30  1  0  0  0  0
 21 23  1  1  0  0  0
 21 29  1  0  0  0  0
 21 22  1  0  0  0  0
 23 24  1  0  0  0  0
 24 25  1  6  0  0  0
 24 26  1  0  0  0  0
 26 27  1  6  0  0  0
 26 28  1  0  0  0  0
 29 28  1  6  0  0  0
 29 31  1  0  0  0  0
 30 14  1  6  0  0  0
 30 31  1  0  0  0  0
M  CHG  1   3  -1
M  END
>  <CHROM.1>
73.80061541,76.48202325,90.68143947,53.98734666,67.18284165,167.29496417
129.42142394,27.35577628,36.95955369,19.01720378,2.52875123,-1.30727042,-1.27714488

>  <Name>
ligand

>  <RI>
0

>  <Rbt.Current_Directory>
/home/itssahil/PROJECTS/Mol_Feturizer/New_Systems/rnas/3F2T

>  <Rbt.Executable>
rbdock ($Id: //depot/dev/client3/rdock/2013.1/src/exe/rbdock.cxx#4 $)

>  <Rbt.Library>
libRbt.so (2013.1, Build901 2013/11/27)

>  <Rbt.Parameter_File>
/export/apps/rDock/src/rDock_2013.1_src/data/scripts/dock_solv.prm

>  <Rbt.Receptor>
prm/pocket_docking_8.prm

>  <SCORE>
-17.1813

>  <SCORE.INTER>
-20.2515

>  <SCORE.INTER.CONST>
1

>  <SCORE.INTER.POLAR>
0

>  <SCORE.INTER.ROT>
7

>  <SCORE.INTER.SOLV>
9.20946

>  <SCORE.INTER.VDW>
-24.8375

>  <SCORE.INTER.norm>
-0.653275

>  <SCORE.INTRA>
3.0702

>  <SCORE.INTRA.DIHEDRAL>
1.41081

>  <SCORE.INTRA.DIHEDRAL.0>
4.64198

>  <SCORE.INTRA.POLAR>
0

>  <SCORE.INTRA.POLAR.0>
0

>  <SCORE.INTRA.REPUL>
0.0271317

>  <SCORE.INTRA.REPUL.0>
0

>  <SCORE.INTRA.SOLV>
2.83183

>  <SCORE.INTRA.SOLV.lig_0>
-49.3611

>  <SCORE.INTRA.VDW>
0.813224

>  <SCORE.INTRA.VDW.0>
-1.91858

>  <SCORE.INTRA.norm>
0.0990388

>  <SCORE.RESTR>
0

>  <SCORE.RESTR.CAVITY>
0

>  <SCORE.RESTR.norm>
0

>  <SCORE.SYSTEM>
0

>  <SCORE.SYSTEM.CONST>
0

>  <SCORE.SYSTEM.DIHEDRAL>
0

>  <SCORE.SYSTEM.SOLV>
0

>  <SCORE.SYSTEM.norm>
0

>  <SCORE.heavy>
31

>  <SCORE.norm>
-0.554236

>  <RMSD>
5.205

$$$$
ligand
 OpenBabel11021811473D
libRbt.so/2013.1/901 2013/11/27
 31 33  0  0  0  0  0  0  0  0999 V2000
   27.1905   34.9765   13.6377 P   0  0  1  0  0  0  0  0  0  0  0  0
   26.5065   36.2710   13.2776 O   0  0  0  0  0  0  0  0  0  0  0  0
   26.1516   33.8903   13.7253 O   0  5  0  0  0  0  0  0  0  0  0  0
   28.2010   34.7102   12.5560 O   0  0  0  0  0  0  0  0  0  0  0  0
   29.0901   35.8712   15.2067 C   0  0  0  0  0  0  0  0  0  0  0  0
   27.9568   35.0435   15.0471 O   0  0  0  0  0  0  0  0  0  0  0  0
   29.3879   36.0338   16.6950 C   0  0  1  0  0  0  0  0  0  0  0  0
   30.6345   36.6788   16.8647 O   0  0  0  0  0  0  0  0  0  0  0  0
   28.3041   36.8708   17.3535 C   0  0  1  0  0  0  0  0  0  0  0  0
   27.0839   36.1894   17.2354 O   0  0  0  0  0  0  0  0  0  0  0  0
   28.5804   37.1328   18.8245 C   0  0  1  0  0  0  0  0  0  0  0  0
   29.7413   37.9131   18.9217 O   0  0  0  0  0  0  0  0  0  0  0  0
   27.4226   37.8757   19.4702 C   0  0  0  0  0  0  0  0  0  0  0  0
   27.3437   35.7540   21.3174 N   0  0  0  0  0  0  0  0  0  0  0  0
   27.2356   34.6930   22.1899 C   0  0  0  0  0  0  0  0  0  0  0  0
   27.0118   33.5643   21.7623 O   0  0  0  0  0  0  0  0  0  0  0  0
   27.3745   34.8873   23.5453 N   0  0  0  0  0  0  0  0  0  0  0  0
   27.6356   36.1490   24.0431 C   0  0  0  0  0  0  0  0  0  0  0  0
   27.7456   37.2258   23.1704 C   0  0  1  0  0  0  0  0  0  0  0  0
   27.7779   36.3145   25.2564 O   0  0  0  0  0  0  0  0  0  0  0  0
   28.1154   39.5581   22.7919 C   0  0  2  0  0  0  0  0  0  0  0  0
   28.0047   38.4898   23.6614 N   0  0  0  0  0  0  0  0  0  0  0  0
   28.3771   40.8351   23.2895 C   0  0  0  0  0  0  0  0  0  0  0  0
   28.4853   41.9175   22.4242 C   0  0  1  0  0  0  0  0  0  0  0  0
   28.7630   43.2726   22.9937 C   0  0  0  0  0  0  0  0  0  0  0  0
   28.3354   41.7230   21.0427 C   0  0  1  0  0  0  0  0  0  0  0  0
   28.4541   42.8657   20.0719 C   0  0  0  0  0  0  0  0  0  0  0  0
   28.0727   40.4477   20.5494 C   0  0  0  0  0  0  0  0  0  0  0  0
   27.9596   39.3606   21.4179 C   0  0  1  0  0  0  0  0  0  0  0  0
   27.5941   37.0226   21.8003 C   0  0  1  0  0  0  0  0  0  0  0  0
   27.6957   38.0900   20.9287 N   0  0  0  0  0  0  0  0  0  0  0  0
  1  2  1  6  0  0  0
  1  3  1  0  0  0  0
  1  4  2  0  0  0  0
  1  6  1  0  0  0  0
  5  6  1  0  0  0  0
  7  5  1  6  0  0  0
  7  8  1  0  0  0  0
  7  9  1  0  0  0  0
  9 10  1  1  0  0  0
  9 11  1  0  0  0  0
 11 12  1  6  0  0  0
 11 13  1  0  0  0  0
 13 31  1  0  0  0  0
 14 15  1  0  0  0  0
 15 16  2  0  0  0  0
 15 17  1  0  0  0  0
 17 18  1  0  0  0  0
 18 20  2  0  0  0  0
 19 18  1  6  0  0  0
 19 22  1  0  0  0  0
 19 30  1  0  0  0  0
 21 23  1  1  0  0  0
 21 29  1  0  0  0  0
 21 22  1  0  0  0  0
 23 24  1  0  0  0  0
 24 25  1  6  0  0  0
 24 26  1  0  0  0  0
 26 27  1  6  0  0  0
 26 28  1  0  0  0  0
 29 28  1  6  0  0  0
 29 31  1  0  0  0  0
 30 14  1  6  0  0  0
 30 31  1  0  0  0  0
M  CHG  1   3  -1
M  END
>  <CHROM.1>
165.05910551,-67.02056249,170.74841256,62.48260719,64.69522089,178.36928690
110.08127459,27.97227114,37.27087650,19.28885871,-1.80219485,1.37967143,1.36037320

>  <Name>
ligand

>  <RI>
0

>  <Rbt.Current_Directory>
/home/itssahil/PROJECTS/Mol_Feturizer/New_Systems/rnas/3F2T

>  <Rbt.Executable>
rbdock ($Id: //depot/dev/client3/rdock/2013.1/src/exe/rbdock.cxx#4 $)

>  <Rbt.Library>
libRbt.so (2013.1, Build901 2013/11/27)

>  <Rbt.Parameter_File>
/export/apps/rDock/src/rDock_2013.1_src/data/scripts/dock_solv.prm

>  <Rbt.Receptor>
prm/pocket_docking_7.prm

>  <SCORE>
-23.1906

>  <SCORE.INTER>
-22.868

>  <SCORE.INTER.CONST>
1

>  <SCORE.INTER.POLAR>
0

>  <SCORE.INTER.ROT>
7

>  <SCORE.INTER.SOLV>
11.4533

>  <SCORE.INTER.VDW>
-27.3298

>  <SCORE.INTER.norm>
-0.737678

>  <SCORE.INTRA>
-0.322581

>  <SCORE.INTRA.DIHEDRAL>
-1.79824

>  <SCORE.INTRA.DIHEDRAL.0>
4.64198

>  <SCORE.INTRA.POLAR>
0

>  <SCORE.INTRA.POLAR.0>
0

>  <SCORE.INTRA.REPUL>
0

>  <SCORE.INTRA.REPUL.0>
0

>  <SCORE.INTRA.SOLV>
0.0958493

>  <SCORE.INTRA.SOLV.lig_0>
-49.3611

>  <SCORE.INTRA.VDW>
0.528614

>  <SCORE.INTRA.VDW.0>
-1.91858

>  <SCORE.INTRA.norm>
-0.0104058

>  <SCORE.RESTR>
0

>  <SCORE.RESTR.CAVITY>
0

>  <SCORE.RESTR.norm>
0

>  <SCORE.SYSTEM>
0

>  <SCORE.SYSTEM.CONST>
0

>  <SCORE.SYSTEM.DIHEDRAL>
0

>  <SCORE.SYSTEM.SOLV>
0

>  <SCORE.SYSTEM.norm>
0

>  <SCORE.heavy>
31

>  <SCORE.norm>
-0.748084

>  <RMSD>
5.210

$$$$
ligand
 OpenBabel11021811473D
libRbt.so/2013.1/901 2013/11/27
 31 33  0  0  0  0  0  0  0  0999 V2000
   30.6691   34.6873   14.5233 P   0  0  1  0  0  0  0  0  0  0  0  0
   29.9292   35.5562   13.5380 O   0  0  0  0  0  0  0  0  0  0  0  0
   29.8852   33.4188   14.7312 O   0  5  0  0  0  0  0  0  0  0  0  0
   32.0261   34.4258   13.9297 O   0  0  0  0  0  0  0  0  0  0  0  0
   31.5650   36.6103   16.0627 C   0  0  0  0  0  0  0  0  0  0  0  0
   30.8643   35.3888   15.9544 O   0  0  0  0  0  0  0  0  0  0  0  0
   31.4299   37.1423   17.4871 C   0  0  1  0  0  0  0  0  0  0  0  0
   32.2850   38.2542   17.6645 O   0  0  0  0  0  0  0  0  0  0  0  0
   29.9965   37.5743   17.7468 C   0  0  1  0  0  0  0  0  0  0  0  0
   29.1526   36.4803   17.5051 O   0  0  0  0  0  0  0  0  0  0  0  0
   29.7801   38.0567   19.1713 C   0  0  1  0  0  0  0  0  0  0  0  0
   30.5692   39.1979   19.3738 O   0  0  0  0  0  0  0  0  0  0  0  0
   28.3210   38.4086   19.4094 C   0  0  0  0  0  0  0  0  0  0  0  0
   27.6722   35.9084   20.5263 N   0  0  0  0  0  0  0  0  0  0  0  0
   27.3049   34.6723   21.0121 C   0  0  0  0  0  0  0  0  0  0  0  0
   27.3467   33.6863   20.2820 O   0  0  0  0  0  0  0  0  0  0  0  0
   26.8866   34.5311   22.3156 N   0  0  0  0  0  0  0  0  0  0  0  0
   26.8422   35.6281   23.1537 C   0  0  0  0  0  0  0  0  0  0  0  0
   27.2102   36.8795   22.6722 C   0  0  1  0  0  0  0  0  0  0  0  0
   26.4848   35.4931   24.3258 O   0  0  0  0  0  0  0  0  0  0  0  0
   27.5344   39.2228   23.0236 C   0  0  2  0  0  0  0  0  0  0  0  0
   27.1664   37.9805   23.5039 N   0  0  0  0  0  0  0  0  0  0  0  0
   27.4896   40.3348   23.8652 C   0  0  0  0  0  0  0  0  0  0  0  0
   27.8526   41.5898   23.3908 C   0  0  1  0  0  0  0  0  0  0  0  0
   27.7886   42.7598   24.3208 C   0  0  0  0  0  0  0  0  0  0  0  0
   28.2711   41.7374   22.0597 C   0  0  1  0  0  0  0  0  0  0  0  0
   28.6809   43.0760   21.5098 C   0  0  0  0  0  0  0  0  0  0  0  0
   28.3132   40.6261   21.2218 C   0  0  0  0  0  0  0  0  0  0  0  0
   27.9448   39.3658   21.6960 C   0  0  1  0  0  0  0  0  0  0  0  0
   27.6234   37.0160   21.3485 C   0  0  1  0  0  0  0  0  0  0  0  0
   27.9838   38.2582   20.8624 N   0  0  0  0  0  0  0  0  0  0  0  0
  1  2  1  6  0  0  0
  1  3  1  0  0  0  0
  1  4  2  0  0  0  0
  1  6  1  0  0  0  0
  5  6  1  0  0  0  0
  7  5  1  6  0  0  0
  7  8  1  0  0  0  0
  7  9  1  0  0  0  0
  9 10  1  1  0  0  0
  9 11  1  0  0  0  0
 11 12  1  6  0  0  0
 11 13  1  0  0  0  0
 13 31  1  0  0  0  0
 14 15  1  0  0  0  0
 15 16  2  0  0  0  0
 15 17  1  0  0  0  0
 17 18  1  0  0  0  0
 18 20  2  0  0  0  0
 19 18  1  1  0  0  0
 19 22  1  0  0  0  0
 19 30  1  0  0  0  0
 21 23  1  6  0  0  0
 21 29  1  0  0  0  0
 21 22  1  0  0  0  0
 23 24  1  0  0  0  0
 24 25  1  1  0  0  0
 24 26  1  0  0  0  0
 26 27  1  1  0  0  0
 26 28  1  0  0  0  0
 29 28  1  1  0  0  0
 29 31  1  0  0  0  0
 30 14  1  1  0  0  0
 30 31  1  0  0  0  0
M  CHG  1   3  -1
M  END
>  <CHROM.1>
172.09221597,-59.53104199,171.34076728,56.83606323,63.16774339,153.65018068
99.32024878,28.95307894,37.34053643,19.55630687,-0.90958689,1.00359453,0.47437966

>  <Name>
ligand

>  <RI>
0

>  <Rbt.Current_Directory>
/home/itssahil/PROJECTS/Mol_Feturizer/New_Systems/rnas/3F2T

>  <Rbt.Executable>
rbdock ($Id: //depot/dev/client3/rdock/2013.1/src/exe/rbdock.cxx#4 $)

>  <Rbt.Library>
libRbt.so (2013.1, Build901 2013/11/27)

>  <Rbt.Parameter_File>
/export/apps/rDock/src/rDock_2013.1_src/data/scripts/dock_solv.prm

>  <Rbt.Receptor>
prm/pocket_docking_5.prm

>  <SCORE>
-22.0785

>  <SCORE.INTER>
-22.238

>  <SCORE.INTER.CONST>
1

>  <SCORE.INTER.POLAR>
0

>  <SCORE.INTER.ROT>
7

>  <SCORE.INTER.SOLV>
9.18845

>  <SCORE.INTER.VDW>
-26.1548

>  <SCORE.INTER.norm>
-0.717353

>  <SCORE.INTRA>
0.159408

>  <SCORE.INTRA.DIHEDRAL>
-0.534392

>  <SCORE.INTRA.DIHEDRAL.0>
4.64198

>  <SCORE.INTRA.POLAR>
0

>  <SCORE.INTRA.POLAR.0>
0

>  <SCORE.INTRA.REPUL>
0

>  <SCORE.INTRA.REPUL.0>
0

>  <SCORE.INTRA.SOLV>
0.0681535

>  <SCORE.INTRA.SOLV.lig_0>
-49.3611

>  <SCORE.INTRA.VDW>
0.392527

>  <SCORE.INTRA.VDW.0>
-1.91858

>  <SCORE.INTRA.norm>
0.0051422

>  <SCORE.RESTR>
0

>  <SCORE.RESTR.CAVITY>
0

>  <SCORE.RESTR.norm>
0

>  <SCORE.SYSTEM>
0

>  <SCORE.SYSTEM.CONST>
0

>  <SCORE.SYSTEM.DIHEDRAL>
0

>  <SCORE.SYSTEM.SOLV>
0

>  <SCORE.SYSTEM.norm>
0

>  <SCORE.heavy>
31

>  <SCORE.norm>
-0.712211

>  <RMSD>
5.211

$$$$
ligand
 OpenBabel11021811473D
libRbt.so/2013.1/901 2013/11/27
 31 33  0  0  0  0  0  0  0  0999 V2000
   24.3321   33.5866   15.7897 P   0  0  1  0  0  0  0  0  0  0  0  0
   25.3087   32.4911   15.4439 O   0  0  0  0  0  0  0  0  0  0  0  0
   23.4099   33.7979   14.6184 O   0  5  0  0  0  0  0  0  0  0  0  0
   23.5945   33.1312   17.0187 O   0  0  0  0  0  0  0  0  0  0  0  0
   26.0288   35.0702   17.1279 C   0  0  0  0  0  0  0  0  0  0  0  0
   25.0493   34.9862   16.1138 O   0  0  0  0  0  0  0  0  0  0  0  0
   26.4380   36.5293   17.3114 C   0  0  1  0  0  0  0  0  0  0  0  0
   25.3067   37.3023   17.6597 O   0  0  0  0  0  0  0  0  0  0  0  0
   27.4745   36.6434   18.4166 C   0  0  1  0  0  0  0  0  0  0  0  0
   28.5761   35.8449   18.0760 O   0  0  0  0  0  0  0  0  0  0  0  0
   27.9490   38.0713   18.6282 C   0  0  1  0  0  0  0  0  0  0  0  0
   26.8420   38.8541   18.9857 O   0  0  0  0  0  0  0  0  0  0  0  0
   28.9884   38.1394   19.7348 C   0  0  0  0  0  0  0  0  0  0  0  0
   28.1437   35.7065   20.8693 N   0  0  0  0  0  0  0  0  0  0  0  0
   27.6966   34.4970   21.3550 C   0  0  0  0  0  0  0  0  0  0  0  0
   27.9299   33.4615   20.7384 O   0  0  0  0  0  0  0  0  0  0  0  0
   26.9843   34.4377   22.5311 N   0  0  0  0  0  0  0  0  0  0  0  0
   26.7206   35.5918   23.2427 C   0  0  0  0  0  0  0  0  0  0  0  0
   27.1671   36.8170   22.7600 C   0  0  1  0  0  0  0  0  0  0  0  0
   26.0985   35.5311   24.3051 O   0  0  0  0  0  0  0  0  0  0  0  0
   27.3518   39.1908   22.9844 C   0  0  2  0  0  0  0  0  0  0  0  0
   26.9054   37.9746   23.4652 N   0  0  0  0  0  0  0  0  0  0  0  0
   27.0866   40.3601   23.6980 C   0  0  0  0  0  0  0  0  0  0  0  0
   27.5264   41.5892   23.2208 C   0  0  1  0  0  0  0  0  0  0  0  0
   27.2205   42.8222   24.0108 C   0  0  0  0  0  0  0  0  0  0  0  0
   28.2453   41.6529   22.0176 C   0  0  1  0  0  0  0  0  0  0  0  0
   28.7468   42.9615   21.4714 C   0  0  0  0  0  0  0  0  0  0  0  0
   28.5069   40.4844   21.3069 C   0  0  0  0  0  0  0  0  0  0  0  0
   28.0620   39.2498   21.7830 C   0  0  1  0  0  0  0  0  0  0  0  0
   27.8792   36.8699   21.5635 C   0  0  1  0  0  0  0  0  0  0  0  0
   28.3197   38.0853   21.0755 N   0  0  0  0  0  0  0  0  0  0  0  0
  1  2  1  6  0  0  0
  1  3  1  0  0  0  0
  1  4  2  0  0  0  0
  1  6  1  0  0  0  0
  5  6  1  0  0  0  0
  7  5  1  1  0  0  0
  7  8  1  0  0  0  0
  7  9  1  0  0  0  0
  9 10  1  6  0  0  0
  9 11  1  0  0  0  0
 11 12  1  1  0  0  0
 11 13  1  0  0  0  0
 13 31  1  0  0  0  0
 14 15  1  0  0  0  0
 15 16  2  0  0  0  0
 15 17  1  0  0  0  0
 17 18  1  0  0  0  0
 18 20  2  0  0  0  0
 19 18  1  1  0  0  0
 19 22  1  0  0  0  0
 19 30  1  0  0  0  0
 21 23  1  6  0  0  0
 21 29  1  0  0  0  0
 21 22  1  0  0  0  0
 23 24  1  0  0  0  0
 24 25  1  1  0  0  0
 24 26  1  0  0  0  0
 26 27  1  1  0  0  0
 26 28  1  0  0  0  0
 29 28  1  1  0  0  0
 29 31  1  0  0  0  0
 30 14  1  1  0  0  0
 30 31  1  0  0  0  0
M  CHG  1   3  -1
M  END
>  <CHROM.1>
-174.53091014,-56.42531291,59.08530590,58.10424087,60.48151051,-78.70539187
-97.59724936,26.79079017,36.89425140,19.91202798,3.05631465,1.26175474,2.45195237

>  <Name>
ligand

>  <RI>
0

>  <Rbt.Current_Directory>
/home/itssahil/PROJECTS/Mol_Feturizer/New_Systems/rnas/3F2T

>  <Rbt.Executable>
rbdock ($Id: //depot/dev/client3/rdock/2013.1/src/exe/rbdock.cxx#4 $)

>  <Rbt.Library>
libRbt.so (2013.1, Build901 2013/11/27)

>  <Rbt.Parameter_File>
/export/apps/rDock/src/rDock_2013.1_src/data/scripts/dock_solv.prm

>  <Rbt.Receptor>
prm/pocket_docking_7.prm

>  <SCORE>
-24.6867

>  <SCORE.INTER>
-23.77

>  <SCORE.INTER.CONST>
1

>  <SCORE.INTER.POLAR>
0

>  <SCORE.INTER.ROT>
7

>  <SCORE.INTER.SOLV>
15.097

>  <SCORE.INTER.VDW>
-29.1457

>  <SCORE.INTER.norm>
-0.766773

>  <SCORE.INTRA>
-0.916732

>  <SCORE.INTRA.DIHEDRAL>
-2.21515

>  <SCORE.INTRA.DIHEDRAL.0>
4.64198

>  <SCORE.INTRA.POLAR>
0

>  <SCORE.INTRA.POLAR.0>
0

>  <SCORE.INTRA.REPUL>
0

>  <SCORE.INTRA.REPUL.0>
0

>  <SCORE.INTRA.SOLV>
0.0715464

>  <SCORE.INTRA.SOLV.lig_0>
-49.3611

>  <SCORE.INTRA.VDW>
0.155071

>  <SCORE.INTRA.VDW.0>
-1.91858

>  <SCORE.INTRA.norm>
-0.029572

>  <SCORE.RESTR>
0

>  <SCORE.RESTR.CAVITY>
0

>  <SCORE.RESTR.norm>
0

>  <SCORE.SYSTEM>
0

>  <SCORE.SYSTEM.CONST>
0

>  <SCORE.SYSTEM.DIHEDRAL>
0

>  <SCORE.SYSTEM.SOLV>
0

>  <SCORE.SYSTEM.norm>
0

>  <SCORE.heavy>
31

>  <SCORE.norm>
-0.796345

>  <RMSD>
5.216

$$$$
ligand
 OpenBabel11021811473D
libRbt.so/2013.1/901 2013/11/27
 31 33  0  0  0  0  0  0  0  0999 V2000
   31.9962   34.3337   13.6305 P   0  0  1  0  0  0  0  0  0  0  0  0
   31.6928   32.8981   13.9772 O   0  0  0  0  0  0  0  0  0  0  0  0
   33.4651   34.5825   13.8489 O   0  5  0  0  0  0  0  0  0  0  0  0
   31.5957   34.5215   12.1931 O   0  0  0  0  0  0  0  0  0  0  0  0
   29.7746   35.2766   14.6532 C   0  0  0  0  0  0  0  0  0  0  0  0
   31.1776   35.3822   14.5299 O   0  0  0  0  0  0  0  0  0  0  0  0
   29.2522   36.4539   15.4725 C   0  0  1  0  0  0  0  0  0  0  0  0
   27.8477   36.5431   15.3383 O   0  0  0  0  0  0  0  0  0  0  0  0
   29.5977   36.2602   16.9394 C   0  0  1  0  0  0  0  0  0  0  0  0
   30.9921   36.1675   17.0585 O   0  0  0  0  0  0  0  0  0  0  0  0
   29.1047   37.4023   17.8120 C   0  0  1  0  0  0  0  0  0  0  0  0
   29.3699   38.6087   17.1486 O   0  0  0  0  0  0  0  0  0  0  0  0
   27.6103   37.2874   18.0631 C   0  0  0  0  0  0  0  0  0  0  0  0
   27.0508   34.7292   17.0325 N   0  0  0  0  0  0  0  0  0  0  0  0
   26.7254   33.5106   16.4775 C   0  0  0  0  0  0  0  0  0  0  0  0
   26.7626   33.3587   15.2599 O   0  0  0  0  0  0  0  0  0  0  0  0
   26.3543   32.4555   17.2794 N   0  0  0  0  0  0  0  0  0  0  0  0
   26.3159   32.6059   18.6519 C   0  0  0  0  0  0  0  0  0  0  0  0
   26.6418   33.8321   19.2209 C   0  0  1  0  0  0  0  0  0  0  0  0
   26.0011   31.6524   19.3670 O   0  0  0  0  0  0  0  0  0  0  0  0
   26.9297   35.2089   21.1551 C   0  0  2  0  0  0  0  0  0  0  0  0
   26.6036   33.9899   20.5918 N   0  0  0  0  0  0  0  0  0  0  0  0
   26.8907   35.3672   22.5408 C   0  0  0  0  0  0  0  0  0  0  0  0
   27.2117   36.5904   23.1174 C   0  0  1  0  0  0  0  0  0  0  0  0
   27.1554   36.7242   24.6063 C   0  0  0  0  0  0  0  0  0  0  0  0
   27.5819   37.6698   22.3010 C   0  0  1  0  0  0  0  0  0  0  0  0
   27.9455   39.0072   22.8855 C   0  0  0  0  0  0  0  0  0  0  0  0
   27.6184   37.5093   20.9184 C   0  0  0  0  0  0  0  0  0  0  0  0
   27.2920   36.2823   20.3379 C   0  0  1  0  0  0  0  0  0  0  0  0
   27.0071   34.8983   18.4016 C   0  0  1  0  0  0  0  0  0  0  0  0
   27.3255   36.1211   18.9609 N   0  0  0  0  0  0  0  0  0  0  0  0
  1  2  1  1  0  0  0
  1  3  1  0  0  0  0
  1  4  2  0  0  0  0
  1  6  1  0  0  0  0
  5  6  1  0  0  0  0
  7  5  1  6  0  0  0
  7  8  1  0  0  0  0
  7  9  1  0  0  0  0
  9 10  1  6  0  0  0
  9 11  1  0  0  0  0
 11 12  1  6  0  0  0
 11 13  1  0  0  0  0
 13 31  1  0  0  0  0
 14 15  1  0  0  0  0
 15 16  2  0  0  0  0
 15 17  1  0  0  0  0
 17 18  1  0  0  0  0
 18 20  2  0  0  0  0
 19 18  1  1  0  0  0
 19 22  1  0  0  0  0
 19 30  1  0  0  0  0
 21 23  1  6  0  0  0
 21 29  1  0  0  0  0
 21 22  1  0  0  0  0
 23 24  1  0  0  0  0
 24 25  1  1  0  0  0
 24 26  1  0  0  0  0
 26 27  1  1  0  0  0
 26 28  1  0  0  0  0
 29 28  1  1  0  0  0
 29 31  1  0  0  0  0
 30 14  1  1  0  0  0
 30 31  1  0  0  0  0
M  CHG  1   3  -1
M  END
>  <CHROM.1>
-175.77528523,-51.98093499,166.08658396,59.39204453,-42.69391092,69.83826191
90.26323523,28.59952668,35.33772692,17.71805153,-0.87020574,0.77326295,0.83836505

>  <Name>
ligand

>  <RI>
0

>  <Rbt.Current_Directory>
/home/itssahil/PROJECTS/Mol_Feturizer/New_Systems/rnas/3F2T

>  <Rbt.Executable>
rbdock ($Id: //depot/dev/client3/rdock/2013.1/src/exe/rbdock.cxx#4 $)

>  <Rbt.Library>
libRbt.so (2013.1, Build901 2013/11/27)

>  <Rbt.Parameter_File>
/export/apps/rDock/src/rDock_2013.1_src/data/scripts/dock_solv.prm

>  <Rbt.Receptor>
prm/pocket_docking_8.prm

>  <SCORE>
-15.5534

>  <SCORE.INTER>
-15.0245

>  <SCORE.INTER.CONST>
1

>  <SCORE.INTER.POLAR>
0

>  <SCORE.INTER.ROT>
7

>  <SCORE.INTER.SOLV>
10.8642

>  <SCORE.INTER.VDW>
-21.9044

>  <SCORE.INTER.norm>
-0.484661

>  <SCORE.INTRA>
-0.528917

>  <SCORE.INTRA.DIHEDRAL>
-1.08275

>  <SCORE.INTRA.DIHEDRAL.0>
4.64198

>  <SCORE.INTRA.POLAR>
0

>  <SCORE.INTRA.POLAR.0>
0

>  <SCORE.INTRA.REPUL>
0

>  <SCORE.INTRA.REPUL.0>
0

>  <SCORE.INTRA.SOLV>
0.529921

>  <SCORE.INTRA.SOLV.lig_0>
-49.3611

>  <SCORE.INTRA.VDW>
-0.252501

>  <SCORE.INTRA.VDW.0>
-1.91858

>  <SCORE.INTRA.norm>
-0.0170618

>  <SCORE.RESTR>
0

>  <SCORE.RESTR.CAVITY>
0

>  <SCORE.RESTR.norm>
0

>  <SCORE.SYSTEM>
0

>  <SCORE.SYSTEM.CONST>
0

>  <SCORE.SYSTEM.DIHEDRAL>
0

>  <SCORE.SYSTEM.SOLV>
0

>  <SCORE.SYSTEM.norm>
0

>  <SCORE.heavy>
31

>  <SCORE.norm>
-0.501723

>  <RMSD>
5.238

$$$$
ligand
 OpenBabel11021811473D
libRbt.so/2013.1/901 2013/11/27
 31 33  0  0  0  0  0  0  0  0999 V2000
   25.5831   43.3882   16.4892 P   0  0  1  0  0  0  0  0  0  0  0  0
   26.5790   42.5646   15.7126 O   0  0  0  0  0  0  0  0  0  0  0  0
   26.2756   44.6213   17.0059 O   0  5  0  0  0  0  0  0  0  0  0  0
   24.4666   43.7202   15.5377 O   0  0  0  0  0  0  0  0  0  0  0  0
   25.6918   42.5039   18.9543 C   0  0  0  0  0  0  0  0  0  0  0  0
   24.9659   42.6035   17.7468 O   0  0  0  0  0  0  0  0  0  0  0  0
   26.7110   41.3737   18.8360 C   0  0  1  0  0  0  0  0  0  0  0  0
   27.6954   41.7167   17.8809 O   0  0  0  0  0  0  0  0  0  0  0  0
   27.3843   41.1383   20.1776 C   0  0  1  0  0  0  0  0  0  0  0  0
   26.3899   40.8956   21.1366 O   0  0  0  0  0  0  0  0  0  0  0  0
   28.3415   39.9585   20.1526 C   0  0  1  0  0  0  0  0  0  0  0  0
   29.2834   40.1779   19.1374 O   0  0  0  0  0  0  0  0  0  0  0  0
   29.0631   39.8168   21.4825 C   0  0  0  0  0  0  0  0  0  0  0  0
   28.2358   40.5095   24.0817 N   0  0  0  0  0  0  0  0  0  0  0  0
   27.9035   40.8782   25.3671 C   0  0  0  0  0  0  0  0  0  0  0  0
   28.1156   42.0238   25.7536 O   0  0  0  0  0  0  0  0  0  0  0  0
   27.3346   39.9684   26.2289 N   0  0  0  0  0  0  0  0  0  0  0  0
   27.0805   38.6776   25.8080 C   0  0  0  0  0  0  0  0  0  0  0  0
   27.4130   38.2962   24.5129 C   0  0  1  0  0  0  0  0  0  0  0  0
   26.5535   37.8718   26.5778 O   0  0  0  0  0  0  0  0  0  0  0  0
   27.4932   36.6311   22.7981 C   0  0  2  0  0  0  0  0  0  0  0  0
   27.1635   37.0073   24.0862 N   0  0  0  0  0  0  0  0  0  0  0  0
   27.2406   35.3280   22.3682 C   0  0  0  0  0  0  0  0  0  0  0  0
   27.5730   34.9377   21.0762 C   0  0  1  0  0  0  0  0  0  0  0  0
   27.2907   33.5314   20.6513 C   0  0  0  0  0  0  0  0  0  0  0  0
   28.1610   35.8613   20.1988 C   0  0  1  0  0  0  0  0  0  0  0  0
   28.5274   35.4820   18.7902 C   0  0  0  0  0  0  0  0  0  0  0  0
   28.4134   37.1605   20.6313 C   0  0  0  0  0  0  0  0  0  0  0  0
   28.0838   37.5525   21.9300 C   0  0  1  0  0  0  0  0  0  0  0  0
   27.9976   39.2205   23.6494 C   0  0  1  0  0  0  0  0  0  0  0  0
   28.3365   38.8454   22.3634 N   0  0  0  0  0  0  0  0  0  0  0  0
  1  2  1  6  0  0  0
  1  3  1  0  0  0  0
  1  4  2  0  0  0  0
  1  6  1  0  0  0  0
  5  6  1  0  0  0  0
  7  5  1  1  0  0  0
  7  8  1  0  0  0  0
  7  9  1  0  0  0  0
  9 10  1  1  0  0  0
  9 11  1  0  0  0  0
 11 12  1  6  0  0  0
 11 13  1  0  0  0  0
 13 31  1  0  0  0  0
 14 15  1  0  0  0  0
 15 16  2  0  0  0  0
 15 17  1  0  0  0  0
 17 18  1  0  0  0  0
 18 20  2  0  0  0  0
 19 18  1  6  0  0  0
 19 22  1  0  0  0  0
 19 30  1  0  0  0  0
 21 23  1  1  0  0  0
 21 29  1  0  0  0  0
 21 22  1  0  0  0  0
 23 24  1  0  0  0  0
 24 25  1  6  0  0  0
 24 26  1  0  0  0  0
 26 27  1  6  0  0  0
 26 28  1  0  0  0  0
 29 28  1  6  0  0  0
 29 31  1  0  0  0  0
 30 14  1  6  0  0  0
 30 31  1  0  0  0  0
M  CHG  1   3  -1
M  END
>  <CHROM.1>
-81.36301413,80.17985113,66.95480638,55.37390464,56.27311150,94.25672647
56.31167557,27.22605785,39.79132227,20.88583324,2.71755475,1.36656431,-2.05456041

>  <Name>
ligand

>  <RI>
0

>  <Rbt.Current_Directory>
/home/itssahil/PROJECTS/Mol_Feturizer/New_Systems/rnas/3F2T

>  <Rbt.Executable>
rbdock ($Id: //depot/dev/client3/rdock/2013.1/src/exe/rbdock.cxx#4 $)

>  <Rbt.Library>
libRbt.so (2013.1, Build901 2013/11/27)

>  <Rbt.Parameter_File>
/export/apps/rDock/src/rDock_2013.1_src/data/scripts/dock_solv.prm

>  <Rbt.Receptor>
prm/pocket_docking_7.prm

>  <SCORE>
-23.7681

>  <SCORE.INTER>
-26.7858

>  <SCORE.INTER.CONST>
1

>  <SCORE.INTER.POLAR>
0

>  <SCORE.INTER.ROT>
7

>  <SCORE.INTER.SOLV>
16.1411

>  <SCORE.INTER.VDW>
-31.5042

>  <SCORE.INTER.norm>
-0.864057

>  <SCORE.INTRA>
3.01765

>  <SCORE.INTRA.DIHEDRAL>
2.64816

>  <SCORE.INTRA.DIHEDRAL.0>
4.64198

>  <SCORE.INTRA.POLAR>
0

>  <SCORE.INTRA.POLAR.0>
0

>  <SCORE.INTRA.REPUL>
0

>  <SCORE.INTRA.REPUL.0>
0

>  <SCORE.INTRA.SOLV>
1.51474

>  <SCORE.INTRA.SOLV.lig_0>
-49.3611

>  <SCORE.INTRA.VDW>
0.936199

>  <SCORE.INTRA.VDW.0>
-1.91858

>  <SCORE.INTRA.norm>
0.0973436

>  <SCORE.RESTR>
0

>  <SCORE.RESTR.CAVITY>
0

>  <SCORE.RESTR.norm>
0

>  <SCORE.SYSTEM>
0

>  <SCORE.SYSTEM.CONST>
0

>  <SCORE.SYSTEM.DIHEDRAL>
0

>  <SCORE.SYSTEM.SOLV>
0

>  <SCORE.SYSTEM.norm>
0

>  <SCORE.heavy>
31

>  <SCORE.norm>
-0.766713

>  <RMSD>
5.239

$$$$
ligand
 OpenBabel11021811473D
libRbt.so/2013.1/901 2013/11/27
 31 33  0  0  0  0  0  0  0  0999 V2000
   28.4690   42.4560   16.4638 P   0  0  1  0  0  0  0  0  0  0  0  0
   27.6364   43.3689   15.5997 O   0  0  0  0  0  0  0  0  0  0  0  0
   29.5799   41.8801   15.6263 O   0  5  0  0  0  0  0  0  0  0  0  0
   28.9893   43.2959   17.5978 O   0  0  0  0  0  0  0  0  0  0  0  0
   26.4648   41.4786   17.8415 C   0  0  0  0  0  0  0  0  0  0  0  0
   27.6274   41.2341   17.0776 O   0  0  0  0  0  0  0  0  0  0  0  0
   26.8429   42.2649   19.0941 C   0  0  1  0  0  0  0  0  0  0  0  0
   25.7001   42.4477   19.9061 O   0  0  0  0  0  0  0  0  0  0  0  0
   27.8958   41.5072   19.8854 C   0  0  1  0  0  0  0  0  0  0  0  0
   28.4603   42.3826   20.8247 O   0  0  0  0  0  0  0  0  0  0  0  0
   27.3245   40.3038   20.6162 C   0  0  1  0  0  0  0  0  0  0  0  0
   26.8252   39.4060   19.6620 O   0  0  0  0  0  0  0  0  0  0  0  0
   28.3960   39.6114   21.4421 C   0  0  0  0  0  0  0  0  0  0  0  0
   27.4126   40.3401   23.9763 N   0  0  0  0  0  0  0  0  0  0  0  0
   26.9993   40.7360   25.2298 C   0  0  0  0  0  0  0  0  0  0  0  0
   27.0559   41.9192   25.5518 O   0  0  0  0  0  0  0  0  0  0  0  0
   26.5226   39.8119   26.1314 N   0  0  0  0  0  0  0  0  0  0  0  0
   26.4434   38.4777   25.7827 C   0  0  0  0  0  0  0  0  0  0  0  0
   26.8589   38.0688   24.5204 C   0  0  1  0  0  0  0  0  0  0  0  0
   25.9981   37.6568   26.5873 O   0  0  0  0  0  0  0  0  0  0  0  0
   27.1959   36.3329   22.9102 C   0  0  2  0  0  0  0  0  0  0  0  0
   26.7842   36.7367   24.1659 N   0  0  0  0  0  0  0  0  0  0  0  0
   27.1200   34.9862   22.5533 C   0  0  0  0  0  0  0  0  0  0  0  0
   27.5364   34.5686   21.2946 C   0  0  1  0  0  0  0  0  0  0  0  0
   27.4437   33.1162   20.9481 C   0  0  0  0  0  0  0  0  0  0  0  0
   28.0307   35.5078   20.3770 C   0  0  1  0  0  0  0  0  0  0  0  0
   28.4829   35.0988   19.0020 C   0  0  0  0  0  0  0  0  0  0  0  0
   28.1068   36.8508   20.7367 C   0  0  0  0  0  0  0  0  0  0  0  0
   27.6929   37.2708   22.0020 C   0  0  1  0  0  0  0  0  0  0  0  0
   27.3494   39.0090   23.6165 C   0  0  1  0  0  0  0  0  0  0  0  0
   27.7700   38.6076   22.3630 N   0  0  0  0  0  0  0  0  0  0  0  0
  1  2  1  6  0  0  0
  1  3  1  0  0  0  0
  1  4  2  0  0  0  0
  1  6  1  0  0  0  0
  5  6  1  0  0  0  0
  7  5  1  6  0  0  0
  7  8  1  0  0  0  0
  7  9  1  0  0  0  0
  9 10  1  1  0  0  0
  9 11  1  0  0  0  0
 11 12  1  6  0  0  0
 11 13  1  0  0  0  0
 13 31  1  0  0  0  0
 14 15  1  0  0  0  0
 15 16  2  0  0  0  0
 15 17  1  0  0  0  0
 17 18  1  0  0  0  0
 18 20  2  0  0  0  0
 19 18  1  6  0  0  0
 19 22  1  0  0  0  0
 19 30  1  0  0  0  0
 21 23  1  1  0  0  0
 21 29  1  0  0  0  0
 21 22  1  0  0  0  0
 23 24  1  0  0  0  0
 24 25  1  6  0  0  0
 24 26  1  0  0  0  0
 26 27  1  6  0  0  0
 26 28  1  0  0  0  0
 29 28  1  6  0  0  0
 29 31  1  0  0  0  0
 30 14  1  6  0  0  0
 30 31  1  0  0  0  0
M  CHG  1   3  -1
M  END
>  <CHROM.1>
-62.59295411,-55.71933285,-176.57882572,165.36186344,62.65125759,168.65212027
95.91067592,27.50244110,39.51596236,20.96134107,-0.83812734,-1.38401916,2.92309442

>  <Name>
ligand

>  <RI>
0

>  <Rbt.Current_Directory>
/home/itssahil/PROJECTS/Mol_Feturizer/New_Systems/rnas/3F2T

>  <Rbt.Executable>
rbdock ($Id: //depot/dev/client3/rdock/2013.1/src/exe/rbdock.cxx#4 $)

>  <Rbt.Library>
libRbt.so (2013.1, Build901 2013/11/27)

>  <Rbt.Parameter_File>
/export/apps/rDock/src/rDock_2013.1_src/data/scripts/dock_solv.prm

>  <Rbt.Receptor>
prm/pocket_docking_4.prm

>  <SCORE>
-26.9223

>  <SCORE.INTER>
-27.9515

>  <SCORE.INTER.CONST>
1

>  <SCORE.INTER.POLAR>
0

>  <SCORE.INTER.ROT>
7

>  <SCORE.INTER.SOLV>
23.1657

>  <SCORE.INTER.VDW>
-34.6229

>  <SCORE.INTER.norm>
-0.901663

>  <SCORE.INTRA>
1.02928

>  <SCORE.INTRA.DIHEDRAL>
-1.97758

>  <SCORE.INTRA.DIHEDRAL.0>
4.64198

>  <SCORE.INTRA.POLAR>
0

>  <SCORE.INTRA.POLAR.0>
0

>  <SCORE.INTRA.REPUL>
0

>  <SCORE.INTRA.REPUL.0>
0

>  <SCORE.INTRA.SOLV>
2.76514

>  <SCORE.INTRA.SOLV.lig_0>
-49.3611

>  <SCORE.INTRA.VDW>
0.6355

>  <SCORE.INTRA.VDW.0>
-1.91858

>  <SCORE.INTRA.norm>
0.0332026

>  <SCORE.RESTR>
0

>  <SCORE.RESTR.CAVITY>
0

>  <SCORE.RESTR.norm>
0

>  <SCORE.SYSTEM>
0

>  <SCORE.SYSTEM.CONST>
0

>  <SCORE.SYSTEM.DIHEDRAL>
0

>  <SCORE.SYSTEM.SOLV>
0

>  <SCORE.SYSTEM.norm>
0

>  <SCORE.heavy>
31

>  <SCORE.norm>
-0.86846

>  <RMSD>
5.243

$$$$
ligand
 OpenBabel11021811473D
libRbt.so/2013.1/901 2013/11/27
 31 33  0  0  0  0  0  0  0  0999 V2000
   29.8114   40.9759   17.0764 P   0  0  1  0  0  0  0  0  0  0  0  0
   30.8419   42.0754   17.1242 O   0  0  0  0  0  0  0  0  0  0  0  0
   29.8148   40.3714   15.6975 O   0  5  0  0  0  0  0  0  0  0  0  0
   30.1982   39.9795   18.1346 O   0  0  0  0  0  0  0  0  0  0  0  0
   28.1056   42.5088   18.3456 C   0  0  0  0  0  0  0  0  0  0  0  0
   28.3242   41.4969   17.3849 O   0  0  0  0  0  0  0  0  0  0  0  0
   28.4515   41.9694   19.7311 C   0  0  1  0  0  0  0  0  0  0  0  0
   28.8839   43.0287   20.5616 O   0  0  0  0  0  0  0  0  0  0  0  0
   27.2288   41.3185   20.3557 C   0  0  1  0  0  0  0  0  0  0  0  0
   26.0829   41.9475   19.8474 O   0  0  0  0  0  0  0  0  0  0  0  0
   27.1441   39.8302   20.0614 C   0  0  1  0  0  0  0  0  0  0  0  0
   27.1875   39.6536   18.6711 O   0  0  0  0  0  0  0  0  0  0  0  0
   28.3057   39.0843   20.6970 C   0  0  0  0  0  0  0  0  0  0  0  0
   27.5569   40.0350   23.2378 N   0  0  0  0  0  0  0  0  0  0  0  0
   27.2582   40.5421   24.4838 C   0  0  0  0  0  0  0  0  0  0  0  0
   27.3117   41.7517   24.6855 O   0  0  0  0  0  0  0  0  0  0  0  0
   26.9005   39.7003   25.5121 N   0  0  0  0  0  0  0  0  0  0  0  0
   26.8263   38.3373   25.3005 C   0  0  0  0  0  0  0  0  0  0  0  0
   27.1266   37.8165   24.0468 C   0  0  1  0  0  0  0  0  0  0  0  0
   26.4871   37.5894   26.2198 O   0  0  0  0  0  0  0  0  0  0  0  0
   27.3535   35.9401   22.5815 C   0  0  2  0  0  0  0  0  0  0  0  0
   27.0564   36.4552   23.8288 N   0  0  0  0  0  0  0  0  0  0  0  0
   27.2822   34.5639   22.3626 C   0  0  0  0  0  0  0  0  0  0  0  0
   27.5840   34.0349   21.1132 C   0  0  1  0  0  0  0  0  0  0  0  0
   27.5002   32.5543   20.9163 C   0  0  0  0  0  0  0  0  0  0  0  0
   27.9574   34.8905   20.0658 C   0  0  1  0  0  0  0  0  0  0  0  0
   28.2831   34.3594   18.6968 C   0  0  0  0  0  0  0  0  0  0  0  0
   28.0292   36.2632   20.2878 C   0  0  0  0  0  0  0  0  0  0  0  0
   27.7304   36.7954   21.5434 C   0  0  1  0  0  0  0  0  0  0  0  0
   27.4975   38.6744   23.0133 C   0  0  1  0  0  0  0  0  0  0  0  0
   27.8036   38.1620   21.7671 N   0  0  0  0  0  0  0  0  0  0  0  0
  1  2  1  1  0  0  0
  1  3  1  0  0  0  0
  1  4  2  0  0  0  0
  1  6  1  0  0  0  0
  5  6  1  0  0  0  0
  7  5  1  6  0  0  0
  7  8  1  0  0  0  0
  7  9  1  0  0  0  0
  9 10  1  6  0  0  0
  9 11  1  0  0  0  0
 11 12  1  6  0  0  0
 11 13  1  0  0  0  0
 13 31  1  0  0  0  0
 14 15  1  0  0  0  0
 15 16  2  0  0  0  0
 15 17  1  0  0  0  0
 17 18  1  0  0  0  0
 18 20  2  0  0  0  0
 19 18  1  6  0  0  0
 19 22  1  0  0  0  0
 19 30  1  0  0  0  0
 21 23  1  1  0  0  0
 21 29  1  0  0  0  0
 21 22  1  0  0  0  0
 23 24  1  0  0  0  0
 24 25  1  6  0  0  0
 24 26  1  0  0  0  0
 26 27  1  6  0  0  0
 26 28  1  0  0  0  0
 29 28  1  6  0  0  0
 29 31  1  0  0  0  0
 30 14  1  6  0  0  0
 30 31  1  0  0  0  0
M  CHG  1   3  -1
M  END
>  <CHROM.1>
-67.09170213,-36.76522292,151.07377822,-28.84394310,-55.27296551,114.23724523
104.37124822,27.98112056,39.01306284,20.81229591,-0.55284027,-1.26691033
-3.00222591

>  <Name>
ligand

>  <RI>
0

>  <Rbt.Current_Directory>
/home/itssahil/PROJECTS/Mol_Feturizer/New_Systems/rnas/3F2T

>  <Rbt.Executable>
rbdock ($Id: //depot/dev/client3/rdock/2013.1/src/exe/rbdock.cxx#4 $)

>  <Rbt.Library>
libRbt.so (2013.1, Build901 2013/11/27)

>  <Rbt.Parameter_File>
/export/apps/rDock/src/rDock_2013.1_src/data/scripts/dock_solv.prm

>  <Rbt.Receptor>
prm/pocket_docking_6.prm

>  <SCORE>
-21.4207

>  <SCORE.INTER>
-28.6483

>  <SCORE.INTER.CONST>
1

>  <SCORE.INTER.POLAR>
0

>  <SCORE.INTER.ROT>
7

>  <SCORE.INTER.SOLV>
17.188

>  <SCORE.INTER.VDW>
-33.0949

>  <SCORE.INTER.norm>
-0.924138

>  <SCORE.INTRA>
7.22755

>  <SCORE.INTRA.DIHEDRAL>
8.24645

>  <SCORE.INTRA.DIHEDRAL.0>
4.64198

>  <SCORE.INTRA.POLAR>
0

>  <SCORE.INTRA.POLAR.0>
0

>  <SCORE.INTRA.REPUL>
0

>  <SCORE.INTRA.REPUL.0>
0

>  <SCORE.INTRA.SOLV>
4.08667

>  <SCORE.INTRA.SOLV.lig_0>
-49.3611

>  <SCORE.INTRA.VDW>
1.06099

>  <SCORE.INTRA.VDW.0>
-1.91858

>  <SCORE.INTRA.norm>
0.233147

>  <SCORE.RESTR>
0

>  <SCORE.RESTR.CAVITY>
0

>  <SCORE.RESTR.norm>
0

>  <SCORE.SYSTEM>
0

>  <SCORE.SYSTEM.CONST>
0

>  <SCORE.SYSTEM.DIHEDRAL>
0

>  <SCORE.SYSTEM.SOLV>
0

>  <SCORE.SYSTEM.norm>
0

>  <SCORE.heavy>
31

>  <SCORE.norm>
-0.690991

>  <RMSD>
5.245

$$$$
ligand
 OpenBabel11021811473D
libRbt.so/2013.1/901 2013/11/27
 31 33  0  0  0  0  0  0  0  0999 V2000
   28.5084   42.3241   16.5056 P   0  0  1  0  0  0  0  0  0  0  0  0
   29.8396   42.1674   15.8154 O   0  0  0  0  0  0  0  0  0  0  0  0
   27.7707   43.4753   15.8750 O   0  5  0  0  0  0  0  0  0  0  0  0
   27.7798   41.0197   16.3331 O   0  0  0  0  0  0  0  0  0  0  0  0
   27.5030   42.6695   18.9016 C   0  0  0  0  0  0  0  0  0  0  0  0
   28.6484   42.6269   18.0763 O   0  0  0  0  0  0  0  0  0  0  0  0
   27.9351   42.8820   20.3501 C   0  0  1  0  0  0  0  0  0  0  0  0
   26.7945   42.9637   21.1814 O   0  0  0  0  0  0  0  0  0  0  0  0
   28.8004   41.7208   20.8101 C   0  0  1  0  0  0  0  0  0  0  0  0
   29.4322   42.0854   22.0081 O   0  0  0  0  0  0  0  0  0  0  0  0
   27.9991   40.4510   21.0435 C   0  0  1  0  0  0  0  0  0  0  0  0
   27.4858   40.0221   19.8113 O   0  0  0  0  0  0  0  0  0  0  0  0
   28.8755   39.3561   21.6289 C   0  0  0  0  0  0  0  0  0  0  0  0
   27.6490   39.9425   24.0929 N   0  0  0  0  0  0  0  0  0  0  0  0
   27.1181   40.2589   25.3245 C   0  0  0  0  0  0  0  0  0  0  0  0
   27.2565   41.3892   25.7829 O   0  0  0  0  0  0  0  0  0  0  0  0
   26.4316   39.3136   26.0520 N   0  0  0  0  0  0  0  0  0  0  0  0
   26.2584   38.0395   25.5476 C   0  0  0  0  0  0  0  0  0  0  0  0
   26.7912   37.7108   24.3060 C   0  0  1  0  0  0  0  0  0  0  0  0
   25.6266   37.2019   26.1947 O   0  0  0  0  0  0  0  0  0  0  0  0
   27.1524   36.1151   22.5617 C   0  0  2  0  0  0  0  0  0  0  0  0
   26.6235   36.4388   23.7966 N   0  0  0  0  0  0  0  0  0  0  0  0
   26.9822   34.8289   22.0481 C   0  0  0  0  0  0  0  0  0  0  0  0
   27.5145   34.4913   20.8093 C   0  0  1  0  0  0  0  0  0  0  0  0
   27.3153   33.1018   20.2920 C   0  0  0  0  0  0  0  0  0  0  0  0
   28.2222   35.4510   20.0698 C   0  0  1  0  0  0  0  0  0  0  0  0
   28.8060   35.1290   18.7216 C   0  0  0  0  0  0  0  0  0  0  0  0
   28.3917   36.7331   20.5858 C   0  0  0  0  0  0  0  0  0  0  0  0
   27.8611   37.0722   21.8318 C   0  0  1  0  0  0  0  0  0  0  0  0
   27.4934   38.6706   23.5798 C   0  0  1  0  0  0  0  0  0  0  0  0
   28.0309   38.3479   22.3484 N   0  0  0  0  0  0  0  0  0  0  0  0
  1  2  1  6  0  0  0
  1  3  1  0  0  0  0
  1  4  2  0  0  0  0
  1  6  1  0  0  0  0
  5  6  1  0  0  0  0
  7  5  1  6  0  0  0
  7  8  1  0  0  0  0
  7  9  1  0  0  0  0
  9 10  1  1  0  0  0
  9 11  1  0  0  0  0
 11 12  1  6  0  0  0
 11 13  1  0  0  0  0
 13 31  1  0  0  0  0
 14 15  1  0  0  0  0
 15 16  2  0  0  0  0
 15 17  1  0  0  0  0
 17 18  1  0  0  0  0
 18 20  2  0  0  0  0
 19 18  1  6  0  0  0
 19 22  1  0  0  0  0
 19 30  1  0  0  0  0
 21 23  1  1  0  0  0
 21 29  1  0  0  0  0
 21 22  1  0  0  0  0
 23 24  1  0  0  0  0
 24 25  1  6  0  0  0
 24 26  1  0  0  0  0
 26 27  1  6  0  0  0
 26 28  1  0  0  0  0
 29 28  1  6  0  0  0
 29 31  1  0  0  0  0
 30 14  1  6  0  0  0
 30 31  1  0  0  0  0
M  CHG  1   3  -1
M  END
>  <CHROM.1>
176.27430095,-173.65746219,178.38145849,166.28486178,65.64296306,157.43923127
109.77469339,27.75509644,39.43150874,21.06796074,-0.50832758,-1.37494977
-2.97353864

>  <Name>
ligand

>  <RI>
0

>  <Rbt.Current_Directory>
/home/itssahil/PROJECTS/Mol_Feturizer/New_Systems/rnas/3F2T

>  <Rbt.Executable>
rbdock ($Id: //depot/dev/client3/rdock/2013.1/src/exe/rbdock.cxx#4 $)

>  <Rbt.Library>
libRbt.so (2013.1, Build901 2013/11/27)

>  <Rbt.Parameter_File>
/export/apps/rDock/src/rDock_2013.1_src/data/scripts/dock_solv.prm

>  <Rbt.Receptor>
prm/blind_docking_80.prm

>  <SCORE>
-29.0126

>  <SCORE.INTER>
-29.3551

>  <SCORE.INTER.CONST>
1

>  <SCORE.INTER.POLAR>
0

>  <SCORE.INTER.ROT>
7

>  <SCORE.INTER.SOLV>
22.6703

>  <SCORE.INTER.VDW>
-35.3935

>  <SCORE.INTER.norm>
-0.94694

>  <SCORE.INTRA>
0.342543

>  <SCORE.INTRA.DIHEDRAL>
-0.810935

>  <SCORE.INTRA.DIHEDRAL.0>
4.64198

>  <SCORE.INTRA.POLAR>
0

>  <SCORE.INTRA.POLAR.0>
0

>  <SCORE.INTRA.REPUL>
0

>  <SCORE.INTRA.REPUL.0>
0

>  <SCORE.INTRA.SOLV>
0.736004

>  <SCORE.INTRA.SOLV.lig_0>
-49.3611

>  <SCORE.INTRA.VDW>
0.380009

>  <SCORE.INTRA.VDW.0>
-1.91858

>  <SCORE.INTRA.norm>
0.0110498

>  <SCORE.RESTR>
0

>  <SCORE.RESTR.CAVITY>
0

>  <SCORE.RESTR.norm>
0

>  <SCORE.SYSTEM>
0

>  <SCORE.SYSTEM.CONST>
0

>  <SCORE.SYSTEM.DIHEDRAL>
0

>  <SCORE.SYSTEM.SOLV>
0

>  <SCORE.SYSTEM.norm>
0

>  <SCORE.heavy>
31

>  <SCORE.norm>
-0.93589

>  <RMSD>
5.250

$$$$
ligand
 OpenBabel11021811473D
libRbt.so/2013.1/901 2013/11/27
 31 33  0  0  0  0  0  0  0  0999 V2000
   24.5605   43.2446   17.8564 P   0  0  1  0  0  0  0  0  0  0  0  0
   23.5537   42.4587   18.6575 O   0  0  0  0  0  0  0  0  0  0  0  0
   24.4284   42.8610   16.4064 O   0  5  0  0  0  0  0  0  0  0  0  0
   24.2536   44.6983   18.0898 O   0  0  0  0  0  0  0  0  0  0  0  0
   26.6921   41.7273   18.0136 C   0  0  0  0  0  0  0  0  0  0  0  0
   26.0762   42.9641   18.3064 O   0  0  0  0  0  0  0  0  0  0  0  0
   28.1717   41.8034   18.3814 C   0  0  1  0  0  0  0  0  0  0  0  0
   28.6970   43.0563   17.9901 O   0  0  0  0  0  0  0  0  0  0  0  0
   28.3431   41.6421   19.8825 C   0  0  1  0  0  0  0  0  0  0  0  0
   27.6253   42.6626   20.5233 O   0  0  0  0  0  0  0  0  0  0  0  0
   27.8440   40.2985   20.3870 C   0  0  1  0  0  0  0  0  0  0  0  0
   27.8650   39.3919   19.3176 O   0  0  0  0  0  0  0  0  0  0  0  0
   28.7309   39.7749   21.5044 C   0  0  0  0  0  0  0  0  0  0  0  0
   27.6216   40.3676   24.0219 N   0  0  0  0  0  0  0  0  0  0  0  0
   27.1474   40.6921   25.2744 C   0  0  0  0  0  0  0  0  0  0  0  0
   27.2417   41.8435   25.6894 O   0  0  0  0  0  0  0  0  0  0  0  0
   26.5675   39.7316   26.0713 N   0  0  0  0  0  0  0  0  0  0  0  0
   26.4449   38.4330   25.6168 C   0  0  0  0  0  0  0  0  0  0  0  0
   26.9211   38.0960   24.3547 C   0  0  1  0  0  0  0  0  0  0  0  0
   25.9076   37.5806   26.3270 O   0  0  0  0  0  0  0  0  0  0  0  0
   27.2758   36.4676   22.6395 C   0  0  2  0  0  0  0  0  0  0  0  0
   26.8034   36.7997   23.8949 N   0  0  0  0  0  0  0  0  0  0  0  0
   27.1564   35.1570   22.1760 C   0  0  0  0  0  0  0  0  0  0  0  0
   27.6328   34.8111   20.9169 C   0  0  1  0  0  0  0  0  0  0  0  0
   27.4908   33.3954   20.4547 C   0  0  0  0  0  0  0  0  0  0  0  0
   28.2322   35.7869   20.1063 C   0  0  1  0  0  0  0  0  0  0  0  0
   28.7523   35.4561   18.7343 C   0  0  0  0  0  0  0  0  0  0  0  0
   28.3514   37.0936   20.5723 C   0  0  0  0  0  0  0  0  0  0  0  0
   27.8771   37.4413   21.8384 C   0  0  1  0  0  0  0  0  0  0  0  0
   27.5158   39.0721   23.5576 C   0  0  1  0  0  0  0  0  0  0  0  0
   27.9969   38.7416   22.3052 N   0  0  0  0  0  0  0  0  0  0  0  0
  1  2  1  1  0  0  0
  1  3  1  0  0  0  0
  1  4  2  0  0  0  0
  1  6  1  0  0  0  0
  5  6  1  0  0  0  0
  7  5  1  1  0  0  0
  7  8  1  0  0  0  0
  7  9  1  0  0  0  0
  9 10  1  1  0  0  0
  9 11  1  0  0  0  0
 11 12  1  6  0  0  0
 11 13  1  0  0  0  0
 13 31  1  0  0  0  0
 14 15  1  0  0  0  0
 15 16  2  0  0  0  0
 15 17  1  0  0  0  0
 17 18  1  0  0  0  0
 18 20  2  0  0  0  0
 19 18  1  6  0  0  0
 19 22  1  0  0  0  0
 19 30  1  0  0  0  0
 21 23  1  1  0  0  0
 21 29  1  0  0  0  0
 21 22  1  0  0  0  0
 23 24  1  0  0  0  0
 24 25  1  6  0  0  0
 24 26  1  0  0  0  0
 26 27  1  6  0  0  0
 26 28  1  0  0  0  0
 29 28  1  6  0  0  0
 29 31  1  0  0  0  0
 30 14  1  6  0  0  0
 30 31  1  0  0  0  0
M  CHG  1   3  -1
M  END
>  <CHROM.1>
172.37320312,71.43550062,-41.30377430,-59.08909462,23.48714721,160.10586538
79.29696353,26.93931890,39.77295165,21.05100304,2.42258900,1.29507116,-1.55881392

>  <Name>
ligand

>  <RI>
0

>  <Rbt.Current_Directory>
/home/itssahil/PROJECTS/Mol_Feturizer/New_Systems/rnas/3F2T

>  <Rbt.Executable>
rbdock ($Id: //depot/dev/client3/rdock/2013.1/src/exe/rbdock.cxx#4 $)

>  <Rbt.Library>
libRbt.so (2013.1, Build901 2013/11/27)

>  <Rbt.Parameter_File>
/export/apps/rDock/src/rDock_2013.1_src/data/scripts/dock_solv.prm

>  <Rbt.Receptor>
prm/blind_docking_60.prm

>  <SCORE>
-24.3117

>  <SCORE.INTER>
-27.8628

>  <SCORE.INTER.CONST>
1

>  <SCORE.INTER.POLAR>
0

>  <SCORE.INTER.ROT>
7

>  <SCORE.INTER.SOLV>
21.0421

>  <SCORE.INTER.VDW>
-33.8559

>  <SCORE.INTER.norm>
-0.8988

>  <SCORE.INTRA>
3.55107

>  <SCORE.INTRA.DIHEDRAL>
3.21411

>  <SCORE.INTRA.DIHEDRAL.0>
4.64198

>  <SCORE.INTRA.POLAR>
0

>  <SCORE.INTRA.POLAR.0>
0

>  <SCORE.INTRA.REPUL>
0

>  <SCORE.INTRA.REPUL.0>
0

>  <SCORE.INTRA.SOLV>
0.13764

>  <SCORE.INTRA.SOLV.lig_0>
-49.3611

>  <SCORE.INTRA.VDW>
1.87519

>  <SCORE.INTRA.VDW.0>
-1.91858

>  <SCORE.INTRA.norm>
0.114551

>  <SCORE.RESTR>
0

>  <SCORE.RESTR.CAVITY>
0

>  <SCORE.RESTR.norm>
0

>  <SCORE.SYSTEM>
0

>  <SCORE.SYSTEM.CONST>
0

>  <SCORE.SYSTEM.DIHEDRAL>
0

>  <SCORE.SYSTEM.SOLV>
0

>  <SCORE.SYSTEM.norm>
0

>  <SCORE.heavy>
31

>  <SCORE.norm>
-0.784249

>  <RMSD>
5.251

$$$$
ligand
 OpenBabel11021811473D
libRbt.so/2013.1/901 2013/11/27
 31 33  0  0  0  0  0  0  0  0999 V2000
   23.7133   43.1882   25.1686 P   0  0  1  0  0  0  0  0  0  0  0  0
   23.5860   42.4721   26.4893 O   0  0  0  0  0  0  0  0  0  0  0  0
   22.3375   43.3720   24.5851 O   0  5  0  0  0  0  0  0  0  0  0  0
   24.3885   44.5010   25.4560 O   0  0  0  0  0  0  0  0  0  0  0  0
   25.2908   43.0687   23.0787 C   0  0  0  0  0  0  0  0  0  0  0  0
   24.6000   42.3809   24.1008 O   0  0  0  0  0  0  0  0  0  0  0  0
   26.2200   42.0957   22.3576 C   0  0  1  0  0  0  0  0  0  0  0  0
   25.4989   41.3943   21.3642 O   0  0  0  0  0  0  0  0  0  0  0  0
   27.3585   42.8559   21.6985 C   0  0  1  0  0  0  0  0  0  0  0  0
   28.1841   43.3787   22.7046 O   0  0  0  0  0  0  0  0  0  0  0  0
   28.1950   41.9780   20.7829 C   0  0  1  0  0  0  0  0  0  0  0  0
   28.8659   42.8062   19.8718 O   0  0  0  0  0  0  0  0  0  0  0  0
   29.2149   41.1805   21.5788 C   0  0  0  0  0  0  0  0  0  0  0  0
   29.6406   39.2580   19.5681 N   0  0  0  0  0  0  0  0  0  0  0  0
   29.8216   38.3694   18.5306 C   0  0  0  0  0  0  0  0  0  0  0  0
   30.4400   38.7119   17.5271 O   0  0  0  0  0  0  0  0  0  0  0  0
   29.3107   37.0938   18.6074 N   0  0  0  0  0  0  0  0  0  0  0  0
   28.6202   36.6885   19.7329 C   0  0  0  0  0  0  0  0  0  0  0  0
   28.4320   37.5785   20.7845 C   0  0  1  0  0  0  0  0  0  0  0  0
   28.1808   35.5390   19.8047 O   0  0  0  0  0  0  0  0  0  0  0  0
   27.5570   38.0663   22.9562 C   0  0  2  0  0  0  0  0  0  0  0  0
   27.7412   37.1806   21.9116 N   0  0  0  0  0  0  0  0  0  0  0  0
   26.8585   37.6629   24.0947 C   0  0  0  0  0  0  0  0  0  0  0  0
   26.6631   38.5474   25.1489 C   0  0  1  0  0  0  0  0  0  0  0  0
   25.9063   38.0811   26.3522 C   0  0  0  0  0  0  0  0  0  0  0  0
   27.1756   39.8510   25.0690 C   0  0  1  0  0  0  0  0  0  0  0  0
   26.9940   40.8358   26.1913 C   0  0  0  0  0  0  0  0  0  0  0  0
   27.8708   40.2511   23.9308 C   0  0  0  0  0  0  0  0  0  0  0  0
   28.0641   39.3650   22.8696 C   0  0  1  0  0  0  0  0  0  0  0  0
   28.9439   38.8713   20.6952 C   0  0  1  0  0  0  0  0  0  0  0  0
   28.7542   39.7623   21.7342 N   0  0  0  0  0  0  0  0  0  0  0  0
  1  2  1  1  0  0  0
  1  3  1  0  0  0  0
  1  4  2  0  0  0  0
  1  6  1  0  0  0  0
  5  6  1  0  0  0  0
  7  5  1  6  0  0  0
  7  8  1  0  0  0  0
  7  9  1  0  0  0  0
  9 10  1  1  0  0  0
  9 11  1  0  0  0  0
 11 12  1  6  0  0  0
 11 13  1  0  0  0  0
 13 31  1  0  0  0  0
 14 15  1  0  0  0  0
 15 16  2  0  0  0  0
 15 17  1  0  0  0  0
 17 18  1  0  0  0  0
 18 20  2  0  0  0  0
 19 18  1  1  0  0  0
 19 22  1  0  0  0  0
 19 30  1  0  0  0  0
 21 23  1  6  0  0  0
 21 29  1  0  0  0  0
 21 22  1  0  0  0  0
 23 24  1  0  0  0  0
 24 25  1  1  0  0  0
 24 26  1  0  0  0  0
 26 27  1  1  0  0  0
 26 28  1  0  0  0  0
 29 28  1  1  0  0  0
 29 31  1  0  0  0  0
 30 14  1  1  0  0  0
 30 31  1  0  0  0  0
M  CHG  1   3  -1
M  END
>  <CHROM.1>
170.95566045,-153.22919116,83.95284313,68.52254083,158.45993459,102.64001727
-94.96224797,27.02817524,40.43302474,22.54073367,-2.87082551,-0.95888094
2.75387164

>  <Name>
ligand

>  <RI>
0

>  <Rbt.Current_Directory>
/home/itssahil/PROJECTS/Mol_Feturizer/New_Systems/rnas/3F2T

>  <Rbt.Executable>
rbdock ($Id: //depot/dev/client3/rdock/2013.1/src/exe/rbdock.cxx#4 $)

>  <Rbt.Library>
libRbt.so (2013.1, Build901 2013/11/27)

>  <Rbt.Parameter_File>
/export/apps/rDock/src/rDock_2013.1_src/data/scripts/dock_solv.prm

>  <Rbt.Receptor>
prm/pocket_docking_8.prm

>  <SCORE>
-18.0091

>  <SCORE.INTER>
-19.8164

>  <SCORE.INTER.CONST>
1

>  <SCORE.INTER.POLAR>
0

>  <SCORE.INTER.ROT>
7

>  <SCORE.INTER.SOLV>
19.2706

>  <SCORE.INTER.VDW>
-27.9011

>  <SCORE.INTER.norm>
-0.639239

>  <SCORE.INTRA>
1.80733

>  <SCORE.INTRA.DIHEDRAL>
5.67521

>  <SCORE.INTRA.DIHEDRAL.0>
4.64198

>  <SCORE.INTRA.POLAR>
0

>  <SCORE.INTRA.POLAR.0>
0

>  <SCORE.INTRA.REPUL>
0

>  <SCORE.INTRA.REPUL.0>
0

>  <SCORE.INTRA.SOLV>
0.0410383

>  <SCORE.INTRA.SOLV.lig_0>
-49.3611

>  <SCORE.INTRA.VDW>
-1.05079

>  <SCORE.INTRA.VDW.0>
-1.91858

>  <SCORE.INTRA.norm>
0.0583009

>  <SCORE.RESTR>
0

>  <SCORE.RESTR.CAVITY>
0

>  <SCORE.RESTR.norm>
0

>  <SCORE.SYSTEM>
0

>  <SCORE.SYSTEM.CONST>
0

>  <SCORE.SYSTEM.DIHEDRAL>
0

>  <SCORE.SYSTEM.SOLV>
0

>  <SCORE.SYSTEM.norm>
0

>  <SCORE.heavy>
31

>  <SCORE.norm>
-0.580938

>  <RMSD>
5.251

$$$$
ligand
 OpenBabel11021811473D
libRbt.so/2013.1/901 2013/11/27
 31 33  0  0  0  0  0  0  0  0999 V2000
   29.0019   42.0500   16.5343 P   0  0  1  0  0  0  0  0  0  0  0  0
   28.2993   43.0385   15.6385 O   0  0  0  0  0  0  0  0  0  0  0  0
   28.3540   40.7014   16.3661 O   0  5  0  0  0  0  0  0  0  0  0  0
   30.4463   42.0426   16.1149 O   0  0  0  0  0  0  0  0  0  0  0  0
   27.6730   42.5652   18.7341 C   0  0  0  0  0  0  0  0  0  0  0  0
   28.9235   42.4464   18.0883 O   0  0  0  0  0  0  0  0  0  0  0  0
   27.8983   42.8198   20.2222 C   0  0  1  0  0  0  0  0  0  0  0  0
   26.6574   42.8203   20.8997 O   0  0  0  0  0  0  0  0  0  0  0  0
   28.7813   41.7309   20.8081 C   0  0  1  0  0  0  0  0  0  0  0  0
   29.2153   42.1456   22.0757 O   0  0  0  0  0  0  0  0  0  0  0  0
   28.0571   40.4023   20.9468 C   0  0  1  0  0  0  0  0  0  0  0  0
   27.7757   39.9185   19.6612 O   0  0  0  0  0  0  0  0  0  0  0  0
   28.9170   39.3900   21.6852 C   0  0  0  0  0  0  0  0  0  0  0  0
   27.6695   39.9446   24.1461 N   0  0  0  0  0  0  0  0  0  0  0  0
   27.1285   40.2439   25.3776 C   0  0  0  0  0  0  0  0  0  0  0  0
   27.2778   41.3625   25.8605 O   0  0  0  0  0  0  0  0  0  0  0  0
   26.4196   39.2944   26.0775 N   0  0  0  0  0  0  0  0  0  0  0  0
   26.2340   38.0334   25.5452 C   0  0  0  0  0  0  0  0  0  0  0  0
   26.7769   37.7220   24.3036 C   0  0  1  0  0  0  0  0  0  0  0  0
   25.5823   37.1924   26.1678 O   0  0  0  0  0  0  0  0  0  0  0  0
   27.1358   36.1566   22.5315 C   0  0  2  0  0  0  0  0  0  0  0  0
   26.5968   36.4631   23.7665 N   0  0  0  0  0  0  0  0  0  0  0  0
   26.9531   34.8837   21.9899 C   0  0  0  0  0  0  0  0  0  0  0  0
   27.4953   34.5633   20.7508 C   0  0  1  0  0  0  0  0  0  0  0  0
   27.2822   33.1876   20.2030 C   0  0  0  0  0  0  0  0  0  0  0  0
   28.2257   35.5272   20.0394 C   0  0  1  0  0  0  0  0  0  0  0  0
   28.8210   35.2238   18.6918 C   0  0  0  0  0  0  0  0  0  0  0  0
   28.4076   36.7960   20.5833 C   0  0  0  0  0  0  0  0  0  0  0  0
   27.8671   37.1177   21.8296 C   0  0  1  0  0  0  0  0  0  0  0  0
   27.5016   38.6858   23.6054 C   0  0  1  0  0  0  0  0  0  0  0  0
   28.0492   38.3800   22.3741 N   0  0  0  0  0  0  0  0  0  0  0  0
  1  2  1  6  0  0  0
  1  3  1  0  0  0  0
  1  4  2  0  0  0  0
  1  6  1  0  0  0  0
  5  6  1  0  0  0  0
  7  5  1  6  0  0  0
  7  8  1  0  0  0  0
  7  9  1  0  0  0  0
  9 10  1  1  0  0  0
  9 11  1  0  0  0  0
 11 12  1  6  0  0  0
 11 13  1  0  0  0  0
 13 31  1  0  0  0  0
 14 15  1  0  0  0  0
 15 16  2  0  0  0  0
 15 17  1  0  0  0  0
 17 18  1  0  0  0  0
 18 20  2  0  0  0  0
 19 18  1  6  0  0  0
 19 22  1  0  0  0  0
 19 30  1  0  0  0  0
 21 23  1  1  0  0  0
 21 29  1  0  0  0  0
 21 22  1  0  0  0  0
 23 24  1  0  0  0  0
 24 25  1  6  0  0  0
 24 26  1  0  0  0  0
 26 27  1  6  0  0  0
 26 28  1  0  0  0  0
 29 28  1  6  0  0  0
 29 31  1  0  0  0  0
 30 14  1  6  0  0  0
 30 31  1  0  0  0  0
M  CHG  1   3  -1
M  END
>  <CHROM.1>
174.74783011,60.25873239,-174.74614662,166.79785447,66.91780399,153.36041706
101.85779998,27.86138530,39.37850905,21.04798030,-0.37327484,-1.32950757
-2.89735985

>  <Name>
ligand

>  <RI>
0

>  <Rbt.Current_Directory>
/home/itssahil/PROJECTS/Mol_Feturizer/New_Systems/rnas/3F2T

>  <Rbt.Executable>
rbdock ($Id: //depot/dev/client3/rdock/2013.1/src/exe/rbdock.cxx#4 $)

>  <Rbt.Library>
libRbt.so (2013.1, Build901 2013/11/27)

>  <Rbt.Parameter_File>
/export/apps/rDock/src/rDock_2013.1_src/data/scripts/dock_solv.prm

>  <Rbt.Receptor>
prm/pocket_docking_8.prm

>  <SCORE>
-28.7616

>  <SCORE.INTER>
-29.2655

>  <SCORE.INTER.CONST>
1

>  <SCORE.INTER.POLAR>
0

>  <SCORE.INTER.ROT>
7

>  <SCORE.INTER.SOLV>
22.808

>  <SCORE.INTER.VDW>
-35.3796

>  <SCORE.INTER.norm>
-0.944047

>  <SCORE.INTRA>
0.503895

>  <SCORE.INTRA.DIHEDRAL>
-0.117326

>  <SCORE.INTRA.DIHEDRAL.0>
4.64198

>  <SCORE.INTRA.POLAR>
0

>  <SCORE.INTRA.POLAR.0>
0

>  <SCORE.INTRA.REPUL>
0

>  <SCORE.INTRA.REPUL.0>
0

>  <SCORE.INTRA.SOLV>
0.567408

>  <SCORE.INTRA.SOLV.lig_0>
-49.3611

>  <SCORE.INTRA.VDW>
0.278854

>  <SCORE.INTRA.VDW.0>
-1.91858

>  <SCORE.INTRA.norm>
0.0162547

>  <SCORE.RESTR>
0

>  <SCORE.RESTR.CAVITY>
0

>  <SCORE.RESTR.norm>
0

>  <SCORE.SYSTEM>
0

>  <SCORE.SYSTEM.CONST>
0

>  <SCORE.SYSTEM.DIHEDRAL>
0

>  <SCORE.SYSTEM.SOLV>
0

>  <SCORE.SYSTEM.norm>
0

>  <SCORE.heavy>
31

>  <SCORE.norm>
-0.927792

>  <RMSD>
5.260

$$$$
ligand
 OpenBabel11021811473D
libRbt.so/2013.1/901 2013/11/27
 31 33  0  0  0  0  0  0  0  0999 V2000
   27.2433   42.9363   16.5253 P   0  0  1  0  0  0  0  0  0  0  0  0
   26.0381   42.8997   15.6200 O   0  0  0  0  0  0  0  0  0  0  0  0
   28.0658   41.6986   16.2833 O   0  5  0  0  0  0  0  0  0  0  0  0
   27.9958   44.1937   16.1868 O   0  0  0  0  0  0  0  0  0  0  0  0
   25.8315   42.1454   18.5873 C   0  0  0  0  0  0  0  0  0  0  0  0
   26.8561   42.9766   18.0830 O   0  0  0  0  0  0  0  0  0  0  0  0
   25.7892   42.2666   20.1084 C   0  0  1  0  0  0  0  0  0  0  0  0
   24.6741   41.5589   20.6128 O   0  0  0  0  0  0  0  0  0  0  0  0
   27.0575   41.6864   20.7115 C   0  0  1  0  0  0  0  0  0  0  0  0
   27.0870   42.0077   22.0765 O   0  0  0  0  0  0  0  0  0  0  0  0
   27.1395   40.1768   20.5599 C   0  0  1  0  0  0  0  0  0  0  0  0
   27.4115   39.8838   19.2160 O   0  0  0  0  0  0  0  0  0  0  0  0
   28.2451   39.6032   21.4307 C   0  0  0  0  0  0  0  0  0  0  0  0
   27.3254   40.3420   23.9858 N   0  0  0  0  0  0  0  0  0  0  0  0
   26.9424   40.7449   25.2466 C   0  0  0  0  0  0  0  0  0  0  0  0
   26.9750   41.9341   25.5495 O   0  0  0  0  0  0  0  0  0  0  0  0
   26.5233   39.8215   26.1769 N   0  0  0  0  0  0  0  0  0  0  0  0
   26.4716   38.4804   25.8503 C   0  0  0  0  0  0  0  0  0  0  0  0
   26.8568   38.0643   24.5807 C   0  0  1  0  0  0  0  0  0  0  0  0
   26.0775   37.6593   26.6810 O   0  0  0  0  0  0  0  0  0  0  0  0
   27.1910   36.3144   22.9852 C   0  0  2  0  0  0  0  0  0  0  0  0
   26.8095   36.7253   24.2481 N   0  0  0  0  0  0  0  0  0  0  0  0
   27.1428   34.9607   22.6504 C   0  0  0  0  0  0  0  0  0  0  0  0
   27.5292   34.5360   21.3846 C   0  0  1  0  0  0  0  0  0  0  0  0
   27.4678   33.0765   21.0623 C   0  0  0  0  0  0  0  0  0  0  0  0
   27.9652   35.4750   20.4374 C   0  0  1  0  0  0  0  0  0  0  0  0
   28.3833   35.0581   19.0541 C   0  0  0  0  0  0  0  0  0  0  0  0
   28.0137   36.8249   20.7751 C   0  0  0  0  0  0  0  0  0  0  0  0
   27.6299   37.2521   22.0475 C   0  0  1  0  0  0  0  0  0  0  0  0
   27.2893   39.0043   23.6475 C   0  0  1  0  0  0  0  0  0  0  0  0
   27.6797   38.5960   22.3864 N   0  0  0  0  0  0  0  0  0  0  0  0
  1  2  1  6  0  0  0
  1  3  1  0  0  0  0
  1  4  2  0  0  0  0
  1  6  1  0  0  0  0
  5  6  1  0  0  0  0
  7  5  1  6  0  0  0
  7  8  1  0  0  0  0
  7  9  1  0  0  0  0
  9 10  1  1  0  0  0
  9 11  1  0  0  0  0
 11 12  1  6  0  0  0
 11 13  1  0  0  0  0
 13 31  1  0  0  0  0
 14 15  1  0  0  0  0
 15 16  2  0  0  0  0
 15 17  1  0  0  0  0
 17 18  1  0  0  0  0
 18 20  2  0  0  0  0
 19 18  1  6  0  0  0
 19 22  1  0  0  0  0
 19 30  1  0  0  0  0
 21 23  1  1  0  0  0
 21 29  1  0  0  0  0
 21 22  1  0  0  0  0
 23 24  1  0  0  0  0
 24 25  1  6  0  0  0
 24 26  1  0  0  0  0
 26 27  1  6  0  0  0
 26 28  1  0  0  0  0
 29 28  1  6  0  0  0
 29 31  1  0  0  0  0
 30 14  1  6  0  0  0
 30 31  1  0  0  0  0
M  CHG  1   3  -1
M  END
>  <CHROM.1>
173.33878943,43.32923653,173.43238421,170.47579961,72.77819217,121.68238177
91.72032934,27.07870866,39.60777766,21.13351974,-1.62160675,-1.39496259,2.21620370

>  <Name>
ligand

>  <RI>
0

>  <Rbt.Current_Directory>
/home/itssahil/PROJECTS/Mol_Feturizer/New_Systems/rnas/3F2T

>  <Rbt.Executable>
rbdock ($Id: //depot/dev/client3/rdock/2013.1/src/exe/rbdock.cxx#4 $)

>  <Rbt.Library>
libRbt.so (2013.1, Build901 2013/11/27)

>  <Rbt.Parameter_File>
/export/apps/rDock/src/rDock_2013.1_src/data/scripts/dock_solv.prm

>  <Rbt.Receptor>
prm/pocket_docking_7.prm

>  <SCORE>
-25.0897

>  <SCORE.INTER>
-27.6804

>  <SCORE.INTER.CONST>
1

>  <SCORE.INTER.POLAR>
0

>  <SCORE.INTER.ROT>
7

>  <SCORE.INTER.SOLV>
21.5813

>  <SCORE.INTER.VDW>
-33.914

>  <SCORE.INTER.norm>
-0.892916

>  <SCORE.INTRA>
2.59066

>  <SCORE.INTRA.DIHEDRAL>
3.70957

>  <SCORE.INTRA.DIHEDRAL.0>
4.64198

>  <SCORE.INTRA.POLAR>
0

>  <SCORE.INTRA.POLAR.0>
0

>  <SCORE.INTRA.REPUL>
0

>  <SCORE.INTRA.REPUL.0>
0

>  <SCORE.INTRA.SOLV>
0.663243

>  <SCORE.INTRA.SOLV.lig_0>
-49.3611

>  <SCORE.INTRA.VDW>
0.404252

>  <SCORE.INTRA.VDW.0>
-1.91858

>  <SCORE.INTRA.norm>
0.0835697

>  <SCORE.RESTR>
0

>  <SCORE.RESTR.CAVITY>
0

>  <SCORE.RESTR.norm>
0

>  <SCORE.SYSTEM>
0

>  <SCORE.SYSTEM.CONST>
0

>  <SCORE.SYSTEM.DIHEDRAL>
0

>  <SCORE.SYSTEM.SOLV>
0

>  <SCORE.SYSTEM.norm>
0

>  <SCORE.heavy>
31

>  <SCORE.norm>
-0.809346

>  <RMSD>
5.265

$$$$
ligand
 OpenBabel11021811473D
libRbt.so/2013.1/901 2013/11/27
 31 33  0  0  0  0  0  0  0  0999 V2000
   26.5691   43.1487   16.8400 P   0  0  1  0  0  0  0  0  0  0  0  0
   26.2190   41.6848   16.7526 O   0  0  0  0  0  0  0  0  0  0  0  0
   26.5081   43.7425   15.4577 O   0  5  0  0  0  0  0  0  0  0  0  0
   25.5678   43.7742   17.7717 O   0  0  0  0  0  0  0  0  0  0  0  0
   28.6034   42.5177   18.3677 C   0  0  0  0  0  0  0  0  0  0  0  0
   28.0419   43.4071   17.4251 O   0  0  0  0  0  0  0  0  0  0  0  0
   27.9607   42.7592   19.7311 C   0  0  1  0  0  0  0  0  0  0  0  0
   26.6024   42.3687   19.6945 O   0  0  0  0  0  0  0  0  0  0  0  0
   28.6801   41.9482   20.7958 C   0  0  1  0  0  0  0  0  0  0  0  0
   28.4560   42.5531   22.0413 O   0  0  0  0  0  0  0  0  0  0  0  0
   28.2017   40.5073   20.8560 C   0  0  1  0  0  0  0  0  0  0  0  0
   28.3866   39.9293   19.5920 O   0  0  0  0  0  0  0  0  0  0  0  0
   28.9891   39.7166   21.8877 C   0  0  0  0  0  0  0  0  0  0  0  0
   27.7333   40.2274   24.3538 N   0  0  0  0  0  0  0  0  0  0  0  0
   27.1884   40.5037   25.5890 C   0  0  0  0  0  0  0  0  0  0  0  0
   27.3492   41.6082   26.1000 O   0  0  0  0  0  0  0  0  0  0  0  0
   26.4627   39.5469   26.2612 N   0  0  0  0  0  0  0  0  0  0  0  0
   26.2641   38.3018   25.6970 C   0  0  0  0  0  0  0  0  0  0  0  0
   26.8108   38.0137   24.4514 C   0  0  1  0  0  0  0  0  0  0  0  0
   25.5975   37.4545   26.2948 O   0  0  0  0  0  0  0  0  0  0  0  0
   27.1605   36.4874   22.6438 C   0  0  2  0  0  0  0  0  0  0  0  0
   26.6177   36.7707   23.8826 N   0  0  0  0  0  0  0  0  0  0  0  0
   26.9647   35.2307   22.0700 C   0  0  0  0  0  0  0  0  0  0  0  0
   27.5105   34.9334   20.8268 C   0  0  1  0  0  0  0  0  0  0  0  0
   27.2830   33.5745   20.2442 C   0  0  0  0  0  0  0  0  0  0  0  0
   28.2580   35.9046   20.1436 C   0  0  1  0  0  0  0  0  0  0  0  0
   28.8578   35.6264   18.7927 C   0  0  0  0  0  0  0  0  0  0  0  0
   28.4530   37.1572   20.7196 C   0  0  0  0  0  0  0  0  0  0  0  0
   27.9088   37.4555   21.9701 C   0  0  1  0  0  0  0  0  0  0  0  0
   27.5524   38.9845   23.7814 C   0  0  1  0  0  0  0  0  0  0  0  0
   28.1038   38.7018   22.5464 N   0  0  0  0  0  0  0  0  0  0  0  0
  1  2  1  6  0  0  0
  1  3  1  0  0  0  0
  1  4  2  0  0  0  0
  1  6  1  0  0  0  0
  5  6  1  0  0  0  0
  7  5  1  6  0  0  0
  7  8  1  0  0  0  0
  7  9  1  0  0  0  0
  9 10  1  1  0  0  0
  9 11  1  0  0  0  0
 11 12  1  6  0  0  0
 11 13  1  0  0  0  0
 13 31  1  0  0  0  0
 14 15  1  0  0  0  0
 15 16  2  0  0  0  0
 15 17  1  0  0  0  0
 17 18  1  0  0  0  0
 18 20  2  0  0  0  0
 19 18  1  6  0  0  0
 19 22  1  0  0  0  0
 19 30  1  0  0  0  0
 21 23  1  1  0  0  0
 21 29  1  0  0  0  0
 21 22  1  0  0  0  0
 23 24  1  0  0  0  0
 24 25  1  6  0  0  0
 24 26  1  0  0  0  0
 26 27  1  6  0  0  0
 26 28  1  0  0  0  0
 29 28  1  6  0  0  0
 29 31  1  0  0  0  0
 30 14  1  6  0  0  0
 30 31  1  0  0  0  0
M  CHG  1   3  -1
M  END
>  <CHROM.1>
-75.63976327,-31.32179770,67.75962030,156.96726990,57.57154623,145.45269414
85.54726732,27.39408371,39.79376754,21.11769776,-1.63824017,-1.48344371,2.21498523

>  <Name>
ligand

>  <RI>
0

>  <Rbt.Current_Directory>
/home/itssahil/PROJECTS/Mol_Feturizer/New_Systems/rnas/3F2T

>  <Rbt.Executable>
rbdock ($Id: //depot/dev/client3/rdock/2013.1/src/exe/rbdock.cxx#4 $)

>  <Rbt.Library>
libRbt.so (2013.1, Build901 2013/11/27)

>  <Rbt.Parameter_File>
/export/apps/rDock/src/rDock_2013.1_src/data/scripts/dock_solv.prm

>  <Rbt.Receptor>
prm/pocket_docking_5.prm

>  <SCORE>
-26.5472

>  <SCORE.INTER>
-29.7788

>  <SCORE.INTER.CONST>
1

>  <SCORE.INTER.POLAR>
0

>  <SCORE.INTER.ROT>
7

>  <SCORE.INTER.SOLV>
19.2019

>  <SCORE.INTER.VDW>
-34.5198

>  <SCORE.INTER.norm>
-0.960606

>  <SCORE.INTRA>
3.23157

>  <SCORE.INTRA.DIHEDRAL>
4.13213

>  <SCORE.INTRA.DIHEDRAL.0>
4.64198

>  <SCORE.INTRA.POLAR>
0

>  <SCORE.INTRA.POLAR.0>
0

>  <SCORE.INTRA.REPUL>
0

>  <SCORE.INTRA.REPUL.0>
0

>  <SCORE.INTRA.SOLV>
2.15959

>  <SCORE.INTRA.SOLV.lig_0>
-49.3611

>  <SCORE.INTRA.VDW>
0.0857163

>  <SCORE.INTRA.VDW.0>
-1.91858

>  <SCORE.INTRA.norm>
0.104244

>  <SCORE.RESTR>
0

>  <SCORE.RESTR.CAVITY>
0

>  <SCORE.RESTR.norm>
0

>  <SCORE.SYSTEM>
0

>  <SCORE.SYSTEM.CONST>
0

>  <SCORE.SYSTEM.DIHEDRAL>
0

>  <SCORE.SYSTEM.SOLV>
0

>  <SCORE.SYSTEM.norm>
0

>  <SCORE.heavy>
31

>  <SCORE.norm>
-0.856362

>  <RMSD>
5.267

$$$$
ligand
 OpenBabel11021811473D
libRbt.so/2013.1/901 2013/11/27
 31 33  0  0  0  0  0  0  0  0999 V2000
   24.6650   33.1547   17.6361 P   0  0  1  0  0  0  0  0  0  0  0  0
   24.0221   32.5488   18.8579 O   0  0  0  0  0  0  0  0  0  0  0  0
   25.8272   32.2907   17.2241 O   0  5  0  0  0  0  0  0  0  0  0  0
   23.5991   33.2162   16.5767 O   0  0  0  0  0  0  0  0  0  0  0  0
   25.7294   35.4066   16.8198 C   0  0  0  0  0  0  0  0  0  0  0  0
   25.2184   34.6404   17.8906 O   0  0  0  0  0  0  0  0  0  0  0  0
   26.0602   36.8105   17.3197 C   0  0  1  0  0  0  0  0  0  0  0  0
   24.9544   37.3393   18.0243 O   0  0  0  0  0  0  0  0  0  0  0  0
   27.2615   36.7618   18.2488 C   0  0  1  0  0  0  0  0  0  0  0  0
   28.2661   35.9989   17.6356 O   0  0  0  0  0  0  0  0  0  0  0  0
   27.8145   38.1418   18.5624 C   0  0  1  0  0  0  0  0  0  0  0  0
   26.7631   38.9400   19.0350 O   0  0  0  0  0  0  0  0  0  0  0  0
   28.8993   38.0634   19.6239 C   0  0  0  0  0  0  0  0  0  0  0  0
   28.1113   35.6216   20.7800 N   0  0  0  0  0  0  0  0  0  0  0  0
   27.6894   34.4078   21.2774 C   0  0  0  0  0  0  0  0  0  0  0  0
   27.9044   33.3760   20.6481 O   0  0  0  0  0  0  0  0  0  0  0  0
   27.0229   34.3401   22.4796 N   0  0  0  0  0  0  0  0  0  0  0  0
   26.7805   35.4900   23.2054 C   0  0  0  0  0  0  0  0  0  0  0  0
   27.2018   36.7194   22.7110 C   0  0  1  0  0  0  0  0  0  0  0  0
   26.1998   35.4219   24.2906 O   0  0  0  0  0  0  0  0  0  0  0  0
   27.3825   39.0933   22.9379 C   0  0  2  0  0  0  0  0  0  0  0  0
   26.9612   37.8729   23.4304 N   0  0  0  0  0  0  0  0  0  0  0  0
   27.1386   40.2584   23.6659 C   0  0  0  0  0  0  0  0  0  0  0  0
   27.5535   41.4917   23.1772 C   0  0  1  0  0  0  0  0  0  0  0  0
   27.2715   42.7200   23.9834 C   0  0  0  0  0  0  0  0  0  0  0  0
   28.2255   41.5639   21.9477 C   0  0  1  0  0  0  0  0  0  0  0  0
   28.6990   42.8773   21.3881 C   0  0  0  0  0  0  0  0  0  0  0  0
   28.4660   40.3997   21.2228 C   0  0  0  0  0  0  0  0  0  0  0  0
   28.0460   39.1609   21.7105 C   0  0  1  0  0  0  0  0  0  0  0  0
   27.8675   36.7808   21.4885 C   0  0  1  0  0  0  0  0  0  0  0  0
   28.2826   38.0005   20.9889 N   0  0  0  0  0  0  0  0  0  0  0  0
  1  2  1  1  0  0  0
  1  3  1  0  0  0  0
  1  4  2  0  0  0  0
  1  6  1  0  0  0  0
  5  6  1  0  0  0  0
  7  5  1  1  0  0  0
  7  8  1  0  0  0  0
  7  9  1  0  0  0  0
  9 10  1  6  0  0  0
  9 11  1  0  0  0  0
 11 12  1  1  0  0  0
 11 13  1  0  0  0  0
 13 31  1  0  0  0  0
 14 15  1  0  0  0  0
 15 16  2  0  0  0  0
 15 17  1  0  0  0  0
 17 18  1  0  0  0  0
 18 20  2  0  0  0  0
 19 18  1  1  0  0  0
 19 22  1  0  0  0  0
 19 30  1  0  0  0  0
 21 23  1  6  0  0  0
 21 29  1  0  0  0  0
 21 22  1  0  0  0  0
 23 24  1  0  0  0  0
 24 25  1  1  0  0  0
 24 26  1  0  0  0  0
 26 27  1  1  0  0  0
 26 28  1  0  0  0  0
 29 28  1  1  0  0  0
 29 31  1  0  0  0  0
 30 14  1  1  0  0  0
 30 31  1  0  0  0  0
M  CHG  1   3  -1
M  END
>  <CHROM.1>
174.78641154,-173.63726739,-50.19214057,48.00865575,53.13792478,-81.93822843
-91.65087946,26.80717585,36.78521530,20.25010546,3.14146658,1.27147646,2.16430340

>  <Name>
ligand

>  <RI>
0

>  <Rbt.Current_Directory>
/home/itssahil/PROJECTS/Mol_Feturizer/New_Systems/rnas/3F2T

>  <Rbt.Executable>
rbdock ($Id: //depot/dev/client3/rdock/2013.1/src/exe/rbdock.cxx#4 $)

>  <Rbt.Library>
libRbt.so (2013.1, Build901 2013/11/27)

>  <Rbt.Parameter_File>
/export/apps/rDock/src/rDock_2013.1_src/data/scripts/dock_solv.prm

>  <Rbt.Receptor>
prm/blind_docking_100.prm

>  <SCORE>
-26.0204

>  <SCORE.INTER>
-25.5756

>  <SCORE.INTER.CONST>
1

>  <SCORE.INTER.POLAR>
0

>  <SCORE.INTER.ROT>
7

>  <SCORE.INTER.SOLV>
15.698

>  <SCORE.INTER.VDW>
-30.5498

>  <SCORE.INTER.norm>
-0.82502

>  <SCORE.INTRA>
-0.444815

>  <SCORE.INTRA.DIHEDRAL>
-0.801254

>  <SCORE.INTRA.DIHEDRAL.0>
4.64198

>  <SCORE.INTRA.POLAR>
0

>  <SCORE.INTRA.POLAR.0>
0

>  <SCORE.INTRA.REPUL>
0

>  <SCORE.INTRA.REPUL.0>
0

>  <SCORE.INTRA.SOLV>
0.735721

>  <SCORE.INTRA.SOLV.lig_0>
-49.3611

>  <SCORE.INTRA.VDW>
-0.412049

>  <SCORE.INTRA.VDW.0>
-1.91858

>  <SCORE.INTRA.norm>
-0.0143489

>  <SCORE.RESTR>
0

>  <SCORE.RESTR.CAVITY>
0

>  <SCORE.RESTR.norm>
0

>  <SCORE.SYSTEM>
0

>  <SCORE.SYSTEM.CONST>
0

>  <SCORE.SYSTEM.DIHEDRAL>
0

>  <SCORE.SYSTEM.SOLV>
0

>  <SCORE.SYSTEM.norm>
0

>  <SCORE.heavy>
31

>  <SCORE.norm>
-0.839369

>  <RMSD>
5.283

$$$$
ligand
 OpenBabel11021811473D
libRbt.so/2013.1/901 2013/11/27
 31 33  0  0  0  0  0  0  0  0999 V2000
   26.5893   42.4242   22.5897 P   0  0  1  0  0  0  0  0  0  0  0  0
   25.9077   43.2369   23.6612 O   0  0  0  0  0  0  0  0  0  0  0  0
   27.9125   43.0659   22.2662 O   0  5  0  0  0  0  0  0  0  0  0  0
   26.7517   41.0352   23.1432 O   0  0  0  0  0  0  0  0  0  0  0  0
   25.8864   41.2328   20.3633 C   0  0  0  0  0  0  0  0  0  0  0  0
   25.7367   42.3364   21.2319 O   0  0  0  0  0  0  0  0  0  0  0  0
   27.0529   41.4951   19.4142 C   0  0  1  0  0  0  0  0  0  0  0  0
   27.4778   42.8376   19.5396 O   0  0  0  0  0  0  0  0  0  0  0  0
   28.2142   40.5751   19.7512 C   0  0  1  0  0  0  0  0  0  0  0  0
   28.6197   40.8366   21.0682 O   0  0  0  0  0  0  0  0  0  0  0  0
   27.8492   39.1049   19.6320 C   0  0  1  0  0  0  0  0  0  0  0  0
   27.4146   38.8646   18.3208 O   0  0  0  0  0  0  0  0  0  0  0  0
   29.0493   38.2218   19.9311 C   0  0  0  0  0  0  0  0  0  0  0  0
   27.8859   37.1304   22.2495 N   0  0  0  0  0  0  0  0  0  0  0  0
   27.3744   36.6298   23.4271 C   0  0  0  0  0  0  0  0  0  0  0  0
   27.1765   37.3780   24.3799 O   0  0  0  0  0  0  0  0  0  0  0  0
   27.0834   35.2901   23.5476 N   0  0  0  0  0  0  0  0  0  0  0  0
   27.2911   34.4354   22.4826 C   0  0  0  0  0  0  0  0  0  0  0  0
   27.8076   34.9313   21.2907 C   0  0  1  0  0  0  0  0  0  0  0  0
   27.0111   33.2397   22.5895 O   0  0  0  0  0  0  0  0  0  0  0  0
   28.5310   34.5778   19.0388 C   0  0  2  0  0  0  0  0  0  0  0  0
   28.0194   34.0823   20.2229 N   0  0  0  0  0  0  0  0  0  0  0  0
   28.7448   33.7186   17.9603 C   0  0  0  0  0  0  0  0  0  0  0  0
   29.2638   34.2056   16.7665 C   0  0  1  0  0  0  0  0  0  0  0  0
   29.4831   33.2545   15.6328 C   0  0  0  0  0  0  0  0  0  0  0  0
   29.5693   35.5696   16.6444 C   0  0  1  0  0  0  0  0  0  0  0  0
   30.1239   36.1383   15.3671 C   0  0  0  0  0  0  0  0  0  0  0  0
   29.3565   36.4242   17.7228 C   0  0  0  0  0  0  0  0  0  0  0  0
   28.8391   35.9354   18.9239 C   0  0  1  0  0  0  0  0  0  0  0  0
   28.1088   36.2872   21.1797 C   0  0  1  0  0  0  0  0  0  0  0  0
   28.6286   36.7845   19.9999 N   0  0  0  0  0  0  0  0  0  0  0  0
  1  2  1  1  0  0  0
  1  3  1  0  0  0  0
  1  4  2  0  0  0  0
  1  6  1  0  0  0  0
  5  6  1  0  0  0  0
  7  5  1  1  0  0  0
  7  8  1  0  0  0  0
  7  9  1  0  0  0  0
  9 10  1  1  0  0  0
  9 11  1  0  0  0  0
 11 12  1  6  0  0  0
 11 13  1  0  0  0  0
 13 31  1  0  0  0  0
 14 15  1  0  0  0  0
 15 16  2  0  0  0  0
 15 17  1  0  0  0  0
 17 18  1  0  0  0  0
 18 20  2  0  0  0  0
 19 18  1  6  0  0  0
 19 22  1  0  0  0  0
 19 30  1  0  0  0  0
 21 23  1  1  0  0  0
 21 29  1  0  0  0  0
 21 22  1  0  0  0  0
 23 24  1  0  0  0  0
 24 25  1  6  0  0  0
 24 26  1  0  0  0  0
 26 27  1  6  0  0  0
 26 28  1  0  0  0  0
 29 28  1  6  0  0  0
 29 31  1  0  0  0  0
 30 14  1  6  0  0  0
 30 31  1  0  0  0  0
M  CHG  1   3  -1
M  END
>  <CHROM.1>
-86.05127247,-153.17730332,-9.80271549,-60.49107174,58.24085645,172.01717016
100.53178919,27.79827262,38.14076830,20.49540528,2.39075671,1.24701322,-0.35437525

>  <Name>
ligand

>  <RI>
0

>  <Rbt.Current_Directory>
/home/itssahil/PROJECTS/Mol_Feturizer/New_Systems/rnas/3F2T

>  <Rbt.Executable>
rbdock ($Id: //depot/dev/client3/rdock/2013.1/src/exe/rbdock.cxx#4 $)

>  <Rbt.Library>
libRbt.so (2013.1, Build901 2013/11/27)

>  <Rbt.Parameter_File>
/export/apps/rDock/src/rDock_2013.1_src/data/scripts/dock_solv.prm

>  <Rbt.Receptor>
prm/pocket_docking_4.prm

>  <SCORE>
-15.5358

>  <SCORE.INTER>
-21.9823

>  <SCORE.INTER.CONST>
1

>  <SCORE.INTER.POLAR>
0

>  <SCORE.INTER.ROT>
7

>  <SCORE.INTER.SOLV>
14.8309

>  <SCORE.INTER.VDW>
-27.8652

>  <SCORE.INTER.norm>
-0.709107

>  <SCORE.INTRA>
6.44053

>  <SCORE.INTRA.DIHEDRAL>
5.67781

>  <SCORE.INTRA.DIHEDRAL.0>
4.64198

>  <SCORE.INTRA.POLAR>
0

>  <SCORE.INTRA.POLAR.0>
0

>  <SCORE.INTRA.REPUL>
0

>  <SCORE.INTRA.REPUL.0>
0

>  <SCORE.INTRA.SOLV>
6.70941

>  <SCORE.INTRA.SOLV.lig_0>
-49.3611

>  <SCORE.INTRA.VDW>
0.246917

>  <SCORE.INTRA.VDW.0>
-1.91858

>  <SCORE.INTRA.norm>
0.207759

>  <SCORE.RESTR>
0.00601437

>  <SCORE.RESTR.CAVITY>
0.00601437

>  <SCORE.RESTR.norm>
0.000194012

>  <SCORE.SYSTEM>
0

>  <SCORE.SYSTEM.CONST>
0

>  <SCORE.SYSTEM.DIHEDRAL>
0

>  <SCORE.SYSTEM.SOLV>
0

>  <SCORE.SYSTEM.norm>
0

>  <SCORE.heavy>
31

>  <SCORE.norm>
-0.501154

>  <RMSD>
5.307

$$$$
ligand
 OpenBabel11021811473D
libRbt.so/2013.1/901 2013/11/27
 31 33  0  0  0  0  0  0  0  0999 V2000
   32.7565   33.9229   15.5635 P   0  0  1  0  0  0  0  0  0  0  0  0
   32.2031   33.0217   16.6382 O   0  0  0  0  0  0  0  0  0  0  0  0
   34.1764   34.2785   15.9163 O   0  5  0  0  0  0  0  0  0  0  0  0
   32.6668   33.1560   14.2728 O   0  0  0  0  0  0  0  0  0  0  0  0
   31.9079   36.2393   16.4493 C   0  0  0  0  0  0  0  0  0  0  0  0
   31.9290   35.2896   15.4040 O   0  0  0  0  0  0  0  0  0  0  0  0
   31.0029   37.4029   16.0527 C   0  0  1  0  0  0  0  0  0  0  0  0
   29.6665   36.9539   15.9474 O   0  0  0  0  0  0  0  0  0  0  0  0
   31.0753   38.4989   17.1025 C   0  0  1  0  0  0  0  0  0  0  0  0
   30.2428   39.5538   16.7009 O   0  0  0  0  0  0  0  0  0  0  0  0
   30.6364   38.0221   18.4769 C   0  0  1  0  0  0  0  0  0  0  0  0
   31.0863   38.9487   19.4282 O   0  0  0  0  0  0  0  0  0  0  0  0
   29.1224   37.9178   18.5571 C   0  0  0  0  0  0  0  0  0  0  0  0
   28.6467   35.1616   18.8683 N   0  0  0  0  0  0  0  0  0  0  0  0
   28.3693   33.8146   18.9548 C   0  0  0  0  0  0  0  0  0  0  0  0
   28.5479   33.0855   17.9836 O   0  0  0  0  0  0  0  0  0  0  0  0
   27.8886   33.2751   20.1260 N   0  0  0  0  0  0  0  0  0  0  0  0
   27.6904   34.0791   21.2315 C   0  0  0  0  0  0  0  0  0  0  0  0
   27.9668   35.4396   21.1535 C   0  0  1  0  0  0  0  0  0  0  0  0
   27.2775   33.5877   22.2839 O   0  0  0  0  0  0  0  0  0  0  0  0
   28.0465   37.6008   22.1746 C   0  0  2  0  0  0  0  0  0  0  0  0
   27.7693   36.2493   22.2540 N   0  0  0  0  0  0  0  0  0  0  0  0
   27.8462   38.4181   23.2875 C   0  0  0  0  0  0  0  0  0  0  0  0
   28.1169   39.7796   23.2169 C   0  0  1  0  0  0  0  0  0  0  0  0
   27.8869   40.6256   24.4291 C   0  0  0  0  0  0  0  0  0  0  0  0
   28.5989   40.3332   22.0212 C   0  0  1  0  0  0  0  0  0  0  0  0
   28.9127   41.7996   21.9058 C   0  0  0  0  0  0  0  0  0  0  0  0
   28.7961   39.5153   20.9117 C   0  0  0  0  0  0  0  0  0  0  0  0
   28.5206   38.1484   20.9802 C   0  0  1  0  0  0  0  0  0  0  0  0
   28.4441   35.9801   19.9612 C   0  0  1  0  0  0  0  0  0  0  0  0
   28.7142   37.3325   19.8756 N   0  0  0  0  0  0  0  0  0  0  0  0
  1  2  1  1  0  0  0
  1  3  1  0  0  0  0
  1  4  2  0  0  0  0
  1  6  1  0  0  0  0
  5  6  1  0  0  0  0
  7  5  1  1  0  0  0
  7  8  1  0  0  0  0
  7  9  1  0  0  0  0
  9 10  1  6  0  0  0
  9 11  1  0  0  0  0
 11 12  1  1  0  0  0
 11 13  1  0  0  0  0
 13 31  1  0  0  0  0
 14 15  1  0  0  0  0
 15 16  2  0  0  0  0
 15 17  1  0  0  0  0
 17 18  1  0  0  0  0
 18 20  2  0  0  0  0
 19 18  1  1  0  0  0
 19 22  1  0  0  0  0
 19 30  1  0  0  0  0
 21 23  1  6  0  0  0
 21 29  1  0  0  0  0
 21 22  1  0  0  0  0
 23 24  1  0  0  0  0
 24 25  1  1  0  0  0
 24 26  1  0  0  0  0
 26 27  1  1  0  0  0
 26 28  1  0  0  0  0
 29 28  1  1  0  0  0
 29 31  1  0  0  0  0
 30 14  1  1  0  0  0
 30 31  1  0  0  0  0
M  CHG  1   3  -1
M  END
>  <CHROM.1>
-177.57766858,65.52667235,65.70950631,179.50186398,163.43849225,175.02814900
87.55204818,29.78265833,36.51636993,19.00659352,-0.72481990,0.92970689,0.24472851

>  <Name>
ligand

>  <RI>
0

>  <Rbt.Current_Directory>
/home/itssahil/PROJECTS/Mol_Feturizer/New_Systems/rnas/3F2T

>  <Rbt.Executable>
rbdock ($Id: //depot/dev/client3/rdock/2013.1/src/exe/rbdock.cxx#4 $)

>  <Rbt.Library>
libRbt.so (2013.1, Build901 2013/11/27)

>  <Rbt.Parameter_File>
/export/apps/rDock/src/rDock_2013.1_src/data/scripts/dock_solv.prm

>  <Rbt.Receptor>
prm/blind_docking_100.prm

>  <SCORE>
-21.6579

>  <SCORE.INTER>
-21.4178

>  <SCORE.INTER.CONST>
1

>  <SCORE.INTER.POLAR>
0

>  <SCORE.INTER.ROT>
7

>  <SCORE.INTER.SOLV>
12.6294

>  <SCORE.INTER.VDW>
-26.755

>  <SCORE.INTER.norm>
-0.690896

>  <SCORE.INTRA>
-0.240093

>  <SCORE.INTRA.DIHEDRAL>
-2.07771

>  <SCORE.INTRA.DIHEDRAL.0>
4.64198

>  <SCORE.INTRA.POLAR>
0

>  <SCORE.INTRA.POLAR.0>
0

>  <SCORE.INTRA.REPUL>
0

>  <SCORE.INTRA.REPUL.0>
0

>  <SCORE.INTRA.SOLV>
-0.377342

>  <SCORE.INTRA.SOLV.lig_0>
-49.3611

>  <SCORE.INTRA.VDW>
0.987434

>  <SCORE.INTRA.VDW.0>
-1.91858

>  <SCORE.INTRA.norm>
-0.00774492

>  <SCORE.RESTR>
0

>  <SCORE.RESTR.CAVITY>
0

>  <SCORE.RESTR.norm>
0

>  <SCORE.SYSTEM>
0

>  <SCORE.SYSTEM.CONST>
0

>  <SCORE.SYSTEM.DIHEDRAL>
0

>  <SCORE.SYSTEM.SOLV>
0

>  <SCORE.SYSTEM.norm>
0

>  <SCORE.heavy>
31

>  <SCORE.norm>
-0.698641

>  <RMSD>
5.311

$$$$
ligand
 OpenBabel11021811473D
libRbt.so/2013.1/901 2013/11/27
 31 33  0  0  0  0  0  0  0  0999 V2000
   25.9947   43.5471   16.3116 P   0  0  1  0  0  0  0  0  0  0  0  0
   26.9671   42.7406   15.4886 O   0  0  0  0  0  0  0  0  0  0  0  0
   26.6281   44.8715   16.6457 O   0  5  0  0  0  0  0  0  0  0  0  0
   24.7541   43.7053   15.4762 O   0  0  0  0  0  0  0  0  0  0  0  0
   26.5883   42.4754   18.6288 C   0  0  0  0  0  0  0  0  0  0  0  0
   25.5936   42.8284   17.6903 O   0  0  0  0  0  0  0  0  0  0  0  0
   25.9233   41.8686   19.8616 C   0  0  1  0  0  0  0  0  0  0  0  0
   25.2526   40.6765   19.5041 O   0  0  0  0  0  0  0  0  0  0  0  0
   26.9718   41.5498   20.9140 C   0  0  1  0  0  0  0  0  0  0  0  0
   26.3160   41.2431   22.1152 O   0  0  0  0  0  0  0  0  0  0  0  0
   27.8551   40.3769   20.5228 C   0  0  1  0  0  0  0  0  0  0  0  0
   28.6738   40.7789   19.4578 O   0  0  0  0  0  0  0  0  0  0  0  0
   28.7280   39.9425   21.6885 C   0  0  0  0  0  0  0  0  0  0  0  0
   27.7072   40.5413   24.2418 N   0  0  0  0  0  0  0  0  0  0  0  0
   27.2772   40.8683   25.5095 C   0  0  0  0  0  0  0  0  0  0  0  0
   27.3930   42.0188   25.9214 O   0  0  0  0  0  0  0  0  0  0  0  0
   26.7177   39.9112   26.3249 N   0  0  0  0  0  0  0  0  0  0  0  0
   26.5712   38.6138   25.8744 C   0  0  0  0  0  0  0  0  0  0  0  0
   27.0028   38.2743   24.5970 C   0  0  1  0  0  0  0  0  0  0  0  0
   26.0522   37.7646   26.6017 O   0  0  0  0  0  0  0  0  0  0  0  0
   27.2892   36.6444   22.8704 C   0  0  2  0  0  0  0  0  0  0  0  0
   26.8612   36.9790   24.1409 N   0  0  0  0  0  0  0  0  0  0  0  0
   27.1456   35.3349   22.4107 C   0  0  0  0  0  0  0  0  0  0  0  0
   27.5774   34.9865   21.1363 C   0  0  1  0  0  0  0  0  0  0  0  0
   27.4106   33.5720   20.6787 C   0  0  0  0  0  0  0  0  0  0  0  0
   28.1561   35.9587   20.3066 C   0  0  1  0  0  0  0  0  0  0  0  0
   28.6280   35.6251   18.9179 C   0  0  0  0  0  0  0  0  0  0  0  0
   28.2996   37.2643   20.7687 C   0  0  0  0  0  0  0  0  0  0  0  0
   27.8700   37.6145   22.0500 C   0  0  1  0  0  0  0  0  0  0  0  0
   27.5772   39.2467   23.7809 C   0  0  1  0  0  0  0  0  0  0  0  0
   28.0141   38.9137   22.5130 N   0  0  0  0  0  0  0  0  0  0  0  0
  1  2  1  6  0  0  0
  1  3  1  0  0  0  0
  1  4  2  0  0  0  0
  1  6  1  0  0  0  0
  5  6  1  0  0  0  0
  7  5  1  6  0  0  0
  7  8  1  0  0  0  0
  7  9  1  0  0  0  0
  9 10  1  1  0  0  0
  9 11  1  0  0  0  0
 11 12  1  6  0  0  0
 11 13  1  0  0  0  0
 13 31  1  0  0  0  0
 14 15  1  0  0  0  0
 15 16  2  0  0  0  0
 15 17  1  0  0  0  0
 17 18  1  0  0  0  0
 18 20  2  0  0  0  0
 19 18  1  6  0  0  0
 19 22  1  0  0  0  0
 19 30  1  0  0  0  0
 21 23  1  1  0  0  0
 21 29  1  0  0  0  0
 21 22  1  0  0  0  0
 23 24  1  0  0  0  0
 24 25  1  6  0  0  0
 24 26  1  0  0  0  0
 26 27  1  6  0  0  0
 26 28  1  0  0  0  0
 29 28  1  6  0  0  0
 29 31  1  0  0  0  0
 30 14  1  6  0  0  0
 30 31  1  0  0  0  0
M  CHG  1   3  -1
M  END
>  <CHROM.1>
177.55666819,57.80412242,63.07497627,168.68642487,69.70176858,89.23324139
73.97164828,27.00952516,39.87290114,21.06324408,2.28224465,1.38436729,-1.61461391

>  <Name>
ligand

>  <RI>
0

>  <Rbt.Current_Directory>
/home/itssahil/PROJECTS/Mol_Feturizer/New_Systems/rnas/3F2T

>  <Rbt.Executable>
rbdock ($Id: //depot/dev/client3/rdock/2013.1/src/exe/rbdock.cxx#4 $)

>  <Rbt.Library>
libRbt.so (2013.1, Build901 2013/11/27)

>  <Rbt.Parameter_File>
/export/apps/rDock/src/rDock_2013.1_src/data/scripts/dock_solv.prm

>  <Rbt.Receptor>
prm/pocket_docking_5.prm

>  <SCORE>
-27.7168

>  <SCORE.INTER>
-28.1073

>  <SCORE.INTER.CONST>
1

>  <SCORE.INTER.POLAR>
0

>  <SCORE.INTER.ROT>
7

>  <SCORE.INTER.SOLV>
20.0207

>  <SCORE.INTER.VDW>
-33.6784

>  <SCORE.INTER.norm>
-0.906687

>  <SCORE.INTRA>
0.382276

>  <SCORE.INTRA.DIHEDRAL>
0.055948

>  <SCORE.INTRA.DIHEDRAL.0>
4.64198

>  <SCORE.INTRA.POLAR>
0

>  <SCORE.INTRA.POLAR.0>
0

>  <SCORE.INTRA.REPUL>
0

>  <SCORE.INTRA.REPUL.0>
0

>  <SCORE.INTRA.SOLV>
-0.243854

>  <SCORE.INTRA.SOLV.lig_0>
-49.3611

>  <SCORE.INTRA.VDW>
0.476229

>  <SCORE.INTRA.VDW.0>
-1.91858

>  <SCORE.INTRA.norm>
0.0123315

>  <SCORE.RESTR>
0.00822498

>  <SCORE.RESTR.CAVITY>
0.00822498

>  <SCORE.RESTR.norm>
0.000265322

>  <SCORE.SYSTEM>
0

>  <SCORE.SYSTEM.CONST>
0

>  <SCORE.SYSTEM.DIHEDRAL>
0

>  <SCORE.SYSTEM.SOLV>
0

>  <SCORE.SYSTEM.norm>
0

>  <SCORE.heavy>
31

>  <SCORE.norm>
-0.89409

>  <RMSD>
5.328

$$$$
ligand
 OpenBabel11021811473D
libRbt.so/2013.1/901 2013/11/27
 31 33  0  0  0  0  0  0  0  0999 V2000
   32.7986   35.9308   16.6937 P   0  0  1  0  0  0  0  0  0  0  0  0
   31.6759   35.0585   17.1956 O   0  0  0  0  0  0  0  0  0  0  0  0
   33.8029   36.1090   17.8012 O   0  5  0  0  0  0  0  0  0  0  0  0
   33.3868   35.2285   15.5009 O   0  0  0  0  0  0  0  0  0  0  0  0
   31.0759   37.9064   16.7038 C   0  0  0  0  0  0  0  0  0  0  0  0
   32.3034   37.3879   16.2355 O   0  0  0  0  0  0  0  0  0  0  0  0
   31.1830   38.1741   18.2028 C   0  0  1  0  0  0  0  0  0  0  0  0
   32.1057   39.2195   18.4364 O   0  0  0  0  0  0  0  0  0  0  0  0
   29.8270   38.5783   18.7568 C   0  0  1  0  0  0  0  0  0  0  0  0
   29.3787   39.7061   18.0538 O   0  0  0  0  0  0  0  0  0  0  0  0
   28.7904   37.4748   18.6283 C   0  0  1  0  0  0  0  0  0  0  0  0
   29.2998   36.3197   19.2383 O   0  0  0  0  0  0  0  0  0  0  0  0
   27.4907   37.8691   19.3102 C   0  0  0  0  0  0  0  0  0  0  0  0
   27.3589   35.7535   21.1615 N   0  0  0  0  0  0  0  0  0  0  0  0
   27.2259   34.6954   22.0341 C   0  0  0  0  0  0  0  0  0  0  0  0
   27.0144   33.5653   21.6040 O   0  0  0  0  0  0  0  0  0  0  0  0
   27.3259   34.8943   23.3922 N   0  0  0  0  0  0  0  0  0  0  0  0
   27.5727   36.1576   23.8931 C   0  0  0  0  0  0  0  0  0  0  0  0
   27.7077   37.2315   23.0203 C   0  0  1  0  0  0  0  0  0  0  0  0
   27.6802   36.3272   25.1094 O   0  0  0  0  0  0  0  0  0  0  0  0
   28.0882   39.5626   22.6447 C   0  0  2  0  0  0  0  0  0  0  0  0
   27.9526   38.4972   23.5142 N   0  0  0  0  0  0  0  0  0  0  0  0
   28.3356   40.8413   23.1453 C   0  0  0  0  0  0  0  0  0  0  0  0
   28.4686   41.9207   22.2798 C   0  0  1  0  0  0  0  0  0  0  0  0
   28.7298   43.2778   22.8526 C   0  0  0  0  0  0  0  0  0  0  0  0
   28.3583   41.7216   20.8953 C   0  0  1  0  0  0  0  0  0  0  0  0
   28.5047   42.8611   19.9245 C   0  0  0  0  0  0  0  0  0  0  0  0
   28.1097   40.4447   20.3990 C   0  0  0  0  0  0  0  0  0  0  0  0
   27.9718   39.3604   21.2675 C   0  0  1  0  0  0  0  0  0  0  0  0
   27.5954   37.0237   21.6471 C   0  0  1  0  0  0  0  0  0  0  0  0
   27.7220   38.0883   20.7752 N   0  0  0  0  0  0  0  0  0  0  0  0
  1  2  1  1  0  0  0
  1  3  1  0  0  0  0
  1  4  2  0  0  0  0
  1  6  1  0  0  0  0
  5  6  1  0  0  0  0
  7  5  1  6  0  0  0
  7  8  1  0  0  0  0
  7  9  1  0  0  0  0
  9 10  1  6  0  0  0
  9 11  1  0  0  0  0
 11 12  1  1  0  0  0
 11 13  1  0  0  0  0
 13 31  1  0  0  0  0
 14 15  1  0  0  0  0
 15 16  2  0  0  0  0
 15 17  1  0  0  0  0
 17 18  1  0  0  0  0
 18 20  2  0  0  0  0
 19 18  1  6  0  0  0
 19 22  1  0  0  0  0
 19 30  1  0  0  0  0
 21 23  1  1  0  0  0
 21 29  1  0  0  0  0
 21 22  1  0  0  0  0
 23 24  1  0  0  0  0
 24 25  1  6  0  0  0
 24 26  1  0  0  0  0
 26 27  1  6  0  0  0
 26 28  1  0  0  0  0
 29 28  1  6  0  0  0
 29 31  1  0  0  0  0
 30 14  1  6  0  0  0
 30 31  1  0  0  0  0
M  CHG  1   3  -1
M  END
>  <CHROM.1>
67.66741251,20.64651052,66.65973242,-57.28309648,54.77881968,-61.60202765
94.81963133,29.43499918,37.82098076,20.07049777,0.29595498,-0.90901898,-3.13817328

>  <Name>
ligand

>  <RI>
0

>  <Rbt.Current_Directory>
/home/itssahil/PROJECTS/Mol_Feturizer/New_Systems/rnas/3F2T

>  <Rbt.Executable>
rbdock ($Id: //depot/dev/client3/rdock/2013.1/src/exe/rbdock.cxx#4 $)

>  <Rbt.Library>
libRbt.so (2013.1, Build901 2013/11/27)

>  <Rbt.Parameter_File>
/export/apps/rDock/src/rDock_2013.1_src/data/scripts/dock_solv.prm

>  <Rbt.Receptor>
prm/pocket_docking_8.prm

>  <SCORE>
-24.7711

>  <SCORE.INTER>
-24.7357

>  <SCORE.INTER.CONST>
1

>  <SCORE.INTER.POLAR>
0

>  <SCORE.INTER.ROT>
7

>  <SCORE.INTER.SOLV>
17.5978

>  <SCORE.INTER.VDW>
-30.6231

>  <SCORE.INTER.norm>
-0.797926

>  <SCORE.INTRA>
-0.0354168

>  <SCORE.INTRA.DIHEDRAL>
-0.917693

>  <SCORE.INTRA.DIHEDRAL.0>
4.64198

>  <SCORE.INTRA.POLAR>
0

>  <SCORE.INTRA.POLAR.0>
0

>  <SCORE.INTRA.REPUL>
0

>  <SCORE.INTRA.REPUL.0>
0

>  <SCORE.INTRA.SOLV>
1.39176

>  <SCORE.INTRA.SOLV.lig_0>
-49.3611

>  <SCORE.INTRA.VDW>
-0.272448

>  <SCORE.INTRA.VDW.0>
-1.91858

>  <SCORE.INTRA.norm>
-0.00114248

>  <SCORE.RESTR>
0

>  <SCORE.RESTR.CAVITY>
0

>  <SCORE.RESTR.norm>
0

>  <SCORE.SYSTEM>
0

>  <SCORE.SYSTEM.CONST>
0

>  <SCORE.SYSTEM.DIHEDRAL>
0

>  <SCORE.SYSTEM.SOLV>
0

>  <SCORE.SYSTEM.norm>
0

>  <SCORE.heavy>
31

>  <SCORE.norm>
-0.799068

>  <RMSD>
5.332

$$$$
ligand
 OpenBabel11021811473D
libRbt.so/2013.1/901 2013/11/27
 31 33  0  0  0  0  0  0  0  0999 V2000
   26.0191   43.5360   16.3531 P   0  0  1  0  0  0  0  0  0  0  0  0
   26.5822   44.9226   16.5363 O   0  0  0  0  0  0  0  0  0  0  0  0
   24.7769   43.6278   15.5073 O   0  5  0  0  0  0  0  0  0  0  0  0
   27.0964   42.7195   15.6937 O   0  0  0  0  0  0  0  0  0  0  0  0
   26.6129   42.5422   18.7048 C   0  0  0  0  0  0  0  0  0  0  0  0
   25.6222   42.8323   17.7407 O   0  0  0  0  0  0  0  0  0  0  0  0
   25.9638   41.8464   19.8984 C   0  0  1  0  0  0  0  0  0  0  0  0
   25.3832   40.6264   19.4821 O   0  0  0  0  0  0  0  0  0  0  0  0
   27.0084   41.5590   20.9637 C   0  0  1  0  0  0  0  0  0  0  0  0
   26.3480   41.1919   22.1453 O   0  0  0  0  0  0  0  0  0  0  0  0
   27.9588   40.4426   20.5646 C   0  0  1  0  0  0  0  0  0  0  0  0
   28.7761   40.9110   19.5261 O   0  0  0  0  0  0  0  0  0  0  0  0
   28.8301   40.0262   21.7380 C   0  0  0  0  0  0  0  0  0  0  0  0
   27.8637   40.6441   24.3079 N   0  0  0  0  0  0  0  0  0  0  0  0
   27.4612   40.9795   25.5824 C   0  0  0  0  0  0  0  0  0  0  0  0
   27.6016   42.1288   25.9902 O   0  0  0  0  0  0  0  0  0  0  0  0
   26.9018   40.0323   26.4093 N   0  0  0  0  0  0  0  0  0  0  0  0
   26.7279   38.7365   25.9637 C   0  0  0  0  0  0  0  0  0  0  0  0
   27.1317   38.3886   24.6794 C   0  0  1  0  0  0  0  0  0  0  0  0
   26.2091   37.8963   26.7016 O   0  0  0  0  0  0  0  0  0  0  0  0
   27.3629   36.7520   22.9509 C   0  0  2  0  0  0  0  0  0  0  0  0
   26.9625   37.0949   24.2283 N   0  0  0  0  0  0  0  0  0  0  0  0
   27.1915   35.4441   22.4962 C   0  0  0  0  0  0  0  0  0  0  0  0
   27.5954   35.0873   21.2150 C   0  0  1  0  0  0  0  0  0  0  0  0
   27.3992   33.6748   20.7629 C   0  0  0  0  0  0  0  0  0  0  0  0
   28.1739   36.0494   20.3734 C   0  0  1  0  0  0  0  0  0  0  0  0
   28.6160   35.7067   18.9772 C   0  0  0  0  0  0  0  0  0  0  0  0
   28.3451   37.3534   20.8306 C   0  0  0  0  0  0  0  0  0  0  0  0
   27.9437   37.7119   22.1187 C   0  0  1  0  0  0  0  0  0  0  0  0
   27.7061   39.3510   23.8516 C   0  0  1  0  0  0  0  0  0  0  0  0
   28.1155   39.0096   22.5768 N   0  0  0  0  0  0  0  0  0  0  0  0
  1  2  1  1  0  0  0
  1  3  1  0  0  0  0
  1  4  2  0  0  0  0
  1  6  1  0  0  0  0
  5  6  1  0  0  0  0
  7  5  1  6  0  0  0
  7  8  1  0  0  0  0
  7  9  1  0  0  0  0
  9 10  1  1  0  0  0
  9 11  1  0  0  0  0
 11 12  1  6  0  0  0
 11 13  1  0  0  0  0
 13 31  1  0  0  0  0
 14 15  1  0  0  0  0
 15 16  2  0  0  0  0
 15 17  1  0  0  0  0
 17 18  1  0  0  0  0
 18 20  2  0  0  0  0
 19 18  1  6  0  0  0
 19 22  1  0  0  0  0
 19 30  1  0  0  0  0
 21 23  1  1  0  0  0
 21 29  1  0  0  0  0
 21 22  1  0  0  0  0
 23 24  1  0  0  0  0
 24 25  1  6  0  0  0
 24 26  1  0  0  0  0
 26 27  1  6  0  0  0
 26 28  1  0  0  0  0
 29 28  1  6  0  0  0
 29 31  1  0  0  0  0
 30 14  1  6  0  0  0
 30 31  1  0  0  0  0
M  CHG  1   3  -1
M  END
>  <CHROM.1>
-178.49371321,-63.54300228,61.58893019,167.43582677,69.81549362,85.43040463
72.35826193,27.08732490,39.93439177,21.12336930,2.39828222,1.39514193,-1.75108868

>  <Name>
ligand

>  <RI>
0

>  <Rbt.Current_Directory>
/home/itssahil/PROJECTS/Mol_Feturizer/New_Systems/rnas/3F2T

>  <Rbt.Executable>
rbdock ($Id: //depot/dev/client3/rdock/2013.1/src/exe/rbdock.cxx#4 $)

>  <Rbt.Library>
libRbt.so (2013.1, Build901 2013/11/27)

>  <Rbt.Parameter_File>
/export/apps/rDock/src/rDock_2013.1_src/data/scripts/dock_solv.prm

>  <Rbt.Receptor>
prm/pocket_docking_8.prm

>  <SCORE>
-27.5106

>  <SCORE.INTER>
-27.5751

>  <SCORE.INTER.CONST>
1

>  <SCORE.INTER.POLAR>
0

>  <SCORE.INTER.ROT>
7

>  <SCORE.INTER.SOLV>
19.9825

>  <SCORE.INTER.VDW>
-33.3109

>  <SCORE.INTER.norm>
-0.889519

>  <SCORE.INTRA>
0.0645227

>  <SCORE.INTRA.DIHEDRAL>
-0.389173

>  <SCORE.INTRA.DIHEDRAL.0>
4.64198

>  <SCORE.INTRA.POLAR>
0

>  <SCORE.INTRA.POLAR.0>
0

>  <SCORE.INTRA.REPUL>
0

>  <SCORE.INTRA.REPUL.0>
0

>  <SCORE.INTRA.SOLV>
-0.202944

>  <SCORE.INTRA.SOLV.lig_0>
-49.3611

>  <SCORE.INTRA.VDW>
0.360581

>  <SCORE.INTRA.VDW.0>
-1.91858

>  <SCORE.INTRA.norm>
0.00208138

>  <SCORE.RESTR>
0

>  <SCORE.RESTR.CAVITY>
0

>  <SCORE.RESTR.norm>
0

>  <SCORE.SYSTEM>
0

>  <SCORE.SYSTEM.CONST>
0

>  <SCORE.SYSTEM.DIHEDRAL>
0

>  <SCORE.SYSTEM.SOLV>
0

>  <SCORE.SYSTEM.norm>
0

>  <SCORE.heavy>
31

>  <SCORE.norm>
-0.887438

>  <RMSD>
5.342

$$$$
ligand
 OpenBabel11021811473D
libRbt.so/2013.1/901 2013/11/27
 31 33  0  0  0  0  0  0  0  0999 V2000
   24.6213   43.4249   17.4478 P   0  0  1  0  0  0  0  0  0  0  0  0
   24.4078   44.8054   18.0152 O   0  0  0  0  0  0  0  0  0  0  0  0
   23.7021   42.4652   18.1557 O   0  5  0  0  0  0  0  0  0  0  0  0
   24.3241   43.5154   15.9763 O   0  0  0  0  0  0  0  0  0  0  0  0
   26.6411   42.6419   18.9236 C   0  0  0  0  0  0  0  0  0  0  0  0
   26.1263   42.8968   17.6333 O   0  0  0  0  0  0  0  0  0  0  0  0
   28.0932   42.1868   18.8042 C   0  0  1  0  0  0  0  0  0  0  0  0
   28.8768   43.2291   18.2579 O   0  0  0  0  0  0  0  0  0  0  0  0
   28.6388   41.8244   20.1753 C   0  0  1  0  0  0  0  0  0  0  0  0
   28.4564   42.9216   21.0297 O   0  0  0  0  0  0  0  0  0  0  0  0
   27.9484   40.6122   20.7776 C   0  0  1  0  0  0  0  0  0  0  0  0
   27.7024   39.6905   19.7500 O   0  0  0  0  0  0  0  0  0  0  0  0
   28.8224   39.9601   21.8360 C   0  0  0  0  0  0  0  0  0  0  0  0
   27.6897   40.4859   24.3580 N   0  0  0  0  0  0  0  0  0  0  0  0
   27.2049   40.7744   25.6152 C   0  0  0  0  0  0  0  0  0  0  0  0
   27.3294   41.9042   26.0790 O   0  0  0  0  0  0  0  0  0  0  0  0
   26.5803   39.8019   26.3623 N   0  0  0  0  0  0  0  0  0  0  0  0
   26.4233   38.5278   25.8525 C   0  0  0  0  0  0  0  0  0  0  0  0
   26.9099   38.2271   24.5852 C   0  0  1  0  0  0  0  0  0  0  0  0
   25.8464   37.6654   26.5181 O   0  0  0  0  0  0  0  0  0  0  0  0
   27.2409   36.6594   22.8098 C   0  0  2  0  0  0  0  0  0  0  0  0
   26.7581   36.9553   24.0702 N   0  0  0  0  0  0  0  0  0  0  0  0
   27.0869   35.3735   22.2905 C   0  0  0  0  0  0  0  0  0  0  0  0
   27.5734   35.0637   21.0259 C   0  0  1  0  0  0  0  0  0  0  0  0
   27.3933   33.6736   20.5032 C   0  0  0  0  0  0  0  0  0  0  0  0
   28.2182   36.0514   20.2661 C   0  0  1  0  0  0  0  0  0  0  0  0
   28.7508   35.7599   18.8900 C   0  0  0  0  0  0  0  0  0  0  0  0
   28.3718   37.3333   20.7876 C   0  0  0  0  0  0  0  0  0  0  0  0
   27.8873   37.6444   22.0594 C   0  0  1  0  0  0  0  0  0  0  0  0
   27.5498   39.2146   23.8388 C   0  0  1  0  0  0  0  0  0  0  0  0
   28.0414   38.9199   22.5815 N   0  0  0  0  0  0  0  0  0  0  0  0
  1  2  1  1  0  0  0
  1  3  1  0  0  0  0
  1  4  2  0  0  0  0
  1  6  1  0  0  0  0
  5  6  1  0  0  0  0
  7  5  1  1  0  0  0
  7  8  1  0  0  0  0
  7  9  1  0  0  0  0
  9 10  1  1  0  0  0
  9 11  1  0  0  0  0
 11 12  1  6  0  0  0
 11 13  1  0  0  0  0
 13 31  1  0  0  0  0
 14 15  1  0  0  0  0
 15 16  2  0  0  0  0
 15 17  1  0  0  0  0
 17 18  1  0  0  0  0
 18 20  2  0  0  0  0
 19 18  1  6  0  0  0
 19 22  1  0  0  0  0
 19 30  1  0  0  0  0
 21 23  1  1  0  0  0
 21 29  1  0  0  0  0
 21 22  1  0  0  0  0
 23 24  1  0  0  0  0
 24 25  1  6  0  0  0
 24 26  1  0  0  0  0
 26 27  1  6  0  0  0
 26 28  1  0  0  0  0
 29 28  1  6  0  0  0
 29 31  1  0  0  0  0
 30 14  1  6  0  0  0
 30 31  1  0  0  0  0
M  CHG  1   3  -1
M  END
>  <CHROM.1>
-178.63510187,65.86357023,63.59947936,-54.88030280,38.25968700,170.27103133
82.41232692,26.99100927,39.98620660,21.19382486,2.57201470,1.34347352,-1.78482242

>  <Name>
ligand

>  <RI>
0

>  <Rbt.Current_Directory>
/home/itssahil/PROJECTS/Mol_Feturizer/New_Systems/rnas/3F2T

>  <Rbt.Executable>
rbdock ($Id: //depot/dev/client3/rdock/2013.1/src/exe/rbdock.cxx#4 $)

>  <Rbt.Library>
libRbt.so (2013.1, Build901 2013/11/27)

>  <Rbt.Parameter_File>
/export/apps/rDock/src/rDock_2013.1_src/data/scripts/dock_solv.prm

>  <Rbt.Receptor>
prm/blind_docking_80.prm

>  <SCORE>
-26.4026

>  <SCORE.INTER>
-26.6757

>  <SCORE.INTER.CONST>
1

>  <SCORE.INTER.POLAR>
0

>  <SCORE.INTER.ROT>
7

>  <SCORE.INTER.SOLV>
23.187

>  <SCORE.INTER.VDW>
-33.7795

>  <SCORE.INTER.norm>
-0.860508

>  <SCORE.INTRA>
0.273168

>  <SCORE.INTRA.DIHEDRAL>
-1.22016

>  <SCORE.INTRA.DIHEDRAL.0>
4.64198

>  <SCORE.INTRA.POLAR>
0

>  <SCORE.INTRA.POLAR.0>
0

>  <SCORE.INTRA.REPUL>
0

>  <SCORE.INTRA.REPUL.0>
0

>  <SCORE.INTRA.SOLV>
-0.540188

>  <SCORE.INTRA.SOLV.lig_0>
-49.3611

>  <SCORE.INTRA.VDW>
1.15334

>  <SCORE.INTRA.VDW.0>
-1.91858

>  <SCORE.INTRA.norm>
0.00881187

>  <SCORE.RESTR>
0

>  <SCORE.RESTR.CAVITY>
0

>  <SCORE.RESTR.norm>
0

>  <SCORE.SYSTEM>
0

>  <SCORE.SYSTEM.CONST>
0

>  <SCORE.SYSTEM.DIHEDRAL>
0

>  <SCORE.SYSTEM.SOLV>
0

>  <SCORE.SYSTEM.norm>
0

>  <SCORE.heavy>
31

>  <SCORE.norm>
-0.851696

>  <RMSD>
5.344

$$$$
ligand
 OpenBabel11021811473D
libRbt.so/2013.1/901 2013/11/27
 31 33  0  0  0  0  0  0  0  0999 V2000
   24.5142   34.3450   18.4592 P   0  0  1  0  0  0  0  0  0  0  0  0
   24.9166   35.0143   19.7489 O   0  0  0  0  0  0  0  0  0  0  0  0
   24.6918   32.8577   18.6119 O   0  5  0  0  0  0  0  0  0  0  0  0
   23.0802   34.7233   18.2091 O   0  0  0  0  0  0  0  0  0  0  0  0
   26.6809   34.2816   16.9855 C   0  0  0  0  0  0  0  0  0  0  0  0
   25.3946   34.8224   17.2041 O   0  0  0  0  0  0  0  0  0  0  0  0
   27.6573   34.8851   17.9918 C   0  0  1  0  0  0  0  0  0  0  0  0
   28.7189   33.9817   18.2276 O   0  0  0  0  0  0  0  0  0  0  0  0
   28.2256   36.1855   17.4489 C   0  0  1  0  0  0  0  0  0  0  0  0
   27.2159   36.8474   16.7351 O   0  0  0  0  0  0  0  0  0  0  0  0
   28.7348   37.1045   18.5466 C   0  0  1  0  0  0  0  0  0  0  0  0
   29.7351   37.9243   18.0051 O   0  0  0  0  0  0  0  0  0  0  0  0
   27.6135   37.9751   19.0891 C   0  0  0  0  0  0  0  0  0  0  0  0
   27.3224   35.7070   20.7295 N   0  0  0  0  0  0  0  0  0  0  0  0
   27.1149   34.5774   21.4909 C   0  0  0  0  0  0  0  0  0  0  0  0
   26.9507   33.4894   20.9466 O   0  0  0  0  0  0  0  0  0  0  0  0
   27.0872   34.6573   22.8645 N   0  0  0  0  0  0  0  0  0  0  0  0
   27.2792   35.8717   23.4939 C   0  0  0  0  0  0  0  0  0  0  0  0
   27.4885   37.0171   22.7339 C   0  0  1  0  0  0  0  0  0  0  0  0
   27.2722   35.9347   24.7250 O   0  0  0  0  0  0  0  0  0  0  0  0
   27.8889   39.3710   22.5990 C   0  0  2  0  0  0  0  0  0  0  0  0
   27.6792   38.2344   23.3564 N   0  0  0  0  0  0  0  0  0  0  0  0
   28.0814   40.6008   23.2294 C   0  0  0  0  0  0  0  0  0  0  0  0
   28.2880   41.7511   22.4770 C   0  0  1  0  0  0  0  0  0  0  0  0
   28.4872   43.0526   23.1871 C   0  0  0  0  0  0  0  0  0  0  0  0
   28.3080   41.6733   21.0762 C   0  0  1  0  0  0  0  0  0  0  0  0
   28.5375   42.8925   20.2258 C   0  0  0  0  0  0  0  0  0  0  0  0
   28.1140   40.4449   20.4500 C   0  0  0  0  0  0  0  0  0  0  0  0
   27.9022   39.2896   21.2046 C   0  0  1  0  0  0  0  0  0  0  0  0
   27.5055   36.9297   21.3433 C   0  0  1  0  0  0  0  0  0  0  0  0
   27.7064   38.0656   20.5827 N   0  0  0  0  0  0  0  0  0  0  0  0
  1  2  1  1  0  0  0
  1  3  1  0  0  0  0
  1  4  2  0  0  0  0
  1  6  1  0  0  0  0
  5  6  1  0  0  0  0
  7  5  1  6  0  0  0
  7  8  1  0  0  0  0
  7  9  1  0  0  0  0
  9 10  1  1  0  0  0
  9 11  1  0  0  0  0
 11 12  1  6  0  0  0
 11 13  1  0  0  0  0
 13 31  1  0  0  0  0
 14 15  1  0  0  0  0
 15 16  2  0  0  0  0
 15 17  1  0  0  0  0
 17 18  1  0  0  0  0
 18 20  2  0  0  0  0
 19 18  1  1  0  0  0
 19 22  1  0  0  0  0
 19 30  1  0  0  0  0
 21 23  1  6  0  0  0
 21 29  1  0  0  0  0
 21 22  1  0  0  0  0
 23 24  1  0  0  0  0
 24 25  1  1  0  0  0
 24 26  1  0  0  0  0
 26 27  1  1  0  0  0
 26 28  1  0  0  0  0
 29 28  1  1  0  0  0
 29 31  1  0  0  0  0
 30 14  1  1  0  0  0
 30 31  1  0  0  0  0
M  CHG  1   3  -1
M  END
>  <CHROM.1>
-74.77938309,79.95925696,152.94946288,36.38092039,153.53238402,138.22721858
118.55206652,27.13430232,36.88725407,20.21364291,2.63417081,-1.19483123,-1.59724753

>  <Name>
ligand

>  <RI>
0

>  <Rbt.Current_Directory>
/home/itssahil/PROJECTS/Mol_Feturizer/New_Systems/rnas/3F2T

>  <Rbt.Executable>
rbdock ($Id: //depot/dev/client3/rdock/2013.1/src/exe/rbdock.cxx#4 $)

>  <Rbt.Library>
libRbt.so (2013.1, Build901 2013/11/27)

>  <Rbt.Parameter_File>
/export/apps/rDock/src/rDock_2013.1_src/data/scripts/dock_solv.prm

>  <Rbt.Receptor>
prm/pocket_docking_8.prm

>  <SCORE>
-15.3984

>  <SCORE.INTER>
-21.0332

>  <SCORE.INTER.CONST>
1

>  <SCORE.INTER.POLAR>
0

>  <SCORE.INTER.ROT>
7

>  <SCORE.INTER.SOLV>
11.7502

>  <SCORE.INTER.VDW>
-26.2055

>  <SCORE.INTER.norm>
-0.678491

>  <SCORE.INTRA>
5.6348

>  <SCORE.INTRA.DIHEDRAL>
8.58754

>  <SCORE.INTRA.DIHEDRAL.0>
4.64198

>  <SCORE.INTRA.POLAR>
0

>  <SCORE.INTRA.POLAR.0>
0

>  <SCORE.INTRA.REPUL>
0

>  <SCORE.INTRA.REPUL.0>
0

>  <SCORE.INTRA.SOLV>
2.1957

>  <SCORE.INTRA.SOLV.lig_0>
-49.3611

>  <SCORE.INTRA.VDW>
0.243177

>  <SCORE.INTRA.VDW.0>
-1.91858

>  <SCORE.INTRA.norm>
0.181768

>  <SCORE.RESTR>
0

>  <SCORE.RESTR.CAVITY>
0

>  <SCORE.RESTR.norm>
0

>  <SCORE.SYSTEM>
0

>  <SCORE.SYSTEM.CONST>
0

>  <SCORE.SYSTEM.DIHEDRAL>
0

>  <SCORE.SYSTEM.SOLV>
0

>  <SCORE.SYSTEM.norm>
0

>  <SCORE.heavy>
31

>  <SCORE.norm>
-0.496724

>  <RMSD>
5.348

$$$$
ligand
 OpenBabel11021811473D
libRbt.so/2013.1/901 2013/11/27
 31 33  0  0  0  0  0  0  0  0999 V2000
   25.2381   44.1780   16.0201 P   0  0  1  0  0  0  0  0  0  0  0  0
   24.2495   44.0536   14.8886 O   0  0  0  0  0  0  0  0  0  0  0  0
   26.5681   44.5996   15.4544 O   0  5  0  0  0  0  0  0  0  0  0  0
   24.6756   45.1990   16.9705 O   0  0  0  0  0  0  0  0  0  0  0  0
   26.3671   42.7334   17.8934 C   0  0  0  0  0  0  0  0  0  0  0  0
   25.4536   42.8015   16.8183 O   0  0  0  0  0  0  0  0  0  0  0  0
   26.3621   41.3193   18.4681 C   0  0  1  0  0  0  0  0  0  0  0  0
   26.7450   40.3962   17.4681 O   0  0  0  0  0  0  0  0  0  0  0  0
   27.3394   41.2260   19.6278 C   0  0  1  0  0  0  0  0  0  0  0  0
   27.0287   42.2341   20.5522 O   0  0  0  0  0  0  0  0  0  0  0  0
   27.2853   39.8803   20.3313 C   0  0  1  0  0  0  0  0  0  0  0  0
   27.5412   38.8784   19.3844 O   0  0  0  0  0  0  0  0  0  0  0  0
   28.3267   39.8029   21.4354 C   0  0  0  0  0  0  0  0  0  0  0  0
   27.6996   40.8639   23.9654 N   0  0  0  0  0  0  0  0  0  0  0  0
   27.4619   41.4225   25.2025 C   0  0  0  0  0  0  0  0  0  0  0  0
   27.5636   42.6356   25.3603 O   0  0  0  0  0  0  0  0  0  0  0  0
   27.1116   40.6287   26.2707 N   0  0  0  0  0  0  0  0  0  0  0  0
   26.9836   39.2629   26.1091 C   0  0  0  0  0  0  0  0  0  0  0  0
   27.2223   38.6902   24.8647 C   0  0  1  0  0  0  0  0  0  0  0  0
   26.6512   38.5586   27.0646 O   0  0  0  0  0  0  0  0  0  0  0  0
   27.3339   36.7590   23.4585 C   0  0  2  0  0  0  0  0  0  0  0  0
   27.0980   37.3257   24.6965 N   0  0  0  0  0  0  0  0  0  0  0  0
   27.2081   35.3797   23.2899 C   0  0  0  0  0  0  0  0  0  0  0  0
   27.4481   34.7988   22.0502 C   0  0  1  0  0  0  0  0  0  0  0  0
   27.3070   33.3164   21.9076 C   0  0  0  0  0  0  0  0  0  0  0  0
   27.8138   35.6053   20.9618 C   0  0  1  0  0  0  0  0  0  0  0  0
   28.0734   35.0175   19.6018 C   0  0  0  0  0  0  0  0  0  0  0  0
   27.9401   36.9812   21.1336 C   0  0  0  0  0  0  0  0  0  0  0  0
   27.7034   37.5653   22.3793 C   0  0  1  0  0  0  0  0  0  0  0  0
   27.5860   39.4995   23.7903 C   0  0  1  0  0  0  0  0  0  0  0  0
   27.8310   38.9352   22.5530 N   0  0  0  0  0  0  0  0  0  0  0  0
  1  2  1  6  0  0  0
  1  3  1  0  0  0  0
  1  4  2  0  0  0  0
  1  6  1  0  0  0  0
  5  6  1  0  0  0  0
  7  5  1  6  0  0  0
  7  8  1  0  0  0  0
  7  9  1  0  0  0  0
  9 10  1  1  0  0  0
  9 11  1  0  0  0  0
 11 12  1  6  0  0  0
 11 13  1  0  0  0  0
 13 31  1  0  0  0  0
 14 15  1  0  0  0  0
 15 16  2  0  0  0  0
 15 17  1  0  0  0  0
 17 18  1  0  0  0  0
 18 20  2  0  0  0  0
 19 18  1  6  0  0  0
 19 22  1  0  0  0  0
 19 30  1  0  0  0  0
 21 23  1  1  0  0  0
 21 29  1  0  0  0  0
 21 22  1  0  0  0  0
 23 24  1  0  0  0  0
 24 25  1  6  0  0  0
 24 26  1  0  0  0  0
 26 27  1  6  0  0  0
 26 28  1  0  0  0  0
 29 28  1  6  0  0  0
 29 31  1  0  0  0  0
 30 14  1  6  0  0  0
 30 31  1  0  0  0  0
M  CHG  1   3  -1
M  END
>  <CHROM.1>
179.63712737,178.75312373,60.11671199,53.89871250,57.18662557,148.34938806
69.80759044,26.89338272,40.02389273,20.93036055,2.85762275,1.37604339,-2.16712351

>  <Name>
ligand

>  <RI>
0

>  <Rbt.Current_Directory>
/home/itssahil/PROJECTS/Mol_Feturizer/New_Systems/rnas/3F2T

>  <Rbt.Executable>
rbdock ($Id: //depot/dev/client3/rdock/2013.1/src/exe/rbdock.cxx#4 $)

>  <Rbt.Library>
libRbt.so (2013.1, Build901 2013/11/27)

>  <Rbt.Parameter_File>
/export/apps/rDock/src/rDock_2013.1_src/data/scripts/dock_solv.prm

>  <Rbt.Receptor>
prm/blind_docking_60.prm

>  <SCORE>
-26.5327

>  <SCORE.INTER>
-27.6751

>  <SCORE.INTER.CONST>
1

>  <SCORE.INTER.POLAR>
0

>  <SCORE.INTER.ROT>
7

>  <SCORE.INTER.SOLV>
18.1056

>  <SCORE.INTER.VDW>
-32.7519

>  <SCORE.INTER.norm>
-0.892746

>  <SCORE.INTRA>
1.14239

>  <SCORE.INTRA.DIHEDRAL>
-0.348608

>  <SCORE.INTRA.DIHEDRAL.0>
4.64198

>  <SCORE.INTRA.POLAR>
0

>  <SCORE.INTRA.POLAR.0>
0

>  <SCORE.INTRA.REPUL>
0

>  <SCORE.INTRA.REPUL.0>
0

>  <SCORE.INTRA.SOLV>
0.116819

>  <SCORE.INTRA.SOLV.lig_0>
-49.3611

>  <SCORE.INTRA.VDW>
1.25828

>  <SCORE.INTRA.VDW.0>
-1.91858

>  <SCORE.INTRA.norm>
0.0368512

>  <SCORE.RESTR>
0

>  <SCORE.RESTR.CAVITY>
0

>  <SCORE.RESTR.norm>
0

>  <SCORE.SYSTEM>
0

>  <SCORE.SYSTEM.CONST>
0

>  <SCORE.SYSTEM.DIHEDRAL>
0

>  <SCORE.SYSTEM.SOLV>
0

>  <SCORE.SYSTEM.norm>
0

>  <SCORE.heavy>
31

>  <SCORE.norm>
-0.855895

>  <RMSD>
5.354

$$$$
ligand
 OpenBabel11021811473D
libRbt.so/2013.1/901 2013/11/27
 31 33  0  0  0  0  0  0  0  0999 V2000
   33.2582   34.3109   14.0115 P   0  0  1  0  0  0  0  0  0  0  0  0
   34.7380   34.5981   13.9779 O   0  0  0  0  0  0  0  0  0  0  0  0
   32.5928   35.0778   12.8997 O   0  5  0  0  0  0  0  0  0  0  0  0
   33.1062   32.8238   13.8461 O   0  0  0  0  0  0  0  0  0  0  0  0
   32.3704   36.1092   15.6992 C   0  0  0  0  0  0  0  0  0  0  0  0
   32.5668   34.7442   15.3944 O   0  0  0  0  0  0  0  0  0  0  0  0
   31.5965   36.2250   17.0099 C   0  0  1  0  0  0  0  0  0  0  0  0
   32.3646   35.6854   18.0670 O   0  0  0  0  0  0  0  0  0  0  0  0
   31.2980   37.6843   17.3100 C   0  0  1  0  0  0  0  0  0  0  0  0
   30.5909   38.2247   16.2260 O   0  0  0  0  0  0  0  0  0  0  0  0
   30.4737   37.8646   18.5736 C   0  0  1  0  0  0  0  0  0  0  0  0
   30.4139   39.2342   18.8680 O   0  0  0  0  0  0  0  0  0  0  0  0
   29.0633   37.3320   18.3821 C   0  0  0  0  0  0  0  0  0  0  0  0
   28.8167   34.5349   18.1950 N   0  0  0  0  0  0  0  0  0  0  0  0
   28.6537   33.1758   18.0367 C   0  0  0  0  0  0  0  0  0  0  0  0
   28.9272   32.6433   16.9650 O   0  0  0  0  0  0  0  0  0  0  0  0
   28.1819   32.4042   19.0741 N   0  0  0  0  0  0  0  0  0  0  0  0
   27.8779   32.9853   20.2898 C   0  0  0  0  0  0  0  0  0  0  0  0
   28.0385   34.3561   20.4586 C   0  0  1  0  0  0  0  0  0  0  0  0
   27.4736   32.2870   21.2217 O   0  0  0  0  0  0  0  0  0  0  0  0
   27.8970   36.3058   21.8362 C   0  0  2  0  0  0  0  0  0  0  0  0
   27.7348   34.9436   21.6703 N   0  0  0  0  0  0  0  0  0  0  0  0
   27.5896   36.8984   23.0614 C   0  0  0  0  0  0  0  0  0  0  0  0
   27.7442   38.2685   23.2374 C   0  0  1  0  0  0  0  0  0  0  0  0
   27.4012   38.8696   24.5637 C   0  0  0  0  0  0  0  0  0  0  0  0
   28.2168   39.0582   22.1783 C   0  0  1  0  0  0  0  0  0  0  0  0
   28.4068   40.5425   22.3303 C   0  0  0  0  0  0  0  0  0  0  0  0
   28.5211   38.4642   20.9564 C   0  0  0  0  0  0  0  0  0  0  0  0
   28.3623   37.0888   20.7771 C   0  0  1  0  0  0  0  0  0  0  0  0
   28.5075   35.1319   19.4004 C   0  0  1  0  0  0  0  0  0  0  0  0
   28.6627   36.4957   19.5601 N   0  0  0  0  0  0  0  0  0  0  0  0
  1  2  1  1  0  0  0
  1  3  1  0  0  0  0
  1  4  2  0  0  0  0
  1  6  1  0  0  0  0
  5  6  1  0  0  0  0
  7  5  1  6  0  0  0
  7  8  1  0  0  0  0
  7  9  1  0  0  0  0
  9 10  1  6  0  0  0
  9 11  1  0  0  0  0
 11 12  1  6  0  0  0
 11 13  1  0  0  0  0
 13 31  1  0  0  0  0
 14 15  1  0  0  0  0
 15 16  2  0  0  0  0
 15 17  1  0  0  0  0
 17 18  1  0  0  0  0
 18 20  2  0  0  0  0
 19 18  1  1  0  0  0
 19 22  1  0  0  0  0
 19 30  1  0  0  0  0
 21 23  1  6  0  0  0
 21 29  1  0  0  0  0
 21 22  1  0  0  0  0
 23 24  1  0  0  0  0
 24 25  1  1  0  0  0
 24 26  1  0  0  0  0
 26 27  1  1  0  0  0
 26 28  1  0  0  0  0
 29 28  1  1  0  0  0
 29 31  1  0  0  0  0
 30 14  1  1  0  0  0
 30 31  1  0  0  0  0
M  CHG  1   3  -1
M  END
>  <CHROM.1>
175.39623658,72.36277479,63.67177067,56.88043132,171.71113939,134.00082475
73.11753182,29.97867248,35.84751084,18.49196727,-0.61076518,0.88519373,0.38466293

>  <Name>
ligand

>  <RI>
0

>  <Rbt.Current_Directory>
/home/itssahil/PROJECTS/Mol_Feturizer/New_Systems/rnas/3F2T

>  <Rbt.Executable>
rbdock ($Id: //depot/dev/client3/rdock/2013.1/src/exe/rbdock.cxx#4 $)

>  <Rbt.Library>
libRbt.so (2013.1, Build901 2013/11/27)

>  <Rbt.Parameter_File>
/export/apps/rDock/src/rDock_2013.1_src/data/scripts/dock_solv.prm

>  <Rbt.Receptor>
prm/blind_docking_100.prm

>  <SCORE>
-24.5943

>  <SCORE.INTER>
-25.4881

>  <SCORE.INTER.CONST>
1

>  <SCORE.INTER.POLAR>
0

>  <SCORE.INTER.ROT>
7

>  <SCORE.INTER.SOLV>
14.102

>  <SCORE.INTER.VDW>
-29.9594

>  <SCORE.INTER.norm>
-0.822196

>  <SCORE.INTRA>
0.893763

>  <SCORE.INTRA.DIHEDRAL>
1.88837

>  <SCORE.INTRA.DIHEDRAL.0>
4.64198

>  <SCORE.INTRA.POLAR>
0

>  <SCORE.INTRA.POLAR.0>
0

>  <SCORE.INTRA.REPUL>
0

>  <SCORE.INTRA.REPUL.0>
0

>  <SCORE.INTRA.SOLV>
-0.663542

>  <SCORE.INTRA.SOLV.lig_0>
-49.3611

>  <SCORE.INTRA.VDW>
0.281347

>  <SCORE.INTRA.VDW.0>
-1.91858

>  <SCORE.INTRA.norm>
0.0288311

>  <SCORE.RESTR>
0

>  <SCORE.RESTR.CAVITY>
0

>  <SCORE.RESTR.norm>
0

>  <SCORE.SYSTEM>
0

>  <SCORE.SYSTEM.CONST>
0

>  <SCORE.SYSTEM.DIHEDRAL>
0

>  <SCORE.SYSTEM.SOLV>
0

>  <SCORE.SYSTEM.norm>
0

>  <SCORE.heavy>
31

>  <SCORE.norm>
-0.793365

>  <RMSD>
5.366

$$$$
ligand
 OpenBabel11021811473D
libRbt.so/2013.1/901 2013/11/27
 31 33  0  0  0  0  0  0  0  0999 V2000
   25.7884   44.4898   16.2319 P   0  0  1  0  0  0  0  0  0  0  0  0
   25.9800   45.9537   16.5378 O   0  0  0  0  0  0  0  0  0  0  0  0
   24.3345   44.1449   16.4162 O   0  5  0  0  0  0  0  0  0  0  0  0
   26.2456   44.2848   14.8138 O   0  0  0  0  0  0  0  0  0  0  0  0
   28.0363   43.3662   16.9768 C   0  0  0  0  0  0  0  0  0  0  0  0
   26.6499   43.5313   17.1897 O   0  0  0  0  0  0  0  0  0  0  0  0
   28.5997   42.4276   18.0407 C   0  0  1  0  0  0  0  0  0  0  0  0
   28.4331   43.0029   19.3213 O   0  0  0  0  0  0  0  0  0  0  0  0
   27.8697   41.0956   17.9980 C   0  0  1  0  0  0  0  0  0  0  0  0
   28.6801   40.1667   17.3289 O   0  0  0  0  0  0  0  0  0  0  0  0
   27.5487   40.5601   19.3832 C   0  0  1  0  0  0  0  0  0  0  0  0
   26.6892   39.4613   19.2416 O   0  0  0  0  0  0  0  0  0  0  0  0
   28.8132   40.1170   20.1002 C   0  0  0  0  0  0  0  0  0  0  0  0
   28.9286   41.9218   22.2564 N   0  0  0  0  0  0  0  0  0  0  0  0
   29.0563   42.8292   23.2856 C   0  0  0  0  0  0  0  0  0  0  0  0
   29.3389   43.9990   23.0437 O   0  0  0  0  0  0  0  0  0  0  0  0
   28.8715   42.4342   24.5909 N   0  0  0  0  0  0  0  0  0  0  0  0
   28.5441   41.1240   24.8806 C   0  0  0  0  0  0  0  0  0  0  0  0
   28.4138   40.2011   23.8488 C   0  0  1  0  0  0  0  0  0  0  0  0
   28.3610   40.7795   26.0500 O   0  0  0  0  0  0  0  0  0  0  0  0
   27.9579   37.9747   23.1041 C   0  0  2  0  0  0  0  0  0  0  0  0
   28.0886   38.8896   24.1314 N   0  0  0  0  0  0  0  0  0  0  0  0
   27.6294   36.6493   23.3911 C   0  0  0  0  0  0  0  0  0  0  0  0
   27.5005   35.7198   22.3657 C   0  0  1  0  0  0  0  0  0  0  0  0
   27.1507   34.3069   22.7113 C   0  0  0  0  0  0  0  0  0  0  0  0
   27.6971   36.1185   21.0349 C   0  0  1  0  0  0  0  0  0  0  0  0
   27.5582   35.1462   19.8958 C   0  0  0  0  0  0  0  0  0  0  0  0
   28.0265   37.4414   20.7518 C   0  0  0  0  0  0  0  0  0  0  0  0
   28.1603   38.3749   21.7812 C   0  0  1  0  0  0  0  0  0  0  0  0
   28.6121   40.6066   22.5305 C   0  0  1  0  0  0  0  0  0  0  0  0
   28.4906   39.6924   21.5014 N   0  0  0  0  0  0  0  0  0  0  0  0
  1  2  1  1  0  0  0
  1  3  1  0  0  0  0
  1  4  2  0  0  0  0
  1  6  1  0  0  0  0
  5  6  1  0  0  0  0
  7  5  1  6  0  0  0
  7  8  1  0  0  0  0
  7  9  1  0  0  0  0
  9 10  1  1  0  0  0
  9 11  1  0  0  0  0
 11 12  1  6  0  0  0
 11 13  1  0  0  0  0
 13 31  1  0  0  0  0
 14 15  1  0  0  0  0
 15 16  2  0  0  0  0
 15 17  1  0  0  0  0
 17 18  1  0  0  0  0
 18 20  2  0  0  0  0
 19 18  1  6  0  0  0
 19 22  1  0  0  0  0
 19 30  1  0  0  0  0
 21 23  1  1  0  0  0
 21 29  1  0  0  0  0
 21 22  1  0  0  0  0
 23 24  1  0  0  0  0
 24 25  1  6  0  0  0
 24 26  1  0  0  0  0
 26 27  1  6  0  0  0
 26 28  1  0  0  0  0
 29 28  1  6  0  0  0
 29 31  1  0  0  0  0
 30 14  1  6  0  0  0
 30 31  1  0  0  0  0
M  CHG  1   3  -1
M  END
>  <CHROM.1>
179.02319162,-77.01982953,-62.46308205,101.63163697,170.16449377,175.60133513
89.90971731,27.68805331,40.83245659,20.35638737,2.24861250,-1.27965308,-0.16007804

>  <Name>
ligand

>  <RI>
0

>  <Rbt.Current_Directory>
/home/itssahil/PROJECTS/Mol_Feturizer/New_Systems/rnas/3F2T

>  <Rbt.Executable>
rbdock ($Id: //depot/dev/client3/rdock/2013.1/src/exe/rbdock.cxx#4 $)

>  <Rbt.Library>
libRbt.so (2013.1, Build901 2013/11/27)

>  <Rbt.Parameter_File>
/export/apps/rDock/src/rDock_2013.1_src/data/scripts/dock_solv.prm

>  <Rbt.Receptor>
prm/pocket_docking_7.prm

>  <SCORE>
-23.6992

>  <SCORE.INTER>
-25.6387

>  <SCORE.INTER.CONST>
1

>  <SCORE.INTER.POLAR>
0

>  <SCORE.INTER.ROT>
7

>  <SCORE.INTER.SOLV>
18.7898

>  <SCORE.INTER.VDW>
-31.6224

>  <SCORE.INTER.norm>
-0.827054

>  <SCORE.INTRA>
1.93943

>  <SCORE.INTRA.DIHEDRAL>
1.86725

>  <SCORE.INTRA.DIHEDRAL.0>
4.64198

>  <SCORE.INTRA.POLAR>
0

>  <SCORE.INTRA.POLAR.0>
0

>  <SCORE.INTRA.REPUL>
0

>  <SCORE.INTRA.REPUL.0>
0

>  <SCORE.INTRA.SOLV>
-0.111337

>  <SCORE.INTRA.SOLV.lig_0>
-49.3611

>  <SCORE.INTRA.VDW>
1.06147

>  <SCORE.INTRA.VDW.0>
-1.91858

>  <SCORE.INTRA.norm>
0.0625623

>  <SCORE.RESTR>
0

>  <SCORE.RESTR.CAVITY>
0

>  <SCORE.RESTR.norm>
0

>  <SCORE.SYSTEM>
0

>  <SCORE.SYSTEM.CONST>
0

>  <SCORE.SYSTEM.DIHEDRAL>
0

>  <SCORE.SYSTEM.SOLV>
0

>  <SCORE.SYSTEM.norm>
0

>  <SCORE.heavy>
31

>  <SCORE.norm>
-0.764492

>  <RMSD>
5.370

$$$$
ligand
 OpenBabel11021811473D
libRbt.so/2013.1/901 2013/11/27
 31 33  0  0  0  0  0  0  0  0999 V2000
   24.5486   34.5696   18.4343 P   0  0  1  0  0  0  0  0  0  0  0  0
   25.0734   34.9981   19.7812 O   0  0  0  0  0  0  0  0  0  0  0  0
   25.4035   33.4420   17.9201 O   0  5  0  0  0  0  0  0  0  0  0  0
   23.1200   34.1490   18.6448 O   0  0  0  0  0  0  0  0  0  0  0  0
   25.6344   36.6874   17.3358 C   0  0  0  0  0  0  0  0  0  0  0  0
   24.5784   35.7495   17.3456 O   0  0  0  0  0  0  0  0  0  0  0  0
   26.9286   35.9825   16.9379 C   0  0  1  0  0  0  0  0  0  0  0  0
   27.7973   36.9009   16.3050 O   0  0  0  0  0  0  0  0  0  0  0  0
   27.6155   35.4215   18.1717 C   0  0  1  0  0  0  0  0  0  0  0  0
   28.4966   34.4081   17.7670 O   0  0  0  0  0  0  0  0  0  0  0  0
   28.3976   36.4765   18.9361 C   0  0  1  0  0  0  0  0  0  0  0  0
   29.4020   36.9752   18.0944 O   0  0  0  0  0  0  0  0  0  0  0  0
   27.4917   37.6187   19.3654 C   0  0  0  0  0  0  0  0  0  0  0  0
   27.3714   35.6324   21.3554 N   0  0  0  0  0  0  0  0  0  0  0  0
   27.2443   34.6346   22.2973 C   0  0  0  0  0  0  0  0  0  0  0  0
   27.0448   33.4760   21.9441 O   0  0  0  0  0  0  0  0  0  0  0  0
   27.3369   34.9260   23.6391 N   0  0  0  0  0  0  0  0  0  0  0  0
   27.5703   36.2226   24.0540 C   0  0  0  0  0  0  0  0  0  0  0  0
   27.6991   37.2361   23.1109 C   0  0  1  0  0  0  0  0  0  0  0  0
   27.6712   36.4753   25.2564 O   0  0  0  0  0  0  0  0  0  0  0  0
   28.0602   39.5398   22.5794 C   0  0  2  0  0  0  0  0  0  0  0  0
   27.9306   38.5346   23.5187 N   0  0  0  0  0  0  0  0  0  0  0  0
   28.2939   40.8517   22.9930 C   0  0  0  0  0  0  0  0  0  0  0  0
   28.4207   41.8712   22.0568 C   0  0  1  0  0  0  0  0  0  0  0  0
   28.6674   43.2664   22.5371 C   0  0  0  0  0  0  0  0  0  0  0  0
   28.3179   41.5777   20.6886 C   0  0  1  0  0  0  0  0  0  0  0  0
   28.4581   42.6501   19.6432 C   0  0  0  0  0  0  0  0  0  0  0  0
   28.0829   40.2678   20.2791 C   0  0  0  0  0  0  0  0  0  0  0  0
   27.9513   39.2437   21.2187 C   0  0  1  0  0  0  0  0  0  0  0  0
   27.5944   36.9347   21.7545 C   0  0  1  0  0  0  0  0  0  0  0  0
   27.7149   37.9388   20.8129 N   0  0  0  0  0  0  0  0  0  0  0  0
  1  2  1  1  0  0  0
  1  3  1  0  0  0  0
  1  4  2  0  0  0  0
  1  6  1  0  0  0  0
  5  6  1  0  0  0  0
  7  5  1  1  0  0  0
  7  8  1  0  0  0  0
  7  9  1  0  0  0  0
  9 10  1  6  0  0  0
  9 11  1  0  0  0  0
 11 12  1  6  0  0  0
 11 13  1  0  0  0  0
 13 31  1  0  0  0  0
 14 15  1  0  0  0  0
 15 16  2  0  0  0  0
 15 17  1  0  0  0  0
 17 18  1  0  0  0  0
 18 20  2  0  0  0  0
 19 18  1  6  0  0  0
 19 22  1  0  0  0  0
 19 30  1  0  0  0  0
 21 23  1  1  0  0  0
 21 29  1  0  0  0  0
 21 22  1  0  0  0  0
 23 24  1  0  0  0  0
 24 25  1  6  0  0  0
 24 26  1  0  0  0  0
 26 27  1  6  0  0  0
 26 28  1  0  0  0  0
 29 28  1  6  0  0  0
 29 31  1  0  0  0  0
 30 14  1  6  0  0  0
 30 31  1  0  0  0  0
M  CHG  1   3  -1
M  END
>  <CHROM.1>
67.35018002,36.20771023,151.72315672,159.18887882,-61.68868664,132.07143326
129.40121765,27.12796483,37.02665951,20.29596003,-2.95010451,1.20391159,1.95088600

>  <Name>
ligand

>  <RI>
0

>  <Rbt.Current_Directory>
/home/itssahil/PROJECTS/Mol_Feturizer/New_Systems/rnas/3F2T

>  <Rbt.Executable>
rbdock ($Id: //depot/dev/client3/rdock/2013.1/src/exe/rbdock.cxx#4 $)

>  <Rbt.Library>
libRbt.so (2013.1, Build901 2013/11/27)

>  <Rbt.Parameter_File>
/export/apps/rDock/src/rDock_2013.1_src/data/scripts/dock_solv.prm

>  <Rbt.Receptor>
prm/blind_docking_100.prm

>  <SCORE>
-16.5342

>  <SCORE.INTER>
-23.5365

>  <SCORE.INTER.CONST>
1

>  <SCORE.INTER.POLAR>
0

>  <SCORE.INTER.ROT>
7

>  <SCORE.INTER.SOLV>
12.3032

>  <SCORE.INTER.VDW>
-28.0587

>  <SCORE.INTER.norm>
-0.759243

>  <SCORE.INTRA>
7.00232

>  <SCORE.INTRA.DIHEDRAL>
6.26582

>  <SCORE.INTRA.DIHEDRAL.0>
4.64198

>  <SCORE.INTRA.POLAR>
0

>  <SCORE.INTRA.POLAR.0>
0

>  <SCORE.INTRA.REPUL>
0

>  <SCORE.INTRA.REPUL.0>
0

>  <SCORE.INTRA.SOLV>
3.15729

>  <SCORE.INTRA.SOLV.lig_0>
-49.3611

>  <SCORE.INTRA.VDW>
2.29077

>  <SCORE.INTRA.VDW.0>
-1.91858

>  <SCORE.INTRA.norm>
0.225881

>  <SCORE.RESTR>
0

>  <SCORE.RESTR.CAVITY>
0

>  <SCORE.RESTR.norm>
0

>  <SCORE.SYSTEM>
0

>  <SCORE.SYSTEM.CONST>
0

>  <SCORE.SYSTEM.DIHEDRAL>
0

>  <SCORE.SYSTEM.SOLV>
0

>  <SCORE.SYSTEM.norm>
0

>  <SCORE.heavy>
31

>  <SCORE.norm>
-0.533361

>  <RMSD>
5.371

$$$$
ligand
 OpenBabel11021811473D
libRbt.so/2013.1/901 2013/11/27
 31 33  0  0  0  0  0  0  0  0999 V2000
   25.0283   33.8128   17.6112 P   0  0  1  0  0  0  0  0  0  0  0  0
   24.5042   34.2399   16.2636 O   0  0  0  0  0  0  0  0  0  0  0  0
   24.4110   34.6891   18.6686 O   0  5  0  0  0  0  0  0  0  0  0  0
   24.6501   32.3669   17.7797 O   0  0  0  0  0  0  0  0  0  0  0  0
   27.2552   35.1950   17.5797 C   0  0  0  0  0  0  0  0  0  0  0  0
   26.6243   33.9406   17.7323 O   0  0  0  0  0  0  0  0  0  0  0  0
   28.7692   35.0019   17.6017 C   0  0  1  0  0  0  0  0  0  0  0  0
   29.1689   34.2348   16.4834 O   0  0  0  0  0  0  0  0  0  0  0  0
   29.4661   36.3511   17.5507 C   0  0  1  0  0  0  0  0  0  0  0  0
   28.8290   37.1434   16.5844 O   0  0  0  0  0  0  0  0  0  0  0  0
   29.4304   37.0786   18.8842 C   0  0  1  0  0  0  0  0  0  0  0  0
   30.3625   38.1250   18.8395 O   0  0  0  0  0  0  0  0  0  0  0  0
   28.0485   37.6507   19.1534 C   0  0  0  0  0  0  0  0  0  0  0  0
   27.6033   35.4906   20.9015 N   0  0  0  0  0  0  0  0  0  0  0  0
   27.3308   34.4057   21.7062 C   0  0  0  0  0  0  0  0  0  0  0  0
   27.3440   33.2717   21.2364 O   0  0  0  0  0  0  0  0  0  0  0  0
   27.0397   34.5818   23.0397 N   0  0  0  0  0  0  0  0  0  0  0  0
   27.0294   35.8499   23.5871 C   0  0  0  0  0  0  0  0  0  0  0  0
   27.3024   36.9507   22.7827 C   0  0  1  0  0  0  0  0  0  0  0  0
   26.7866   36.0007   24.7862 O   0  0  0  0  0  0  0  0  0  0  0  0
   27.5655   39.3134   22.5218 C   0  0  2  0  0  0  0  0  0  0  0  0
   27.2920   38.2211   23.3228 N   0  0  0  0  0  0  0  0  0  0  0  0
   27.5545   40.5969   23.0689 C   0  0  0  0  0  0  0  0  0  0  0  0
   27.8230   41.7029   22.2711 C   0  0  1  0  0  0  0  0  0  0  0  0
   27.7989   43.0640   22.8913 C   0  0  0  0  0  0  0  0  0  0  0  0
   28.1116   41.5263   20.9094 C   0  0  1  0  0  0  0  0  0  0  0  0
   28.4165   42.6955   20.0137 C   0  0  0  0  0  0  0  0  0  0  0  0
   28.1201   40.2444   20.3659 C   0  0  0  0  0  0  0  0  0  0  0  0
   27.8464   39.1331   21.1654 C   0  0  1  0  0  0  0  0  0  0  0  0
   27.5867   36.7651   21.4313 C   0  0  1  0  0  0  0  0  0  0  0  0
   27.8522   37.8557   20.6255 N   0  0  0  0  0  0  0  0  0  0  0  0
  1  2  1  6  0  0  0
  1  3  1  0  0  0  0
  1  4  2  0  0  0  0
  1  6  1  0  0  0  0
  5  6  1  0  0  0  0
  7  5  1  6  0  0  0
  7  8  1  0  0  0  0
  7  9  1  0  0  0  0
  9 10  1  6  0  0  0
  9 11  1  0  0  0  0
 11 12  1  6  0  0  0
 11 13  1  0  0  0  0
 13 31  1  0  0  0  0
 14 15  1  0  0  0  0
 15 16  2  0  0  0  0
 15 17  1  0  0  0  0
 17 18  1  0  0  0  0
 18 20  2  0  0  0  0
 19 18  1  1  0  0  0
 19 22  1  0  0  0  0
 19 30  1  0  0  0  0
 21 23  1  6  0  0  0
 21 29  1  0  0  0  0
 21 22  1  0  0  0  0
 23 24  1  0  0  0  0
 24 25  1  1  0  0  0
 24 26  1  0  0  0  0
 26 27  1  1  0  0  0
 26 28  1  0  0  0  0
 29 28  1  1  0  0  0
 29 31  1  0  0  0  0
 30 14  1  1  0  0  0
 30 31  1  0  0  0  0
M  CHG  1   3  -1
M  END
>  <CHROM.1>
-174.31953243,60.52268570,64.59768524,-44.09916877,165.37318999,157.01943361
107.59100447,27.38488854,36.76972693,20.01930064,2.13906637,-1.15648628,-2.03485767

>  <Name>
ligand

>  <RI>
0

>  <Rbt.Current_Directory>
/home/itssahil/PROJECTS/Mol_Feturizer/New_Systems/rnas/3F2T

>  <Rbt.Executable>
rbdock ($Id: //depot/dev/client3/rdock/2013.1/src/exe/rbdock.cxx#4 $)

>  <Rbt.Library>
libRbt.so (2013.1, Build901 2013/11/27)

>  <Rbt.Parameter_File>
/export/apps/rDock/src/rDock_2013.1_src/data/scripts/dock_solv.prm

>  <Rbt.Receptor>
prm/pocket_docking_8.prm

>  <SCORE>
-19.8301

>  <SCORE.INTER>
-20.8215

>  <SCORE.INTER.CONST>
1

>  <SCORE.INTER.POLAR>
0

>  <SCORE.INTER.ROT>
7

>  <SCORE.INTER.SOLV>
13.1587

>  <SCORE.INTER.VDW>
-26.5339

>  <SCORE.INTER.norm>
-0.671662

>  <SCORE.INTRA>
0.991414

>  <SCORE.INTRA.DIHEDRAL>
0.213924

>  <SCORE.INTRA.DIHEDRAL.0>
4.64198

>  <SCORE.INTRA.POLAR>
0

>  <SCORE.INTRA.POLAR.0>
0

>  <SCORE.INTRA.REPUL>
0

>  <SCORE.INTRA.REPUL.0>
0

>  <SCORE.INTRA.SOLV>
-0.423256

>  <SCORE.INTRA.SOLV.lig_0>
-49.3611

>  <SCORE.INTRA.VDW>
1.09608

>  <SCORE.INTRA.VDW.0>
-1.91858

>  <SCORE.INTRA.norm>
0.0319811

>  <SCORE.RESTR>
0

>  <SCORE.RESTR.CAVITY>
0

>  <SCORE.RESTR.norm>
0

>  <SCORE.SYSTEM>
0

>  <SCORE.SYSTEM.CONST>
0

>  <SCORE.SYSTEM.DIHEDRAL>
0

>  <SCORE.SYSTEM.SOLV>
0

>  <SCORE.SYSTEM.norm>
0

>  <SCORE.heavy>
31

>  <SCORE.norm>
-0.639681

>  <RMSD>
5.400

$$$$
ligand
 OpenBabel11021811473D
libRbt.so/2013.1/901 2013/11/27
 31 33  0  0  0  0  0  0  0  0999 V2000
   25.9432   44.3385   16.1299 P   0  0  1  0  0  0  0  0  0  0  0  0
   26.8892   44.4195   14.9588 O   0  0  0  0  0  0  0  0  0  0  0  0
   26.0430   45.6164   16.9199 O   0  5  0  0  0  0  0  0  0  0  0  0
   24.5683   44.1307   15.5569 O   0  0  0  0  0  0  0  0  0  0  0  0
   27.5875   42.9217   17.5995 C   0  0  0  0  0  0  0  0  0  0  0  0
   26.2737   43.1178   17.1194 O   0  0  0  0  0  0  0  0  0  0  0  0
   27.6268   41.6568   18.4532 C   0  0  1  0  0  0  0  0  0  0  0  0
   28.9673   41.2476   18.6387 O   0  0  0  0  0  0  0  0  0  0  0  0
   26.9993   41.9261   19.8106 C   0  0  1  0  0  0  0  0  0  0  0  0
   25.7616   42.5548   19.6104 O   0  0  0  0  0  0  0  0  0  0  0  0
   26.7812   40.6565   20.6162 C   0  0  1  0  0  0  0  0  0  0  0  0
   26.3526   39.6484   19.7409 O   0  0  0  0  0  0  0  0  0  0  0  0
   28.0679   40.2163   21.2945 C   0  0  0  0  0  0  0  0  0  0  0  0
   27.7241   41.1130   23.9398 N   0  0  0  0  0  0  0  0  0  0  0  0
   27.6224   41.5950   25.2267 C   0  0  0  0  0  0  0  0  0  0  0  0
   27.6858   42.8024   25.4391 O   0  0  0  0  0  0  0  0  0  0  0  0
   27.4515   40.7306   26.2839 N   0  0  0  0  0  0  0  0  0  0  0  0
   27.3687   39.3698   26.0624 C   0  0  0  0  0  0  0  0  0  0  0  0
   27.4711   38.8742   24.7673 C   0  0  1  0  0  0  0  0  0  0  0  0
   27.1967   38.6012   27.0108 O   0  0  0  0  0  0  0  0  0  0  0  0
   27.4913   37.0250   23.2508 C   0  0  2  0  0  0  0  0  0  0  0  0
   27.3911   37.5150   24.5390 N   0  0  0  0  0  0  0  0  0  0  0  0
   27.4104   35.6511   23.0214 C   0  0  0  0  0  0  0  0  0  0  0  0
   27.5151   35.1473   21.7302 C   0  0  1  0  0  0  0  0  0  0  0  0
   27.4273   33.6684   21.5226 C   0  0  0  0  0  0  0  0  0  0  0  0
   27.6980   36.0261   20.6519 C   0  0  1  0  0  0  0  0  0  0  0  0
   27.8069   35.5225   19.2388 C   0  0  0  0  0  0  0  0  0  0  0  0
   27.7800   37.3966   20.8842 C   0  0  0  0  0  0  0  0  0  0  0  0
   27.6792   37.9035   22.1811 C   0  0  1  0  0  0  0  0  0  0  0  0
   27.6538   39.7550   23.7032 C   0  0  1  0  0  0  0  0  0  0  0  0
   27.7629   39.2679   22.4148 N   0  0  0  0  0  0  0  0  0  0  0  0
  1  2  1  6  0  0  0
  1  3  1  0  0  0  0
  1  4  2  0  0  0  0
  1  6  1  0  0  0  0
  5  6  1  0  0  0  0
  7  5  1  6  0  0  0
  7  8  1  0  0  0  0
  7  9  1  0  0  0  0
  9 10  1  6  0  0  0
  9 11  1  0  0  0  0
 11 12  1  6  0  0  0
 11 13  1  0  0  0  0
 13 31  1  0  0  0  0
 14 15  1  0  0  0  0
 15 16  2  0  0  0  0
 15 17  1  0  0  0  0
 17 18  1  0  0  0  0
 18 20  2  0  0  0  0
 19 18  1  6  0  0  0
 19 22  1  0  0  0  0
 19 30  1  0  0  0  0
 21 23  1  1  0  0  0
 21 29  1  0  0  0  0
 21 22  1  0  0  0  0
 23 24  1  0  0  0  0
 24 25  1  6  0  0  0
 24 26  1  0  0  0  0
 26 27  1  6  0  0  0
 26 28  1  0  0  0  0
 29 28  1  6  0  0  0
 29 31  1  0  0  0  0
 30 14  1  6  0  0  0
 30 31  1  0  0  0  0
M  CHG  1   3  -1
M  END
>  <CHROM.1>
-177.04640158,50.03986499,164.28323636,49.22599786,-39.15819681,161.39028890
88.81796392,27.14083127,40.33626910,20.89250315,2.95037699,1.43579621,-2.26111734

>  <Name>
ligand

>  <RI>
0

>  <Rbt.Current_Directory>
/home/itssahil/PROJECTS/Mol_Feturizer/New_Systems/rnas/3F2T

>  <Rbt.Executable>
rbdock ($Id: //depot/dev/client3/rdock/2013.1/src/exe/rbdock.cxx#4 $)

>  <Rbt.Library>
libRbt.so (2013.1, Build901 2013/11/27)

>  <Rbt.Parameter_File>
/export/apps/rDock/src/rDock_2013.1_src/data/scripts/dock_solv.prm

>  <Rbt.Receptor>
prm/blind_docking_100.prm

>  <SCORE>
-24.1912

>  <SCORE.INTER>
-25.3044

>  <SCORE.INTER.CONST>
1

>  <SCORE.INTER.POLAR>
0

>  <SCORE.INTER.ROT>
7

>  <SCORE.INTER.SOLV>
18.7463

>  <SCORE.INTER.VDW>
-31.385

>  <SCORE.INTER.norm>
-0.81627

>  <SCORE.INTRA>
1.11317

>  <SCORE.INTRA.DIHEDRAL>
0.788796

>  <SCORE.INTRA.DIHEDRAL.0>
4.64198

>  <SCORE.INTRA.POLAR>
0

>  <SCORE.INTRA.POLAR.0>
0

>  <SCORE.INTRA.REPUL>
0

>  <SCORE.INTRA.REPUL.0>
0

>  <SCORE.INTRA.SOLV>
0.10614

>  <SCORE.INTRA.SOLV.lig_0>
-49.3611

>  <SCORE.INTRA.VDW>
0.665704

>  <SCORE.INTRA.VDW.0>
-1.91858

>  <SCORE.INTRA.norm>
0.0359088

>  <SCORE.RESTR>
0

>  <SCORE.RESTR.CAVITY>
0

>  <SCORE.RESTR.norm>
0

>  <SCORE.SYSTEM>
0

>  <SCORE.SYSTEM.CONST>
0

>  <SCORE.SYSTEM.DIHEDRAL>
0

>  <SCORE.SYSTEM.SOLV>
0

>  <SCORE.SYSTEM.norm>
0

>  <SCORE.heavy>
31

>  <SCORE.norm>
-0.780361

>  <RMSD>
5.405

$$$$
ligand
 OpenBabel11021811473D
libRbt.so/2013.1/901 2013/11/27
 31 33  0  0  0  0  0  0  0  0999 V2000
   25.7956   42.8877   16.7428 P   0  0  1  0  0  0  0  0  0  0  0  0
   26.5882   42.4509   15.5370 O   0  0  0  0  0  0  0  0  0  0  0  0
   26.5402   44.0001   17.4323 O   0  5  0  0  0  0  0  0  0  0  0  0
   24.4520   43.3331   16.2345 O   0  0  0  0  0  0  0  0  0  0  0  0
   26.4480   41.5598   18.9066 C   0  0  0  0  0  0  0  0  0  0  0  0
   25.5728   41.7069   17.8078 O   0  0  0  0  0  0  0  0  0  0  0  0
   27.7245   40.8633   18.4423 C   0  0  1  0  0  0  0  0  0  0  0  0
   28.2424   41.5244   17.3050 O   0  0  0  0  0  0  0  0  0  0  0  0
   28.7652   40.8940   19.5490 C   0  0  1  0  0  0  0  0  0  0  0  0
   28.6614   42.1202   20.2220 O   0  0  0  0  0  0  0  0  0  0  0  0
   28.5862   39.7663   20.5515 C   0  0  1  0  0  0  0  0  0  0  0  0
   29.6680   39.7946   21.4431 O   0  0  0  0  0  0  0  0  0  0  0  0
   27.2917   39.9327   21.3300 C   0  0  0  0  0  0  0  0  0  0  0  0
   27.3141   40.9163   23.9667 N   0  0  0  0  0  0  0  0  0  0  0  0
   27.3846   41.4464   25.2367 C   0  0  0  0  0  0  0  0  0  0  0  0
   27.3608   42.6630   25.3985 O   0  0  0  0  0  0  0  0  0  0  0  0
   27.4845   40.6204   26.3329 N   0  0  0  0  0  0  0  0  0  0  0  0
   27.5034   39.2489   26.1701 C   0  0  0  0  0  0  0  0  0  0  0  0
   27.4336   38.7049   24.8924 C   0  0  1  0  0  0  0  0  0  0  0  0
   27.5741   38.5129   27.1565 O   0  0  0  0  0  0  0  0  0  0  0  0
   27.3825   36.7967   23.4516 C   0  0  2  0  0  0  0  0  0  0  0  0
   27.4539   37.3350   24.7223 N   0  0  0  0  0  0  0  0  0  0  0  0
   27.4032   35.4120   23.2810 C   0  0  0  0  0  0  0  0  0  0  0  0
   27.3371   34.8602   22.0071 C   0  0  1  0  0  0  0  0  0  0  0  0
   27.3655   33.3715   21.8623 C   0  0  0  0  0  0  0  0  0  0  0  0
   27.2440   35.7008   20.8875 C   0  0  1  0  0  0  0  0  0  0  0  0
   27.1612   35.1439   19.4928 C   0  0  0  0  0  0  0  0  0  0  0  0
   27.2251   37.0822   21.0608 C   0  0  0  0  0  0  0  0  0  0  0  0
   27.2957   37.6377   22.3397 C   0  0  1  0  0  0  0  0  0  0  0  0
   27.3424   39.5480   23.7868 C   0  0  1  0  0  0  0  0  0  0  0  0
   27.2794   39.0134   22.5142 N   0  0  0  0  0  0  0  0  0  0  0  0
  1  2  1  6  0  0  0
  1  3  1  0  0  0  0
  1  4  2  0  0  0  0
  1  6  1  0  0  0  0
  5  6  1  0  0  0  0
  7  5  1  1  0  0  0
  7  8  1  0  0  0  0
  7  9  1  0  0  0  0
  9 10  1  1  0  0  0
  9 11  1  0  0  0  0
 11 12  1  1  0  0  0
 11 13  1  0  0  0  0
 13 31  1  0  0  0  0
 14 15  1  0  0  0  0
 15 16  2  0  0  0  0
 15 17  1  0  0  0  0
 17 18  1  0  0  0  0
 18 20  2  0  0  0  0
 19 18  1  1  0  0  0
 19 22  1  0  0  0  0
 19 30  1  0  0  0  0
 21 23  1  6  0  0  0
 21 29  1  0  0  0  0
 21 22  1  0  0  0  0
 23 24  1  0  0  0  0
 24 25  1  1  0  0  0
 24 26  1  0  0  0  0
 26 27  1  1  0  0  0
 26 28  1  0  0  0  0
 29 28  1  1  0  0  0
 29 31  1  0  0  0  0
 30 14  1  1  0  0  0
 30 31  1  0  0  0  0
M  CHG  1   3  -1
M  END
>  <CHROM.1>
-79.46322697,94.95585658,51.05936672,-36.67198378,173.79471507,-166.93777623
-63.67844703,27.24693523,39.78277160,21.16837347,-2.98352410,1.44221235,-2.71424187

>  <Name>
ligand

>  <RI>
0

>  <Rbt.Current_Directory>
/home/itssahil/PROJECTS/Mol_Feturizer/New_Systems/rnas/3F2T

>  <Rbt.Executable>
rbdock ($Id: //depot/dev/client3/rdock/2013.1/src/exe/rbdock.cxx#4 $)

>  <Rbt.Library>
libRbt.so (2013.1, Build901 2013/11/27)

>  <Rbt.Parameter_File>
/export/apps/rDock/src/rDock_2013.1_src/data/scripts/dock_solv.prm

>  <Rbt.Receptor>
prm/pocket_docking_8.prm

>  <SCORE>
-16.9465

>  <SCORE.INTER>
-22.2089

>  <SCORE.INTER.CONST>
1

>  <SCORE.INTER.POLAR>
0

>  <SCORE.INTER.ROT>
7

>  <SCORE.INTER.SOLV>
16.6635

>  <SCORE.INTER.VDW>
-28.6271

>  <SCORE.INTER.norm>
-0.716415

>  <SCORE.INTRA>
5.26233

>  <SCORE.INTRA.DIHEDRAL>
2.49041

>  <SCORE.INTRA.DIHEDRAL.0>
4.64198

>  <SCORE.INTRA.POLAR>
0

>  <SCORE.INTRA.POLAR.0>
0

>  <SCORE.INTRA.REPUL>
0

>  <SCORE.INTRA.REPUL.0>
0

>  <SCORE.INTRA.SOLV>
2.19251

>  <SCORE.INTRA.SOLV.lig_0>
-49.3611

>  <SCORE.INTRA.VDW>
2.92087

>  <SCORE.INTRA.VDW.0>
-1.91858

>  <SCORE.INTRA.norm>
0.169753

>  <SCORE.RESTR>
0

>  <SCORE.RESTR.CAVITY>
0

>  <SCORE.RESTR.norm>
0

>  <SCORE.SYSTEM>
0

>  <SCORE.SYSTEM.CONST>
0

>  <SCORE.SYSTEM.DIHEDRAL>
0

>  <SCORE.SYSTEM.SOLV>
0

>  <SCORE.SYSTEM.norm>
0

>  <SCORE.heavy>
31

>  <SCORE.norm>
-0.546663

>  <RMSD>
5.407

$$$$
ligand
 OpenBabel11021811473D
libRbt.so/2013.1/901 2013/11/27
 31 33  0  0  0  0  0  0  0  0999 V2000
   28.1865   34.7088   12.8572 P   0  0  1  0  0  0  0  0  0  0  0  0
   28.2143   35.3936   11.5143 O   0  0  0  0  0  0  0  0  0  0  0  0
   26.8856   33.9625   12.9912 O   0  5  0  0  0  0  0  0  0  0  0  0
   29.3757   33.7887   12.8939 O   0  0  0  0  0  0  0  0  0  0  0  0
   28.4716   35.2575   15.4044 C   0  0  0  0  0  0  0  0  0  0  0  0
   28.2970   35.7355   14.0868 O   0  0  0  0  0  0  0  0  0  0  0  0
   28.5646   36.4436   16.3608 C   0  0  1  0  0  0  0  0  0  0  0  0
   27.3024   37.0716   16.4667 O   0  0  0  0  0  0  0  0  0  0  0  0
   28.9978   35.9684   17.7375 C   0  0  1  0  0  0  0  0  0  0  0  0
   30.2563   35.3601   17.6213 O   0  0  0  0  0  0  0  0  0  0  0  0
   29.0909   37.1021   18.7449 C   0  0  1  0  0  0  0  0  0  0  0  0
   29.6832   38.2046   18.1128 O   0  0  0  0  0  0  0  0  0  0  0  0
   27.7120   37.4953   19.2484 C   0  0  0  0  0  0  0  0  0  0  0  0
   27.4844   35.5583   21.2772 N   0  0  0  0  0  0  0  0  0  0  0  0
   27.3094   34.5807   22.2325 C   0  0  0  0  0  0  0  0  0  0  0  0
   27.1966   33.4052   21.8973 O   0  0  0  0  0  0  0  0  0  0  0  0
   27.2571   34.9111   23.5674 N   0  0  0  0  0  0  0  0  0  0  0  0
   27.3915   36.2276   23.9632 C   0  0  0  0  0  0  0  0  0  0  0  0
   27.5676   37.2210   23.0063 C   0  0  1  0  0  0  0  0  0  0  0  0
   27.3628   36.5161   25.1613 O   0  0  0  0  0  0  0  0  0  0  0  0
   27.8775   39.5243   22.4421 C   0  0  2  0  0  0  0  0  0  0  0  0
   27.7007   38.5390   23.3947 N   0  0  0  0  0  0  0  0  0  0  0  0
   28.0117   40.8561   22.8360 C   0  0  0  0  0  0  0  0  0  0  0  0
   28.1848   41.8555   21.8857 C   0  0  1  0  0  0  0  0  0  0  0  0
   28.3217   43.2728   22.3447 C   0  0  0  0  0  0  0  0  0  0  0  0
   28.2298   41.5219   20.5236 C   0  0  1  0  0  0  0  0  0  0  0  0
   28.4246   42.5719   19.4645 C   0  0  0  0  0  0  0  0  0  0  0  0
   28.0938   40.1921   20.1336 C   0  0  0  0  0  0  0  0  0  0  0  0
   27.9157   39.1879   21.0869 C   0  0  1  0  0  0  0  0  0  0  0  0
   27.6098   36.8796   21.6561 C   0  0  1  0  0  0  0  0  0  0  0  0
   27.7778   37.8633   20.7003 N   0  0  0  0  0  0  0  0  0  0  0  0
  1  2  1  6  0  0  0
  1  3  1  0  0  0  0
  1  4  2  0  0  0  0
  1  6  1  0  0  0  0
  5  6  1  0  0  0  0
  7  5  1  6  0  0  0
  7  8  1  0  0  0  0
  7  9  1  0  0  0  0
  9 10  1  6  0  0  0
  9 11  1  0  0  0  0
 11 12  1  6  0  0  0
 11 13  1  0  0  0  0
 13 31  1  0  0  0  0
 14 15  1  0  0  0  0
 15 16  2  0  0  0  0
 15 17  1  0  0  0  0
 17 18  1  0  0  0  0
 18 20  2  0  0  0  0
 19 18  1  1  0  0  0
 19 22  1  0  0  0  0
 19 30  1  0  0  0  0
 21 23  1  6  0  0  0
 21 29  1  0  0  0  0
 21 22  1  0  0  0  0
 23 24  1  0  0  0  0
 24 25  1  1  0  0  0
 24 26  1  0  0  0  0
 26 27  1  1  0  0  0
 26 28  1  0  0  0  0
 29 28  1  1  0  0  0
 29 31  1  0  0  0  0
 30 14  1  1  0  0  0
 30 31  1  0  0  0  0
M  CHG  1   3  -1
M  END
>  <CHROM.1>
179.17905542,-171.25486125,70.14641000,60.24520069,-41.67303846,143.49626478
95.25566468,28.10851251,37.12099007,18.95679457,-1.18524258,1.42704670,0.77677668

>  <Name>
ligand

>  <RI>
0

>  <Rbt.Current_Directory>
/home/itssahil/PROJECTS/Mol_Feturizer/New_Systems/rnas/3F2T

>  <Rbt.Executable>
rbdock ($Id: //depot/dev/client3/rdock/2013.1/src/exe/rbdock.cxx#4 $)

>  <Rbt.Library>
libRbt.so (2013.1, Build901 2013/11/27)

>  <Rbt.Parameter_File>
/export/apps/rDock/src/rDock_2013.1_src/data/scripts/dock_solv.prm

>  <Rbt.Receptor>
prm/pocket_docking_8.prm

>  <SCORE>
-20.1485

>  <SCORE.INTER>
-21.6621

>  <SCORE.INTER.CONST>
1

>  <SCORE.INTER.POLAR>
0

>  <SCORE.INTER.ROT>
7

>  <SCORE.INTER.SOLV>
10.6067

>  <SCORE.INTER.VDW>
-26.2436

>  <SCORE.INTER.norm>
-0.698778

>  <SCORE.INTRA>
1.51367

>  <SCORE.INTRA.DIHEDRAL>
1.82936

>  <SCORE.INTRA.DIHEDRAL.0>
4.64198

>  <SCORE.INTRA.POLAR>
0

>  <SCORE.INTRA.POLAR.0>
0

>  <SCORE.INTRA.REPUL>
0

>  <SCORE.INTRA.REPUL.0>
0

>  <SCORE.INTRA.SOLV>
0.000345341

>  <SCORE.INTRA.SOLV.lig_0>
-49.3611

>  <SCORE.INTRA.VDW>
0.598814

>  <SCORE.INTRA.VDW.0>
-1.91858

>  <SCORE.INTRA.norm>
0.048828

>  <SCORE.RESTR>
0

>  <SCORE.RESTR.CAVITY>
0

>  <SCORE.RESTR.norm>
0

>  <SCORE.SYSTEM>
0

>  <SCORE.SYSTEM.CONST>
0

>  <SCORE.SYSTEM.DIHEDRAL>
0

>  <SCORE.SYSTEM.SOLV>
0

>  <SCORE.SYSTEM.norm>
0

>  <SCORE.heavy>
31

>  <SCORE.norm>
-0.64995

>  <RMSD>
5.435

$$$$
ligand
 OpenBabel11021811473D
libRbt.so/2013.1/901 2013/11/27
 31 33  0  0  0  0  0  0  0  0999 V2000
   24.4971   44.4225   15.9082 P   0  0  1  0  0  0  0  0  0  0  0  0
   23.6317   44.3458   14.6760 O   0  0  0  0  0  0  0  0  0  0  0  0
   25.6276   45.3814   15.6447 O   0  5  0  0  0  0  0  0  0  0  0  0
   23.6077   44.8868   17.0286 O   0  0  0  0  0  0  0  0  0  0  0  0
   26.0120   42.9070   17.4179 C   0  0  0  0  0  0  0  0  0  0  0  0
   25.1344   43.0061   16.3157 O   0  0  0  0  0  0  0  0  0  0  0  0
   26.4724   41.4590   17.5649 C   0  0  1  0  0  0  0  0  0  0  0  0
   27.0560   41.0185   16.3549 O   0  0  0  0  0  0  0  0  0  0  0  0
   27.5007   41.3511   18.6783 C   0  0  1  0  0  0  0  0  0  0  0  0
   26.9166   41.8101   19.8680 O   0  0  0  0  0  0  0  0  0  0  0  0
   27.9886   39.9274   18.8876 C   0  0  1  0  0  0  0  0  0  0  0  0
   28.4603   39.4392   17.6608 O   0  0  0  0  0  0  0  0  0  0  0  0
   29.1130   39.8837   19.9091 C   0  0  0  0  0  0  0  0  0  0  0  0
   28.8511   41.8025   21.9510 N   0  0  0  0  0  0  0  0  0  0  0  0
   28.7971   42.7657   22.9349 C   0  0  0  0  0  0  0  0  0  0  0  0
   29.1015   43.9268   22.6776 O   0  0  0  0  0  0  0  0  0  0  0  0
   28.4051   42.4368   24.2125 N   0  0  0  0  0  0  0  0  0  0  0  0
   28.0503   41.1372   24.5175 C   0  0  0  0  0  0  0  0  0  0  0  0
   28.1024   40.1584   23.5314 C   0  0  1  0  0  0  0  0  0  0  0  0
   27.6819   40.8516   25.6587 O   0  0  0  0  0  0  0  0  0  0  0  0
   27.8018   37.8864   22.8477 C   0  0  2  0  0  0  0  0  0  0  0  0
   27.7510   38.8571   23.8298 N   0  0  0  0  0  0  0  0  0  0  0  0
   27.4464   36.5716   23.1507 C   0  0  0  0  0  0  0  0  0  0  0  0
   27.4989   35.5864   22.1716 C   0  0  1  0  0  0  0  0  0  0  0  0
   27.1141   34.1869   22.5337 C   0  0  0  0  0  0  0  0  0  0  0  0
   27.9066   35.9179   20.8706 C   0  0  1  0  0  0  0  0  0  0  0  0
   27.9683   34.8838   19.7801 C   0  0  0  0  0  0  0  0  0  0  0  0
   28.2621   37.2306   20.5717 C   0  0  0  0  0  0  0  0  0  0  0  0
   28.2139   38.2200   21.5553 C   0  0  1  0  0  0  0  0  0  0  0  0
   28.5096   40.4973   22.2427 C   0  0  1  0  0  0  0  0  0  0  0  0
   28.5698   39.5275   21.2602 N   0  0  0  0  0  0  0  0  0  0  0  0
  1  2  1  6  0  0  0
  1  3  1  0  0  0  0
  1  4  2  0  0  0  0
  1  6  1  0  0  0  0
  5  6  1  0  0  0  0
  7  5  1  6  0  0  0
  7  8  1  0  0  0  0
  7  9  1  0  0  0  0
  9 10  1  1  0  0  0
  9 11  1  0  0  0  0
 11 12  1  6  0  0  0
 11 13  1  0  0  0  0
 13 31  1  0  0  0  0
 14 15  1  0  0  0  0
 15 16  2  0  0  0  0
 15 17  1  0  0  0  0
 17 18  1  0  0  0  0
 18 20  2  0  0  0  0
 19 18  1  6  0  0  0
 19 22  1  0  0  0  0
 19 30  1  0  0  0  0
 21 23  1  1  0  0  0
 21 29  1  0  0  0  0
 21 22  1  0  0  0  0
 23 24  1  0  0  0  0
 24 25  1  6  0  0  0
 24 26  1  0  0  0  0
 26 27  1  6  0  0  0
 26 28  1  0  0  0  0
 29 28  1  6  0  0  0
 29 31  1  0  0  0  0
 30 14  1  6  0  0  0
 30 31  1  0  0  0  0
M  CHG  1   3  -1
M  END
>  <CHROM.1>
-179.44253519,177.65045633,55.71629019,58.73755242,54.45866229,97.03635969
76.03598918,27.17808394,40.69231978,20.07125864,2.72277861,-1.21299316,0.30078237

>  <Name>
ligand

>  <RI>
0

>  <Rbt.Current_Directory>
/home/itssahil/PROJECTS/Mol_Feturizer/New_Systems/rnas/3F2T

>  <Rbt.Executable>
rbdock ($Id: //depot/dev/client3/rdock/2013.1/src/exe/rbdock.cxx#4 $)

>  <Rbt.Library>
libRbt.so (2013.1, Build901 2013/11/27)

>  <Rbt.Parameter_File>
/export/apps/rDock/src/rDock_2013.1_src/data/scripts/dock_solv.prm

>  <Rbt.Receptor>
prm/pocket_docking_5.prm

>  <SCORE>
-24.5897

>  <SCORE.INTER>
-25.2217

>  <SCORE.INTER.CONST>
1

>  <SCORE.INTER.POLAR>
0

>  <SCORE.INTER.ROT>
7

>  <SCORE.INTER.SOLV>
17.7864

>  <SCORE.INTER.VDW>
-31.0099

>  <SCORE.INTER.norm>
-0.813603

>  <SCORE.INTRA>
0.632008

>  <SCORE.INTRA.DIHEDRAL>
0.448881

>  <SCORE.INTRA.DIHEDRAL.0>
4.64198

>  <SCORE.INTRA.POLAR>
0

>  <SCORE.INTRA.POLAR.0>
0

>  <SCORE.INTRA.REPUL>
0

>  <SCORE.INTRA.REPUL.0>
0

>  <SCORE.INTRA.SOLV>
0.1483

>  <SCORE.INTRA.SOLV.lig_0>
-49.3611

>  <SCORE.INTRA.VDW>
0.333417

>  <SCORE.INTRA.VDW.0>
-1.91858

>  <SCORE.INTRA.norm>
0.0203873

>  <SCORE.RESTR>
0

>  <SCORE.RESTR.CAVITY>
0

>  <SCORE.RESTR.norm>
0

>  <SCORE.SYSTEM>
0

>  <SCORE.SYSTEM.CONST>
0

>  <SCORE.SYSTEM.DIHEDRAL>
0

>  <SCORE.SYSTEM.SOLV>
0

>  <SCORE.SYSTEM.norm>
0

>  <SCORE.heavy>
31

>  <SCORE.norm>
-0.793216

>  <RMSD>
5.444

$$$$
ligand
 OpenBabel11021811473D
libRbt.so/2013.1/901 2013/11/27
 31 33  0  0  0  0  0  0  0  0999 V2000
   29.0673   42.1057   16.5432 P   0  0  1  0  0  0  0  0  0  0  0  0
   30.4006   42.0839   15.8397 O   0  0  0  0  0  0  0  0  0  0  0  0
   28.2185   43.1901   15.9344 O   0  5  0  0  0  0  0  0  0  0  0  0
   28.4631   40.7408   16.3594 O   0  0  0  0  0  0  0  0  0  0  0  0
   28.0390   42.4608   18.9280 C   0  0  0  0  0  0  0  0  0  0  0  0
   29.1935   42.4006   18.1166 O   0  0  0  0  0  0  0  0  0  0  0  0
   28.4440   42.2979   20.3908 C   0  0  1  0  0  0  0  0  0  0  0  0
   28.9133   43.5319   20.8965 O   0  0  0  0  0  0  0  0  0  0  0  0
   27.2487   41.8483   21.2141 C   0  0  1  0  0  0  0  0  0  0  0  0
   26.1496   42.6512   20.8758 O   0  0  0  0  0  0  0  0  0  0  0  0
   26.8868   40.3924   20.9728 C   0  0  1  0  0  0  0  0  0  0  0  0
   26.6797   40.2128   19.5977 O   0  0  0  0  0  0  0  0  0  0  0  0
   28.0039   39.4716   21.4350 C   0  0  0  0  0  0  0  0  0  0  0  0
   27.2301   40.5143   23.9318 N   0  0  0  0  0  0  0  0  0  0  0  0
   26.9183   41.0678   25.1546 C   0  0  0  0  0  0  0  0  0  0  0  0
   26.9468   42.2858   25.3046 O   0  0  0  0  0  0  0  0  0  0  0  0
   26.5751   40.2635   26.2173 N   0  0  0  0  0  0  0  0  0  0  0  0
   26.5290   38.8915   26.0639 C   0  0  0  0  0  0  0  0  0  0  0  0
   26.8428   38.3240   24.8339 C   0  0  1  0  0  0  0  0  0  0  0  0
   26.2028   38.1767   27.0137 O   0  0  0  0  0  0  0  0  0  0  0  0
   27.1110   36.3918   23.4503 C   0  0  2  0  0  0  0  0  0  0  0  0
   26.8005   36.9534   24.6741 N   0  0  0  0  0  0  0  0  0  0  0  0
   27.0680   35.0064   23.2901 C   0  0  0  0  0  0  0  0  0  0  0  0
   27.3834   34.4309   22.0649 C   0  0  1  0  0  0  0  0  0  0  0  0
   27.3300   32.9419   21.9312 C   0  0  0  0  0  0  0  0  0  0  0  0
   27.7419   35.2486   20.9825 C   0  0  1  0  0  0  0  0  0  0  0  0
   28.0815   34.6664   19.6379 C   0  0  0  0  0  0  0  0  0  0  0  0
   27.7855   36.6306   21.1459 C   0  0  0  0  0  0  0  0  0  0  0  0
   27.4730   37.2096   22.3772 C   0  0  1  0  0  0  0  0  0  0  0  0
   27.1987   39.1444   23.7654 C   0  0  1  0  0  0  0  0  0  0  0  0
   27.5181   38.5858   22.5426 N   0  0  0  0  0  0  0  0  0  0  0  0
  1  2  1  6  0  0  0
  1  3  1  0  0  0  0
  1  4  2  0  0  0  0
  1  6  1  0  0  0  0
  5  6  1  0  0  0  0
  7  5  1  6  0  0  0
  7  8  1  0  0  0  0
  7  9  1  0  0  0  0
  9 10  1  6  0  0  0
  9 11  1  0  0  0  0
 11 12  1  6  0  0  0
 11 13  1  0  0  0  0
 13 31  1  0  0  0  0
 14 15  1  0  0  0  0
 15 16  2  0  0  0  0
 15 17  1  0  0  0  0
 17 18  1  0  0  0  0
 18 20  2  0  0  0  0
 19 18  1  6  0  0  0
 19 22  1  0  0  0  0
 19 30  1  0  0  0  0
 21 23  1  1  0  0  0
 21 29  1  0  0  0  0
 21 22  1  0  0  0  0
 23 24  1  0  0  0  0
 24 25  1  6  0  0  0
 24 26  1  0  0  0  0
 26 27  1  6  0  0  0
 26 28  1  0  0  0  0
 29 28  1  6  0  0  0
 29 31  1  0  0  0  0
 30 14  1  6  0  0  0
 30 31  1  0  0  0  0
M  CHG  1   3  -1
M  END
>  <CHROM.1>
161.80377474,179.78524053,80.95502122,-46.96119255,-55.36986657,117.35879374
116.91373060,27.65032593,39.61128011,21.32800688,-0.56516868,-1.32475132
-3.07735667

>  <Name>
ligand

>  <RI>
0

>  <Rbt.Current_Directory>
/home/itssahil/PROJECTS/Mol_Feturizer/New_Systems/rnas/3F2T

>  <Rbt.Executable>
rbdock ($Id: //depot/dev/client3/rdock/2013.1/src/exe/rbdock.cxx#4 $)

>  <Rbt.Library>
libRbt.so (2013.1, Build901 2013/11/27)

>  <Rbt.Parameter_File>
/export/apps/rDock/src/rDock_2013.1_src/data/scripts/dock_solv.prm

>  <Rbt.Receptor>
prm/pocket_docking_6.prm

>  <SCORE>
-25.4779

>  <SCORE.INTER>
-29.966

>  <SCORE.INTER.CONST>
1

>  <SCORE.INTER.POLAR>
0

>  <SCORE.INTER.ROT>
7

>  <SCORE.INTER.SOLV>
22.3418

>  <SCORE.INTER.VDW>
-35.6912

>  <SCORE.INTER.norm>
-0.966644

>  <SCORE.INTRA>
4.48806

>  <SCORE.INTRA.DIHEDRAL>
5.4847

>  <SCORE.INTRA.DIHEDRAL.0>
4.64198

>  <SCORE.INTRA.POLAR>
0

>  <SCORE.INTRA.POLAR.0>
0

>  <SCORE.INTRA.REPUL>
0

>  <SCORE.INTRA.REPUL.0>
0

>  <SCORE.INTRA.SOLV>
0.290982

>  <SCORE.INTRA.SOLV.lig_0>
-49.3611

>  <SCORE.INTRA.VDW>
1.60022

>  <SCORE.INTRA.VDW.0>
-1.91858

>  <SCORE.INTRA.norm>
0.144776

>  <SCORE.RESTR>
0

>  <SCORE.RESTR.CAVITY>
0

>  <SCORE.RESTR.norm>
0

>  <SCORE.SYSTEM>
0

>  <SCORE.SYSTEM.CONST>
0

>  <SCORE.SYSTEM.DIHEDRAL>
0

>  <SCORE.SYSTEM.SOLV>
0

>  <SCORE.SYSTEM.norm>
0

>  <SCORE.heavy>
31

>  <SCORE.norm>
-0.821867

>  <RMSD>
5.484

$$$$
ligand
 OpenBabel11021811473D
libRbt.so/2013.1/901 2013/11/27
 31 33  0  0  0  0  0  0  0  0999 V2000
   25.4728   33.8892   14.8324 P   0  0  1  0  0  0  0  0  0  0  0  0
   26.1809   32.5915   15.1286 O   0  0  0  0  0  0  0  0  0  0  0  0
   25.5919   34.1783   13.3596 O   0  5  0  0  0  0  0  0  0  0  0  0
   24.0430   33.7050   15.2614 O   0  0  0  0  0  0  0  0  0  0  0  0
   27.3431   35.6736   15.2658 C   0  0  0  0  0  0  0  0  0  0  0  0
   26.0895   35.1368   15.6332 O   0  0  0  0  0  0  0  0  0  0  0  0
   27.8212   36.6267   16.3582 C   0  0  1  0  0  0  0  0  0  0  0  0
   26.8292   37.6026   16.6079 O   0  0  0  0  0  0  0  0  0  0  0  0
   28.0901   35.8556   17.6396 C   0  0  1  0  0  0  0  0  0  0  0  0
   29.0729   34.8896   17.3782 O   0  0  0  0  0  0  0  0  0  0  0  0
   28.5686   36.7501   18.7708 C   0  0  1  0  0  0  0  0  0  0  0  0
   29.5623   37.6018   18.2678 O   0  0  0  0  0  0  0  0  0  0  0  0
   27.4255   37.5858   19.3225 C   0  0  0  0  0  0  0  0  0  0  0  0
   27.3450   35.6158   21.3306 N   0  0  0  0  0  0  0  0  0  0  0  0
   27.2368   34.6258   22.2829 C   0  0  0  0  0  0  0  0  0  0  0  0
   27.0311   33.4643   21.9432 O   0  0  0  0  0  0  0  0  0  0  0  0
   27.3553   34.9282   23.6202 N   0  0  0  0  0  0  0  0  0  0  0  0
   27.5960   36.2283   24.0200 C   0  0  0  0  0  0  0  0  0  0  0  0
   27.7060   37.2341   23.0662 C   0  0  1  0  0  0  0  0  0  0  0  0
   27.7202   36.4908   25.2180 O   0  0  0  0  0  0  0  0  0  0  0  0
   28.0553   39.5334   22.5090 C   0  0  2  0  0  0  0  0  0  0  0  0
   27.9446   38.5359   23.4588 N   0  0  0  0  0  0  0  0  0  0  0  0
   28.2964   40.8488   22.9072 C   0  0  0  0  0  0  0  0  0  0  0  0
   28.4043   41.8606   21.9604 C   0  0  1  0  0  0  0  0  0  0  0  0
   28.6595   43.2598   22.4243 C   0  0  0  0  0  0  0  0  0  0  0  0
   28.2751   41.5559   20.5969 C   0  0  1  0  0  0  0  0  0  0  0  0
   28.3943   42.6197   19.5403 C   0  0  0  0  0  0  0  0  0  0  0  0
   28.0329   40.2426   20.2028 C   0  0  0  0  0  0  0  0  0  0  0  0
   27.9201   39.2261   21.1531 C   0  0  1  0  0  0  0  0  0  0  0  0
   27.5750   36.9215   21.7146 C   0  0  1  0  0  0  0  0  0  0  0  0
   27.6766   37.9179   20.7627 N   0  0  0  0  0  0  0  0  0  0  0  0
  1  2  1  1  0  0  0
  1  3  1  0  0  0  0
  1  4  2  0  0  0  0
  1  6  1  0  0  0  0
  5  6  1  0  0  0  0
  7  5  1  6  0  0  0
  7  8  1  0  0  0  0
  7  9  1  0  0  0  0
  9 10  1  6  0  0  0
  9 11  1  0  0  0  0
 11 12  1  6  0  0  0
 11 13  1  0  0  0  0
 13 31  1  0  0  0  0
 14 15  1  0  0  0  0
 15 16  2  0  0  0  0
 15 17  1  0  0  0  0
 17 18  1  0  0  0  0
 18 20  2  0  0  0  0
 19 18  1  6  0  0  0
 19 22  1  0  0  0  0
 19 30  1  0  0  0  0
 21 23  1  1  0  0  0
 21 29  1  0  0  0  0
 21 22  1  0  0  0  0
 23 24  1  0  0  0  0
 24 25  1  6  0  0  0
 24 26  1  0  0  0  0
 26 27  1  6  0  0  0
 26 28  1  0  0  0  0
 29 28  1  6  0  0  0
 29 31  1  0  0  0  0
 30 14  1  6  0  0  0
 30 31  1  0  0  0  0
M  CHG  1   3  -1
M  END
>  <CHROM.1>
-167.73429465,72.67645062,-54.39485274,59.52010861,-46.24678132,152.15356771
112.83511787,27.40692301,36.94849555,19.40629494,-2.66819259,1.32132119,2.03101124

>  <Name>
ligand

>  <RI>
0

>  <Rbt.Current_Directory>
/home/itssahil/PROJECTS/Mol_Feturizer/New_Systems/rnas/3F2T

>  <Rbt.Executable>
rbdock ($Id: //depot/dev/client3/rdock/2013.1/src/exe/rbdock.cxx#4 $)

>  <Rbt.Library>
libRbt.so (2013.1, Build901 2013/11/27)

>  <Rbt.Parameter_File>
/export/apps/rDock/src/rDock_2013.1_src/data/scripts/dock_solv.prm

>  <Rbt.Receptor>
prm/pocket_docking_6.prm

>  <SCORE>
-20.3923

>  <SCORE.INTER>
-21.5209

>  <SCORE.INTER.CONST>
1

>  <SCORE.INTER.POLAR>
0

>  <SCORE.INTER.ROT>
7

>  <SCORE.INTER.SOLV>
13.6146

>  <SCORE.INTER.VDW>
-27.1522

>  <SCORE.INTER.norm>
-0.694223

>  <SCORE.INTRA>
1.12865

>  <SCORE.INTRA.DIHEDRAL>
0.68759

>  <SCORE.INTRA.DIHEDRAL.0>
4.64198

>  <SCORE.INTRA.POLAR>
0

>  <SCORE.INTRA.POLAR.0>
0

>  <SCORE.INTRA.REPUL>
0

>  <SCORE.INTRA.REPUL.0>
0

>  <SCORE.INTRA.SOLV>
-0.162663

>  <SCORE.INTRA.SOLV.lig_0>
-49.3611

>  <SCORE.INTRA.VDW>
0.866186

>  <SCORE.INTRA.VDW.0>
-1.91858

>  <SCORE.INTRA.norm>
0.0364081

>  <SCORE.RESTR>
0

>  <SCORE.RESTR.CAVITY>
0

>  <SCORE.RESTR.norm>
0

>  <SCORE.SYSTEM>
0

>  <SCORE.SYSTEM.CONST>
0

>  <SCORE.SYSTEM.DIHEDRAL>
0

>  <SCORE.SYSTEM.SOLV>
0

>  <SCORE.SYSTEM.norm>
0

>  <SCORE.heavy>
31

>  <SCORE.norm>
-0.657815

>  <RMSD>
5.488

$$$$
ligand
 OpenBabel11021811473D
libRbt.so/2013.1/901 2013/11/27
 31 33  0  0  0  0  0  0  0  0999 V2000
   32.7003   36.2578   17.2252 P   0  0  1  0  0  0  0  0  0  0  0  0
   32.8126   37.4252   16.2777 O   0  0  0  0  0  0  0  0  0  0  0  0
   33.4398   35.0859   16.6365 O   0  5  0  0  0  0  0  0  0  0  0  0
   33.2952   36.7071   18.5315 O   0  0  0  0  0  0  0  0  0  0  0  0
   30.3455   35.4523   16.4025 C   0  0  0  0  0  0  0  0  0  0  0  0
   31.1817   35.8051   17.4847 O   0  0  0  0  0  0  0  0  0  0  0  0
   28.9624   35.0867   16.9347 C   0  0  1  0  0  0  0  0  0  0  0  0
   29.0922   34.2432   18.0618 O   0  0  0  0  0  0  0  0  0  0  0  0
   28.2129   36.3443   17.3416 C   0  0  1  0  0  0  0  0  0  0  0  0
   26.8366   36.0879   17.2562 O   0  0  0  0  0  0  0  0  0  0  0  0
   28.5431   36.7898   18.7563 C   0  0  1  0  0  0  0  0  0  0  0  0
   29.7637   37.4791   18.7267 O   0  0  0  0  0  0  0  0  0  0  0  0
   27.4627   37.7088   19.3019 C   0  0  0  0  0  0  0  0  0  0  0  0
   27.3624   35.6541   21.2224 N   0  0  0  0  0  0  0  0  0  0  0  0
   27.2447   34.6241   22.1301 C   0  0  0  0  0  0  0  0  0  0  0  0
   27.0417   33.4785   21.7387 O   0  0  0  0  0  0  0  0  0  0  0  0
   27.3509   34.8684   23.4803 N   0  0  0  0  0  0  0  0  0  0  0  0
   27.5885   36.1498   23.9379 C   0  0  0  0  0  0  0  0  0  0  0  0
   27.7079   37.1957   23.0295 C   0  0  1  0  0  0  0  0  0  0  0  0
   27.7015   36.3604   25.1472 O   0  0  0  0  0  0  0  0  0  0  0  0
   28.0635   39.5166   22.5752 C   0  0  2  0  0  0  0  0  0  0  0  0
   27.9434   38.4792   23.4801 N   0  0  0  0  0  0  0  0  0  0  0  0
   28.3015   40.8134   23.0320 C   0  0  0  0  0  0  0  0  0  0  0  0
   28.4188   41.8650   22.1307 C   0  0  1  0  0  0  0  0  0  0  0  0
   28.6704   43.2426   22.6570 C   0  0  0  0  0  0  0  0  0  0  0  0
   28.3023   41.6195   20.7542 C   0  0  1  0  0  0  0  0  0  0  0  0
   28.4319   42.7277   19.7456 C   0  0  0  0  0  0  0  0  0  0  0  0
   28.0631   40.3246   20.3016 C   0  0  0  0  0  0  0  0  0  0  0  0
   27.9409   39.2682   21.2061 C   0  0  1  0  0  0  0  0  0  0  0  0
   27.5894   36.9418   21.6645 C   0  0  1  0  0  0  0  0  0  0  0  0
   27.7005   37.9782   20.7574 N   0  0  0  0  0  0  0  0  0  0  0  0
  1  2  1  6  0  0  0
  1  3  1  0  0  0  0
  1  4  2  0  0  0  0
  1  6  1  0  0  0  0
  5  6  1  0  0  0  0
  7  5  1  1  0  0  0
  7  8  1  0  0  0  0
  7  9  1  0  0  0  0
  9 10  1  1  0  0  0
  9 11  1  0  0  0  0
 11 12  1  6  0  0  0
 11 13  1  0  0  0  0
 13 31  1  0  0  0  0
 14 15  1  0  0  0  0
 15 16  2  0  0  0  0
 15 17  1  0  0  0  0
 17 18  1  0  0  0  0
 18 20  2  0  0  0  0
 19 18  1  6  0  0  0
 19 22  1  0  0  0  0
 19 30  1  0  0  0  0
 21 23  1  1  0  0  0
 21 29  1  0  0  0  0
 21 22  1  0  0  0  0
 23 24  1  0  0  0  0
 24 25  1  6  0  0  0
 24 26  1  0  0  0  0
 26 27  1  6  0  0  0
 26 28  1  0  0  0  0
 29 28  1  6  0  0  0
 29 31  1  0  0  0  0
 30 14  1  6  0  0  0
 30 31  1  0  0  0  0
M  CHG  1   3  -1
M  END
>  <CHROM.1>
-179.17509820,56.18879676,-45.10516007,154.33528621,80.21801882,171.84633610
118.05669579,29.08001922,37.33355978,20.02584152,-0.63348530,0.92120360,0.20282958

>  <Name>
ligand

>  <RI>
0

>  <Rbt.Current_Directory>
/home/itssahil/PROJECTS/Mol_Feturizer/New_Systems/rnas/3F2T

>  <Rbt.Executable>
rbdock ($Id: //depot/dev/client3/rdock/2013.1/src/exe/rbdock.cxx#4 $)

>  <Rbt.Library>
libRbt.so (2013.1, Build901 2013/11/27)

>  <Rbt.Parameter_File>
/export/apps/rDock/src/rDock_2013.1_src/data/scripts/dock_solv.prm

>  <Rbt.Receptor>
prm/blind_docking_60.prm

>  <SCORE>
-21.2379

>  <SCORE.INTER>
-23.0405

>  <SCORE.INTER.CONST>
1

>  <SCORE.INTER.POLAR>
0

>  <SCORE.INTER.ROT>
7

>  <SCORE.INTER.SOLV>
16.9207

>  <SCORE.INTER.VDW>
-29.2672

>  <SCORE.INTER.norm>
-0.743241

>  <SCORE.INTRA>
1.80258

>  <SCORE.INTRA.DIHEDRAL>
1.0935

>  <SCORE.INTRA.DIHEDRAL.0>
4.64198

>  <SCORE.INTRA.POLAR>
0

>  <SCORE.INTRA.POLAR.0>
0

>  <SCORE.INTRA.REPUL>
0

>  <SCORE.INTRA.REPUL.0>
0

>  <SCORE.INTRA.SOLV>
0.853078

>  <SCORE.INTRA.SOLV.lig_0>
-49.3611

>  <SCORE.INTRA.VDW>
0.829294

>  <SCORE.INTRA.VDW.0>
-1.91858

>  <SCORE.INTRA.norm>
0.0581478

>  <SCORE.RESTR>
0

>  <SCORE.RESTR.CAVITY>
0

>  <SCORE.RESTR.norm>
0

>  <SCORE.SYSTEM>
0

>  <SCORE.SYSTEM.CONST>
0

>  <SCORE.SYSTEM.DIHEDRAL>
0

>  <SCORE.SYSTEM.SOLV>
0

>  <SCORE.SYSTEM.norm>
0

>  <SCORE.heavy>
31

>  <SCORE.norm>
-0.685094

>  <RMSD>
5.491

$$$$
ligand
 OpenBabel11021811473D
libRbt.so/2013.1/901 2013/11/27
 31 33  0  0  0  0  0  0  0  0999 V2000
   28.6504   34.5450   12.9883 P   0  0  1  0  0  0  0  0  0  0  0  0
   28.0068   35.2834   11.8421 O   0  0  0  0  0  0  0  0  0  0  0  0
   27.8911   33.2667   13.2254 O   0  5  0  0  0  0  0  0  0  0  0  0
   30.0778   34.2919   12.5877 O   0  0  0  0  0  0  0  0  0  0  0  0
   27.4324   35.8699   14.8940 C   0  0  0  0  0  0  0  0  0  0  0  0
   28.6453   35.3849   14.3568 O   0  0  0  0  0  0  0  0  0  0  0  0
   27.7286   36.6752   16.1564 C   0  0  1  0  0  0  0  0  0  0  0  0
   26.5954   37.4433   16.5095 O   0  0  0  0  0  0  0  0  0  0  0  0
   28.0678   35.7379   17.3032 C   0  0  1  0  0  0  0  0  0  0  0  0
   29.1247   34.9084   16.9006 O   0  0  0  0  0  0  0  0  0  0  0  0
   28.4784   36.4806   18.5636 C   0  0  1  0  0  0  0  0  0  0  0  0
   29.5025   37.3787   18.2309 O   0  0  0  0  0  0  0  0  0  0  0  0
   27.3056   37.2524   19.1453 C   0  0  0  0  0  0  0  0  0  0  0  0
   27.3380   35.4414   21.2992 N   0  0  0  0  0  0  0  0  0  0  0  0
   27.2840   34.5266   22.3282 C   0  0  0  0  0  0  0  0  0  0  0  0
   27.0738   33.3413   22.0881 O   0  0  0  0  0  0  0  0  0  0  0  0
   27.4622   34.9312   23.6315 N   0  0  0  0  0  0  0  0  0  0  0  0
   27.7089   36.2594   23.9192 C   0  0  0  0  0  0  0  0  0  0  0  0
   27.7644   37.1899   22.8874 C   0  0  1  0  0  0  0  0  0  0  0  0
   27.8865   36.6137   25.0864 O   0  0  0  0  0  0  0  0  0  0  0  0
   28.0653   39.4419   22.1407 C   0  0  2  0  0  0  0  0  0  0  0  0
   28.0087   38.5193   23.1679 N   0  0  0  0  0  0  0  0  0  0  0  0
   28.3121   40.7853   22.4256 C   0  0  0  0  0  0  0  0  0  0  0  0
   28.3659   41.7223   21.4005 C   0  0  1  0  0  0  0  0  0  0  0  0
   28.6292   43.1544   21.7438 C   0  0  0  0  0  0  0  0  0  0  0  0
   28.1759   41.3133   20.0718 C   0  0  1  0  0  0  0  0  0  0  0  0
   28.2354   42.2938   18.9328 C   0  0  0  0  0  0  0  0  0  0  0  0
   27.9281   39.9723   19.7908 C   0  0  0  0  0  0  0  0  0  0  0  0
   27.8697   39.0309   20.8201 C   0  0  1  0  0  0  0  0  0  0  0  0
   27.5733   36.7740   21.5713 C   0  0  1  0  0  0  0  0  0  0  0  0
   27.6207   37.6952   20.5425 N   0  0  0  0  0  0  0  0  0  0  0  0
  1  2  1  6  0  0  0
  1  3  1  0  0  0  0
  1  4  2  0  0  0  0
  1  6  1  0  0  0  0
  5  6  1  0  0  0  0
  7  5  1  6  0  0  0
  7  8  1  0  0  0  0
  7  9  1  0  0  0  0
  9 10  1  6  0  0  0
  9 11  1  0  0  0  0
 11 12  1  6  0  0  0
 11 13  1  0  0  0  0
 13 31  1  0  0  0  0
 14 15  1  0  0  0  0
 15 16  2  0  0  0  0
 15 17  1  0  0  0  0
 17 18  1  0  0  0  0
 18 20  2  0  0  0  0
 19 18  1  6  0  0  0
 19 22  1  0  0  0  0
 19 30  1  0  0  0  0
 21 23  1  1  0  0  0
 21 29  1  0  0  0  0
 21 22  1  0  0  0  0
 23 24  1  0  0  0  0
 24 25  1  6  0  0  0
 24 26  1  0  0  0  0
 26 27  1  6  0  0  0
 26 28  1  0  0  0  0
 29 28  1  6  0  0  0
 29 31  1  0  0  0  0
 30 14  1  6  0  0  0
 30 31  1  0  0  0  0
M  CHG  1   3  -1
M  END
>  <CHROM.1>
-177.67375278,56.05191561,165.04528189,54.98822543,-52.63620296,166.10173223
108.16218763,28.06791953,36.99895875,18.81387173,-1.07172750,1.44931848,0.67159292

>  <Name>
ligand

>  <RI>
0

>  <Rbt.Current_Directory>
/home/itssahil/PROJECTS/Mol_Feturizer/New_Systems/rnas/3F2T

>  <Rbt.Executable>
rbdock ($Id: //depot/dev/client3/rdock/2013.1/src/exe/rbdock.cxx#4 $)

>  <Rbt.Library>
libRbt.so (2013.1, Build901 2013/11/27)

>  <Rbt.Parameter_File>
/export/apps/rDock/src/rDock_2013.1_src/data/scripts/dock_solv.prm

>  <Rbt.Receptor>
prm/pocket_docking_8.prm

>  <SCORE>
-21.0161

>  <SCORE.INTER>
-21.2811

>  <SCORE.INTER.CONST>
1

>  <SCORE.INTER.POLAR>
0

>  <SCORE.INTER.ROT>
7

>  <SCORE.INTER.SOLV>
9.72989

>  <SCORE.INTER.VDW>
-25.6974

>  <SCORE.INTER.norm>
-0.686488

>  <SCORE.INTRA>
0.265035

>  <SCORE.INTRA.DIHEDRAL>
-1.56117

>  <SCORE.INTRA.DIHEDRAL.0>
4.64198

>  <SCORE.INTRA.POLAR>
0

>  <SCORE.INTRA.POLAR.0>
0

>  <SCORE.INTRA.REPUL>
0

>  <SCORE.INTRA.REPUL.0>
0

>  <SCORE.INTRA.SOLV>
-0.0168469

>  <SCORE.INTRA.SOLV.lig_0>
-49.3611

>  <SCORE.INTRA.VDW>
1.05404

>  <SCORE.INTRA.VDW.0>
-1.91858

>  <SCORE.INTRA.norm>
0.0085495

>  <SCORE.RESTR>
0

>  <SCORE.RESTR.CAVITY>
0

>  <SCORE.RESTR.norm>
0

>  <SCORE.SYSTEM>
0

>  <SCORE.SYSTEM.CONST>
0

>  <SCORE.SYSTEM.DIHEDRAL>
0

>  <SCORE.SYSTEM.SOLV>
0

>  <SCORE.SYSTEM.norm>
0

>  <SCORE.heavy>
31

>  <SCORE.norm>
-0.677939

>  <RMSD>
5.503

$$$$
ligand
 OpenBabel11021811473D
libRbt.so/2013.1/901 2013/11/27
 31 33  0  0  0  0  0  0  0  0999 V2000
   28.5633   43.0656   23.5312 P   0  0  1  0  0  0  0  0  0  0  0  0
   29.0958   43.9875   24.5988 O   0  0  0  0  0  0  0  0  0  0  0  0
   28.9703   41.6550   23.8652 O   0  5  0  0  0  0  0  0  0  0  0  0
   27.0693   43.2387   23.5215 O   0  0  0  0  0  0  0  0  0  0  0  0
   28.4165   43.0081   20.9148 C   0  0  0  0  0  0  0  0  0  0  0  0
   29.1267   43.4100   22.0676 O   0  0  0  0  0  0  0  0  0  0  0  0
   28.3404   41.4840   20.8775 C   0  0  1  0  0  0  0  0  0  0  0  0
   27.3382   41.0341   21.7675 O   0  0  0  0  0  0  0  0  0  0  0  0
   28.0013   41.0147   19.4727 C   0  0  1  0  0  0  0  0  0  0  0  0
   29.1020   41.2700   18.6417 O   0  0  0  0  0  0  0  0  0  0  0  0
   27.6748   39.5318   19.4143 C   0  0  1  0  0  0  0  0  0  0  0  0
   27.4667   39.1798   18.0732 O   0  0  0  0  0  0  0  0  0  0  0  0
   28.8165   38.7022   19.9780 C   0  0  0  0  0  0  0  0  0  0  0  0
   27.5918   38.3023   22.4800 N   0  0  0  0  0  0  0  0  0  0  0  0
   27.0521   38.1468   23.7383 C   0  0  0  0  0  0  0  0  0  0  0  0
   26.8964   39.1226   24.4666 O   0  0  0  0  0  0  0  0  0  0  0  0
   26.6855   36.8999   24.1910 N   0  0  0  0  0  0  0  0  0  0  0  0
   26.8451   35.7922   23.3815 C   0  0  0  0  0  0  0  0  0  0  0  0
   27.3895   35.9392   22.1105 C   0  0  1  0  0  0  0  0  0  0  0  0
   26.4977   34.6802   23.7845 O   0  0  0  0  0  0  0  0  0  0  0  0
   28.0930   34.9850   20.0335 C   0  0  2  0  0  0  0  0  0  0  0  0
   27.5534   34.8361   21.2969 N   0  0  0  0  0  0  0  0  0  0  0  0
   28.2583   33.8692   19.2122 C   0  0  0  0  0  0  0  0  0  0  0  0
   28.8047   34.0071   17.9416 C   0  0  1  0  0  0  0  0  0  0  0  0
   28.9704   32.7881   17.0904 C   0  0  0  0  0  0  0  0  0  0  0  0
   29.1872   35.2762   17.4814 C   0  0  1  0  0  0  0  0  0  0  0  0
   29.7738   35.4698   16.1100 C   0  0  0  0  0  0  0  0  0  0  0  0
   29.0225   36.3875   18.3040 C   0  0  0  0  0  0  0  0  0  0  0  0
   28.4776   36.2497   19.5819 C   0  0  1  0  0  0  0  0  0  0  0  0
   27.7672   37.2036   21.6630 C   0  0  1  0  0  0  0  0  0  0  0  0
   28.3149   37.3550   20.4035 N   0  0  0  0  0  0  0  0  0  0  0  0
  1  2  1  1  0  0  0
  1  3  1  0  0  0  0
  1  4  2  0  0  0  0
  1  6  1  0  0  0  0
  5  6  1  0  0  0  0
  7  5  1  6  0  0  0
  7  8  1  0  0  0  0
  7  9  1  0  0  0  0
  9 10  1  6  0  0  0
  9 11  1  0  0  0  0
 11 12  1  6  0  0  0
 11 13  1  0  0  0  0
 13 31  1  0  0  0  0
 14 15  1  0  0  0  0
 15 16  2  0  0  0  0
 15 17  1  0  0  0  0
 17 18  1  0  0  0  0
 18 20  2  0  0  0  0
 19 18  1  6  0  0  0
 19 22  1  0  0  0  0
 19 30  1  0  0  0  0
 21 23  1  1  0  0  0
 21 29  1  0  0  0  0
 21 22  1  0  0  0  0
 23 24  1  0  0  0  0
 24 25  1  6  0  0  0
 24 26  1  0  0  0  0
 26 27  1  6  0  0  0
 26 28  1  0  0  0  0
 29 28  1  6  0  0  0
 29 31  1  0  0  0  0
 30 14  1  6  0  0  0
 30 31  1  0  0  0  0
M  CHG  1   3  -1
M  END
>  <CHROM.1>
-62.49086386,-157.20071403,78.45016823,69.32847714,-176.04925628,158.32821283
99.13025355,28.12051983,38.67790509,21.13285656,-1.61866920,-1.26085212,-2.70299425

>  <Name>
ligand

>  <RI>
0

>  <Rbt.Current_Directory>
/home/itssahil/PROJECTS/Mol_Feturizer/New_Systems/rnas/3F2T

>  <Rbt.Executable>
rbdock ($Id: //depot/dev/client3/rdock/2013.1/src/exe/rbdock.cxx#4 $)

>  <Rbt.Library>
libRbt.so (2013.1, Build901 2013/11/27)

>  <Rbt.Parameter_File>
/export/apps/rDock/src/rDock_2013.1_src/data/scripts/dock_solv.prm

>  <Rbt.Receptor>
prm/pocket_docking_5.prm

>  <SCORE>
-24.193

>  <SCORE.INTER>
-26.7012

>  <SCORE.INTER.CONST>
1

>  <SCORE.INTER.POLAR>
0

>  <SCORE.INTER.ROT>
7

>  <SCORE.INTER.SOLV>
14.311

>  <SCORE.INTER.VDW>
-30.8378

>  <SCORE.INTER.norm>
-0.861328

>  <SCORE.INTRA>
2.50427

>  <SCORE.INTRA.DIHEDRAL>
0.463571

>  <SCORE.INTRA.DIHEDRAL.0>
4.64198

>  <SCORE.INTRA.POLAR>
0

>  <SCORE.INTRA.POLAR.0>
0

>  <SCORE.INTRA.REPUL>
0

>  <SCORE.INTRA.REPUL.0>
0

>  <SCORE.INTRA.SOLV>
4.87134

>  <SCORE.INTRA.SOLV.lig_0>
-49.3611

>  <SCORE.INTRA.VDW>
-0.16319

>  <SCORE.INTRA.VDW.0>
-1.91858

>  <SCORE.INTRA.norm>
0.0807828

>  <SCORE.RESTR>
0.00391268

>  <SCORE.RESTR.CAVITY>
0.00391268

>  <SCORE.RESTR.norm>
0.000126215

>  <SCORE.SYSTEM>
0

>  <SCORE.SYSTEM.CONST>
0

>  <SCORE.SYSTEM.DIHEDRAL>
0

>  <SCORE.SYSTEM.SOLV>
0

>  <SCORE.SYSTEM.norm>
0

>  <SCORE.heavy>
31

>  <SCORE.norm>
-0.780419

>  <RMSD>
5.510

$$$$
ligand
 OpenBabel11021811473D
libRbt.so/2013.1/901 2013/11/27
 31 33  0  0  0  0  0  0  0  0999 V2000
   24.6459   33.7441   17.1186 P   0  0  1  0  0  0  0  0  0  0  0  0
   25.6784   32.6898   17.4281 O   0  0  0  0  0  0  0  0  0  0  0  0
   23.4663   33.0840   16.4555 O   0  5  0  0  0  0  0  0  0  0  0  0
   24.2773   34.3812   18.4302 O   0  0  0  0  0  0  0  0  0  0  0  0
   26.2678   35.7153   16.5231 C   0  0  0  0  0  0  0  0  0  0  0  0
   25.1931   34.8866   16.1319 O   0  0  0  0  0  0  0  0  0  0  0  0
   27.5364   34.8737   16.6345 C   0  0  1  0  0  0  0  0  0  0  0  0
   27.7177   34.1243   15.4495 O   0  0  0  0  0  0  0  0  0  0  0  0
   28.7421   35.7755   16.8388 C   0  0  1  0  0  0  0  0  0  0  0  0
   28.5985   36.9018   16.0154 O   0  0  0  0  0  0  0  0  0  0  0  0
   28.8910   36.2355   18.2793 C   0  0  1  0  0  0  0  0  0  0  0  0
   30.1111   36.9158   18.3999 O   0  0  0  0  0  0  0  0  0  0  0  0
   27.7571   37.1684   18.6710 C   0  0  0  0  0  0  0  0  0  0  0  0
   27.6187   35.1823   20.6601 N   0  0  0  0  0  0  0  0  0  0  0  0
   27.4873   34.1801   21.5966 C   0  0  0  0  0  0  0  0  0  0  0  0
   27.3943   33.0099   21.2374 O   0  0  0  0  0  0  0  0  0  0  0  0
   27.4565   34.4797   22.9394 N   0  0  0  0  0  0  0  0  0  0  0  0
   27.5691   35.7899   23.3618 C   0  0  0  0  0  0  0  0  0  0  0  0
   27.7013   36.8080   22.4241 C   0  0  1  0  0  0  0  0  0  0  0  0
   27.5600   36.0512   24.5665 O   0  0  0  0  0  0  0  0  0  0  0  0
   27.9455   39.1299   21.9054 C   0  0  2  0  0  0  0  0  0  0  0  0
   27.8124   38.1200   22.8391 N   0  0  0  0  0  0  0  0  0  0  0  0
   28.0576   40.4555   22.3263 C   0  0  0  0  0  0  0  0  0  0  0  0
   28.1867   41.4794   21.3953 C   0  0  1  0  0  0  0  0  0  0  0  0
   28.3008   42.8890   21.8831 C   0  0  0  0  0  0  0  0  0  0  0  0
   28.2095   41.1770   20.0254 C   0  0  1  0  0  0  0  0  0  0  0  0
   28.3568   42.2544   18.9862 C   0  0  0  0  0  0  0  0  0  0  0  0
   28.0959   39.8533   19.6084 C   0  0  0  0  0  0  0  0  0  0  0  0
   27.9619   38.8244   20.5424 C   0  0  1  0  0  0  0  0  0  0  0  0
   27.7218   36.4976   21.0658 C   0  0  1  0  0  0  0  0  0  0  0  0
   27.8462   37.5057   20.1291 N   0  0  0  0  0  0  0  0  0  0  0  0
  1  2  1  1  0  0  0
  1  3  1  0  0  0  0
  1  4  2  0  0  0  0
  1  6  1  0  0  0  0
  5  6  1  0  0  0  0
  7  5  1  6  0  0  0
  7  8  1  0  0  0  0
  7  9  1  0  0  0  0
  9 10  1  6  0  0  0
  9 11  1  0  0  0  0
 11 12  1  6  0  0  0
 11 13  1  0  0  0  0
 13 31  1  0  0  0  0
 14 15  1  0  0  0  0
 15 16  2  0  0  0  0
 15 17  1  0  0  0  0
 17 18  1  0  0  0  0
 18 20  2  0  0  0  0
 19 18  1  1  0  0  0
 19 22  1  0  0  0  0
 19 30  1  0  0  0  0
 21 23  1  6  0  0  0
 21 29  1  0  0  0  0
 21 22  1  0  0  0  0
 23 24  1  0  0  0  0
 24 25  1  1  0  0  0
 24 26  1  0  0  0  0
 26 27  1  1  0  0  0
 26 28  1  0  0  0  0
 29 28  1  1  0  0  0
 29 31  1  0  0  0  0
 30 14  1  1  0  0  0
 30 31  1  0  0  0  0
M  CHG  1   3  -1
M  END
>  <CHROM.1>
66.81053461,-62.60042985,51.21044305,-40.39119980,172.70743494,174.54478138
121.56503219,27.26601140,36.54198619,19.46025127,-2.77753055,1.22929948,1.83319862

>  <Name>
ligand

>  <RI>
0

>  <Rbt.Current_Directory>
/home/itssahil/PROJECTS/Mol_Feturizer/New_Systems/rnas/3F2T

>  <Rbt.Executable>
rbdock ($Id: //depot/dev/client3/rdock/2013.1/src/exe/rbdock.cxx#4 $)

>  <Rbt.Library>
libRbt.so (2013.1, Build901 2013/11/27)

>  <Rbt.Parameter_File>
/export/apps/rDock/src/rDock_2013.1_src/data/scripts/dock_solv.prm

>  <Rbt.Receptor>
prm/blind_docking_100.prm

>  <SCORE>
-18.8333

>  <SCORE.INTER>
-20.6183

>  <SCORE.INTER.CONST>
1

>  <SCORE.INTER.POLAR>
0

>  <SCORE.INTER.ROT>
7

>  <SCORE.INTER.SOLV>
12.2593

>  <SCORE.INTER.VDW>
-26.0987

>  <SCORE.INTER.norm>
-0.665108

>  <SCORE.INTRA>
1.78505

>  <SCORE.INTRA.DIHEDRAL>
-1.31303

>  <SCORE.INTRA.DIHEDRAL.0>
4.64198

>  <SCORE.INTRA.POLAR>
0

>  <SCORE.INTRA.POLAR.0>
0

>  <SCORE.INTRA.REPUL>
0

>  <SCORE.INTRA.REPUL.0>
0

>  <SCORE.INTRA.SOLV>
0.642381

>  <SCORE.INTRA.SOLV.lig_0>
-49.3611

>  <SCORE.INTRA.VDW>
2.12037

>  <SCORE.INTRA.VDW.0>
-1.91858

>  <SCORE.INTRA.norm>
0.0575822

>  <SCORE.RESTR>
0

>  <SCORE.RESTR.CAVITY>
0

>  <SCORE.RESTR.norm>
0

>  <SCORE.SYSTEM>
0

>  <SCORE.SYSTEM.CONST>
0

>  <SCORE.SYSTEM.DIHEDRAL>
0

>  <SCORE.SYSTEM.SOLV>
0

>  <SCORE.SYSTEM.norm>
0

>  <SCORE.heavy>
31

>  <SCORE.norm>
-0.607525

>  <RMSD>
5.512

$$$$
ligand
 OpenBabel11021811473D
libRbt.so/2013.1/901 2013/11/27
 31 33  0  0  0  0  0  0  0  0999 V2000
   32.4029   34.9904   14.7842 P   0  0  1  0  0  0  0  0  0  0  0  0
   32.2249   35.4337   13.3541 O   0  0  0  0  0  0  0  0  0  0  0  0
   31.4640   33.8447   15.0543 O   0  5  0  0  0  0  0  0  0  0  0  0
   33.8450   34.5902   14.9326 O   0  0  0  0  0  0  0  0  0  0  0  0
   32.6393   36.1090   17.1428 C   0  0  0  0  0  0  0  0  0  0  0  0
   32.0836   36.1526   15.8450 O   0  0  0  0  0  0  0  0  0  0  0  0
   32.0762   37.2622   17.9694 C   0  0  1  0  0  0  0  0  0  0  0  0
   32.5116   38.4940   17.4291 O   0  0  0  0  0  0  0  0  0  0  0  0
   30.5574   37.2226   17.9499 C   0  0  1  0  0  0  0  0  0  0  0  0
   30.1458   35.8936   18.1273 O   0  0  0  0  0  0  0  0  0  0  0  0
   29.9361   38.0793   19.0403 C   0  0  1  0  0  0  0  0  0  0  0  0
   30.1051   39.4266   18.6908 O   0  0  0  0  0  0  0  0  0  0  0  0
   28.4528   37.7822   19.1848 C   0  0  0  0  0  0  0  0  0  0  0  0
   27.8679   35.4830   20.6986 N   0  0  0  0  0  0  0  0  0  0  0  0
   27.5358   34.3321   21.3797 C   0  0  0  0  0  0  0  0  0  0  0  0
   27.6643   33.2376   20.8390 O   0  0  0  0  0  0  0  0  0  0  0  0
   27.0561   34.3976   22.6680 N   0  0  0  0  0  0  0  0  0  0  0  0
   26.9138   35.6200   23.2952 C   0  0  0  0  0  0  0  0  0  0  0  0
   27.2456   36.7868   22.6155 C   0  0  1  0  0  0  0  0  0  0  0  0
   26.5015   35.6720   24.4557 O   0  0  0  0  0  0  0  0  0  0  0  0
   27.4363   39.1701   22.5588 C   0  0  2  0  0  0  0  0  0  0  0  0
   27.1041   38.0120   23.2357 N   0  0  0  0  0  0  0  0  0  0  0  0
   27.2927   40.4078   23.1867 C   0  0  0  0  0  0  0  0  0  0  0  0
   27.6189   41.5791   22.5133 C   0  0  1  0  0  0  0  0  0  0  0  0
   27.4487   42.8882   23.2169 C   0  0  0  0  0  0  0  0  0  0  0  0
   28.1000   41.5151   21.1968 C   0  0  1  0  0  0  0  0  0  0  0  0
   28.4729   42.7580   20.4363 C   0  0  0  0  0  0  0  0  0  0  0  0
   28.2406   40.2786   20.5723 C   0  0  0  0  0  0  0  0  0  0  0  0
   27.9093   39.1017   21.2463 C   0  0  1  0  0  0  0  0  0  0  0  0
   27.7215   36.7129   21.3080 C   0  0  1  0  0  0  0  0  0  0  0  0
   28.0465   37.8694   20.6252 N   0  0  0  0  0  0  0  0  0  0  0  0
  1  2  1  6  0  0  0
  1  3  1  0  0  0  0
  1  4  2  0  0  0  0
  1  6  1  0  0  0  0
  5  6  1  0  0  0  0
  7  5  1  6  0  0  0
  7  8  1  0  0  0  0
  7  9  1  0  0  0  0
  9 10  1  1  0  0  0
  9 11  1  0  0  0  0
 11 12  1  6  0  0  0
 11 13  1  0  0  0  0
 13 31  1  0  0  0  0
 14 15  1  0  0  0  0
 15 16  2  0  0  0  0
 15 17  1  0  0  0  0
 17 18  1  0  0  0  0
 18 20  2  0  0  0  0
 19 18  1  1  0  0  0
 19 22  1  0  0  0  0
 19 30  1  0  0  0  0
 21 23  1  6  0  0  0
 21 29  1  0  0  0  0
 21 22  1  0  0  0  0
 23 24  1  0  0  0  0
 24 25  1  1  0  0  0
 24 26  1  0  0  0  0
 26 27  1  1  0  0  0
 26 28  1  0  0  0  0
 29 28  1  1  0  0  0
 29 31  1  0  0  0  0
 30 14  1  1  0  0  0
 30 31  1  0  0  0  0
M  CHG  1   3  -1
M  END
>  <CHROM.1>
-175.11336441,-156.73796824,-65.53731284,43.42741063,72.53515810,144.07129361
74.94889085,29.41891243,37.27323059,19.49990054,0.48704863,-0.93312883,-3.02253677

>  <Name>
ligand

>  <RI>
0

>  <Rbt.Current_Directory>
/home/itssahil/PROJECTS/Mol_Feturizer/New_Systems/rnas/3F2T

>  <Rbt.Executable>
rbdock ($Id: //depot/dev/client3/rdock/2013.1/src/exe/rbdock.cxx#4 $)

>  <Rbt.Library>
libRbt.so (2013.1, Build901 2013/11/27)

>  <Rbt.Parameter_File>
/export/apps/rDock/src/rDock_2013.1_src/data/scripts/dock_solv.prm

>  <Rbt.Receptor>
prm/pocket_docking_7.prm

>  <SCORE>
-22.4551

>  <SCORE.INTER>
-25.2552

>  <SCORE.INTER.CONST>
1

>  <SCORE.INTER.POLAR>
0

>  <SCORE.INTER.ROT>
7

>  <SCORE.INTER.SOLV>
13.7394

>  <SCORE.INTER.VDW>
-29.6833

>  <SCORE.INTER.norm>
-0.814684

>  <SCORE.INTRA>
2.80013

>  <SCORE.INTRA.DIHEDRAL>
2.56855

>  <SCORE.INTRA.DIHEDRAL.0>
4.64198

>  <SCORE.INTRA.POLAR>
0

>  <SCORE.INTRA.POLAR.0>
0

>  <SCORE.INTRA.REPUL>
0

>  <SCORE.INTRA.REPUL.0>
0

>  <SCORE.INTRA.SOLV>
0.763442

>  <SCORE.INTRA.SOLV.lig_0>
-49.3611

>  <SCORE.INTRA.VDW>
1.13413

>  <SCORE.INTRA.VDW.0>
-1.91858

>  <SCORE.INTRA.norm>
0.0903267

>  <SCORE.RESTR>
0

>  <SCORE.RESTR.CAVITY>
0

>  <SCORE.RESTR.norm>
0

>  <SCORE.SYSTEM>
0

>  <SCORE.SYSTEM.CONST>
0

>  <SCORE.SYSTEM.DIHEDRAL>
0

>  <SCORE.SYSTEM.SOLV>
0

>  <SCORE.SYSTEM.norm>
0

>  <SCORE.heavy>
31

>  <SCORE.norm>
-0.724357

>  <RMSD>
5.513

$$$$
ligand
 OpenBabel11021811473D
libRbt.so/2013.1/901 2013/11/27
 31 33  0  0  0  0  0  0  0  0999 V2000
   29.3301   41.9551   16.3926 P   0  0  1  0  0  0  0  0  0  0  0  0
   28.8732   40.5190   16.3462 O   0  0  0  0  0  0  0  0  0  0  0  0
   30.7511   42.0253   15.8999 O   0  5  0  0  0  0  0  0  0  0  0  0
   28.3863   42.7337   15.5180 O   0  0  0  0  0  0  0  0  0  0  0  0
   28.0525   42.8926   18.4806 C   0  0  0  0  0  0  0  0  0  0  0  0
   29.2877   42.5788   17.8716 O   0  0  0  0  0  0  0  0  0  0  0  0
   27.7429   41.8523   19.5539 C   0  0  1  0  0  0  0  0  0  0  0  0
   28.0226   40.5579   19.0589 O   0  0  0  0  0  0  0  0  0  0  0  0
   28.5963   42.1061   20.7853 C   0  0  1  0  0  0  0  0  0  0  0  0
   28.4584   43.4532   21.1508 O   0  0  0  0  0  0  0  0  0  0  0  0
   28.1968   41.2337   21.9635 C   0  0  1  0  0  0  0  0  0  0  0  0
   26.8092   41.0387   21.9158 O   0  0  0  0  0  0  0  0  0  0  0  0
   28.8941   39.8849   21.9010 C   0  0  0  0  0  0  0  0  0  0  0  0
   27.7631   40.4178   24.4223 N   0  0  0  0  0  0  0  0  0  0  0  0
   27.2796   40.7086   25.6795 C   0  0  0  0  0  0  0  0  0  0  0  0
   27.4223   41.8337   26.1492 O   0  0  0  0  0  0  0  0  0  0  0  0
   26.6361   39.7434   26.4199 N   0  0  0  0  0  0  0  0  0  0  0  0
   26.4586   38.4747   25.9033 C   0  0  0  0  0  0  0  0  0  0  0  0
   26.9438   38.1718   24.6360 C   0  0  1  0  0  0  0  0  0  0  0  0
   25.8649   37.6191   26.5629 O   0  0  0  0  0  0  0  0  0  0  0  0
   27.2529   36.6073   22.8538 C   0  0  2  0  0  0  0  0  0  0  0  0
   26.7715   36.9054   24.1143 N   0  0  0  0  0  0  0  0  0  0  0  0
   27.0782   35.3268   22.3277 C   0  0  0  0  0  0  0  0  0  0  0  0
   27.5631   35.0149   21.0630 C   0  0  1  0  0  0  0  0  0  0  0  0
   27.3606   33.6307   20.5329 C   0  0  0  0  0  0  0  0  0  0  0  0
   28.2271   35.9950   20.3100 C   0  0  1  0  0  0  0  0  0  0  0  0
   28.7587   35.7011   18.9340 C   0  0  0  0  0  0  0  0  0  0  0  0
   28.4013   37.2714   20.8383 C   0  0  0  0  0  0  0  0  0  0  0  0
   27.9185   37.5847   22.1102 C   0  0  1  0  0  0  0  0  0  0  0  0
   27.6028   39.1518   23.8964 C   0  0  1  0  0  0  0  0  0  0  0  0
   28.0930   38.8547   22.6391 N   0  0  0  0  0  0  0  0  0  0  0  0
  1  2  1  1  0  0  0
  1  3  1  0  0  0  0
  1  4  2  0  0  0  0
  1  6  1  0  0  0  0
  5  6  1  0  0  0  0
  7  5  1  6  0  0  0
  7  8  1  0  0  0  0
  7  9  1  0  0  0  0
  9 10  1  1  0  0  0
  9 11  1  0  0  0  0
 11 12  1  6  0  0  0
 11 13  1  0  0  0  0
 13 31  1  0  0  0  0
 14 15  1  0  0  0  0
 15 16  2  0  0  0  0
 15 17  1  0  0  0  0
 17 18  1  0  0  0  0
 18 20  2  0  0  0  0
 19 18  1  6  0  0  0
 19 22  1  0  0  0  0
 19 30  1  0  0  0  0
 21 23  1  1  0  0  0
 21 29  1  0  0  0  0
 21 22  1  0  0  0  0
 23 24  1  0  0  0  0
 24 25  1  6  0  0  0
 24 26  1  0  0  0  0
 26 27  1  6  0  0  0
 26 28  1  0  0  0  0
 29 28  1  6  0  0  0
 29 31  1  0  0  0  0
 30 14  1  6  0  0  0
 30 31  1  0  0  0  0
M  CHG  1   3  -1
M  END
>  <CHROM.1>
105.79446976,-72.56931120,-44.08315562,51.11432691,-33.91272610,-154.83708040
137.46184894,27.98122643,39.64027720,21.17190871,-0.17226032,-1.32617527
-2.83893951

>  <Name>
ligand

>  <RI>
0

>  <Rbt.Current_Directory>
/home/itssahil/PROJECTS/Mol_Feturizer/New_Systems/rnas/3F2T

>  <Rbt.Executable>
rbdock ($Id: //depot/dev/client3/rdock/2013.1/src/exe/rbdock.cxx#4 $)

>  <Rbt.Library>
libRbt.so (2013.1, Build901 2013/11/27)

>  <Rbt.Parameter_File>
/export/apps/rDock/src/rDock_2013.1_src/data/scripts/dock_solv.prm

>  <Rbt.Receptor>
prm/pocket_docking_7.prm

>  <SCORE>
-22.2337

>  <SCORE.INTER>
-28.7082

>  <SCORE.INTER.CONST>
1

>  <SCORE.INTER.POLAR>
0

>  <SCORE.INTER.ROT>
7

>  <SCORE.INTER.SOLV>
25.6602

>  <SCORE.INTER.VDW>
-35.9588

>  <SCORE.INTER.norm>
-0.92607

>  <SCORE.INTRA>
6.47444

>  <SCORE.INTRA.DIHEDRAL>
8.27541

>  <SCORE.INTRA.DIHEDRAL.0>
4.64198

>  <SCORE.INTRA.POLAR>
0

>  <SCORE.INTRA.POLAR.0>
0

>  <SCORE.INTRA.REPUL>
0

>  <SCORE.INTRA.REPUL.0>
0

>  <SCORE.INTRA.SOLV>
1.04606

>  <SCORE.INTRA.SOLV.lig_0>
-49.3611

>  <SCORE.INTRA.VDW>
1.8137

>  <SCORE.INTRA.VDW.0>
-1.91858

>  <SCORE.INTRA.norm>
0.208853

>  <SCORE.RESTR>
0

>  <SCORE.RESTR.CAVITY>
0

>  <SCORE.RESTR.norm>
0

>  <SCORE.SYSTEM>
0

>  <SCORE.SYSTEM.CONST>
0

>  <SCORE.SYSTEM.DIHEDRAL>
0

>  <SCORE.SYSTEM.SOLV>
0

>  <SCORE.SYSTEM.norm>
0

>  <SCORE.heavy>
31

>  <SCORE.norm>
-0.717217

>  <RMSD>
5.533

$$$$
ligand
 OpenBabel11021811473D
libRbt.so/2013.1/901 2013/11/27
 31 33  0  0  0  0  0  0  0  0999 V2000
   25.2827   44.4023   16.9719 P   0  0  1  0  0  0  0  0  0  0  0  0
   24.1802   44.5451   17.9904 O   0  0  0  0  0  0  0  0  0  0  0  0
   24.6907   43.8783   15.6905 O   0  5  0  0  0  0  0  0  0  0  0  0
   25.8881   45.7685   16.8011 O   0  0  0  0  0  0  0  0  0  0  0  0
   26.1164   42.0644   17.8142 C   0  0  0  0  0  0  0  0  0  0  0  0
   26.4368   43.3868   17.4356 O   0  0  0  0  0  0  0  0  0  0  0  0
   27.3821   41.2117   17.7812 C   0  0  1  0  0  0  0  0  0  0  0  0
   28.1679   41.5669   16.6609 O   0  0  0  0  0  0  0  0  0  0  0  0
   28.1935   41.4367   19.0460 C   0  0  1  0  0  0  0  0  0  0  0  0
   28.2984   42.8179   19.2661 O   0  0  0  0  0  0  0  0  0  0  0  0
   27.5627   40.7907   20.2681 C   0  0  1  0  0  0  0  0  0  0  0  0
   26.8669   39.6470   19.8512 O   0  0  0  0  0  0  0  0  0  0  0  0
   28.6243   40.3897   21.2789 C   0  0  0  0  0  0  0  0  0  0  0  0
   27.8626   41.6024   23.7015 N   0  0  0  0  0  0  0  0  0  0  0  0
   27.5608   42.2320   24.8895 C   0  0  0  0  0  0  0  0  0  0  0  0
   27.7096   43.4456   24.9985 O   0  0  0  0  0  0  0  0  0  0  0  0
   27.0932   41.5090   25.9631 N   0  0  0  0  0  0  0  0  0  0  0  0
   26.9109   40.1441   25.8552 C   0  0  0  0  0  0  0  0  0  0  0  0
   27.2135   39.5000   24.6606 C   0  0  1  0  0  0  0  0  0  0  0  0
   26.4740   39.5039   26.8137 O   0  0  0  0  0  0  0  0  0  0  0  0
   27.3353   37.4983   23.3577 C   0  0  2  0  0  0  0  0  0  0  0  0
   27.0356   38.1358   24.5465 N   0  0  0  0  0  0  0  0  0  0  0  0
   27.1550   36.1193   23.2437 C   0  0  0  0  0  0  0  0  0  0  0  0
   27.4582   35.4673   22.0542 C   0  0  1  0  0  0  0  0  0  0  0  0
   27.2558   33.9875   21.9697 C   0  0  0  0  0  0  0  0  0  0  0  0
   27.9433   36.2013   20.9613 C   0  0  1  0  0  0  0  0  0  0  0  0
   28.2747   35.5356   19.6539 C   0  0  0  0  0  0  0  0  0  0  0  0
   28.1237   37.5770   21.0786 C   0  0  0  0  0  0  0  0  0  0  0  0
   27.8234   38.2323   22.2742 C   0  0  1  0  0  0  0  0  0  0  0  0
   27.6958   40.2376   23.5813 C   0  0  1  0  0  0  0  0  0  0  0  0
   28.0046   39.6020   22.3938 N   0  0  0  0  0  0  0  0  0  0  0  0
  1  2  1  1  0  0  0
  1  3  1  0  0  0  0
  1  4  2  0  0  0  0
  1  6  1  0  0  0  0
  5  6  1  0  0  0  0
  7  5  1  1  0  0  0
  7  8  1  0  0  0  0
  7  9  1  0  0  0  0
  9 10  1  1  0  0  0
  9 11  1  0  0  0  0
 11 12  1  6  0  0  0
 11 13  1  0  0  0  0
 13 31  1  0  0  0  0
 14 15  1  0  0  0  0
 15 16  2  0  0  0  0
 15 17  1  0  0  0  0
 17 18  1  0  0  0  0
 18 20  2  0  0  0  0
 19 18  1  6  0  0  0
 19 22  1  0  0  0  0
 19 30  1  0  0  0  0
 21 23  1  1  0  0  0
 21 29  1  0  0  0  0
 21 22  1  0  0  0  0
 23 24  1  0  0  0  0
 24 25  1  6  0  0  0
 24 26  1  0  0  0  0
 26 27  1  6  0  0  0
 26 28  1  0  0  0  0
 29 28  1  6  0  0  0
 29 31  1  0  0  0  0
 30 14  1  6  0  0  0
 30 31  1  0  0  0  0
M  CHG  1   3  -1
M  END
>  <CHROM.1>
162.44936047,54.93745355,-39.60140304,-47.71890986,30.64447576,-172.87377779
85.50759962,27.06714840,40.58269489,20.94719261,2.66458645,1.37924954,-1.94276175

>  <Name>
ligand

>  <RI>
0

>  <Rbt.Current_Directory>
/home/itssahil/PROJECTS/Mol_Feturizer/New_Systems/rnas/3F2T

>  <Rbt.Executable>
rbdock ($Id: //depot/dev/client3/rdock/2013.1/src/exe/rbdock.cxx#4 $)

>  <Rbt.Library>
libRbt.so (2013.1, Build901 2013/11/27)

>  <Rbt.Parameter_File>
/export/apps/rDock/src/rDock_2013.1_src/data/scripts/dock_solv.prm

>  <Rbt.Receptor>
prm/blind_docking_80.prm

>  <SCORE>
-22.0556

>  <SCORE.INTER>
-24.9153

>  <SCORE.INTER.CONST>
1

>  <SCORE.INTER.POLAR>
0

>  <SCORE.INTER.ROT>
7

>  <SCORE.INTER.SOLV>
19.3768

>  <SCORE.INTER.VDW>
-31.3358

>  <SCORE.INTER.norm>
-0.803719

>  <SCORE.INTRA>
2.85964

>  <SCORE.INTRA.DIHEDRAL>
2.86278

>  <SCORE.INTRA.DIHEDRAL.0>
4.64198

>  <SCORE.INTRA.POLAR>
0

>  <SCORE.INTRA.POLAR.0>
0

>  <SCORE.INTRA.REPUL>
0

>  <SCORE.INTRA.REPUL.0>
0

>  <SCORE.INTRA.SOLV>
0.125332

>  <SCORE.INTRA.SOLV.lig_0>
-49.3611

>  <SCORE.INTRA.VDW>
1.36559

>  <SCORE.INTRA.VDW.0>
-1.91858

>  <SCORE.INTRA.norm>
0.0922465

>  <SCORE.RESTR>
0

>  <SCORE.RESTR.CAVITY>
0

>  <SCORE.RESTR.norm>
0

>  <SCORE.SYSTEM>
0

>  <SCORE.SYSTEM.CONST>
0

>  <SCORE.SYSTEM.DIHEDRAL>
0

>  <SCORE.SYSTEM.SOLV>
0

>  <SCORE.SYSTEM.norm>
0

>  <SCORE.heavy>
31

>  <SCORE.norm>
-0.711472

>  <RMSD>
5.535

$$$$
ligand
 OpenBabel11021811473D
libRbt.so/2013.1/901 2013/11/27
 31 33  0  0  0  0  0  0  0  0999 V2000
   28.2769   42.6442   23.0763 P   0  0  1  0  0  0  0  0  0  0  0  0
   29.0579   43.8735   22.6864 O   0  0  0  0  0  0  0  0  0  0  0  0
   28.7726   42.1620   24.4137 O   0  5  0  0  0  0  0  0  0  0  0  0
   26.8297   43.0517   23.1200 O   0  0  0  0  0  0  0  0  0  0  0  0
   28.3514   41.6864   20.6376 C   0  0  0  0  0  0  0  0  0  0  0  0
   28.4369   41.4405   22.0257 O   0  0  0  0  0  0  0  0  0  0  0  0
   28.5875   40.3819   19.8808 C   0  0  1  0  0  0  0  0  0  0  0  0
   29.7613   39.7572   20.3610 O   0  0  0  0  0  0  0  0  0  0  0  0
   27.4097   39.4435   20.0825 C   0  0  1  0  0  0  0  0  0  0  0  0
   26.2299   40.1421   19.7869 O   0  0  0  0  0  0  0  0  0  0  0  0
   27.4858   38.2108   19.1974 C   0  0  1  0  0  0  0  0  0  0  0  0
   27.4793   38.6292   17.8591 O   0  0  0  0  0  0  0  0  0  0  0  0
   28.7578   37.4249   19.4696 C   0  0  0  0  0  0  0  0  0  0  0  0
   27.7232   36.3577   21.8593 N   0  0  0  0  0  0  0  0  0  0  0  0
   27.2731   35.8750   23.0689 C   0  0  0  0  0  0  0  0  0  0  0  0
   27.0411   36.6489   23.9931 O   0  0  0  0  0  0  0  0  0  0  0  0
   27.0820   34.5247   23.2537 N   0  0  0  0  0  0  0  0  0  0  0  0
   27.3293   33.6403   22.2218 C   0  0  0  0  0  0  0  0  0  0  0  0
   27.7844   34.1181   20.9980 C   0  0  1  0  0  0  0  0  0  0  0  0
   27.1385   32.4336   22.3865 O   0  0  0  0  0  0  0  0  0  0  0  0
   28.4858   33.7171   18.7470 C   0  0  2  0  0  0  0  0  0  0  0  0
   28.0353   33.2397   19.9630 N   0  0  0  0  0  0  0  0  0  0  0  0
   28.7392   32.8282   17.7018 C   0  0  0  0  0  0  0  0  0  0  0  0
   29.1975   33.2972   16.4763 C   0  0  1  0  0  0  0  0  0  0  0  0
   29.4618   32.3145   15.3798 C   0  0  0  0  0  0  0  0  0  0  0  0
   29.4013   34.6727   16.2886 C   0  0  1  0  0  0  0  0  0  0  0  0
   29.8874   35.2220   14.9755 C   0  0  0  0  0  0  0  0  0  0  0  0
   29.1491   35.5571   17.3341 C   0  0  0  0  0  0  0  0  0  0  0  0
   28.6928   35.0868   18.5667 C   0  0  1  0  0  0  0  0  0  0  0  0
   27.9847   35.4858   20.8218 C   0  0  1  0  0  0  0  0  0  0  0  0
   28.4433   35.9658   19.6099 N   0  0  0  0  0  0  0  0  0  0  0  0
  1  2  1  6  0  0  0
  1  3  1  0  0  0  0
  1  4  2  0  0  0  0
  1  6  1  0  0  0  0
  5  6  1  0  0  0  0
  7  5  1  1  0  0  0
  7  8  1  0  0  0  0
  7  9  1  0  0  0  0
  9 10  1  6  0  0  0
  9 11  1  0  0  0  0
 11 12  1  6  0  0  0
 11 13  1  0  0  0  0
 13 31  1  0  0  0  0
 14 15  1  0  0  0  0
 15 16  2  0  0  0  0
 15 17  1  0  0  0  0
 17 18  1  0  0  0  0
 18 20  2  0  0  0  0
 19 18  1  6  0  0  0
 19 22  1  0  0  0  0
 19 30  1  0  0  0  0
 21 23  1  1  0  0  0
 21 29  1  0  0  0  0
 21 22  1  0  0  0  0
 23 24  1  0  0  0  0
 24 25  1  6  0  0  0
 24 26  1  0  0  0  0
 26 27  1  6  0  0  0
 26 28  1  0  0  0  0
 29 28  1  6  0  0  0
 29 31  1  0  0  0  0
 30 14  1  6  0  0  0
 30 31  1  0  0  0  0
M  CHG  1   3  -1
M  END
>  <CHROM.1>
178.03537534,-44.87811929,-49.92560975,51.11779473,-60.75956068,133.31078708
102.02218522,28.19222487,37.49833570,20.39979050,-1.76902416,-1.30462074
-2.85437166

>  <Name>
ligand

>  <RI>
0

>  <Rbt.Current_Directory>
/home/itssahil/PROJECTS/Mol_Feturizer/New_Systems/rnas/3F2T

>  <Rbt.Executable>
rbdock ($Id: //depot/dev/client3/rdock/2013.1/src/exe/rbdock.cxx#4 $)

>  <Rbt.Library>
libRbt.so (2013.1, Build901 2013/11/27)

>  <Rbt.Parameter_File>
/export/apps/rDock/src/rDock_2013.1_src/data/scripts/dock_solv.prm

>  <Rbt.Receptor>
prm/blind_docking_60.prm

>  <SCORE>
-19.8916

>  <SCORE.INTER>
-22.3842

>  <SCORE.INTER.CONST>
1

>  <SCORE.INTER.POLAR>
0

>  <SCORE.INTER.ROT>
7

>  <SCORE.INTER.SOLV>
13.6526

>  <SCORE.INTER.VDW>
-27.7403

>  <SCORE.INTER.norm>
-0.722072

>  <SCORE.INTRA>
2.49264

>  <SCORE.INTRA.DIHEDRAL>
2.33101

>  <SCORE.INTRA.DIHEDRAL.0>
4.64198

>  <SCORE.INTRA.POLAR>
0

>  <SCORE.INTRA.POLAR.0>
0

>  <SCORE.INTRA.REPUL>
0

>  <SCORE.INTRA.REPUL.0>
0

>  <SCORE.INTRA.SOLV>
-0.414725

>  <SCORE.INTRA.SOLV.lig_0>
-49.3611

>  <SCORE.INTRA.VDW>
1.5345

>  <SCORE.INTRA.VDW.0>
-1.91858

>  <SCORE.INTRA.norm>
0.0804077

>  <SCORE.RESTR>
0

>  <SCORE.RESTR.CAVITY>
0

>  <SCORE.RESTR.norm>
0

>  <SCORE.SYSTEM>
0

>  <SCORE.SYSTEM.CONST>
0

>  <SCORE.SYSTEM.DIHEDRAL>
0

>  <SCORE.SYSTEM.SOLV>
0

>  <SCORE.SYSTEM.norm>
0

>  <SCORE.heavy>
31

>  <SCORE.norm>
-0.641664

>  <RMSD>
5.541

$$$$
ligand
 OpenBabel11021811473D
libRbt.so/2013.1/901 2013/11/27
 31 33  0  0  0  0  0  0  0  0999 V2000
   25.7531   32.7996   15.7738 P   0  0  1  0  0  0  0  0  0  0  0  0
   25.8452   31.9445   17.0122 O   0  0  0  0  0  0  0  0  0  0  0  0
   25.8911   31.9133   14.5645 O   0  5  0  0  0  0  0  0  0  0  0  0
   24.4160   33.4862   15.8254 O   0  0  0  0  0  0  0  0  0  0  0  0
   26.8512   35.0515   16.5441 C   0  0  0  0  0  0  0  0  0  0  0  0
   26.9003   33.9206   15.6994 O   0  0  0  0  0  0  0  0  0  0  0  0
   27.9277   36.0455   16.1158 C   0  0  1  0  0  0  0  0  0  0  0  0
   27.8388   36.2750   14.7236 O   0  0  0  0  0  0  0  0  0  0  0  0
   27.7388   37.3637   16.8475 C   0  0  1  0  0  0  0  0  0  0  0  0
   26.4180   37.7939   16.6530 O   0  0  0  0  0  0  0  0  0  0  0  0
   28.0033   37.2475   18.3393 C   0  0  1  0  0  0  0  0  0  0  0  0
   29.3903   37.1929   18.5371 O   0  0  0  0  0  0  0  0  0  0  0  0
   27.4382   38.4447   19.0855 C   0  0  0  0  0  0  0  0  0  0  0  0
   27.1727   35.9748   20.4080 N   0  0  0  0  0  0  0  0  0  0  0  0
   26.9724   34.7561   21.0192 C   0  0  0  0  0  0  0  0  0  0  0  0
   26.6775   33.7716   20.3480 O   0  0  0  0  0  0  0  0  0  0  0  0
   27.0981   34.6311   22.3840 N   0  0  0  0  0  0  0  0  0  0  0  0
   27.4383   35.7265   23.1537 C   0  0  0  0  0  0  0  0  0  0  0  0
   27.6416   36.9604   22.5458 C   0  0  1  0  0  0  0  0  0  0  0  0
   27.5681   35.6051   24.3735 O   0  0  0  0  0  0  0  0  0  0  0  0
   28.1833   39.2845   22.7026 C   0  0  2  0  0  0  0  0  0  0  0  0
   27.9799   38.0597   23.3092 N   0  0  0  0  0  0  0  0  0  0  0  0
   28.5251   40.3948   23.4754 C   0  0  0  0  0  0  0  0  0  0  0  0
   28.7268   41.6325   22.8760 C   0  0  1  0  0  0  0  0  0  0  0  0
   29.0887   42.8014   23.7366 C   0  0  0  0  0  0  0  0  0  0  0  0
   28.5907   41.7640   21.4858 C   0  0  1  0  0  0  0  0  0  0  0  0
   28.8092   43.0833   20.7972 C   0  0  0  0  0  0  0  0  0  0  0  0
   28.2478   40.6546   20.7175 C   0  0  0  0  0  0  0  0  0  0  0  0
   28.0409   39.4118   21.3189 C   0  0  1  0  0  0  0  0  0  0  0  0
   27.5029   37.0810   21.1646 C   0  0  1  0  0  0  0  0  0  0  0  0
   27.6971   38.3061   20.5557 N   0  0  0  0  0  0  0  0  0  0  0  0
  1  2  1  1  0  0  0
  1  3  1  0  0  0  0
  1  4  2  0  0  0  0
  1  6  1  0  0  0  0
  5  6  1  0  0  0  0
  7  5  1  1  0  0  0
  7  8  1  0  0  0  0
  7  9  1  0  0  0  0
  9 10  1  1  0  0  0
  9 11  1  0  0  0  0
 11 12  1  6  0  0  0
 11 13  1  0  0  0  0
 13 31  1  0  0  0  0
 14 15  1  0  0  0  0
 15 16  2  0  0  0  0
 15 17  1  0  0  0  0
 17 18  1  0  0  0  0
 18 20  2  0  0  0  0
 19 18  1  6  0  0  0
 19 22  1  0  0  0  0
 19 30  1  0  0  0  0
 21 23  1  1  0  0  0
 21 29  1  0  0  0  0
 21 22  1  0  0  0  0
 23 24  1  0  0  0  0
 24 25  1  6  0  0  0
 24 26  1  0  0  0  0
 26 27  1  6  0  0  0
 26 28  1  0  0  0  0
 29 28  1  6  0  0  0
 29 31  1  0  0  0  0
 30 14  1  6  0  0  0
 30 31  1  0  0  0  0
M  CHG  1   3  -1
M  END
>  <CHROM.1>
-171.25086316,-72.95244157,50.29302304,-53.22788285,76.16808052,179.46378427
141.31718837,27.38312473,36.77086855,19.43229097,2.57181001,-1.29325650,-1.39152305

>  <Name>
ligand

>  <RI>
0

>  <Rbt.Current_Directory>
/home/itssahil/PROJECTS/Mol_Feturizer/New_Systems/rnas/3F2T

>  <Rbt.Executable>
rbdock ($Id: //depot/dev/client3/rdock/2013.1/src/exe/rbdock.cxx#4 $)

>  <Rbt.Library>
libRbt.so (2013.1, Build901 2013/11/27)

>  <Rbt.Parameter_File>
/export/apps/rDock/src/rDock_2013.1_src/data/scripts/dock_solv.prm

>  <Rbt.Receptor>
prm/blind_docking_60.prm

>  <SCORE>
-17.1421

>  <SCORE.INTER>
-18.8778

>  <SCORE.INTER.CONST>
1

>  <SCORE.INTER.POLAR>
0

>  <SCORE.INTER.ROT>
7

>  <SCORE.INTER.SOLV>
11.191

>  <SCORE.INTER.VDW>
-24.5822

>  <SCORE.INTER.norm>
-0.608961

>  <SCORE.INTRA>
1.73569

>  <SCORE.INTRA.DIHEDRAL>
-1.47646

>  <SCORE.INTRA.DIHEDRAL.0>
4.64198

>  <SCORE.INTRA.POLAR>
0

>  <SCORE.INTRA.POLAR.0>
0

>  <SCORE.INTRA.REPUL>
0

>  <SCORE.INTRA.REPUL.0>
0

>  <SCORE.INTRA.SOLV>
-0.423661

>  <SCORE.INTRA.SOLV.lig_0>
-49.3611

>  <SCORE.INTRA.VDW>
2.68575

>  <SCORE.INTRA.VDW.0>
-1.91858

>  <SCORE.INTRA.norm>
0.05599

>  <SCORE.RESTR>
0

>  <SCORE.RESTR.CAVITY>
0

>  <SCORE.RESTR.norm>
0

>  <SCORE.SYSTEM>
0

>  <SCORE.SYSTEM.CONST>
0

>  <SCORE.SYSTEM.DIHEDRAL>
0

>  <SCORE.SYSTEM.SOLV>
0

>  <SCORE.SYSTEM.norm>
0

>  <SCORE.heavy>
31

>  <SCORE.norm>
-0.552971

>  <RMSD>
5.547

$$$$
ligand
 OpenBabel11021811473D
libRbt.so/2013.1/901 2013/11/27
 31 33  0  0  0  0  0  0  0  0999 V2000
   29.0616   34.6665   13.6159 P   0  0  1  0  0  0  0  0  0  0  0  0
   28.2319   33.4278   13.8407 O   0  0  0  0  0  0  0  0  0  0  0  0
   30.3353   34.2734   12.9158 O   0  5  0  0  0  0  0  0  0  0  0  0
   28.2226   35.5999   12.7871 O   0  0  0  0  0  0  0  0  0  0  0  0
   30.1132   34.7094   16.0164 C   0  0  0  0  0  0  0  0  0  0  0  0
   29.4573   35.4123   14.9817 O   0  0  0  0  0  0  0  0  0  0  0  0
   30.3300   35.6468   17.2015 C   0  0  1  0  0  0  0  0  0  0  0  0
   31.1696   36.7170   16.8163 O   0  0  0  0  0  0  0  0  0  0  0  0
   28.9981   36.2073   17.6713 C   0  0  1  0  0  0  0  0  0  0  0  0
   28.1185   35.1369   17.8900 O   0  0  0  0  0  0  0  0  0  0  0  0
   29.1220   37.0117   18.9543 C   0  0  1  0  0  0  0  0  0  0  0  0
   29.9930   38.0849   18.7182 O   0  0  0  0  0  0  0  0  0  0  0  0
   27.7696   37.5514   19.3894 C   0  0  0  0  0  0  0  0  0  0  0  0
   27.4676   35.5888   21.3836 N   0  0  0  0  0  0  0  0  0  0  0  0
   27.2570   34.5997   22.3197 C   0  0  0  0  0  0  0  0  0  0  0  0
   27.1440   33.4300   21.9650 O   0  0  0  0  0  0  0  0  0  0  0  0
   27.1693   34.9122   23.6571 N   0  0  0  0  0  0  0  0  0  0  0  0
   27.3033   36.2219   24.0748 C   0  0  0  0  0  0  0  0  0  0  0  0
   27.5152   37.2268   23.1374 C   0  0  1  0  0  0  0  0  0  0  0  0
   27.2427   36.4941   25.2756 O   0  0  0  0  0  0  0  0  0  0  0  0
   27.8606   39.5348   22.6146 C   0  0  2  0  0  0  0  0  0  0  0  0
   27.6482   38.5381   23.5479 N   0  0  0  0  0  0  0  0  0  0  0  0
   27.9947   40.8598   23.0307 C   0  0  0  0  0  0  0  0  0  0  0  0
   28.2034   41.8706   22.0999 C   0  0  1  0  0  0  0  0  0  0  0  0
   28.3390   43.2802   22.5824 C   0  0  0  0  0  0  0  0  0  0  0  0
   28.2845   41.5553   20.7351 C   0  0  1  0  0  0  0  0  0  0  0  0
   28.5185   42.6180   19.6967 C   0  0  0  0  0  0  0  0  0  0  0  0
   28.1486   40.2323   20.3227 C   0  0  0  0  0  0  0  0  0  0  0  0
   27.9348   39.2167   21.2564 C   0  0  1  0  0  0  0  0  0  0  0  0
   27.5932   36.9036   21.7843 C   0  0  1  0  0  0  0  0  0  0  0  0
   27.7969   37.8988   20.8475 N   0  0  0  0  0  0  0  0  0  0  0  0
  1  2  1  1  0  0  0
  1  3  1  0  0  0  0
  1  4  2  0  0  0  0
  1  6  1  0  0  0  0
  5  6  1  0  0  0  0
  7  5  1  6  0  0  0
  7  8  1  0  0  0  0
  7  9  1  0  0  0  0
  9 10  1  1  0  0  0
  9 11  1  0  0  0  0
 11 12  1  6  0  0  0
 11 13  1  0  0  0  0
 13 31  1  0  0  0  0
 14 15  1  0  0  0  0
 15 16  2  0  0  0  0
 15 17  1  0  0  0  0
 17 18  1  0  0  0  0
 18 20  2  0  0  0  0
 19 18  1  1  0  0  0
 19 22  1  0  0  0  0
 19 30  1  0  0  0  0
 21 23  1  6  0  0  0
 21 29  1  0  0  0  0
 21 22  1  0  0  0  0
 23 24  1  0  0  0  0
 24 25  1  1  0  0  0
 24 26  1  0  0  0  0
 26 27  1  1  0  0  0
 26 28  1  0  0  0  0
 29 28  1  1  0  0  0
 29 31  1  0  0  0  0
 30 14  1  1  0  0  0
 30 31  1  0  0  0  0
M  CHG  1   3  -1
M  END
>  <CHROM.1>
-178.41207372,54.56371833,-62.41034451,52.32008027,60.24628899,159.70277901
101.28135244,28.46177822,37.06164364,19.29437471,-0.90334991,1.30534866,0.45489124

>  <Name>
ligand

>  <RI>
0

>  <Rbt.Current_Directory>
/home/itssahil/PROJECTS/Mol_Feturizer/New_Systems/rnas/3F2T

>  <Rbt.Executable>
rbdock ($Id: //depot/dev/client3/rdock/2013.1/src/exe/rbdock.cxx#4 $)

>  <Rbt.Library>
libRbt.so (2013.1, Build901 2013/11/27)

>  <Rbt.Parameter_File>
/export/apps/rDock/src/rDock_2013.1_src/data/scripts/dock_solv.prm

>  <Rbt.Receptor>
prm/pocket_docking_8.prm

>  <SCORE>
-20.2109

>  <SCORE.INTER>
-19.5089

>  <SCORE.INTER.CONST>
1

>  <SCORE.INTER.POLAR>
0

>  <SCORE.INTER.ROT>
7

>  <SCORE.INTER.SOLV>
11.7409

>  <SCORE.INTER.VDW>
-25.1862

>  <SCORE.INTER.norm>
-0.629319

>  <SCORE.INTRA>
-0.701958

>  <SCORE.INTRA.DIHEDRAL>
-1.65434

>  <SCORE.INTRA.DIHEDRAL.0>
4.64198

>  <SCORE.INTRA.POLAR>
0

>  <SCORE.INTRA.POLAR.0>
0

>  <SCORE.INTRA.REPUL>
0

>  <SCORE.INTRA.REPUL.0>
0

>  <SCORE.INTRA.SOLV>
-0.301533

>  <SCORE.INTRA.SOLV.lig_0>
-49.3611

>  <SCORE.INTRA.VDW>
0.275981

>  <SCORE.INTRA.VDW.0>
-1.91858

>  <SCORE.INTRA.norm>
-0.0226438

>  <SCORE.RESTR>
0

>  <SCORE.RESTR.CAVITY>
0

>  <SCORE.RESTR.norm>
0

>  <SCORE.SYSTEM>
0

>  <SCORE.SYSTEM.CONST>
0

>  <SCORE.SYSTEM.DIHEDRAL>
0

>  <SCORE.SYSTEM.SOLV>
0

>  <SCORE.SYSTEM.norm>
0

>  <SCORE.heavy>
31

>  <SCORE.norm>
-0.651963

>  <RMSD>
5.550

$$$$
ligand
 OpenBabel11021811473D
libRbt.so/2013.1/901 2013/11/27
 31 33  0  0  0  0  0  0  0  0999 V2000
   23.7712   33.5118   16.7103 P   0  0  1  0  0  0  0  0  0  0  0  0
   23.8518   32.0364   16.4107 O   0  0  0  0  0  0  0  0  0  0  0  0
   24.8964   34.2114   15.9950 O   0  5  0  0  0  0  0  0  0  0  0  0
   22.4213   33.9730   16.2339 O   0  0  0  0  0  0  0  0  0  0  0  0
   23.5112   35.1039   18.7763 C   0  0  0  0  0  0  0  0  0  0  0  0
   23.8999   33.8413   18.2766 O   0  0  0  0  0  0  0  0  0  0  0  0
   24.4026   36.1820   18.1655 C   0  0  1  0  0  0  0  0  0  0  0  0
   23.8197   37.4541   18.3673 O   0  0  0  0  0  0  0  0  0  0  0  0
   25.7731   36.1563   18.8209 C   0  0  1  0  0  0  0  0  0  0  0  0
   26.3590   34.9058   18.5753 O   0  0  0  0  0  0  0  0  0  0  0  0
   26.6944   37.2430   18.2928 C   0  0  1  0  0  0  0  0  0  0  0  0
   26.0875   38.4854   18.5251 O   0  0  0  0  0  0  0  0  0  0  0  0
   28.0400   37.2038   18.9980 C   0  0  0  0  0  0  0  0  0  0  0  0
   27.6463   35.2106   20.9453 N   0  0  0  0  0  0  0  0  0  0  0  0
   27.3981   34.2025   21.8514 C   0  0  0  0  0  0  0  0  0  0  0  0
   27.4096   33.0303   21.4871 O   0  0  0  0  0  0  0  0  0  0  0  0
   27.1333   34.4985   23.1691 N   0  0  0  0  0  0  0  0  0  0  0  0
   27.1253   35.8113   23.5983 C   0  0  0  0  0  0  0  0  0  0  0  0
   27.3739   36.8353   22.6910 C   0  0  1  0  0  0  0  0  0  0  0  0
   26.9062   36.0700   24.7835 O   0  0  0  0  0  0  0  0  0  0  0  0
   27.6147   39.1655   22.2097 C   0  0  2  0  0  0  0  0  0  0  0  0
   27.3656   38.1497   23.1129 N   0  0  0  0  0  0  0  0  0  0  0  0
   27.6060   40.4936   22.6373 C   0  0  0  0  0  0  0  0  0  0  0  0
   27.8502   41.5232   21.7361 C   0  0  1  0  0  0  0  0  0  0  0  0
   27.8292   42.9353   22.2297 C   0  0  0  0  0  0  0  0  0  0  0  0
   28.1118   41.2242   20.3905 C   0  0  1  0  0  0  0  0  0  0  0  0
   28.3900   42.3081   19.3855 C   0  0  0  0  0  0  0  0  0  0  0  0
   28.1183   39.8979   19.9665 C   0  0  0  0  0  0  0  0  0  0  0  0
   27.8690   38.8632   20.8698 C   0  0  1  0  0  0  0  0  0  0  0  0
   27.6316   36.5281   21.3566 C   0  0  1  0  0  0  0  0  0  0  0  0
   27.8727   37.5418   20.4490 N   0  0  0  0  0  0  0  0  0  0  0  0
  1  2  1  6  0  0  0
  1  3  1  0  0  0  0
  1  4  2  0  0  0  0
  1  6  1  0  0  0  0
  5  6  1  0  0  0  0
  7  5  1  1  0  0  0
  7  8  1  0  0  0  0
  7  9  1  0  0  0  0
  9 10  1  6  0  0  0
  9 11  1  0  0  0  0
 11 12  1  1  0  0  0
 11 13  1  0  0  0  0
 13 31  1  0  0  0  0
 14 15  1  0  0  0  0
 15 16  2  0  0  0  0
 15 17  1  0  0  0  0
 17 18  1  0  0  0  0
 18 20  2  0  0  0  0
 19 18  1  1  0  0  0
 19 22  1  0  0  0  0
 19 30  1  0  0  0  0
 21 23  1  6  0  0  0
 21 29  1  0  0  0  0
 21 22  1  0  0  0  0
 23 24  1  0  0  0  0
 24 25  1  1  0  0  0
 24 26  1  0  0  0  0
 26 27  1  1  0  0  0
 26 28  1  0  0  0  0
 29 28  1  1  0  0  0
 29 31  1  0  0  0  0
 30 14  1  1  0  0  0
 30 31  1  0  0  0  0
M  CHG  1   3  -1
M  END
>  <CHROM.1>
-63.33694611,-163.74224289,164.66351926,61.60050294,58.74470379,-65.33707865
-85.64563503,26.27811537,36.67254364,19.91876293,2.73016215,1.06689606,2.66782465

>  <Name>
ligand

>  <RI>
0

>  <Rbt.Current_Directory>
/home/itssahil/PROJECTS/Mol_Feturizer/New_Systems/rnas/3F2T

>  <Rbt.Executable>
rbdock ($Id: //depot/dev/client3/rdock/2013.1/src/exe/rbdock.cxx#4 $)

>  <Rbt.Library>
libRbt.so (2013.1, Build901 2013/11/27)

>  <Rbt.Parameter_File>
/export/apps/rDock/src/rDock_2013.1_src/data/scripts/dock_solv.prm

>  <Rbt.Receptor>
prm/blind_docking_60.prm

>  <SCORE>
-23.6316

>  <SCORE.INTER>
-24.3979

>  <SCORE.INTER.CONST>
1

>  <SCORE.INTER.POLAR>
0

>  <SCORE.INTER.ROT>
7

>  <SCORE.INTER.SOLV>
15.7289

>  <SCORE.INTER.VDW>
-29.7749

>  <SCORE.INTER.norm>
-0.787028

>  <SCORE.INTRA>
0.766278

>  <SCORE.INTRA.DIHEDRAL>
-2.2211

>  <SCORE.INTRA.DIHEDRAL.0>
4.64198

>  <SCORE.INTRA.POLAR>
0

>  <SCORE.INTRA.POLAR.0>
0

>  <SCORE.INTRA.REPUL>
0

>  <SCORE.INTRA.REPUL.0>
0

>  <SCORE.INTRA.SOLV>
4.50547

>  <SCORE.INTRA.SOLV.lig_0>
-49.3611

>  <SCORE.INTRA.VDW>
-0.375908

>  <SCORE.INTRA.VDW.0>
-1.91858

>  <SCORE.INTRA.norm>
0.0247186

>  <SCORE.RESTR>
0

>  <SCORE.RESTR.CAVITY>
0

>  <SCORE.RESTR.norm>
0

>  <SCORE.SYSTEM>
0

>  <SCORE.SYSTEM.CONST>
0

>  <SCORE.SYSTEM.DIHEDRAL>
0

>  <SCORE.SYSTEM.SOLV>
0

>  <SCORE.SYSTEM.norm>
0

>  <SCORE.heavy>
31

>  <SCORE.norm>
-0.762309

>  <RMSD>
5.557

$$$$
ligand
 OpenBabel11021811473D
libRbt.so/2013.1/901 2013/11/27
 31 33  0  0  0  0  0  0  0  0999 V2000
   33.1263   34.5916   16.3038 P   0  0  1  0  0  0  0  0  0  0  0  0
   33.3586   35.3687   15.0328 O   0  0  0  0  0  0  0  0  0  0  0  0
   32.3592   33.3397   15.9702 O   0  5  0  0  0  0  0  0  0  0  0  0
   34.4840   34.2904   16.8765 O   0  0  0  0  0  0  0  0  0  0  0  0
   32.7600   36.6479   17.8875 C   0  0  0  0  0  0  0  0  0  0  0  0
   32.2825   35.4131   17.3953 O   0  0  0  0  0  0  0  0  0  0  0  0
   32.1288   37.7852   17.0886 C   0  0  1  0  0  0  0  0  0  0  0  0
   32.3680   37.5896   15.7090 O   0  0  0  0  0  0  0  0  0  0  0  0
   30.6291   37.8204   17.3305 C   0  0  1  0  0  0  0  0  0  0  0  0
   30.0773   36.6149   16.8726 O   0  0  0  0  0  0  0  0  0  0  0  0
   30.2775   37.9957   18.7983 C   0  0  1  0  0  0  0  0  0  0  0  0
   30.9453   39.1315   19.2778 O   0  0  0  0  0  0  0  0  0  0  0  0
   28.7801   38.1822   18.9791 C   0  0  0  0  0  0  0  0  0  0  0  0
   28.2781   35.6343   20.0636 N   0  0  0  0  0  0  0  0  0  0  0  0
   27.9857   34.3717   20.5319 C   0  0  0  0  0  0  0  0  0  0  0  0
   28.1231   33.3961   19.7996 O   0  0  0  0  0  0  0  0  0  0  0  0
   27.5360   34.1922   21.8201 N   0  0  0  0  0  0  0  0  0  0  0  0
   27.3844   35.2777   22.6607 C   0  0  0  0  0  0  0  0  0  0  0  0
   27.6762   36.5555   22.1968 C   0  0  1  0  0  0  0  0  0  0  0  0
   26.9992   35.1096   23.8196 O   0  0  0  0  0  0  0  0  0  0  0  0
   27.8176   38.9138   22.5683 C   0  0  2  0  0  0  0  0  0  0  0  0
   27.5252   37.6451   23.0310 N   0  0  0  0  0  0  0  0  0  0  0  0
   27.6644   40.0142   23.4124 C   0  0  0  0  0  0  0  0  0  0  0  0
   27.9508   41.2952   22.9555 C   0  0  1  0  0  0  0  0  0  0  0  0
   27.7713   42.4515   23.8875 C   0  0  0  0  0  0  0  0  0  0  0  0
   28.4011   41.4814   21.6397 C   0  0  1  0  0  0  0  0  0  0  0  0
   28.7306   42.8497   21.1092 C   0  0  0  0  0  0  0  0  0  0  0  0
   28.5515   40.3815   20.7992 C   0  0  0  0  0  0  0  0  0  0  0  0
   28.2601   39.0948   21.2557 C   0  0  1  0  0  0  0  0  0  0  0  0
   28.1218   36.7301   20.8882 C   0  0  1  0  0  0  0  0  0  0  0  0
   28.4070   37.9983   20.4194 N   0  0  0  0  0  0  0  0  0  0  0  0
  1  2  1  6  0  0  0
  1  3  1  0  0  0  0
  1  4  2  0  0  0  0
  1  6  1  0  0  0  0
  5  6  1  0  0  0  0
  7  5  1  1  0  0  0
  7  8  1  0  0  0  0
  7  9  1  0  0  0  0
  9 10  1  1  0  0  0
  9 11  1  0  0  0  0
 11 12  1  6  0  0  0
 11 13  1  0  0  0  0
 13 31  1  0  0  0  0
 14 15  1  0  0  0  0
 15 16  2  0  0  0  0
 15 17  1  0  0  0  0
 17 18  1  0  0  0  0
 18 20  2  0  0  0  0
 19 18  1  1  0  0  0
 19 22  1  0  0  0  0
 19 30  1  0  0  0  0
 21 23  1  6  0  0  0
 21 29  1  0  0  0  0
 21 22  1  0  0  0  0
 23 24  1  0  0  0  0
 24 25  1  1  0  0  0
 24 26  1  0  0  0  0
 26 27  1  1  0  0  0
 26 28  1  0  0  0  0
 29 28  1  1  0  0  0
 29 31  1  0  0  0  0
 30 14  1  1  0  0  0
 30 31  1  0  0  0  0
M  CHG  1   3  -1
M  END
>  <CHROM.1>
95.35652627,-59.19087262,-54.59664673,-62.25293638,53.80010122,165.37735205
96.95372635,29.82878419,37.15835743,19.60353570,0.58516398,-0.84640495,-3.02093468

>  <Name>
ligand

>  <RI>
0

>  <Rbt.Current_Directory>
/home/itssahil/PROJECTS/Mol_Feturizer/New_Systems/rnas/3F2T

>  <Rbt.Executable>
rbdock ($Id: //depot/dev/client3/rdock/2013.1/src/exe/rbdock.cxx#4 $)

>  <Rbt.Library>
libRbt.so (2013.1, Build901 2013/11/27)

>  <Rbt.Parameter_File>
/export/apps/rDock/src/rDock_2013.1_src/data/scripts/dock_solv.prm

>  <Rbt.Receptor>
prm/blind_docking_100.prm

>  <SCORE>
-21.8634

>  <SCORE.INTER>
-24.3145

>  <SCORE.INTER.CONST>
1

>  <SCORE.INTER.POLAR>
0

>  <SCORE.INTER.ROT>
7

>  <SCORE.INTER.SOLV>
17.3161

>  <SCORE.INTER.VDW>
-30.2483

>  <SCORE.INTER.norm>
-0.784338

>  <SCORE.INTRA>
2.45104

>  <SCORE.INTRA.DIHEDRAL>
2.28963

>  <SCORE.INTRA.DIHEDRAL.0>
4.64198

>  <SCORE.INTRA.POLAR>
0

>  <SCORE.INTRA.POLAR.0>
0

>  <SCORE.INTRA.REPUL>
0

>  <SCORE.INTRA.REPUL.0>
0

>  <SCORE.INTRA.SOLV>
1.51562

>  <SCORE.INTRA.SOLV.lig_0>
-49.3611

>  <SCORE.INTRA.VDW>
0.548419

>  <SCORE.INTRA.VDW.0>
-1.91858

>  <SCORE.INTRA.norm>
0.0790659

>  <SCORE.RESTR>
0

>  <SCORE.RESTR.CAVITY>
0

>  <SCORE.RESTR.norm>
0

>  <SCORE.SYSTEM>
0

>  <SCORE.SYSTEM.CONST>
0

>  <SCORE.SYSTEM.DIHEDRAL>
0

>  <SCORE.SYSTEM.SOLV>
0

>  <SCORE.SYSTEM.norm>
0

>  <SCORE.heavy>
31

>  <SCORE.norm>
-0.705272

>  <RMSD>
5.564

$$$$
ligand
 OpenBabel11021811473D
libRbt.so/2013.1/901 2013/11/27
 31 33  0  0  0  0  0  0  0  0999 V2000
   26.2920   43.5424   16.7599 P   0  0  1  0  0  0  0  0  0  0  0  0
   26.6778   44.9878   16.5722 O   0  0  0  0  0  0  0  0  0  0  0  0
   24.7900   43.4453   16.7988 O   0  5  0  0  0  0  0  0  0  0  0  0
   26.8804   42.7874   15.5998 O   0  0  0  0  0  0  0  0  0  0  0  0
   28.2508   42.9274   18.3895 C   0  0  0  0  0  0  0  0  0  0  0  0
   26.8641   42.9127   18.1217 O   0  0  0  0  0  0  0  0  0  0  0  0
   28.5089   42.2630   19.7394 C   0  0  1  0  0  0  0  0  0  0  0  0
   27.6809   42.8473   20.7251 O   0  0  0  0  0  0  0  0  0  0  0  0
   28.2035   40.7770   19.6541 C   0  0  1  0  0  0  0  0  0  0  0  0
   28.9866   40.2209   18.6320 O   0  0  0  0  0  0  0  0  0  0  0  0
   28.4972   40.0442   20.9524 C   0  0  1  0  0  0  0  0  0  0  0  0
   29.7750   40.4204   21.3903 O   0  0  0  0  0  0  0  0  0  0  0  0
   27.4769   40.4019   22.0203 C   0  0  0  0  0  0  0  0  0  0  0  0
   27.9153   41.3115   24.6472 N   0  0  0  0  0  0  0  0  0  0  0  0
   28.1883   41.8031   25.9052 C   0  0  0  0  0  0  0  0  0  0  0  0
   28.2479   43.0146   26.0935 O   0  0  0  0  0  0  0  0  0  0  0  0
   28.3987   40.9439   26.9595 N   0  0  0  0  0  0  0  0  0  0  0  0
   28.3264   39.5779   26.7678 C   0  0  0  0  0  0  0  0  0  0  0  0
   28.0523   39.0726   25.5017 C   0  0  1  0  0  0  0  0  0  0  0  0
   28.4970   38.8130   27.7193 O   0  0  0  0  0  0  0  0  0  0  0  0
   27.7060   37.2087   24.0439 C   0  0  2  0  0  0  0  0  0  0  0  0
   27.9804   37.7084   25.3026 N   0  0  0  0  0  0  0  0  0  0  0  0
   27.6338   35.8297   23.8439 C   0  0  0  0  0  0  0  0  0  0  0  0
   27.3635   35.3163   22.5809 C   0  0  1  0  0  0  0  0  0  0  0  0
   27.2972   33.8323   22.4034 C   0  0  0  0  0  0  0  0  0  0  0  0
   27.1572   36.1903   21.5029 C   0  0  1  0  0  0  0  0  0  0  0  0
   26.8533   35.6759   20.1225 C   0  0  0  0  0  0  0  0  0  0  0  0
   27.2316   37.5659   21.7052 C   0  0  0  0  0  0  0  0  0  0  0  0
   27.5072   38.0827   22.9725 C   0  0  1  0  0  0  0  0  0  0  0  0
   27.8501   39.9488   24.4373 C   0  0  1  0  0  0  0  0  0  0  0  0
   27.5839   39.4524   23.1755 N   0  0  0  0  0  0  0  0  0  0  0  0
  1  2  1  6  0  0  0
  1  3  1  0  0  0  0
  1  4  2  0  0  0  0
  1  6  1  0  0  0  0
  5  6  1  0  0  0  0
  7  5  1  6  0  0  0
  7  8  1  0  0  0  0
  7  9  1  0  0  0  0
  9 10  1  6  0  0  0
  9 11  1  0  0  0  0
 11 12  1  1  0  0  0
 11 13  1  0  0  0  0
 13 31  1  0  0  0  0
 14 15  1  0  0  0  0
 15 16  2  0  0  0  0
 15 17  1  0  0  0  0
 17 18  1  0  0  0  0
 18 20  2  0  0  0  0
 19 18  1  1  0  0  0
 19 22  1  0  0  0  0
 19 30  1  0  0  0  0
 21 23  1  6  0  0  0
 21 29  1  0  0  0  0
 21 22  1  0  0  0  0
 23 24  1  0  0  0  0
 24 25  1  1  0  0  0
 24 26  1  0  0  0  0
 26 27  1  1  0  0  0
 26 28  1  0  0  0  0
 29 28  1  1  0  0  0
 29 31  1  0  0  0  0
 30 14  1  1  0  0  0
 30 31  1  0  0  0  0
M  CHG  1   3  -1
M  END
>  <CHROM.1>
-179.76483023,-56.74375618,-51.79838851,56.98432198,-48.23174752,167.05563706
-54.13629713,27.63433035,40.24265644,21.62217608,-2.35959055,1.39799750,2.92172253

>  <Name>
ligand

>  <RI>
0

>  <Rbt.Current_Directory>
/home/itssahil/PROJECTS/Mol_Feturizer/New_Systems/rnas/3F2T

>  <Rbt.Executable>
rbdock ($Id: //depot/dev/client3/rdock/2013.1/src/exe/rbdock.cxx#4 $)

>  <Rbt.Library>
libRbt.so (2013.1, Build901 2013/11/27)

>  <Rbt.Parameter_File>
/export/apps/rDock/src/rDock_2013.1_src/data/scripts/dock_solv.prm

>  <Rbt.Receptor>
prm/pocket_docking_6.prm

>  <SCORE>
-24.7456

>  <SCORE.INTER>
-24.916

>  <SCORE.INTER.CONST>
1

>  <SCORE.INTER.POLAR>
0

>  <SCORE.INTER.ROT>
7

>  <SCORE.INTER.SOLV>
19.3156

>  <SCORE.INTER.VDW>
-31.3158

>  <SCORE.INTER.norm>
-0.803741

>  <SCORE.INTRA>
0.170405

>  <SCORE.INTRA.DIHEDRAL>
-2.05301

>  <SCORE.INTRA.DIHEDRAL.0>
4.64198

>  <SCORE.INTRA.POLAR>
0

>  <SCORE.INTRA.POLAR.0>
0

>  <SCORE.INTRA.REPUL>
0

>  <SCORE.INTRA.REPUL.0>
0

>  <SCORE.INTRA.SOLV>
-0.241013

>  <SCORE.INTRA.SOLV.lig_0>
-49.3611

>  <SCORE.INTRA.VDW>
1.31742

>  <SCORE.INTRA.VDW.0>
-1.91858

>  <SCORE.INTRA.norm>
0.00549693

>  <SCORE.RESTR>
0

>  <SCORE.RESTR.CAVITY>
0

>  <SCORE.RESTR.norm>
0

>  <SCORE.SYSTEM>
0

>  <SCORE.SYSTEM.CONST>
0

>  <SCORE.SYSTEM.DIHEDRAL>
0

>  <SCORE.SYSTEM.SOLV>
0

>  <SCORE.SYSTEM.norm>
0

>  <SCORE.heavy>
31

>  <SCORE.norm>
-0.798244

>  <RMSD>
5.603

$$$$
ligand
 OpenBabel11021811473D
libRbt.so/2013.1/901 2013/11/27
 31 33  0  0  0  0  0  0  0  0999 V2000
   27.1337   42.8395   24.2122 P   0  0  1  0  0  0  0  0  0  0  0  0
   28.0157   43.8874   24.8423 O   0  0  0  0  0  0  0  0  0  0  0  0
   27.4628   41.5024   24.8212 O   0  5  0  0  0  0  0  0  0  0  0  0
   25.7138   43.2539   24.4847 O   0  0  0  0  0  0  0  0  0  0  0  0
   26.4603   41.9317   21.8472 C   0  0  0  0  0  0  0  0  0  0  0  0
   27.3356   42.7230   22.6235 O   0  0  0  0  0  0  0  0  0  0  0  0
   27.0027   41.8315   20.4238 C   0  0  1  0  0  0  0  0  0  0  0  0
   27.4140   43.1088   19.9786 O   0  0  0  0  0  0  0  0  0  0  0  0
   28.1928   40.8876   20.3863 C   0  0  1  0  0  0  0  0  0  0  0  0
   29.0577   41.2220   21.4387 O   0  0  0  0  0  0  0  0  0  0  0  0
   27.7878   39.4299   20.5272 C   0  0  1  0  0  0  0  0  0  0  0  0
   27.0076   39.0809   19.4157 O   0  0  0  0  0  0  0  0  0  0  0  0
   29.0109   38.5297   20.5826 C   0  0  0  0  0  0  0  0  0  0  0  0
   27.8236   37.1388   22.7217 N   0  0  0  0  0  0  0  0  0  0  0  0
   27.2996   36.4863   23.8164 C   0  0  0  0  0  0  0  0  0  0  0  0
   27.0823   37.1030   24.8553 O   0  0  0  0  0  0  0  0  0  0  0  0
   27.0178   35.1405   23.7574 N   0  0  0  0  0  0  0  0  0  0  0  0
   27.2475   34.4328   22.5937 C   0  0  0  0  0  0  0  0  0  0  0  0
   27.7767   35.0827   21.4842 C   0  0  1  0  0  0  0  0  0  0  0  0
   26.9757   33.2316   22.5400 O   0  0  0  0  0  0  0  0  0  0  0  0
   28.5348   35.0295   19.2166 C   0  0  2  0  0  0  0  0  0  0  0  0
   28.0105   34.3811   20.3185 N   0  0  0  0  0  0  0  0  0  0  0  0
   28.7708   34.3192   18.0390 C   0  0  0  0  0  0  0  0  0  0  0  0
   29.3026   34.9605   16.9265 C   0  0  1  0  0  0  0  0  0  0  0  0
   29.5456   34.1662   15.6823 C   0  0  0  0  0  0  0  0  0  0  0  0
   29.5988   36.3306   16.9873 C   0  0  1  0  0  0  0  0  0  0  0  0
   30.1667   37.0640   15.8033 C   0  0  0  0  0  0  0  0  0  0  0  0
   29.3638   37.0364   18.1643 C   0  0  0  0  0  0  0  0  0  0  0  0
   28.8335   36.3924   19.2837 C   0  0  1  0  0  0  0  0  0  0  0  0
   28.0685   36.4433   21.5548 C   0  0  1  0  0  0  0  0  0  0  0  0
   28.6008   37.0931   20.4577 N   0  0  0  0  0  0  0  0  0  0  0  0
  1  2  1  1  0  0  0
  1  3  1  0  0  0  0
  1  4  2  0  0  0  0
  1  6  1  0  0  0  0
  5  6  1  0  0  0  0
  7  5  1  1  0  0  0
  7  8  1  0  0  0  0
  7  9  1  0  0  0  0
  9 10  1  1  0  0  0
  9 11  1  0  0  0  0
 11 12  1  6  0  0  0
 11 13  1  0  0  0  0
 13 31  1  0  0  0  0
 14 15  1  0  0  0  0
 15 16  2  0  0  0  0
 15 17  1  0  0  0  0
 17 18  1  0  0  0  0
 18 20  2  0  0  0  0
 19 18  1  6  0  0  0
 19 22  1  0  0  0  0
 19 30  1  0  0  0  0
 21 23  1  1  0  0  0
 21 29  1  0  0  0  0
 21 22  1  0  0  0  0
 23 24  1  0  0  0  0
 24 25  1  6  0  0  0
 24 26  1  0  0  0  0
 26 27  1  6  0  0  0
 26 28  1  0  0  0  0
 29 28  1  6  0  0  0
 29 31  1  0  0  0  0
 30 14  1  6  0  0  0
 30 31  1  0  0  0  0
M  CHG  1   3  -1
M  END
>  <CHROM.1>
-171.52993198,-170.93768122,-45.36565938,-47.30874761,64.13645462,-169.23794076
106.40130656,27.91817269,38.48865756,21.18750202,2.21449572,1.27563472,-0.05656986

>  <Name>
ligand

>  <RI>
0

>  <Rbt.Current_Directory>
/home/itssahil/PROJECTS/Mol_Feturizer/New_Systems/rnas/3F2T

>  <Rbt.Executable>
rbdock ($Id: //depot/dev/client3/rdock/2013.1/src/exe/rbdock.cxx#4 $)

>  <Rbt.Library>
libRbt.so (2013.1, Build901 2013/11/27)

>  <Rbt.Parameter_File>
/export/apps/rDock/src/rDock_2013.1_src/data/scripts/dock_solv.prm

>  <Rbt.Receptor>
prm/pocket_docking_6.prm

>  <SCORE>
-22.3707

>  <SCORE.INTER>
-23.0877

>  <SCORE.INTER.CONST>
1

>  <SCORE.INTER.POLAR>
0

>  <SCORE.INTER.ROT>
7

>  <SCORE.INTER.SOLV>
15.3206

>  <SCORE.INTER.VDW>
-28.7653

>  <SCORE.INTER.norm>
-0.744764

>  <SCORE.INTRA>
0.711742

>  <SCORE.INTRA.DIHEDRAL>
-1.09502

>  <SCORE.INTRA.DIHEDRAL.0>
4.64198

>  <SCORE.INTRA.POLAR>
0

>  <SCORE.INTRA.POLAR.0>
0

>  <SCORE.INTRA.REPUL>
0

>  <SCORE.INTRA.REPUL.0>
0

>  <SCORE.INTRA.SOLV>
0.90967

>  <SCORE.INTRA.SOLV.lig_0>
-49.3611

>  <SCORE.INTRA.VDW>
0.804418

>  <SCORE.INTRA.VDW.0>
-1.91858

>  <SCORE.INTRA.norm>
0.0229594

>  <SCORE.RESTR>
0.00523503

>  <SCORE.RESTR.CAVITY>
0.00523503

>  <SCORE.RESTR.norm>
0.000168872

>  <SCORE.SYSTEM>
0

>  <SCORE.SYSTEM.CONST>
0

>  <SCORE.SYSTEM.DIHEDRAL>
0

>  <SCORE.SYSTEM.SOLV>
0

>  <SCORE.SYSTEM.norm>
0

>  <SCORE.heavy>
31

>  <SCORE.norm>
-0.721635

>  <RMSD>
5.607

$$$$
ligand
 OpenBabel11021811473D
libRbt.so/2013.1/901 2013/11/27
 31 33  0  0  0  0  0  0  0  0999 V2000
   28.4639   42.4009   23.5496 P   0  0  1  0  0  0  0  0  0  0  0  0
   27.2579   43.1969   23.1192 O   0  0  0  0  0  0  0  0  0  0  0  0
   29.6272   42.7742   22.6696 O   0  5  0  0  0  0  0  0  0  0  0  0
   28.7107   42.7433   24.9932 O   0  0  0  0  0  0  0  0  0  0  0  0
   27.7222   40.2514   22.2457 C   0  0  0  0  0  0  0  0  0  0  0  0
   28.2429   40.8149   23.4316 O   0  0  0  0  0  0  0  0  0  0  0  0
   28.7215   40.4581   21.1104 C   0  0  1  0  0  0  0  0  0  0  0  0
   29.8719   39.6683   21.3373 O   0  0  0  0  0  0  0  0  0  0  0  0
   28.0957   40.0518   19.7868 C   0  0  1  0  0  0  0  0  0  0  0  0
   29.0176   40.3107   18.7620 O   0  0  0  0  0  0  0  0  0  0  0  0
   27.7161   38.5811   19.7464 C   0  0  1  0  0  0  0  0  0  0  0  0
   26.9036   38.3672   18.6239 O   0  0  0  0  0  0  0  0  0  0  0  0
   28.9528   37.7040   19.6433 C   0  0  0  0  0  0  0  0  0  0  0  0
   27.8913   36.6070   22.0075 N   0  0  0  0  0  0  0  0  0  0  0  0
   27.4302   36.1055   23.2053 C   0  0  0  0  0  0  0  0  0  0  0  0
   27.2448   36.8578   24.1575 O   0  0  0  0  0  0  0  0  0  0  0  0
   27.1760   34.7604   23.3469 N   0  0  0  0  0  0  0  0  0  0  0  0
   27.3702   33.9008   22.2833 C   0  0  0  0  0  0  0  0  0  0  0  0
   27.8359   34.3976   21.0710 C   0  0  1  0  0  0  0  0  0  0  0  0
   27.1231   32.6997   22.4096 O   0  0  0  0  0  0  0  0  0  0  0  0
   28.4952   34.0402   18.8001 C   0  0  2  0  0  0  0  0  0  0  0  0
   28.0341   33.5438   20.0045 N   0  0  0  0  0  0  0  0  0  0  0  0
   28.6952   33.1762   17.7229 C   0  0  0  0  0  0  0  0  0  0  0  0
   29.1636   33.6641   16.5087 C   0  0  1  0  0  0  0  0  0  0  0  0
   29.3695   32.7077   15.3769 C   0  0  0  0  0  0  0  0  0  0  0  0
   29.4317   35.0338   16.3648 C   0  0  1  0  0  0  0  0  0  0  0  0
   29.9309   35.6035   15.0654 C   0  0  0  0  0  0  0  0  0  0  0  0
   29.2327   35.8933   17.4421 C   0  0  0  0  0  0  0  0  0  0  0  0
   28.7663   35.4037   18.6634 C   0  0  1  0  0  0  0  0  0  0  0  0
   28.1003   35.7592   20.9385 C   0  0  1  0  0  0  0  0  0  0  0  0
   28.5697   36.2577   19.7382 N   0  0  0  0  0  0  0  0  0  0  0  0
  1  2  1  6  0  0  0
  1  3  1  0  0  0  0
  1  4  2  0  0  0  0
  1  6  1  0  0  0  0
  5  6  1  0  0  0  0
  7  5  1  1  0  0  0
  7  8  1  0  0  0  0
  7  9  1  0  0  0  0
  9 10  1  6  0  0  0
  9 11  1  0  0  0  0
 11 12  1  6  0  0  0
 11 13  1  0  0  0  0
 13 31  1  0  0  0  0
 14 15  1  0  0  0  0
 15 16  2  0  0  0  0
 15 17  1  0  0  0  0
 17 18  1  0  0  0  0
 18 20  2  0  0  0  0
 19 18  1  6  0  0  0
 19 22  1  0  0  0  0
 19 30  1  0  0  0  0
 21 23  1  1  0  0  0
 21 29  1  0  0  0  0
 21 22  1  0  0  0  0
 23 24  1  0  0  0  0
 24 25  1  6  0  0  0
 24 26  1  0  0  0  0
 26 27  1  6  0  0  0
 26 28  1  0  0  0  0
 29 28  1  6  0  0  0
 29 31  1  0  0  0  0
 30 14  1  6  0  0  0
 30 31  1  0  0  0  0
M  CHG  1   3  -1
M  END
>  <CHROM.1>
65.63791625,48.91577471,68.68984243,177.38136669,167.65938681,174.54666192
115.51509133,28.36158043,37.59350844,20.67033095,-1.68448201,-1.28169619
-2.66633033

>  <Name>
ligand

>  <RI>
0

>  <Rbt.Current_Directory>
/home/itssahil/PROJECTS/Mol_Feturizer/New_Systems/rnas/3F2T

>  <Rbt.Executable>
rbdock ($Id: //depot/dev/client3/rdock/2013.1/src/exe/rbdock.cxx#4 $)

>  <Rbt.Library>
libRbt.so (2013.1, Build901 2013/11/27)

>  <Rbt.Parameter_File>
/export/apps/rDock/src/rDock_2013.1_src/data/scripts/dock_solv.prm

>  <Rbt.Receptor>
prm/pocket_docking_5.prm

>  <SCORE>
-21.2755

>  <SCORE.INTER>
-22.1575

>  <SCORE.INTER.CONST>
1

>  <SCORE.INTER.POLAR>
0

>  <SCORE.INTER.ROT>
7

>  <SCORE.INTER.SOLV>
13.5388

>  <SCORE.INTER.VDW>
-27.5512

>  <SCORE.INTER.norm>
-0.714757

>  <SCORE.INTRA>
0.881993

>  <SCORE.INTRA.DIHEDRAL>
-2.06608

>  <SCORE.INTRA.DIHEDRAL.0>
4.64198

>  <SCORE.INTRA.POLAR>
0

>  <SCORE.INTRA.POLAR.0>
0

>  <SCORE.INTRA.REPUL>
0

>  <SCORE.INTRA.REPUL.0>
0

>  <SCORE.INTRA.SOLV>
1.78379

>  <SCORE.INTRA.SOLV.lig_0>
-49.3611

>  <SCORE.INTRA.VDW>
1.02314

>  <SCORE.INTRA.VDW.0>
-1.91858

>  <SCORE.INTRA.norm>
0.0284514

>  <SCORE.RESTR>
0

>  <SCORE.RESTR.CAVITY>
0

>  <SCORE.RESTR.norm>
0

>  <SCORE.SYSTEM>
0

>  <SCORE.SYSTEM.CONST>
0

>  <SCORE.SYSTEM.DIHEDRAL>
0

>  <SCORE.SYSTEM.SOLV>
0

>  <SCORE.SYSTEM.norm>
0

>  <SCORE.heavy>
31

>  <SCORE.norm>
-0.686305

>  <RMSD>
5.612

$$$$
ligand
 OpenBabel11021811473D
libRbt.so/2013.1/901 2013/11/27
 31 33  0  0  0  0  0  0  0  0999 V2000
   25.4960   44.3546   16.2962 P   0  0  1  0  0  0  0  0  0  0  0  0
   25.9375   45.7730   16.5537 O   0  0  0  0  0  0  0  0  0  0  0  0
   24.6227   43.9065   17.4379 O   0  5  0  0  0  0  0  0  0  0  0  0
   24.7570   44.3667   14.9864 O   0  0  0  0  0  0  0  0  0  0  0  0
   27.6458   43.1906   17.2416 C   0  0  0  0  0  0  0  0  0  0  0  0
   26.7245   43.3272   16.1799 O   0  0  0  0  0  0  0  0  0  0  0  0
   27.0236   42.3315   18.3394 C   0  0  1  0  0  0  0  0  0  0  0  0
   26.4283   41.1837   17.7675 O   0  0  0  0  0  0  0  0  0  0  0  0
   28.0930   41.8944   19.3263 C   0  0  1  0  0  0  0  0  0  0  0  0
   28.7499   43.0379   19.8041 O   0  0  0  0  0  0  0  0  0  0  0  0
   27.5210   41.1269   20.5064 C   0  0  1  0  0  0  0  0  0  0  0  0
   26.6595   40.1375   20.0116 O   0  0  0  0  0  0  0  0  0  0  0  0
   28.6278   40.4687   21.3135 C   0  0  0  0  0  0  0  0  0  0  0  0
   27.9806   41.7886   23.7132 N   0  0  0  0  0  0  0  0  0  0  0  0
   27.7352   42.4698   24.8856 C   0  0  0  0  0  0  0  0  0  0  0  0
   27.9015   43.6849   24.9383 O   0  0  0  0  0  0  0  0  0  0  0  0
   27.3049   41.7971   26.0065 N   0  0  0  0  0  0  0  0  0  0  0  0
   27.1037   40.4312   25.9626 C   0  0  0  0  0  0  0  0  0  0  0  0
   27.3494   39.7353   24.7842 C   0  0  1  0  0  0  0  0  0  0  0  0
   26.7002   39.8361   26.9639 O   0  0  0  0  0  0  0  0  0  0  0  0
   27.3954   37.6806   23.5611 C   0  0  2  0  0  0  0  0  0  0  0  0
   27.1522   38.3699   24.7339 N   0  0  0  0  0  0  0  0  0  0  0  0
   27.1957   36.3006   23.5116 C   0  0  0  0  0  0  0  0  0  0  0  0
   27.4422   35.5969   22.3386 C   0  0  1  0  0  0  0  0  0  0  0  0
   27.2206   34.1175   22.3236 C   0  0  0  0  0  0  0  0  0  0  0  0
   27.8892   36.2796   21.1972 C   0  0  1  0  0  0  0  0  0  0  0  0
   28.1588   35.5570   19.9059 C   0  0  0  0  0  0  0  0  0  0  0  0
   28.0891   37.6565   21.2502 C   0  0  0  0  0  0  0  0  0  0  0  0
   27.8459   38.3638   22.4291 C   0  0  1  0  0  0  0  0  0  0  0  0
   27.7942   40.4221   23.6564 C   0  0  1  0  0  0  0  0  0  0  0  0
   28.0465   39.7349   22.4845 N   0  0  0  0  0  0  0  0  0  0  0  0
  1  2  1  1  0  0  0
  1  3  1  0  0  0  0
  1  4  2  0  0  0  0
  1  6  1  0  0  0  0
  5  6  1  0  0  0  0
  7  5  1  6  0  0  0
  7  8  1  0  0  0  0
  7  9  1  0  0  0  0
  9 10  1  1  0  0  0
  9 11  1  0  0  0  0
 11 12  1  6  0  0  0
 11 13  1  0  0  0  0
 13 31  1  0  0  0  0
 14 15  1  0  0  0  0
 15 16  2  0  0  0  0
 15 17  1  0  0  0  0
 17 18  1  0  0  0  0
 18 20  2  0  0  0  0
 19 18  1  6  0  0  0
 19 22  1  0  0  0  0
 19 30  1  0  0  0  0
 21 23  1  1  0  0  0
 21 29  1  0  0  0  0
 21 22  1  0  0  0  0
 23 24  1  0  0  0  0
 24 25  1  6  0  0  0
 24 26  1  0  0  0  0
 26 27  1  6  0  0  0
 26 28  1  0  0  0  0
 29 28  1  6  0  0  0
 29 31  1  0  0  0  0
 30 14  1  6  0  0  0
 30 31  1  0  0  0  0
M  CHG  1   3  -1
M  END
>  <CHROM.1>
77.90763304,57.53545663,46.54304283,54.86819342,48.61577963,179.11183290
98.99512754,27.13385045,40.77505871,20.95823722,3.11912418,-1.41054296,0.63357920

>  <Name>
ligand

>  <RI>
0

>  <Rbt.Current_Directory>
/home/itssahil/PROJECTS/Mol_Feturizer/New_Systems/rnas/3F2T

>  <Rbt.Executable>
rbdock ($Id: //depot/dev/client3/rdock/2013.1/src/exe/rbdock.cxx#4 $)

>  <Rbt.Library>
libRbt.so (2013.1, Build901 2013/11/27)

>  <Rbt.Parameter_File>
/export/apps/rDock/src/rDock_2013.1_src/data/scripts/dock_solv.prm

>  <Rbt.Receptor>
prm/pocket_docking_6.prm

>  <SCORE>
-27.1256

>  <SCORE.INTER>
-28.1974

>  <SCORE.INTER.CONST>
1

>  <SCORE.INTER.POLAR>
0

>  <SCORE.INTER.ROT>
7

>  <SCORE.INTER.SOLV>
18.5122

>  <SCORE.INTER.VDW>
-33.2357

>  <SCORE.INTER.norm>
-0.909594

>  <SCORE.INTRA>
1.07178

>  <SCORE.INTRA.DIHEDRAL>
-0.627534

>  <SCORE.INTRA.DIHEDRAL.0>
4.64198

>  <SCORE.INTRA.POLAR>
0

>  <SCORE.INTRA.POLAR.0>
0

>  <SCORE.INTRA.REPUL>
0

>  <SCORE.INTRA.REPUL.0>
0

>  <SCORE.INTRA.SOLV>
1.63661

>  <SCORE.INTRA.SOLV.lig_0>
-49.3611

>  <SCORE.INTRA.VDW>
0.567243

>  <SCORE.INTRA.VDW.0>
-1.91858

>  <SCORE.INTRA.norm>
0.0345736

>  <SCORE.RESTR>
0

>  <SCORE.RESTR.CAVITY>
0

>  <SCORE.RESTR.norm>
0

>  <SCORE.SYSTEM>
0

>  <SCORE.SYSTEM.CONST>
0

>  <SCORE.SYSTEM.DIHEDRAL>
0

>  <SCORE.SYSTEM.SOLV>
0

>  <SCORE.SYSTEM.norm>
0

>  <SCORE.heavy>
31

>  <SCORE.norm>
-0.875021

>  <RMSD>
5.640

$$$$
ligand
 OpenBabel11021811473D
libRbt.so/2013.1/901 2013/11/27
 31 33  0  0  0  0  0  0  0  0999 V2000
   28.1015   42.5464   22.3193 P   0  0  1  0  0  0  0  0  0  0  0  0
   29.2235   42.9739   23.2313 O   0  0  0  0  0  0  0  0  0  0  0  0
   26.7932   42.9664   22.9346 O   0  5  0  0  0  0  0  0  0  0  0  0
   28.3472   43.2153   20.9948 O   0  0  0  0  0  0  0  0  0  0  0  0
   29.2325   40.2420   21.7888 C   0  0  0  0  0  0  0  0  0  0  0  0
   28.0525   40.9582   22.0879 O   0  0  0  0  0  0  0  0  0  0  0  0
   28.8812   38.7782   21.5356 C   0  0  1  0  0  0  0  0  0  0  0  0
   28.1173   38.2771   22.6146 O   0  0  0  0  0  0  0  0  0  0  0  0
   28.0721   38.6517   20.2558 C   0  0  1  0  0  0  0  0  0  0  0  0
   28.7888   39.2614   19.2156 O   0  0  0  0  0  0  0  0  0  0  0  0
   27.7946   37.2059   19.8799 C   0  0  1  0  0  0  0  0  0  0  0  0
   27.0285   36.6254   20.9007 O   0  0  0  0  0  0  0  0  0  0  0  0
   27.0281   37.1231   18.5703 C   0  0  0  0  0  0  0  0  0  0  0  0
   24.5667   35.7891   18.8567 N   0  0  0  0  0  0  0  0  0  0  0  0
   23.3574   35.1643   19.0712 C   0  0  0  0  0  0  0  0  0  0  0  0
   22.4024   35.8029   19.5037 O   0  0  0  0  0  0  0  0  0  0  0  0
   23.2088   33.8221   18.8059 N   0  0  0  0  0  0  0  0  0  0  0  0
   24.2701   33.0901   18.3102 C   0  0  0  0  0  0  0  0  0  0  0  0
   25.4944   33.7118   18.0913 C   0  0  1  0  0  0  0  0  0  0  0  0
   24.1265   31.8924   18.0565 O   0  0  0  0  0  0  0  0  0  0  0  0
   27.7751   33.6063   17.3793 C   0  0  2  0  0  0  0  0  0  0  0  0
   26.5599   32.9859   17.5978 N   0  0  0  0  0  0  0  0  0  0  0  0
   28.8512   32.8714   16.8806 C   0  0  0  0  0  0  0  0  0  0  0  0
   30.0793   33.4845   16.6621 C   0  0  1  0  0  0  0  0  0  0  0  0
   31.2116   32.6643   16.1299 C   0  0  0  0  0  0  0  0  0  0  0  0
   30.2354   34.8509   16.9400 C   0  0  1  0  0  0  0  0  0  0  0  0
   31.5447   35.5541   16.7091 C   0  0  0  0  0  0  0  0  0  0  0  0
   29.1601   35.5812   17.4392 C   0  0  0  0  0  0  0  0  0  0  0  0
   27.9273   34.9656   17.6631 C   0  0  1  0  0  0  0  0  0  0  0  0
   25.6397   35.0690   18.3715 C   0  0  1  0  0  0  0  0  0  0  0  0
   26.8558   35.6907   18.1624 N   0  0  0  0  0  0  0  0  0  0  0  0
  1  2  1  1  0  0  0
  1  3  1  0  0  0  0
  1  4  2  0  0  0  0
  1  6  1  0  0  0  0
  5  6  1  0  0  0  0
  7  5  1  1  0  0  0
  7  8  1  0  0  0  0
  7  9  1  0  0  0  0
  9 10  1  6  0  0  0
  9 11  1  0  0  0  0
 11 12  1  1  0  0  0
 11 13  1  0  0  0  0
 13 31  1  0  0  0  0
 14 15  1  0  0  0  0
 15 16  2  0  0  0  0
 15 17  1  0  0  0  0
 17 18  1  0  0  0  0
 18 20  2  0  0  0  0
 19 18  1  6  0  0  0
 19 22  1  0  0  0  0
 19 30  1  0  0  0  0
 21 23  1  1  0  0  0
 21 29  1  0  0  0  0
 21 22  1  0  0  0  0
 23 24  1  0  0  0  0
 24 25  1  6  0  0  0
 24 26  1  0  0  0  0
 26 27  1  6  0  0  0
 26 28  1  0  0  0  0
 29 28  1  6  0  0  0
 29 31  1  0  0  0  0
 30 14  1  6  0  0  0
 30 31  1  0  0  0  0
M  CHG  1   3  -1
M  END
>  <CHROM.1>
-176.52400177,-46.39127430,-52.22358549,54.34109150,62.21602821,175.65574683
-73.74507013,27.40707812,37.03428916,19.49346614,1.40792365,0.24638389,0.54383252

>  <Name>
ligand

>  <RI>
0

>  <Rbt.Current_Directory>
/home/itssahil/PROJECTS/Mol_Feturizer/New_Systems/rnas/3F2T

>  <Rbt.Executable>
rbdock ($Id: //depot/dev/client3/rdock/2013.1/src/exe/rbdock.cxx#4 $)

>  <Rbt.Library>
libRbt.so (2013.1, Build901 2013/11/27)

>  <Rbt.Parameter_File>
/export/apps/rDock/src/rDock_2013.1_src/data/scripts/dock_solv.prm

>  <Rbt.Receptor>
prm/pocket_docking_8.prm

>  <SCORE>
-14.1767

>  <SCORE.INTER>
-12.9137

>  <SCORE.INTER.CONST>
1

>  <SCORE.INTER.POLAR>
0

>  <SCORE.INTER.ROT>
7

>  <SCORE.INTER.SOLV>
19.6758

>  <SCORE.INTER.VDW>
-23.4344

>  <SCORE.INTER.norm>
-0.41657

>  <SCORE.INTRA>
-1.26302

>  <SCORE.INTRA.DIHEDRAL>
-2.79792

>  <SCORE.INTRA.DIHEDRAL.0>
4.64198

>  <SCORE.INTRA.POLAR>
0

>  <SCORE.INTRA.POLAR.0>
0

>  <SCORE.INTRA.REPUL>
0

>  <SCORE.INTRA.REPUL.0>
0

>  <SCORE.INTRA.SOLV>
-0.328658

>  <SCORE.INTRA.SOLV.lig_0>
-49.3611

>  <SCORE.INTRA.VDW>
0.300272

>  <SCORE.INTRA.VDW.0>
-1.91858

>  <SCORE.INTRA.norm>
-0.0407426

>  <SCORE.RESTR>
0

>  <SCORE.RESTR.CAVITY>
0

>  <SCORE.RESTR.norm>
0

>  <SCORE.SYSTEM>
0

>  <SCORE.SYSTEM.CONST>
0

>  <SCORE.SYSTEM.DIHEDRAL>
0

>  <SCORE.SYSTEM.SOLV>
0

>  <SCORE.SYSTEM.norm>
0

>  <SCORE.heavy>
31

>  <SCORE.norm>
-0.457313

>  <RMSD>
5.648

$$$$
ligand
 OpenBabel11021811473D
libRbt.so/2013.1/901 2013/11/27
 31 33  0  0  0  0  0  0  0  0999 V2000
   35.2933   37.5068   21.0933 P   0  0  1  0  0  0  0  0  0  0  0  0
   36.2533   36.3467   21.0169 O   0  0  0  0  0  0  0  0  0  0  0  0
   34.7349   37.5795   22.4896 O   0  5  0  0  0  0  0  0  0  0  0  0
   36.0781   38.7374   20.7304 O   0  0  0  0  0  0  0  0  0  0  0  0
   34.2159   37.7116   18.7125 C   0  0  0  0  0  0  0  0  0  0  0  0
   34.0605   37.3683   20.0737 O   0  0  0  0  0  0  0  0  0  0  0  0
   33.0172   37.1917   17.9233 C   0  0  1  0  0  0  0  0  0  0  0  0
   32.8747   35.8007   18.1327 O   0  0  0  0  0  0  0  0  0  0  0  0
   31.7495   37.8932   18.3812 C   0  0  1  0  0  0  0  0  0  0  0  0
   32.1129   39.0243   19.1268 O   0  0  0  0  0  0  0  0  0  0  0  0
   30.8715   38.3306   17.2208 C   0  0  1  0  0  0  0  0  0  0  0  0
   30.7939   37.2721   16.3047 O   0  0  0  0  0  0  0  0  0  0  0  0
   29.4727   38.6807   17.7006 C   0  0  0  0  0  0  0  0  0  0  0  0
   29.1855   35.8930   17.4432 N   0  0  0  0  0  0  0  0  0  0  0  0
   29.0009   34.5409   17.2522 C   0  0  0  0  0  0  0  0  0  0  0  0
   29.2373   34.0355   16.1588 O   0  0  0  0  0  0  0  0  0  0  0  0
   28.5489   33.7463   18.2809 N   0  0  0  0  0  0  0  0  0  0  0  0
   28.2867   34.2966   19.5204 C   0  0  0  0  0  0  0  0  0  0  0  0
   28.4694   35.6601   19.7223 C   0  0  1  0  0  0  0  0  0  0  0  0
   27.9000   33.5773   20.4438 O   0  0  0  0  0  0  0  0  0  0  0  0
   28.3915   37.5721   21.1569 C   0  0  2  0  0  0  0  0  0  0  0  0
   28.2074   36.2171   20.9580 N   0  0  0  0  0  0  0  0  0  0  0  0
   28.1263   38.1338   22.4063 C   0  0  0  0  0  0  0  0  0  0  0  0
   28.3031   39.4964   22.6156 C   0  0  1  0  0  0  0  0  0  0  0  0
   28.0054   40.0642   23.9672 C   0  0  0  0  0  0  0  0  0  0  0  0
   28.7556   40.3098   21.5657 C   0  0  1  0  0  0  0  0  0  0  0  0
   28.9686   41.7869   21.7531 C   0  0  0  0  0  0  0  0  0  0  0  0
   29.0178   39.7467   20.3196 C   0  0  0  0  0  0  0  0  0  0  0  0
   28.8366   38.3789   20.1070 C   0  0  1  0  0  0  0  0  0  0  0  0
   28.9180   36.4597   18.6731 C   0  0  1  0  0  0  0  0  0  0  0  0
   29.0950   37.8165   18.8659 N   0  0  0  0  0  0  0  0  0  0  0  0
  1  2  1  6  0  0  0
  1  3  1  0  0  0  0
  1  4  2  0  0  0  0
  1  6  1  0  0  0  0
  5  6  1  0  0  0  0
  7  5  1  1  0  0  0
  7  8  1  0  0  0  0
  7  9  1  0  0  0  0
  9 10  1  6  0  0  0
  9 11  1  0  0  0  0
 11 12  1  6  0  0  0
 11 13  1  0  0  0  0
 13 31  1  0  0  0  0
 14 15  1  0  0  0  0
 15 16  2  0  0  0  0
 15 17  1  0  0  0  0
 17 18  1  0  0  0  0
 18 20  2  0  0  0  0
 19 18  1  1  0  0  0
 19 22  1  0  0  0  0
 19 30  1  0  0  0  0
 21 23  1  6  0  0  0
 21 29  1  0  0  0  0
 21 22  1  0  0  0  0
 23 24  1  0  0  0  0
 24 25  1  1  0  0  0
 24 26  1  0  0  0  0
 26 27  1  1  0  0  0
 26 28  1  0  0  0  0
 29 28  1  1  0  0  0
 29 31  1  0  0  0  0
 30 14  1  1  0  0  0
 30 31  1  0  0  0  0
M  CHG  1   3  -1
M  END
>  <CHROM.1>
167.16028075,-80.60143161,-55.45565243,14.96210963,44.97092985,-32.80734788
117.41867267,30.87427331,37.31496492,19.72037776,0.23544364,0.02472253,0.78383350

>  <Name>
ligand

>  <RI>
0

>  <Rbt.Current_Directory>
/home/itssahil/PROJECTS/Mol_Feturizer/New_Systems/rnas/3F2T

>  <Rbt.Executable>
rbdock ($Id: //depot/dev/client3/rdock/2013.1/src/exe/rbdock.cxx#4 $)

>  <Rbt.Library>
libRbt.so (2013.1, Build901 2013/11/27)

>  <Rbt.Parameter_File>
/export/apps/rDock/src/rDock_2013.1_src/data/scripts/dock_solv.prm

>  <Rbt.Receptor>
prm/blind_docking_100.prm

>  <SCORE>
-15.164

>  <SCORE.INTER>
-21.8004

>  <SCORE.INTER.CONST>
1

>  <SCORE.INTER.POLAR>
0

>  <SCORE.INTER.ROT>
7

>  <SCORE.INTER.SOLV>
22.956

>  <SCORE.INTER.VDW>
-30.4522

>  <SCORE.INTER.norm>
-0.703238

>  <SCORE.INTRA>
6.63638

>  <SCORE.INTRA.DIHEDRAL>
5.79406

>  <SCORE.INTRA.DIHEDRAL.0>
4.64198

>  <SCORE.INTRA.POLAR>
0

>  <SCORE.INTRA.POLAR.0>
0

>  <SCORE.INTRA.REPUL>
0

>  <SCORE.INTRA.REPUL.0>
0

>  <SCORE.INTRA.SOLV>
0.623637

>  <SCORE.INTRA.SOLV.lig_0>
-49.3611

>  <SCORE.INTRA.VDW>
3.42753

>  <SCORE.INTRA.VDW.0>
-1.91858

>  <SCORE.INTRA.norm>
0.214077

>  <SCORE.RESTR>
0

>  <SCORE.RESTR.CAVITY>
0

>  <SCORE.RESTR.norm>
0

>  <SCORE.SYSTEM>
0

>  <SCORE.SYSTEM.CONST>
0

>  <SCORE.SYSTEM.DIHEDRAL>
0

>  <SCORE.SYSTEM.SOLV>
0

>  <SCORE.SYSTEM.norm>
0

>  <SCORE.heavy>
31

>  <SCORE.norm>
-0.489161

>  <RMSD>
5.657

$$$$
ligand
 OpenBabel11021811473D
libRbt.so/2013.1/901 2013/11/27
 31 33  0  0  0  0  0  0  0  0999 V2000
   28.4777   42.9548   23.5052 P   0  0  1  0  0  0  0  0  0  0  0  0
   29.0589   43.9887   22.5745 O   0  0  0  0  0  0  0  0  0  0  0  0
   29.4093   42.7811   24.6753 O   0  5  0  0  0  0  0  0  0  0  0  0
   27.1274   43.4669   23.9253 O   0  0  0  0  0  0  0  0  0  0  0  0
   29.3848   40.8612   22.2151 C   0  0  0  0  0  0  0  0  0  0  0  0
   28.2858   41.5211   22.8082 O   0  0  0  0  0  0  0  0  0  0  0  0
   28.9416   39.4830   21.7311 C   0  0  1  0  0  0  0  0  0  0  0  0
   28.2077   38.8326   22.7495 O   0  0  0  0  0  0  0  0  0  0  0  0
   28.0624   39.6224   20.4997 C   0  0  1  0  0  0  0  0  0  0  0  0
   28.7897   40.2989   19.5095 O   0  0  0  0  0  0  0  0  0  0  0  0
   27.6116   38.2803   19.9481 C   0  0  1  0  0  0  0  0  0  0  0  0
   26.7910   38.5153   18.8357 O   0  0  0  0  0  0  0  0  0  0  0  0
   28.8043   37.4406   19.5215 C   0  0  0  0  0  0  0  0  0  0  0  0
   27.7753   36.3081   21.8834 N   0  0  0  0  0  0  0  0  0  0  0  0
   27.3290   35.7912   23.0802 C   0  0  0  0  0  0  0  0  0  0  0  0
   27.1169   36.5366   24.0322 O   0  0  0  0  0  0  0  0  0  0  0  0
   27.1193   34.4383   23.2209 N   0  0  0  0  0  0  0  0  0  0  0  0
   27.3439   33.5860   22.1574 C   0  0  0  0  0  0  0  0  0  0  0  0
   27.7952   34.0984   20.9461 C   0  0  1  0  0  0  0  0  0  0  0  0
   27.1366   32.3774   22.2829 O   0  0  0  0  0  0  0  0  0  0  0  0
   28.4702   33.7639   18.6763 C   0  0  2  0  0  0  0  0  0  0  0  0
   28.0235   33.2521   19.8797 N   0  0  0  0  0  0  0  0  0  0  0  0
   28.7007   32.9074   17.5993 C   0  0  0  0  0  0  0  0  0  0  0  0
   29.1550   33.4111   16.3861 C   0  0  1  0  0  0  0  0  0  0  0  0
   29.3946   32.4625   15.2544 C   0  0  0  0  0  0  0  0  0  0  0  0
   29.3777   34.7890   16.2431 C   0  0  1  0  0  0  0  0  0  0  0  0
   29.8602   35.3754   14.9448 C   0  0  0  0  0  0  0  0  0  0  0  0
   29.1483   35.6410   17.3203 C   0  0  0  0  0  0  0  0  0  0  0  0
   28.6961   35.1357   18.5406 C   0  0  1  0  0  0  0  0  0  0  0  0
   28.0144   35.4682   20.8145 C   0  0  1  0  0  0  0  0  0  0  0  0
   28.4692   35.9824   19.6153 N   0  0  0  0  0  0  0  0  0  0  0  0
  1  2  1  6  0  0  0
  1  3  1  0  0  0  0
  1  4  2  0  0  0  0
  1  6  1  0  0  0  0
  5  6  1  0  0  0  0
  7  5  1  1  0  0  0
  7  8  1  0  0  0  0
  7  9  1  0  0  0  0
  9 10  1  6  0  0  0
  9 11  1  0  0  0  0
 11 12  1  6  0  0  0
 11 13  1  0  0  0  0
 13 31  1  0  0  0  0
 14 15  1  0  0  0  0
 15 16  2  0  0  0  0
 15 17  1  0  0  0  0
 17 18  1  0  0  0  0
 18 20  2  0  0  0  0
 19 18  1  6  0  0  0
 19 22  1  0  0  0  0
 19 30  1  0  0  0  0
 21 23  1  1  0  0  0
 21 29  1  0  0  0  0
 21 22  1  0  0  0  0
 23 24  1  0  0  0  0
 24 25  1  6  0  0  0
 24 26  1  0  0  0  0
 26 27  1  6  0  0  0
 26 28  1  0  0  0  0
 29 28  1  6  0  0  0
 29 31  1  0  0  0  0
 30 14  1  6  0  0  0
 30 31  1  0  0  0  0
M  CHG  1   3  -1
M  END
>  <CHROM.1>
175.61023471,56.64171928,-47.31799907,58.15121474,178.92502920,152.77171839
128.94095644,28.31464007,37.49716192,20.71767259,-1.62692063,-1.27521385
-2.65344964

>  <Name>
ligand

>  <RI>
0

>  <Rbt.Current_Directory>
/home/itssahil/PROJECTS/Mol_Feturizer/New_Systems/rnas/3F2T

>  <Rbt.Executable>
rbdock ($Id: //depot/dev/client3/rdock/2013.1/src/exe/rbdock.cxx#4 $)

>  <Rbt.Library>
libRbt.so (2013.1, Build901 2013/11/27)

>  <Rbt.Parameter_File>
/export/apps/rDock/src/rDock_2013.1_src/data/scripts/dock_solv.prm

>  <Rbt.Receptor>
prm/pocket_docking_5.prm

>  <SCORE>
-24.077

>  <SCORE.INTER>
-24.5074

>  <SCORE.INTER.CONST>
1

>  <SCORE.INTER.POLAR>
0

>  <SCORE.INTER.ROT>
7

>  <SCORE.INTER.SOLV>
15.7232

>  <SCORE.INTER.VDW>
-29.846

>  <SCORE.INTER.norm>
-0.79056

>  <SCORE.INTRA>
0.43036

>  <SCORE.INTRA.DIHEDRAL>
-0.531337

>  <SCORE.INTRA.DIHEDRAL.0>
4.64198

>  <SCORE.INTRA.POLAR>
0

>  <SCORE.INTRA.POLAR.0>
0

>  <SCORE.INTRA.REPUL>
0

>  <SCORE.INTRA.REPUL.0>
0

>  <SCORE.INTRA.SOLV>
-0.0563395

>  <SCORE.INTRA.SOLV.lig_0>
-49.3611

>  <SCORE.INTRA.VDW>
0.724198

>  <SCORE.INTRA.VDW.0>
-1.91858

>  <SCORE.INTRA.norm>
0.0138826

>  <SCORE.RESTR>
0

>  <SCORE.RESTR.CAVITY>
0

>  <SCORE.RESTR.norm>
0

>  <SCORE.SYSTEM>
0

>  <SCORE.SYSTEM.CONST>
0

>  <SCORE.SYSTEM.DIHEDRAL>
0

>  <SCORE.SYSTEM.SOLV>
0

>  <SCORE.SYSTEM.norm>
0

>  <SCORE.heavy>
31

>  <SCORE.norm>
-0.776677

>  <RMSD>
5.694

$$$$
ligand
 OpenBabel11021811473D
libRbt.so/2013.1/901 2013/11/27
 31 33  0  0  0  0  0  0  0  0999 V2000
   27.0018   33.0279   15.2621 P   0  0  1  0  0  0  0  0  0  0  0  0
   26.6915   32.5000   16.6399 O   0  0  0  0  0  0  0  0  0  0  0  0
   28.1895   32.2810   14.7157 O   0  5  0  0  0  0  0  0  0  0  0  0
   25.7655   32.8142   14.4326 O   0  0  0  0  0  0  0  0  0  0  0  0
   26.4040   35.5447   15.6852 C   0  0  0  0  0  0  0  0  0  0  0  0
   27.3563   34.5939   15.2561 O   0  0  0  0  0  0  0  0  0  0  0  0
   26.6372   35.8585   17.1608 C   0  0  1  0  0  0  0  0  0  0  0  0
   26.4468   34.6899   17.9333 O   0  0  0  0  0  0  0  0  0  0  0  0
   28.0558   36.3623   17.3672 C   0  0  1  0  0  0  0  0  0  0  0  0
   28.2347   37.5157   16.5894 O   0  0  0  0  0  0  0  0  0  0  0  0
   28.3516   36.6979   18.8193 C   0  0  1  0  0  0  0  0  0  0  0  0
   29.6586   37.1996   18.8972 O   0  0  0  0  0  0  0  0  0  0  0  0
   27.3820   37.7445   19.3429 C   0  0  0  0  0  0  0  0  0  0  0  0
   27.2885   35.6915   21.2656 N   0  0  0  0  0  0  0  0  0  0  0  0
   27.1734   34.6631   22.1754 C   0  0  0  0  0  0  0  0  0  0  0  0
   26.9519   33.5196   21.7877 O   0  0  0  0  0  0  0  0  0  0  0  0
   27.3027   34.9066   23.5237 N   0  0  0  0  0  0  0  0  0  0  0  0
   27.5612   36.1855   23.9771 C   0  0  0  0  0  0  0  0  0  0  0  0
   27.6781   37.2298   23.0665 C   0  0  1  0  0  0  0  0  0  0  0  0
   27.6949   36.3952   25.1845 O   0  0  0  0  0  0  0  0  0  0  0  0
   28.0522   39.5465   22.6059 C   0  0  2  0  0  0  0  0  0  0  0  0
   27.9345   38.5107   23.5129 N   0  0  0  0  0  0  0  0  0  0  0  0
   28.3112   40.8408   23.0584 C   0  0  0  0  0  0  0  0  0  0  0  0
   28.4263   41.8908   22.1550 C   0  0  1  0  0  0  0  0  0  0  0  0
   28.7008   43.2657   22.6767 C   0  0  0  0  0  0  0  0  0  0  0  0
   28.2861   41.6461   20.7805 C   0  0  1  0  0  0  0  0  0  0  0  0
   28.4125   42.7526   19.7696 C   0  0  0  0  0  0  0  0  0  0  0  0
   28.0261   40.3538   20.3322 C   0  0  0  0  0  0  0  0  0  0  0  0
   27.9061   39.2991   21.2389 C   0  0  1  0  0  0  0  0  0  0  0  0
   27.5363   36.9768   21.7037 C   0  0  1  0  0  0  0  0  0  0  0  0
   27.6448   38.0117   20.7945 N   0  0  0  0  0  0  0  0  0  0  0  0
  1  2  1  1  0  0  0
  1  3  1  0  0  0  0
  1  4  2  0  0  0  0
  1  6  1  0  0  0  0
  5  6  1  0  0  0  0
  7  5  1  6  0  0  0
  7  8  1  0  0  0  0
  7  9  1  0  0  0  0
  9 10  1  6  0  0  0
  9 11  1  0  0  0  0
 11 12  1  6  0  0  0
 11 13  1  0  0  0  0
 13 31  1  0  0  0  0
 14 15  1  0  0  0  0
 15 16  2  0  0  0  0
 15 17  1  0  0  0  0
 17 18  1  0  0  0  0
 18 20  2  0  0  0  0
 19 18  1  6  0  0  0
 19 22  1  0  0  0  0
 19 30  1  0  0  0  0
 21 23  1  1  0  0  0
 21 29  1  0  0  0  0
 21 22  1  0  0  0  0
 23 24  1  0  0  0  0
 24 25  1  6  0  0  0
 24 26  1  0  0  0  0
 26 27  1  6  0  0  0
 26 28  1  0  0  0  0
 29 28  1  6  0  0  0
 29 31  1  0  0  0  0
 30 14  1  6  0  0  0
 30 31  1  0  0  0  0
M  CHG  1   3  -1
M  END
>  <CHROM.1>
94.50495974,-61.52989897,-62.47722935,59.25010727,-177.74484909,177.14809351
124.19290848,27.60741425,36.75064428,19.59275307,-2.32694169,1.39313845,1.56387708

>  <Name>
ligand

>  <RI>
0

>  <Rbt.Current_Directory>
/home/itssahil/PROJECTS/Mol_Feturizer/New_Systems/rnas/3F2T

>  <Rbt.Executable>
rbdock ($Id: //depot/dev/client3/rdock/2013.1/src/exe/rbdock.cxx#4 $)

>  <Rbt.Library>
libRbt.so (2013.1, Build901 2013/11/27)

>  <Rbt.Parameter_File>
/export/apps/rDock/src/rDock_2013.1_src/data/scripts/dock_solv.prm

>  <Rbt.Receptor>
prm/pocket_docking_8.prm

>  <SCORE>
-19.1236

>  <SCORE.INTER>
-20.8262

>  <SCORE.INTER.CONST>
1

>  <SCORE.INTER.POLAR>
0

>  <SCORE.INTER.ROT>
7

>  <SCORE.INTER.SOLV>
9.5399

>  <SCORE.INTER.VDW>
-25.3308

>  <SCORE.INTER.norm>
-0.671813

>  <SCORE.INTRA>
1.70256

>  <SCORE.INTRA.DIHEDRAL>
1.06886

>  <SCORE.INTRA.DIHEDRAL.0>
4.64198

>  <SCORE.INTRA.POLAR>
0

>  <SCORE.INTRA.POLAR.0>
0

>  <SCORE.INTRA.REPUL>
0

>  <SCORE.INTRA.REPUL.0>
0

>  <SCORE.INTRA.SOLV>
0.883294

>  <SCORE.INTRA.SOLV.lig_0>
-49.3611

>  <SCORE.INTRA.VDW>
0.726486

>  <SCORE.INTRA.VDW.0>
-1.91858

>  <SCORE.INTRA.norm>
0.0549214

>  <SCORE.RESTR>
0

>  <SCORE.RESTR.CAVITY>
0

>  <SCORE.RESTR.norm>
0

>  <SCORE.SYSTEM>
0

>  <SCORE.SYSTEM.CONST>
0

>  <SCORE.SYSTEM.DIHEDRAL>
0

>  <SCORE.SYSTEM.SOLV>
0

>  <SCORE.SYSTEM.norm>
0

>  <SCORE.heavy>
31

>  <SCORE.norm>
-0.616891

>  <RMSD>
5.705

$$$$
ligand
 OpenBabel11021811473D
libRbt.so/2013.1/901 2013/11/27
 31 33  0  0  0  0  0  0  0  0999 V2000
   26.3175   43.7299   16.7182 P   0  0  1  0  0  0  0  0  0  0  0  0
   25.6298   43.0720   15.5487 O   0  0  0  0  0  0  0  0  0  0  0  0
   27.6125   44.3311   16.2402 O   0  5  0  0  0  0  0  0  0  0  0  0
   25.3677   44.7708   17.2439 O   0  0  0  0  0  0  0  0  0  0  0  0
   27.3932   41.5259   17.6434 C   0  0  0  0  0  0  0  0  0  0  0  0
   26.6569   42.7026   17.9046 O   0  0  0  0  0  0  0  0  0  0  0  0
   27.4662   40.6860   18.9159 C   0  0  1  0  0  0  0  0  0  0  0  0
   27.8588   39.3663   18.5950 O   0  0  0  0  0  0  0  0  0  0  0  0
   28.4806   41.2843   19.8761 C   0  0  1  0  0  0  0  0  0  0  0  0
   28.0493   42.5704   20.2326 O   0  0  0  0  0  0  0  0  0  0  0  0
   28.6508   40.4554   21.1381 C   0  0  1  0  0  0  0  0  0  0  0  0
   29.6930   41.0124   21.8928 O   0  0  0  0  0  0  0  0  0  0  0  0
   27.3763   40.4591   21.9658 C   0  0  0  0  0  0  0  0  0  0  0  0
   27.8027   41.3807   24.5905 N   0  0  0  0  0  0  0  0  0  0  0  0
   28.0687   41.8795   25.8472 C   0  0  0  0  0  0  0  0  0  0  0  0
   28.1016   43.0922   26.0341 O   0  0  0  0  0  0  0  0  0  0  0  0
   28.3017   41.0262   26.9015 N   0  0  0  0  0  0  0  0  0  0  0  0
   28.2595   39.6588   26.7112 C   0  0  0  0  0  0  0  0  0  0  0  0
   27.9926   39.1463   25.4465 C   0  0  1  0  0  0  0  0  0  0  0  0
   28.4503   38.8988   27.6628 O   0  0  0  0  0  0  0  0  0  0  0  0
   27.6836   37.2737   23.9913 C   0  0  2  0  0  0  0  0  0  0  0  0
   27.9508   37.7806   25.2487 N   0  0  0  0  0  0  0  0  0  0  0  0
   27.6417   35.8932   23.7928 C   0  0  0  0  0  0  0  0  0  0  0  0
   27.3789   35.3727   22.5311 C   0  0  1  0  0  0  0  0  0  0  0  0
   27.3453   33.8875   22.3551 C   0  0  0  0  0  0  0  0  0  0  0  0
   27.1496   36.2409   21.4530 C   0  0  1  0  0  0  0  0  0  0  0  0
   26.8529   35.7184   20.0741 C   0  0  0  0  0  0  0  0  0  0  0  0
   27.1937   37.6180   21.6539 C   0  0  0  0  0  0  0  0  0  0  0  0
   27.4617   38.1419   22.9198 C   0  0  1  0  0  0  0  0  0  0  0  0
   27.7674   40.0167   24.3820 C   0  0  1  0  0  0  0  0  0  0  0  0
   27.5083   39.5132   23.1215 N   0  0  0  0  0  0  0  0  0  0  0  0
  1  2  1  6  0  0  0
  1  3  1  0  0  0  0
  1  4  2  0  0  0  0
  1  6  1  0  0  0  0
  5  6  1  0  0  0  0
  7  5  1  6  0  0  0
  7  8  1  0  0  0  0
  7  9  1  0  0  0  0
  9 10  1  1  0  0  0
  9 11  1  0  0  0  0
 11 12  1  1  0  0  0
 11 13  1  0  0  0  0
 13 31  1  0  0  0  0
 14 15  1  0  0  0  0
 15 16  2  0  0  0  0
 15 17  1  0  0  0  0
 17 18  1  0  0  0  0
 18 20  2  0  0  0  0
 19 18  1  1  0  0  0
 19 22  1  0  0  0  0
 19 30  1  0  0  0  0
 21 23  1  6  0  0  0
 21 29  1  0  0  0  0
 21 22  1  0  0  0  0
 23 24  1  0  0  0  0
 24 25  1  1  0  0  0
 24 26  1  0  0  0  0
 26 27  1  1  0  0  0
 26 28  1  0  0  0  0
 29 28  1  1  0  0  0
 29 31  1  0  0  0  0
 30 14  1  1  0  0  0
 30 31  1  0  0  0  0
M  CHG  1   3  -1
M  END
>  <CHROM.1>
-175.27519801,53.97390172,163.73955270,62.21424151,174.27877044,173.50656680
-73.56684647,27.53389304,40.23700087,21.54706128,-2.45284161,1.39656246,2.99266666

>  <Name>
ligand

>  <RI>
0

>  <Rbt.Current_Directory>
/home/itssahil/PROJECTS/Mol_Feturizer/New_Systems/rnas/3F2T

>  <Rbt.Executable>
rbdock ($Id: //depot/dev/client3/rdock/2013.1/src/exe/rbdock.cxx#4 $)

>  <Rbt.Library>
libRbt.so (2013.1, Build901 2013/11/27)

>  <Rbt.Parameter_File>
/export/apps/rDock/src/rDock_2013.1_src/data/scripts/dock_solv.prm

>  <Rbt.Receptor>
prm/blind_docking_80.prm

>  <SCORE>
-24.4683

>  <SCORE.INTER>
-23.1946

>  <SCORE.INTER.CONST>
1

>  <SCORE.INTER.POLAR>
0

>  <SCORE.INTER.ROT>
7

>  <SCORE.INTER.SOLV>
19.2876

>  <SCORE.INTER.VDW>
-30.159

>  <SCORE.INTER.norm>
-0.748214

>  <SCORE.INTRA>
-1.27365

>  <SCORE.INTRA.DIHEDRAL>
-2.16399

>  <SCORE.INTRA.DIHEDRAL.0>
4.64198

>  <SCORE.INTRA.POLAR>
0

>  <SCORE.INTRA.POLAR.0>
0

>  <SCORE.INTRA.REPUL>
0

>  <SCORE.INTRA.REPUL.0>
0

>  <SCORE.INTRA.SOLV>
-0.414657

>  <SCORE.INTRA.SOLV.lig_0>
-49.3611

>  <SCORE.INTRA.VDW>
0.0156763

>  <SCORE.INTRA.VDW.0>
-1.91858

>  <SCORE.INTRA.norm>
-0.0410854

>  <SCORE.RESTR>
0

>  <SCORE.RESTR.CAVITY>
0

>  <SCORE.RESTR.norm>
0

>  <SCORE.SYSTEM>
0

>  <SCORE.SYSTEM.CONST>
0

>  <SCORE.SYSTEM.DIHEDRAL>
0

>  <SCORE.SYSTEM.SOLV>
0

>  <SCORE.SYSTEM.norm>
0

>  <SCORE.heavy>
31

>  <SCORE.norm>
-0.789299

>  <RMSD>
5.712

$$$$
ligand
 OpenBabel11021811473D
libRbt.so/2013.1/901 2013/11/27
 31 33  0  0  0  0  0  0  0  0999 V2000
   33.3012   34.7307   16.3200 P   0  0  1  0  0  0  0  0  0  0  0  0
   32.5554   33.4480   16.5878 O   0  0  0  0  0  0  0  0  0  0  0  0
   34.1638   35.0452   17.5133 O   0  5  0  0  0  0  0  0  0  0  0  0
   34.1144   34.5021   15.0756 O   0  0  0  0  0  0  0  0  0  0  0  0
   31.1472   36.1336   16.8325 C   0  0  0  0  0  0  0  0  0  0  0  0
   32.3265   35.9821   16.0702 O   0  0  0  0  0  0  0  0  0  0  0  0
   30.4704   37.4488   16.4550 C   0  0  1  0  0  0  0  0  0  0  0  0
   30.3510   37.5378   15.0491 O   0  0  0  0  0  0  0  0  0  0  0  0
   29.0847   37.5169   17.0746 C   0  0  1  0  0  0  0  0  0  0  0  0
   28.3538   36.3972   16.6511 O   0  0  0  0  0  0  0  0  0  0  0  0
   29.1234   37.5330   18.5934 C   0  0  1  0  0  0  0  0  0  0  0  0
   29.9404   38.5970   19.0013 O   0  0  0  0  0  0  0  0  0  0  0  0
   27.7301   37.7226   19.1698 C   0  0  0  0  0  0  0  0  0  0  0  0
   27.5509   35.5546   20.9553 N   0  0  0  0  0  0  0  0  0  0  0  0
   27.3996   34.4678   21.7888 C   0  0  0  0  0  0  0  0  0  0  0  0
   27.2986   33.3391   21.3169 O   0  0  0  0  0  0  0  0  0  0  0  0
   27.3579   34.6361   23.1540 N   0  0  0  0  0  0  0  0  0  0  0  0
   27.4792   35.8979   23.7026 C   0  0  0  0  0  0  0  0  0  0  0  0
   27.6314   37.0006   22.8695 C   0  0  1  0  0  0  0  0  0  0  0  0
   27.4600   36.0412   24.9268 O   0  0  0  0  0  0  0  0  0  0  0  0
   27.9044   39.3589   22.5810 C   0  0  2  0  0  0  0  0  0  0  0  0
   27.7513   38.2648   23.4110 N   0  0  0  0  0  0  0  0  0  0  0  0
   28.0254   40.6362   23.1296 C   0  0  0  0  0  0  0  0  0  0  0  0
   28.1745   41.7441   22.3036 C   0  0  1  0  0  0  0  0  0  0  0  0
   28.2977   43.0984   22.9270 C   0  0  0  0  0  0  0  0  0  0  0  0
   28.2086   41.5757   20.9111 C   0  0  1  0  0  0  0  0  0  0  0  0
   28.3776   42.7471   19.9829 C   0  0  0  0  0  0  0  0  0  0  0  0
   28.0860   40.3001   20.3666 C   0  0  0  0  0  0  0  0  0  0  0  0
   27.9319   39.1870   21.1950 C   0  0  1  0  0  0  0  0  0  0  0  0
   27.6630   36.8231   21.4878 C   0  0  1  0  0  0  0  0  0  0  0  0
   27.8073   37.9159   20.6545 N   0  0  0  0  0  0  0  0  0  0  0  0
  1  2  1  1  0  0  0
  1  3  1  0  0  0  0
  1  4  2  0  0  0  0
  1  6  1  0  0  0  0
  5  6  1  0  0  0  0
  7  5  1  6  0  0  0
  7  8  1  0  0  0  0
  7  9  1  0  0  0  0
  9 10  1  1  0  0  0
  9 11  1  0  0  0  0
 11 12  1  6  0  0  0
 11 13  1  0  0  0  0
 13 31  1  0  0  0  0
 14 15  1  0  0  0  0
 15 16  2  0  0  0  0
 15 17  1  0  0  0  0
 17 18  1  0  0  0  0
 18 20  2  0  0  0  0
 19 18  1  1  0  0  0
 19 22  1  0  0  0  0
 19 30  1  0  0  0  0
 21 23  1  6  0  0  0
 21 29  1  0  0  0  0
 21 22  1  0  0  0  0
 23 24  1  0  0  0  0
 24 25  1  1  0  0  0
 24 26  1  0  0  0  0
 26 27  1  1  0  0  0
 26 28  1  0  0  0  0
 29 28  1  1  0  0  0
 29 31  1  0  0  0  0
 30 14  1  1  0  0  0
 30 31  1  0  0  0  0
M  CHG  1   3  -1
M  END
>  <CHROM.1>
176.09457570,39.17987903,50.06834594,-56.62919150,55.25456822,-172.60412995
90.31953709,29.40356638,37.25162699,19.65416912,0.32328490,-0.96874881,2.98032963

>  <Name>
ligand

>  <RI>
0

>  <Rbt.Current_Directory>
/home/itssahil/PROJECTS/Mol_Feturizer/New_Systems/rnas/3F2T

>  <Rbt.Executable>
rbdock ($Id: //depot/dev/client3/rdock/2013.1/src/exe/rbdock.cxx#4 $)

>  <Rbt.Library>
libRbt.so (2013.1, Build901 2013/11/27)

>  <Rbt.Parameter_File>
/export/apps/rDock/src/rDock_2013.1_src/data/scripts/dock_solv.prm

>  <Rbt.Receptor>
prm/blind_docking_60.prm

>  <SCORE>
-22.7978

>  <SCORE.INTER>
-22.1969

>  <SCORE.INTER.CONST>
1

>  <SCORE.INTER.POLAR>
0

>  <SCORE.INTER.ROT>
7

>  <SCORE.INTER.SOLV>
17.0769

>  <SCORE.INTER.VDW>
-28.7569

>  <SCORE.INTER.norm>
-0.716028

>  <SCORE.INTRA>
-0.600952

>  <SCORE.INTRA.DIHEDRAL>
-1.87022

>  <SCORE.INTRA.DIHEDRAL.0>
4.64198

>  <SCORE.INTRA.POLAR>
0

>  <SCORE.INTRA.POLAR.0>
0

>  <SCORE.INTRA.REPUL>
0

>  <SCORE.INTRA.REPUL.0>
0

>  <SCORE.INTRA.SOLV>
-0.742607

>  <SCORE.INTRA.SOLV.lig_0>
-49.3611

>  <SCORE.INTRA.VDW>
0.705461

>  <SCORE.INTRA.VDW.0>
-1.91858

>  <SCORE.INTRA.norm>
-0.0193856

>  <SCORE.RESTR>
0

>  <SCORE.RESTR.CAVITY>
0

>  <SCORE.RESTR.norm>
0

>  <SCORE.SYSTEM>
0

>  <SCORE.SYSTEM.CONST>
0

>  <SCORE.SYSTEM.DIHEDRAL>
0

>  <SCORE.SYSTEM.SOLV>
0

>  <SCORE.SYSTEM.norm>
0

>  <SCORE.heavy>
31

>  <SCORE.norm>
-0.735413

>  <RMSD>
5.734

$$$$
ligand
 OpenBabel11021811473D
libRbt.so/2013.1/901 2013/11/27
 31 33  0  0  0  0  0  0  0  0999 V2000
   31.2416   37.3347   16.2487 P   0  0  1  0  0  0  0  0  0  0  0  0
   30.7808   38.3953   15.2813 O   0  0  0  0  0  0  0  0  0  0  0  0
   31.5563   36.0812   15.4762 O   0  5  0  0  0  0  0  0  0  0  0  0
   32.4517   37.8895   16.9487 O   0  0  0  0  0  0  0  0  0  0  0  0
   29.6986   37.9456   18.2776 C   0  0  0  0  0  0  0  0  0  0  0  0
   30.1348   36.9706   17.3535 O   0  0  0  0  0  0  0  0  0  0  0  0
   28.7555   38.9181   17.5742 C   0  0  1  0  0  0  0  0  0  0  0  0
   27.6489   38.2132   17.0474 O   0  0  0  0  0  0  0  0  0  0  0  0
   28.2544   39.9606   18.5594 C   0  0  1  0  0  0  0  0  0  0  0  0
   27.3519   40.8029   17.8936 O   0  0  0  0  0  0  0  0  0  0  0  0
   27.5566   39.3432   19.7597 C   0  0  1  0  0  0  0  0  0  0  0  0
   26.8075   38.2443   19.3156 O   0  0  0  0  0  0  0  0  0  0  0  0
   28.5673   38.8749   20.7934 C   0  0  0  0  0  0  0  0  0  0  0  0
   27.6136   39.7775   23.2825 N   0  0  0  0  0  0  0  0  0  0  0  0
   27.2161   40.2571   24.5117 C   0  0  0  0  0  0  0  0  0  0  0  0
   27.3099   41.4545   24.7652 O   0  0  0  0  0  0  0  0  0  0  0  0
   26.7137   39.4014   25.4652 N   0  0  0  0  0  0  0  0  0  0  0  0
   26.5925   38.0525   25.1937 C   0  0  0  0  0  0  0  0  0  0  0  0
   26.9919   37.5593   23.9565 C   0  0  1  0  0  0  0  0  0  0  0  0
   26.1244   37.2931   26.0444 O   0  0  0  0  0  0  0  0  0  0  0  0
   27.2711   35.7244   22.4482 C   0  0  2  0  0  0  0  0  0  0  0  0
   26.8753   36.2120   23.6791 N   0  0  0  0  0  0  0  0  0  0  0  0
   27.1529   34.3625   22.1692 C   0  0  0  0  0  0  0  0  0  0  0  0
   27.5528   33.8608   20.9362 C   0  0  1  0  0  0  0  0  0  0  0  0
   27.4146   32.3945   20.6736 C   0  0  0  0  0  0  0  0  0  0  0  0
   28.0733   34.7302   19.9657 C   0  0  1  0  0  0  0  0  0  0  0  0
   28.5089   34.2293   18.6160 C   0  0  0  0  0  0  0  0  0  0  0  0
   28.1916   36.0886   20.2477 C   0  0  0  0  0  0  0  0  0  0  0  0
   27.7941   36.5930   21.4873 C   0  0  1  0  0  0  0  0  0  0  0  0
   27.5086   38.4306   22.9998 C   0  0  1  0  0  0  0  0  0  0  0  0
   27.9133   37.9452   21.7709 N   0  0  0  0  0  0  0  0  0  0  0  0
  1  2  1  6  0  0  0
  1  3  1  0  0  0  0
  1  4  2  0  0  0  0
  1  6  1  0  0  0  0
  5  6  1  0  0  0  0
  7  5  1  1  0  0  0
  7  8  1  0  0  0  0
  7  9  1  0  0  0  0
  9 10  1  6  0  0  0
  9 11  1  0  0  0  0
 11 12  1  6  0  0  0
 11 13  1  0  0  0  0
 13 31  1  0  0  0  0
 14 15  1  0  0  0  0
 15 16  2  0  0  0  0
 15 17  1  0  0  0  0
 17 18  1  0  0  0  0
 18 20  2  0  0  0  0
 19 18  1  6  0  0  0
 19 22  1  0  0  0  0
 19 30  1  0  0  0  0
 21 23  1  1  0  0  0
 21 29  1  0  0  0  0
 21 22  1  0  0  0  0
 23 24  1  0  0  0  0
 24 25  1  6  0  0  0
 24 26  1  0  0  0  0
 26 27  1  6  0  0  0
 26 28  1  0  0  0  0
 29 28  1  6  0  0  0
 29 31  1  0  0  0  0
 30 14  1  6  0  0  0
 30 31  1  0  0  0  0
M  CHG  1   3  -1
M  END
>  <CHROM.1>
75.60733278,-63.20318784,59.03204013,-177.68877082,-38.31540180,-164.34504488
84.95678410,28.35858286,37.56473803,20.30063195,-0.15727346,1.14049086,0.06802102

>  <Name>
ligand

>  <RI>
0

>  <Rbt.Current_Directory>
/home/itssahil/PROJECTS/Mol_Feturizer/New_Systems/rnas/3F2T

>  <Rbt.Executable>
rbdock ($Id: //depot/dev/client3/rdock/2013.1/src/exe/rbdock.cxx#4 $)

>  <Rbt.Library>
libRbt.so (2013.1, Build901 2013/11/27)

>  <Rbt.Parameter_File>
/export/apps/rDock/src/rDock_2013.1_src/data/scripts/dock_solv.prm

>  <Rbt.Receptor>
prm/blind_docking_80.prm

>  <SCORE>
-21.9795

>  <SCORE.INTER>
-25.034

>  <SCORE.INTER.CONST>
1

>  <SCORE.INTER.POLAR>
0

>  <SCORE.INTER.ROT>
7

>  <SCORE.INTER.SOLV>
13.5737

>  <SCORE.INTER.VDW>
-29.4806

>  <SCORE.INTER.norm>
-0.807548

>  <SCORE.INTRA>
3.05452

>  <SCORE.INTRA.DIHEDRAL>
0.271215

>  <SCORE.INTRA.DIHEDRAL.0>
4.64198

>  <SCORE.INTRA.POLAR>
0

>  <SCORE.INTRA.POLAR.0>
0

>  <SCORE.INTRA.REPUL>
0

>  <SCORE.INTRA.REPUL.0>
0

>  <SCORE.INTRA.SOLV>
1.14907

>  <SCORE.INTRA.SOLV.lig_0>
-49.3611

>  <SCORE.INTRA.VDW>
2.34437

>  <SCORE.INTRA.VDW.0>
-1.91858

>  <SCORE.INTRA.norm>
0.0985329

>  <SCORE.RESTR>
0

>  <SCORE.RESTR.CAVITY>
0

>  <SCORE.RESTR.norm>
0

>  <SCORE.SYSTEM>
0

>  <SCORE.SYSTEM.CONST>
0

>  <SCORE.SYSTEM.DIHEDRAL>
0

>  <SCORE.SYSTEM.SOLV>
0

>  <SCORE.SYSTEM.norm>
0

>  <SCORE.heavy>
31

>  <SCORE.norm>
-0.709015

>  <RMSD>
5.777

$$$$
ligand
 OpenBabel11021811473D
libRbt.so/2013.1/901 2013/11/27
 31 33  0  0  0  0  0  0  0  0999 V2000
   25.3588   44.2803   16.7502 P   0  0  1  0  0  0  0  0  0  0  0  0
   25.8475   45.6986   16.9012 O   0  0  0  0  0  0  0  0  0  0  0  0
   24.6153   43.8907   18.0002 O   0  5  0  0  0  0  0  0  0  0  0  0
   24.4750   44.2586   15.5334 O   0  0  0  0  0  0  0  0  0  0  0  0
   27.5656   43.0850   17.5065 C   0  0  0  0  0  0  0  0  0  0  0  0
   26.5507   43.2262   16.5344 O   0  0  0  0  0  0  0  0  0  0  0  0
   26.9910   42.3831   18.7342 C   0  0  1  0  0  0  0  0  0  0  0  0
   26.2640   41.2387   18.3334 O   0  0  0  0  0  0  0  0  0  0  0  0
   28.1156   41.9548   19.6619 C   0  0  1  0  0  0  0  0  0  0  0  0
   28.8145   43.1003   20.0704 O   0  0  0  0  0  0  0  0  0  0  0  0
   27.6107   41.2218   20.8934 C   0  0  1  0  0  0  0  0  0  0  0  0
   26.8388   40.1306   20.4700 O   0  0  0  0  0  0  0  0  0  0  0  0
   28.7692   40.7175   21.7379 C   0  0  0  0  0  0  0  0  0  0  0  0
   28.3556   41.8553   24.2784 N   0  0  0  0  0  0  0  0  0  0  0  0
   28.2253   42.4454   25.5168 C   0  0  0  0  0  0  0  0  0  0  0  0
   28.4377   43.6468   25.6520 O   0  0  0  0  0  0  0  0  0  0  0  0
   27.8593   41.6961   26.6116 N   0  0  0  0  0  0  0  0  0  0  0  0
   27.6075   40.3448   26.4760 C   0  0  0  0  0  0  0  0  0  0  0  0
   27.7371   39.7405   25.2305 C   0  0  1  0  0  0  0  0  0  0  0  0
   27.2616   39.6818   27.4560 O   0  0  0  0  0  0  0  0  0  0  0  0
   27.6165   37.7920   23.8490 C   0  0  2  0  0  0  0  0  0  0  0  0
   27.4888   38.3900   25.0882 N   0  0  0  0  0  0  0  0  0  0  0  0
   27.3653   36.4269   23.7065 C   0  0  0  0  0  0  0  0  0  0  0  0
   27.4958   35.8145   22.4656 C   0  0  1  0  0  0  0  0  0  0  0  0
   27.2219   34.3483   22.3514 C   0  0  0  0  0  0  0  0  0  0  0  0
   27.8773   36.5749   21.3499 C   0  0  1  0  0  0  0  0  0  0  0  0
   28.0210   35.9526   19.9881 C   0  0  0  0  0  0  0  0  0  0  0  0
   28.1288   37.9366   21.4955 C   0  0  0  0  0  0  0  0  0  0  0  0
   28.0022   38.5520   22.7422 C   0  0  1  0  0  0  0  0  0  0  0  0
   28.1175   40.5040   24.1287 C   0  0  1  0  0  0  0  0  0  0  0  0
   28.2545   39.9077   22.8897 N   0  0  0  0  0  0  0  0  0  0  0  0
  1  2  1  1  0  0  0
  1  3  1  0  0  0  0
  1  4  2  0  0  0  0
  1  6  1  0  0  0  0
  5  6  1  0  0  0  0
  7  5  1  6  0  0  0
  7  8  1  0  0  0  0
  7  9  1  0  0  0  0
  9 10  1  1  0  0  0
  9 11  1  0  0  0  0
 11 12  1  6  0  0  0
 11 13  1  0  0  0  0
 13 31  1  0  0  0  0
 14 15  1  0  0  0  0
 15 16  2  0  0  0  0
 15 17  1  0  0  0  0
 17 18  1  0  0  0  0
 18 20  2  0  0  0  0
 19 18  1  6  0  0  0
 19 22  1  0  0  0  0
 19 30  1  0  0  0  0
 21 23  1  1  0  0  0
 21 29  1  0  0  0  0
 21 22  1  0  0  0  0
 23 24  1  0  0  0  0
 24 25  1  6  0  0  0
 24 26  1  0  0  0  0
 26 27  1  6  0  0  0
 26 28  1  0  0  0  0
 29 28  1  6  0  0  0
 29 31  1  0  0  0  0
 30 14  1  6  0  0  0
 30 31  1  0  0  0  0
M  CHG  1   3  -1
M  END
>  <CHROM.1>
71.94457065,59.28120759,47.99205102,60.63975190,55.75408135,-175.64844738
86.54438521,27.25486179,40.82479849,21.35201350,-2.84800695,1.35429196,-2.83808324

>  <Name>
ligand

>  <RI>
0

>  <Rbt.Current_Directory>
/home/itssahil/PROJECTS/Mol_Feturizer/New_Systems/rnas/3F2T

>  <Rbt.Executable>
rbdock ($Id: //depot/dev/client3/rdock/2013.1/src/exe/rbdock.cxx#4 $)

>  <Rbt.Library>
libRbt.so (2013.1, Build901 2013/11/27)

>  <Rbt.Parameter_File>
/export/apps/rDock/src/rDock_2013.1_src/data/scripts/dock_solv.prm

>  <Rbt.Receptor>
prm/blind_docking_60.prm

>  <SCORE>
-28.0538

>  <SCORE.INTER>
-28.943

>  <SCORE.INTER.CONST>
1

>  <SCORE.INTER.POLAR>
0

>  <SCORE.INTER.ROT>
7

>  <SCORE.INTER.SOLV>
17.6824

>  <SCORE.INTER.VDW>
-33.4561

>  <SCORE.INTER.norm>
-0.933646

>  <SCORE.INTRA>
0.889261

>  <SCORE.INTRA.DIHEDRAL>
-1.98069

>  <SCORE.INTRA.DIHEDRAL.0>
4.64198

>  <SCORE.INTRA.POLAR>
0

>  <SCORE.INTRA.POLAR.0>
0

>  <SCORE.INTRA.REPUL>
0

>  <SCORE.INTRA.REPUL.0>
0

>  <SCORE.INTRA.SOLV>
2.0039

>  <SCORE.INTRA.SOLV.lig_0>
-49.3611

>  <SCORE.INTRA.VDW>
0.877652

>  <SCORE.INTRA.VDW.0>
-1.91858

>  <SCORE.INTRA.norm>
0.0286858

>  <SCORE.RESTR>
0

>  <SCORE.RESTR.CAVITY>
0

>  <SCORE.RESTR.norm>
0

>  <SCORE.SYSTEM>
0

>  <SCORE.SYSTEM.CONST>
0

>  <SCORE.SYSTEM.DIHEDRAL>
0

>  <SCORE.SYSTEM.SOLV>
0

>  <SCORE.SYSTEM.norm>
0

>  <SCORE.heavy>
31

>  <SCORE.norm>
-0.90496

>  <RMSD>
5.794

$$$$
ligand
 OpenBabel11021811473D
libRbt.so/2013.1/901 2013/11/27
 31 33  0  0  0  0  0  0  0  0999 V2000
   32.7354   34.9523   15.3939 P   0  0  1  0  0  0  0  0  0  0  0  0
   32.9539   34.4361   16.7935 O   0  0  0  0  0  0  0  0  0  0  0  0
   34.0446   34.9031   14.6519 O   0  5  0  0  0  0  0  0  0  0  0  0
   31.6939   34.0661   14.7678 O   0  0  0  0  0  0  0  0  0  0  0  0
   31.2732   36.9202   16.3210 C   0  0  0  0  0  0  0  0  0  0  0  0
   32.2041   36.4672   15.3603 O   0  0  0  0  0  0  0  0  0  0  0  0
   29.9655   36.1503   16.1557 C   0  0  1  0  0  0  0  0  0  0  0  0
   30.0835   34.8750   16.7544 O   0  0  0  0  0  0  0  0  0  0  0  0
   28.8290   36.9067   16.8226 C   0  0  1  0  0  0  0  0  0  0  0  0
   27.6177   36.3038   16.4532 O   0  0  0  0  0  0  0  0  0  0  0  0
   28.9363   36.9061   18.3383 C   0  0  1  0  0  0  0  0  0  0  0  0
   29.8722   37.8805   18.7133 O   0  0  0  0  0  0  0  0  0  0  0  0
   27.5956   37.2279   18.9774 C   0  0  0  0  0  0  0  0  0  0  0  0
   27.4964   35.3963   21.1117 N   0  0  0  0  0  0  0  0  0  0  0  0
   27.3807   34.4702   22.1255 C   0  0  0  0  0  0  0  0  0  0  0  0
   27.2135   33.2836   21.8596 O   0  0  0  0  0  0  0  0  0  0  0  0
   27.4487   34.8650   23.4421 N   0  0  0  0  0  0  0  0  0  0  0  0
   27.6457   36.1948   23.7595 C   0  0  0  0  0  0  0  0  0  0  0  0
   27.7628   37.1366   22.7433 C   0  0  1  0  0  0  0  0  0  0  0  0
   27.7247   36.5406   24.9401 O   0  0  0  0  0  0  0  0  0  0  0  0
   28.0758   39.4013   22.0416 C   0  0  2  0  0  0  0  0  0  0  0  0
   27.9578   38.4676   23.0534 N   0  0  0  0  0  0  0  0  0  0  0  0
   28.2728   40.7463   22.3564 C   0  0  0  0  0  0  0  0  0  0  0  0
   28.3875   41.6945   21.3466 C   0  0  1  0  0  0  0  0  0  0  0  0
   28.5946   43.1278   21.7218 C   0  0  0  0  0  0  0  0  0  0  0  0
   28.3098   41.2953   20.0038 C   0  0  1  0  0  0  0  0  0  0  0  0
   28.4381   42.2882   18.8813 C   0  0  0  0  0  0  0  0  0  0  0  0
   28.1115   39.9527   19.6928 C   0  0  0  0  0  0  0  0  0  0  0  0
   27.9919   39.0000   20.7063 C   0  0  1  0  0  0  0  0  0  0  0  0
   27.6831   36.7304   21.4128 C   0  0  1  0  0  0  0  0  0  0  0  0
   27.7920   37.6626   20.3987 N   0  0  0  0  0  0  0  0  0  0  0  0
  1  2  1  1  0  0  0
  1  3  1  0  0  0  0
  1  4  2  0  0  0  0
  1  6  1  0  0  0  0
  5  6  1  0  0  0  0
  7  5  1  1  0  0  0
  7  8  1  0  0  0  0
  7  9  1  0  0  0  0
  9 10  1  1  0  0  0
  9 11  1  0  0  0  0
 11 12  1  6  0  0  0
 11 13  1  0  0  0  0
 13 31  1  0  0  0  0
 14 15  1  0  0  0  0
 15 16  2  0  0  0  0
 15 17  1  0  0  0  0
 17 18  1  0  0  0  0
 18 20  2  0  0  0  0
 19 18  1  6  0  0  0
 19 22  1  0  0  0  0
 19 30  1  0  0  0  0
 21 23  1  1  0  0  0
 21 29  1  0  0  0  0
 21 22  1  0  0  0  0
 23 24  1  0  0  0  0
 24 25  1  6  0  0  0
 24 26  1  0  0  0  0
 26 27  1  6  0  0  0
 26 28  1  0  0  0  0
 29 28  1  6  0  0  0
 29 31  1  0  0  0  0
 30 14  1  6  0  0  0
 30 31  1  0  0  0  0
M  CHG  1   3  -1
M  END
>  <CHROM.1>
-64.00712114,-38.19532804,79.14444149,169.66861232,79.70654251,-161.54279504
89.65185430,29.27308219,37.10263416,19.28324838,0.31722520,-1.03477138,3.03819573

>  <Name>
ligand

>  <RI>
0

>  <Rbt.Current_Directory>
/home/itssahil/PROJECTS/Mol_Feturizer/New_Systems/rnas/3F2T

>  <Rbt.Executable>
rbdock ($Id: //depot/dev/client3/rdock/2013.1/src/exe/rbdock.cxx#4 $)

>  <Rbt.Library>
libRbt.so (2013.1, Build901 2013/11/27)

>  <Rbt.Parameter_File>
/export/apps/rDock/src/rDock_2013.1_src/data/scripts/dock_solv.prm

>  <Rbt.Receptor>
prm/blind_docking_100.prm

>  <SCORE>
-19.0716

>  <SCORE.INTER>
-22.0703

>  <SCORE.INTER.CONST>
1

>  <SCORE.INTER.POLAR>
0

>  <SCORE.INTER.ROT>
7

>  <SCORE.INTER.SOLV>
12.1661

>  <SCORE.INTER.VDW>
-27.0355

>  <SCORE.INTER.norm>
-0.711944

>  <SCORE.INTRA>
2.99152

>  <SCORE.INTRA.DIHEDRAL>
1.4922

>  <SCORE.INTRA.DIHEDRAL.0>
4.64198

>  <SCORE.INTRA.POLAR>
0

>  <SCORE.INTRA.POLAR.0>
0

>  <SCORE.INTRA.REPUL>
0

>  <SCORE.INTRA.REPUL.0>
0

>  <SCORE.INTRA.SOLV>
2.33147

>  <SCORE.INTRA.SOLV.lig_0>
-49.3611

>  <SCORE.INTRA.VDW>
1.07969

>  <SCORE.INTRA.VDW.0>
-1.91858

>  <SCORE.INTRA.norm>
0.0965007

>  <SCORE.RESTR>
0.00710779

>  <SCORE.RESTR.CAVITY>
0.00710779

>  <SCORE.RESTR.norm>
0.000229284

>  <SCORE.SYSTEM>
0

>  <SCORE.SYSTEM.CONST>
0

>  <SCORE.SYSTEM.DIHEDRAL>
0

>  <SCORE.SYSTEM.SOLV>
0

>  <SCORE.SYSTEM.norm>
0

>  <SCORE.heavy>
31

>  <SCORE.norm>
-0.615214

>  <RMSD>
5.800

$$$$
ligand
 OpenBabel11021811473D
libRbt.so/2013.1/901 2013/11/27
 31 33  0  0  0  0  0  0  0  0999 V2000
   33.1362   34.5905   14.5002 P   0  0  1  0  0  0  0  0  0  0  0  0
   32.7398   35.0983   13.1369 O   0  0  0  0  0  0  0  0  0  0  0  0
   32.4083   33.2993   14.7642 O   0  5  0  0  0  0  0  0  0  0  0  0
   34.6285   34.4059   14.4717 O   0  0  0  0  0  0  0  0  0  0  0  0
   31.4601   36.1265   15.8048 C   0  0  0  0  0  0  0  0  0  0  0  0
   32.7709   35.6152   15.6812 O   0  0  0  0  0  0  0  0  0  0  0  0
   31.3234   36.8394   17.1477 C   0  0  1  0  0  0  0  0  0  0  0  0
   32.0115   38.0737   17.1050 O   0  0  0  0  0  0  0  0  0  0  0  0
   29.8576   37.1004   17.4508 C   0  0  1  0  0  0  0  0  0  0  0  0
   29.1427   35.9120   17.2412 O   0  0  0  0  0  0  0  0  0  0  0  0
   29.6297   37.5658   18.8792 C   0  0  1  0  0  0  0  0  0  0  0  0
   30.2520   38.8119   19.0403 O   0  0  0  0  0  0  0  0  0  0  0  0
   28.1455   37.7059   19.1741 C   0  0  0  0  0  0  0  0  0  0  0  0
   27.6822   35.5185   20.8830 N   0  0  0  0  0  0  0  0  0  0  0  0
   27.4017   34.4208   21.6673 C   0  0  0  0  0  0  0  0  0  0  0  0
   27.4262   33.2939   21.1810 O   0  0  0  0  0  0  0  0  0  0  0  0
   27.0899   34.5760   22.9987 N   0  0  0  0  0  0  0  0  0  0  0  0
   27.0666   35.8357   23.5646 C   0  0  0  0  0  0  0  0  0  0  0  0
   27.3476   36.9494   22.7809 C   0  0  1  0  0  0  0  0  0  0  0  0
   26.8052   35.9678   24.7621 O   0  0  0  0  0  0  0  0  0  0  0  0
   27.6057   39.3166   22.5591 C   0  0  2  0  0  0  0  0  0  0  0  0
   27.3243   38.2115   23.3396 N   0  0  0  0  0  0  0  0  0  0  0  0
   27.5817   40.5917   23.1250 C   0  0  0  0  0  0  0  0  0  0  0  0
   27.8581   41.7104   22.3478 C   0  0  1  0  0  0  0  0  0  0  0  0
   27.8195   43.0620   22.9877 C   0  0  0  0  0  0  0  0  0  0  0  0
   28.1677   41.5551   20.9881 C   0  0  1  0  0  0  0  0  0  0  0  0
   28.4817   42.7386   20.1146 C   0  0  0  0  0  0  0  0  0  0  0  0
   28.1892   40.2815   20.4259 C   0  0  0  0  0  0  0  0  0  0  0  0
   27.9077   39.1575   21.2045 C   0  0  1  0  0  0  0  0  0  0  0  0
   27.6529   36.7848   21.4313 C   0  0  1  0  0  0  0  0  0  0  0  0
   27.9263   37.8883   20.6459 N   0  0  0  0  0  0  0  0  0  0  0  0
  1  2  1  6  0  0  0
  1  3  1  0  0  0  0
  1  4  2  0  0  0  0
  1  6  1  0  0  0  0
  5  6  1  0  0  0  0
  7  5  1  6  0  0  0
  7  8  1  0  0  0  0
  7  9  1  0  0  0  0
  9 10  1  1  0  0  0
  9 11  1  0  0  0  0
 11 12  1  6  0  0  0
 11 13  1  0  0  0  0
 13 31  1  0  0  0  0
 14 15  1  0  0  0  0
 15 16  2  0  0  0  0
 15 17  1  0  0  0  0
 17 18  1  0  0  0  0
 18 20  2  0  0  0  0
 19 18  1  1  0  0  0
 19 22  1  0  0  0  0
 19 30  1  0  0  0  0
 21 23  1  6  0  0  0
 21 29  1  0  0  0  0
 21 22  1  0  0  0  0
 23 24  1  0  0  0  0
 24 25  1  1  0  0  0
 24 26  1  0  0  0  0
 26 27  1  1  0  0  0
 26 28  1  0  0  0  0
 29 28  1  1  0  0  0
 29 31  1  0  0  0  0
 30 14  1  1  0  0  0
 30 31  1  0  0  0  0
M  CHG  1   3  -1
M  END
>  <CHROM.1>
168.82159954,52.38764957,73.70467897,48.57774069,64.78968376,168.42678909
90.02995205,29.46207511,37.18024811,19.35451529,0.44910450,-0.95546125,-3.08123903

>  <Name>
ligand

>  <RI>
0

>  <Rbt.Current_Directory>
/home/itssahil/PROJECTS/Mol_Feturizer/New_Systems/rnas/3F2T

>  <Rbt.Executable>
rbdock ($Id: //depot/dev/client3/rdock/2013.1/src/exe/rbdock.cxx#4 $)

>  <Rbt.Library>
libRbt.so (2013.1, Build901 2013/11/27)

>  <Rbt.Parameter_File>
/export/apps/rDock/src/rDock_2013.1_src/data/scripts/dock_solv.prm

>  <Rbt.Receptor>
prm/pocket_docking_8.prm

>  <SCORE>
-24.8378

>  <SCORE.INTER>
-24.5411

>  <SCORE.INTER.CONST>
1

>  <SCORE.INTER.POLAR>
0

>  <SCORE.INTER.ROT>
7

>  <SCORE.INTER.SOLV>
13.8229

>  <SCORE.INTER.VDW>
-29.235

>  <SCORE.INTER.norm>
-0.791647

>  <SCORE.INTRA>
-0.29676

>  <SCORE.INTRA.DIHEDRAL>
-0.919106

>  <SCORE.INTRA.DIHEDRAL.0>
4.64198

>  <SCORE.INTRA.POLAR>
0

>  <SCORE.INTRA.POLAR.0>
0

>  <SCORE.INTRA.REPUL>
0

>  <SCORE.INTRA.REPUL.0>
0

>  <SCORE.INTRA.SOLV>
-0.66416

>  <SCORE.INTRA.SOLV.lig_0>
-49.3611

>  <SCORE.INTRA.VDW>
0.494873

>  <SCORE.INTRA.VDW.0>
-1.91858

>  <SCORE.INTRA.norm>
-0.00957289

>  <SCORE.RESTR>
0

>  <SCORE.RESTR.CAVITY>
0

>  <SCORE.RESTR.norm>
0

>  <SCORE.SYSTEM>
0

>  <SCORE.SYSTEM.CONST>
0

>  <SCORE.SYSTEM.DIHEDRAL>
0

>  <SCORE.SYSTEM.SOLV>
0

>  <SCORE.SYSTEM.norm>
0

>  <SCORE.heavy>
31

>  <SCORE.norm>
-0.80122

>  <RMSD>
5.800

$$$$
ligand
 OpenBabel11021811473D
libRbt.so/2013.1/901 2013/11/27
 31 33  0  0  0  0  0  0  0  0999 V2000
   25.4771   43.6766   16.3734 P   0  0  1  0  0  0  0  0  0  0  0  0
   24.2329   43.7726   15.5272 O   0  0  0  0  0  0  0  0  0  0  0  0
   26.4693   42.7868   15.6729 O   0  5  0  0  0  0  0  0  0  0  0  0
   25.9914   45.0800   16.5404 O   0  0  0  0  0  0  0  0  0  0  0  0
   26.2744   42.7133   18.6771 C   0  0  0  0  0  0  0  0  0  0  0  0
   25.1990   43.0581   17.8289 O   0  0  0  0  0  0  0  0  0  0  0  0
   25.7232   42.2290   20.0156 C   0  0  1  0  0  0  0  0  0  0  0  0
   25.0191   41.0169   19.8315 O   0  0  0  0  0  0  0  0  0  0  0  0
   26.8627   41.9956   20.9932 C   0  0  1  0  0  0  0  0  0  0  0  0
   26.3232   41.8697   22.2818 O   0  0  0  0  0  0  0  0  0  0  0  0
   27.6627   40.7446   20.6709 C   0  0  1  0  0  0  0  0  0  0  0  0
   28.2428   40.9077   19.4048 O   0  0  0  0  0  0  0  0  0  0  0  0
   28.7596   40.5220   21.6989 C   0  0  0  0  0  0  0  0  0  0  0  0
   28.3303   41.7315   24.2034 N   0  0  0  0  0  0  0  0  0  0  0  0
   28.1928   42.3558   25.4241 C   0  0  0  0  0  0  0  0  0  0  0  0
   28.4161   43.5583   25.5296 O   0  0  0  0  0  0  0  0  0  0  0  0
   27.8072   41.6399   26.5344 N   0  0  0  0  0  0  0  0  0  0  0  0
   27.5429   40.2880   26.4321 C   0  0  0  0  0  0  0  0  0  0  0  0
   27.6797   39.6493   25.2047 C   0  0  1  0  0  0  0  0  0  0  0  0
   27.1796   39.6550   27.4256 O   0  0  0  0  0  0  0  0  0  0  0  0
   27.5539   37.6659   23.8744 C   0  0  2  0  0  0  0  0  0  0  0  0
   27.4190   38.2980   25.0957 N   0  0  0  0  0  0  0  0  0  0  0  0
   27.2901   36.3000   23.7656 C   0  0  0  0  0  0  0  0  0  0  0  0
   27.4277   35.6533   22.5431 C   0  0  1  0  0  0  0  0  0  0  0  0
   27.1398   34.1873   22.4650 C   0  0  0  0  0  0  0  0  0  0  0  0
   27.8291   36.3796   21.4117 C   0  0  1  0  0  0  0  0  0  0  0  0
   27.9810   35.7197   20.0687 C   0  0  0  0  0  0  0  0  0  0  0  0
   28.0931   37.7421   21.5238 C   0  0  0  0  0  0  0  0  0  0  0  0
   27.9594   38.3920   22.7521 C   0  0  1  0  0  0  0  0  0  0  0  0
   28.0799   40.3791   24.0872 C   0  0  1  0  0  0  0  0  0  0  0  0
   28.2241   39.7485   22.8662 N   0  0  0  0  0  0  0  0  0  0  0  0
  1  2  1  6  0  0  0
  1  3  1  0  0  0  0
  1  4  2  0  0  0  0
  1  6  1  0  0  0  0
  5  6  1  0  0  0  0
  7  5  1  6  0  0  0
  7  8  1  0  0  0  0
  7  9  1  0  0  0  0
  9 10  1  1  0  0  0
  9 11  1  0  0  0  0
 11 12  1  6  0  0  0
 11 13  1  0  0  0  0
 13 31  1  0  0  0  0
 14 15  1  0  0  0  0
 15 16  2  0  0  0  0
 15 17  1  0  0  0  0
 17 18  1  0  0  0  0
 18 20  2  0  0  0  0
 19 18  1  6  0  0  0
 19 22  1  0  0  0  0
 19 30  1  0  0  0  0
 21 23  1  1  0  0  0
 21 29  1  0  0  0  0
 21 22  1  0  0  0  0
 23 24  1  0  0  0  0
 24 25  1  6  0  0  0
 24 26  1  0  0  0  0
 26 27  1  6  0  0  0
 26 28  1  0  0  0  0
 29 28  1  6  0  0  0
 29 31  1  0  0  0  0
 30 14  1  6  0  0  0
 30 31  1  0  0  0  0
M  CHG  1   3  -1
M  END
>  <CHROM.1>
176.76858598,170.61140166,66.16372556,165.95149634,62.16516323,86.63300785
73.80420032,27.05443058,40.57292959,21.47258671,3.02373906,-1.33976218,0.42580778

>  <Name>
ligand

>  <RI>
0

>  <Rbt.Current_Directory>
/home/itssahil/PROJECTS/Mol_Feturizer/New_Systems/rnas/3F2T

>  <Rbt.Executable>
rbdock ($Id: //depot/dev/client3/rdock/2013.1/src/exe/rbdock.cxx#4 $)

>  <Rbt.Library>
libRbt.so (2013.1, Build901 2013/11/27)

>  <Rbt.Parameter_File>
/export/apps/rDock/src/rDock_2013.1_src/data/scripts/dock_solv.prm

>  <Rbt.Receptor>
prm/pocket_docking_6.prm

>  <SCORE>
-27.104

>  <SCORE.INTER>
-27.4845

>  <SCORE.INTER.CONST>
1

>  <SCORE.INTER.POLAR>
0

>  <SCORE.INTER.ROT>
7

>  <SCORE.INTER.SOLV>
19.0953

>  <SCORE.INTER.VDW>
-32.9548

>  <SCORE.INTER.norm>
-0.886597

>  <SCORE.INTRA>
0.380542

>  <SCORE.INTRA.DIHEDRAL>
-0.110615

>  <SCORE.INTRA.DIHEDRAL.0>
4.64198

>  <SCORE.INTRA.POLAR>
0

>  <SCORE.INTRA.POLAR.0>
0

>  <SCORE.INTRA.REPUL>
0

>  <SCORE.INTRA.REPUL.0>
0

>  <SCORE.INTRA.SOLV>
0.222324

>  <SCORE.INTRA.SOLV.lig_0>
-49.3611

>  <SCORE.INTRA.VDW>
0.324687

>  <SCORE.INTRA.VDW.0>
-1.91858

>  <SCORE.INTRA.norm>
0.0122755

>  <SCORE.RESTR>
0

>  <SCORE.RESTR.CAVITY>
0

>  <SCORE.RESTR.norm>
0

>  <SCORE.SYSTEM>
0

>  <SCORE.SYSTEM.CONST>
0

>  <SCORE.SYSTEM.DIHEDRAL>
0

>  <SCORE.SYSTEM.SOLV>
0

>  <SCORE.SYSTEM.norm>
0

>  <SCORE.heavy>
31

>  <SCORE.norm>
-0.874322

>  <RMSD>
5.815

$$$$
ligand
 OpenBabel11021811473D
libRbt.so/2013.1/901 2013/11/27
 31 33  0  0  0  0  0  0  0  0999 V2000
   29.7529   33.7344   16.5555 P   0  0  1  0  0  0  0  0  0  0  0  0
   30.2030   35.0893   17.0400 O   0  0  0  0  0  0  0  0  0  0  0  0
   28.8602   33.9226   15.3577 O   0  5  0  0  0  0  0  0  0  0  0  0
   30.9996   32.9632   16.2194 O   0  0  0  0  0  0  0  0  0  0  0  0
   27.9395   33.5576   18.4400 C   0  0  0  0  0  0  0  0  0  0  0  0
   28.9285   32.9147   17.6632 O   0  0  0  0  0  0  0  0  0  0  0  0
   26.7643   33.9373   17.5428 C   0  0  1  0  0  0  0  0  0  0  0  0
   25.5522   33.7871   18.2549 O   0  0  0  0  0  0  0  0  0  0  0  0
   26.8986   35.3827   17.0941 C   0  0  1  0  0  0  0  0  0  0  0  0
   25.8581   35.6677   16.1978 O   0  0  0  0  0  0  0  0  0  0  0  0
   26.8315   36.3633   18.2529 C   0  0  1  0  0  0  0  0  0  0  0  0
   25.8176   35.9440   19.1258 O   0  0  0  0  0  0  0  0  0  0  0  0
   28.1520   36.4071   19.0039 C   0  0  0  0  0  0  0  0  0  0  0  0
   27.5729   34.9779   21.3581 N   0  0  0  0  0  0  0  0  0  0  0  0
   27.2330   34.2390   22.4704 C   0  0  0  0  0  0  0  0  0  0  0  0
   27.1713   33.0149   22.4013 O   0  0  0  0  0  0  0  0  0  0  0  0
   26.9578   34.8635   23.6655 N   0  0  0  0  0  0  0  0  0  0  0  0
   27.0314   36.2393   23.7636 C   0  0  0  0  0  0  0  0  0  0  0  0
   27.3728   36.9933   22.6464 C   0  0  1  0  0  0  0  0  0  0  0  0
   26.8024   36.7925   24.8411 O   0  0  0  0  0  0  0  0  0  0  0  0
   27.7877   39.1159   21.6256 C   0  0  2  0  0  0  0  0  0  0  0  0
   27.4464   38.3688   22.7369 N   0  0  0  0  0  0  0  0  0  0  0  0
   27.8616   40.5061   21.7185 C   0  0  0  0  0  0  0  0  0  0  0  0
   28.1989   41.2674   20.6056 C   0  0  1  0  0  0  0  0  0  0  0  0
   28.2649   42.7558   20.7416 C   0  0  0  0  0  0  0  0  0  0  0  0
   28.4713   40.6333   19.3840 C   0  0  1  0  0  0  0  0  0  0  0  0
   28.8488   41.4196   18.1586 C   0  0  0  0  0  0  0  0  0  0  0  0
   28.3952   39.2459   19.2941 C   0  0  0  0  0  0  0  0  0  0  0  0
   28.0524   38.4805   20.4101 C   0  0  1  0  0  0  0  0  0  0  0  0
   27.6405   36.3543   21.4374 C   0  0  1  0  0  0  0  0  0  0  0  0
   27.9737   37.0987   20.3220 N   0  0  0  0  0  0  0  0  0  0  0  0
  1  2  1  1  0  0  0
  1  3  1  0  0  0  0
  1  4  2  0  0  0  0
  1  6  1  0  0  0  0
  5  6  1  0  0  0  0
  7  5  1  1  0  0  0
  7  8  1  0  0  0  0
  7  9  1  0  0  0  0
  9 10  1  6  0  0  0
  9 11  1  0  0  0  0
 11 12  1  1  0  0  0
 11 13  1  0  0  0  0
 13 31  1  0  0  0  0
 14 15  1  0  0  0  0
 15 16  2  0  0  0  0
 15 17  1  0  0  0  0
 17 18  1  0  0  0  0
 18 20  2  0  0  0  0
 19 18  1  1  0  0  0
 19 22  1  0  0  0  0
 19 30  1  0  0  0  0
 21 23  1  6  0  0  0
 21 29  1  0  0  0  0
 21 22  1  0  0  0  0
 23 24  1  0  0  0  0
 24 25  1  1  0  0  0
 24 26  1  0  0  0  0
 26 27  1  1  0  0  0
 26 28  1  0  0  0  0
 29 28  1  1  0  0  0
 29 31  1  0  0  0  0
 30 14  1  1  0  0  0
 30 31  1  0  0  0  0
M  CHG  1   3  -1
M  END
>  <CHROM.1>
68.08837449,43.64725384,143.86544248,175.81385351,-41.83191475,-165.89524179
-85.32042988,27.87859883,36.28373435,19.58866830,-1.13921360,1.27939747,0.29781536

>  <Name>
ligand

>  <RI>
0

>  <Rbt.Current_Directory>
/home/itssahil/PROJECTS/Mol_Feturizer/New_Systems/rnas/3F2T

>  <Rbt.Executable>
rbdock ($Id: //depot/dev/client3/rdock/2013.1/src/exe/rbdock.cxx#4 $)

>  <Rbt.Library>
libRbt.so (2013.1, Build901 2013/11/27)

>  <Rbt.Parameter_File>
/export/apps/rDock/src/rDock_2013.1_src/data/scripts/dock_solv.prm

>  <Rbt.Receptor>
prm/blind_docking_60.prm

>  <SCORE>
-15.6866

>  <SCORE.INTER>
-20.709

>  <SCORE.INTER.CONST>
1

>  <SCORE.INTER.POLAR>
0

>  <SCORE.INTER.ROT>
7

>  <SCORE.INTER.SOLV>
10.6114

>  <SCORE.INTER.VDW>
-25.6098

>  <SCORE.INTER.norm>
-0.668032

>  <SCORE.INTRA>
5.0224

>  <SCORE.INTRA.DIHEDRAL>
2.55239

>  <SCORE.INTRA.DIHEDRAL.0>
4.64198

>  <SCORE.INTRA.POLAR>
0

>  <SCORE.INTRA.POLAR.0>
0

>  <SCORE.INTRA.REPUL>
0

>  <SCORE.INTRA.REPUL.0>
0

>  <SCORE.INTRA.SOLV>
3.42378

>  <SCORE.INTRA.SOLV.lig_0>
-49.3611

>  <SCORE.INTRA.VDW>
2.03431

>  <SCORE.INTRA.VDW.0>
-1.91858

>  <SCORE.INTRA.norm>
0.162013

>  <SCORE.RESTR>
0

>  <SCORE.RESTR.CAVITY>
0

>  <SCORE.RESTR.norm>
0

>  <SCORE.SYSTEM>
0

>  <SCORE.SYSTEM.CONST>
0

>  <SCORE.SYSTEM.DIHEDRAL>
0

>  <SCORE.SYSTEM.SOLV>
0

>  <SCORE.SYSTEM.norm>
0

>  <SCORE.heavy>
31

>  <SCORE.norm>
-0.506019

>  <RMSD>
5.851

$$$$
ligand
 OpenBabel11021811473D
libRbt.so/2013.1/901 2013/11/27
 31 33  0  0  0  0  0  0  0  0999 V2000
   33.3918   34.5152   14.5550 P   0  0  1  0  0  0  0  0  0  0  0  0
   34.8860   34.4231   14.3758 O   0  0  0  0  0  0  0  0  0  0  0  0
   32.7814   35.0089   13.2702 O   0  5  0  0  0  0  0  0  0  0  0  0
   32.9173   33.1343   14.9156 O   0  0  0  0  0  0  0  0  0  0  0  0
   31.6093   35.8957   15.8920 C   0  0  0  0  0  0  0  0  0  0  0  0
   32.9622   35.5250   15.7272 O   0  0  0  0  0  0  0  0  0  0  0  0
   31.4555   36.6671   17.2002 C   0  0  1  0  0  0  0  0  0  0  0  0
   32.1845   37.8764   17.1299 O   0  0  0  0  0  0  0  0  0  0  0  0
   29.9905   36.9862   17.4464 C   0  0  1  0  0  0  0  0  0  0  0  0
   29.2489   35.8041   17.3049 O   0  0  0  0  0  0  0  0  0  0  0  0
   29.7416   37.5599   18.8312 C   0  0  1  0  0  0  0  0  0  0  0  0
   30.3974   38.7960   18.9196 O   0  0  0  0  0  0  0  0  0  0  0  0
   28.2555   37.7634   19.0753 C   0  0  0  0  0  0  0  0  0  0  0  0
   27.7677   35.5119   20.6918 N   0  0  0  0  0  0  0  0  0  0  0  0
   27.4773   34.3840   21.4282 C   0  0  0  0  0  0  0  0  0  0  0  0
   27.5333   33.2752   20.9045 O   0  0  0  0  0  0  0  0  0  0  0  0
   27.1204   34.4888   22.7533 N   0  0  0  0  0  0  0  0  0  0  0  0
   27.0612   35.7276   23.3611 C   0  0  0  0  0  0  0  0  0  0  0  0
   27.3518   36.8714   22.6258 C   0  0  1  0  0  0  0  0  0  0  0  0
   26.7594   35.8145   24.5531 O   0  0  0  0  0  0  0  0  0  0  0  0
   27.5839   39.2480   22.4941 C   0  0  2  0  0  0  0  0  0  0  0  0
   27.2928   38.1129   23.2265 N   0  0  0  0  0  0  0  0  0  0  0  0
   27.5238   40.5023   23.1025 C   0  0  0  0  0  0  0  0  0  0  0  0
   27.8095   41.6508   22.3737 C   0  0  1  0  0  0  0  0  0  0  0  0
   27.7314   42.9787   23.0582 C   0  0  0  0  0  0  0  0  0  0  0  0
   28.1652   41.5470   21.0204 C   0  0  1  0  0  0  0  0  0  0  0  0
   28.4907   42.7642   20.1990 C   0  0  0  0  0  0  0  0  0  0  0  0
   28.2227   40.2941   20.4157 C   0  0  0  0  0  0  0  0  0  0  0  0
   27.9318   39.1401   21.1456 C   0  0  1  0  0  0  0  0  0  0  0  0
   27.7029   36.7579   21.2821 C   0  0  1  0  0  0  0  0  0  0  0  0
   27.9863   37.8915   20.5445 N   0  0  0  0  0  0  0  0  0  0  0  0
  1  2  1  6  0  0  0
  1  3  1  0  0  0  0
  1  4  2  0  0  0  0
  1  6  1  0  0  0  0
  5  6  1  0  0  0  0
  7  5  1  6  0  0  0
  7  8  1  0  0  0  0
  7  9  1  0  0  0  0
  9 10  1  1  0  0  0
  9 11  1  0  0  0  0
 11 12  1  6  0  0  0
 11 13  1  0  0  0  0
 13 31  1  0  0  0  0
 14 15  1  0  0  0  0
 15 16  2  0  0  0  0
 15 17  1  0  0  0  0
 17 18  1  0  0  0  0
 18 20  2  0  0  0  0
 19 18  1  1  0  0  0
 19 22  1  0  0  0  0
 19 30  1  0  0  0  0
 21 23  1  6  0  0  0
 21 29  1  0  0  0  0
 21 22  1  0  0  0  0
 23 24  1  0  0  0  0
 24 25  1  1  0  0  0
 24 26  1  0  0  0  0
 26 27  1  1  0  0  0
 26 28  1  0  0  0  0
 29 28  1  1  0  0  0
 29 31  1  0  0  0  0
 30 14  1  1  0  0  0
 30 31  1  0  0  0  0
M  CHG  1   3  -1
M  END
>  <CHROM.1>
170.78413734,169.86706550,64.23704513,50.47324386,64.57190745,161.55943005
93.78269494,29.55502969,37.11113023,19.31006428,-0.46679580,0.92186638,0.06415159

>  <Name>
ligand

>  <RI>
0

>  <Rbt.Current_Directory>
/home/itssahil/PROJECTS/Mol_Feturizer/New_Systems/rnas/3F2T

>  <Rbt.Executable>
rbdock ($Id: //depot/dev/client3/rdock/2013.1/src/exe/rbdock.cxx#4 $)

>  <Rbt.Library>
libRbt.so (2013.1, Build901 2013/11/27)

>  <Rbt.Parameter_File>
/export/apps/rDock/src/rDock_2013.1_src/data/scripts/dock_solv.prm

>  <Rbt.Receptor>
prm/pocket_docking_8.prm

>  <SCORE>
-25.4682

>  <SCORE.INTER>
-25.3162

>  <SCORE.INTER.CONST>
1

>  <SCORE.INTER.POLAR>
0

>  <SCORE.INTER.ROT>
7

>  <SCORE.INTER.SOLV>
13.3595

>  <SCORE.INTER.VDW>
-29.5973

>  <SCORE.INTER.norm>
-0.816652

>  <SCORE.INTRA>
-0.151929

>  <SCORE.INTRA.DIHEDRAL>
-1.09803

>  <SCORE.INTRA.DIHEDRAL.0>
4.64198

>  <SCORE.INTRA.POLAR>
0

>  <SCORE.INTRA.POLAR.0>
0

>  <SCORE.INTRA.REPUL>
0

>  <SCORE.INTRA.REPUL.0>
0

>  <SCORE.INTRA.SOLV>
-0.0991759

>  <SCORE.INTRA.SOLV.lig_0>
-49.3611

>  <SCORE.INTRA.VDW>
0.446676

>  <SCORE.INTRA.VDW.0>
-1.91858

>  <SCORE.INTRA.norm>
-0.00490092

>  <SCORE.RESTR>
0

>  <SCORE.RESTR.CAVITY>
0

>  <SCORE.RESTR.norm>
0

>  <SCORE.SYSTEM>
0

>  <SCORE.SYSTEM.CONST>
0

>  <SCORE.SYSTEM.DIHEDRAL>
0

>  <SCORE.SYSTEM.SOLV>
0

>  <SCORE.SYSTEM.norm>
0

>  <SCORE.heavy>
31

>  <SCORE.norm>
-0.821553

>  <RMSD>
5.862

$$$$
ligand
 OpenBabel11021811473D
libRbt.so/2013.1/901 2013/11/27
 31 33  0  0  0  0  0  0  0  0999 V2000
   29.6448   42.9583   24.6715 P   0  0  1  0  0  0  0  0  0  0  0  0
   31.0521   43.3034   24.2549 O   0  0  0  0  0  0  0  0  0  0  0  0
   29.5242   41.4607   24.7686 O   0  5  0  0  0  0  0  0  0  0  0  0
   29.4114   43.6341   25.9947 O   0  0  0  0  0  0  0  0  0  0  0  0
   28.8255   43.5336   22.2490 C   0  0  0  0  0  0  0  0  0  0  0  0
   28.5378   43.4776   23.6307 O   0  0  0  0  0  0  0  0  0  0  0  0
   28.8754   42.1146   21.6884 C   0  0  1  0  0  0  0  0  0  0  0  0
   29.9799   41.4233   22.2369 O   0  0  0  0  0  0  0  0  0  0  0  0
   27.5996   41.3700   22.0440 C   0  0  1  0  0  0  0  0  0  0  0  0
   26.5044   42.1575   21.6597 O   0  0  0  0  0  0  0  0  0  0  0  0
   27.4995   40.0193   21.3553 C   0  0  1  0  0  0  0  0  0  0  0  0
   27.4851   40.2322   19.9695 O   0  0  0  0  0  0  0  0  0  0  0  0
   28.6847   39.1382   21.7138 C   0  0  0  0  0  0  0  0  0  0  0  0
   27.3255   37.3369   23.3955 N   0  0  0  0  0  0  0  0  0  0  0  0
   26.7075   36.4782   24.2784 C   0  0  0  0  0  0  0  0  0  0  0  0
   26.2930   36.8959   25.3557 O   0  0  0  0  0  0  0  0  0  0  0  0
   26.5511   35.1476   23.9637 N   0  0  0  0  0  0  0  0  0  0  0  0
   27.0031   34.6624   22.7520 C   0  0  0  0  0  0  0  0  0  0  0  0
   27.6287   35.5211   21.8551 C   0  0  1  0  0  0  0  0  0  0  0  0
   26.8437   33.4737   22.4670 O   0  0  0  0  0  0  0  0  0  0  0  0
   28.7043   35.8982   19.7526 C   0  0  2  0  0  0  0  0  0  0  0  0
   28.0845   35.0425   20.6432 N   0  0  0  0  0  0  0  0  0  0  0  0
   29.1647   35.4131   18.5281 C   0  0  0  0  0  0  0  0  0  0  0  0
   29.7940   36.2642   17.6272 C   0  0  1  0  0  0  0  0  0  0  0  0
   30.2779   35.7081   16.3254 C   0  0  0  0  0  0  0  0  0  0  0  0
   29.9622   37.6193   17.9498 C   0  0  1  0  0  0  0  0  0  0  0  0
   30.6296   38.5752   16.9994 C   0  0  0  0  0  0  0  0  0  0  0  0
   29.5032   38.1001   19.1732 C   0  0  0  0  0  0  0  0  0  0  0  0
   28.8747   37.2453   20.0806 C   0  0  1  0  0  0  0  0  0  0  0  0
   27.7920   36.8650   22.1851 C   0  0  1  0  0  0  0  0  0  0  0  0
   28.4189   37.7218   21.3006 N   0  0  0  0  0  0  0  0  0  0  0  0
  1  2  1  6  0  0  0
  1  3  1  0  0  0  0
  1  4  2  0  0  0  0
  1  6  1  0  0  0  0
  5  6  1  0  0  0  0
  7  5  1  1  0  0  0
  7  8  1  0  0  0  0
  7  9  1  0  0  0  0
  9 10  1  6  0  0  0
  9 11  1  0  0  0  0
 11 12  1  6  0  0  0
 11 13  1  0  0  0  0
 13 31  1  0  0  0  0
 14 15  1  0  0  0  0
 15 16  2  0  0  0  0
 15 17  1  0  0  0  0
 17 18  1  0  0  0  0
 18 20  2  0  0  0  0
 19 18  1  6  0  0  0
 19 22  1  0  0  0  0
 19 30  1  0  0  0  0
 21 23  1  1  0  0  0
 21 29  1  0  0  0  0
 21 22  1  0  0  0  0
 23 24  1  0  0  0  0
 24 25  1  6  0  0  0
 24 26  1  0  0  0  0
 26 27  1  6  0  0  0
 26 28  1  0  0  0  0
 29 28  1  6  0  0  0
 29 31  1  0  0  0  0
 30 14  1  6  0  0  0
 30 31  1  0  0  0  0
M  CHG  1   3  -1
M  END
>  <CHROM.1>
71.98232158,32.81298822,-66.74478966,51.48452284,-61.52854641,166.71840876
95.16115676,28.54130486,38.99060845,21.85614922,1.36891027,1.12289991,0.68963339

>  <Name>
ligand

>  <RI>
0

>  <Rbt.Current_Directory>
/home/itssahil/PROJECTS/Mol_Feturizer/New_Systems/rnas/3F2T

>  <Rbt.Executable>
rbdock ($Id: //depot/dev/client3/rdock/2013.1/src/exe/rbdock.cxx#4 $)

>  <Rbt.Library>
libRbt.so (2013.1, Build901 2013/11/27)

>  <Rbt.Parameter_File>
/export/apps/rDock/src/rDock_2013.1_src/data/scripts/dock_solv.prm

>  <Rbt.Receptor>
prm/blind_docking_100.prm

>  <SCORE>
-26.2637

>  <SCORE.INTER>
-29.4667

>  <SCORE.INTER.CONST>
1

>  <SCORE.INTER.POLAR>
0

>  <SCORE.INTER.ROT>
7

>  <SCORE.INTER.SOLV>
18.4738

>  <SCORE.INTER.VDW>
-34.0691

>  <SCORE.INTER.norm>
-0.950539

>  <SCORE.INTRA>
3.203

>  <SCORE.INTRA.DIHEDRAL>
-0.5026

>  <SCORE.INTRA.DIHEDRAL.0>
4.64198

>  <SCORE.INTRA.POLAR>
0

>  <SCORE.INTRA.POLAR.0>
0

>  <SCORE.INTRA.REPUL>
0

>  <SCORE.INTRA.REPUL.0>
0

>  <SCORE.INTRA.SOLV>
3.71776

>  <SCORE.INTRA.SOLV.lig_0>
-49.3611

>  <SCORE.INTRA.VDW>
1.59542

>  <SCORE.INTRA.VDW.0>
-1.91858

>  <SCORE.INTRA.norm>
0.103323

>  <SCORE.RESTR>
0

>  <SCORE.RESTR.CAVITY>
0

>  <SCORE.RESTR.norm>
0

>  <SCORE.SYSTEM>
0

>  <SCORE.SYSTEM.CONST>
0

>  <SCORE.SYSTEM.DIHEDRAL>
0

>  <SCORE.SYSTEM.SOLV>
0

>  <SCORE.SYSTEM.norm>
0

>  <SCORE.heavy>
31

>  <SCORE.norm>
-0.847216

>  <RMSD>
5.865

$$$$
ligand
 OpenBabel11021811473D
libRbt.so/2013.1/901 2013/11/27
 31 33  0  0  0  0  0  0  0  0999 V2000
   29.3713   36.6462   15.6719 P   0  0  1  0  0  0  0  0  0  0  0  0
   29.2759   36.1289   14.2590 O   0  0  0  0  0  0  0  0  0  0  0  0
   27.9886   37.0032   16.1491 O   0  5  0  0  0  0  0  0  0  0  0  0
   29.9884   35.5458   16.4907 O   0  0  0  0  0  0  0  0  0  0  0  0
   29.9584   38.9786   16.7138 C   0  0  0  0  0  0  0  0  0  0  0  0
   30.2922   37.9554   15.7993 O   0  0  0  0  0  0  0  0  0  0  0  0
   29.8318   38.3807   18.1126 C   0  0  1  0  0  0  0  0  0  0  0  0
   30.9904   37.6301   18.4176 O   0  0  0  0  0  0  0  0  0  0  0  0
   29.6760   39.4895   19.1397 C   0  0  1  0  0  0  0  0  0  0  0  0
   28.6873   40.3763   18.6889 O   0  0  0  0  0  0  0  0  0  0  0  0
   29.2790   38.9659   20.5097 C   0  0  1  0  0  0  0  0  0  0  0  0
   29.5268   39.9724   21.4540 O   0  0  0  0  0  0  0  0  0  0  0  0
   27.8045   38.5995   20.5443 C   0  0  0  0  0  0  0  0  0  0  0  0
   27.3122   39.8365   23.0237 N   0  0  0  0  0  0  0  0  0  0  0  0
   27.1358   40.4869   24.2257 C   0  0  0  0  0  0  0  0  0  0  0  0
   27.1338   41.7137   24.2676 O   0  0  0  0  0  0  0  0  0  0  0  0
   26.9632   39.7703   25.3879 N   0  0  0  0  0  0  0  0  0  0  0  0
   26.9535   38.3894   25.3579 C   0  0  0  0  0  0  0  0  0  0  0  0
   27.1314   37.7244   24.1498 C   0  0  1  0  0  0  0  0  0  0  0  0
   26.7797   37.7524   26.3989 O   0  0  0  0  0  0  0  0  0  0  0  0
   27.2999   35.6858   22.9108 C   0  0  2  0  0  0  0  0  0  0  0  0
   27.1248   36.3445   24.1129 N   0  0  0  0  0  0  0  0  0  0  0  0
   27.2931   34.2910   22.8748 C   0  0  0  0  0  0  0  0  0  0  0  0
   27.4735   33.6185   21.6719 C   0  0  1  0  0  0  0  0  0  0  0  0
   27.4639   32.1226   21.6721 C   0  0  0  0  0  0  0  0  0  0  0  0
   27.6584   34.3471   20.4871 C   0  0  1  0  0  0  0  0  0  0  0  0
   27.8479   33.6581   19.1636 C   0  0  0  0  0  0  0  0  0  0  0  0
   27.6664   35.7389   20.5265 C   0  0  0  0  0  0  0  0  0  0  0  0
   27.4894   36.4154   21.7347 C   0  0  1  0  0  0  0  0  0  0  0  0
   27.3154   38.4569   22.9788 C   0  0  1  0  0  0  0  0  0  0  0  0
   27.4994   37.8016   21.7763 N   0  0  0  0  0  0  0  0  0  0  0  0
  1  2  1  6  0  0  0
  1  3  1  0  0  0  0
  1  4  2  0  0  0  0
  1  6  1  0  0  0  0
  5  6  1  0  0  0  0
  7  5  1  6  0  0  0
  7  8  1  0  0  0  0
  7  9  1  0  0  0  0
  9 10  1  6  0  0  0
  9 11  1  0  0  0  0
 11 12  1  1  0  0  0
 11 13  1  0  0  0  0
 13 31  1  0  0  0  0
 14 15  1  0  0  0  0
 15 16  2  0  0  0  0
 15 17  1  0  0  0  0
 17 18  1  0  0  0  0
 18 20  2  0  0  0  0
 19 18  1  6  0  0  0
 19 22  1  0  0  0  0
 19 30  1  0  0  0  0
 21 23  1  1  0  0  0
 21 29  1  0  0  0  0
 21 22  1  0  0  0  0
 23 24  1  0  0  0  0
 24 25  1  6  0  0  0
 24 26  1  0  0  0  0
 26 27  1  6  0  0  0
 26 28  1  0  0  0  0
 29 28  1  6  0  0  0
 29 31  1  0  0  0  0
 30 14  1  6  0  0  0
 30 31  1  0  0  0  0
M  CHG  1   3  -1
M  END
>  <CHROM.1>
55.51533857,144.06147138,51.79250234,48.38730555,163.47983465,167.02920810
-95.10992422,28.30178050,37.42664879,20.45803831,-0.60954791,1.22745031,0.45315169

>  <Name>
ligand

>  <RI>
0

>  <Rbt.Current_Directory>
/home/itssahil/PROJECTS/Mol_Feturizer/New_Systems/rnas/3F2T

>  <Rbt.Executable>
rbdock ($Id: //depot/dev/client3/rdock/2013.1/src/exe/rbdock.cxx#4 $)

>  <Rbt.Library>
libRbt.so (2013.1, Build901 2013/11/27)

>  <Rbt.Parameter_File>
/export/apps/rDock/src/rDock_2013.1_src/data/scripts/dock_solv.prm

>  <Rbt.Receptor>
prm/pocket_docking_6.prm

>  <SCORE>
-21.3966

>  <SCORE.INTER>
-24.4728

>  <SCORE.INTER.CONST>
1

>  <SCORE.INTER.POLAR>
0

>  <SCORE.INTER.ROT>
7

>  <SCORE.INTER.SOLV>
11.5023

>  <SCORE.INTER.VDW>
-28.416

>  <SCORE.INTER.norm>
-0.789444

>  <SCORE.INTRA>
3.07621

>  <SCORE.INTRA.DIHEDRAL>
0.404818

>  <SCORE.INTRA.DIHEDRAL.0>
4.64198

>  <SCORE.INTRA.POLAR>
0

>  <SCORE.INTRA.POLAR.0>
0

>  <SCORE.INTRA.REPUL>
0

>  <SCORE.INTRA.REPUL.0>
0

>  <SCORE.INTRA.SOLV>
3.99701

>  <SCORE.INTRA.SOLV.lig_0>
-49.3611

>  <SCORE.INTRA.VDW>
0.875292

>  <SCORE.INTRA.VDW.0>
-1.91858

>  <SCORE.INTRA.norm>
0.0992324

>  <SCORE.RESTR>
0

>  <SCORE.RESTR.CAVITY>
0

>  <SCORE.RESTR.norm>
0

>  <SCORE.SYSTEM>
0

>  <SCORE.SYSTEM.CONST>
0

>  <SCORE.SYSTEM.DIHEDRAL>
0

>  <SCORE.SYSTEM.SOLV>
0

>  <SCORE.SYSTEM.norm>
0

>  <SCORE.heavy>
31

>  <SCORE.norm>
-0.690211

>  <RMSD>
5.869

$$$$
ligand
 OpenBabel11021811473D
libRbt.so/2013.1/901 2013/11/27
 31 33  0  0  0  0  0  0  0  0999 V2000
   26.4152   43.1032   16.7000 P   0  0  1  0  0  0  0  0  0  0  0  0
   26.7306   42.2650   15.4871 O   0  0  0  0  0  0  0  0  0  0  0  0
   27.5802   44.0180   16.9702 O   0  5  0  0  0  0  0  0  0  0  0  0
   25.1578   43.8639   16.3803 O   0  0  0  0  0  0  0  0  0  0  0  0
   25.3780   42.7367   19.0792 C   0  0  0  0  0  0  0  0  0  0  0  0
   26.1591   42.2249   18.0196 O   0  0  0  0  0  0  0  0  0  0  0  0
   25.2469   41.6729   20.1660 C   0  0  1  0  0  0  0  0  0  0  0  0
   25.1870   40.3905   19.5741 O   0  0  0  0  0  0  0  0  0  0  0  0
   26.4453   41.7319   21.0983 C   0  0  1  0  0  0  0  0  0  0  0  0
   26.0131   41.4239   22.3966 O   0  0  0  0  0  0  0  0  0  0  0  0
   27.5431   40.7590   20.7019 C   0  0  1  0  0  0  0  0  0  0  0  0
   28.1075   41.2002   19.4965 O   0  0  0  0  0  0  0  0  0  0  0  0
   28.6246   40.6974   21.7677 C   0  0  0  0  0  0  0  0  0  0  0  0
   28.2460   41.8383   24.3123 N   0  0  0  0  0  0  0  0  0  0  0  0
   28.1320   42.4314   25.5509 C   0  0  0  0  0  0  0  0  0  0  0  0
   28.3221   43.6376   25.6760 O   0  0  0  0  0  0  0  0  0  0  0  0
   27.8072   41.6798   26.6570 N   0  0  0  0  0  0  0  0  0  0  0  0
   27.5808   40.3229   26.5331 C   0  0  0  0  0  0  0  0  0  0  0  0
   27.6942   39.7156   25.2875 C   0  0  1  0  0  0  0  0  0  0  0  0
   27.2717   39.6575   27.5237 O   0  0  0  0  0  0  0  0  0  0  0  0
   27.5827   37.7585   23.9174 C   0  0  2  0  0  0  0  0  0  0  0  0
   27.4711   38.3595   25.1567 N   0  0  0  0  0  0  0  0  0  0  0  0
   27.3571   36.3878   23.7867 C   0  0  0  0  0  0  0  0  0  0  0  0
   27.4717   35.7723   22.5457 C   0  0  1  0  0  0  0  0  0  0  0  0
   27.2260   34.3001   22.4441 C   0  0  0  0  0  0  0  0  0  0  0  0
   27.8112   36.5352   21.4182 C   0  0  1  0  0  0  0  0  0  0  0  0
   27.9364   35.9096   20.0561 C   0  0  0  0  0  0  0  0  0  0  0  0
   28.0374   37.9025   21.5522 C   0  0  0  0  0  0  0  0  0  0  0  0
   27.9266   38.5211   22.7988 C   0  0  1  0  0  0  0  0  0  0  0  0
   28.0330   40.4816   24.1739 C   0  0  1  0  0  0  0  0  0  0  0  0
   28.1538   39.8824   22.9347 N   0  0  0  0  0  0  0  0  0  0  0  0
  1  2  1  6  0  0  0
  1  3  1  0  0  0  0
  1  4  2  0  0  0  0
  1  6  1  0  0  0  0
  5  6  1  0  0  0  0
  7  5  1  6  0  0  0
  7  8  1  0  0  0  0
  7  9  1  0  0  0  0
  9 10  1  1  0  0  0
  9 11  1  0  0  0  0
 11 12  1  6  0  0  0
 11 13  1  0  0  0  0
 13 31  1  0  0  0  0
 14 15  1  0  0  0  0
 15 16  2  0  0  0  0
 15 17  1  0  0  0  0
 17 18  1  0  0  0  0
 18 20  2  0  0  0  0
 19 18  1  6  0  0  0
 19 22  1  0  0  0  0
 19 30  1  0  0  0  0
 21 23  1  1  0  0  0
 21 29  1  0  0  0  0
 21 22  1  0  0  0  0
 23 24  1  0  0  0  0
 24 25  1  6  0  0  0
 24 26  1  0  0  0  0
 26 27  1  6  0  0  0
 26 28  1  0  0  0  0
 29 28  1  6  0  0  0
 29 31  1  0  0  0  0
 30 14  1  6  0  0  0
 30 31  1  0  0  0  0
M  CHG  1   3  -1
M  END
>  <CHROM.1>
177.35289272,-155.60215728,-34.72305503,145.01734411,68.69226227,76.48519863
66.61932239,27.17848642,40.45650624,21.59585047,-3.05444483,1.40648800,-2.77137723

>  <Name>
ligand

>  <RI>
0

>  <Rbt.Current_Directory>
/home/itssahil/PROJECTS/Mol_Feturizer/New_Systems/rnas/3F2T

>  <Rbt.Executable>
rbdock ($Id: //depot/dev/client3/rdock/2013.1/src/exe/rbdock.cxx#4 $)

>  <Rbt.Library>
libRbt.so (2013.1, Build901 2013/11/27)

>  <Rbt.Parameter_File>
/export/apps/rDock/src/rDock_2013.1_src/data/scripts/dock_solv.prm

>  <Rbt.Receptor>
prm/pocket_docking_5.prm

>  <SCORE>
-23.4333

>  <SCORE.INTER>
-26.4282

>  <SCORE.INTER.CONST>
1

>  <SCORE.INTER.POLAR>
0

>  <SCORE.INTER.ROT>
7

>  <SCORE.INTER.SOLV>
17.8413

>  <SCORE.INTER.VDW>
-31.8326

>  <SCORE.INTER.norm>
-0.852524

>  <SCORE.INTRA>
2.99494

>  <SCORE.INTRA.DIHEDRAL>
4.02701

>  <SCORE.INTRA.DIHEDRAL.0>
4.64198

>  <SCORE.INTRA.POLAR>
0

>  <SCORE.INTRA.POLAR.0>
0

>  <SCORE.INTRA.REPUL>
0

>  <SCORE.INTRA.REPUL.0>
0

>  <SCORE.INTRA.SOLV>
1.26177

>  <SCORE.INTRA.SOLV.lig_0>
-49.3611

>  <SCORE.INTRA.VDW>
0.350547

>  <SCORE.INTRA.VDW.0>
-1.91858

>  <SCORE.INTRA.norm>
0.096611

>  <SCORE.RESTR>
0

>  <SCORE.RESTR.CAVITY>
0

>  <SCORE.RESTR.norm>
0

>  <SCORE.SYSTEM>
0

>  <SCORE.SYSTEM.CONST>
0

>  <SCORE.SYSTEM.DIHEDRAL>
0

>  <SCORE.SYSTEM.SOLV>
0

>  <SCORE.SYSTEM.norm>
0

>  <SCORE.heavy>
31

>  <SCORE.norm>
-0.755913

>  <RMSD>
5.876

$$$$
ligand
 OpenBabel11021811473D
libRbt.so/2013.1/901 2013/11/27
 31 33  0  0  0  0  0  0  0  0999 V2000
   25.9464   42.3810   23.6109 P   0  0  1  0  0  0  0  0  0  0  0  0
   24.8492   42.9125   22.7237 O   0  0  0  0  0  0  0  0  0  0  0  0
   27.0986   43.3499   23.5860 O   0  5  0  0  0  0  0  0  0  0  0  0
   25.3542   42.2376   24.9859 O   0  0  0  0  0  0  0  0  0  0  0  0
   27.6446   40.3885   23.7394 C   0  0  0  0  0  0  0  0  0  0  0  0
   26.4948   40.9475   23.1391 O   0  0  0  0  0  0  0  0  0  0  0  0
   27.9393   39.0355   23.0971 C   0  0  1  0  0  0  0  0  0  0  0  0
   26.9559   38.0976   23.4871 O   0  0  0  0  0  0  0  0  0  0  0  0
   27.9266   39.1650   21.5832 C   0  0  1  0  0  0  0  0  0  0  0  0
   28.7963   40.2035   21.2193 O   0  0  0  0  0  0  0  0  0  0  0  0
   28.3645   37.8893   20.8835 C   0  0  1  0  0  0  0  0  0  0  0  0
   27.5273   36.8467   21.3054 O   0  0  0  0  0  0  0  0  0  0  0  0
   28.2605   38.0349   19.3743 C   0  0  0  0  0  0  0  0  0  0  0  0
   30.9495   37.8066   18.5762 N   0  0  0  0  0  0  0  0  0  0  0  0
   32.2602   37.7672   18.1527 C   0  0  0  0  0  0  0  0  0  0  0  0
   33.0194   38.6963   18.4119 O   0  0  0  0  0  0  0  0  0  0  0  0
   32.7294   36.6906   17.4352 N   0  0  0  0  0  0  0  0  0  0  0  0
   31.8916   35.6322   17.1426 C   0  0  0  0  0  0  0  0  0  0  0  0
   30.5673   35.6635   17.5651 C   0  0  1  0  0  0  0  0  0  0  0  0
   32.3218   34.6617   16.5159 O   0  0  0  0  0  0  0  0  0  0  0  0
   28.4086   34.6425   17.6970 C   0  0  2  0  0  0  0  0  0  0  0  0
   29.7239   34.6100   17.2744 N   0  0  0  0  0  0  0  0  0  0  0  0
   27.5572   33.5771   17.4025 C   0  0  0  0  0  0  0  0  0  0  0  0
   26.2312   33.6020   17.8183 C   0  0  1  0  0  0  0  0  0  0  0  0
   25.3466   32.4436   17.4812 C   0  0  0  0  0  0  0  0  0  0  0  0
   25.7484   34.7026   18.5424 C   0  0  1  0  0  0  0  0  0  0  0  0
   24.3230   34.7645   19.0185 C   0  0  0  0  0  0  0  0  0  0  0  0
   26.6001   35.7650   18.8333 C   0  0  0  0  0  0  0  0  0  0  0  0
   27.9310   35.7430   18.4126 C   0  0  1  0  0  0  0  0  0  0  0  0
   30.0971   36.7615   18.2827 C   0  0  1  0  0  0  0  0  0  0  0  0
   28.7802   36.8012   18.6994 N   0  0  0  0  0  0  0  0  0  0  0  0
  1  2  1  6  0  0  0
  1  3  1  0  0  0  0
  1  4  2  0  0  0  0
  1  6  1  0  0  0  0
  5  6  1  0  0  0  0
  7  5  1  1  0  0  0
  7  8  1  0  0  0  0
  7  9  1  0  0  0  0
  9 10  1  1  0  0  0
  9 11  1  0  0  0  0
 11 12  1  1  0  0  0
 11 13  1  0  0  0  0
 13 31  1  0  0  0  0
 14 15  1  0  0  0  0
 15 16  2  0  0  0  0
 15 17  1  0  0  0  0
 17 18  1  0  0  0  0
 18 20  2  0  0  0  0
 19 18  1  1  0  0  0
 19 22  1  0  0  0  0
 19 30  1  0  0  0  0
 21 23  1  6  0  0  0
 21 29  1  0  0  0  0
 21 22  1  0  0  0  0
 23 24  1  0  0  0  0
 24 25  1  1  0  0  0
 24 26  1  0  0  0  0
 26 27  1  1  0  0  0
 26 28  1  0  0  0  0
 29 28  1  1  0  0  0
 29 31  1  0  0  0  0
 30 14  1  1  0  0  0
 30 31  1  0  0  0  0
M  CHG  1   3  -1
M  END
>  <CHROM.1>
-179.72421990,171.09755744,-70.44009040,53.06053651,56.87619231,176.31857385
89.91977790,28.17798238,37.82295345,20.14950338,1.93371145,0.33305268,0.60980874

>  <Name>
ligand

>  <RI>
0

>  <Rbt.Current_Directory>
/home/itssahil/PROJECTS/Mol_Feturizer/New_Systems/rnas/3F2T

>  <Rbt.Executable>
rbdock ($Id: //depot/dev/client3/rdock/2013.1/src/exe/rbdock.cxx#4 $)

>  <Rbt.Library>
libRbt.so (2013.1, Build901 2013/11/27)

>  <Rbt.Parameter_File>
/export/apps/rDock/src/rDock_2013.1_src/data/scripts/dock_solv.prm

>  <Rbt.Receptor>
prm/blind_docking_60.prm

>  <SCORE>
-14.0331

>  <SCORE.INTER>
-13.6985

>  <SCORE.INTER.CONST>
1

>  <SCORE.INTER.POLAR>
0

>  <SCORE.INTER.ROT>
7

>  <SCORE.INTER.SOLV>
18.6658

>  <SCORE.INTER.VDW>
-23.6209

>  <SCORE.INTER.norm>
-0.441886

>  <SCORE.INTRA>
-0.33466

>  <SCORE.INTRA.DIHEDRAL>
-2.5068

>  <SCORE.INTRA.DIHEDRAL.0>
4.64198

>  <SCORE.INTRA.POLAR>
0

>  <SCORE.INTRA.POLAR.0>
0

>  <SCORE.INTRA.REPUL>
0

>  <SCORE.INTRA.REPUL.0>
0

>  <SCORE.INTRA.SOLV>
0.457938

>  <SCORE.INTRA.SOLV.lig_0>
-49.3611

>  <SCORE.INTRA.VDW>
0.689773

>  <SCORE.INTRA.VDW.0>
-1.91858

>  <SCORE.INTRA.norm>
-0.0107955

>  <SCORE.RESTR>
0

>  <SCORE.RESTR.CAVITY>
0

>  <SCORE.RESTR.norm>
0

>  <SCORE.SYSTEM>
0

>  <SCORE.SYSTEM.CONST>
0

>  <SCORE.SYSTEM.DIHEDRAL>
0

>  <SCORE.SYSTEM.SOLV>
0

>  <SCORE.SYSTEM.norm>
0

>  <SCORE.heavy>
31

>  <SCORE.norm>
-0.452681

>  <RMSD>
5.882

$$$$
ligand
 OpenBabel11021811473D
libRbt.so/2013.1/901 2013/11/27
 31 33  0  0  0  0  0  0  0  0999 V2000
   25.7426   43.5514   16.2982 P   0  0  1  0  0  0  0  0  0  0  0  0
   26.6282   42.6973   15.4267 O   0  0  0  0  0  0  0  0  0  0  0  0
   26.4339   44.8656   16.5470 O   0  5  0  0  0  0  0  0  0  0  0  0
   24.4466   43.7230   15.5547 O   0  0  0  0  0  0  0  0  0  0  0  0
   26.4684   42.6568   18.6526 C   0  0  0  0  0  0  0  0  0  0  0  0
   25.4292   42.8795   17.7225 O   0  0  0  0  0  0  0  0  0  0  0  0
   25.8746   42.1090   19.9478 C   0  0  1  0  0  0  0  0  0  0  0  0
   25.3131   40.8329   19.7133 O   0  0  0  0  0  0  0  0  0  0  0  0
   26.9586   41.9858   21.0053 C   0  0  1  0  0  0  0  0  0  0  0  0
   26.3430   41.8204   22.2547 O   0  0  0  0  0  0  0  0  0  0  0  0
   27.8881   40.8100   20.7558 C   0  0  1  0  0  0  0  0  0  0  0  0
   28.5482   41.0222   19.5371 O   0  0  0  0  0  0  0  0  0  0  0  0
   28.9170   40.6861   21.8672 C   0  0  0  0  0  0  0  0  0  0  0  0
   28.5112   41.8489   24.3977 N   0  0  0  0  0  0  0  0  0  0  0  0
   28.3862   42.4480   25.6323 C   0  0  0  0  0  0  0  0  0  0  0  0
   28.6484   43.6395   25.7680 O   0  0  0  0  0  0  0  0  0  0  0  0
   27.9699   41.7189   26.7227 N   0  0  0  0  0  0  0  0  0  0  0  0
   27.6618   40.3793   26.5862 C   0  0  0  0  0  0  0  0  0  0  0  0
   27.7857   39.7660   25.3445 C   0  0  1  0  0  0  0  0  0  0  0  0
   27.2713   39.7352   27.5620 O   0  0  0  0  0  0  0  0  0  0  0  0
   27.6034   37.8202   23.9660 C   0  0  2  0  0  0  0  0  0  0  0  0
   27.4813   38.4271   25.2015 N   0  0  0  0  0  0  0  0  0  0  0  0
   27.2955   36.4669   23.8228 C   0  0  0  0  0  0  0  0  0  0  0  0
   27.4198   35.8454   22.5858 C   0  0  1  0  0  0  0  0  0  0  0  0
   27.0843   34.3920   22.4707 C   0  0  0  0  0  0  0  0  0  0  0  0
   27.8524   36.5849   21.4747 C   0  0  1  0  0  0  0  0  0  0  0  0
   27.9915   35.9526   20.1171 C   0  0  0  0  0  0  0  0  0  0  0  0
   28.1605   37.9348   21.6211 C   0  0  0  0  0  0  0  0  0  0  0  0
   28.0400   38.5592   22.8640 C   0  0  1  0  0  0  0  0  0  0  0  0
   28.2172   40.5087   24.2474 C   0  0  1  0  0  0  0  0  0  0  0  0
   28.3486   39.9030   23.0124 N   0  0  0  0  0  0  0  0  0  0  0  0
  1  2  1  6  0  0  0
  1  3  1  0  0  0  0
  1  4  2  0  0  0  0
  1  6  1  0  0  0  0
  5  6  1  0  0  0  0
  7  5  1  6  0  0  0
  7  8  1  0  0  0  0
  7  9  1  0  0  0  0
  9 10  1  1  0  0  0
  9 11  1  0  0  0  0
 11 12  1  6  0  0  0
 11 13  1  0  0  0  0
 13 31  1  0  0  0  0
 14 15  1  0  0  0  0
 15 16  2  0  0  0  0
 15 17  1  0  0  0  0
 17 18  1  0  0  0  0
 18 20  2  0  0  0  0
 19 18  1  6  0  0  0
 19 22  1  0  0  0  0
 19 30  1  0  0  0  0
 21 23  1  1  0  0  0
 21 29  1  0  0  0  0
 21 22  1  0  0  0  0
 23 24  1  0  0  0  0
 24 25  1  6  0  0  0
 24 26  1  0  0  0  0
 26 27  1  6  0  0  0
 26 28  1  0  0  0  0
 29 28  1  6  0  0  0
 29 31  1  0  0  0  0
 30 14  1  6  0  0  0
 30 31  1  0  0  0  0
M  CHG  1   3  -1
M  END
>  <CHROM.1>
175.78939638,64.75341684,65.38392938,164.89915020,62.69640051,85.01305828
66.27398348,27.20427013,40.61839030,21.52608401,-2.93480015,1.35495103,-2.87494226

>  <Name>
ligand

>  <RI>
0

>  <Rbt.Current_Directory>
/home/itssahil/PROJECTS/Mol_Feturizer/New_Systems/rnas/3F2T

>  <Rbt.Executable>
rbdock ($Id: //depot/dev/client3/rdock/2013.1/src/exe/rbdock.cxx#4 $)

>  <Rbt.Library>
libRbt.so (2013.1, Build901 2013/11/27)

>  <Rbt.Parameter_File>
/export/apps/rDock/src/rDock_2013.1_src/data/scripts/dock_solv.prm

>  <Rbt.Receptor>
prm/blind_docking_100.prm

>  <SCORE>
-28.3026

>  <SCORE.INTER>
-28.2961

>  <SCORE.INTER.CONST>
1

>  <SCORE.INTER.POLAR>
0

>  <SCORE.INTER.ROT>
7

>  <SCORE.INTER.SOLV>
18.8773

>  <SCORE.INTER.VDW>
-33.4232

>  <SCORE.INTER.norm>
-0.912779

>  <SCORE.INTRA>
-0.00645894

>  <SCORE.INTRA.DIHEDRAL>
-0.40049

>  <SCORE.INTRA.DIHEDRAL.0>
4.64198

>  <SCORE.INTRA.POLAR>
0

>  <SCORE.INTRA.POLAR.0>
0

>  <SCORE.INTRA.REPUL>
0

>  <SCORE.INTRA.REPUL.0>
0

>  <SCORE.INTRA.SOLV>
-0.280486

>  <SCORE.INTRA.SOLV.lig_0>
-49.3611

>  <SCORE.INTRA.VDW>
0.334029

>  <SCORE.INTRA.VDW.0>
-1.91858

>  <SCORE.INTRA.norm>
-0.000208353

>  <SCORE.RESTR>
0

>  <SCORE.RESTR.CAVITY>
0

>  <SCORE.RESTR.norm>
0

>  <SCORE.SYSTEM>
0

>  <SCORE.SYSTEM.CONST>
0

>  <SCORE.SYSTEM.DIHEDRAL>
0

>  <SCORE.SYSTEM.SOLV>
0

>  <SCORE.SYSTEM.norm>
0

>  <SCORE.heavy>
31

>  <SCORE.norm>
-0.912987

>  <RMSD>
5.889

$$$$
ligand
 OpenBabel11021811473D
libRbt.so/2013.1/901 2013/11/27
 31 33  0  0  0  0  0  0  0  0999 V2000
   27.2110   43.1997   16.7471 P   0  0  1  0  0  0  0  0  0  0  0  0
   28.1010   44.3626   16.3881 O   0  0  0  0  0  0  0  0  0  0  0  0
   25.9225   43.3232   15.9780 O   0  5  0  0  0  0  0  0  0  0  0  0
   27.9699   41.9520   16.3876 O   0  0  0  0  0  0  0  0  0  0  0  0
   25.9823   42.1502   18.8109 C   0  0  0  0  0  0  0  0  0  0  0  0
   26.8507   43.1456   18.3109 O   0  0  0  0  0  0  0  0  0  0  0  0
   25.7717   42.3723   20.3064 C   0  0  1  0  0  0  0  0  0  0  0  0
   24.8814   41.3980   20.8130 O   0  0  0  0  0  0  0  0  0  0  0  0
   27.0975   42.2602   21.0403 C   0  0  1  0  0  0  0  0  0  0  0  0
   26.8743   42.5159   22.4012 O   0  0  0  0  0  0  0  0  0  0  0  0
   27.7317   40.8871   20.8956 C   0  0  1  0  0  0  0  0  0  0  0  0
   28.2954   40.7957   19.6151 O   0  0  0  0  0  0  0  0  0  0  0  0
   28.8189   40.6789   21.9369 C   0  0  0  0  0  0  0  0  0  0  0  0
   28.4429   41.7934   24.4935 N   0  0  0  0  0  0  0  0  0  0  0  0
   28.3318   42.3704   25.7399 C   0  0  0  0  0  0  0  0  0  0  0  0
   28.5732   43.5646   25.8895 O   0  0  0  0  0  0  0  0  0  0  0  0
   27.9527   41.6160   26.8267 N   0  0  0  0  0  0  0  0  0  0  0  0
   27.6684   40.2728   26.6750 C   0  0  0  0  0  0  0  0  0  0  0  0
   27.7785   39.6817   25.4213 C   0  0  1  0  0  0  0  0  0  0  0  0
   27.3110   39.6057   27.6481 O   0  0  0  0  0  0  0  0  0  0  0  0
   27.6059   37.7546   24.0156 C   0  0  2  0  0  0  0  0  0  0  0  0
   27.4976   38.3394   25.2629 N   0  0  0  0  0  0  0  0  0  0  0  0
   27.3219   36.3978   23.8569 C   0  0  0  0  0  0  0  0  0  0  0  0
   27.4326   35.7985   22.6077 C   0  0  1  0  0  0  0  0  0  0  0  0
   27.1235   34.3407   22.4760 C   0  0  0  0  0  0  0  0  0  0  0  0
   27.8274   36.5639   21.5000 C   0  0  1  0  0  0  0  0  0  0  0  0
   27.9506   35.9560   20.1298 C   0  0  0  0  0  0  0  0  0  0  0  0
   28.1117   37.9173   21.6619 C   0  0  0  0  0  0  0  0  0  0  0  0
   28.0049   38.5194   22.9169 C   0  0  1  0  0  0  0  0  0  0  0  0
   28.1723   40.4501   24.3277 C   0  0  1  0  0  0  0  0  0  0  0  0
   28.2899   39.8667   23.0806 N   0  0  0  0  0  0  0  0  0  0  0  0
  1  2  1  6  0  0  0
  1  3  1  0  0  0  0
  1  4  2  0  0  0  0
  1  6  1  0  0  0  0
  5  6  1  0  0  0  0
  7  5  1  6  0  0  0
  7  8  1  0  0  0  0
  7  9  1  0  0  0  0
  9 10  1  1  0  0  0
  9 11  1  0  0  0  0
 11 12  1  6  0  0  0
 11 13  1  0  0  0  0
 13 31  1  0  0  0  0
 14 15  1  0  0  0  0
 15 16  2  0  0  0  0
 15 17  1  0  0  0  0
 17 18  1  0  0  0  0
 18 20  2  0  0  0  0
 19 18  1  6  0  0  0
 19 22  1  0  0  0  0
 19 30  1  0  0  0  0
 21 23  1  1  0  0  0
 21 29  1  0  0  0  0
 21 22  1  0  0  0  0
 23 24  1  0  0  0  0
 24 25  1  6  0  0  0
 24 26  1  0  0  0  0
 26 27  1  6  0  0  0
 26 28  1  0  0  0  0
 29 28  1  6  0  0  0
 29 31  1  0  0  0  0
 30 14  1  6  0  0  0
 30 31  1  0  0  0  0
M  CHG  1   3  -1
M  END
>  <CHROM.1>
-177.60557509,177.46342649,178.78041599,177.94614474,76.38781331,99.62933482
70.47272533,27.47948223,40.55000260,21.72552108,-2.77595962,1.47980846,-3.03645739

>  <Name>
ligand

>  <RI>
0

>  <Rbt.Current_Directory>
/home/itssahil/PROJECTS/Mol_Feturizer/New_Systems/rnas/3F2T

>  <Rbt.Executable>
rbdock ($Id: //depot/dev/client3/rdock/2013.1/src/exe/rbdock.cxx#4 $)

>  <Rbt.Library>
libRbt.so (2013.1, Build901 2013/11/27)

>  <Rbt.Parameter_File>
/export/apps/rDock/src/rDock_2013.1_src/data/scripts/dock_solv.prm

>  <Rbt.Receptor>
prm/pocket_docking_5.prm

>  <SCORE>
-26.6268

>  <SCORE.INTER>
-28.6662

>  <SCORE.INTER.CONST>
1

>  <SCORE.INTER.POLAR>
0

>  <SCORE.INTER.ROT>
7

>  <SCORE.INTER.SOLV>
18.0188

>  <SCORE.INTER.VDW>
-33.3838

>  <SCORE.INTER.norm>
-0.924718

>  <SCORE.INTRA>
2.03942

>  <SCORE.INTRA.DIHEDRAL>
1.53479

>  <SCORE.INTRA.DIHEDRAL.0>
4.64198

>  <SCORE.INTRA.POLAR>
0

>  <SCORE.INTRA.POLAR.0>
0

>  <SCORE.INTRA.REPUL>
0

>  <SCORE.INTRA.REPUL.0>
0

>  <SCORE.INTRA.SOLV>
1.17043

>  <SCORE.INTRA.SOLV.lig_0>
-49.3611

>  <SCORE.INTRA.VDW>
0.686811

>  <SCORE.INTRA.VDW.0>
-1.91858

>  <SCORE.INTRA.norm>
0.0657877

>  <SCORE.RESTR>
3.48238e-05

>  <SCORE.RESTR.CAVITY>
3.48238e-05

>  <SCORE.RESTR.norm>
1.12335e-06

>  <SCORE.SYSTEM>
0

>  <SCORE.SYSTEM.CONST>
0

>  <SCORE.SYSTEM.DIHEDRAL>
0

>  <SCORE.SYSTEM.SOLV>
0

>  <SCORE.SYSTEM.norm>
0

>  <SCORE.heavy>
31

>  <SCORE.norm>
-0.858929

>  <RMSD>
5.900

$$$$
ligand
 OpenBabel11021811473D
libRbt.so/2013.1/901 2013/11/27
 31 33  0  0  0  0  0  0  0  0999 V2000
   25.6481   44.5002   16.2858 P   0  0  1  0  0  0  0  0  0  0  0  0
   26.0153   45.8234   16.9084 O   0  0  0  0  0  0  0  0  0  0  0  0
   24.1683   44.2810   16.4565 O   0  5  0  0  0  0  0  0  0  0  0  0
   26.0470   44.5822   14.8380 O   0  0  0  0  0  0  0  0  0  0  0  0
   26.2025   42.9378   18.3161 C   0  0  0  0  0  0  0  0  0  0  0  0
   26.4131   43.2580   16.9567 O   0  0  0  0  0  0  0  0  0  0  0  0
   26.9032   41.6199   18.6361 C   0  0  1  0  0  0  0  0  0  0  0  0
   28.2966   41.8338   18.7427 O   0  0  0  0  0  0  0  0  0  0  0  0
   26.3863   41.0625   19.9517 C   0  0  1  0  0  0  0  0  0  0  0  0
   26.6228   39.6801   19.9715 O   0  0  0  0  0  0  0  0  0  0  0  0
   27.0593   41.6937   21.1590 C   0  0  1  0  0  0  0  0  0  0  0  0
   26.1431   41.6990   22.2204 O   0  0  0  0  0  0  0  0  0  0  0  0
   28.2928   40.9052   21.5667 C   0  0  0  0  0  0  0  0  0  0  0  0
   28.2336   42.1591   24.0855 N   0  0  0  0  0  0  0  0  0  0  0  0
   28.2730   42.8093   25.2998 C   0  0  0  0  0  0  0  0  0  0  0  0
   28.4340   44.0255   25.3423 O   0  0  0  0  0  0  0  0  0  0  0  0
   28.1351   42.1041   26.4735 N   0  0  0  0  0  0  0  0  0  0  0  0
   27.9440   40.7364   26.4440 C   0  0  0  0  0  0  0  0  0  0  0  0
   27.9036   40.0717   25.2235 C   0  0  1  0  0  0  0  0  0  0  0  0
   27.8021   40.1120   27.4974 O   0  0  0  0  0  0  0  0  0  0  0  0
   27.6732   38.0465   23.9725 C   0  0  2  0  0  0  0  0  0  0  0  0
   27.7148   38.7046   25.1868 N   0  0  0  0  0  0  0  0  0  0  0  0
   27.4824   36.6647   23.9368 C   0  0  0  0  0  0  0  0  0  0  0  0
   27.4442   35.9922   22.7211 C   0  0  1  0  0  0  0  0  0  0  0  0
   27.2415   34.5100   22.7216 C   0  0  0  0  0  0  0  0  0  0  0  0
   27.5933   36.7080   21.5236 C   0  0  1  0  0  0  0  0  0  0  0  0
   27.5489   36.0196   20.1870 C   0  0  0  0  0  0  0  0  0  0  0  0
   27.7851   38.0866   21.5625 C   0  0  0  0  0  0  0  0  0  0  0  0
   27.8279   38.7626   22.7832 C   0  0  1  0  0  0  0  0  0  0  0  0
   28.0538   40.7914   24.0398 C   0  0  1  0  0  0  0  0  0  0  0  0
   28.0213   40.1353   22.8241 N   0  0  0  0  0  0  0  0  0  0  0  0
  1  2  1  1  0  0  0
  1  3  1  0  0  0  0
  1  4  2  0  0  0  0
  1  6  1  0  0  0  0
  5  6  1  0  0  0  0
  7  5  1  1  0  0  0
  7  8  1  0  0  0  0
  7  9  1  0  0  0  0
  9 10  1  6  0  0  0
  9 11  1  0  0  0  0
 11 12  1  1  0  0  0
 11 13  1  0  0  0  0
 13 31  1  0  0  0  0
 14 15  1  0  0  0  0
 15 16  2  0  0  0  0
 15 17  1  0  0  0  0
 17 18  1  0  0  0  0
 18 20  2  0  0  0  0
 19 18  1  6  0  0  0
 19 22  1  0  0  0  0
 19 30  1  0  0  0  0
 21 23  1  1  0  0  0
 21 29  1  0  0  0  0
 21 22  1  0  0  0  0
 23 24  1  0  0  0  0
 24 25  1  6  0  0  0
 24 26  1  0  0  0  0
 26 27  1  6  0  0  0
 26 28  1  0  0  0  0
 29 28  1  6  0  0  0
 29 31  1  0  0  0  0
 30 14  1  6  0  0  0
 30 31  1  0  0  0  0
M  CHG  1   3  -1
M  END
>  <CHROM.1>
172.62494680,63.04632721,75.67598185,157.40943756,149.56365119,-106.55302696
105.58977875,27.16262763,40.93682945,21.37697914,-2.75950850,1.35128961,-2.95877672

>  <Name>
ligand

>  <RI>
0

>  <Rbt.Current_Directory>
/home/itssahil/PROJECTS/Mol_Feturizer/New_Systems/rnas/3F2T

>  <Rbt.Executable>
rbdock ($Id: //depot/dev/client3/rdock/2013.1/src/exe/rbdock.cxx#4 $)

>  <Rbt.Library>
libRbt.so (2013.1, Build901 2013/11/27)

>  <Rbt.Parameter_File>
/export/apps/rDock/src/rDock_2013.1_src/data/scripts/dock_solv.prm

>  <Rbt.Receptor>
prm/pocket_docking_7.prm

>  <SCORE>
-20.1194

>  <SCORE.INTER>
-26.0367

>  <SCORE.INTER.CONST>
1

>  <SCORE.INTER.POLAR>
0

>  <SCORE.INTER.ROT>
7

>  <SCORE.INTER.SOLV>
18.5446

>  <SCORE.INTER.VDW>
-31.806

>  <SCORE.INTER.norm>
-0.839893

>  <SCORE.INTRA>
5.91728

>  <SCORE.INTRA.DIHEDRAL>
6.8733

>  <SCORE.INTRA.DIHEDRAL.0>
4.64198

>  <SCORE.INTRA.POLAR>
0

>  <SCORE.INTRA.POLAR.0>
0

>  <SCORE.INTRA.REPUL>
0

>  <SCORE.INTRA.REPUL.0>
0

>  <SCORE.INTRA.SOLV>
-0.0286182

>  <SCORE.INTRA.SOLV.lig_0>
-49.3611

>  <SCORE.INTRA.VDW>
2.49493

>  <SCORE.INTRA.VDW.0>
-1.91858

>  <SCORE.INTRA.norm>
0.19088

>  <SCORE.RESTR>
0

>  <SCORE.RESTR.CAVITY>
0

>  <SCORE.RESTR.norm>
0

>  <SCORE.SYSTEM>
0

>  <SCORE.SYSTEM.CONST>
0

>  <SCORE.SYSTEM.DIHEDRAL>
0

>  <SCORE.SYSTEM.SOLV>
0

>  <SCORE.SYSTEM.norm>
0

>  <SCORE.heavy>
31

>  <SCORE.norm>
-0.649013

>  <RMSD>
5.903

$$$$
ligand
 OpenBabel11021811473D
libRbt.so/2013.1/901 2013/11/27
 31 33  0  0  0  0  0  0  0  0999 V2000
   25.7827   43.5499   16.3596 P   0  0  1  0  0  0  0  0  0  0  0  0
   26.6768   42.6816   15.5111 O   0  0  0  0  0  0  0  0  0  0  0  0
   26.4771   44.8632   16.6043 O   0  5  0  0  0  0  0  0  0  0  0  0
   24.4989   43.7199   15.5946 O   0  0  0  0  0  0  0  0  0  0  0  0
   26.4718   42.6534   18.7243 C   0  0  0  0  0  0  0  0  0  0  0  0
   25.4440   42.8956   17.7863 O   0  0  0  0  0  0  0  0  0  0  0  0
   25.8542   42.1597   20.0300 C   0  0  1  0  0  0  0  0  0  0  0  0
   25.2346   40.9063   19.8211 O   0  0  0  0  0  0  0  0  0  0  0  0
   26.9321   42.0082   21.0902 C   0  0  1  0  0  0  0  0  0  0  0  0
   26.3095   41.7877   22.3276 O   0  0  0  0  0  0  0  0  0  0  0  0
   27.8769   40.8535   20.8026 C   0  0  1  0  0  0  0  0  0  0  0  0
   28.5341   41.1142   19.5918 O   0  0  0  0  0  0  0  0  0  0  0  0
   28.9075   40.7069   21.9098 C   0  0  0  0  0  0  0  0  0  0  0  0
   28.4698   41.8572   24.4406 N   0  0  0  0  0  0  0  0  0  0  0  0
   28.3290   42.4509   25.6762 C   0  0  0  0  0  0  0  0  0  0  0  0
   28.5807   43.6438   25.8186 O   0  0  0  0  0  0  0  0  0  0  0  0
   27.9085   41.7145   26.7601 N   0  0  0  0  0  0  0  0  0  0  0  0
   27.6121   40.3731   26.6161 C   0  0  0  0  0  0  0  0  0  0  0  0
   27.7520   39.7653   25.3734 C   0  0  1  0  0  0  0  0  0  0  0  0
   27.2178   39.7224   27.5859 O   0  0  0  0  0  0  0  0  0  0  0  0
   27.5973   37.8232   23.9863 C   0  0  2  0  0  0  0  0  0  0  0  0
   27.4593   38.4246   25.2227 N   0  0  0  0  0  0  0  0  0  0  0  0
   27.3012   36.4681   23.8354 C   0  0  0  0  0  0  0  0  0  0  0  0
   27.4415   35.8521   22.5974 C   0  0  1  0  0  0  0  0  0  0  0  0
   27.1184   34.3967   22.4739 C   0  0  0  0  0  0  0  0  0  0  0  0
   27.8784   36.5990   21.4929 C   0  0  1  0  0  0  0  0  0  0  0  0
   28.0346   35.9728   20.1343 C   0  0  0  0  0  0  0  0  0  0  0  0
   28.1746   37.9508   21.6470 C   0  0  0  0  0  0  0  0  0  0  0  0
   28.0381   38.5696   22.8909 C   0  0  1  0  0  0  0  0  0  0  0  0
   28.1875   40.5153   24.2828 C   0  0  1  0  0  0  0  0  0  0  0  0
   28.3349   39.9152   23.0469 N   0  0  0  0  0  0  0  0  0  0  0  0
  1  2  1  6  0  0  0
  1  3  1  0  0  0  0
  1  4  2  0  0  0  0
  1  6  1  0  0  0  0
  5  6  1  0  0  0  0
  7  5  1  6  0  0  0
  7  8  1  0  0  0  0
  7  9  1  0  0  0  0
  9 10  1  1  0  0  0
  9 11  1  0  0  0  0
 11 12  1  6  0  0  0
 11 13  1  0  0  0  0
 13 31  1  0  0  0  0
 14 15  1  0  0  0  0
 15 16  2  0  0  0  0
 15 17  1  0  0  0  0
 17 18  1  0  0  0  0
 18 20  2  0  0  0  0
 19 18  1  6  0  0  0
 19 22  1  0  0  0  0
 19 30  1  0  0  0  0
 21 23  1  1  0  0  0
 21 29  1  0  0  0  0
 21 22  1  0  0  0  0
 23 24  1  0  0  0  0
 24 25  1  6  0  0  0
 24 26  1  0  0  0  0
 26 27  1  6  0  0  0
 26 28  1  0  0  0  0
 29 28  1  6  0  0  0
 29 31  1  0  0  0  0
 30 14  1  6  0  0  0
 30 31  1  0  0  0  0
M  CHG  1   3  -1
M  END
>  <CHROM.1>
174.49854233,63.49136149,64.96242846,169.62800324,62.15912718,83.26389672
67.54293714,27.19729130,40.62916983,21.57166696,-2.98268710,1.36223841,-2.82299276

>  <Name>
ligand

>  <RI>
0

>  <Rbt.Current_Directory>
/home/itssahil/PROJECTS/Mol_Feturizer/New_Systems/rnas/3F2T

>  <Rbt.Executable>
rbdock ($Id: //depot/dev/client3/rdock/2013.1/src/exe/rbdock.cxx#4 $)

>  <Rbt.Library>
libRbt.so (2013.1, Build901 2013/11/27)

>  <Rbt.Parameter_File>
/export/apps/rDock/src/rDock_2013.1_src/data/scripts/dock_solv.prm

>  <Rbt.Receptor>
prm/pocket_docking_6.prm

>  <SCORE>
-28.1924

>  <SCORE.INTER>
-28.1751

>  <SCORE.INTER.CONST>
1

>  <SCORE.INTER.POLAR>
0

>  <SCORE.INTER.ROT>
7

>  <SCORE.INTER.SOLV>
19.0284

>  <SCORE.INTER.VDW>
-33.3928

>  <SCORE.INTER.norm>
-0.908873

>  <SCORE.INTRA>
-0.0173877

>  <SCORE.INTRA.DIHEDRAL>
-1.01283

>  <SCORE.INTRA.DIHEDRAL.0>
4.64198

>  <SCORE.INTRA.POLAR>
0

>  <SCORE.INTRA.POLAR.0>
0

>  <SCORE.INTRA.REPUL>
0

>  <SCORE.INTRA.REPUL.0>
0

>  <SCORE.INTRA.SOLV>
-0.278521

>  <SCORE.INTRA.SOLV.lig_0>
-49.3611

>  <SCORE.INTRA.VDW>
0.628286

>  <SCORE.INTRA.VDW.0>
-1.91858

>  <SCORE.INTRA.norm>
-0.000560894

>  <SCORE.RESTR>
0

>  <SCORE.RESTR.CAVITY>
0

>  <SCORE.RESTR.norm>
0

>  <SCORE.SYSTEM>
0

>  <SCORE.SYSTEM.CONST>
0

>  <SCORE.SYSTEM.DIHEDRAL>
0

>  <SCORE.SYSTEM.SOLV>
0

>  <SCORE.SYSTEM.norm>
0

>  <SCORE.heavy>
31

>  <SCORE.norm>
-0.909434

>  <RMSD>
5.909

$$$$
ligand
 OpenBabel11021811473D
libRbt.so/2013.1/901 2013/11/27
 31 33  0  0  0  0  0  0  0  0999 V2000
   27.5826   32.5250   14.6419 P   0  0  1  0  0  0  0  0  0  0  0  0
   26.6237   31.3650   14.7327 O   0  0  0  0  0  0  0  0  0  0  0  0
   28.9683   31.9875   14.4013 O   0  5  0  0  0  0  0  0  0  0  0  0
   27.1037   33.3894   13.5080 O   0  0  0  0  0  0  0  0  0  0  0  0
   28.4620   34.5442   16.0630 C   0  0  0  0  0  0  0  0  0  0  0  0
   27.6212   33.4125   15.9795 O   0  0  0  0  0  0  0  0  0  0  0  0
   28.3092   35.1829   17.4410 C   0  0  1  0  0  0  0  0  0  0  0  0
   28.7082   34.2651   18.4396 O   0  0  0  0  0  0  0  0  0  0  0  0
   29.1772   36.4264   17.5367 C   0  0  1  0  0  0  0  0  0  0  0  0
   28.6723   37.3893   16.6507 O   0  0  0  0  0  0  0  0  0  0  0  0
   29.2046   37.0139   18.9377 C   0  0  1  0  0  0  0  0  0  0  0  0
   30.1084   38.0859   18.9474 O   0  0  0  0  0  0  0  0  0  0  0  0
   27.8286   37.5159   19.3428 C   0  0  0  0  0  0  0  0  0  0  0  0
   27.5096   35.5295   21.3106 N   0  0  0  0  0  0  0  0  0  0  0  0
   27.2924   34.5281   22.2319 C   0  0  0  0  0  0  0  0  0  0  0  0
   27.2106   33.3598   21.8639 O   0  0  0  0  0  0  0  0  0  0  0  0
   27.1630   34.8264   23.5691 N   0  0  0  0  0  0  0  0  0  0  0  0
   27.2615   36.1343   24.0020 C   0  0  0  0  0  0  0  0  0  0  0  0
   27.4798   37.1516   23.0796 C   0  0  1  0  0  0  0  0  0  0  0  0
   27.1636   36.3941   25.2030 O   0  0  0  0  0  0  0  0  0  0  0  0
   27.7962   39.4703   22.5867 C   0  0  2  0  0  0  0  0  0  0  0  0
   27.5774   38.4613   23.5051 N   0  0  0  0  0  0  0  0  0  0  0  0
   27.8945   40.7936   23.0181 C   0  0  0  0  0  0  0  0  0  0  0  0
   28.1093   41.8168   22.1022 C   0  0  1  0  0  0  0  0  0  0  0  0
   28.2057   43.2240   22.6007 C   0  0  0  0  0  0  0  0  0  0  0  0
   28.2329   41.5158   20.7374 C   0  0  1  0  0  0  0  0  0  0  0  0
   28.4749   42.5923   19.7151 C   0  0  0  0  0  0  0  0  0  0  0  0
   28.1327   40.1945   20.3098 C   0  0  0  0  0  0  0  0  0  0  0  0
   27.9127   39.1665   21.2283 C   0  0  1  0  0  0  0  0  0  0  0  0
   27.6000   36.8426   21.7262 C   0  0  1  0  0  0  0  0  0  0  0  0
   27.8103   37.8501   20.8042 N   0  0  0  0  0  0  0  0  0  0  0  0
  1  2  1  1  0  0  0
  1  3  1  0  0  0  0
  1  4  2  0  0  0  0
  1  6  1  0  0  0  0
  5  6  1  0  0  0  0
  7  5  1  6  0  0  0
  7  8  1  0  0  0  0
  7  9  1  0  0  0  0
  9 10  1  6  0  0  0
  9 11  1  0  0  0  0
 11 12  1  6  0  0  0
 11 13  1  0  0  0  0
 13 31  1  0  0  0  0
 14 15  1  0  0  0  0
 15 16  2  0  0  0  0
 15 17  1  0  0  0  0
 17 18  1  0  0  0  0
 18 20  2  0  0  0  0
 19 18  1  1  0  0  0
 19 22  1  0  0  0  0
 19 30  1  0  0  0  0
 21 23  1  6  0  0  0
 21 29  1  0  0  0  0
 21 22  1  0  0  0  0
 23 24  1  0  0  0  0
 24 25  1  1  0  0  0
 24 26  1  0  0  0  0
 26 27  1  1  0  0  0
 26 28  1  0  0  0  0
 29 28  1  1  0  0  0
 29 31  1  0  0  0  0
 30 14  1  1  0  0  0
 30 31  1  0  0  0  0
M  CHG  1   3  -1
M  END
>  <CHROM.1>
-179.35470526,-179.66529825,61.68928690,66.51663043,175.40251082,169.32601266
100.90753484,27.96573499,36.55424948,19.51376815,-1.61286530,1.36408968,0.86020283

>  <Name>
ligand

>  <RI>
0

>  <Rbt.Current_Directory>
/home/itssahil/PROJECTS/Mol_Feturizer/New_Systems/rnas/3F2T

>  <Rbt.Executable>
rbdock ($Id: //depot/dev/client3/rdock/2013.1/src/exe/rbdock.cxx#4 $)

>  <Rbt.Library>
libRbt.so (2013.1, Build901 2013/11/27)

>  <Rbt.Parameter_File>
/export/apps/rDock/src/rDock_2013.1_src/data/scripts/dock_solv.prm

>  <Rbt.Receptor>
prm/pocket_docking_6.prm

>  <SCORE>
-21.6322

>  <SCORE.INTER>
-20.3265

>  <SCORE.INTER.CONST>
1

>  <SCORE.INTER.POLAR>
0

>  <SCORE.INTER.ROT>
7

>  <SCORE.INTER.SOLV>
9.66295

>  <SCORE.INTER.VDW>
-25.0387

>  <SCORE.INTER.norm>
-0.655695

>  <SCORE.INTRA>
-1.30569

>  <SCORE.INTRA.DIHEDRAL>
-2.67103

>  <SCORE.INTRA.DIHEDRAL.0>
4.64198

>  <SCORE.INTRA.POLAR>
0

>  <SCORE.INTRA.POLAR.0>
0

>  <SCORE.INTRA.REPUL>
0

>  <SCORE.INTRA.REPUL.0>
0

>  <SCORE.INTRA.SOLV>
-0.103669

>  <SCORE.INTRA.SOLV.lig_0>
-49.3611

>  <SCORE.INTRA.VDW>
0.0816548

>  <SCORE.INTRA.VDW.0>
-1.91858

>  <SCORE.INTRA.norm>
-0.0421191

>  <SCORE.RESTR>
0

>  <SCORE.RESTR.CAVITY>
0

>  <SCORE.RESTR.norm>
0

>  <SCORE.SYSTEM>
0

>  <SCORE.SYSTEM.CONST>
0

>  <SCORE.SYSTEM.DIHEDRAL>
0

>  <SCORE.SYSTEM.SOLV>
0

>  <SCORE.SYSTEM.norm>
0

>  <SCORE.heavy>
31

>  <SCORE.norm>
-0.697814

>  <RMSD>
5.911

$$$$
ligand
 OpenBabel11021811473D
libRbt.so/2013.1/901 2013/11/27
 31 33  0  0  0  0  0  0  0  0999 V2000
   30.4016   37.3831   15.7323 P   0  0  1  0  0  0  0  0  0  0  0  0
   30.7586   38.2797   14.5739 O   0  0  0  0  0  0  0  0  0  0  0  0
   29.4544   36.3192   15.2447 O   0  5  0  0  0  0  0  0  0  0  0  0
   31.6935   36.8041   16.2403 O   0  0  0  0  0  0  0  0  0  0  0  0
   30.0947   39.4767   17.2793 C   0  0  0  0  0  0  0  0  0  0  0  0
   29.6862   38.1690   16.9359 O   0  0  0  0  0  0  0  0  0  0  0  0
   29.3910   39.9014   18.5656 C   0  0  1  0  0  0  0  0  0  0  0  0
   27.9909   39.7953   18.4012 O   0  0  0  0  0  0  0  0  0  0  0  0
   29.8235   39.0062   19.7146 C   0  0  1  0  0  0  0  0  0  0  0  0
   31.2189   39.0818   19.8352 O   0  0  0  0  0  0  0  0  0  0  0  0
   29.1933   39.4075   21.0377 C   0  0  1  0  0  0  0  0  0  0  0  0
   29.3605   40.7897   21.2032 O   0  0  0  0  0  0  0  0  0  0  0  0
   27.7100   39.0773   21.0546 C   0  0  0  0  0  0  0  0  0  0  0  0
   27.1581   40.1496   23.5974 N   0  0  0  0  0  0  0  0  0  0  0  0
   26.9524   40.7205   24.8345 C   0  0  0  0  0  0  0  0  0  0  0  0
   26.9372   41.9421   24.9542 O   0  0  0  0  0  0  0  0  0  0  0  0
   26.7648   39.9300   25.9453 N   0  0  0  0  0  0  0  0  0  0  0  0
   26.7697   38.5537   25.8275 C   0  0  0  0  0  0  0  0  0  0  0  0
   26.9773   37.9686   24.5834 C   0  0  1  0  0  0  0  0  0  0  0  0
   26.5824   37.8503   26.8223 O   0  0  0  0  0  0  0  0  0  0  0  0
   27.1898   36.0146   23.2210 C   0  0  2  0  0  0  0  0  0  0  0  0
   26.9852   36.5938   24.4588 N   0  0  0  0  0  0  0  0  0  0  0  0
   27.1978   34.6249   23.0964 C   0  0  0  0  0  0  0  0  0  0  0  0
   27.4079   34.0319   21.8570 C   0  0  1  0  0  0  0  0  0  0  0  0
   27.4133   32.5390   21.7621 C   0  0  0  0  0  0  0  0  0  0  0  0
   27.6079   34.8361   20.7247 C   0  0  1  0  0  0  0  0  0  0  0  0
   27.8296   34.2344   19.3641 C   0  0  0  0  0  0  0  0  0  0  0  0
   27.6011   36.2225   20.8525 C   0  0  0  0  0  0  0  0  0  0  0  0
   27.3944   36.8192   22.0976 C   0  0  1  0  0  0  0  0  0  0  0  0
   27.1761   38.7757   23.4651 C   0  0  1  0  0  0  0  0  0  0  0  0
   27.3896   38.1999   22.2273 N   0  0  0  0  0  0  0  0  0  0  0  0
  1  2  1  6  0  0  0
  1  3  1  0  0  0  0
  1  4  2  0  0  0  0
  1  6  1  0  0  0  0
  5  6  1  0  0  0  0
  7  5  1  6  0  0  0
  7  8  1  0  0  0  0
  7  9  1  0  0  0  0
  9 10  1  1  0  0  0
  9 11  1  0  0  0  0
 11 12  1  6  0  0  0
 11 13  1  0  0  0  0
 13 31  1  0  0  0  0
 14 15  1  0  0  0  0
 15 16  2  0  0  0  0
 15 17  1  0  0  0  0
 17 18  1  0  0  0  0
 18 20  2  0  0  0  0
 19 18  1  6  0  0  0
 19 22  1  0  0  0  0
 19 30  1  0  0  0  0
 21 23  1  1  0  0  0
 21 29  1  0  0  0  0
 21 22  1  0  0  0  0
 23 24  1  0  0  0  0
 24 25  1  6  0  0  0
 24 26  1  0  0  0  0
 26 27  1  6  0  0  0
 26 28  1  0  0  0  0
 29 28  1  6  0  0  0
 29 31  1  0  0  0  0
 30 14  1  6  0  0  0
 30 31  1  0  0  0  0
M  CHG  1   3  -1
M  END
>  <CHROM.1>
-172.13493613,-37.47651999,-56.12559944,57.46526662,-48.70575281,124.14480183
-92.59448505,28.41930852,37.88758485,20.79019265,-0.46242288,1.15533482,0.39744644

>  <Name>
ligand

>  <RI>
0

>  <Rbt.Current_Directory>
/home/itssahil/PROJECTS/Mol_Feturizer/New_Systems/rnas/3F2T

>  <Rbt.Executable>
rbdock ($Id: //depot/dev/client3/rdock/2013.1/src/exe/rbdock.cxx#4 $)

>  <Rbt.Library>
libRbt.so (2013.1, Build901 2013/11/27)

>  <Rbt.Parameter_File>
/export/apps/rDock/src/rDock_2013.1_src/data/scripts/dock_solv.prm

>  <Rbt.Receptor>
prm/blind_docking_80.prm

>  <SCORE>
-23.5562

>  <SCORE.INTER>
-25.6101

>  <SCORE.INTER.CONST>
1

>  <SCORE.INTER.POLAR>
0

>  <SCORE.INTER.ROT>
7

>  <SCORE.INTER.SOLV>
13.6841

>  <SCORE.INTER.VDW>
-29.9014

>  <SCORE.INTER.norm>
-0.826133

>  <SCORE.INTRA>
2.05392

>  <SCORE.INTRA.DIHEDRAL>
3.17886

>  <SCORE.INTRA.DIHEDRAL.0>
4.64198

>  <SCORE.INTRA.POLAR>
0

>  <SCORE.INTRA.POLAR.0>
0

>  <SCORE.INTRA.REPUL>
0

>  <SCORE.INTRA.REPUL.0>
0

>  <SCORE.INTRA.SOLV>
-0.200093

>  <SCORE.INTRA.SOLV.lig_0>
-49.3611

>  <SCORE.INTRA.VDW>
0.56454

>  <SCORE.INTRA.VDW.0>
-1.91858

>  <SCORE.INTRA.norm>
0.0662556

>  <SCORE.RESTR>
0

>  <SCORE.RESTR.CAVITY>
0

>  <SCORE.RESTR.norm>
0

>  <SCORE.SYSTEM>
0

>  <SCORE.SYSTEM.CONST>
0

>  <SCORE.SYSTEM.DIHEDRAL>
0

>  <SCORE.SYSTEM.SOLV>
0

>  <SCORE.SYSTEM.norm>
0

>  <SCORE.heavy>
31

>  <SCORE.norm>
-0.759878

>  <RMSD>
5.917

$$$$
ligand
 OpenBabel11021811473D
libRbt.so/2013.1/901 2013/11/27
 31 33  0  0  0  0  0  0  0  0999 V2000
   31.5631   37.1489   17.4655 P   0  0  1  0  0  0  0  0  0  0  0  0
   32.0529   37.4132   16.0642 O   0  0  0  0  0  0  0  0  0  0  0  0
   31.1715   35.6991   17.5741 O   0  5  0  0  0  0  0  0  0  0  0  0
   32.6961   37.5021   18.3894 O   0  0  0  0  0  0  0  0  0  0  0  0
   30.1994   39.3873   17.4539 C   0  0  0  0  0  0  0  0  0  0  0  0
   30.2857   38.0377   17.8611 O   0  0  0  0  0  0  0  0  0  0  0  0
   28.9170   39.9993   18.0117 C   0  0  1  0  0  0  0  0  0  0  0  0
   27.8349   39.1140   17.8017 O   0  0  0  0  0  0  0  0  0  0  0  0
   29.0673   40.2520   19.5024 C   0  0  1  0  0  0  0  0  0  0  0  0
   28.0571   41.1372   19.9065 O   0  0  0  0  0  0  0  0  0  0  0  0
   28.9630   38.9786   20.3248 C   0  0  1  0  0  0  0  0  0  0  0  0
   29.4771   39.2375   21.6033 O   0  0  0  0  0  0  0  0  0  0  0  0
   27.5165   38.5295   20.4487 C   0  0  0  0  0  0  0  0  0  0  0  0
   27.1747   39.7316   22.9702 N   0  0  0  0  0  0  0  0  0  0  0  0
   27.0694   40.3672   24.1883 C   0  0  0  0  0  0  0  0  0  0  0  0
   27.0293   41.5929   24.2419 O   0  0  0  0  0  0  0  0  0  0  0  0
   27.0107   39.6371   25.3534 N   0  0  0  0  0  0  0  0  0  0  0  0
   27.0453   38.2569   25.3110 C   0  0  0  0  0  0  0  0  0  0  0  0
   27.1522   37.6068   24.0866 C   0  0  1  0  0  0  0  0  0  0  0  0
   26.9735   37.6071   26.3561 O   0  0  0  0  0  0  0  0  0  0  0  0
   27.2936   35.5839   22.8188 C   0  0  2  0  0  0  0  0  0  0  0  0
   27.1892   36.2277   24.0370 N   0  0  0  0  0  0  0  0  0  0  0  0
   27.3310   34.1899   22.7702 C   0  0  0  0  0  0  0  0  0  0  0  0
   27.4411   33.5324   21.5506 C   0  0  1  0  0  0  0  0  0  0  0  0
   27.4819   32.0370   21.5373 C   0  0  0  0  0  0  0  0  0  0  0  0
   27.5097   34.2751   20.3622 C   0  0  1  0  0  0  0  0  0  0  0  0
   27.6201   33.6021   19.0215 C   0  0  0  0  0  0  0  0  0  0  0  0
   27.4738   35.6660   20.4141 C   0  0  0  0  0  0  0  0  0  0  0  0
   27.3675   36.3277   21.6388 C   0  0  1  0  0  0  0  0  0  0  0  0
   27.2209   38.3533   22.9120 C   0  0  1  0  0  0  0  0  0  0  0  0
   27.3339   37.7130   21.6927 N   0  0  0  0  0  0  0  0  0  0  0  0
  1  2  1  6  0  0  0
  1  3  1  0  0  0  0
  1  4  2  0  0  0  0
  1  6  1  0  0  0  0
  5  6  1  0  0  0  0
  7  5  1  1  0  0  0
  7  8  1  0  0  0  0
  7  9  1  0  0  0  0
  9 10  1  1  0  0  0
  9 11  1  0  0  0  0
 11 12  1  1  0  0  0
 11 13  1  0  0  0  0
 13 31  1  0  0  0  0
 14 15  1  0  0  0  0
 15 16  2  0  0  0  0
 15 17  1  0  0  0  0
 17 18  1  0  0  0  0
 18 20  2  0  0  0  0
 19 18  1  6  0  0  0
 19 22  1  0  0  0  0
 19 30  1  0  0  0  0
 21 23  1  1  0  0  0
 21 29  1  0  0  0  0
 21 22  1  0  0  0  0
 23 24  1  0  0  0  0
 24 25  1  6  0  0  0
 24 26  1  0  0  0  0
 26 27  1  6  0  0  0
 26 28  1  0  0  0  0
 29 28  1  6  0  0  0
 29 31  1  0  0  0  0
 30 14  1  6  0  0  0
 30 31  1  0  0  0  0
M  CHG  1   3  -1
M  END
>  <CHROM.1>
-177.77703419,-39.40904132,-45.77900519,163.59627212,163.63221589,-154.40950943
-96.66097914,28.54701291,37.61267813,20.84515218,0.21930587,-1.04802392,-2.98429142

>  <Name>
ligand

>  <RI>
0

>  <Rbt.Current_Directory>
/home/itssahil/PROJECTS/Mol_Feturizer/New_Systems/rnas/3F2T

>  <Rbt.Executable>
rbdock ($Id: //depot/dev/client3/rdock/2013.1/src/exe/rbdock.cxx#4 $)

>  <Rbt.Library>
libRbt.so (2013.1, Build901 2013/11/27)

>  <Rbt.Parameter_File>
/export/apps/rDock/src/rDock_2013.1_src/data/scripts/dock_solv.prm

>  <Rbt.Receptor>
prm/blind_docking_80.prm

>  <SCORE>
-21.566

>  <SCORE.INTER>
-23.8751

>  <SCORE.INTER.CONST>
1

>  <SCORE.INTER.POLAR>
0

>  <SCORE.INTER.ROT>
7

>  <SCORE.INTER.SOLV>
15.6629

>  <SCORE.INTER.VDW>
-29.4043

>  <SCORE.INTER.norm>
-0.770164

>  <SCORE.INTRA>
2.30904

>  <SCORE.INTRA.DIHEDRAL>
1.66788

>  <SCORE.INTRA.DIHEDRAL.0>
4.64198

>  <SCORE.INTRA.POLAR>
0

>  <SCORE.INTRA.POLAR.0>
0

>  <SCORE.INTRA.REPUL>
0

>  <SCORE.INTRA.REPUL.0>
0

>  <SCORE.INTRA.SOLV>
0.34229

>  <SCORE.INTRA.SOLV.lig_0>
-49.3611

>  <SCORE.INTRA.VDW>
1.30395

>  <SCORE.INTRA.VDW.0>
-1.91858

>  <SCORE.INTRA.norm>
0.074485

>  <SCORE.RESTR>
0

>  <SCORE.RESTR.CAVITY>
0

>  <SCORE.RESTR.norm>
0

>  <SCORE.SYSTEM>
0

>  <SCORE.SYSTEM.CONST>
0

>  <SCORE.SYSTEM.DIHEDRAL>
0

>  <SCORE.SYSTEM.SOLV>
0

>  <SCORE.SYSTEM.norm>
0

>  <SCORE.heavy>
31

>  <SCORE.norm>
-0.695679

>  <RMSD>
5.947

$$$$
ligand
 OpenBabel11021811473D
libRbt.so/2013.1/901 2013/11/27
 31 33  0  0  0  0  0  0  0  0999 V2000
   25.2706   33.2573   18.0074 P   0  0  1  0  0  0  0  0  0  0  0  0
   25.2874   31.9001   18.6639 O   0  0  0  0  0  0  0  0  0  0  0  0
   24.3077   33.2215   16.8505 O   0  5  0  0  0  0  0  0  0  0  0  0
   24.8509   34.2403   19.0656 O   0  0  0  0  0  0  0  0  0  0  0  0
   27.8441   33.6732   18.2800 C   0  0  0  0  0  0  0  0  0  0  0  0
   26.7074   33.6980   17.4421 O   0  0  0  0  0  0  0  0  0  0  0  0
   29.0764   34.0601   17.4664 C   0  0  1  0  0  0  0  0  0  0  0  0
   29.0590   33.3861   16.2238 O   0  0  0  0  0  0  0  0  0  0  0  0
   29.0847   35.5588   17.2163 C   0  0  1  0  0  0  0  0  0  0  0  0
   27.9101   35.9007   16.5303 O   0  0  0  0  0  0  0  0  0  0  0  0
   29.1557   36.3658   18.5018 C   0  0  1  0  0  0  0  0  0  0  0  0
   29.8983   37.5284   18.2508 O   0  0  0  0  0  0  0  0  0  0  0  0
   27.7651   36.7532   18.9770 C   0  0  0  0  0  0  0  0  0  0  0  0
   27.4546   35.1838   21.2922 N   0  0  0  0  0  0  0  0  0  0  0  0
   27.2383   34.3826   22.3923 C   0  0  0  0  0  0  0  0  0  0  0  0
   27.0839   33.1729   22.2524 O   0  0  0  0  0  0  0  0  0  0  0  0
   27.1908   34.9288   23.6546 N   0  0  0  0  0  0  0  0  0  0  0  0
   27.3716   36.2867   23.8315 C   0  0  0  0  0  0  0  0  0  0  0  0
   27.5897   37.1031   22.7273 C   0  0  1  0  0  0  0  0  0  0  0  0
   27.3469   36.7682   24.9659 O   0  0  0  0  0  0  0  0  0  0  0  0
   27.9878   39.2704   21.7979 C   0  0  2  0  0  0  0  0  0  0  0  0
   27.7693   38.4614   22.8966 N   0  0  0  0  0  0  0  0  0  0  0  0
   28.1690   40.6431   21.9704 C   0  0  0  0  0  0  0  0  0  0  0  0
   28.3843   41.4667   20.8717 C   0  0  1  0  0  0  0  0  0  0  0  0
   28.5709   42.9342   21.0945 C   0  0  0  0  0  0  0  0  0  0  0  0
   28.4244   40.9131   19.5830 C   0  0  1  0  0  0  0  0  0  0  0  0
   28.6639   41.7680   18.3688 C   0  0  0  0  0  0  0  0  0  0  0  0
   28.2416   39.5432   19.4139 C   0  0  0  0  0  0  0  0  0  0  0  0
   28.0211   38.7156   20.5164 C   0  0  1  0  0  0  0  0  0  0  0  0
   27.6267   36.5440   21.4515 C   0  0  1  0  0  0  0  0  0  0  0  0
   27.8364   37.3513   20.3498 N   0  0  0  0  0  0  0  0  0  0  0  0
  1  2  1  1  0  0  0
  1  3  1  0  0  0  0
  1  4  2  0  0  0  0
  1  6  1  0  0  0  0
  5  6  1  0  0  0  0
  7  5  1  1  0  0  0
  7  8  1  0  0  0  0
  7  9  1  0  0  0  0
  9 10  1  1  0  0  0
  9 11  1  0  0  0  0
 11 12  1  6  0  0  0
 11 13  1  0  0  0  0
 13 31  1  0  0  0  0
 14 15  1  0  0  0  0
 15 16  2  0  0  0  0
 15 17  1  0  0  0  0
 17 18  1  0  0  0  0
 18 20  2  0  0  0  0
 19 18  1  1  0  0  0
 19 22  1  0  0  0  0
 19 30  1  0  0  0  0
 21 23  1  6  0  0  0
 21 29  1  0  0  0  0
 21 22  1  0  0  0  0
 23 24  1  0  0  0  0
 24 25  1  1  0  0  0
 24 26  1  0  0  0  0
 26 27  1  1  0  0  0
 26 28  1  0  0  0  0
 29 28  1  1  0  0  0
 29 31  1  0  0  0  0
 30 14  1  1  0  0  0
 30 31  1  0  0  0  0
M  CHG  1   3  -1
M  END
>  <CHROM.1>
176.74681595,-52.71999878,-44.48250806,-58.79506568,146.33787684,170.88465657
89.37701899,27.51615187,36.34896030,19.85840581,2.34896499,-1.21893506,-1.95048534

>  <Name>
ligand

>  <RI>
0

>  <Rbt.Current_Directory>
/home/itssahil/PROJECTS/Mol_Feturizer/New_Systems/rnas/3F2T

>  <Rbt.Executable>
rbdock ($Id: //depot/dev/client3/rdock/2013.1/src/exe/rbdock.cxx#4 $)

>  <Rbt.Library>
libRbt.so (2013.1, Build901 2013/11/27)

>  <Rbt.Parameter_File>
/export/apps/rDock/src/rDock_2013.1_src/data/scripts/dock_solv.prm

>  <Rbt.Receptor>
prm/blind_docking_60.prm

>  <SCORE>
-20.2095

>  <SCORE.INTER>
-22.5939

>  <SCORE.INTER.CONST>
1

>  <SCORE.INTER.POLAR>
0

>  <SCORE.INTER.ROT>
7

>  <SCORE.INTER.SOLV>
12.471

>  <SCORE.INTER.VDW>
-27.4862

>  <SCORE.INTER.norm>
-0.728834

>  <SCORE.INTRA>
2.38433

>  <SCORE.INTRA.DIHEDRAL>
1.1591

>  <SCORE.INTRA.DIHEDRAL.0>
4.64198

>  <SCORE.INTRA.POLAR>
0

>  <SCORE.INTRA.POLAR.0>
0

>  <SCORE.INTRA.REPUL>
0

>  <SCORE.INTRA.REPUL.0>
0

>  <SCORE.INTRA.SOLV>
0.914585

>  <SCORE.INTRA.SOLV.lig_0>
-49.3611

>  <SCORE.INTRA.VDW>
1.34749

>  <SCORE.INTRA.VDW.0>
-1.91858

>  <SCORE.INTRA.norm>
0.0769139

>  <SCORE.RESTR>
0

>  <SCORE.RESTR.CAVITY>
0

>  <SCORE.RESTR.norm>
0

>  <SCORE.SYSTEM>
0

>  <SCORE.SYSTEM.CONST>
0

>  <SCORE.SYSTEM.DIHEDRAL>
0

>  <SCORE.SYSTEM.SOLV>
0

>  <SCORE.SYSTEM.norm>
0

>  <SCORE.heavy>
31

>  <SCORE.norm>
-0.65192

>  <RMSD>
5.964

$$$$
ligand
 OpenBabel11021811473D
libRbt.so/2013.1/901 2013/11/27
 31 33  0  0  0  0  0  0  0  0999 V2000
   31.5311   36.8835   15.7399 P   0  0  1  0  0  0  0  0  0  0  0  0
   32.9781   36.5633   16.0171 O   0  0  0  0  0  0  0  0  0  0  0  0
   31.4685   37.9724   14.7019 O   0  5  0  0  0  0  0  0  0  0  0  0
   30.8932   35.6074   15.2638 O   0  0  0  0  0  0  0  0  0  0  0  0
   31.2964   38.3975   17.8667 C   0  0  0  0  0  0  0  0  0  0  0  0
   30.7417   37.3944   17.0415 O   0  0  0  0  0  0  0  0  0  0  0  0
   30.3657   38.6451   19.0510 C   0  0  1  0  0  0  0  0  0  0  0  0
   31.1088   39.1418   20.1464 O   0  0  0  0  0  0  0  0  0  0  0  0
   29.3024   39.6624   18.6726 C   0  0  1  0  0  0  0  0  0  0  0  0
   28.6098   39.1840   17.5507 O   0  0  0  0  0  0  0  0  0  0  0  0
   28.3082   39.9137   19.7938 C   0  0  1  0  0  0  0  0  0  0  0  0
   27.7183   41.1685   19.5856 O   0  0  0  0  0  0  0  0  0  0  0  0
   27.2250   38.8478   19.8077 C   0  0  0  0  0  0  0  0  0  0  0  0
   27.3520   40.0568   22.3459 N   0  0  0  0  0  0  0  0  0  0  0  0
   27.4703   40.6975   23.5601 C   0  0  0  0  0  0  0  0  0  0  0  0
   27.4047   41.9218   23.6194 O   0  0  0  0  0  0  0  0  0  0  0  0
   27.6649   39.9740   24.7146 N   0  0  0  0  0  0  0  0  0  0  0  0
   27.7319   38.5952   24.6676 C   0  0  0  0  0  0  0  0  0  0  0  0
   27.6143   37.9401   23.4468 C   0  0  1  0  0  0  0  0  0  0  0  0
   27.8875   37.9508   25.7069 O   0  0  0  0  0  0  0  0  0  0  0  0
   27.5633   35.9134   22.1781 C   0  0  2  0  0  0  0  0  0  0  0  0
   27.6823   36.5623   23.3923 N   0  0  0  0  0  0  0  0  0  0  0  0
   27.6323   34.5208   22.1244 C   0  0  0  0  0  0  0  0  0  0  0  0
   27.5190   33.8584   20.9078 C   0  0  1  0  0  0  0  0  0  0  0  0
   27.6013   32.3648   20.8882 C   0  0  0  0  0  0  0  0  0  0  0  0
   27.3293   34.5945   19.7285 C   0  0  1  0  0  0  0  0  0  0  0  0
   27.1929   33.9159   18.3931 C   0  0  0  0  0  0  0  0  0  0  0  0
   27.2625   35.9842   19.7851 C   0  0  0  0  0  0  0  0  0  0  0  0
   27.3803   36.6509   21.0060 C   0  0  1  0  0  0  0  0  0  0  0  0
   27.4272   38.6801   22.2811 C   0  0  1  0  0  0  0  0  0  0  0  0
   27.3164   38.0350   21.0641 N   0  0  0  0  0  0  0  0  0  0  0  0
  1  2  1  1  0  0  0
  1  3  1  0  0  0  0
  1  4  2  0  0  0  0
  1  6  1  0  0  0  0
  5  6  1  0  0  0  0
  7  5  1  6  0  0  0
  7  8  1  0  0  0  0
  7  9  1  0  0  0  0
  9 10  1  6  0  0  0
  9 11  1  0  0  0  0
 11 12  1  6  0  0  0
 11 13  1  0  0  0  0
 13 31  1  0  0  0  0
 14 15  1  0  0  0  0
 15 16  2  0  0  0  0
 15 17  1  0  0  0  0
 17 18  1  0  0  0  0
 18 20  2  0  0  0  0
 19 18  1  1  0  0  0
 19 22  1  0  0  0  0
 19 30  1  0  0  0  0
 21 23  1  6  0  0  0
 21 29  1  0  0  0  0
 21 22  1  0  0  0  0
 23 24  1  0  0  0  0
 24 25  1  1  0  0  0
 24 26  1  0  0  0  0
 26 27  1  1  0  0  0
 26 28  1  0  0  0  0
 29 28  1  1  0  0  0
 29 31  1  0  0  0  0
 30 14  1  1  0  0  0
 30 31  1  0  0  0  0
M  CHG  1   3  -1
M  END
>  <CHROM.1>
-177.75547542,47.99725795,153.79695474,57.18464725,157.53305698,114.65751771
-127.45753843,28.80006153,37.67895279,20.05396491,-0.51539748,1.05282655
0.33553525

>  <Name>
ligand

>  <RI>
0

>  <Rbt.Current_Directory>
/home/itssahil/PROJECTS/Mol_Feturizer/New_Systems/rnas/3F2T

>  <Rbt.Executable>
rbdock ($Id: //depot/dev/client3/rdock/2013.1/src/exe/rbdock.cxx#4 $)

>  <Rbt.Library>
libRbt.so (2013.1, Build901 2013/11/27)

>  <Rbt.Parameter_File>
/export/apps/rDock/src/rDock_2013.1_src/data/scripts/dock_solv.prm

>  <Rbt.Receptor>
prm/pocket_docking_8.prm

>  <SCORE>
-15.0675

>  <SCORE.INTER>
-18.7615

>  <SCORE.INTER.CONST>
1

>  <SCORE.INTER.POLAR>
0

>  <SCORE.INTER.ROT>
7

>  <SCORE.INTER.SOLV>
13.9816

>  <SCORE.INTER.VDW>
-25.4349

>  <SCORE.INTER.norm>
-0.60521

>  <SCORE.INTRA>
3.68521

>  <SCORE.INTRA.DIHEDRAL>
5.89996

>  <SCORE.INTRA.DIHEDRAL.0>
4.64198

>  <SCORE.INTRA.POLAR>
0

>  <SCORE.INTRA.POLAR.0>
0

>  <SCORE.INTRA.REPUL>
0

>  <SCORE.INTRA.REPUL.0>
0

>  <SCORE.INTRA.SOLV>
-0.607431

>  <SCORE.INTRA.SOLV.lig_0>
-49.3611

>  <SCORE.INTRA.VDW>
1.03894

>  <SCORE.INTRA.VDW.0>
-1.91858

>  <SCORE.INTRA.norm>
0.118878

>  <SCORE.RESTR>
0.0088055

>  <SCORE.RESTR.CAVITY>
0.0088055

>  <SCORE.RESTR.norm>
0.000284048

>  <SCORE.SYSTEM>
0

>  <SCORE.SYSTEM.CONST>
0

>  <SCORE.SYSTEM.DIHEDRAL>
0

>  <SCORE.SYSTEM.SOLV>
0

>  <SCORE.SYSTEM.norm>
0

>  <SCORE.heavy>
31

>  <SCORE.norm>
-0.486048

>  <RMSD>
5.974

$$$$
ligand
 OpenBabel11021811473D
libRbt.so/2013.1/901 2013/11/27
 31 33  0  0  0  0  0  0  0  0999 V2000
   25.4650   44.1342   15.9774 P   0  0  1  0  0  0  0  0  0  0  0  0
   26.3673   43.4582   14.9763 O   0  0  0  0  0  0  0  0  0  0  0  0
   25.9313   45.5533   16.1658 O   0  5  0  0  0  0  0  0  0  0  0  0
   24.0719   44.0637   15.4150 O   0  0  0  0  0  0  0  0  0  0  0  0
   26.6805   42.9364   17.9670 C   0  0  0  0  0  0  0  0  0  0  0  0
   25.4728   43.4159   17.4135 O   0  0  0  0  0  0  0  0  0  0  0  0
   26.4363   42.5096   19.4121 C   0  0  1  0  0  0  0  0  0  0  0  0
   25.4894   41.4604   19.4464 O   0  0  0  0  0  0  0  0  0  0  0  0
   27.7338   42.0257   20.0375 C   0  0  1  0  0  0  0  0  0  0  0  0
   28.7082   43.0193   19.8630 O   0  0  0  0  0  0  0  0  0  0  0  0
   27.5932   41.7302   21.5213 C   0  0  1  0  0  0  0  0  0  0  0  0
   26.3715   41.0729   21.7250 O   0  0  0  0  0  0  0  0  0  0  0  0
   28.7264   40.8420   22.0076 C   0  0  0  0  0  0  0  0  0  0  0  0
   28.4777   41.9568   24.5796 N   0  0  0  0  0  0  0  0  0  0  0  0
   28.4280   42.5351   25.8294 C   0  0  0  0  0  0  0  0  0  0  0  0
   28.6591   43.7332   25.9633 O   0  0  0  0  0  0  0  0  0  0  0  0
   28.1221   41.7776   26.9369 N   0  0  0  0  0  0  0  0  0  0  0  0
   27.8502   40.4299   26.8035 C   0  0  0  0  0  0  0  0  0  0  0  0
   27.8987   39.8375   25.5465 C   0  0  1  0  0  0  0  0  0  0  0  0
   27.5583   39.7598   27.7961 O   0  0  0  0  0  0  0  0  0  0  0  0
   27.6769   37.9047   24.1557 C   0  0  2  0  0  0  0  0  0  0  0  0
   27.6299   38.4907   25.4062 N   0  0  0  0  0  0  0  0  0  0  0  0
   27.4052   36.5433   24.0153 C   0  0  0  0  0  0  0  0  0  0  0  0
   27.4547   35.9427   22.7628 C   0  0  1  0  0  0  0  0  0  0  0  0
   27.1610   34.4801   22.6509 C   0  0  0  0  0  0  0  0  0  0  0  0
   27.7749   36.7114   21.6335 C   0  0  1  0  0  0  0  0  0  0  0  0
   27.8302   36.1021   20.2595 C   0  0  0  0  0  0  0  0  0  0  0  0
   28.0472   38.0693   21.7771 C   0  0  0  0  0  0  0  0  0  0  0  0
   28.0018   38.6728   23.0351 C   0  0  1  0  0  0  0  0  0  0  0  0
   28.2187   40.6092   24.4313 C   0  0  1  0  0  0  0  0  0  0  0  0
   28.2750   40.0246   23.1805 N   0  0  0  0  0  0  0  0  0  0  0  0
  1  2  1  6  0  0  0
  1  3  1  0  0  0  0
  1  4  2  0  0  0  0
  1  6  1  0  0  0  0
  5  6  1  0  0  0  0
  7  5  1  6  0  0  0
  7  8  1  0  0  0  0
  7  9  1  0  0  0  0
  9 10  1  1  0  0  0
  9 11  1  0  0  0  0
 11 12  1  6  0  0  0
 11 13  1  0  0  0  0
 13 31  1  0  0  0  0
 14 15  1  0  0  0  0
 15 16  2  0  0  0  0
 15 17  1  0  0  0  0
 17 18  1  0  0  0  0
 18 20  2  0  0  0  0
 19 18  1  6  0  0  0
 19 22  1  0  0  0  0
 19 30  1  0  0  0  0
 21 23  1  1  0  0  0
 21 29  1  0  0  0  0
 21 22  1  0  0  0  0
 23 24  1  0  0  0  0
 24 25  1  6  0  0  0
 24 26  1  0  0  0  0
 26 27  1  6  0  0  0
 26 28  1  0  0  0  0
 29 28  1  6  0  0  0
 29 31  1  0  0  0  0
 30 14  1  6  0  0  0
 30 31  1  0  0  0  0
M  CHG  1   3  -1
M  END
>  <CHROM.1>
171.04465458,40.74027727,61.62652385,53.09990817,41.57588824,-152.08524573
105.35786371,27.21276916,40.91024093,21.50255232,-2.70789927,1.32936479,-3.07548161

>  <Name>
ligand

>  <RI>
0

>  <Rbt.Current_Directory>
/home/itssahil/PROJECTS/Mol_Feturizer/New_Systems/rnas/3F2T

>  <Rbt.Executable>
rbdock ($Id: //depot/dev/client3/rdock/2013.1/src/exe/rbdock.cxx#4 $)

>  <Rbt.Library>
libRbt.so (2013.1, Build901 2013/11/27)

>  <Rbt.Parameter_File>
/export/apps/rDock/src/rDock_2013.1_src/data/scripts/dock_solv.prm

>  <Rbt.Receptor>
prm/blind_docking_60.prm

>  <SCORE>
-27.5562

>  <SCORE.INTER>
-29.1586

>  <SCORE.INTER.CONST>
1

>  <SCORE.INTER.POLAR>
0

>  <SCORE.INTER.ROT>
7

>  <SCORE.INTER.SOLV>
21.1112

>  <SCORE.INTER.VDW>
-34.7428

>  <SCORE.INTER.norm>
-0.9406

>  <SCORE.INTRA>
1.6024

>  <SCORE.INTRA.DIHEDRAL>
1.36086

>  <SCORE.INTRA.DIHEDRAL.0>
4.64198

>  <SCORE.INTRA.POLAR>
0

>  <SCORE.INTRA.POLAR.0>
0

>  <SCORE.INTRA.REPUL>
0

>  <SCORE.INTRA.REPUL.0>
0

>  <SCORE.INTRA.SOLV>
-0.531735

>  <SCORE.INTRA.SOLV.lig_0>
-49.3611

>  <SCORE.INTRA.VDW>
1.18784

>  <SCORE.INTRA.VDW.0>
-1.91858

>  <SCORE.INTRA.norm>
0.0516902

>  <SCORE.RESTR>
0

>  <SCORE.RESTR.CAVITY>
0

>  <SCORE.RESTR.norm>
0

>  <SCORE.SYSTEM>
0

>  <SCORE.SYSTEM.CONST>
0

>  <SCORE.SYSTEM.DIHEDRAL>
0

>  <SCORE.SYSTEM.SOLV>
0

>  <SCORE.SYSTEM.norm>
0

>  <SCORE.heavy>
31

>  <SCORE.norm>
-0.88891

>  <RMSD>
5.978

$$$$
ligand
 OpenBabel11021811473D
libRbt.so/2013.1/901 2013/11/27
 31 33  0  0  0  0  0  0  0  0999 V2000
   27.6581   42.4017   17.0665 P   0  0  1  0  0  0  0  0  0  0  0  0
   28.7481   43.3354   17.5281 O   0  0  0  0  0  0  0  0  0  0  0  0
   26.6874   43.1768   16.2156 O   0  5  0  0  0  0  0  0  0  0  0  0
   28.3342   41.3003   16.2971 O   0  0  0  0  0  0  0  0  0  0  0  0
   26.2519   42.5648   19.2725 C   0  0  0  0  0  0  0  0  0  0  0  0
   26.8377   41.7466   18.2815 O   0  0  0  0  0  0  0  0  0  0  0  0
   25.6172   41.6809   20.3431 C   0  0  1  0  0  0  0  0  0  0  0  0
   24.6447   40.8410   19.7537 O   0  0  0  0  0  0  0  0  0  0  0  0
   26.6805   40.8192   21.0031 C   0  0  1  0  0  0  0  0  0  0  0  0
   27.1560   39.8989   20.0574 O   0  0  0  0  0  0  0  0  0  0  0  0
   27.8508   41.6340   21.5277 C   0  0  1  0  0  0  0  0  0  0  0  0
   27.3826   42.4649   22.5554 O   0  0  0  0  0  0  0  0  0  0  0  0
   28.9412   40.7277   22.0747 C   0  0  0  0  0  0  0  0  0  0  0  0
   28.6643   41.8274   24.6503 N   0  0  0  0  0  0  0  0  0  0  0  0
   28.6025   42.3948   25.9045 C   0  0  0  0  0  0  0  0  0  0  0  0
   28.8860   43.5791   26.0593 O   0  0  0  0  0  0  0  0  0  0  0  0
   28.2259   41.6418   26.9932 N   0  0  0  0  0  0  0  0  0  0  0  0
   27.8946   40.3102   26.8359 C   0  0  0  0  0  0  0  0  0  0  0  0
   27.9548   39.7287   25.5743 C   0  0  1  0  0  0  0  0  0  0  0  0
   27.5398   39.6449   27.8111 O   0  0  0  0  0  0  0  0  0  0  0  0
   27.6856   37.8227   24.1551 C   0  0  2  0  0  0  0  0  0  0  0  0
   27.6269   38.3978   25.4102 N   0  0  0  0  0  0  0  0  0  0  0  0
   27.3540   36.4773   23.9906 C   0  0  0  0  0  0  0  0  0  0  0  0
   27.4147   35.8876   22.7335 C   0  0  1  0  0  0  0  0  0  0  0  0
   27.0555   34.4419   22.5957 C   0  0  0  0  0  0  0  0  0  0  0  0
   27.8068   36.6513   21.6237 C   0  0  1  0  0  0  0  0  0  0  0  0
   27.8767   36.0538   20.2451 C   0  0  0  0  0  0  0  0  0  0  0  0
   28.1386   37.9931   21.7913 C   0  0  0  0  0  0  0  0  0  0  0  0
   28.0821   38.5855   23.0541 C   0  0  1  0  0  0  0  0  0  0  0  0
   28.3463   40.4952   24.4785 C   0  0  1  0  0  0  0  0  0  0  0  0
   28.4145   39.9212   23.2235 N   0  0  0  0  0  0  0  0  0  0  0  0
  1  2  1  1  0  0  0
  1  3  1  0  0  0  0
  1  4  2  0  0  0  0
  1  6  1  0  0  0  0
  5  6  1  0  0  0  0
  7  5  1  6  0  0  0
  7  8  1  0  0  0  0
  7  9  1  0  0  0  0
  9 10  1  6  0  0  0
  9 11  1  0  0  0  0
 11 12  1  1  0  0  0
 11 13  1  0  0  0  0
 13 31  1  0  0  0  0
 14 15  1  0  0  0  0
 15 16  2  0  0  0  0
 15 17  1  0  0  0  0
 17 18  1  0  0  0  0
 18 20  2  0  0  0  0
 19 18  1  6  0  0  0
 19 22  1  0  0  0  0
 19 30  1  0  0  0  0
 21 23  1  1  0  0  0
 21 29  1  0  0  0  0
 21 22  1  0  0  0  0
 23 24  1  0  0  0  0
 24 25  1  6  0  0  0
 24 26  1  0  0  0  0
 26 27  1  6  0  0  0
 26 28  1  0  0  0  0
 29 28  1  6  0  0  0
 29 31  1  0  0  0  0
 30 14  1  6  0  0  0
 30 31  1  0  0  0  0
M  CHG  1   3  -1
M  END
>  <CHROM.1>
-176.42350023,53.56525235,-58.64419263,-67.43004435,64.87729520,-61.56175412
103.10066053,27.60686762,40.33093481,21.88999286,-2.26735957,1.43731018,2.59173574

>  <Name>
ligand

>  <RI>
0

>  <Rbt.Current_Directory>
/home/itssahil/PROJECTS/Mol_Feturizer/New_Systems/rnas/3F2T

>  <Rbt.Executable>
rbdock ($Id: //depot/dev/client3/rdock/2013.1/src/exe/rbdock.cxx#4 $)

>  <Rbt.Library>
libRbt.so (2013.1, Build901 2013/11/27)

>  <Rbt.Parameter_File>
/export/apps/rDock/src/rDock_2013.1_src/data/scripts/dock_solv.prm

>  <Rbt.Receptor>
prm/blind_docking_60.prm

>  <SCORE>
-28.5195

>  <SCORE.INTER>
-28.1298

>  <SCORE.INTER.CONST>
1

>  <SCORE.INTER.POLAR>
0

>  <SCORE.INTER.ROT>
7

>  <SCORE.INTER.SOLV>
16.6288

>  <SCORE.INTER.VDW>
-32.5628

>  <SCORE.INTER.norm>
-0.907413

>  <SCORE.INTRA>
-0.389658

>  <SCORE.INTRA.DIHEDRAL>
-2.87308

>  <SCORE.INTRA.DIHEDRAL.0>
4.64198

>  <SCORE.INTRA.POLAR>
0

>  <SCORE.INTRA.POLAR.0>
0

>  <SCORE.INTRA.REPUL>
0

>  <SCORE.INTRA.REPUL.0>
0

>  <SCORE.INTRA.SOLV>
0.567904

>  <SCORE.INTRA.SOLV.lig_0>
-49.3611

>  <SCORE.INTRA.VDW>
0.76293

>  <SCORE.INTRA.VDW.0>
-1.91858

>  <SCORE.INTRA.norm>
-0.0125696

>  <SCORE.RESTR>
0

>  <SCORE.RESTR.CAVITY>
0

>  <SCORE.RESTR.norm>
0

>  <SCORE.SYSTEM>
0

>  <SCORE.SYSTEM.CONST>
0

>  <SCORE.SYSTEM.DIHEDRAL>
0

>  <SCORE.SYSTEM.SOLV>
0

>  <SCORE.SYSTEM.norm>
0

>  <SCORE.heavy>
31

>  <SCORE.norm>
-0.919983

>  <RMSD>
5.989

$$$$
ligand
 OpenBabel11021811473D
libRbt.so/2013.1/901 2013/11/27
 31 33  0  0  0  0  0  0  0  0999 V2000
   29.5661   43.4519   25.2595 P   0  0  1  0  0  0  0  0  0  0  0  0
   30.6144   44.1007   26.1274 O   0  0  0  0  0  0  0  0  0  0  0  0
   29.5660   41.9706   25.5291 O   0  5  0  0  0  0  0  0  0  0  0  0
   28.2546   44.0948   25.6182 O   0  0  0  0  0  0  0  0  0  0  0  0
   28.7973   43.4396   22.7536 C   0  0  0  0  0  0  0  0  0  0  0  0
   29.8290   43.6694   23.6904 O   0  0  0  0  0  0  0  0  0  0  0  0
   28.4763   41.9477   22.7157 C   0  0  1  0  0  0  0  0  0  0  0  0
   27.6150   41.6174   23.7871 O   0  0  0  0  0  0  0  0  0  0  0  0
   27.7927   41.5962   21.4050 C   0  0  1  0  0  0  0  0  0  0  0  0
   28.6441   41.9561   20.3500 O   0  0  0  0  0  0  0  0  0  0  0  0
   27.4694   40.1158   21.2927 C   0  0  1  0  0  0  0  0  0  0  0  0
   26.9158   39.8814   20.0260 O   0  0  0  0  0  0  0  0  0  0  0  0
   28.7233   39.2727   21.4545 C   0  0  0  0  0  0  0  0  0  0  0  0
   27.4224   37.5690   23.2781 N   0  0  0  0  0  0  0  0  0  0  0  0
   26.8356   36.7606   24.2272 C   0  0  0  0  0  0  0  0  0  0  0  0
   26.4705   37.2344   25.2992 O   0  0  0  0  0  0  0  0  0  0  0  0
   26.6554   35.4179   23.9851 N   0  0  0  0  0  0  0  0  0  0  0  0
   27.0519   34.8697   22.7808 C   0  0  0  0  0  0  0  0  0  0  0  0
   27.6456   35.6775   21.8174 C   0  0  1  0  0  0  0  0  0  0  0  0
   26.8712   33.6702   22.5615 O   0  0  0  0  0  0  0  0  0  0  0  0
   28.6341   35.9410   19.6556 C   0  0  2  0  0  0  0  0  0  0  0  0
   28.0459   35.1358   20.6123 N   0  0  0  0  0  0  0  0  0  0  0  0
   29.0384   35.3922   18.4382 C   0  0  0  0  0  0  0  0  0  0  0  0
   29.6357   36.1921   17.4710 C   0  0  1  0  0  0  0  0  0  0  0  0
   30.0595   35.5685   16.1790 C   0  0  0  0  0  0  0  0  0  0  0  0
   29.8281   37.5596   17.7193 C   0  0  1  0  0  0  0  0  0  0  0  0
   30.4622   38.4613   16.6960 C   0  0  0  0  0  0  0  0  0  0  0  0
   29.4252   38.1039   18.9359 C   0  0  0  0  0  0  0  0  0  0  0  0
   28.8290   37.3007   19.9097 C   0  0  1  0  0  0  0  0  0  0  0  0
   27.8334   37.0342   22.0738 C   0  0  1  0  0  0  0  0  0  0  0  0
   28.4290   37.8405   21.1229 N   0  0  0  0  0  0  0  0  0  0  0  0
  1  2  1  1  0  0  0
  1  3  1  0  0  0  0
  1  4  2  0  0  0  0
  1  6  1  0  0  0  0
  5  6  1  0  0  0  0
  7  5  1  6  0  0  0
  7  8  1  0  0  0  0
  7  9  1  0  0  0  0
  9 10  1  6  0  0  0
  9 11  1  0  0  0  0
 11 12  1  6  0  0  0
 11 13  1  0  0  0  0
 13 31  1  0  0  0  0
 14 15  1  0  0  0  0
 15 16  2  0  0  0  0
 15 17  1  0  0  0  0
 17 18  1  0  0  0  0
 18 20  2  0  0  0  0
 19 18  1  6  0  0  0
 19 22  1  0  0  0  0
 19 30  1  0  0  0  0
 21 23  1  1  0  0  0
 21 29  1  0  0  0  0
 21 22  1  0  0  0  0
 23 24  1  0  0  0  0
 24 25  1  6  0  0  0
 24 26  1  0  0  0  0
 26 27  1  6  0  0  0
 26 28  1  0  0  0  0
 29 28  1  6  0  0  0
 29 31  1  0  0  0  0
 30 14  1  6  0  0  0
 30 31  1  0  0  0  0
M  CHG  1   3  -1
M  END
>  <CHROM.1>
-67.67644079,-163.72423524,81.53889160,58.33402726,-176.62670770,-170.88196239
103.26927586,28.48130767,39.14108133,21.95302952,-1.41596177,-1.16269288
-2.38012691

>  <Name>
ligand

>  <RI>
0

>  <Rbt.Current_Directory>
/home/itssahil/PROJECTS/Mol_Feturizer/New_Systems/rnas/3F2T

>  <Rbt.Executable>
rbdock ($Id: //depot/dev/client3/rdock/2013.1/src/exe/rbdock.cxx#4 $)

>  <Rbt.Library>
libRbt.so (2013.1, Build901 2013/11/27)

>  <Rbt.Parameter_File>
/export/apps/rDock/src/rDock_2013.1_src/data/scripts/dock_solv.prm

>  <Rbt.Receptor>
prm/blind_docking_80.prm

>  <SCORE>
-28.1997

>  <SCORE.INTER>
-30.1373

>  <SCORE.INTER.CONST>
1

>  <SCORE.INTER.POLAR>
0

>  <SCORE.INTER.ROT>
7

>  <SCORE.INTER.SOLV>
18.4507

>  <SCORE.INTER.VDW>
-34.5084

>  <SCORE.INTER.norm>
-0.97217

>  <SCORE.INTRA>
1.93753

>  <SCORE.INTRA.DIHEDRAL>
-0.805429

>  <SCORE.INTRA.DIHEDRAL.0>
4.64198

>  <SCORE.INTRA.POLAR>
0

>  <SCORE.INTRA.POLAR.0>
0

>  <SCORE.INTRA.REPUL>
0

>  <SCORE.INTRA.REPUL.0>
0

>  <SCORE.INTRA.SOLV>
3.54005

>  <SCORE.INTRA.SOLV.lig_0>
-49.3611

>  <SCORE.INTRA.VDW>
0.570224

>  <SCORE.INTRA.VDW.0>
-1.91858

>  <SCORE.INTRA.norm>
0.0625011

>  <SCORE.RESTR>
0

>  <SCORE.RESTR.CAVITY>
0

>  <SCORE.RESTR.norm>
0

>  <SCORE.SYSTEM>
0

>  <SCORE.SYSTEM.CONST>
0

>  <SCORE.SYSTEM.DIHEDRAL>
0

>  <SCORE.SYSTEM.SOLV>
0

>  <SCORE.SYSTEM.norm>
0

>  <SCORE.heavy>
31

>  <SCORE.norm>
-0.909668

>  <RMSD>
6.004

$$$$
ligand
 OpenBabel11021811473D
libRbt.so/2013.1/901 2013/11/27
 31 33  0  0  0  0  0  0  0  0999 V2000
   31.0019   36.7852   15.3187 P   0  0  1  0  0  0  0  0  0  0  0  0
   30.6022   35.7761   14.2721 O   0  0  0  0  0  0  0  0  0  0  0  0
   31.5385   36.0496   16.5178 O   0  5  0  0  0  0  0  0  0  0  0  0
   32.0385   37.6720   14.6854 O   0  0  0  0  0  0  0  0  0  0  0  0
   29.9856   38.7341   16.7467 C   0  0  0  0  0  0  0  0  0  0  0  0
   29.7764   37.7006   15.8071 O   0  0  0  0  0  0  0  0  0  0  0  0
   29.4468   38.2944   18.1056 C   0  0  1  0  0  0  0  0  0  0  0  0
   30.0851   37.0988   18.5080 O   0  0  0  0  0  0  0  0  0  0  0  0
   29.7136   39.3713   19.1438 C   0  0  1  0  0  0  0  0  0  0  0  0
   28.9928   40.5203   18.7866 O   0  0  0  0  0  0  0  0  0  0  0  0
   29.3021   38.9484   20.5440 C   0  0  1  0  0  0  0  0  0  0  0  0
   29.6283   39.9849   21.4301 O   0  0  0  0  0  0  0  0  0  0  0  0
   27.8075   38.6826   20.6135 C   0  0  0  0  0  0  0  0  0  0  0  0
   27.2682   39.8676   23.1084 N   0  0  0  0  0  0  0  0  0  0  0  0
   27.0689   40.4931   24.3200 C   0  0  0  0  0  0  0  0  0  0  0  0
   27.0609   41.7188   24.3864 O   0  0  0  0  0  0  0  0  0  0  0  0
   26.8797   39.7527   25.4645 N   0  0  0  0  0  0  0  0  0  0  0  0
   26.8765   38.3727   25.4068 C   0  0  0  0  0  0  0  0  0  0  0  0
   27.0776   37.7328   24.1888 C   0  0  1  0  0  0  0  0  0  0  0  0
   26.6879   37.7143   26.4317 O   0  0  0  0  0  0  0  0  0  0  0  0
   27.2757   35.7201   22.9123 C   0  0  2  0  0  0  0  0  0  0  0  0
   27.0775   36.3538   24.1242 N   0  0  0  0  0  0  0  0  0  0  0  0
   27.2754   34.3263   22.8484 C   0  0  0  0  0  0  0  0  0  0  0  0
   27.4790   33.6787   21.6355 C   0  0  1  0  0  0  0  0  0  0  0  0
   27.4758   32.1831   21.6057 C   0  0  0  0  0  0  0  0  0  0  0  0
   27.6806   34.4316   20.4688 C   0  0  1  0  0  0  0  0  0  0  0  0
   27.8954   33.7700   19.1352 C   0  0  0  0  0  0  0  0  0  0  0  0
   27.6820   35.8224   20.5361 C   0  0  0  0  0  0  0  0  0  0  0  0
   27.4818   36.4738   21.7545 C   0  0  1  0  0  0  0  0  0  0  0  0
   27.2781   38.4893   23.0360 C   0  0  1  0  0  0  0  0  0  0  0  0
   27.4851   37.8589   21.8239 N   0  0  0  0  0  0  0  0  0  0  0  0
  1  2  1  6  0  0  0
  1  3  1  0  0  0  0
  1  4  2  0  0  0  0
  1  6  1  0  0  0  0
  5  6  1  0  0  0  0
  7  5  1  6  0  0  0
  7  8  1  0  0  0  0
  7  9  1  0  0  0  0
  9 10  1  6  0  0  0
  9 11  1  0  0  0  0
 11 12  1  1  0  0  0
 11 13  1  0  0  0  0
 13 31  1  0  0  0  0
 14 15  1  0  0  0  0
 15 16  2  0  0  0  0
 15 17  1  0  0  0  0
 17 18  1  0  0  0  0
 18 20  2  0  0  0  0
 19 18  1  6  0  0  0
 19 22  1  0  0  0  0
 19 30  1  0  0  0  0
 21 23  1  1  0  0  0
 21 29  1  0  0  0  0
 21 22  1  0  0  0  0
 23 24  1  0  0  0  0
 24 25  1  6  0  0  0
 24 26  1  0  0  0  0
 26 27  1  6  0  0  0
 26 28  1  0  0  0  0
 29 28  1  6  0  0  0
 29 31  1  0  0  0  0
 30 14  1  6  0  0  0
 30 31  1  0  0  0  0
M  CHG  1   3  -1
M  END
>  <CHROM.1>
-104.89276808,-177.48785176,57.79489310,64.08796656,178.02283718,161.62347752
-89.96118402,28.60072919,37.44900888,20.40724782,-0.42639145,1.12814652,0.30874825

>  <Name>
ligand

>  <RI>
0

>  <Rbt.Current_Directory>
/home/itssahil/PROJECTS/Mol_Feturizer/New_Systems/rnas/3F2T

>  <Rbt.Executable>
rbdock ($Id: //depot/dev/client3/rdock/2013.1/src/exe/rbdock.cxx#4 $)

>  <Rbt.Library>
libRbt.so (2013.1, Build901 2013/11/27)

>  <Rbt.Parameter_File>
/export/apps/rDock/src/rDock_2013.1_src/data/scripts/dock_solv.prm

>  <Rbt.Receptor>
prm/blind_docking_100.prm

>  <SCORE>
-22.2019

>  <SCORE.INTER>
-24.8311

>  <SCORE.INTER.CONST>
1

>  <SCORE.INTER.POLAR>
0

>  <SCORE.INTER.ROT>
7

>  <SCORE.INTER.SOLV>
16.4153

>  <SCORE.INTER.VDW>
-30.2925

>  <SCORE.INTER.norm>
-0.801002

>  <SCORE.INTRA>
2.62914

>  <SCORE.INTRA.DIHEDRAL>
3.78376

>  <SCORE.INTRA.DIHEDRAL.0>
4.64198

>  <SCORE.INTRA.POLAR>
0

>  <SCORE.INTRA.POLAR.0>
0

>  <SCORE.INTRA.REPUL>
0

>  <SCORE.INTRA.REPUL.0>
0

>  <SCORE.INTRA.SOLV>
2.1146

>  <SCORE.INTRA.SOLV.lig_0>
-49.3611

>  <SCORE.INTRA.VDW>
-0.320038

>  <SCORE.INTRA.VDW.0>
-1.91858

>  <SCORE.INTRA.norm>
0.084811

>  <SCORE.RESTR>
0

>  <SCORE.RESTR.CAVITY>
0

>  <SCORE.RESTR.norm>
0

>  <SCORE.SYSTEM>
0

>  <SCORE.SYSTEM.CONST>
0

>  <SCORE.SYSTEM.DIHEDRAL>
0

>  <SCORE.SYSTEM.SOLV>
0

>  <SCORE.SYSTEM.norm>
0

>  <SCORE.heavy>
31

>  <SCORE.norm>
-0.716191

>  <RMSD>
6.022

$$$$
ligand
 OpenBabel11021811473D
libRbt.so/2013.1/901 2013/11/27
 31 33  0  0  0  0  0  0  0  0999 V2000
   25.8565   43.3786   16.8335 P   0  0  1  0  0  0  0  0  0  0  0  0
   27.0237   44.0506   17.5113 O   0  0  0  0  0  0  0  0  0  0  0  0
   24.8783   44.4365   16.3966 O   0  5  0  0  0  0  0  0  0  0  0  0
   26.4205   42.6108   15.6697 O   0  0  0  0  0  0  0  0  0  0  0  0
   25.7966   41.4036   18.5558 C   0  0  0  0  0  0  0  0  0  0  0  0
   25.0798   42.3526   17.7939 O   0  0  0  0  0  0  0  0  0  0  0  0
   26.4267   42.0986   19.7600 C   0  0  1  0  0  0  0  0  0  0  0  0
   25.4176   42.4757   20.6756 O   0  0  0  0  0  0  0  0  0  0  0  0
   27.3977   41.1580   20.4536 C   0  0  1  0  0  0  0  0  0  0  0  0
   28.2882   40.6533   19.4947 O   0  0  0  0  0  0  0  0  0  0  0  0
   28.1939   41.8444   21.5508 C   0  0  1  0  0  0  0  0  0  0  0  0
   27.3031   42.2408   22.5583 O   0  0  0  0  0  0  0  0  0  0  0  0
   29.2293   40.9014   22.1409 C   0  0  0  0  0  0  0  0  0  0  0  0
   28.9833   42.0014   24.7196 N   0  0  0  0  0  0  0  0  0  0  0  0
   28.9385   42.5642   25.9766 C   0  0  0  0  0  0  0  0  0  0  0  0
   29.2961   43.7265   26.1442 O   0  0  0  0  0  0  0  0  0  0  0  0
   28.4963   41.8309   27.0539 N   0  0  0  0  0  0  0  0  0  0  0  0
   28.0814   40.5246   26.8821 C   0  0  0  0  0  0  0  0  0  0  0  0
   28.1238   39.9481   25.6176 C   0  0  1  0  0  0  0  0  0  0  0  0
   27.6684   39.8781   27.8470 O   0  0  0  0  0  0  0  0  0  0  0  0
   27.7537   38.0722   24.1810 C   0  0  2  0  0  0  0  0  0  0  0  0
   27.7125   38.6424   25.4390 N   0  0  0  0  0  0  0  0  0  0  0  0
   27.3378   36.7524   24.0019 C   0  0  0  0  0  0  0  0  0  0  0  0
   27.3801   36.1675   22.7418 C   0  0  1  0  0  0  0  0  0  0  0  0
   26.9296   34.7493   22.5882 C   0  0  0  0  0  0  0  0  0  0  0  0
   27.8388   36.9106   21.6436 C   0  0  1  0  0  0  0  0  0  0  0  0
   27.8918   36.3181   20.2621 C   0  0  0  0  0  0  0  0  0  0  0  0
   28.2548   38.2269   21.8258 C   0  0  0  0  0  0  0  0  0  0  0  0
   28.2167   38.8141   23.0917 C   0  0  1  0  0  0  0  0  0  0  0  0
   28.5820   40.6939   24.5335 C   0  0  1  0  0  0  0  0  0  0  0  0
   28.6327   40.1242   23.2756 N   0  0  0  0  0  0  0  0  0  0  0  0
  1  2  1  1  0  0  0
  1  3  1  0  0  0  0
  1  4  2  0  0  0  0
  1  6  1  0  0  0  0
  5  6  1  0  0  0  0
  7  5  1  6  0  0  0
  7  8  1  0  0  0  0
  7  9  1  0  0  0  0
  9 10  1  6  0  0  0
  9 11  1  0  0  0  0
 11 12  1  1  0  0  0
 11 13  1  0  0  0  0
 13 31  1  0  0  0  0
 14 15  1  0  0  0  0
 15 16  2  0  0  0  0
 15 17  1  0  0  0  0
 17 18  1  0  0  0  0
 18 20  2  0  0  0  0
 19 18  1  6  0  0  0
 19 22  1  0  0  0  0
 19 30  1  0  0  0  0
 21 23  1  1  0  0  0
 21 29  1  0  0  0  0
 21 22  1  0  0  0  0
 23 24  1  0  0  0  0
 24 25  1  6  0  0  0
 24 26  1  0  0  0  0
 26 27  1  6  0  0  0
 26 28  1  0  0  0  0
 29 28  1  6  0  0  0
 29 31  1  0  0  0  0
 30 14  1  6  0  0  0
 30 31  1  0  0  0  0
M  CHG  1   3  -1
M  END
>  <CHROM.1>
76.83500217,-47.76181022,70.05424022,51.95754771,64.76197276,-88.74134550
101.05871787,27.41577001,40.73224607,21.82101597,-2.76906162,1.30529060,-3.12379592

>  <Name>
ligand

>  <RI>
0

>  <Rbt.Current_Directory>
/home/itssahil/PROJECTS/Mol_Feturizer/New_Systems/rnas/3F2T

>  <Rbt.Executable>
rbdock ($Id: //depot/dev/client3/rdock/2013.1/src/exe/rbdock.cxx#4 $)

>  <Rbt.Library>
libRbt.so (2013.1, Build901 2013/11/27)

>  <Rbt.Parameter_File>
/export/apps/rDock/src/rDock_2013.1_src/data/scripts/dock_solv.prm

>  <Rbt.Receptor>
prm/blind_docking_80.prm

>  <SCORE>
-26.1449

>  <SCORE.INTER>
-27.0449

>  <SCORE.INTER.CONST>
1

>  <SCORE.INTER.POLAR>
0

>  <SCORE.INTER.ROT>
7

>  <SCORE.INTER.SOLV>
17.4939

>  <SCORE.INTER.VDW>
-32.1279

>  <SCORE.INTER.norm>
-0.872417

>  <SCORE.INTRA>
0.900052

>  <SCORE.INTRA.DIHEDRAL>
1.3412

>  <SCORE.INTRA.DIHEDRAL.0>
4.64198

>  <SCORE.INTRA.POLAR>
0

>  <SCORE.INTRA.POLAR.0>
0

>  <SCORE.INTRA.REPUL>
0

>  <SCORE.INTRA.REPUL.0>
0

>  <SCORE.INTRA.SOLV>
0.513786

>  <SCORE.INTRA.SOLV.lig_0>
-49.3611

>  <SCORE.INTRA.VDW>
-0.0274392

>  <SCORE.INTRA.VDW.0>
-1.91858

>  <SCORE.INTRA.norm>
0.0290339

>  <SCORE.RESTR>
0

>  <SCORE.RESTR.CAVITY>
0

>  <SCORE.RESTR.norm>
0

>  <SCORE.SYSTEM>
0

>  <SCORE.SYSTEM.CONST>
0

>  <SCORE.SYSTEM.DIHEDRAL>
0

>  <SCORE.SYSTEM.SOLV>
0

>  <SCORE.SYSTEM.norm>
0

>  <SCORE.heavy>
31

>  <SCORE.norm>
-0.843383

>  <RMSD>
6.026

$$$$
ligand
 OpenBabel11021811473D
libRbt.so/2013.1/901 2013/11/27
 31 33  0  0  0  0  0  0  0  0999 V2000
   31.7280   37.5822   17.3591 P   0  0  1  0  0  0  0  0  0  0  0  0
   32.6271   38.2839   18.3452 O   0  0  0  0  0  0  0  0  0  0  0  0
   31.0120   38.6201   16.5361 O   0  5  0  0  0  0  0  0  0  0  0  0
   32.6148   36.7042   16.5197 O   0  0  0  0  0  0  0  0  0  0  0  0
   29.7922   35.8162   17.2945 C   0  0  0  0  0  0  0  0  0  0  0  0
   30.6197   36.6608   18.0669 O   0  0  0  0  0  0  0  0  0  0  0  0
   28.9048   36.6703   16.3927 C   0  0  1  0  0  0  0  0  0  0  0  0
   28.7749   36.0527   15.1276 O   0  0  0  0  0  0  0  0  0  0  0  0
   27.5261   36.8219   17.0131 C   0  0  1  0  0  0  0  0  0  0  0  0
   27.2264   35.6486   17.7208 O   0  0  0  0  0  0  0  0  0  0  0  0
   27.4391   38.0047   17.9629 C   0  0  1  0  0  0  0  0  0  0  0  0
   26.1206   38.0968   18.4310 O   0  0  0  0  0  0  0  0  0  0  0  0
   28.3777   37.8223   19.1441 C   0  0  0  0  0  0  0  0  0  0  0  0
   28.6940   40.5588   18.5684 N   0  0  0  0  0  0  0  0  0  0  0  0
   28.9192   41.8813   18.2536 C   0  0  0  0  0  0  0  0  0  0  0  0
   29.2348   42.1972   17.1102 O   0  0  0  0  0  0  0  0  0  0  0  0
   28.7956   42.8581   19.2152 N   0  0  0  0  0  0  0  0  0  0  0  0
   28.4324   42.5217   20.5047 C   0  0  0  0  0  0  0  0  0  0  0  0
   28.2038   41.1897   20.8318 C   0  0  1  0  0  0  0  0  0  0  0  0
   28.3046   43.4024   21.3577 O   0  0  0  0  0  0  0  0  0  0  0  0
   27.6138   39.5221   22.4412 C   0  0  2  0  0  0  0  0  0  0  0  0
   27.8423   40.8463   22.1191 N   0  0  0  0  0  0  0  0  0  0  0  0
   27.2486   39.1763   23.7427 C   0  0  0  0  0  0  0  0  0  0  0  0
   27.0215   37.8469   24.0788 C   0  0  1  0  0  0  0  0  0  0  0  0
   26.6350   37.5131   25.4849 C   0  0  0  0  0  0  0  0  0  0  0  0
   27.1555   36.8485   23.1021 C   0  0  1  0  0  0  0  0  0  0  0  0
   26.9099   35.3995   23.4222 C   0  0  0  0  0  0  0  0  0  0  0  0
   27.5217   37.1965   21.8046 C   0  0  0  0  0  0  0  0  0  0  0  0
   27.7541   38.5310   21.4669 C   0  0  1  0  0  0  0  0  0  0  0  0
   28.3405   40.2055   19.8550 C   0  0  1  0  0  0  0  0  0  0  0  0
   28.1211   38.8794   20.1757 N   0  0  0  0  0  0  0  0  0  0  0  0
  1  2  1  1  0  0  0
  1  3  1  0  0  0  0
  1  4  2  0  0  0  0
  1  6  1  0  0  0  0
  5  6  1  0  0  0  0
  7  5  1  1  0  0  0
  7  8  1  0  0  0  0
  7  9  1  0  0  0  0
  9 10  1  1  0  0  0
  9 11  1  0  0  0  0
 11 12  1  1  0  0  0
 11 13  1  0  0  0  0
 13 31  1  0  0  0  0
 14 15  1  0  0  0  0
 15 16  2  0  0  0  0
 15 17  1  0  0  0  0
 17 18  1  0  0  0  0
 18 20  2  0  0  0  0
 19 18  1  6  0  0  0
 19 22  1  0  0  0  0
 19 30  1  0  0  0  0
 21 23  1  1  0  0  0
 21 29  1  0  0  0  0
 21 22  1  0  0  0  0
 23 24  1  0  0  0  0
 24 25  1  6  0  0  0
 24 26  1  0  0  0  0
 26 27  1  6  0  0  0
 26 28  1  0  0  0  0
 29 28  1  6  0  0  0
 29 31  1  0  0  0  0
 30 14  1  6  0  0  0
 30 31  1  0  0  0  0
M  CHG  1   3  -1
M  END
>  <CHROM.1>
-64.77701608,-172.86935926,141.26175946,-32.69391640,177.24803714,-170.88918869
120.90313429,28.75559162,38.59976016,19.44563445,0.40711967,-1.07384715,-2.97785099

>  <Name>
ligand

>  <RI>
0

>  <Rbt.Current_Directory>
/home/itssahil/PROJECTS/Mol_Feturizer/New_Systems/rnas/3F2T

>  <Rbt.Executable>
rbdock ($Id: //depot/dev/client3/rdock/2013.1/src/exe/rbdock.cxx#4 $)

>  <Rbt.Library>
libRbt.so (2013.1, Build901 2013/11/27)

>  <Rbt.Parameter_File>
/export/apps/rDock/src/rDock_2013.1_src/data/scripts/dock_solv.prm

>  <Rbt.Receptor>
prm/blind_docking_80.prm

>  <SCORE>
-16.926

>  <SCORE.INTER>
-23.0358

>  <SCORE.INTER.CONST>
1

>  <SCORE.INTER.POLAR>
0

>  <SCORE.INTER.ROT>
7

>  <SCORE.INTER.SOLV>
13.4653

>  <SCORE.INTER.VDW>
-28.1123

>  <SCORE.INTER.norm>
-0.743091

>  <SCORE.INTRA>
6.10985

>  <SCORE.INTRA.DIHEDRAL>
3.19716

>  <SCORE.INTRA.DIHEDRAL.0>
4.64198

>  <SCORE.INTRA.POLAR>
0

>  <SCORE.INTRA.POLAR.0>
0

>  <SCORE.INTRA.REPUL>
0

>  <SCORE.INTRA.REPUL.0>
0

>  <SCORE.INTRA.SOLV>
4.00518

>  <SCORE.INTRA.SOLV.lig_0>
-49.3611

>  <SCORE.INTRA.VDW>
2.50868

>  <SCORE.INTRA.VDW.0>
-1.91858

>  <SCORE.INTRA.norm>
0.197092

>  <SCORE.RESTR>
0

>  <SCORE.RESTR.CAVITY>
0

>  <SCORE.RESTR.norm>
0

>  <SCORE.SYSTEM>
0

>  <SCORE.SYSTEM.CONST>
0

>  <SCORE.SYSTEM.DIHEDRAL>
0

>  <SCORE.SYSTEM.SOLV>
0

>  <SCORE.SYSTEM.norm>
0

>  <SCORE.heavy>
31

>  <SCORE.norm>
-0.545999

>  <RMSD>
6.027

$$$$
ligand
 OpenBabel11021811473D
libRbt.so/2013.1/901 2013/11/27
 31 33  0  0  0  0  0  0  0  0999 V2000
   31.1788   32.8664   15.4857 P   0  0  1  0  0  0  0  0  0  0  0  0
   31.5524   32.1602   16.7644 O   0  0  0  0  0  0  0  0  0  0  0  0
   32.2608   32.6242   14.4671 O   0  5  0  0  0  0  0  0  0  0  0  0
   29.8546   32.2991   15.0538 O   0  0  0  0  0  0  0  0  0  0  0  0
   29.9922   34.9791   16.4853 C   0  0  0  0  0  0  0  0  0  0  0  0
   31.0188   34.4535   15.6700 O   0  0  0  0  0  0  0  0  0  0  0  0
   29.9628   36.4983   16.3391 C   0  0  1  0  0  0  0  0  0  0  0  0
   29.9528   36.8459   14.9688 O   0  0  0  0  0  0  0  0  0  0  0  0
   28.7159   37.0601   17.0011 C   0  0  1  0  0  0  0  0  0  0  0  0
   27.6115   36.3048   16.5805 O   0  0  0  0  0  0  0  0  0  0  0  0
   28.7903   37.0192   18.5182 C   0  0  1  0  0  0  0  0  0  0  0  0
   29.9189   37.7462   18.9229 O   0  0  0  0  0  0  0  0  0  0  0  0
   27.5483   37.6365   19.1394 C   0  0  0  0  0  0  0  0  0  0  0  0
   27.4561   35.5502   21.0259 N   0  0  0  0  0  0  0  0  0  0  0  0
   27.3430   34.5044   21.9160 C   0  0  0  0  0  0  0  0  0  0  0  0
   27.1565   33.3630   21.5047 O   0  0  0  0  0  0  0  0  0  0  0  0
   27.4352   34.7283   23.2708 N   0  0  0  0  0  0  0  0  0  0  0  0
   27.6541   36.0048   23.7508 C   0  0  0  0  0  0  0  0  0  0  0  0
   27.7688   37.0664   22.8602 C   0  0  1  0  0  0  0  0  0  0  0  0
   27.7547   36.1972   24.9642 O   0  0  0  0  0  0  0  0  0  0  0  0
   28.1011   39.3983   22.4461 C   0  0  2  0  0  0  0  0  0  0  0  0
   27.9857   38.3451   23.3332 N   0  0  0  0  0  0  0  0  0  0  0  0
   28.3202   40.6902   22.9254 C   0  0  0  0  0  0  0  0  0  0  0  0
   28.4327   41.7575   22.0421 C   0  0  1  0  0  0  0  0  0  0  0  0
   28.6639   43.1292   22.5924 C   0  0  0  0  0  0  0  0  0  0  0  0
   28.3304   41.5327   20.6609 C   0  0  1  0  0  0  0  0  0  0  0  0
   28.4554   42.6584   19.6713 C   0  0  0  0  0  0  0  0  0  0  0  0
   28.1101   40.2426   20.1857 C   0  0  0  0  0  0  0  0  0  0  0  0
   27.9927   39.1705   21.0722 C   0  0  1  0  0  0  0  0  0  0  0  0
   27.6645   36.8332   21.4904 C   0  0  1  0  0  0  0  0  0  0  0  0
   27.7710   37.8852   20.6009 N   0  0  0  0  0  0  0  0  0  0  0  0
  1  2  1  1  0  0  0
  1  3  1  0  0  0  0
  1  4  2  0  0  0  0
  1  6  1  0  0  0  0
  5  6  1  0  0  0  0
  7  5  1  6  0  0  0
  7  8  1  0  0  0  0
  7  9  1  0  0  0  0
  9 10  1  6  0  0  0
  9 11  1  0  0  0  0
 11 12  1  1  0  0  0
 11 13  1  0  0  0  0
 13 31  1  0  0  0  0
 14 15  1  0  0  0  0
 15 16  2  0  0  0  0
 15 17  1  0  0  0  0
 17 18  1  0  0  0  0
 18 20  2  0  0  0  0
 19 18  1  6  0  0  0
 19 22  1  0  0  0  0
 19 30  1  0  0  0  0
 21 23  1  1  0  0  0
 21 29  1  0  0  0  0
 21 22  1  0  0  0  0
 23 24  1  0  0  0  0
 24 25  1  6  0  0  0
 24 26  1  0  0  0  0
 26 27  1  6  0  0  0
 26 28  1  0  0  0  0
 29 28  1  6  0  0  0
 29 31  1  0  0  0  0
 30 14  1  6  0  0  0
 30 31  1  0  0  0  0
M  CHG  1   3  -1
M  END
>  <CHROM.1>
-172.86360979,-65.20912726,49.77354832,-47.66775651,58.05208268,-166.63911728
105.01635050,28.89456507,36.71868530,19.41306901,0.62157152,-1.20970930,3.06442170

>  <Name>
ligand

>  <RI>
0

>  <Rbt.Current_Directory>
/home/itssahil/PROJECTS/Mol_Feturizer/New_Systems/rnas/3F2T

>  <Rbt.Executable>
rbdock ($Id: //depot/dev/client3/rdock/2013.1/src/exe/rbdock.cxx#4 $)

>  <Rbt.Library>
libRbt.so (2013.1, Build901 2013/11/27)

>  <Rbt.Parameter_File>
/export/apps/rDock/src/rDock_2013.1_src/data/scripts/dock_solv.prm

>  <Rbt.Receptor>
prm/pocket_docking_7.prm

>  <SCORE>
-20.7534

>  <SCORE.INTER>
-20.5126

>  <SCORE.INTER.CONST>
1

>  <SCORE.INTER.POLAR>
0

>  <SCORE.INTER.ROT>
7

>  <SCORE.INTER.SOLV>
9.3234

>  <SCORE.INTER.VDW>
-25.0495

>  <SCORE.INTER.norm>
-0.661695

>  <SCORE.INTRA>
-0.240819

>  <SCORE.INTRA.DIHEDRAL>
-1.47752

>  <SCORE.INTRA.DIHEDRAL.0>
4.64198

>  <SCORE.INTRA.POLAR>
0

>  <SCORE.INTRA.POLAR.0>
0

>  <SCORE.INTRA.REPUL>
0

>  <SCORE.INTRA.REPUL.0>
0

>  <SCORE.INTRA.SOLV>
-0.585864

>  <SCORE.INTRA.SOLV.lig_0>
-49.3611

>  <SCORE.INTRA.VDW>
0.790872

>  <SCORE.INTRA.VDW.0>
-1.91858

>  <SCORE.INTRA.norm>
-0.00776837

>  <SCORE.RESTR>
0

>  <SCORE.RESTR.CAVITY>
0

>  <SCORE.RESTR.norm>
0

>  <SCORE.SYSTEM>
0

>  <SCORE.SYSTEM.CONST>
0

>  <SCORE.SYSTEM.DIHEDRAL>
0

>  <SCORE.SYSTEM.SOLV>
0

>  <SCORE.SYSTEM.norm>
0

>  <SCORE.heavy>
31

>  <SCORE.norm>
-0.669464

>  <RMSD>
6.030

$$$$
ligand
 OpenBabel11021811473D
libRbt.so/2013.1/901 2013/11/27
 31 33  0  0  0  0  0  0  0  0999 V2000
   27.4166   35.5915   14.6518 P   0  0  1  0  0  0  0  0  0  0  0  0
   26.6050   34.3435   14.4129 O   0  0  0  0  0  0  0  0  0  0  0  0
   28.7451   35.4428   13.9589 O   0  5  0  0  0  0  0  0  0  0  0  0
   26.6134   36.7373   14.1005 O   0  0  0  0  0  0  0  0  0  0  0  0
   28.4132   37.0165   16.6131 C   0  0  0  0  0  0  0  0  0  0  0  0
   27.6984   35.8675   16.2083 O   0  0  0  0  0  0  0  0  0  0  0  0
   28.5701   37.0014   18.1314 C   0  0  1  0  0  0  0  0  0  0  0  0
   29.4927   35.9977   18.5060 O   0  0  0  0  0  0  0  0  0  0  0  0
   29.0812   38.3483   18.6146 C   0  0  1  0  0  0  0  0  0  0  0  0
   28.2866   39.3544   18.0457 O   0  0  0  0  0  0  0  0  0  0  0  0
   29.0358   38.4825   20.1274 C   0  0  1  0  0  0  0  0  0  0  0  0
   29.7459   39.6365   20.4880 O   0  0  0  0  0  0  0  0  0  0  0  0
   27.6028   38.6028   20.6189 C   0  0  0  0  0  0  0  0  0  0  0  0
   27.3201   39.8313   23.1349 N   0  0  0  0  0  0  0  0  0  0  0  0
   27.2446   40.4783   24.3493 C   0  0  0  0  0  0  0  0  0  0  0  0
   27.2332   41.7050   24.3939 O   0  0  0  0  0  0  0  0  0  0  0  0
   27.1839   39.7585   25.5207 N   0  0  0  0  0  0  0  0  0  0  0  0
   27.1864   38.3776   25.4886 C   0  0  0  0  0  0  0  0  0  0  0  0
   27.2631   37.7161   24.2680 C   0  0  1  0  0  0  0  0  0  0  0  0
   27.1128   37.7375   26.5395 O   0  0  0  0  0  0  0  0  0  0  0  0
   27.3423   35.6810   23.0144 C   0  0  2  0  0  0  0  0  0  0  0  0
   27.2679   36.3362   24.2288 N   0  0  0  0  0  0  0  0  0  0  0  0
   27.3473   34.2862   22.9762 C   0  0  0  0  0  0  0  0  0  0  0  0
   27.4270   33.6172   21.7604 C   0  0  1  0  0  0  0  0  0  0  0  0
   27.4335   32.1212   21.7583 C   0  0  0  0  0  0  0  0  0  0  0  0
   27.4978   34.3492   20.5655 C   0  0  1  0  0  0  0  0  0  0  0  0
   27.5760   33.6639   19.2289 C   0  0  0  0  0  0  0  0  0  0  0  0
   27.4943   35.7409   20.6071 C   0  0  0  0  0  0  0  0  0  0  0  0
   27.4185   36.4140   21.8278 C   0  0  1  0  0  0  0  0  0  0  0  0
   27.3341   38.4520   23.0869 C   0  0  1  0  0  0  0  0  0  0  0  0
   27.4172   37.8001   21.8714 N   0  0  0  0  0  0  0  0  0  0  0  0
  1  2  1  6  0  0  0
  1  3  1  0  0  0  0
  1  4  2  0  0  0  0
  1  6  1  0  0  0  0
  5  6  1  0  0  0  0
  7  5  1  6  0  0  0
  7  8  1  0  0  0  0
  7  9  1  0  0  0  0
  9 10  1  6  0  0  0
  9 11  1  0  0  0  0
 11 12  1  6  0  0  0
 11 13  1  0  0  0  0
 13 31  1  0  0  0  0
 14 15  1  0  0  0  0
 15 16  2  0  0  0  0
 15 17  1  0  0  0  0
 17 18  1  0  0  0  0
 18 20  2  0  0  0  0
 19 18  1  6  0  0  0
 19 22  1  0  0  0  0
 19 30  1  0  0  0  0
 21 23  1  1  0  0  0
 21 29  1  0  0  0  0
 21 22  1  0  0  0  0
 23 24  1  0  0  0  0
 24 25  1  6  0  0  0
 24 26  1  0  0  0  0
 26 27  1  6  0  0  0
 26 28  1  0  0  0  0
 29 28  1  6  0  0  0
 29 31  1  0  0  0  0
 30 14  1  6  0  0  0
 30 31  1  0  0  0  0
M  CHG  1   3  -1
M  END
>  <CHROM.1>
-178.24356506,-178.21743407,71.47403518,49.66272144,169.22860147,139.33965535
-70.82677911,27.72785074,36.94446361,20.21957264,-1.28266487,1.43088548,0.97693820

>  <Name>
ligand

>  <RI>
0

>  <Rbt.Current_Directory>
/home/itssahil/PROJECTS/Mol_Feturizer/New_Systems/rnas/3F2T

>  <Rbt.Executable>
rbdock ($Id: //depot/dev/client3/rdock/2013.1/src/exe/rbdock.cxx#4 $)

>  <Rbt.Library>
libRbt.so (2013.1, Build901 2013/11/27)

>  <Rbt.Parameter_File>
/export/apps/rDock/src/rDock_2013.1_src/data/scripts/dock_solv.prm

>  <Rbt.Receptor>
prm/blind_docking_80.prm

>  <SCORE>
-21.5443

>  <SCORE.INTER>
-22.5072

>  <SCORE.INTER.CONST>
1

>  <SCORE.INTER.POLAR>
0

>  <SCORE.INTER.ROT>
7

>  <SCORE.INTER.SOLV>
16.9505

>  <SCORE.INTER.VDW>
-28.9216

>  <SCORE.INTER.norm>
-0.726039

>  <SCORE.INTRA>
0.962868

>  <SCORE.INTRA.DIHEDRAL>
1.79665

>  <SCORE.INTRA.DIHEDRAL.0>
4.64198

>  <SCORE.INTRA.POLAR>
0

>  <SCORE.INTRA.POLAR.0>
0

>  <SCORE.INTRA.REPUL>
0

>  <SCORE.INTRA.REPUL.0>
0

>  <SCORE.INTRA.SOLV>
-0.117555

>  <SCORE.INTRA.SOLV.lig_0>
-49.3611

>  <SCORE.INTRA.VDW>
0.123318

>  <SCORE.INTRA.VDW.0>
-1.91858

>  <SCORE.INTRA.norm>
0.0310603

>  <SCORE.RESTR>
0

>  <SCORE.RESTR.CAVITY>
0

>  <SCORE.RESTR.norm>
0

>  <SCORE.SYSTEM>
0

>  <SCORE.SYSTEM.CONST>
0

>  <SCORE.SYSTEM.DIHEDRAL>
0

>  <SCORE.SYSTEM.SOLV>
0

>  <SCORE.SYSTEM.norm>
0

>  <SCORE.heavy>
31

>  <SCORE.norm>
-0.694978

>  <RMSD>
6.035

$$$$
ligand
 OpenBabel11021811473D
libRbt.so/2013.1/901 2013/11/27
 31 33  0  0  0  0  0  0  0  0999 V2000
   25.5253   44.1495   16.0012 P   0  0  1  0  0  0  0  0  0  0  0  0
   26.4749   43.4710   15.0467 O   0  0  0  0  0  0  0  0  0  0  0  0
   25.9295   45.5933   16.1388 O   0  5  0  0  0  0  0  0  0  0  0  0
   24.1482   43.9984   15.4157 O   0  0  0  0  0  0  0  0  0  0  0  0
   26.7341   43.0048   18.0257 C   0  0  0  0  0  0  0  0  0  0  0  0
   25.5323   43.4917   17.4660 O   0  0  0  0  0  0  0  0  0  0  0  0
   26.4609   42.4985   19.4396 C   0  0  1  0  0  0  0  0  0  0  0  0
   25.5639   41.4068   19.3908 O   0  0  0  0  0  0  0  0  0  0  0  0
   27.7575   42.0448   20.0889 C   0  0  1  0  0  0  0  0  0  0  0  0
   28.7004   43.0757   19.9650 O   0  0  0  0  0  0  0  0  0  0  0  0
   27.5878   41.7081   21.5609 C   0  0  1  0  0  0  0  0  0  0  0  0
   26.4484   40.9029   21.6994 O   0  0  0  0  0  0  0  0  0  0  0  0
   28.7987   40.9567   22.0888 C   0  0  0  0  0  0  0  0  0  0  0  0
   28.8194   42.0537   24.6804 N   0  0  0  0  0  0  0  0  0  0  0  0
   28.9017   42.6205   25.9337 C   0  0  0  0  0  0  0  0  0  0  0  0
   29.1909   43.8072   26.0551 O   0  0  0  0  0  0  0  0  0  0  0  0
   28.6638   41.8640   27.0585 N   0  0  0  0  0  0  0  0  0  0  0  0
   28.3282   40.5294   26.9401 C   0  0  0  0  0  0  0  0  0  0  0  0
   28.2434   39.9486   25.6796 C   0  0  1  0  0  0  0  0  0  0  0  0
   28.0976   39.8608   27.9498 O   0  0  0  0  0  0  0  0  0  0  0  0
   27.8249   38.0403   24.3002 C   0  0  2  0  0  0  0  0  0  0  0  0
   27.9103   38.6148   25.5541 N   0  0  0  0  0  0  0  0  0  0  0  0
   27.4883   36.6920   24.1747 C   0  0  0  0  0  0  0  0  0  0  0  0
   27.4047   36.1029   22.9186 C   0  0  1  0  0  0  0  0  0  0  0  0
   27.0446   34.6541   22.8227 C   0  0  0  0  0  0  0  0  0  0  0  0
   27.6554   36.8702   21.7709 C   0  0  1  0  0  0  0  0  0  0  0  0
   27.5666   36.2735   20.3931 C   0  0  0  0  0  0  0  0  0  0  0  0
   27.9927   38.2150   21.8995 C   0  0  0  0  0  0  0  0  0  0  0  0
   28.0811   38.8067   23.1608 C   0  0  1  0  0  0  0  0  0  0  0  0
   28.4953   40.7187   24.5460 C   0  0  1  0  0  0  0  0  0  0  0  0
   28.4192   40.1454   23.2911 N   0  0  0  0  0  0  0  0  0  0  0  0
  1  2  1  6  0  0  0
  1  3  1  0  0  0  0
  1  4  2  0  0  0  0
  1  6  1  0  0  0  0
  5  6  1  0  0  0  0
  7  5  1  6  0  0  0
  7  8  1  0  0  0  0
  7  9  1  0  0  0  0
  9 10  1  1  0  0  0
  9 11  1  0  0  0  0
 11 12  1  6  0  0  0
 11 13  1  0  0  0  0
 13 31  1  0  0  0  0
 14 15  1  0  0  0  0
 15 16  2  0  0  0  0
 15 17  1  0  0  0  0
 17 18  1  0  0  0  0
 18 20  2  0  0  0  0
 19 18  1  6  0  0  0
 19 22  1  0  0  0  0
 19 30  1  0  0  0  0
 21 23  1  1  0  0  0
 21 29  1  0  0  0  0
 21 22  1  0  0  0  0
 23 24  1  0  0  0  0
 24 25  1  6  0  0  0
 24 26  1  0  0  0  0
 26 27  1  6  0  0  0
 26 28  1  0  0  0  0
 29 28  1  6  0  0  0
 29 31  1  0  0  0  0
 30 14  1  6  0  0  0
 30 31  1  0  0  0  0
M  CHG  1   3  -1
M  END
>  <CHROM.1>
177.36919560,36.51997340,63.36537861,51.55784274,46.75231845,-156.14554274
95.33351562,27.34666233,40.97864982,21.58597711,-2.50890443,1.27102396,2.96912587

>  <Name>
ligand

>  <RI>
0

>  <Rbt.Current_Directory>
/home/itssahil/PROJECTS/Mol_Feturizer/New_Systems/rnas/3F2T

>  <Rbt.Executable>
rbdock ($Id: //depot/dev/client3/rdock/2013.1/src/exe/rbdock.cxx#4 $)

>  <Rbt.Library>
libRbt.so (2013.1, Build901 2013/11/27)

>  <Rbt.Parameter_File>
/export/apps/rDock/src/rDock_2013.1_src/data/scripts/dock_solv.prm

>  <Rbt.Receptor>
prm/blind_docking_100.prm

>  <SCORE>
-28.1303

>  <SCORE.INTER>
-28.8258

>  <SCORE.INTER.CONST>
1

>  <SCORE.INTER.POLAR>
0

>  <SCORE.INTER.ROT>
7

>  <SCORE.INTER.SOLV>
21.0447

>  <SCORE.INTER.VDW>
-34.4988

>  <SCORE.INTER.norm>
-0.929863

>  <SCORE.INTRA>
0.695469

>  <SCORE.INTRA.DIHEDRAL>
0.308559

>  <SCORE.INTRA.DIHEDRAL.0>
4.64198

>  <SCORE.INTRA.POLAR>
0

>  <SCORE.INTRA.POLAR.0>
0

>  <SCORE.INTRA.REPUL>
0

>  <SCORE.INTRA.REPUL.0>
0

>  <SCORE.INTRA.SOLV>
-0.599255

>  <SCORE.INTRA.SOLV.lig_0>
-49.3611

>  <SCORE.INTRA.VDW>
0.840817

>  <SCORE.INTRA.VDW.0>
-1.91858

>  <SCORE.INTRA.norm>
0.0224345

>  <SCORE.RESTR>
0

>  <SCORE.RESTR.CAVITY>
0

>  <SCORE.RESTR.norm>
0

>  <SCORE.SYSTEM>
0

>  <SCORE.SYSTEM.CONST>
0

>  <SCORE.SYSTEM.DIHEDRAL>
0

>  <SCORE.SYSTEM.SOLV>
0

>  <SCORE.SYSTEM.norm>
0

>  <SCORE.heavy>
31

>  <SCORE.norm>
-0.907429

>  <RMSD>
6.049

$$$$
ligand
 OpenBabel11021811473D
libRbt.so/2013.1/901 2013/11/27
 31 33  0  0  0  0  0  0  0  0999 V2000
   28.4664   43.0740   25.0310 P   0  0  1  0  0  0  0  0  0  0  0  0
   29.1601   44.1070   25.8825 O   0  0  0  0  0  0  0  0  0  0  0  0
   29.3102   42.8076   23.8128 O   0  5  0  0  0  0  0  0  0  0  0  0
   28.3049   41.8494   25.8891 O   0  0  0  0  0  0  0  0  0  0  0  0
   25.9623   42.6095   24.4114 C   0  0  0  0  0  0  0  0  0  0  0  0
   27.0139   43.5443   24.5338 O   0  0  0  0  0  0  0  0  0  0  0  0
   26.0833   41.8899   23.0706 C   0  0  1  0  0  0  0  0  0  0  0  0
   26.2696   42.8356   22.0364 O   0  0  0  0  0  0  0  0  0  0  0  0
   27.2710   40.9425   23.0945 C   0  0  1  0  0  0  0  0  0  0  0  0
   27.1472   40.1037   24.2119 O   0  0  0  0  0  0  0  0  0  0  0  0
   27.3602   40.0848   21.8435 C   0  0  1  0  0  0  0  0  0  0  0  0
   27.3140   40.9306   20.7262 O   0  0  0  0  0  0  0  0  0  0  0  0
   28.6576   39.2939   21.8190 C   0  0  0  0  0  0  0  0  0  0  0  0
   27.3341   37.4614   23.4953 N   0  0  0  0  0  0  0  0  0  0  0  0
   26.7342   36.5869   24.3752 C   0  0  0  0  0  0  0  0  0  0  0  0
   26.3336   36.9871   25.4644 O   0  0  0  0  0  0  0  0  0  0  0  0
   26.5806   35.2599   24.0443 N   0  0  0  0  0  0  0  0  0  0  0  0
   27.0172   34.7942   22.8194 C   0  0  0  0  0  0  0  0  0  0  0  0
   27.6243   35.6691   21.9253 C   0  0  1  0  0  0  0  0  0  0  0  0
   26.8603   33.6087   22.5202 O   0  0  0  0  0  0  0  0  0  0  0  0
   28.6661   36.0817   19.8125 C   0  0  2  0  0  0  0  0  0  0  0  0
   28.0647   35.2100   20.7001 N   0  0  0  0  0  0  0  0  0  0  0  0
   29.1108   35.6164   18.5745 C   0  0  0  0  0  0  0  0  0  0  0  0
   29.7217   36.4836   17.6764 C   0  0  1  0  0  0  0  0  0  0  0  0
   30.1892   35.9486   16.3599 C   0  0  0  0  0  0  0  0  0  0  0  0
   29.8871   37.8351   18.0153 C   0  0  1  0  0  0  0  0  0  0  0  0
   30.5347   38.8080   17.0686 C   0  0  0  0  0  0  0  0  0  0  0  0
   29.4438   38.2961   19.2521 C   0  0  0  0  0  0  0  0  0  0  0  0
   28.8338   37.4251   20.1567 C   0  0  1  0  0  0  0  0  0  0  0  0
   27.7850   37.0092   22.2716 C   0  0  1  0  0  0  0  0  0  0  0  0
   28.3937   37.8818   21.3900 N   0  0  0  0  0  0  0  0  0  0  0  0
  1  2  1  1  0  0  0
  1  3  1  0  0  0  0
  1  4  2  0  0  0  0
  1  6  1  0  0  0  0
  5  6  1  0  0  0  0
  7  5  1  1  0  0  0
  7  8  1  0  0  0  0
  7  9  1  0  0  0  0
  9 10  1  1  0  0  0
  9 11  1  0  0  0  0
 11 12  1  6  0  0  0
 11 13  1  0  0  0  0
 13 31  1  0  0  0  0
 14 15  1  0  0  0  0
 15 16  2  0  0  0  0
 15 17  1  0  0  0  0
 17 18  1  0  0  0  0
 18 20  2  0  0  0  0
 19 18  1  6  0  0  0
 19 22  1  0  0  0  0
 19 30  1  0  0  0  0
 21 23  1  1  0  0  0
 21 29  1  0  0  0  0
 21 22  1  0  0  0  0
 23 24  1  0  0  0  0
 24 25  1  6  0  0  0
 24 26  1  0  0  0  0
 26 27  1  6  0  0  0
 26 28  1  0  0  0  0
 29 28  1  6  0  0  0
 29 31  1  0  0  0  0
 30 14  1  6  0  0  0
 30 31  1  0  0  0  0
M  CHG  1   3  -1
M  END
>  <CHROM.1>
-82.62283061,-144.62380718,-48.53050428,53.27576130,52.36987052,136.29622657
110.37776933,27.97749999,39.06292659,22.23828610,-1.88006138,-1.14551833
-2.77560225

>  <Name>
ligand

>  <RI>
0

>  <Rbt.Current_Directory>
/home/itssahil/PROJECTS/Mol_Feturizer/New_Systems/rnas/3F2T

>  <Rbt.Executable>
rbdock ($Id: //depot/dev/client3/rdock/2013.1/src/exe/rbdock.cxx#4 $)

>  <Rbt.Library>
libRbt.so (2013.1, Build901 2013/11/27)

>  <Rbt.Parameter_File>
/export/apps/rDock/src/rDock_2013.1_src/data/scripts/dock_solv.prm

>  <Rbt.Receptor>
prm/pocket_docking_8.prm

>  <SCORE>
-22.7795

>  <SCORE.INTER>
-29.1936

>  <SCORE.INTER.CONST>
1

>  <SCORE.INTER.POLAR>
0

>  <SCORE.INTER.ROT>
7

>  <SCORE.INTER.SOLV>
16.1641

>  <SCORE.INTER.VDW>
-33.1171

>  <SCORE.INTER.norm>
-0.941729

>  <SCORE.INTRA>
6.41406

>  <SCORE.INTRA.DIHEDRAL>
5.58372

>  <SCORE.INTRA.DIHEDRAL.0>
4.64198

>  <SCORE.INTRA.POLAR>
0

>  <SCORE.INTRA.POLAR.0>
0

>  <SCORE.INTRA.REPUL>
0

>  <SCORE.INTRA.REPUL.0>
0

>  <SCORE.INTRA.SOLV>
7.06053

>  <SCORE.INTRA.SOLV.lig_0>
-49.3611

>  <SCORE.INTRA.VDW>
0.091932

>  <SCORE.INTRA.VDW.0>
-1.91858

>  <SCORE.INTRA.norm>
0.206905

>  <SCORE.RESTR>
0

>  <SCORE.RESTR.CAVITY>
0

>  <SCORE.RESTR.norm>
0

>  <SCORE.SYSTEM>
0

>  <SCORE.SYSTEM.CONST>
0

>  <SCORE.SYSTEM.DIHEDRAL>
0

>  <SCORE.SYSTEM.SOLV>
0

>  <SCORE.SYSTEM.norm>
0

>  <SCORE.heavy>
31

>  <SCORE.norm>
-0.734824

>  <RMSD>
6.052

$$$$
ligand
 OpenBabel11021811473D
libRbt.so/2013.1/901 2013/11/27
 31 33  0  0  0  0  0  0  0  0999 V2000
   24.3742   33.0206   14.6016 P   0  0  1  0  0  0  0  0  0  0  0  0
   23.3845   31.8839   14.5593 O   0  0  0  0  0  0  0  0  0  0  0  0
   25.7654   32.4525   14.5083 O   0  5  0  0  0  0  0  0  0  0  0  0
   24.0474   33.9170   13.4390 O   0  0  0  0  0  0  0  0  0  0  0  0
   25.4066   34.0149   16.7961 C   0  0  0  0  0  0  0  0  0  0  0  0
   24.2812   33.8827   15.9530 O   0  0  0  0  0  0  0  0  0  0  0  0
   25.0229   34.8426   18.0200 C   0  0  1  0  0  0  0  0  0  0  0  0
   24.0632   34.1435   18.7874 O   0  0  0  0  0  0  0  0  0  0  0  0
   26.2499   35.1008   18.8783 C   0  0  1  0  0  0  0  0  0  0  0  0
   26.8785   33.8734   19.1345 O   0  0  0  0  0  0  0  0  0  0  0  0
   27.2459   36.0330   18.2093 C   0  0  1  0  0  0  0  0  0  0  0  0
   26.6205   37.2711   18.0044 O   0  0  0  0  0  0  0  0  0  0  0  0
   28.4743   36.2313   19.0818 C   0  0  0  0  0  0  0  0  0  0  0  0
   27.6865   34.8660   21.4131 N   0  0  0  0  0  0  0  0  0  0  0  0
   27.2518   34.1537   22.5097 C   0  0  0  0  0  0  0  0  0  0  0  0
   27.2598   32.9263   22.4895 O   0  0  0  0  0  0  0  0  0  0  0  0
   26.8034   34.8085   23.6340 N   0  0  0  0  0  0  0  0  0  0  0  0
   26.7961   36.1891   23.6775 C   0  0  0  0  0  0  0  0  0  0  0  0
   27.2322   36.9163   22.5755 C   0  0  1  0  0  0  0  0  0  0  0  0
   26.4112   36.7708   24.6939 O   0  0  0  0  0  0  0  0  0  0  0  0
   27.6615   39.0168   21.5158 C   0  0  2  0  0  0  0  0  0  0  0  0
   27.2258   38.2963   22.6115 N   0  0  0  0  0  0  0  0  0  0  0  0
   27.6544   40.4116   21.5534 C   0  0  0  0  0  0  0  0  0  0  0  0
   28.0856   41.1460   20.4549 C   0  0  1  0  0  0  0  0  0  0  0  0
   28.0606   42.6399   20.5299 C   0  0  0  0  0  0  0  0  0  0  0  0
   28.5349   40.4804   19.3044 C   0  0  1  0  0  0  0  0  0  0  0  0
   29.0182   41.2376   18.0980 C   0  0  0  0  0  0  0  0  0  0  0  0
   28.5392   39.0884   19.2693 C   0  0  0  0  0  0  0  0  0  0  0  0
   28.1025   38.3497   20.3704 C   0  0  1  0  0  0  0  0  0  0  0  0
   27.6756   36.2460   21.4372 C   0  0  1  0  0  0  0  0  0  0  0  0
   28.1038   36.9633   20.3366 N   0  0  0  0  0  0  0  0  0  0  0  0
  1  2  1  1  0  0  0
  1  3  1  0  0  0  0
  1  4  2  0  0  0  0
  1  6  1  0  0  0  0
  5  6  1  0  0  0  0
  7  5  1  6  0  0  0
  7  8  1  0  0  0  0
  7  9  1  0  0  0  0
  9 10  1  6  0  0  0
  9 11  1  0  0  0  0
 11 12  1  1  0  0  0
 11 13  1  0  0  0  0
 13 31  1  0  0  0  0
 14 15  1  0  0  0  0
 15 16  2  0  0  0  0
 15 17  1  0  0  0  0
 17 18  1  0  0  0  0
 18 20  2  0  0  0  0
 19 18  1  1  0  0  0
 19 22  1  0  0  0  0
 19 30  1  0  0  0  0
 21 23  1  6  0  0  0
 21 29  1  0  0  0  0
 21 22  1  0  0  0  0
 23 24  1  0  0  0  0
 24 25  1  1  0  0  0
 24 26  1  0  0  0  0
 26 27  1  1  0  0  0
 26 28  1  0  0  0  0
 29 28  1  1  0  0  0
 29 31  1  0  0  0  0
 30 14  1  1  0  0  0
 30 31  1  0  0  0  0
M  CHG  1   3  -1
M  END
>  <CHROM.1>
-178.18897386,121.31596823,65.09416060,-51.98984489,61.85358469,-66.18979119
-87.75979718,26.59478749,36.09501324,19.24134536,-2.84654228,1.18758694,2.09591623

>  <Name>
ligand

>  <RI>
0

>  <Rbt.Current_Directory>
/home/itssahil/PROJECTS/Mol_Feturizer/New_Systems/rnas/3F2T

>  <Rbt.Executable>
rbdock ($Id: //depot/dev/client3/rdock/2013.1/src/exe/rbdock.cxx#4 $)

>  <Rbt.Library>
libRbt.so (2013.1, Build901 2013/11/27)

>  <Rbt.Parameter_File>
/export/apps/rDock/src/rDock_2013.1_src/data/scripts/dock_solv.prm

>  <Rbt.Receptor>
prm/blind_docking_100.prm

>  <SCORE>
-19.9531

>  <SCORE.INTER>
-20.3262

>  <SCORE.INTER.CONST>
1

>  <SCORE.INTER.POLAR>
0

>  <SCORE.INTER.ROT>
7

>  <SCORE.INTER.SOLV>
14.0635

>  <SCORE.INTER.VDW>
-26.5053

>  <SCORE.INTER.norm>
-0.655683

>  <SCORE.INTRA>
0.373057

>  <SCORE.INTRA.DIHEDRAL>
-0.685852

>  <SCORE.INTRA.DIHEDRAL.0>
4.64198

>  <SCORE.INTRA.POLAR>
0

>  <SCORE.INTRA.POLAR.0>
0

>  <SCORE.INTRA.REPUL>
0

>  <SCORE.INTRA.REPUL.0>
0

>  <SCORE.INTRA.SOLV>
0.163817

>  <SCORE.INTRA.SOLV.lig_0>
-49.3611

>  <SCORE.INTRA.VDW>
0.634074

>  <SCORE.INTRA.VDW.0>
-1.91858

>  <SCORE.INTRA.norm>
0.0120341

>  <SCORE.RESTR>
0

>  <SCORE.RESTR.CAVITY>
0

>  <SCORE.RESTR.norm>
0

>  <SCORE.SYSTEM>
0

>  <SCORE.SYSTEM.CONST>
0

>  <SCORE.SYSTEM.DIHEDRAL>
0

>  <SCORE.SYSTEM.SOLV>
0

>  <SCORE.SYSTEM.norm>
0

>  <SCORE.heavy>
31

>  <SCORE.norm>
-0.643648

>  <RMSD>
6.058

$$$$
ligand
 OpenBabel11021811473D
libRbt.so/2013.1/901 2013/11/27
 31 33  0  0  0  0  0  0  0  0999 V2000
   29.7775   43.2245   25.4349 P   0  0  1  0  0  0  0  0  0  0  0  0
   30.3734   42.9023   26.7819 O   0  0  0  0  0  0  0  0  0  0  0  0
   28.5098   44.0095   25.6437 O   0  5  0  0  0  0  0  0  0  0  0  0
   30.8160   44.0116   24.6839 O   0  0  0  0  0  0  0  0  0  0  0  0
   28.7691   42.0321   23.3297 C   0  0  0  0  0  0  0  0  0  0  0  0
   29.4135   41.9143   24.5810 O   0  0  0  0  0  0  0  0  0  0  0  0
   28.4962   40.6377   22.7719 C   0  0  1  0  0  0  0  0  0  0  0  0
   27.6227   39.9399   23.6372 O   0  0  0  0  0  0  0  0  0  0  0  0
   27.8527   40.7436   21.3995 C   0  0  1  0  0  0  0  0  0  0  0  0
   28.7145   41.4642   20.5597 O   0  0  0  0  0  0  0  0  0  0  0  0
   27.5798   39.3855   20.7752 C   0  0  1  0  0  0  0  0  0  0  0  0
   27.0502   39.5893   19.4930 O   0  0  0  0  0  0  0  0  0  0  0  0
   28.8588   38.5721   20.6648 C   0  0  0  0  0  0  0  0  0  0  0  0
   27.6429   37.0701   22.7106 N   0  0  0  0  0  0  0  0  0  0  0  0
   27.1009   36.3649   23.7631 C   0  0  0  0  0  0  0  0  0  0  0  0
   26.7991   36.9444   24.8023 O   0  0  0  0  0  0  0  0  0  0  0  0
   26.8951   35.0079   23.6613 N   0  0  0  0  0  0  0  0  0  0  0  0
   27.2202   34.3413   22.4961 C   0  0  0  0  0  0  0  0  0  0  0  0
   27.7684   35.0444   21.4291 C   0  0  1  0  0  0  0  0  0  0  0  0
   27.0165   33.1291   22.4033 O   0  0  0  0  0  0  0  0  0  0  0  0
   28.6403   35.0853   19.2025 C   0  0  2  0  0  0  0  0  0  0  0  0
   28.0974   34.3841   20.2622 N   0  0  0  0  0  0  0  0  0  0  0  0
   28.9725   34.4167   18.0238 C   0  0  0  0  0  0  0  0  0  0  0  0
   29.5239   35.1114   16.9537 C   0  0  1  0  0  0  0  0  0  0  0  0
   29.8709   34.3609   15.7070 C   0  0  0  0  0  0  0  0  0  0  0  0
   29.7426   36.4934   17.0585 C   0  0  1  0  0  0  0  0  0  0  0  0
   30.3285   37.2837   15.9207 C   0  0  0  0  0  0  0  0  0  0  0  0
   29.4116   37.1575   18.2366 C   0  0  0  0  0  0  0  0  0  0  0  0
   28.8616   36.4600   19.3136 C   0  0  1  0  0  0  0  0  0  0  0  0
   27.9827   36.4164   21.5433 C   0  0  1  0  0  0  0  0  0  0  0  0
   28.5333   37.1193   20.4887 N   0  0  0  0  0  0  0  0  0  0  0  0
  1  2  1  1  0  0  0
  1  3  1  0  0  0  0
  1  4  2  0  0  0  0
  1  6  1  0  0  0  0
  5  6  1  0  0  0  0
  7  5  1  1  0  0  0
  7  8  1  0  0  0  0
  7  9  1  0  0  0  0
  9 10  1  6  0  0  0
  9 11  1  0  0  0  0
 11 12  1  6  0  0  0
 11 13  1  0  0  0  0
 13 31  1  0  0  0  0
 14 15  1  0  0  0  0
 15 16  2  0  0  0  0
 15 17  1  0  0  0  0
 17 18  1  0  0  0  0
 18 20  2  0  0  0  0
 19 18  1  6  0  0  0
 19 22  1  0  0  0  0
 19 30  1  0  0  0  0
 21 23  1  1  0  0  0
 21 29  1  0  0  0  0
 21 22  1  0  0  0  0
 23 24  1  0  0  0  0
 24 25  1  6  0  0  0
 24 26  1  0  0  0  0
 26 27  1  6  0  0  0
 26 28  1  0  0  0  0
 29 28  1  6  0  0  0
 29 31  1  0  0  0  0
 30 14  1  6  0  0  0
 30 31  1  0  0  0  0
M  CHG  1   3  -1
M  END
>  <CHROM.1>
-177.72097401,176.01430661,62.33677539,58.28539375,-177.15067764,161.25582464
114.87060626,28.58056158,38.45508262,21.69590539,-1.40202148,-1.17377194
-2.29941319

>  <Name>
ligand

>  <RI>
0

>  <Rbt.Current_Directory>
/home/itssahil/PROJECTS/Mol_Feturizer/New_Systems/rnas/3F2T

>  <Rbt.Executable>
rbdock ($Id: //depot/dev/client3/rdock/2013.1/src/exe/rbdock.cxx#4 $)

>  <Rbt.Library>
libRbt.so (2013.1, Build901 2013/11/27)

>  <Rbt.Parameter_File>
/export/apps/rDock/src/rDock_2013.1_src/data/scripts/dock_solv.prm

>  <Rbt.Receptor>
prm/blind_docking_60.prm

>  <SCORE>
-24.6631

>  <SCORE.INTER>
-23.9884

>  <SCORE.INTER.CONST>
1

>  <SCORE.INTER.POLAR>
0

>  <SCORE.INTER.ROT>
7

>  <SCORE.INTER.SOLV>
20.9314

>  <SCORE.INTER.VDW>
-31.2361

>  <SCORE.INTER.norm>
-0.77382

>  <SCORE.INTRA>
-0.70085

>  <SCORE.INTRA.DIHEDRAL>
-2.0967

>  <SCORE.INTRA.DIHEDRAL.0>
4.64198

>  <SCORE.INTRA.POLAR>
0

>  <SCORE.INTRA.POLAR.0>
0

>  <SCORE.INTRA.REPUL>
0

>  <SCORE.INTRA.REPUL.0>
0

>  <SCORE.INTRA.SOLV>
0.0196429

>  <SCORE.INTRA.SOLV.lig_0>
-49.3611

>  <SCORE.INTRA.VDW>
0.337677

>  <SCORE.INTRA.VDW.0>
-1.91858

>  <SCORE.INTRA.norm>
-0.0226081

>  <SCORE.RESTR>
0.0262104

>  <SCORE.RESTR.CAVITY>
0.0262104

>  <SCORE.RESTR.norm>
0.000845497

>  <SCORE.SYSTEM>
0

>  <SCORE.SYSTEM.CONST>
0

>  <SCORE.SYSTEM.DIHEDRAL>
0

>  <SCORE.SYSTEM.SOLV>
0

>  <SCORE.SYSTEM.norm>
0

>  <SCORE.heavy>
31

>  <SCORE.norm>
-0.795583

>  <RMSD>
6.067

$$$$
ligand
 OpenBabel11021811473D
libRbt.so/2013.1/901 2013/11/27
 31 33  0  0  0  0  0  0  0  0999 V2000
   25.7447   43.9933   16.2906 P   0  0  1  0  0  0  0  0  0  0  0  0
   26.1611   45.4096   15.9845 O   0  0  0  0  0  0  0  0  0  0  0  0
   24.3042   43.8167   15.8893 O   0  5  0  0  0  0  0  0  0  0  0  0
   26.6660   43.0972   15.5094 O   0  0  0  0  0  0  0  0  0  0  0  0
   25.2866   42.4442   18.3548 C   0  0  0  0  0  0  0  0  0  0  0  0
   25.8733   43.6248   17.8481 O   0  0  0  0  0  0  0  0  0  0  0  0
   25.4793   42.3970   19.8684 C   0  0  1  0  0  0  0  0  0  0  0  0
   24.5139   41.5408   20.4460 O   0  0  0  0  0  0  0  0  0  0  0  0
   26.8666   41.8732   20.1996 C   0  0  1  0  0  0  0  0  0  0  0  0
   27.8103   42.6507   19.5125 O   0  0  0  0  0  0  0  0  0  0  0  0
   27.1730   41.9289   21.6869 C   0  0  1  0  0  0  0  0  0  0  0  0
   26.0780   41.3958   22.3817 O   0  0  0  0  0  0  0  0  0  0  0  0
   28.4164   41.1194   22.0155 C   0  0  0  0  0  0  0  0  0  0  0  0
   28.5793   42.1856   24.6149 N   0  0  0  0  0  0  0  0  0  0  0  0
   28.7280   42.7415   25.8670 C   0  0  0  0  0  0  0  0  0  0  0  0
   28.9609   43.9410   25.9846 O   0  0  0  0  0  0  0  0  0  0  0  0
   28.6198   41.9600   26.9946 N   0  0  0  0  0  0  0  0  0  0  0  0
   28.3490   40.6103   26.8812 C   0  0  0  0  0  0  0  0  0  0  0  0
   28.1981   40.0404   25.6219 C   0  0  1  0  0  0  0  0  0  0  0  0
   28.2344   39.9183   27.8949 O   0  0  0  0  0  0  0  0  0  0  0  0
   27.7777   38.1280   24.2488 C   0  0  2  0  0  0  0  0  0  0  0  0
   27.9291   38.6917   25.5013 N   0  0  0  0  0  0  0  0  0  0  0  0
   27.5060   36.7647   24.1282 C   0  0  0  0  0  0  0  0  0  0  0  0
   27.3569   36.1866   22.8731 C   0  0  1  0  0  0  0  0  0  0  0  0
   27.0697   34.7212   22.7823 C   0  0  0  0  0  0  0  0  0  0  0  0
   27.4755   36.9799   21.7219 C   0  0  1  0  0  0  0  0  0  0  0  0
   27.3122   36.3952   20.3457 C   0  0  0  0  0  0  0  0  0  0  0  0
   27.7483   38.3397   21.8454 C   0  0  0  0  0  0  0  0  0  0  0  0
   27.9023   38.9207   23.1054 C   0  0  1  0  0  0  0  0  0  0  0  0
   28.3187   40.8364   24.4847 C   0  0  1  0  0  0  0  0  0  0  0  0
   28.1763   40.2744   23.2304 N   0  0  0  0  0  0  0  0  0  0  0  0
  1  2  1  6  0  0  0
  1  3  1  0  0  0  0
  1  4  2  0  0  0  0
  1  6  1  0  0  0  0
  5  6  1  0  0  0  0
  7  5  1  6  0  0  0
  7  8  1  0  0  0  0
  7  9  1  0  0  0  0
  9 10  1  6  0  0  0
  9 11  1  0  0  0  0
 11 12  1  1  0  0  0
 11 13  1  0  0  0  0
 13 31  1  0  0  0  0
 14 15  1  0  0  0  0
 15 16  2  0  0  0  0
 15 17  1  0  0  0  0
 17 18  1  0  0  0  0
 18 20  2  0  0  0  0
 19 18  1  1  0  0  0
 19 22  1  0  0  0  0
 19 30  1  0  0  0  0
 21 23  1  6  0  0  0
 21 29  1  0  0  0  0
 21 22  1  0  0  0  0
 23 24  1  0  0  0  0
 24 25  1  1  0  0  0
 24 26  1  0  0  0  0
 26 27  1  1  0  0  0
 26 28  1  0  0  0  0
 29 28  1  1  0  0  0
 29 31  1  0  0  0  0
 30 14  1  1  0  0  0
 30 31  1  0  0  0  0
M  CHG  1   3  -1
M  END
>  <CHROM.1>
-176.08215087,167.53252433,158.21634103,53.82170063,47.27836139,-134.73300908
101.67467569,27.13334530,40.99305638,21.69105903,-2.59286927,1.27831594,3.04355703

>  <Name>
ligand

>  <RI>
0

>  <Rbt.Current_Directory>
/home/itssahil/PROJECTS/Mol_Feturizer/New_Systems/rnas/3F2T

>  <Rbt.Executable>
rbdock ($Id: //depot/dev/client3/rdock/2013.1/src/exe/rbdock.cxx#4 $)

>  <Rbt.Library>
libRbt.so (2013.1, Build901 2013/11/27)

>  <Rbt.Parameter_File>
/export/apps/rDock/src/rDock_2013.1_src/data/scripts/dock_solv.prm

>  <Rbt.Receptor>
prm/pocket_docking_8.prm

>  <SCORE>
-25.6505

>  <SCORE.INTER>
-28.7847

>  <SCORE.INTER.CONST>
1

>  <SCORE.INTER.POLAR>
0

>  <SCORE.INTER.ROT>
7

>  <SCORE.INTER.SOLV>
20.2232

>  <SCORE.INTER.VDW>
-34.1975

>  <SCORE.INTER.norm>
-0.928538

>  <SCORE.INTRA>
3.13417

>  <SCORE.INTRA.DIHEDRAL>
3.82516

>  <SCORE.INTRA.DIHEDRAL.0>
4.64198

>  <SCORE.INTRA.POLAR>
0

>  <SCORE.INTRA.POLAR.0>
0

>  <SCORE.INTRA.REPUL>
0

>  <SCORE.INTRA.REPUL.0>
0

>  <SCORE.INTRA.SOLV>
0.519554

>  <SCORE.INTRA.SOLV.lig_0>
-49.3611

>  <SCORE.INTRA.VDW>
0.961811

>  <SCORE.INTRA.VDW.0>
-1.91858

>  <SCORE.INTRA.norm>
0.101102

>  <SCORE.RESTR>
0

>  <SCORE.RESTR.CAVITY>
0

>  <SCORE.RESTR.norm>
0

>  <SCORE.SYSTEM>
0

>  <SCORE.SYSTEM.CONST>
0

>  <SCORE.SYSTEM.DIHEDRAL>
0

>  <SCORE.SYSTEM.SOLV>
0

>  <SCORE.SYSTEM.norm>
0

>  <SCORE.heavy>
31

>  <SCORE.norm>
-0.827436

>  <RMSD>
6.089

$$$$
ligand
 OpenBabel11021811473D
libRbt.so/2013.1/901 2013/11/27
 31 33  0  0  0  0  0  0  0  0999 V2000
   24.1434   33.5520   15.6766 P   0  0  1  0  0  0  0  0  0  0  0  0
   23.4331   32.2267   15.5655 O   0  0  0  0  0  0  0  0  0  0  0  0
   24.7769   33.8724   14.3489 O   0  5  0  0  0  0  0  0  0  0  0  0
   23.1028   34.5646   16.0688 O   0  0  0  0  0  0  0  0  0  0  0  0
   26.1926   32.4616   16.8940 C   0  0  0  0  0  0  0  0  0  0  0  0
   25.3005   33.5516   16.7899 O   0  0  0  0  0  0  0  0  0  0  0  0
   27.2489   32.7760   17.9503 C   0  0  1  0  0  0  0  0  0  0  0  0
   28.0573   33.8499   17.5121 O   0  0  0  0  0  0  0  0  0  0  0  0
   26.5777   33.1634   19.2573 C   0  0  1  0  0  0  0  0  0  0  0  0
   27.1313   32.3886   20.2871 O   0  0  0  0  0  0  0  0  0  0  0  0
   26.7607   34.6334   19.5954 C   0  0  1  0  0  0  0  0  0  0  0  0
   25.7478   35.0084   20.4895 O   0  0  0  0  0  0  0  0  0  0  0  0
   28.1142   34.8772   20.2419 C   0  0  0  0  0  0  0  0  0  0  0  0
   29.2505   36.1507   18.0043 N   0  0  0  0  0  0  0  0  0  0  0  0
   29.8599   36.7150   16.9047 C   0  0  0  0  0  0  0  0  0  0  0  0
   30.0554   36.0429   15.8963 O   0  0  0  0  0  0  0  0  0  0  0  0
   30.2564   38.0327   16.9264 N   0  0  0  0  0  0  0  0  0  0  0  0
   30.0361   38.8062   18.0493 C   0  0  0  0  0  0  0  0  0  0  0  0
   29.4226   38.2453   19.1639 C   0  0  1  0  0  0  0  0  0  0  0  0
   30.3761   39.9911   18.0568 O   0  0  0  0  0  0  0  0  0  0  0  0
   28.5894   38.4529   21.3960 C   0  0  2  0  0  0  0  0  0  0  0  0
   29.2010   39.0122   20.2902 N   0  0  0  0  0  0  0  0  0  0  0  0
   28.3661   39.2291   22.5338 C   0  0  0  0  0  0  0  0  0  0  0  0
   27.7565   38.6752   23.6533 C   0  0  1  0  0  0  0  0  0  0  0  0
   27.5365   39.5366   24.8565 C   0  0  0  0  0  0  0  0  0  0  0  0
   27.3593   37.3296   23.6365 C   0  0  1  0  0  0  0  0  0  0  0  0
   26.6884   36.6945   24.8234 C   0  0  0  0  0  0  0  0  0  0  0  0
   27.5850   36.5572   22.5002 C   0  0  0  0  0  0  0  0  0  0  0  0
   28.2010   37.1113   21.3766 C   0  0  1  0  0  0  0  0  0  0  0  0
   29.0327   36.9078   19.1377 C   0  0  1  0  0  0  0  0  0  0  0  0
   28.4287   36.3430   20.2448 N   0  0  0  0  0  0  0  0  0  0  0  0
  1  2  1  6  0  0  0
  1  3  1  0  0  0  0
  1  4  2  0  0  0  0
  1  6  1  0  0  0  0
  5  6  1  0  0  0  0
  7  5  1  6  0  0  0
  7  8  1  0  0  0  0
  7  9  1  0  0  0  0
  9 10  1  1  0  0  0
  9 11  1  0  0  0  0
 11 12  1  1  0  0  0
 11 13  1  0  0  0  0
 13 31  1  0  0  0  0
 14 15  1  0  0  0  0
 15 16  2  0  0  0  0
 15 17  1  0  0  0  0
 17 18  1  0  0  0  0
 18 20  2  0  0  0  0
 19 18  1  6  0  0  0
 19 22  1  0  0  0  0
 19 30  1  0  0  0  0
 21 23  1  1  0  0  0
 21 29  1  0  0  0  0
 21 22  1  0  0  0  0
 23 24  1  0  0  0  0
 24 25  1  6  0  0  0
 24 26  1  0  0  0  0
 26 27  1  6  0  0  0
 26 28  1  0  0  0  0
 29 28  1  6  0  0  0
 29 31  1  0  0  0  0
 30 14  1  6  0  0  0
 30 31  1  0  0  0  0
M  CHG  1   3  -1
M  END
>  <CHROM.1>
175.43709751,43.79163771,-66.18351654,128.84645639,158.43800571,165.40550798
98.14792917,27.34840464,35.82105717,19.03382537,2.16022080,-0.75308670,-1.84285859

>  <Name>
ligand

>  <RI>
0

>  <Rbt.Current_Directory>
/home/itssahil/PROJECTS/Mol_Feturizer/New_Systems/rnas/3F2T

>  <Rbt.Executable>
rbdock ($Id: //depot/dev/client3/rdock/2013.1/src/exe/rbdock.cxx#4 $)

>  <Rbt.Library>
libRbt.so (2013.1, Build901 2013/11/27)

>  <Rbt.Parameter_File>
/export/apps/rDock/src/rDock_2013.1_src/data/scripts/dock_solv.prm

>  <Rbt.Receptor>
prm/pocket_docking_7.prm

>  <SCORE>
-15.7756

>  <SCORE.INTER>
-19.5664

>  <SCORE.INTER.CONST>
1

>  <SCORE.INTER.POLAR>
0

>  <SCORE.INTER.ROT>
7

>  <SCORE.INTER.SOLV>
14.2396

>  <SCORE.INTER.VDW>
-26.0574

>  <SCORE.INTER.norm>
-0.631173

>  <SCORE.INTRA>
3.79082

>  <SCORE.INTRA.DIHEDRAL>
4.76701

>  <SCORE.INTRA.DIHEDRAL.0>
4.64198

>  <SCORE.INTRA.POLAR>
0

>  <SCORE.INTRA.POLAR.0>
0

>  <SCORE.INTRA.REPUL>
0

>  <SCORE.INTRA.REPUL.0>
0

>  <SCORE.INTRA.SOLV>
-0.0825396

>  <SCORE.INTRA.SOLV.lig_0>
-49.3611

>  <SCORE.INTRA.VDW>
1.44859

>  <SCORE.INTRA.VDW.0>
-1.91858

>  <SCORE.INTRA.norm>
0.122285

>  <SCORE.RESTR>
0

>  <SCORE.RESTR.CAVITY>
0

>  <SCORE.RESTR.norm>
0

>  <SCORE.SYSTEM>
0

>  <SCORE.SYSTEM.CONST>
0

>  <SCORE.SYSTEM.DIHEDRAL>
0

>  <SCORE.SYSTEM.SOLV>
0

>  <SCORE.SYSTEM.norm>
0

>  <SCORE.heavy>
31

>  <SCORE.norm>
-0.508889

>  <RMSD>
6.117

$$$$
ligand
 OpenBabel11021811473D
libRbt.so/2013.1/901 2013/11/27
 31 33  0  0  0  0  0  0  0  0999 V2000
   30.4445   35.9778   15.1733 P   0  0  1  0  0  0  0  0  0  0  0  0
   29.6223   36.7896   14.2046 O   0  0  0  0  0  0  0  0  0  0  0  0
   29.8474   34.5994   15.2756 O   0  5  0  0  0  0  0  0  0  0  0  0
   31.8460   35.9508   14.6283 O   0  0  0  0  0  0  0  0  0  0  0  0
   30.9154   37.9416   16.8443 C   0  0  0  0  0  0  0  0  0  0  0  0
   30.4822   36.6117   16.6481 O   0  0  0  0  0  0  0  0  0  0  0  0
   30.8813   38.2662   18.3354 C   0  0  1  0  0  0  0  0  0  0  0  0
   31.7084   39.3818   18.6002 O   0  0  0  0  0  0  0  0  0  0  0  0
   29.4603   38.5911   18.7643 C   0  0  1  0  0  0  0  0  0  0  0  0
   28.5971   37.6443   18.1936 O   0  0  0  0  0  0  0  0  0  0  0  0
   29.2854   38.5692   20.2735 C   0  0  1  0  0  0  0  0  0  0  0  0
   30.0504   39.6094   20.8200 O   0  0  0  0  0  0  0  0  0  0  0  0
   27.8275   38.7672   20.6538 C   0  0  0  0  0  0  0  0  0  0  0  0
   27.2506   39.8714   23.1773 N   0  0  0  0  0  0  0  0  0  0  0  0
   27.0333   40.4572   24.4055 C   0  0  0  0  0  0  0  0  0  0  0  0
   27.0310   41.6800   24.5129 O   0  0  0  0  0  0  0  0  0  0  0  0
   26.8197   39.6801   25.5210 N   0  0  0  0  0  0  0  0  0  0  0  0
   26.8098   38.3028   25.4169 C   0  0  0  0  0  0  0  0  0  0  0  0
   27.0288   37.7028   24.1819 C   0  0  1  0  0  0  0  0  0  0  0  0
   26.5993   37.6116   26.4157 O   0  0  0  0  0  0  0  0  0  0  0  0
   27.2382   35.7328   22.8422 C   0  0  2  0  0  0  0  0  0  0  0  0
   27.0221   36.3268   24.0710 N   0  0  0  0  0  0  0  0  0  0  0  0
   27.2313   34.3419   22.7315 C   0  0  0  0  0  0  0  0  0  0  0  0
   27.4527   33.7341   21.5013 C   0  0  1  0  0  0  0  0  0  0  0  0
   27.4416   32.2403   21.4212 C   0  0  0  0  0  0  0  0  0  0  0  0
   27.6793   34.5244   20.3643 C   0  0  1  0  0  0  0  0  0  0  0  0
   27.9140   33.9064   19.0132 C   0  0  0  0  0  0  0  0  0  0  0  0
   27.6873   35.9120   20.4783 C   0  0  0  0  0  0  0  0  0  0  0  0
   27.4692   36.5236   21.7141 C   0  0  1  0  0  0  0  0  0  0  0  0
   27.2540   38.4962   23.0588 C   0  0  1  0  0  0  0  0  0  0  0  0
   27.4790   37.9055   21.8301 N   0  0  0  0  0  0  0  0  0  0  0  0
  1  2  1  6  0  0  0
  1  3  1  0  0  0  0
  1  4  2  0  0  0  0
  1  6  1  0  0  0  0
  5  6  1  0  0  0  0
  7  5  1  6  0  0  0
  7  8  1  0  0  0  0
  7  9  1  0  0  0  0
  9 10  1  6  0  0  0
  9 11  1  0  0  0  0
 11 12  1  1  0  0  0
 11 13  1  0  0  0  0
 13 31  1  0  0  0  0
 14 15  1  0  0  0  0
 15 16  2  0  0  0  0
 15 17  1  0  0  0  0
 17 18  1  0  0  0  0
 18 20  2  0  0  0  0
 19 18  1  6  0  0  0
 19 22  1  0  0  0  0
 19 30  1  0  0  0  0
 21 23  1  1  0  0  0
 21 29  1  0  0  0  0
 21 22  1  0  0  0  0
 23 24  1  0  0  0  0
 24 25  1  6  0  0  0
 24 26  1  0  0  0  0
 26 27  1  6  0  0  0
 26 28  1  0  0  0  0
 29 28  1  6  0  0  0
 29 31  1  0  0  0  0
 30 14  1  6  0  0  0
 30 31  1  0  0  0  0
M  CHG  1   3  -1
M  END
>  <CHROM.1>
-178.64130203,-55.62633126,160.40105101,44.53021914,65.57976915,142.03513277
-66.73588810,28.59070565,37.19104928,20.31596531,0.69494012,-1.08161920,-2.62764055

>  <Name>
ligand

>  <RI>
0

>  <Rbt.Current_Directory>
/home/itssahil/PROJECTS/Mol_Feturizer/New_Systems/rnas/3F2T

>  <Rbt.Executable>
rbdock ($Id: //depot/dev/client3/rdock/2013.1/src/exe/rbdock.cxx#4 $)

>  <Rbt.Library>
libRbt.so (2013.1, Build901 2013/11/27)

>  <Rbt.Parameter_File>
/export/apps/rDock/src/rDock_2013.1_src/data/scripts/dock_solv.prm

>  <Rbt.Receptor>
prm/pocket_docking_8.prm

>  <SCORE>
-23.8015

>  <SCORE.INTER>
-25.3041

>  <SCORE.INTER.CONST>
1

>  <SCORE.INTER.POLAR>
0

>  <SCORE.INTER.ROT>
7

>  <SCORE.INTER.SOLV>
12.242

>  <SCORE.INTER.VDW>
-29.2167

>  <SCORE.INTER.norm>
-0.81626

>  <SCORE.INTRA>
1.49544

>  <SCORE.INTRA.DIHEDRAL>
2.46017

>  <SCORE.INTRA.DIHEDRAL.0>
4.64198

>  <SCORE.INTRA.POLAR>
0

>  <SCORE.INTRA.POLAR.0>
0

>  <SCORE.INTRA.REPUL>
0

>  <SCORE.INTRA.REPUL.0>
0

>  <SCORE.INTRA.SOLV>
0.0613053

>  <SCORE.INTRA.SOLV.lig_0>
-49.3611

>  <SCORE.INTRA.VDW>
0.234701

>  <SCORE.INTRA.VDW.0>
-1.91858

>  <SCORE.INTRA.norm>
0.04824

>  <SCORE.RESTR>
0.00710242

>  <SCORE.RESTR.CAVITY>
0.00710242

>  <SCORE.RESTR.norm>
0.00022911

>  <SCORE.SYSTEM>
0

>  <SCORE.SYSTEM.CONST>
0

>  <SCORE.SYSTEM.DIHEDRAL>
0

>  <SCORE.SYSTEM.SOLV>
0

>  <SCORE.SYSTEM.norm>
0

>  <SCORE.heavy>
31

>  <SCORE.norm>
-0.767791

>  <RMSD>
6.126

$$$$
ligand
 OpenBabel11021811473D
libRbt.so/2013.1/901 2013/11/27
 31 33  0  0  0  0  0  0  0  0999 V2000
   31.5887   36.4152   15.8844 P   0  0  1  0  0  0  0  0  0  0  0  0
   32.9217   37.1144   15.7975 O   0  0  0  0  0  0  0  0  0  0  0  0
   31.2126   35.9217   14.5126 O   0  5  0  0  0  0  0  0  0  0  0  0
   31.7585   35.2890   16.8667 O   0  0  0  0  0  0  0  0  0  0  0  0
   30.4853   37.9682   17.6848 C   0  0  0  0  0  0  0  0  0  0  0  0
   30.4108   37.3740   16.4056 O   0  0  0  0  0  0  0  0  0  0  0  0
   29.3221   38.9419   17.8549 C   0  0  1  0  0  0  0  0  0  0  0  0
   28.1011   38.2293   17.8685 O   0  0  0  0  0  0  0  0  0  0  0  0
   29.4665   39.7008   19.1633 C   0  0  1  0  0  0  0  0  0  0  0  0
   28.5670   40.7770   19.1538 O   0  0  0  0  0  0  0  0  0  0  0  0
   29.1817   38.8327   20.3774 C   0  0  1  0  0  0  0  0  0  0  0  0
   29.7343   39.4576   21.5043 O   0  0  0  0  0  0  0  0  0  0  0  0
   27.6857   38.6618   20.5833 C   0  0  0  0  0  0  0  0  0  0  0  0
   27.2494   39.8588   23.0926 N   0  0  0  0  0  0  0  0  0  0  0  0
   27.0996   40.4905   24.3081 C   0  0  0  0  0  0  0  0  0  0  0  0
   27.0855   41.7165   24.3674 O   0  0  0  0  0  0  0  0  0  0  0  0
   26.9672   39.7561   25.4644 N   0  0  0  0  0  0  0  0  0  0  0  0
   26.9716   38.3757   25.4152 C   0  0  0  0  0  0  0  0  0  0  0  0
   27.1229   37.7295   24.1934 C   0  0  1  0  0  0  0  0  0  0  0  0
   26.8337   37.7225   26.4515 O   0  0  0  0  0  0  0  0  0  0  0  0
   27.2788   35.7103   22.9215 C   0  0  2  0  0  0  0  0  0  0  0  0
   27.1302   36.3502   24.1371 N   0  0  0  0  0  0  0  0  0  0  0  0
   27.2861   34.3161   22.8660 C   0  0  0  0  0  0  0  0  0  0  0  0
   27.4402   33.6623   21.6492 C   0  0  1  0  0  0  0  0  0  0  0  0
   27.4468   32.1665   21.6285 C   0  0  0  0  0  0  0  0  0  0  0  0
   27.5841   34.4092   20.4701 C   0  0  1  0  0  0  0  0  0  0  0  0
   27.7441   33.7407   19.1323 C   0  0  0  0  0  0  0  0  0  0  0  0
   27.5781   35.8003   20.5289 C   0  0  0  0  0  0  0  0  0  0  0  0
   27.4276   36.4581   21.7510 C   0  0  1  0  0  0  0  0  0  0  0  0
   27.2662   38.4801   23.0282 C   0  0  1  0  0  0  0  0  0  0  0  0
   27.4237   37.8435   21.8119 N   0  0  0  0  0  0  0  0  0  0  0  0
  1  2  1  6  0  0  0
  1  3  1  0  0  0  0
  1  4  2  0  0  0  0
  1  6  1  0  0  0  0
  5  6  1  0  0  0  0
  7  5  1  1  0  0  0
  7  8  1  0  0  0  0
  7  9  1  0  0  0  0
  9 10  1  6  0  0  0
  9 11  1  0  0  0  0
 11 12  1  1  0  0  0
 11 13  1  0  0  0  0
 13 31  1  0  0  0  0
 14 15  1  0  0  0  0
 15 16  2  0  0  0  0
 15 17  1  0  0  0  0
 17 18  1  0  0  0  0
 18 20  2  0  0  0  0
 19 18  1  6  0  0  0
 19 22  1  0  0  0  0
 19 30  1  0  0  0  0
 21 23  1  1  0  0  0
 21 29  1  0  0  0  0
 21 22  1  0  0  0  0
 23 24  1  0  0  0  0
 24 25  1  6  0  0  0
 24 26  1  0  0  0  0
 26 27  1  6  0  0  0
 26 28  1  0  0  0  0
 29 28  1  6  0  0  0
 29 31  1  0  0  0  0
 30 14  1  6  0  0  0
 30 31  1  0  0  0  0
M  CHG  1   3  -1
M  END
>  <CHROM.1>
173.74402649,-60.80688085,66.10859266,167.16427377,161.57425134,-178.01540320
-84.91667884,28.63906195,37.39602973,20.53909626,-0.39755527,1.07923031,0.22743639

>  <Name>
ligand

>  <RI>
0

>  <Rbt.Current_Directory>
/home/itssahil/PROJECTS/Mol_Feturizer/New_Systems/rnas/3F2T

>  <Rbt.Executable>
rbdock ($Id: //depot/dev/client3/rdock/2013.1/src/exe/rbdock.cxx#4 $)

>  <Rbt.Library>
libRbt.so (2013.1, Build901 2013/11/27)

>  <Rbt.Parameter_File>
/export/apps/rDock/src/rDock_2013.1_src/data/scripts/dock_solv.prm

>  <Rbt.Receptor>
prm/blind_docking_60.prm

>  <SCORE>
-25.1543

>  <SCORE.INTER>
-24.9986

>  <SCORE.INTER.CONST>
1

>  <SCORE.INTER.POLAR>
0

>  <SCORE.INTER.ROT>
7

>  <SCORE.INTER.SOLV>
12.7453

>  <SCORE.INTER.VDW>
-29.1808

>  <SCORE.INTER.norm>
-0.806407

>  <SCORE.INTRA>
-0.15566

>  <SCORE.INTRA.DIHEDRAL>
-1.47318

>  <SCORE.INTRA.DIHEDRAL.0>
4.64198

>  <SCORE.INTRA.POLAR>
0

>  <SCORE.INTRA.POLAR.0>
0

>  <SCORE.INTRA.REPUL>
0

>  <SCORE.INTRA.REPUL.0>
0

>  <SCORE.INTRA.SOLV>
-0.49673

>  <SCORE.INTRA.SOLV.lig_0>
-49.3611

>  <SCORE.INTRA.VDW>
0.829297

>  <SCORE.INTRA.VDW.0>
-1.91858

>  <SCORE.INTRA.norm>
-0.00502128

>  <SCORE.RESTR>
0

>  <SCORE.RESTR.CAVITY>
0

>  <SCORE.RESTR.norm>
0

>  <SCORE.SYSTEM>
0

>  <SCORE.SYSTEM.CONST>
0

>  <SCORE.SYSTEM.DIHEDRAL>
0

>  <SCORE.SYSTEM.SOLV>
0

>  <SCORE.SYSTEM.norm>
0

>  <SCORE.heavy>
31

>  <SCORE.norm>
-0.811428

>  <RMSD>
6.132

$$$$
ligand
 OpenBabel11021811473D
libRbt.so/2013.1/901 2013/11/27
 31 33  0  0  0  0  0  0  0  0999 V2000
   29.0531   43.3943   25.5011 P   0  0  1  0  0  0  0  0  0  0  0  0
   28.1504   44.5170   25.9461 O   0  0  0  0  0  0  0  0  0  0  0  0
   30.3502   43.9829   25.0132 O   0  5  0  0  0  0  0  0  0  0  0  0
   29.2480   42.5018   26.6959 O   0  0  0  0  0  0  0  0  0  0  0  0
   28.0387   43.1372   23.0979 C   0  0  0  0  0  0  0  0  0  0  0  0
   28.4260   42.5211   24.3084 O   0  0  0  0  0  0  0  0  0  0  0  0
   27.4535   42.0826   22.1622 C   0  0  1  0  0  0  0  0  0  0  0  0
   26.8106   42.7146   21.0732 O   0  0  0  0  0  0  0  0  0  0  0  0
   28.5603   41.1871   21.6313 C   0  0  1  0  0  0  0  0  0  0  0  0
   29.3698   40.7964   22.7080 O   0  0  0  0  0  0  0  0  0  0  0  0
   28.0258   39.9433   20.9415 C   0  0  1  0  0  0  0  0  0  0  0  0
   27.2819   40.3459   19.8232 O   0  0  0  0  0  0  0  0  0  0  0  0
   29.1631   39.0430   20.4881 C   0  0  0  0  0  0  0  0  0  0  0  0
   27.9374   37.8171   22.7050 N   0  0  0  0  0  0  0  0  0  0  0  0
   27.3956   37.2461   23.8361 C   0  0  0  0  0  0  0  0  0  0  0  0
   27.2009   37.9285   24.8377 O   0  0  0  0  0  0  0  0  0  0  0  0
   27.0706   35.9089   23.8553 N   0  0  0  0  0  0  0  0  0  0  0  0
   27.2744   35.1281   22.7342 C   0  0  0  0  0  0  0  0  0  0  0  0
   27.8213   35.6954   21.5886 C   0  0  1  0  0  0  0  0  0  0  0  0
   26.9640   33.9352   22.7504 O   0  0  0  0  0  0  0  0  0  0  0  0
   28.5713   35.4869   19.3273 C   0  0  2  0  0  0  0  0  0  0  0  0
   28.0294   34.9204   20.4653 N   0  0  0  0  0  0  0  0  0  0  0  0
   28.7812   34.7024   18.1926 C   0  0  0  0  0  0  0  0  0  0  0  0
   29.3305   35.2609   17.0445 C   0  0  1  0  0  0  0  0  0  0  0  0
   29.5446   34.3886   15.8481 C   0  0  0  0  0  0  0  0  0  0  0  0
   29.6707   36.6220   17.0257 C   0  0  1  0  0  0  0  0  0  0  0  0
   30.2587   37.2671   15.8007 C   0  0  0  0  0  0  0  0  0  0  0  0
   29.4615   37.4018   18.1601 C   0  0  0  0  0  0  0  0  0  0  0  0
   28.9138   36.8410   19.3152 C   0  0  1  0  0  0  0  0  0  0  0  0
   28.1568   37.0478   21.5802 C   0  0  1  0  0  0  0  0  0  0  0  0
   28.7068   37.6155   20.4469 N   0  0  0  0  0  0  0  0  0  0  0  0
  1  2  1  1  0  0  0
  1  3  1  0  0  0  0
  1  4  2  0  0  0  0
  1  6  1  0  0  0  0
  5  6  1  0  0  0  0
  7  5  1  1  0  0  0
  7  8  1  0  0  0  0
  7  9  1  0  0  0  0
  9 10  1  1  0  0  0
  9 11  1  0  0  0  0
 11 12  1  6  0  0  0
 11 13  1  0  0  0  0
 13 31  1  0  0  0  0
 14 15  1  0  0  0  0
 15 16  2  0  0  0  0
 15 17  1  0  0  0  0
 17 18  1  0  0  0  0
 18 20  2  0  0  0  0
 19 18  1  6  0  0  0
 19 22  1  0  0  0  0
 19 30  1  0  0  0  0
 21 23  1  1  0  0  0
 21 29  1  0  0  0  0
 21 22  1  0  0  0  0
 23 24  1  0  0  0  0
 24 25  1  6  0  0  0
 24 26  1  0  0  0  0
 26 27  1  6  0  0  0
 26 28  1  0  0  0  0
 29 28  1  6  0  0  0
 29 31  1  0  0  0  0
 30 14  1  6  0  0  0
 30 31  1  0  0  0  0
M  CHG  1   3  -1
M  END
>  <CHROM.1>
-178.83234369,56.87276164,167.80166039,47.03080806,63.01177267,152.24233316
129.18665896,28.43945330,38.98352068,21.73454291,-1.62360510,-1.29038895
-2.49690234

>  <Name>
ligand

>  <RI>
0

>  <Rbt.Current_Directory>
/home/itssahil/PROJECTS/Mol_Feturizer/New_Systems/rnas/3F2T

>  <Rbt.Executable>
rbdock ($Id: //depot/dev/client3/rdock/2013.1/src/exe/rbdock.cxx#4 $)

>  <Rbt.Library>
libRbt.so (2013.1, Build901 2013/11/27)

>  <Rbt.Parameter_File>
/export/apps/rDock/src/rDock_2013.1_src/data/scripts/dock_solv.prm

>  <Rbt.Receptor>
prm/blind_docking_60.prm

>  <SCORE>
-24.8681

>  <SCORE.INTER>
-26.137

>  <SCORE.INTER.CONST>
1

>  <SCORE.INTER.POLAR>
0

>  <SCORE.INTER.ROT>
7

>  <SCORE.INTER.SOLV>
19.9085

>  <SCORE.INTER.VDW>
-32.3275

>  <SCORE.INTER.norm>
-0.84313

>  <SCORE.INTRA>
1.2689

>  <SCORE.INTRA.DIHEDRAL>
0.0231576

>  <SCORE.INTRA.DIHEDRAL.0>
4.64198

>  <SCORE.INTRA.POLAR>
0

>  <SCORE.INTRA.POLAR.0>
0

>  <SCORE.INTRA.REPUL>
0

>  <SCORE.INTRA.REPUL.0>
0

>  <SCORE.INTRA.SOLV>
-0.0117294

>  <SCORE.INTRA.SOLV.lig_0>
-49.3611

>  <SCORE.INTRA.VDW>
1.26319

>  <SCORE.INTRA.VDW.0>
-1.91858

>  <SCORE.INTRA.norm>
0.0409324

>  <SCORE.RESTR>
0

>  <SCORE.RESTR.CAVITY>
0

>  <SCORE.RESTR.norm>
0

>  <SCORE.SYSTEM>
0

>  <SCORE.SYSTEM.CONST>
0

>  <SCORE.SYSTEM.DIHEDRAL>
0

>  <SCORE.SYSTEM.SOLV>
0

>  <SCORE.SYSTEM.norm>
0

>  <SCORE.heavy>
31

>  <SCORE.norm>
-0.802197

>  <RMSD>
6.160

$$$$
ligand
 OpenBabel11021811473D
libRbt.so/2013.1/901 2013/11/27
 31 33  0  0  0  0  0  0  0  0999 V2000
   31.2850   36.1710   16.2903 P   0  0  1  0  0  0  0  0  0  0  0  0
   30.6895   35.0492   17.1028 O   0  0  0  0  0  0  0  0  0  0  0  0
   32.7781   35.9854   16.2336 O   0  5  0  0  0  0  0  0  0  0  0  0
   30.6512   36.0972   14.9283 O   0  0  0  0  0  0  0  0  0  0  0  0
   31.4524   37.9523   18.2058 C   0  0  0  0  0  0  0  0  0  0  0  0
   30.9897   37.6212   16.9130 O   0  0  0  0  0  0  0  0  0  0  0  0
   30.9923   39.3647   18.5575 C   0  0  1  0  0  0  0  0  0  0  0  0
   31.2006   40.2234   17.4539 O   0  0  0  0  0  0  0  0  0  0  0  0
   29.5135   39.3578   18.9067 C   0  0  1  0  0  0  0  0  0  0  0  0
   28.8258   38.6480   17.9115 O   0  0  0  0  0  0  0  0  0  0  0  0
   29.2337   38.7120   20.2534 C   0  0  1  0  0  0  0  0  0  0  0  0
   29.9184   39.4365   21.2394 O   0  0  0  0  0  0  0  0  0  0  0  0
   27.7461   38.7271   20.5638 C   0  0  0  0  0  0  0  0  0  0  0  0
   27.2816   39.9062   23.0766 N   0  0  0  0  0  0  0  0  0  0  0  0
   27.1184   40.5289   24.2949 C   0  0  0  0  0  0  0  0  0  0  0  0
   27.1086   41.7545   24.3637 O   0  0  0  0  0  0  0  0  0  0  0  0
   26.9676   39.7860   25.4435 N   0  0  0  0  0  0  0  0  0  0  0  0
   26.9669   38.4060   25.3834 C   0  0  0  0  0  0  0  0  0  0  0  0
   27.1317   37.7688   24.1586 C   0  0  1  0  0  0  0  0  0  0  0  0
   26.8126   37.7453   26.4126 O   0  0  0  0  0  0  0  0  0  0  0  0
   27.2960   35.7590   22.8729 C   0  0  2  0  0  0  0  0  0  0  0  0
   27.1339   36.3900   24.0916 N   0  0  0  0  0  0  0  0  0  0  0  0
   27.2981   34.3653   22.8065 C   0  0  0  0  0  0  0  0  0  0  0  0
   27.4656   33.7205   21.5867 C   0  0  1  0  0  0  0  0  0  0  0  0
   27.4661   32.2248   21.5543 C   0  0  0  0  0  0  0  0  0  0  0  0
   27.6282   34.4760   20.4156 C   0  0  1  0  0  0  0  0  0  0  0  0
   27.8031   33.8174   19.0747 C   0  0  0  0  0  0  0  0  0  0  0  0
   27.6272   35.8666   20.4853 C   0  0  0  0  0  0  0  0  0  0  0  0
   27.4633   36.5154   21.7105 C   0  0  1  0  0  0  0  0  0  0  0  0
   27.2935   38.5280   23.0014 C   0  0  1  0  0  0  0  0  0  0  0  0
   27.4644   37.9003   21.7823 N   0  0  0  0  0  0  0  0  0  0  0  0
  1  2  1  1  0  0  0
  1  3  1  0  0  0  0
  1  4  2  0  0  0  0
  1  6  1  0  0  0  0
  5  6  1  0  0  0  0
  7  5  1  6  0  0  0
  7  8  1  0  0  0  0
  7  9  1  0  0  0  0
  9 10  1  6  0  0  0
  9 11  1  0  0  0  0
 11 12  1  1  0  0  0
 11 13  1  0  0  0  0
 13 31  1  0  0  0  0
 14 15  1  0  0  0  0
 15 16  2  0  0  0  0
 15 17  1  0  0  0  0
 17 18  1  0  0  0  0
 18 20  2  0  0  0  0
 19 18  1  6  0  0  0
 19 22  1  0  0  0  0
 19 30  1  0  0  0  0
 21 23  1  1  0  0  0
 21 29  1  0  0  0  0
 21 22  1  0  0  0  0
 23 24  1  0  0  0  0
 24 25  1  6  0  0  0
 24 26  1  0  0  0  0
 26 27  1  6  0  0  0
 26 28  1  0  0  0  0
 29 28  1  6  0  0  0
 29 31  1  0  0  0  0
 30 14  1  6  0  0  0
 30 31  1  0  0  0  0
M  CHG  1   3  -1
M  END
>  <CHROM.1>
-178.12846577,60.81247759,-44.41007978,-48.36818308,60.11211818,171.07700416
-76.03950778,28.79674467,37.36575605,20.55994812,0.50290955,-1.02783240,-2.78908581

>  <Name>
ligand

>  <RI>
0

>  <Rbt.Current_Directory>
/home/itssahil/PROJECTS/Mol_Feturizer/New_Systems/rnas/3F2T

>  <Rbt.Executable>
rbdock ($Id: //depot/dev/client3/rdock/2013.1/src/exe/rbdock.cxx#4 $)

>  <Rbt.Library>
libRbt.so (2013.1, Build901 2013/11/27)

>  <Rbt.Parameter_File>
/export/apps/rDock/src/rDock_2013.1_src/data/scripts/dock_solv.prm

>  <Rbt.Receptor>
prm/pocket_docking_7.prm

>  <SCORE>
-25.6951

>  <SCORE.INTER>
-24.9602

>  <SCORE.INTER.CONST>
1

>  <SCORE.INTER.POLAR>
0

>  <SCORE.INTER.ROT>
7

>  <SCORE.INTER.SOLV>
13.5665

>  <SCORE.INTER.VDW>
-29.429

>  <SCORE.INTER.norm>
-0.805167

>  <SCORE.INTRA>
-0.734948

>  <SCORE.INTRA.DIHEDRAL>
-1.93427

>  <SCORE.INTRA.DIHEDRAL.0>
4.64198

>  <SCORE.INTRA.POLAR>
0

>  <SCORE.INTRA.POLAR.0>
0

>  <SCORE.INTRA.REPUL>
0

>  <SCORE.INTRA.REPUL.0>
0

>  <SCORE.INTRA.SOLV>
-0.174036

>  <SCORE.INTRA.SOLV.lig_0>
-49.3611

>  <SCORE.INTRA.VDW>
0.319203

>  <SCORE.INTRA.VDW.0>
-1.91858

>  <SCORE.INTRA.norm>
-0.023708

>  <SCORE.RESTR>
0

>  <SCORE.RESTR.CAVITY>
0

>  <SCORE.RESTR.norm>
0

>  <SCORE.SYSTEM>
0

>  <SCORE.SYSTEM.CONST>
0

>  <SCORE.SYSTEM.DIHEDRAL>
0

>  <SCORE.SYSTEM.SOLV>
0

>  <SCORE.SYSTEM.norm>
0

>  <SCORE.heavy>
31

>  <SCORE.norm>
-0.828875

>  <RMSD>
6.176

$$$$
ligand
 OpenBabel11021811473D
libRbt.so/2013.1/901 2013/11/27
 31 33  0  0  0  0  0  0  0  0999 V2000
   29.3852   43.3132   25.3791 P   0  0  1  0  0  0  0  0  0  0  0  0
   28.4311   44.3228   25.9652 O   0  0  0  0  0  0  0  0  0  0  0  0
   30.6136   44.0358   24.8934 O   0  5  0  0  0  0  0  0  0  0  0  0
   29.6990   42.3329   26.4757 O   0  0  0  0  0  0  0  0  0  0  0  0
   28.5318   43.1592   22.9055 C   0  0  0  0  0  0  0  0  0  0  0  0
   28.7612   42.5082   24.1378 O   0  0  0  0  0  0  0  0  0  0  0  0
   27.8714   42.1820   21.9364 C   0  0  1  0  0  0  0  0  0  0  0  0
   27.4971   42.8614   20.7544 O   0  0  0  0  0  0  0  0  0  0  0  0
   28.8410   41.0676   21.5806 C   0  0  1  0  0  0  0  0  0  0  0  0
   29.3424   40.5189   22.7700 O   0  0  0  0  0  0  0  0  0  0  0  0
   28.1889   39.9629   20.7662 C   0  0  1  0  0  0  0  0  0  0  0  0
   27.8299   40.4904   19.5176 O   0  0  0  0  0  0  0  0  0  0  0  0
   29.1473   38.8014   20.5618 C   0  0  0  0  0  0  0  0  0  0  0  0
   27.7458   38.4033   22.9695 N   0  0  0  0  0  0  0  0  0  0  0  0
   27.1222   38.2385   24.1872 C   0  0  0  0  0  0  0  0  0  0  0  0
   27.0483   39.1783   24.9734 O   0  0  0  0  0  0  0  0  0  0  0  0
   26.5797   37.0223   24.5343 N   0  0  0  0  0  0  0  0  0  0  0  0
   26.6457   35.9565   23.6581 C   0  0  0  0  0  0  0  0  0  0  0  0
   27.2736   36.1131   22.4274 C   0  0  1  0  0  0  0  0  0  0  0  0
   26.1417   34.8745   23.9660 O   0  0  0  0  0  0  0  0  0  0  0  0
   27.9677   35.2103   20.3244 C   0  0  2  0  0  0  0  0  0  0  0  0
   27.3448   35.0517   21.5476 N   0  0  0  0  0  0  0  0  0  0  0  0
   28.0391   34.1366   19.4362 C   0  0  0  0  0  0  0  0  0  0  0  0
   28.6679   34.2838   18.2054 C   0  0  1  0  0  0  0  0  0  0  0  0
   28.7284   33.1098   17.2801 C   0  0  0  0  0  0  0  0  0  0  0  0
   29.2292   35.5205   17.8531 C   0  0  1  0  0  0  0  0  0  0  0  0
   29.9103   35.7241   16.5276 C   0  0  0  0  0  0  0  0  0  0  0  0
   29.1579   36.5896   18.7423 C   0  0  0  0  0  0  0  0  0  0  0  0
   28.5302   36.4418   19.9805 C   0  0  1  0  0  0  0  0  0  0  0  0
   27.8290   37.3450   22.0872 C   0  0  1  0  0  0  0  0  0  0  0  0
   28.4602   37.5047   20.8685 N   0  0  0  0  0  0  0  0  0  0  0  0
  1  2  1  1  0  0  0
  1  3  1  0  0  0  0
  1  4  2  0  0  0  0
  1  6  1  0  0  0  0
  5  6  1  0  0  0  0
  7  5  1  1  0  0  0
  7  8  1  0  0  0  0
  7  9  1  0  0  0  0
  9 10  1  1  0  0  0
  9 11  1  0  0  0  0
 11 12  1  6  0  0  0
 11 13  1  0  0  0  0
 13 31  1  0  0  0  0
 14 15  1  0  0  0  0
 15 16  2  0  0  0  0
 15 17  1  0  0  0  0
 17 18  1  0  0  0  0
 18 20  2  0  0  0  0
 19 18  1  6  0  0  0
 19 22  1  0  0  0  0
 19 30  1  0  0  0  0
 21 23  1  1  0  0  0
 21 29  1  0  0  0  0
 21 22  1  0  0  0  0
 23 24  1  0  0  0  0
 24 25  1  6  0  0  0
 24 26  1  0  0  0  0
 26 27  1  6  0  0  0
 26 28  1  0  0  0  0
 29 28  1  6  0  0  0
 29 31  1  0  0  0  0
 30 14  1  6  0  0  0
 30 31  1  0  0  0  0
M  CHG  1   3  -1
M  END
>  <CHROM.1>
-177.08808006,70.11208320,173.31655459,51.83251640,66.35767137,132.53778035
130.84225344,28.33697491,38.95445215,22.08571698,-1.39033590,-1.20112155
-2.37431892

>  <Name>
ligand

>  <RI>
0

>  <Rbt.Current_Directory>
/home/itssahil/PROJECTS/Mol_Feturizer/New_Systems/rnas/3F2T

>  <Rbt.Executable>
rbdock ($Id: //depot/dev/client3/rdock/2013.1/src/exe/rbdock.cxx#4 $)

>  <Rbt.Library>
libRbt.so (2013.1, Build901 2013/11/27)

>  <Rbt.Parameter_File>
/export/apps/rDock/src/rDock_2013.1_src/data/scripts/dock_solv.prm

>  <Rbt.Receptor>
prm/blind_docking_80.prm

>  <SCORE>
-27.0413

>  <SCORE.INTER>
-29.5823

>  <SCORE.INTER.CONST>
1

>  <SCORE.INTER.POLAR>
0

>  <SCORE.INTER.ROT>
7

>  <SCORE.INTER.SOLV>
19.452

>  <SCORE.INTER.VDW>
-34.4722

>  <SCORE.INTER.norm>
-0.954268

>  <SCORE.INTRA>
2.54101

>  <SCORE.INTRA.DIHEDRAL>
1.96248

>  <SCORE.INTRA.DIHEDRAL.0>
4.64198

>  <SCORE.INTRA.POLAR>
0

>  <SCORE.INTRA.POLAR.0>
0

>  <SCORE.INTRA.REPUL>
0

>  <SCORE.INTRA.REPUL.0>
0

>  <SCORE.INTRA.SOLV>
0.505313

>  <SCORE.INTRA.SOLV.lig_0>
-49.3611

>  <SCORE.INTRA.VDW>
1.30712

>  <SCORE.INTRA.VDW.0>
-1.91858

>  <SCORE.INTRA.norm>
0.0819682

>  <SCORE.RESTR>
0

>  <SCORE.RESTR.CAVITY>
0

>  <SCORE.RESTR.norm>
0

>  <SCORE.SYSTEM>
0

>  <SCORE.SYSTEM.CONST>
0

>  <SCORE.SYSTEM.DIHEDRAL>
0

>  <SCORE.SYSTEM.SOLV>
0

>  <SCORE.SYSTEM.norm>
0

>  <SCORE.heavy>
31

>  <SCORE.norm>
-0.8723

>  <RMSD>
6.182

$$$$
ligand
 OpenBabel11021811473D
libRbt.so/2013.1/901 2013/11/27
 31 33  0  0  0  0  0  0  0  0999 V2000
   25.0891   33.1317   14.6873 P   0  0  1  0  0  0  0  0  0  0  0  0
   23.7798   33.1193   13.9399 O   0  0  0  0  0  0  0  0  0  0  0  0
   25.9675   32.0385   14.1395 O   0  5  0  0  0  0  0  0  0  0  0  0
   25.6866   34.4967   14.4829 O   0  0  0  0  0  0  0  0  0  0  0  0
   25.9950   33.0950   17.1467 C   0  0  0  0  0  0  0  0  0  0  0  0
   24.9134   32.8822   16.2638 O   0  0  0  0  0  0  0  0  0  0  0  0
   25.5397   32.8126   18.5761 C   0  0  1  0  0  0  0  0  0  0  0  0
   25.2346   31.4394   18.7175 O   0  0  0  0  0  0  0  0  0  0  0  0
   26.6433   33.1775   19.5548 C   0  0  1  0  0  0  0  0  0  0  0  0
   27.8106   32.4952   19.1818 O   0  0  0  0  0  0  0  0  0  0  0  0
   26.9325   34.6689   19.5805 C   0  0  1  0  0  0  0  0  0  0  0  0
   25.7254   35.3472   19.8015 O   0  0  0  0  0  0  0  0  0  0  0  0
   27.9104   35.0130   20.6918 C   0  0  0  0  0  0  0  0  0  0  0  0
   29.1059   36.0964   18.3859 N   0  0  0  0  0  0  0  0  0  0  0  0
   29.7412   36.5649   17.2565 C   0  0  0  0  0  0  0  0  0  0  0  0
   29.9020   35.8265   16.2892 O   0  0  0  0  0  0  0  0  0  0  0  0
   30.2026   37.8604   17.2022 N   0  0  0  0  0  0  0  0  0  0  0  0
   30.0221   38.7079   18.2778 C   0  0  0  0  0  0  0  0  0  0  0  0
   29.3828   38.2438   19.4221 C   0  0  1  0  0  0  0  0  0  0  0  0
   30.4204   39.8729   18.2171 O   0  0  0  0  0  0  0  0  0  0  0  0
   28.5635   38.6219   21.6369 C   0  0  2  0  0  0  0  0  0  0  0  0
   29.2007   39.0849   20.5015 N   0  0  0  0  0  0  0  0  0  0  0  0
   28.3802   39.4730   22.7272 C   0  0  0  0  0  0  0  0  0  0  0  0
   27.7451   39.0160   23.8760 C   0  0  1  0  0  0  0  0  0  0  0  0
   27.5694   39.9557   25.0267 C   0  0  0  0  0  0  0  0  0  0  0  0
   27.2817   37.6930   23.9367 C   0  0  1  0  0  0  0  0  0  0  0  0
   26.5815   37.1620   25.1574 C   0  0  0  0  0  0  0  0  0  0  0  0
   27.4676   36.8456   22.8476 C   0  0  0  0  0  0  0  0  0  0  0  0
   28.1090   37.3023   21.6948 C   0  0  1  0  0  0  0  0  0  0  0  0
   28.9272   36.9280   19.4730 C   0  0  1  0  0  0  0  0  0  0  0  0
   28.2972   36.4591   20.6099 N   0  0  0  0  0  0  0  0  0  0  0  0
  1  2  1  6  0  0  0
  1  3  1  0  0  0  0
  1  4  2  0  0  0  0
  1  6  1  0  0  0  0
  5  6  1  0  0  0  0
  7  5  1  6  0  0  0
  7  8  1  0  0  0  0
  7  9  1  0  0  0  0
  9 10  1  6  0  0  0
  9 11  1  0  0  0  0
 11 12  1  1  0  0  0
 11 13  1  0  0  0  0
 13 31  1  0  0  0  0
 14 15  1  0  0  0  0
 15 16  2  0  0  0  0
 15 17  1  0  0  0  0
 17 18  1  0  0  0  0
 18 20  2  0  0  0  0
 19 18  1  6  0  0  0
 19 22  1  0  0  0  0
 19 30  1  0  0  0  0
 21 23  1  1  0  0  0
 21 29  1  0  0  0  0
 21 22  1  0  0  0  0
 23 24  1  0  0  0  0
 24 25  1  6  0  0  0
 24 26  1  0  0  0  0
 26 27  1  6  0  0  0
 26 28  1  0  0  0  0
 29 28  1  6  0  0  0
 29 31  1  0  0  0  0
 30 14  1  6  0  0  0
 30 31  1  0  0  0  0
M  CHG  1   3  -1
M  END
>  <CHROM.1>
178.77852872,-168.71934164,66.08744210,-54.66734508,52.92755724,173.94318553
123.58725196,27.38196952,35.74178321,19.00210969,-2.04814580,0.85287145,1.26668364

>  <Name>
ligand

>  <RI>
0

>  <Rbt.Current_Directory>
/home/itssahil/PROJECTS/Mol_Feturizer/New_Systems/rnas/3F2T

>  <Rbt.Executable>
rbdock ($Id: //depot/dev/client3/rdock/2013.1/src/exe/rbdock.cxx#4 $)

>  <Rbt.Library>
libRbt.so (2013.1, Build901 2013/11/27)

>  <Rbt.Parameter_File>
/export/apps/rDock/src/rDock_2013.1_src/data/scripts/dock_solv.prm

>  <Rbt.Receptor>
prm/pocket_docking_7.prm

>  <SCORE>
-21.2471

>  <SCORE.INTER>
-20.5383

>  <SCORE.INTER.CONST>
1

>  <SCORE.INTER.POLAR>
0

>  <SCORE.INTER.ROT>
7

>  <SCORE.INTER.SOLV>
13.4935

>  <SCORE.INTER.VDW>
-26.4567

>  <SCORE.INTER.norm>
-0.662524

>  <SCORE.INTRA>
-0.708832

>  <SCORE.INTRA.DIHEDRAL>
-2.71121

>  <SCORE.INTRA.DIHEDRAL.0>
4.64198

>  <SCORE.INTRA.POLAR>
0

>  <SCORE.INTRA.POLAR.0>
0

>  <SCORE.INTRA.REPUL>
0

>  <SCORE.INTRA.REPUL.0>
0

>  <SCORE.INTRA.SOLV>
-0.339627

>  <SCORE.INTRA.SOLV.lig_0>
-49.3611

>  <SCORE.INTRA.VDW>
0.816586

>  <SCORE.INTRA.VDW.0>
-1.91858

>  <SCORE.INTRA.norm>
-0.0228656

>  <SCORE.RESTR>
0

>  <SCORE.RESTR.CAVITY>
0

>  <SCORE.RESTR.norm>
0

>  <SCORE.SYSTEM>
0

>  <SCORE.SYSTEM.CONST>
0

>  <SCORE.SYSTEM.DIHEDRAL>
0

>  <SCORE.SYSTEM.SOLV>
0

>  <SCORE.SYSTEM.norm>
0

>  <SCORE.heavy>
31

>  <SCORE.norm>
-0.68539

>  <RMSD>
6.208

$$$$
ligand
 OpenBabel11021811473D
libRbt.so/2013.1/901 2013/11/27
 31 33  0  0  0  0  0  0  0  0999 V2000
   30.0048   42.6526   25.5116 P   0  0  1  0  0  0  0  0  0  0  0  0
   30.0175   41.2158   25.9685 O   0  0  0  0  0  0  0  0  0  0  0  0
   28.6195   43.2088   25.7080 O   0  5  0  0  0  0  0  0  0  0  0  0
   31.0301   43.3755   26.3411 O   0  0  0  0  0  0  0  0  0  0  0  0
   29.7518   42.0367   22.9764 C   0  0  0  0  0  0  0  0  0  0  0  0
   30.3907   42.8210   23.9621 O   0  0  0  0  0  0  0  0  0  0  0  0
   28.2763   42.4217   22.9066 C   0  0  1  0  0  0  0  0  0  0  0  0
   28.1438   43.8255   23.0099 O   0  0  0  0  0  0  0  0  0  0  0  0
   27.6817   41.9646   21.5852 C   0  0  1  0  0  0  0  0  0  0  0  0
   28.5903   42.2688   20.5609 O   0  0  0  0  0  0  0  0  0  0  0  0
   27.3925   40.4731   21.5588 C   0  0  1  0  0  0  0  0  0  0  0  0
   26.6372   40.1918   20.4116 O   0  0  0  0  0  0  0  0  0  0  0  0
   28.6825   39.6708   21.5177 C   0  0  0  0  0  0  0  0  0  0  0  0
   27.3555   38.1309   23.4639 N   0  0  0  0  0  0  0  0  0  0  0  0
   26.7556   37.4068   24.4711 C   0  0  0  0  0  0  0  0  0  0  0  0
   26.3856   37.9692   25.4976 O   0  0  0  0  0  0  0  0  0  0  0  0
   26.5678   36.0499   24.3383 N   0  0  0  0  0  0  0  0  0  0  0  0
   26.9696   35.4023   23.1863 C   0  0  0  0  0  0  0  0  0  0  0  0
   27.5765   36.1245   22.1649 C   0  0  1  0  0  0  0  0  0  0  0  0
   26.7821   34.1901   23.0645 O   0  0  0  0  0  0  0  0  0  0  0  0
   28.5836   36.2036   19.9971 C   0  0  2  0  0  0  0  0  0  0  0  0
   27.9823   35.4833   21.0116 N   0  0  0  0  0  0  0  0  0  0  0  0
   28.9933   35.5542   18.8321 C   0  0  0  0  0  0  0  0  0  0  0  0
   29.6038   36.2682   17.8077 C   0  0  1  0  0  0  0  0  0  0  0  0
   30.0332   35.5381   16.5746 C   0  0  0  0  0  0  0  0  0  0  0  0
   29.8041   37.6502   17.9447 C   0  0  1  0  0  0  0  0  0  0  0  0
   30.4524   38.4609   16.8562 C   0  0  0  0  0  0  0  0  0  0  0  0
   29.3956   38.2950   19.1092 C   0  0  0  0  0  0  0  0  0  0  0  0
   28.7861   37.5782   20.1405 C   0  0  1  0  0  0  0  0  0  0  0  0
   27.7720   37.4964   22.3109 C   0  0  1  0  0  0  0  0  0  0  0  0
   28.3807   38.2183   21.3021 N   0  0  0  0  0  0  0  0  0  0  0  0
  1  2  1  1  0  0  0
  1  3  1  0  0  0  0
  1  4  2  0  0  0  0
  1  6  1  0  0  0  0
  5  6  1  0  0  0  0
  7  5  1  6  0  0  0
  7  8  1  0  0  0  0
  7  9  1  0  0  0  0
  9 10  1  6  0  0  0
  9 11  1  0  0  0  0
 11 12  1  6  0  0  0
 11 13  1  0  0  0  0
 13 31  1  0  0  0  0
 14 15  1  0  0  0  0
 15 16  2  0  0  0  0
 15 17  1  0  0  0  0
 17 18  1  0  0  0  0
 18 20  2  0  0  0  0
 19 18  1  6  0  0  0
 19 22  1  0  0  0  0
 19 30  1  0  0  0  0
 21 23  1  1  0  0  0
 21 29  1  0  0  0  0
 21 22  1  0  0  0  0
 23 24  1  0  0  0  0
 24 25  1  6  0  0  0
 24 26  1  0  0  0  0
 26 27  1  6  0  0  0
 26 28  1  0  0  0  0
 29 28  1  6  0  0  0
 29 31  1  0  0  0  0
 30 14  1  6  0  0  0
 30 31  1  0  0  0  0
M  CHG  1   3  -1
M  END
>  <CHROM.1>
66.20750434,49.88166856,40.97710194,-43.52374339,169.62701810,-172.22841373
114.81731561,28.57038040,39.26362430,22.18491210,-1.34721379,-1.15464827
-2.24625888

>  <Name>
ligand

>  <RI>
0

>  <Rbt.Current_Directory>
/home/itssahil/PROJECTS/Mol_Feturizer/New_Systems/rnas/3F2T

>  <Rbt.Executable>
rbdock ($Id: //depot/dev/client3/rdock/2013.1/src/exe/rbdock.cxx#4 $)

>  <Rbt.Library>
libRbt.so (2013.1, Build901 2013/11/27)

>  <Rbt.Parameter_File>
/export/apps/rDock/src/rDock_2013.1_src/data/scripts/dock_solv.prm

>  <Rbt.Receptor>
prm/blind_docking_80.prm

>  <SCORE>
-24.7927

>  <SCORE.INTER>
-28.0049

>  <SCORE.INTER.CONST>
1

>  <SCORE.INTER.POLAR>
0

>  <SCORE.INTER.ROT>
7

>  <SCORE.INTER.SOLV>
18.6764

>  <SCORE.INTER.VDW>
-33.1621

>  <SCORE.INTER.norm>
-0.903384

>  <SCORE.INTRA>
3.21215

>  <SCORE.INTRA.DIHEDRAL>
-0.255736

>  <SCORE.INTRA.DIHEDRAL.0>
4.64198

>  <SCORE.INTRA.POLAR>
0

>  <SCORE.INTRA.POLAR.0>
0

>  <SCORE.INTRA.REPUL>
0

>  <SCORE.INTRA.REPUL.0>
0

>  <SCORE.INTRA.SOLV>
1.86161

>  <SCORE.INTRA.SOLV.lig_0>
-49.3611

>  <SCORE.INTRA.VDW>
2.40921

>  <SCORE.INTRA.VDW.0>
-1.91858

>  <SCORE.INTRA.norm>
0.103618

>  <SCORE.RESTR>
0

>  <SCORE.RESTR.CAVITY>
0

>  <SCORE.RESTR.norm>
0

>  <SCORE.SYSTEM>
0

>  <SCORE.SYSTEM.CONST>
0

>  <SCORE.SYSTEM.DIHEDRAL>
0

>  <SCORE.SYSTEM.SOLV>
0

>  <SCORE.SYSTEM.norm>
0

>  <SCORE.heavy>
31

>  <SCORE.norm>
-0.799766

>  <RMSD>
6.210

$$$$
ligand
 OpenBabel11021811473D
libRbt.so/2013.1/901 2013/11/27
 31 33  0  0  0  0  0  0  0  0999 V2000
   29.2449   41.6733   26.2237 P   0  0  1  0  0  0  0  0  0  0  0  0
   29.6612   43.0824   26.5616 O   0  0  0  0  0  0  0  0  0  0  0  0
   30.0074   40.7205   27.1055 O   0  5  0  0  0  0  0  0  0  0  0  0
   27.7607   41.5975   26.4551 O   0  0  0  0  0  0  0  0  0  0  0  0
   29.3090   42.2106   23.6589 C   0  0  0  0  0  0  0  0  0  0  0  0
   29.5441   41.2807   24.6957 O   0  0  0  0  0  0  0  0  0  0  0  0
   27.8046   42.4121   23.4964 C   0  0  1  0  0  0  0  0  0  0  0  0
   27.3902   43.5380   24.2443 O   0  0  0  0  0  0  0  0  0  0  0  0
   27.4657   42.6385   22.0327 C   0  0  1  0  0  0  0  0  0  0  0  0
   28.4156   43.5148   21.4876 O   0  0  0  0  0  0  0  0  0  0  0  0
   27.4654   41.3505   21.2265 C   0  0  1  0  0  0  0  0  0  0  0  0
   26.9556   41.6304   19.9506 O   0  0  0  0  0  0  0  0  0  0  0  0
   28.8732   40.7943   21.0918 C   0  0  0  0  0  0  0  0  0  0  0  0
   29.6207   40.5656   18.3883 N   0  0  0  0  0  0  0  0  0  0  0  0
   29.9407   40.5167   17.0489 C   0  0  0  0  0  0  0  0  0  0  0  0
   30.3398   41.5251   16.4738 O   0  0  0  0  0  0  0  0  0  0  0  0
   29.8143   39.3415   16.3439 N   0  0  0  0  0  0  0  0  0  0  0  0
   29.3755   38.1951   16.9771 C   0  0  0  0  0  0  0  0  0  0  0  0
   29.0496   38.2350   18.3282 C   0  0  1  0  0  0  0  0  0  0  0  0
   29.2821   37.1405   16.3456 O   0  0  0  0  0  0  0  0  0  0  0  0
   28.2870   37.1351   20.3102 C   0  0  2  0  0  0  0  0  0  0  0  0
   28.6086   37.0934   18.9670 N   0  0  0  0  0  0  0  0  0  0  0  0
   27.8413   35.9805   20.9546 C   0  0  0  0  0  0  0  0  0  0  0  0
   27.5103   36.0127   22.3041 C   0  0  1  0  0  0  0  0  0  0  0  0
   27.0326   34.7563   22.9608 C   0  0  0  0  0  0  0  0  0  0  0  0
   27.6301   37.2118   23.0227 C   0  0  1  0  0  0  0  0  0  0  0  0
   27.2910   37.2870   24.4861 C   0  0  0  0  0  0  0  0  0  0  0  0
   28.0736   38.3627   22.3765 C   0  0  0  0  0  0  0  0  0  0  0  0
   28.4024   38.3326   21.0201 C   0  0  1  0  0  0  0  0  0  0  0  0
   29.1709   39.4310   19.0329 C   0  0  1  0  0  0  0  0  0  0  0  0
   28.8420   39.4784   20.3741 N   0  0  0  0  0  0  0  0  0  0  0  0
  1  2  1  1  0  0  0
  1  3  1  0  0  0  0
  1  4  2  0  0  0  0
  1  6  1  0  0  0  0
  5  6  1  0  0  0  0
  7  5  1  6  0  0  0
  7  8  1  0  0  0  0
  7  9  1  0  0  0  0
  9 10  1  6  0  0  0
  9 11  1  0  0  0  0
 11 12  1  6  0  0  0
 11 13  1  0  0  0  0
 13 31  1  0  0  0  0
 14 15  1  0  0  0  0
 15 16  2  0  0  0  0
 15 17  1  0  0  0  0
 17 18  1  0  0  0  0
 18 20  2  0  0  0  0
 19 18  1  1  0  0  0
 19 22  1  0  0  0  0
 19 30  1  0  0  0  0
 21 23  1  6  0  0  0
 21 29  1  0  0  0  0
 21 22  1  0  0  0  0
 23 24  1  0  0  0  0
 24 25  1  1  0  0  0
 24 26  1  0  0  0  0
 26 27  1  1  0  0  0
 26 28  1  0  0  0  0
 29 28  1  1  0  0  0
 29 31  1  0  0  0  0
 30 14  1  1  0  0  0
 30 31  1  0  0  0  0
M  CHG  1   3  -1
M  END
>  <CHROM.1>
-69.78788767,-40.62076596,94.75345954,-43.00868001,171.47228168,176.20851588
-75.09904299,28.61806824,39.96781928,21.70858315,1.79871382,1.37407331,0.95059636

>  <Name>
ligand

>  <RI>
0

>  <Rbt.Current_Directory>
/home/itssahil/PROJECTS/Mol_Feturizer/New_Systems/rnas/3F2T

>  <Rbt.Executable>
rbdock ($Id: //depot/dev/client3/rdock/2013.1/src/exe/rbdock.cxx#4 $)

>  <Rbt.Library>
libRbt.so (2013.1, Build901 2013/11/27)

>  <Rbt.Parameter_File>
/export/apps/rDock/src/rDock_2013.1_src/data/scripts/dock_solv.prm

>  <Rbt.Receptor>
prm/blind_docking_80.prm

>  <SCORE>
-21.6916

>  <SCORE.INTER>
-24.9606

>  <SCORE.INTER.CONST>
1

>  <SCORE.INTER.POLAR>
0

>  <SCORE.INTER.ROT>
7

>  <SCORE.INTER.SOLV>
15.5383

>  <SCORE.INTER.VDW>
-30.0865

>  <SCORE.INTER.norm>
-0.805179

>  <SCORE.INTRA>
3.26901

>  <SCORE.INTRA.DIHEDRAL>
2.05051

>  <SCORE.INTRA.DIHEDRAL.0>
4.64198

>  <SCORE.INTRA.POLAR>
0

>  <SCORE.INTRA.POLAR.0>
0

>  <SCORE.INTRA.REPUL>
0

>  <SCORE.INTRA.REPUL.0>
0

>  <SCORE.INTRA.SOLV>
1.56907

>  <SCORE.INTRA.SOLV.lig_0>
-49.3611

>  <SCORE.INTRA.VDW>
1.45921

>  <SCORE.INTRA.VDW.0>
-1.91858

>  <SCORE.INTRA.norm>
0.105452

>  <SCORE.RESTR>
0

>  <SCORE.RESTR.CAVITY>
0

>  <SCORE.RESTR.norm>
0

>  <SCORE.SYSTEM>
0

>  <SCORE.SYSTEM.CONST>
0

>  <SCORE.SYSTEM.DIHEDRAL>
0

>  <SCORE.SYSTEM.SOLV>
0

>  <SCORE.SYSTEM.norm>
0

>  <SCORE.heavy>
31

>  <SCORE.norm>
-0.699728

>  <RMSD>
6.216

$$$$
ligand
 OpenBabel11021811473D
libRbt.so/2013.1/901 2013/11/27
 31 33  0  0  0  0  0  0  0  0999 V2000
   31.1515   37.2485   16.4478 P   0  0  1  0  0  0  0  0  0  0  0  0
   32.5735   37.7335   16.5733 O   0  0  0  0  0  0  0  0  0  0  0  0
   31.0310   36.4277   15.1913 O   0  5  0  0  0  0  0  0  0  0  0  0
   30.8632   36.4412   17.6836 O   0  0  0  0  0  0  0  0  0  0  0  0
   30.1278   39.5102   17.2887 C   0  0  0  0  0  0  0  0  0  0  0  0
   30.0860   38.4465   16.3604 O   0  0  0  0  0  0  0  0  0  0  0  0
   28.9251   40.4225   17.0619 C   0  0  1  0  0  0  0  0  0  0  0  0
   27.7312   39.6714   17.1589 O   0  0  0  0  0  0  0  0  0  0  0  0
   28.9033   41.5236   18.1087 C   0  0  1  0  0  0  0  0  0  0  0  0
   28.1138   42.5782   17.6271 O   0  0  0  0  0  0  0  0  0  0  0  0
   28.3385   41.0546   19.4391 C   0  0  1  0  0  0  0  0  0  0  0  0
   27.0186   40.6297   19.2313 O   0  0  0  0  0  0  0  0  0  0  0  0
   29.1536   39.9002   19.9980 C   0  0  0  0  0  0  0  0  0  0  0  0
   28.9681   41.7614   22.1008 N   0  0  0  0  0  0  0  0  0  0  0  0
   28.9515   42.6959   23.1133 C   0  0  0  0  0  0  0  0  0  0  0  0
   29.2657   43.8598   22.8824 O   0  0  0  0  0  0  0  0  0  0  0  0
   28.5860   42.3347   24.3900 N   0  0  0  0  0  0  0  0  0  0  0  0
   28.2205   41.0316   24.6658 C   0  0  0  0  0  0  0  0  0  0  0  0
   28.2350   40.0815   23.6506 C   0  0  1  0  0  0  0  0  0  0  0  0
   27.8759   40.7173   25.8069 O   0  0  0  0  0  0  0  0  0  0  0  0
   27.8861   37.8349   22.9087 C   0  0  2  0  0  0  0  0  0  0  0  0
   27.8727   38.7769   23.9196 N   0  0  0  0  0  0  0  0  0  0  0  0
   27.5199   36.5166   23.1819 C   0  0  0  0  0  0  0  0  0  0  0  0
   27.5348   35.5600   22.1736 C   0  0  1  0  0  0  0  0  0  0  0  0
   27.1393   34.1557   22.5042 C   0  0  0  0  0  0  0  0  0  0  0  0
   27.9154   35.9242   20.8731 C   0  0  1  0  0  0  0  0  0  0  0  0
   27.9363   34.9219   19.7519 C   0  0  0  0  0  0  0  0  0  0  0  0
   28.2820   37.2402   20.6039 C   0  0  0  0  0  0  0  0  0  0  0  0
   28.2714   38.2009   21.6168 C   0  0  1  0  0  0  0  0  0  0  0  0
   28.6156   40.4528   22.3626 C   0  0  1  0  0  0  0  0  0  0  0  0
   28.6384   39.5116   21.3512 N   0  0  0  0  0  0  0  0  0  0  0  0
  1  2  1  1  0  0  0
  1  3  1  0  0  0  0
  1  4  2  0  0  0  0
  1  6  1  0  0  0  0
  5  6  1  0  0  0  0
  7  5  1  1  0  0  0
  7  8  1  0  0  0  0
  7  9  1  0  0  0  0
  9 10  1  6  0  0  0
  9 11  1  0  0  0  0
 11 12  1  6  0  0  0
 11 13  1  0  0  0  0
 13 31  1  0  0  0  0
 14 15  1  0  0  0  0
 15 16  2  0  0  0  0
 15 17  1  0  0  0  0
 17 18  1  0  0  0  0
 18 20  2  0  0  0  0
 19 18  1  6  0  0  0
 19 22  1  0  0  0  0
 19 30  1  0  0  0  0
 21 23  1  1  0  0  0
 21 29  1  0  0  0  0
 21 22  1  0  0  0  0
 23 24  1  0  0  0  0
 24 25  1  6  0  0  0
 24 26  1  0  0  0  0
 26 27  1  6  0  0  0
 26 28  1  0  0  0  0
 29 28  1  6  0  0  0
 29 31  1  0  0  0  0
 30 14  1  6  0  0  0
 30 31  1  0  0  0  0
M  CHG  1   3  -1
M  END
>  <CHROM.1>
-174.25774198,-48.82815762,56.46143935,159.61654271,-60.69814869,176.23780992
125.66420703,28.90348227,39.07458057,20.22022897,0.51111874,-1.24787405,-3.01276551

>  <Name>
ligand

>  <RI>
0

>  <Rbt.Current_Directory>
/home/itssahil/PROJECTS/Mol_Feturizer/New_Systems/rnas/3F2T

>  <Rbt.Executable>
rbdock ($Id: //depot/dev/client3/rdock/2013.1/src/exe/rbdock.cxx#4 $)

>  <Rbt.Library>
libRbt.so (2013.1, Build901 2013/11/27)

>  <Rbt.Parameter_File>
/export/apps/rDock/src/rDock_2013.1_src/data/scripts/dock_solv.prm

>  <Rbt.Receptor>
prm/blind_docking_100.prm

>  <SCORE>
-20.5432

>  <SCORE.INTER>
-22.9757

>  <SCORE.INTER.CONST>
1

>  <SCORE.INTER.POLAR>
0

>  <SCORE.INTER.ROT>
7

>  <SCORE.INTER.SOLV>
10.9479

>  <SCORE.INTER.VDW>
-27.2331

>  <SCORE.INTER.norm>
-0.741151

>  <SCORE.INTRA>
2.43245

>  <SCORE.INTRA.DIHEDRAL>
-1.63074

>  <SCORE.INTRA.DIHEDRAL.0>
4.64198

>  <SCORE.INTRA.POLAR>
0

>  <SCORE.INTRA.POLAR.0>
0

>  <SCORE.INTRA.REPUL>
0

>  <SCORE.INTRA.REPUL.0>
0

>  <SCORE.INTRA.SOLV>
0.405511

>  <SCORE.INTRA.SOLV.lig_0>
-49.3611

>  <SCORE.INTRA.VDW>
3.04507

>  <SCORE.INTRA.VDW.0>
-1.91858

>  <SCORE.INTRA.norm>
0.0784662

>  <SCORE.RESTR>
0

>  <SCORE.RESTR.CAVITY>
0

>  <SCORE.RESTR.norm>
0

>  <SCORE.SYSTEM>
0

>  <SCORE.SYSTEM.CONST>
0

>  <SCORE.SYSTEM.DIHEDRAL>
0

>  <SCORE.SYSTEM.SOLV>
0

>  <SCORE.SYSTEM.norm>
0

>  <SCORE.heavy>
31

>  <SCORE.norm>
-0.662685

>  <RMSD>
6.223

$$$$
ligand
 OpenBabel11021811473D
libRbt.so/2013.1/901 2013/11/27
 31 33  0  0  0  0  0  0  0  0999 V2000
   29.5011   43.2515   25.1532 P   0  0  1  0  0  0  0  0  0  0  0  0
   30.4854   44.2354   25.7330 O   0  0  0  0  0  0  0  0  0  0  0  0
   29.5615   41.9791   25.9560 O   0  5  0  0  0  0  0  0  0  0  0  0
   28.1485   43.9051   25.2254 O   0  0  0  0  0  0  0  0  0  0  0  0
   28.9770   43.3685   22.5877 C   0  0  0  0  0  0  0  0  0  0  0  0
   29.8099   42.8850   23.6207 O   0  0  0  0  0  0  0  0  0  0  0  0
   27.6136   42.6884   22.6817 C   0  0  1  0  0  0  0  0  0  0  0  0
   26.8630   42.9601   21.5149 O   0  0  0  0  0  0  0  0  0  0  0  0
   27.7908   41.1854   22.8171 C   0  0  1  0  0  0  0  0  0  0  0  0
   26.5824   40.6349   23.2688 O   0  0  0  0  0  0  0  0  0  0  0  0
   28.1734   40.5212   21.5051 C   0  0  1  0  0  0  0  0  0  0  0  0
   28.7593   41.4889   20.6767 O   0  0  0  0  0  0  0  0  0  0  0  0
   29.1657   39.3937   21.7367 C   0  0  0  0  0  0  0  0  0  0  0  0
   27.6613   38.4081   23.9012 N   0  0  0  0  0  0  0  0  0  0  0  0
   26.9856   37.9441   25.0089 C   0  0  0  0  0  0  0  0  0  0  0  0
   26.8772   38.6523   26.0056 O   0  0  0  0  0  0  0  0  0  0  0  0
   26.4293   36.6853   25.0101 N   0  0  0  0  0  0  0  0  0  0  0  0
   26.5338   35.8784   23.8939 C   0  0  0  0  0  0  0  0  0  0  0  0
   27.2144   36.3378   22.7719 C   0  0  1  0  0  0  0  0  0  0  0  0
   26.0175   34.7590   23.8933 O   0  0  0  0  0  0  0  0  0  0  0  0
   27.9996   35.9953   20.5390 C   0  0  2  0  0  0  0  0  0  0  0  0
   27.3242   35.5358   21.6536 N   0  0  0  0  0  0  0  0  0  0  0  0
   28.1099   35.1837   19.4094 C   0  0  0  0  0  0  0  0  0  0  0  0
   28.7915   35.6340   18.2849 C   0  0  1  0  0  0  0  0  0  0  0  0
   28.8927   34.7350   17.0934 C   0  0  0  0  0  0  0  0  0  0  0  0
   29.3668   36.9137   18.2847 C   0  0  1  0  0  0  0  0  0  0  0  0
   30.1047   37.4422   17.0853 C   0  0  0  0  0  0  0  0  0  0  0  0
   29.2564   37.7206   19.4140 C   0  0  0  0  0  0  0  0  0  0  0  0
   28.5757   37.2678   20.5456 C   0  0  1  0  0  0  0  0  0  0  0  0
   27.7833   37.6097   22.7819 C   0  0  1  0  0  0  0  0  0  0  0  0
   28.4667   38.0691   21.6722 N   0  0  0  0  0  0  0  0  0  0  0  0
  1  2  1  1  0  0  0
  1  3  1  0  0  0  0
  1  4  2  0  0  0  0
  1  6  1  0  0  0  0
  5  6  1  0  0  0  0
  7  5  1  6  0  0  0
  7  8  1  0  0  0  0
  7  9  1  0  0  0  0
  9 10  1  6  0  0  0
  9 11  1  0  0  0  0
 11 12  1  6  0  0  0
 11 13  1  0  0  0  0
 13 31  1  0  0  0  0
 14 15  1  0  0  0  0
 15 16  2  0  0  0  0
 15 17  1  0  0  0  0
 17 18  1  0  0  0  0
 18 20  2  0  0  0  0
 19 18  1  6  0  0  0
 19 22  1  0  0  0  0
 19 30  1  0  0  0  0
 21 23  1  1  0  0  0
 21 29  1  0  0  0  0
 21 22  1  0  0  0  0
 23 24  1  0  0  0  0
 24 25  1  6  0  0  0
 24 26  1  0  0  0  0
 26 27  1  6  0  0  0
 26 28  1  0  0  0  0
 29 28  1  6  0  0  0
 29 31  1  0  0  0  0
 30 14  1  6  0  0  0
 30 31  1  0  0  0  0
M  CHG  1   3  -1
M  END
>  <CHROM.1>
-68.71215720,-107.98643332,-168.65520131,163.78405297,22.90399668,102.04009023
102.93704021,28.24879049,39.33571057,22.45594420,-1.38542213,-1.14746699
-2.38450017

>  <Name>
ligand

>  <RI>
0

>  <Rbt.Current_Directory>
/home/itssahil/PROJECTS/Mol_Feturizer/New_Systems/rnas/3F2T

>  <Rbt.Executable>
rbdock ($Id: //depot/dev/client3/rdock/2013.1/src/exe/rbdock.cxx#4 $)

>  <Rbt.Library>
libRbt.so (2013.1, Build901 2013/11/27)

>  <Rbt.Parameter_File>
/export/apps/rDock/src/rDock_2013.1_src/data/scripts/dock_solv.prm

>  <Rbt.Receptor>
prm/pocket_docking_7.prm

>  <SCORE>
-21.4856

>  <SCORE.INTER>
-29.999

>  <SCORE.INTER.CONST>
1

>  <SCORE.INTER.POLAR>
0

>  <SCORE.INTER.ROT>
7

>  <SCORE.INTER.SOLV>
18.8268

>  <SCORE.INTER.VDW>
-34.5416

>  <SCORE.INTER.norm>
-0.967711

>  <SCORE.INTRA>
8.51342

>  <SCORE.INTRA.DIHEDRAL>
8.49163

>  <SCORE.INTRA.DIHEDRAL.0>
4.64198

>  <SCORE.INTRA.POLAR>
0

>  <SCORE.INTRA.POLAR.0>
0

>  <SCORE.INTRA.REPUL>
0

>  <SCORE.INTRA.REPUL.0>
0

>  <SCORE.INTRA.SOLV>
3.78071

>  <SCORE.INTRA.SOLV.lig_0>
-49.3611

>  <SCORE.INTRA.VDW>
2.37725

>  <SCORE.INTRA.VDW.0>
-1.91858

>  <SCORE.INTRA.norm>
0.274627

>  <SCORE.RESTR>
0

>  <SCORE.RESTR.CAVITY>
0

>  <SCORE.RESTR.norm>
0

>  <SCORE.SYSTEM>
0

>  <SCORE.SYSTEM.CONST>
0

>  <SCORE.SYSTEM.DIHEDRAL>
0

>  <SCORE.SYSTEM.SOLV>
0

>  <SCORE.SYSTEM.norm>
0

>  <SCORE.heavy>
31

>  <SCORE.norm>
-0.693084

>  <RMSD>
6.236

$$$$
ligand
 OpenBabel11021811473D
libRbt.so/2013.1/901 2013/11/27
 31 33  0  0  0  0  0  0  0  0999 V2000
   27.3176   34.9399   13.6775 P   0  0  1  0  0  0  0  0  0  0  0  0
   26.6676   36.2899   13.5096 O   0  0  0  0  0  0  0  0  0  0  0  0
   26.6302   33.9570   12.7673 O   0  5  0  0  0  0  0  0  0  0  0  0
   28.7699   35.1170   13.3292 O   0  0  0  0  0  0  0  0  0  0  0  0
   26.0488   34.5872   15.9439 C   0  0  0  0  0  0  0  0  0  0  0  0
   27.2173   34.3783   15.1785 O   0  0  0  0  0  0  0  0  0  0  0  0
   26.0267   36.0294   16.4435 C   0  0  1  0  0  0  0  0  0  0  0  0
   24.8611   36.2504   17.2125 O   0  0  0  0  0  0  0  0  0  0  0  0
   27.2475   36.2991   17.3070 C   0  0  1  0  0  0  0  0  0  0  0  0
   28.3766   36.3485   16.4762 O   0  0  0  0  0  0  0  0  0  0  0  0
   27.1440   37.6068   18.0739 C   0  0  1  0  0  0  0  0  0  0  0  0
   26.0611   37.5126   18.9596 O   0  0  0  0  0  0  0  0  0  0  0  0
   28.4145   37.8749   18.8636 C   0  0  0  0  0  0  0  0  0  0  0  0
   28.6559   40.6378   18.3862 N   0  0  0  0  0  0  0  0  0  0  0  0
   28.8444   41.9762   18.1179 C   0  0  0  0  0  0  0  0  0  0  0  0
   29.1326   42.3420   16.9821 O   0  0  0  0  0  0  0  0  0  0  0  0
   28.7143   42.9132   19.1175 N   0  0  0  0  0  0  0  0  0  0  0  0
   28.3814   42.5202   20.3991 C   0  0  0  0  0  0  0  0  0  0  0  0
   28.1901   41.1719   20.6795 C   0  0  1  0  0  0  0  0  0  0  0  0
   28.2476   43.3652   21.2867 O   0  0  0  0  0  0  0  0  0  0  0  0
   27.6675   39.4316   22.2344 C   0  0  2  0  0  0  0  0  0  0  0  0
   27.8591   40.7720   21.9587 N   0  0  0  0  0  0  0  0  0  0  0  0
   27.3331   39.0287   23.5278 C   0  0  0  0  0  0  0  0  0  0  0  0
   27.1434   37.6826   23.8172 C   0  0  1  0  0  0  0  0  0  0  0  0
   26.7892   37.2874   25.2159 C   0  0  0  0  0  0  0  0  0  0  0  0
   27.2840   36.7249   22.8015 C   0  0  1  0  0  0  0  0  0  0  0  0
   27.0783   35.2594   23.0707 C   0  0  0  0  0  0  0  0  0  0  0  0
   27.6194   37.1298   21.5122 C   0  0  0  0  0  0  0  0  0  0  0  0
   27.8144   38.4812   21.2213 C   0  0  1  0  0  0  0  0  0  0  0  0
   28.3331   40.2283   19.6642 C   0  0  1  0  0  0  0  0  0  0  0  0
   28.1508   38.8863   19.9383 N   0  0  0  0  0  0  0  0  0  0  0  0
  1  2  1  6  0  0  0
  1  3  1  0  0  0  0
  1  4  2  0  0  0  0
  1  6  1  0  0  0  0
  5  6  1  0  0  0  0
  7  5  1  1  0  0  0
  7  8  1  0  0  0  0
  7  9  1  0  0  0  0
  9 10  1  6  0  0  0
  9 11  1  0  0  0  0
 11 12  1  1  0  0  0
 11 13  1  0  0  0  0
 13 31  1  0  0  0  0
 14 15  1  0  0  0  0
 15 16  2  0  0  0  0
 15 17  1  0  0  0  0
 17 18  1  0  0  0  0
 18 20  2  0  0  0  0
 19 18  1  6  0  0  0
 19 22  1  0  0  0  0
 19 30  1  0  0  0  0
 21 23  1  1  0  0  0
 21 29  1  0  0  0  0
 21 22  1  0  0  0  0
 23 24  1  0  0  0  0
 24 25  1  6  0  0  0
 24 26  1  0  0  0  0
 26 27  1  6  0  0  0
 26 28  1  0  0  0  0
 29 28  1  6  0  0  0
 29 31  1  0  0  0  0
 30 14  1  6  0  0  0
 30 31  1  0  0  0  0
M  CHG  1   3  -1
M  END
>  <CHROM.1>
-76.48387183,37.89069182,-179.95731532,71.65775710,63.27117698,-161.46020969
93.63061202,27.51970514,37.94957413,18.57273291,-1.88450285,1.28094162,1.29005819

>  <Name>
ligand

>  <RI>
0

>  <Rbt.Current_Directory>
/home/itssahil/PROJECTS/Mol_Feturizer/New_Systems/rnas/3F2T

>  <Rbt.Executable>
rbdock ($Id: //depot/dev/client3/rdock/2013.1/src/exe/rbdock.cxx#4 $)

>  <Rbt.Library>
libRbt.so (2013.1, Build901 2013/11/27)

>  <Rbt.Parameter_File>
/export/apps/rDock/src/rDock_2013.1_src/data/scripts/dock_solv.prm

>  <Rbt.Receptor>
prm/pocket_docking_7.prm

>  <SCORE>
-21.7881

>  <SCORE.INTER>
-23.3886

>  <SCORE.INTER.CONST>
1

>  <SCORE.INTER.POLAR>
0

>  <SCORE.INTER.ROT>
7

>  <SCORE.INTER.SOLV>
12.1558

>  <SCORE.INTER.VDW>
-27.911

>  <SCORE.INTER.norm>
-0.754471

>  <SCORE.INTRA>
1.60049

>  <SCORE.INTRA.DIHEDRAL>
0.394613

>  <SCORE.INTRA.DIHEDRAL.0>
4.64198

>  <SCORE.INTRA.POLAR>
0

>  <SCORE.INTRA.POLAR.0>
0

>  <SCORE.INTRA.REPUL>
0

>  <SCORE.INTRA.REPUL.0>
0

>  <SCORE.INTRA.SOLV>
1.66155

>  <SCORE.INTRA.SOLV.lig_0>
-49.3611

>  <SCORE.INTRA.VDW>
0.572413

>  <SCORE.INTRA.VDW.0>
-1.91858

>  <SCORE.INTRA.norm>
0.0516289

>  <SCORE.RESTR>
0

>  <SCORE.RESTR.CAVITY>
0

>  <SCORE.RESTR.norm>
0

>  <SCORE.SYSTEM>
0

>  <SCORE.SYSTEM.CONST>
0

>  <SCORE.SYSTEM.DIHEDRAL>
0

>  <SCORE.SYSTEM.SOLV>
0

>  <SCORE.SYSTEM.norm>
0

>  <SCORE.heavy>
31

>  <SCORE.norm>
-0.702842

>  <RMSD>
6.284

$$$$
ligand
 OpenBabel11021811473D
libRbt.so/2013.1/901 2013/11/27
 31 33  0  0  0  0  0  0  0  0999 V2000
   28.0181   32.3772   14.0133 P   0  0  1  0  0  0  0  0  0  0  0  0
   28.0249   30.8851   14.2298 O   0  0  0  0  0  0  0  0  0  0  0  0
   29.3267   32.7796   13.3868 O   0  5  0  0  0  0  0  0  0  0  0  0
   26.8452   32.6755   13.1203 O   0  0  0  0  0  0  0  0  0  0  0  0
   26.7338   32.9805   16.2172 C   0  0  0  0  0  0  0  0  0  0  0  0
   27.8460   33.2076   15.3767 O   0  0  0  0  0  0  0  0  0  0  0  0
   26.8429   33.8768   17.4480 C   0  0  1  0  0  0  0  0  0  0  0  0
   28.0687   33.6331   18.1089 O   0  0  0  0  0  0  0  0  0  0  0  0
   26.7862   35.3376   17.0338 C   0  0  1  0  0  0  0  0  0  0  0  0
   25.6337   35.5348   16.2592 O   0  0  0  0  0  0  0  0  0  0  0  0
   26.7461   36.2817   18.2238 C   0  0  1  0  0  0  0  0  0  0  0  0
   25.7756   35.8159   19.1222 O   0  0  0  0  0  0  0  0  0  0  0  0
   28.0940   36.3298   18.9240 C   0  0  0  0  0  0  0  0  0  0  0  0
   27.5705   34.9567   21.3241 N   0  0  0  0  0  0  0  0  0  0  0  0
   27.2560   34.2454   22.4616 C   0  0  0  0  0  0  0  0  0  0  0  0
   27.1727   33.0214   22.4192 O   0  0  0  0  0  0  0  0  0  0  0  0
   27.0305   34.8976   23.6523 N   0  0  0  0  0  0  0  0  0  0  0  0
   27.1291   36.2737   23.7203 C   0  0  0  0  0  0  0  0  0  0  0  0
   27.4452   36.9999   22.5775 C   0  0  1  0  0  0  0  0  0  0  0  0
   26.9447   36.8516   24.7934 O   0  0  0  0  0  0  0  0  0  0  0  0
   27.8597   39.0951   21.5013 C   0  0  2  0  0  0  0  0  0  0  0  0
   27.5436   38.3756   22.6379 N   0  0  0  0  0  0  0  0  0  0  0  0
   27.9586   40.4854   21.5637 C   0  0  0  0  0  0  0  0  0  0  0  0
   28.2709   41.2192   20.4253 C   0  0  1  0  0  0  0  0  0  0  0  0
   28.3650   42.7086   20.5291 C   0  0  0  0  0  0  0  0  0  0  0  0
   28.4927   40.5568   19.2084 C   0  0  1  0  0  0  0  0  0  0  0  0
   28.8418   41.3127   17.9558 C   0  0  0  0  0  0  0  0  0  0  0  0
   28.3916   39.1694   19.1490 C   0  0  0  0  0  0  0  0  0  0  0  0
   28.0739   38.4317   20.2908 C   0  0  1  0  0  0  0  0  0  0  0  0
   27.6626   36.3331   21.3735 C   0  0  1  0  0  0  0  0  0  0  0  0
   27.9705   37.0500   20.2331 N   0  0  0  0  0  0  0  0  0  0  0  0
  1  2  1  1  0  0  0
  1  3  1  0  0  0  0
  1  4  2  0  0  0  0
  1  6  1  0  0  0  0
  5  6  1  0  0  0  0
  7  5  1  6  0  0  0
  7  8  1  0  0  0  0
  7  9  1  0  0  0  0
  9 10  1  6  0  0  0
  9 11  1  0  0  0  0
 11 12  1  1  0  0  0
 11 13  1  0  0  0  0
 13 31  1  0  0  0  0
 14 15  1  0  0  0  0
 15 16  2  0  0  0  0
 15 17  1  0  0  0  0
 17 18  1  0  0  0  0
 18 20  2  0  0  0  0
 19 18  1  1  0  0  0
 19 22  1  0  0  0  0
 19 30  1  0  0  0  0
 21 23  1  6  0  0  0
 21 29  1  0  0  0  0
 21 22  1  0  0  0  0
 23 24  1  0  0  0  0
 24 25  1  1  0  0  0
 24 26  1  0  0  0  0
 26 27  1  1  0  0  0
 26 28  1  0  0  0  0
 29 28  1  1  0  0  0
 29 31  1  0  0  0  0
 30 14  1  1  0  0  0
 30 31  1  0  0  0  0
M  CHG  1   3  -1
M  END
>  <CHROM.1>
178.67392115,-56.44407770,-56.70773429,53.53916896,-47.78349276,-169.22342625
-85.85775690,27.57470515,35.94772889,18.91821014,-1.62542380,1.39966343,0.92209559

>  <Name>
ligand

>  <RI>
0

>  <Rbt.Current_Directory>
/home/itssahil/PROJECTS/Mol_Feturizer/New_Systems/rnas/3F2T

>  <Rbt.Executable>
rbdock ($Id: //depot/dev/client3/rdock/2013.1/src/exe/rbdock.cxx#4 $)

>  <Rbt.Library>
libRbt.so (2013.1, Build901 2013/11/27)

>  <Rbt.Parameter_File>
/export/apps/rDock/src/rDock_2013.1_src/data/scripts/dock_solv.prm

>  <Rbt.Receptor>
prm/pocket_docking_6.prm

>  <SCORE>
-20.1167

>  <SCORE.INTER>
-19.2693

>  <SCORE.INTER.CONST>
1

>  <SCORE.INTER.POLAR>
0

>  <SCORE.INTER.ROT>
7

>  <SCORE.INTER.SOLV>
7.99337

>  <SCORE.INTER.VDW>
-23.7773

>  <SCORE.INTER.norm>
-0.62159

>  <SCORE.INTRA>
-0.84745

>  <SCORE.INTRA.DIHEDRAL>
-2.41531

>  <SCORE.INTRA.DIHEDRAL.0>
4.64198

>  <SCORE.INTRA.POLAR>
0

>  <SCORE.INTRA.POLAR.0>
0

>  <SCORE.INTRA.REPUL>
0

>  <SCORE.INTRA.REPUL.0>
0

>  <SCORE.INTRA.SOLV>
-0.0624477

>  <SCORE.INTRA.SOLV.lig_0>
-49.3611

>  <SCORE.INTRA.VDW>
0.39143

>  <SCORE.INTRA.VDW.0>
-1.91858

>  <SCORE.INTRA.norm>
-0.0273371

>  <SCORE.RESTR>
0

>  <SCORE.RESTR.CAVITY>
0

>  <SCORE.RESTR.norm>
0

>  <SCORE.SYSTEM>
0

>  <SCORE.SYSTEM.CONST>
0

>  <SCORE.SYSTEM.DIHEDRAL>
0

>  <SCORE.SYSTEM.SOLV>
0

>  <SCORE.SYSTEM.norm>
0

>  <SCORE.heavy>
31

>  <SCORE.norm>
-0.648927

>  <RMSD>
6.296

$$$$
ligand
 OpenBabel11021811473D
libRbt.so/2013.1/901 2013/11/27
 31 33  0  0  0  0  0  0  0  0999 V2000
   30.3748   43.5580   25.4666 P   0  0  1  0  0  0  0  0  0  0  0  0
   29.0807   43.9627   26.1258 O   0  0  0  0  0  0  0  0  0  0  0  0
   31.5014   44.3286   26.1022 O   0  5  0  0  0  0  0  0  0  0  0  0
   30.5147   42.0746   25.6714 O   0  0  0  0  0  0  0  0  0  0  0  0
   29.2165   43.7409   23.1224 C   0  0  0  0  0  0  0  0  0  0  0  0
   30.3963   43.8601   23.8897 O   0  0  0  0  0  0  0  0  0  0  0  0
   28.8011   42.2731   23.0644 C   0  0  1  0  0  0  0  0  0  0  0  0
   28.0408   41.9466   24.2107 O   0  0  0  0  0  0  0  0  0  0  0  0
   27.9603   42.0195   21.8244 C   0  0  1  0  0  0  0  0  0  0  0  0
   28.7243   42.3489   20.6953 O   0  0  0  0  0  0  0  0  0  0  0  0
   27.5107   40.5727   21.7087 C   0  0  1  0  0  0  0  0  0  0  0  0
   26.8156   40.4235   20.5002 O   0  0  0  0  0  0  0  0  0  0  0  0
   28.7035   39.6311   21.7194 C   0  0  0  0  0  0  0  0  0  0  0  0
   27.2633   38.3982   23.7992 N   0  0  0  0  0  0  0  0  0  0  0  0
   26.6123   37.8227   24.8687 C   0  0  0  0  0  0  0  0  0  0  0  0
   26.3307   38.4981   25.8542 O   0  0  0  0  0  0  0  0  0  0  0  0
   26.2742   36.4889   24.8441 N   0  0  0  0  0  0  0  0  0  0  0  0
   26.5751   35.7161   23.7395 C   0  0  0  0  0  0  0  0  0  0  0  0
   27.2326   36.2879   22.6559 C   0  0  1  0  0  0  0  0  0  0  0  0
   26.2534   34.5263   23.7146 O   0  0  0  0  0  0  0  0  0  0  0  0
   28.1899   36.0918   20.4731 C   0  0  2  0  0  0  0  0  0  0  0  0
   27.5381   35.5209   21.5495 N   0  0  0  0  0  0  0  0  0  0  0  0
   28.4981   35.3154   19.3555 C   0  0  0  0  0  0  0  0  0  0  0  0
   29.1582   35.8785   18.2695 C   0  0  1  0  0  0  0  0  0  0  0  0
   29.4755   35.0147   17.0900 C   0  0  0  0  0  0  0  0  0  0  0  0
   29.5114   37.2361   18.2962 C   0  0  1  0  0  0  0  0  0  0  0  0
   30.2181   37.8859   17.1383 C   0  0  0  0  0  0  0  0  0  0  0  0
   29.2039   38.0078   19.4136 C   0  0  0  0  0  0  0  0  0  0  0  0
   28.5447   37.4424   20.5066 C   0  0  1  0  0  0  0  0  0  0  0  0
   27.5802   37.6367   22.6924 C   0  0  1  0  0  0  0  0  0  0  0  0
   28.2397   38.2089   21.6214 N   0  0  0  0  0  0  0  0  0  0  0  0
  1  2  1  1  0  0  0
  1  3  1  0  0  0  0
  1  4  2  0  0  0  0
  1  6  1  0  0  0  0
  5  6  1  0  0  0  0
  7  5  1  1  0  0  0
  7  8  1  0  0  0  0
  7  9  1  0  0  0  0
  9 10  1  6  0  0  0
  9 11  1  0  0  0  0
 11 12  1  6  0  0  0
 11 13  1  0  0  0  0
 13 31  1  0  0  0  0
 14 15  1  0  0  0  0
 15 16  2  0  0  0  0
 15 17  1  0  0  0  0
 17 18  1  0  0  0  0
 18 20  2  0  0  0  0
 19 18  1  6  0  0  0
 19 22  1  0  0  0  0
 19 30  1  0  0  0  0
 21 23  1  1  0  0  0
 21 29  1  0  0  0  0
 21 22  1  0  0  0  0
 23 24  1  0  0  0  0
 24 25  1  6  0  0  0
 24 26  1  0  0  0  0
 26 27  1  6  0  0  0
 26 28  1  0  0  0  0
 29 28  1  6  0  0  0
 29 31  1  0  0  0  0
 30 14  1  6  0  0  0
 30 31  1  0  0  0  0
M  CHG  1   3  -1
M  END
>  <CHROM.1>
-67.32062798,-34.46389404,84.64553011,59.55037375,-176.47796543,179.30936341
114.42442805,28.50363606,39.45356842,22.48370237,-1.20267734,-1.06470435
-2.22672547

>  <Name>
ligand

>  <RI>
0

>  <Rbt.Current_Directory>
/home/itssahil/PROJECTS/Mol_Feturizer/New_Systems/rnas/3F2T

>  <Rbt.Executable>
rbdock ($Id: //depot/dev/client3/rdock/2013.1/src/exe/rbdock.cxx#4 $)

>  <Rbt.Library>
libRbt.so (2013.1, Build901 2013/11/27)

>  <Rbt.Parameter_File>
/export/apps/rDock/src/rDock_2013.1_src/data/scripts/dock_solv.prm

>  <Rbt.Receptor>
prm/blind_docking_100.prm

>  <SCORE>
-29.6484

>  <SCORE.INTER>
-30.6369

>  <SCORE.INTER.CONST>
1

>  <SCORE.INTER.POLAR>
0

>  <SCORE.INTER.ROT>
7

>  <SCORE.INTER.SOLV>
18.0491

>  <SCORE.INTER.VDW>
-34.7076

>  <SCORE.INTER.norm>
-0.988288

>  <SCORE.INTRA>
0.984827

>  <SCORE.INTRA.DIHEDRAL>
-0.290436

>  <SCORE.INTRA.DIHEDRAL.0>
4.64198

>  <SCORE.INTRA.POLAR>
0

>  <SCORE.INTRA.POLAR.0>
0

>  <SCORE.INTRA.REPUL>
0

>  <SCORE.INTRA.REPUL.0>
0

>  <SCORE.INTRA.SOLV>
1.71325

>  <SCORE.INTRA.SOLV.lig_0>
-49.3611

>  <SCORE.INTRA.VDW>
0.27342

>  <SCORE.INTRA.VDW.0>
-1.91858

>  <SCORE.INTRA.norm>
0.0317686

>  <SCORE.RESTR>
0.00369132

>  <SCORE.RESTR.CAVITY>
0.00369132

>  <SCORE.RESTR.norm>
0.000119075

>  <SCORE.SYSTEM>
0

>  <SCORE.SYSTEM.CONST>
0

>  <SCORE.SYSTEM.DIHEDRAL>
0

>  <SCORE.SYSTEM.SOLV>
0

>  <SCORE.SYSTEM.norm>
0

>  <SCORE.heavy>
31

>  <SCORE.norm>
-0.956401

>  <RMSD>
6.302

$$$$
ligand
 OpenBabel11021811473D
libRbt.so/2013.1/901 2013/11/27
 31 33  0  0  0  0  0  0  0  0999 V2000
   24.5859   33.1802   14.5821 P   0  0  1  0  0  0  0  0  0  0  0  0
   25.3838   34.3924   14.1734 O   0  0  0  0  0  0  0  0  0  0  0  0
   23.1259   33.4614   14.3450 O   0  5  0  0  0  0  0  0  0  0  0  0
   25.0871   32.0350   13.7459 O   0  0  0  0  0  0  0  0  0  0  0  0
   24.2911   33.6629   17.1416 C   0  0  0  0  0  0  0  0  0  0  0  0
   24.7716   32.8008   16.1313 O   0  0  0  0  0  0  0  0  0  0  0  0
   24.6209   33.0683   18.5082 C   0  0  1  0  0  0  0  0  0  0  0  0
   24.2589   31.7019   18.5343 O   0  0  0  0  0  0  0  0  0  0  0  0
   26.1104   33.1907   18.7826 C   0  0  1  0  0  0  0  0  0  0  0  0
   26.8065   32.5516   17.7461 O   0  0  0  0  0  0  0  0  0  0  0  0
   26.5726   34.6357   18.8672 C   0  0  1  0  0  0  0  0  0  0  0  0
   25.7435   35.3102   19.7748 O   0  0  0  0  0  0  0  0  0  0  0  0
   28.0119   34.7179   19.3480 C   0  0  0  0  0  0  0  0  0  0  0  0
   29.2490   36.1699   17.2789 N   0  0  0  0  0  0  0  0  0  0  0  0
   29.9040   36.8192   16.2551 C   0  0  0  0  0  0  0  0  0  0  0  0
   30.0681   36.2585   15.1755 O   0  0  0  0  0  0  0  0  0  0  0  0
   30.3813   38.0978   16.4324 N   0  0  0  0  0  0  0  0  0  0  0  0
   30.1973   38.7473   17.6374 C   0  0  0  0  0  0  0  0  0  0  0  0
   29.5383   38.0998   18.6765 C   0  0  1  0  0  0  0  0  0  0  0  0
   30.6102   39.8994   17.7849 O   0  0  0  0  0  0  0  0  0  0  0  0
   28.6958   38.0974   20.9148 C   0  0  2  0  0  0  0  0  0  0  0  0
   29.3527   38.7423   19.8842 N   0  0  0  0  0  0  0  0  0  0  0  0
   28.5089   38.7479   22.1349 C   0  0  0  0  0  0  0  0  0  0  0  0
   27.8541   38.1066   23.1798 C   0  0  1  0  0  0  0  0  0  0  0  0
   27.6751   38.8337   24.4748 C   0  0  0  0  0  0  0  0  0  0  0  0
   27.3743   36.7998   23.0040 C   0  0  1  0  0  0  0  0  0  0  0  0
   26.6526   36.0740   24.1061 C   0  0  0  0  0  0  0  0  0  0  0  0
   27.5638   36.1527   21.7858 C   0  0  0  0  0  0  0  0  0  0  0  0
   28.2250   36.7943   20.7370 C   0  0  1  0  0  0  0  0  0  0  0  0
   29.0665   36.8017   18.4925 C   0  0  1  0  0  0  0  0  0  0  0  0
   28.4167   36.1506   19.5237 N   0  0  0  0  0  0  0  0  0  0  0  0
  1  2  1  6  0  0  0
  1  3  1  0  0  0  0
  1  4  2  0  0  0  0
  1  6  1  0  0  0  0
  5  6  1  0  0  0  0
  7  5  1  6  0  0  0
  7  8  1  0  0  0  0
  7  9  1  0  0  0  0
  9 10  1  6  0  0  0
  9 11  1  0  0  0  0
 11 12  1  1  0  0  0
 11 13  1  0  0  0  0
 13 31  1  0  0  0  0
 14 15  1  0  0  0  0
 15 16  2  0  0  0  0
 15 17  1  0  0  0  0
 17 18  1  0  0  0  0
 18 20  2  0  0  0  0
 19 18  1  6  0  0  0
 19 22  1  0  0  0  0
 19 30  1  0  0  0  0
 21 23  1  1  0  0  0
 21 29  1  0  0  0  0
 21 22  1  0  0  0  0
 23 24  1  0  0  0  0
 24 25  1  6  0  0  0
 24 26  1  0  0  0  0
 26 27  1  6  0  0  0
 26 28  1  0  0  0  0
 29 28  1  6  0  0  0
 29 31  1  0  0  0  0
 30 14  1  6  0  0  0
 30 31  1  0  0  0  0
M  CHG  1   3  -1
M  END
>  <CHROM.1>
-179.12237919,66.65973916,-47.47716007,-57.03061322,51.57260216,-175.76693289
89.69382558,27.17601499,35.59431698,18.38940971,-2.23613224,0.75326699,1.35423745

>  <Name>
ligand

>  <RI>
0

>  <Rbt.Current_Directory>
/home/itssahil/PROJECTS/Mol_Feturizer/New_Systems/rnas/3F2T

>  <Rbt.Executable>
rbdock ($Id: //depot/dev/client3/rdock/2013.1/src/exe/rbdock.cxx#4 $)

>  <Rbt.Library>
libRbt.so (2013.1, Build901 2013/11/27)

>  <Rbt.Parameter_File>
/export/apps/rDock/src/rDock_2013.1_src/data/scripts/dock_solv.prm

>  <Rbt.Receptor>
prm/blind_docking_60.prm

>  <SCORE>
-21.0956

>  <SCORE.INTER>
-20.5681

>  <SCORE.INTER.CONST>
1

>  <SCORE.INTER.POLAR>
0

>  <SCORE.INTER.ROT>
7

>  <SCORE.INTER.SOLV>
12.7901

>  <SCORE.INTER.VDW>
-26.2421

>  <SCORE.INTER.norm>
-0.663487

>  <SCORE.INTRA>
-0.527509

>  <SCORE.INTRA.DIHEDRAL>
-2.33681

>  <SCORE.INTRA.DIHEDRAL.0>
4.64198

>  <SCORE.INTRA.POLAR>
0

>  <SCORE.INTRA.POLAR.0>
0

>  <SCORE.INTRA.REPUL>
0

>  <SCORE.INTRA.REPUL.0>
0

>  <SCORE.INTRA.SOLV>
0.0533257

>  <SCORE.INTRA.SOLV.lig_0>
-49.3611

>  <SCORE.INTRA.VDW>
0.614235

>  <SCORE.INTRA.VDW.0>
-1.91858

>  <SCORE.INTRA.norm>
-0.0170164

>  <SCORE.RESTR>
0

>  <SCORE.RESTR.CAVITY>
0

>  <SCORE.RESTR.norm>
0

>  <SCORE.SYSTEM>
0

>  <SCORE.SYSTEM.CONST>
0

>  <SCORE.SYSTEM.DIHEDRAL>
0

>  <SCORE.SYSTEM.SOLV>
0

>  <SCORE.SYSTEM.norm>
0

>  <SCORE.heavy>
31

>  <SCORE.norm>
-0.680504

>  <RMSD>
6.308

$$$$
ligand
 OpenBabel11021811473D
libRbt.so/2013.1/901 2013/11/27
 31 33  0  0  0  0  0  0  0  0999 V2000
   30.0213   39.1155   17.9793 P   0  0  1  0  0  0  0  0  0  0  0  0
   29.7287   39.1242   16.5003 O   0  0  0  0  0  0  0  0  0  0  0  0
   29.7566   37.7335   18.5151 O   0  5  0  0  0  0  0  0  0  0  0  0
   31.4620   39.5184   18.1338 O   0  0  0  0  0  0  0  0  0  0  0  0
   28.9637   41.4828   18.3636 C   0  0  0  0  0  0  0  0  0  0  0  0
   29.1107   40.1491   18.8044 O   0  0  0  0  0  0  0  0  0  0  0  0
   28.0875   42.2456   19.3539 C   0  0  1  0  0  0  0  0  0  0  0  0
   26.8587   41.5676   19.5247 O   0  0  0  0  0  0  0  0  0  0  0  0
   28.7884   42.3455   20.6983 C   0  0  1  0  0  0  0  0  0  0  0  0
   28.1066   43.2850   21.4855 O   0  0  0  0  0  0  0  0  0  0  0  0
   28.8258   41.0189   21.4383 C   0  0  1  0  0  0  0  0  0  0  0  0
   29.7138   41.1415   22.5165 O   0  0  0  0  0  0  0  0  0  0  0  0
   27.4480   40.6517   21.9642 C   0  0  0  0  0  0  0  0  0  0  0  0
   27.8876   41.5932   24.5795 N   0  0  0  0  0  0  0  0  0  0  0  0
   28.1604   42.1009   25.8312 C   0  0  0  0  0  0  0  0  0  0  0  0
   28.2059   43.3149   26.0069 O   0  0  0  0  0  0  0  0  0  0  0  0
   28.3864   41.2551   26.8931 N   0  0  0  0  0  0  0  0  0  0  0  0
   28.3301   39.8865   26.7155 C   0  0  0  0  0  0  0  0  0  0  0  0
   28.0563   39.3650   25.4559 C   0  0  1  0  0  0  0  0  0  0  0  0
   28.5147   39.1334   27.6738 O   0  0  0  0  0  0  0  0  0  0  0  0
   27.7262   37.4822   24.0186 C   0  0  2  0  0  0  0  0  0  0  0  0
   28.0003   37.9981   25.2709 N   0  0  0  0  0  0  0  0  0  0  0  0
   27.6701   36.1005   23.8330 C   0  0  0  0  0  0  0  0  0  0  0  0
   27.4001   35.5710   22.5765 C   0  0  1  0  0  0  0  0  0  0  0  0
   27.3514   34.0847   22.4143 C   0  0  0  0  0  0  0  0  0  0  0  0
   27.1780   36.4315   21.4907 C   0  0  1  0  0  0  0  0  0  0  0  0
   26.8740   35.8993   20.1172 C   0  0  0  0  0  0  0  0  0  0  0  0
   27.2363   37.8099   21.6788 C   0  0  0  0  0  0  0  0  0  0  0  0
   27.5115   38.3428   22.9395 C   0  0  1  0  0  0  0  0  0  0  0  0
   27.8382   40.2278   24.3837 C   0  0  1  0  0  0  0  0  0  0  0  0
   27.5722   39.7153   23.1283 N   0  0  0  0  0  0  0  0  0  0  0  0
  1  2  1  6  0  0  0
  1  3  1  0  0  0  0
  1  4  2  0  0  0  0
  1  6  1  0  0  0  0
  5  6  1  0  0  0  0
  7  5  1  6  0  0  0
  7  8  1  0  0  0  0
  7  9  1  0  0  0  0
  9 10  1  1  0  0  0
  9 11  1  0  0  0  0
 11 12  1  1  0  0  0
 11 13  1  0  0  0  0
 13 31  1  0  0  0  0
 14 15  1  0  0  0  0
 15 16  2  0  0  0  0
 15 17  1  0  0  0  0
 17 18  1  0  0  0  0
 18 20  2  0  0  0  0
 19 18  1  1  0  0  0
 19 22  1  0  0  0  0
 19 30  1  0  0  0  0
 21 23  1  6  0  0  0
 21 29  1  0  0  0  0
 21 22  1  0  0  0  0
 23 24  1  0  0  0  0
 24 25  1  1  0  0  0
 24 26  1  0  0  0  0
 26 27  1  1  0  0  0
 26 28  1  0  0  0  0
 29 28  1  1  0  0  0
 29 31  1  0  0  0  0
 30 14  1  1  0  0  0
 30 31  1  0  0  0  0
M  CHG  1   3  -1
M  END
>  <CHROM.1>
-178.22466673,-48.15682916,-54.89127361,167.29753946,168.09253526,-156.22879294
-94.00338639,28.39769420,39.58057872,21.98955771,-0.71511830,1.34520627,0.63721836

>  <Name>
ligand

>  <RI>
0

>  <Rbt.Current_Directory>
/home/itssahil/PROJECTS/Mol_Feturizer/New_Systems/rnas/3F2T

>  <Rbt.Executable>
rbdock ($Id: //depot/dev/client3/rdock/2013.1/src/exe/rbdock.cxx#4 $)

>  <Rbt.Library>
libRbt.so (2013.1, Build901 2013/11/27)

>  <Rbt.Parameter_File>
/export/apps/rDock/src/rDock_2013.1_src/data/scripts/dock_solv.prm

>  <Rbt.Receptor>
prm/blind_docking_100.prm

>  <SCORE>
-21.6857

>  <SCORE.INTER>
-23.1971

>  <SCORE.INTER.CONST>
1

>  <SCORE.INTER.POLAR>
0

>  <SCORE.INTER.ROT>
7

>  <SCORE.INTER.SOLV>
15.8399

>  <SCORE.INTER.VDW>
-29.0114

>  <SCORE.INTER.norm>
-0.748295

>  <SCORE.INTRA>
1.51148

>  <SCORE.INTRA.DIHEDRAL>
-0.374919

>  <SCORE.INTRA.DIHEDRAL.0>
4.64198

>  <SCORE.INTRA.POLAR>
0

>  <SCORE.INTRA.POLAR.0>
0

>  <SCORE.INTRA.REPUL>
0

>  <SCORE.INTRA.REPUL.0>
0

>  <SCORE.INTRA.SOLV>
0.821792

>  <SCORE.INTRA.SOLV.lig_0>
-49.3611

>  <SCORE.INTRA.VDW>
1.28804

>  <SCORE.INTRA.VDW.0>
-1.91858

>  <SCORE.INTRA.norm>
0.0487573

>  <SCORE.RESTR>
0

>  <SCORE.RESTR.CAVITY>
0

>  <SCORE.RESTR.norm>
0

>  <SCORE.SYSTEM>
0

>  <SCORE.SYSTEM.CONST>
0

>  <SCORE.SYSTEM.DIHEDRAL>
0

>  <SCORE.SYSTEM.SOLV>
0

>  <SCORE.SYSTEM.norm>
0

>  <SCORE.heavy>
31

>  <SCORE.norm>
-0.699538

>  <RMSD>
6.311

$$$$
ligand
 OpenBabel11021811473D
libRbt.so/2013.1/901 2013/11/27
 31 33  0  0  0  0  0  0  0  0999 V2000
   30.1932   32.1571   14.5825 P   0  0  1  0  0  0  0  0  0  0  0  0
   28.9115   31.3647   14.6326 O   0  0  0  0  0  0  0  0  0  0  0  0
   31.3543   31.1997   14.6314 O   0  5  0  0  0  0  0  0  0  0  0  0
   30.1602   32.9452   13.3019 O   0  0  0  0  0  0  0  0  0  0  0  0
   29.3276   34.1221   16.0858 C   0  0  0  0  0  0  0  0  0  0  0  0
   30.3448   33.1821   15.8091 O   0  0  0  0  0  0  0  0  0  0  0  0
   29.7133   34.9303   17.3220 C   0  0  1  0  0  0  0  0  0  0  0  0
   30.8797   35.6834   17.0553 O   0  0  0  0  0  0  0  0  0  0  0  0
   28.5865   35.8790   17.6951 C   0  0  1  0  0  0  0  0  0  0  0  0
   27.4206   35.1258   17.8967 O   0  0  0  0  0  0  0  0  0  0  0  0
   28.8835   36.6723   18.9566 C   0  0  1  0  0  0  0  0  0  0  0  0
   29.9701   37.5197   18.6976 O   0  0  0  0  0  0  0  0  0  0  0  0
   27.6831   37.5091   19.3667 C   0  0  0  0  0  0  0  0  0  0  0  0
   27.4541   35.5762   21.3992 N   0  0  0  0  0  0  0  0  0  0  0  0
   27.2773   34.6018   22.3574 C   0  0  0  0  0  0  0  0  0  0  0  0
   27.1373   33.4286   22.0243 O   0  0  0  0  0  0  0  0  0  0  0  0
   27.2537   34.9328   23.6930 N   0  0  0  0  0  0  0  0  0  0  0  0
   27.4189   36.2466   24.0863 C   0  0  0  0  0  0  0  0  0  0  0  0
   27.5972   37.2367   23.1265 C   0  0  1  0  0  0  0  0  0  0  0  0
   27.4158   36.5353   25.2847 O   0  0  0  0  0  0  0  0  0  0  0  0
   27.9398   39.5341   22.5569 C   0  0  2  0  0  0  0  0  0  0  0  0
   27.7610   38.5520   23.5125 N   0  0  0  0  0  0  0  0  0  0  0  0
   28.1052   40.8631   22.9483 C   0  0  0  0  0  0  0  0  0  0  0  0
   28.2806   41.8594   21.9951 C   0  0  1  0  0  0  0  0  0  0  0  0
   28.4513   43.2738   22.4516 C   0  0  0  0  0  0  0  0  0  0  0  0
   28.2964   41.5252   20.6325 C   0  0  1  0  0  0  0  0  0  0  0  0
   28.4925   42.5716   19.5701 C   0  0  0  0  0  0  0  0  0  0  0  0
   28.1294   40.1983   20.2450 C   0  0  0  0  0  0  0  0  0  0  0  0
   27.9490   39.1973   21.2012 C   0  0  1  0  0  0  0  0  0  0  0  0
   27.6102   36.8949   21.7758 C   0  0  1  0  0  0  0  0  0  0  0  0
   27.7802   37.8755   20.8172 N   0  0  0  0  0  0  0  0  0  0  0  0
  1  2  1  1  0  0  0
  1  3  1  0  0  0  0
  1  4  2  0  0  0  0
  1  6  1  0  0  0  0
  5  6  1  0  0  0  0
  7  5  1  6  0  0  0
  7  8  1  0  0  0  0
  7  9  1  0  0  0  0
  9 10  1  1  0  0  0
  9 11  1  0  0  0  0
 11 12  1  6  0  0  0
 11 13  1  0  0  0  0
 13 31  1  0  0  0  0
 14 15  1  0  0  0  0
 15 16  2  0  0  0  0
 15 17  1  0  0  0  0
 17 18  1  0  0  0  0
 18 20  2  0  0  0  0
 19 18  1  1  0  0  0
 19 22  1  0  0  0  0
 19 30  1  0  0  0  0
 21 23  1  6  0  0  0
 21 29  1  0  0  0  0
 21 22  1  0  0  0  0
 23 24  1  0  0  0  0
 24 25  1  1  0  0  0
 24 26  1  0  0  0  0
 26 27  1  1  0  0  0
 26 28  1  0  0  0  0
 29 28  1  1  0  0  0
 29 31  1  0  0  0  0
 30 14  1  1  0  0  0
 30 31  1  0  0  0  0
M  CHG  1   3  -1
M  END
>  <CHROM.1>
178.22170894,-53.99267687,64.13260146,56.94761743,65.50252544,159.33461223
113.95883034,28.62895878,36.41109928,19.49360994,-0.90771110,1.23119448,0.18273120

>  <Name>
ligand

>  <RI>
0

>  <Rbt.Current_Directory>
/home/itssahil/PROJECTS/Mol_Feturizer/New_Systems/rnas/3F2T

>  <Rbt.Executable>
rbdock ($Id: //depot/dev/client3/rdock/2013.1/src/exe/rbdock.cxx#4 $)

>  <Rbt.Library>
libRbt.so (2013.1, Build901 2013/11/27)

>  <Rbt.Parameter_File>
/export/apps/rDock/src/rDock_2013.1_src/data/scripts/dock_solv.prm

>  <Rbt.Receptor>
prm/pocket_docking_6.prm

>  <SCORE>
-21.0277

>  <SCORE.INTER>
-20.2254

>  <SCORE.INTER.CONST>
1

>  <SCORE.INTER.POLAR>
0

>  <SCORE.INTER.ROT>
7

>  <SCORE.INTER.SOLV>
8.72828

>  <SCORE.INTER.VDW>
-24.6597

>  <SCORE.INTER.norm>
-0.652431

>  <SCORE.INTRA>
-0.802312

>  <SCORE.INTRA.DIHEDRAL>
-1.71855

>  <SCORE.INTRA.DIHEDRAL.0>
4.64198

>  <SCORE.INTRA.POLAR>
0

>  <SCORE.INTRA.POLAR.0>
0

>  <SCORE.INTRA.REPUL>
0

>  <SCORE.INTRA.REPUL.0>
0

>  <SCORE.INTRA.SOLV>
-0.697505

>  <SCORE.INTRA.SOLV.lig_0>
-49.3611

>  <SCORE.INTRA.VDW>
0.405717

>  <SCORE.INTRA.VDW.0>
-1.91858

>  <SCORE.INTRA.norm>
-0.025881

>  <SCORE.RESTR>
0

>  <SCORE.RESTR.CAVITY>
0

>  <SCORE.RESTR.norm>
0

>  <SCORE.SYSTEM>
0

>  <SCORE.SYSTEM.CONST>
0

>  <SCORE.SYSTEM.DIHEDRAL>
0

>  <SCORE.SYSTEM.SOLV>
0

>  <SCORE.SYSTEM.norm>
0

>  <SCORE.heavy>
31

>  <SCORE.norm>
-0.678312

>  <RMSD>
6.312

$$$$
ligand
 OpenBabel11021811473D
libRbt.so/2013.1/901 2013/11/27
 31 33  0  0  0  0  0  0  0  0999 V2000
   26.0074   34.5245   14.2588 P   0  0  1  0  0  0  0  0  0  0  0  0
   26.6648   35.4978   13.3134 O   0  0  0  0  0  0  0  0  0  0  0  0
   24.8070   33.9249   13.5760 O   0  5  0  0  0  0  0  0  0  0  0  0
   27.0444   33.4892   14.5977 O   0  0  0  0  0  0  0  0  0  0  0  0
   26.4445   35.6542   16.5834 C   0  0  0  0  0  0  0  0  0  0  0  0
   25.5093   35.2133   15.6211 O   0  0  0  0  0  0  0  0  0  0  0  0
   25.7119   36.4212   17.6812 C   0  0  1  0  0  0  0  0  0  0  0  0
   24.7627   35.5769   18.3015 O   0  0  0  0  0  0  0  0  0  0  0  0
   26.7024   36.9045   18.7272 C   0  0  1  0  0  0  0  0  0  0  0  0
   27.2972   35.7844   19.3262 O   0  0  0  0  0  0  0  0  0  0  0  0
   27.7926   37.7838   18.1380 C   0  0  1  0  0  0  0  0  0  0  0  0
   27.2164   39.0049   17.7600 O   0  0  0  0  0  0  0  0  0  0  0  0
   28.8905   38.0427   19.1563 C   0  0  0  0  0  0  0  0  0  0  0  0
   28.9297   40.8205   18.7067 N   0  0  0  0  0  0  0  0  0  0  0  0
   29.0236   42.1730   18.4603 C   0  0  0  0  0  0  0  0  0  0  0  0
   29.4042   42.5744   17.3644 O   0  0  0  0  0  0  0  0  0  0  0  0
   28.6952   43.0847   19.4375 N   0  0  0  0  0  0  0  0  0  0  0  0
   28.2564   42.6509   20.6732 C   0  0  0  0  0  0  0  0  0  0  0  0
   28.1591   41.2881   20.9314 C   0  0  1  0  0  0  0  0  0  0  0  0
   27.9454   43.4716   21.5388 O   0  0  0  0  0  0  0  0  0  0  0  0
   27.6254   39.4927   22.4184 C   0  0  2  0  0  0  0  0  0  0  0  0
   27.7230   40.8475   22.1649 N   0  0  0  0  0  0  0  0  0  0  0  0
   27.1847   39.0487   23.6656 C   0  0  0  0  0  0  0  0  0  0  0  0
   27.0878   37.6882   23.9328 C   0  0  1  0  0  0  0  0  0  0  0  0
   26.6148   37.2491   25.2824 C   0  0  0  0  0  0  0  0  0  0  0  0
   27.4304   36.7570   22.9408 C   0  0  1  0  0  0  0  0  0  0  0  0
   27.3310   35.2764   23.1864 C   0  0  0  0  0  0  0  0  0  0  0  0
   27.8715   37.2031   21.6978 C   0  0  0  0  0  0  0  0  0  0  0  0
   27.9733   38.5693   21.4296 C   0  0  1  0  0  0  0  0  0  0  0  0
   28.5028   40.3712   19.9400 C   0  0  1  0  0  0  0  0  0  0  0  0
   28.4146   39.0156   20.1929 N   0  0  0  0  0  0  0  0  0  0  0  0
  1  2  1  6  0  0  0
  1  3  1  0  0  0  0
  1  4  2  0  0  0  0
  1  6  1  0  0  0  0
  5  6  1  0  0  0  0
  7  5  1  6  0  0  0
  7  8  1  0  0  0  0
  7  9  1  0  0  0  0
  9 10  1  6  0  0  0
  9 11  1  0  0  0  0
 11 12  1  1  0  0  0
 11 13  1  0  0  0  0
 13 31  1  0  0  0  0
 14 15  1  0  0  0  0
 15 16  2  0  0  0  0
 15 17  1  0  0  0  0
 17 18  1  0  0  0  0
 18 20  2  0  0  0  0
 19 18  1  6  0  0  0
 19 22  1  0  0  0  0
 19 30  1  0  0  0  0
 21 23  1  1  0  0  0
 21 29  1  0  0  0  0
 21 22  1  0  0  0  0
 23 24  1  0  0  0  0
 24 25  1  6  0  0  0
 24 26  1  0  0  0  0
 26 27  1  6  0  0  0
 26 28  1  0  0  0  0
 29 28  1  6  0  0  0
 29 31  1  0  0  0  0
 30 14  1  6  0  0  0
 30 31  1  0  0  0  0
M  CHG  1   3  -1
M  END
>  <CHROM.1>
172.84362310,-70.83065470,60.09409697,-62.91261644,70.17615113,-73.88635254
99.79781752,27.28878059,37.99705460,19.02165248,-2.33880514,1.24617842,1.60865841

>  <Name>
ligand

>  <RI>
0

>  <Rbt.Current_Directory>
/home/itssahil/PROJECTS/Mol_Feturizer/New_Systems/rnas/3F2T

>  <Rbt.Executable>
rbdock ($Id: //depot/dev/client3/rdock/2013.1/src/exe/rbdock.cxx#4 $)

>  <Rbt.Library>
libRbt.so (2013.1, Build901 2013/11/27)

>  <Rbt.Parameter_File>
/export/apps/rDock/src/rDock_2013.1_src/data/scripts/dock_solv.prm

>  <Rbt.Receptor>
prm/pocket_docking_7.prm

>  <SCORE>
-22.9497

>  <SCORE.INTER>
-22.5359

>  <SCORE.INTER.CONST>
1

>  <SCORE.INTER.POLAR>
0

>  <SCORE.INTER.ROT>
7

>  <SCORE.INTER.SOLV>
13.5473

>  <SCORE.INTER.VDW>
-27.8063

>  <SCORE.INTER.norm>
-0.726964

>  <SCORE.INTRA>
-0.413823

>  <SCORE.INTRA.DIHEDRAL>
-1.78175

>  <SCORE.INTRA.DIHEDRAL.0>
4.64198

>  <SCORE.INTRA.POLAR>
0

>  <SCORE.INTRA.POLAR.0>
0

>  <SCORE.INTRA.REPUL>
0

>  <SCORE.INTRA.REPUL.0>
0

>  <SCORE.INTRA.SOLV>
-0.297841

>  <SCORE.INTRA.SOLV.lig_0>
-49.3611

>  <SCORE.INTRA.VDW>
0.625972

>  <SCORE.INTRA.VDW.0>
-1.91858

>  <SCORE.INTRA.norm>
-0.0133491

>  <SCORE.RESTR>
0

>  <SCORE.RESTR.CAVITY>
0

>  <SCORE.RESTR.norm>
0

>  <SCORE.SYSTEM>
0

>  <SCORE.SYSTEM.CONST>
0

>  <SCORE.SYSTEM.DIHEDRAL>
0

>  <SCORE.SYSTEM.SOLV>
0

>  <SCORE.SYSTEM.norm>
0

>  <SCORE.heavy>
31

>  <SCORE.norm>
-0.740313

>  <RMSD>
6.368

$$$$
ligand
 OpenBabel11021811473D
libRbt.so/2013.1/901 2013/11/27
 31 33  0  0  0  0  0  0  0  0999 V2000
   30.2139   43.2549   25.6851 P   0  0  1  0  0  0  0  0  0  0  0  0
   28.8789   43.8981   25.9632 O   0  0  0  0  0  0  0  0  0  0  0  0
   31.1116   44.2710   25.0303 O   0  5  0  0  0  0  0  0  0  0  0  0
   30.7517   42.7926   27.0114 O   0  0  0  0  0  0  0  0  0  0  0  0
   29.8123   42.1615   23.3370 C   0  0  0  0  0  0  0  0  0  0  0  0
   30.1067   41.9859   24.7071 O   0  0  0  0  0  0  0  0  0  0  0  0
   28.3513   42.5772   23.1863 C   0  0  1  0  0  0  0  0  0  0  0  0
   28.2162   43.9566   23.4651 O   0  0  0  0  0  0  0  0  0  0  0  0
   27.8788   42.3108   21.7670 C   0  0  1  0  0  0  0  0  0  0  0  0
   28.9120   42.6554   20.8832 O   0  0  0  0  0  0  0  0  0  0  0  0
   27.5019   40.8565   21.5394 C   0  0  1  0  0  0  0  0  0  0  0  0
   26.9976   40.7315   20.2371 O   0  0  0  0  0  0  0  0  0  0  0  0
   28.7124   39.9512   21.6962 C   0  0  0  0  0  0  0  0  0  0  0  0
   27.3023   38.6739   23.7699 N   0  0  0  0  0  0  0  0  0  0  0  0
   26.6646   38.0787   24.8366 C   0  0  0  0  0  0  0  0  0  0  0  0
   26.3538   38.7461   25.8188 O   0  0  0  0  0  0  0  0  0  0  0  0
   26.3727   36.7340   24.8130 N   0  0  0  0  0  0  0  0  0  0  0  0
   26.7070   35.9696   23.7121 C   0  0  0  0  0  0  0  0  0  0  0  0
   27.3513   36.5613   22.6314 C   0  0  1  0  0  0  0  0  0  0  0  0
   26.4265   34.7695   23.6881 O   0  0  0  0  0  0  0  0  0  0  0  0
   28.3285   36.3937   20.4551 C   0  0  2  0  0  0  0  0  0  0  0  0
   27.6899   35.8029   21.5287 N   0  0  0  0  0  0  0  0  0  0  0  0
   28.6703   35.6260   19.3412 C   0  0  0  0  0  0  0  0  0  0  0  0
   29.3175   36.2090   18.2581 C   0  0  1  0  0  0  0  0  0  0  0  0
   29.6718   35.3542   17.0826 C   0  0  0  0  0  0  0  0  0  0  0  0
   29.6238   37.5780   18.2838 C   0  0  1  0  0  0  0  0  0  0  0  0
   30.3150   38.2493   17.1288 C   0  0  0  0  0  0  0  0  0  0  0  0
   29.2829   38.3411   19.3974 C   0  0  0  0  0  0  0  0  0  0  0  0
   28.6366   37.7557   20.4876 C   0  0  1  0  0  0  0  0  0  0  0  0
   27.6521   37.9214   22.6669 C   0  0  1  0  0  0  0  0  0  0  0  0
   28.2983   38.5136   21.5987 N   0  0  0  0  0  0  0  0  0  0  0  0
  1  2  1  1  0  0  0
  1  3  1  0  0  0  0
  1  4  2  0  0  0  0
  1  6  1  0  0  0  0
  5  6  1  0  0  0  0
  7  5  1  6  0  0  0
  7  8  1  0  0  0  0
  7  9  1  0  0  0  0
  9 10  1  6  0  0  0
  9 11  1  0  0  0  0
 11 12  1  6  0  0  0
 11 13  1  0  0  0  0
 13 31  1  0  0  0  0
 14 15  1  0  0  0  0
 15 16  2  0  0  0  0
 15 17  1  0  0  0  0
 17 18  1  0  0  0  0
 18 20  2  0  0  0  0
 19 18  1  6  0  0  0
 19 22  1  0  0  0  0
 19 30  1  0  0  0  0
 21 23  1  1  0  0  0
 21 29  1  0  0  0  0
 21 22  1  0  0  0  0
 23 24  1  0  0  0  0
 24 25  1  6  0  0  0
 24 26  1  0  0  0  0
 26 27  1  6  0  0  0
 26 28  1  0  0  0  0
 29 28  1  6  0  0  0
 29 31  1  0  0  0  0
 30 14  1  6  0  0  0
 30 31  1  0  0  0  0
M  CHG  1   3  -1
M  END
>  <CHROM.1>
-71.53348280,71.15996083,79.55023898,-39.86315781,176.10243948,174.59939717
108.90884707,28.55014923,39.62286824,22.49398437,-1.26807654,-1.10478207
-2.21341615

>  <Name>
ligand

>  <RI>
0

>  <Rbt.Current_Directory>
/home/itssahil/PROJECTS/Mol_Feturizer/New_Systems/rnas/3F2T

>  <Rbt.Executable>
rbdock ($Id: //depot/dev/client3/rdock/2013.1/src/exe/rbdock.cxx#4 $)

>  <Rbt.Library>
libRbt.so (2013.1, Build901 2013/11/27)

>  <Rbt.Parameter_File>
/export/apps/rDock/src/rDock_2013.1_src/data/scripts/dock_solv.prm

>  <Rbt.Receptor>
prm/pocket_docking_8.prm

>  <SCORE>
-26.3638

>  <SCORE.INTER>
-29.5329

>  <SCORE.INTER.CONST>
1

>  <SCORE.INTER.POLAR>
0

>  <SCORE.INTER.ROT>
7

>  <SCORE.INTER.SOLV>
20.4853

>  <SCORE.INTER.VDW>
-34.7837

>  <SCORE.INTER.norm>
-0.952674

>  <SCORE.INTRA>
3.1612

>  <SCORE.INTRA.DIHEDRAL>
0.25049

>  <SCORE.INTRA.DIHEDRAL.0>
4.64198

>  <SCORE.INTRA.POLAR>
0

>  <SCORE.INTRA.POLAR.0>
0

>  <SCORE.INTRA.REPUL>
0

>  <SCORE.INTRA.REPUL.0>
0

>  <SCORE.INTRA.SOLV>
1.25162

>  <SCORE.INTRA.SOLV.lig_0>
-49.3611

>  <SCORE.INTRA.VDW>
2.41014

>  <SCORE.INTRA.VDW.0>
-1.91858

>  <SCORE.INTRA.norm>
0.101974

>  <SCORE.RESTR>
0.00785894

>  <SCORE.RESTR.CAVITY>
0.00785894

>  <SCORE.RESTR.norm>
0.000253514

>  <SCORE.SYSTEM>
0

>  <SCORE.SYSTEM.CONST>
0

>  <SCORE.SYSTEM.DIHEDRAL>
0

>  <SCORE.SYSTEM.SOLV>
0

>  <SCORE.SYSTEM.norm>
0

>  <SCORE.heavy>
31

>  <SCORE.norm>
-0.850446

>  <RMSD>
6.391

$$$$
ligand
 OpenBabel11021811473D
libRbt.so/2013.1/901 2013/11/27
 31 33  0  0  0  0  0  0  0  0999 V2000
   28.7775   42.6166   22.4518 P   0  0  1  0  0  0  0  0  0  0  0  0
   29.0505   43.2395   21.1062 O   0  0  0  0  0  0  0  0  0  0  0  0
   30.0227   42.7185   23.2920 O   0  5  0  0  0  0  0  0  0  0  0  0
   27.6249   43.3756   23.0497 O   0  0  0  0  0  0  0  0  0  0  0  0
   29.2569   40.1303   21.7743 C   0  0  0  0  0  0  0  0  0  0  0  0
   28.3719   41.0660   22.3540 O   0  0  0  0  0  0  0  0  0  0  0  0
   28.5935   38.7556   21.7565 C   0  0  1  0  0  0  0  0  0  0  0  0
   27.9667   38.5119   23.0001 O   0  0  0  0  0  0  0  0  0  0  0  0
   27.5477   38.6973   20.6557 C   0  0  1  0  0  0  0  0  0  0  0  0
   26.9265   39.9517   20.5669 O   0  0  0  0  0  0  0  0  0  0  0  0
   28.1424   38.3463   19.3022 C   0  0  1  0  0  0  0  0  0  0  0  0
   29.1421   39.2834   19.0047 O   0  0  0  0  0  0  0  0  0  0  0  0
   28.7515   36.9541   19.3216 C   0  0  0  0  0  0  0  0  0  0  0  0
   31.2867   37.4312   18.1969 N   0  0  0  0  0  0  0  0  0  0  0  0
   32.5227   37.7400   17.6718 C   0  0  0  0  0  0  0  0  0  0  0  0
   33.3719   38.2818   18.3733 O   0  0  0  0  0  0  0  0  0  0  0  0
   32.8161   37.4474   16.3595 N   0  0  0  0  0  0  0  0  0  0  0  0
   31.8757   36.8296   15.5583 C   0  0  0  0  0  0  0  0  0  0  0  0
   30.6255   36.5149   16.0792 C   0  0  1  0  0  0  0  0  0  0  0  0
   32.1501   36.5526   14.3889 O   0  0  0  0  0  0  0  0  0  0  0  0
   28.4392   35.5856   15.8040 C   0  0  2  0  0  0  0  0  0  0  0  0
   29.6803   35.8991   15.2835 N   0  0  0  0  0  0  0  0  0  0  0  0
   27.4847   34.9633   14.9987 C   0  0  0  0  0  0  0  0  0  0  0  0
   26.2314   34.6483   15.5106 C   0  0  1  0  0  0  0  0  0  0  0  0
   25.2320   33.9846   14.6169 C   0  0  0  0  0  0  0  0  0  0  0  0
   25.9272   34.9536   16.8458 C   0  0  1  0  0  0  0  0  0  0  0  0
   24.5864   34.6214   17.4410 C   0  0  0  0  0  0  0  0  0  0  0  0
   26.8812   35.5762   17.6465 C   0  0  0  0  0  0  0  0  0  0  0  0
   28.1389   35.8968   17.1322 C   0  0  1  0  0  0  0  0  0  0  0  0
   30.3327   36.8232   17.4061 C   0  0  1  0  0  0  0  0  0  0  0  0
   29.0896   36.5189   17.9273 N   0  0  0  0  0  0  0  0  0  0  0  0
  1  2  1  6  0  0  0
  1  3  1  0  0  0  0
  1  4  2  0  0  0  0
  1  6  1  0  0  0  0
  5  6  1  0  0  0  0
  7  5  1  1  0  0  0
  7  8  1  0  0  0  0
  7  9  1  0  0  0  0
  9 10  1  6  0  0  0
  9 11  1  0  0  0  0
 11 12  1  1  0  0  0
 11 13  1  0  0  0  0
 13 31  1  0  0  0  0
 14 15  1  0  0  0  0
 15 16  2  0  0  0  0
 15 17  1  0  0  0  0
 17 18  1  0  0  0  0
 18 20  2  0  0  0  0
 19 18  1  1  0  0  0
 19 22  1  0  0  0  0
 19 30  1  0  0  0  0
 21 23  1  6  0  0  0
 21 29  1  0  0  0  0
 21 22  1  0  0  0  0
 23 24  1  0  0  0  0
 24 25  1  1  0  0  0
 24 26  1  0  0  0  0
 26 27  1  1  0  0  0
 26 28  1  0  0  0  0
 29 28  1  1  0  0  0
 29 31  1  0  0  0  0
 30 14  1  1  0  0  0
 30 31  1  0  0  0  0
M  CHG  1   3  -1
M  END
>  <CHROM.1>
-177.46785043,59.42836641,-44.33811979,-36.08297245,-56.53185266,168.97664062
-86.71153326,28.93452012,38.21063603,18.84116373,1.54660238,0.28894753,0.80499355

>  <Name>
ligand

>  <RI>
0

>  <Rbt.Current_Directory>
/home/itssahil/PROJECTS/Mol_Feturizer/New_Systems/rnas/3F2T

>  <Rbt.Executable>
rbdock ($Id: //depot/dev/client3/rdock/2013.1/src/exe/rbdock.cxx#4 $)

>  <Rbt.Library>
libRbt.so (2013.1, Build901 2013/11/27)

>  <Rbt.Parameter_File>
/export/apps/rDock/src/rDock_2013.1_src/data/scripts/dock_solv.prm

>  <Rbt.Receptor>
prm/blind_docking_60.prm

>  <SCORE>
-10.0305

>  <SCORE.INTER>
-11.5683

>  <SCORE.INTER.CONST>
1

>  <SCORE.INTER.POLAR>
0

>  <SCORE.INTER.ROT>
7

>  <SCORE.INTER.SOLV>
18.2292

>  <SCORE.INTER.VDW>
-22.0553

>  <SCORE.INTER.norm>
-0.373171

>  <SCORE.INTRA>
1.53784

>  <SCORE.INTRA.DIHEDRAL>
-0.379385

>  <SCORE.INTRA.DIHEDRAL.0>
4.64198

>  <SCORE.INTRA.POLAR>
0

>  <SCORE.INTRA.POLAR.0>
0

>  <SCORE.INTRA.REPUL>
0

>  <SCORE.INTRA.REPUL.0>
0

>  <SCORE.INTRA.SOLV>
0.306645

>  <SCORE.INTRA.SOLV.lig_0>
-49.3611

>  <SCORE.INTRA.VDW>
1.57421

>  <SCORE.INTRA.VDW.0>
-1.91858

>  <SCORE.INTRA.norm>
0.0496078

>  <SCORE.RESTR>
0

>  <SCORE.RESTR.CAVITY>
0

>  <SCORE.RESTR.norm>
0

>  <SCORE.SYSTEM>
0

>  <SCORE.SYSTEM.CONST>
0

>  <SCORE.SYSTEM.DIHEDRAL>
0

>  <SCORE.SYSTEM.SOLV>
0

>  <SCORE.SYSTEM.norm>
0

>  <SCORE.heavy>
31

>  <SCORE.norm>
-0.323563

>  <RMSD>
6.400

$$$$
ligand
 OpenBabel11021811473D
libRbt.so/2013.1/901 2013/11/27
 31 33  0  0  0  0  0  0  0  0999 V2000
   28.1810   34.7110   13.1302 P   0  0  1  0  0  0  0  0  0  0  0  0
   27.0299   34.0750   12.3929 O   0  0  0  0  0  0  0  0  0  0  0  0
   28.9603   33.6305   13.8318 O   0  5  0  0  0  0  0  0  0  0  0  0
   29.0072   35.4284   12.0982 O   0  0  0  0  0  0  0  0  0  0  0  0
   26.6813   35.4485   15.1494 C   0  0  0  0  0  0  0  0  0  0  0  0
   27.7065   35.7756   14.2346 O   0  0  0  0  0  0  0  0  0  0  0  0
   26.4357   36.6374   16.0748 C   0  0  1  0  0  0  0  0  0  0  0  0
   25.2446   36.4332   16.8084 O   0  0  0  0  0  0  0  0  0  0  0  0
   27.5948   36.7885   17.0456 C   0  0  1  0  0  0  0  0  0  0  0  0
   28.7493   37.1012   16.3130 O   0  0  0  0  0  0  0  0  0  0  0  0
   27.3561   37.8793   18.0761 C   0  0  1  0  0  0  0  0  0  0  0  0
   26.2002   37.5549   18.8003 O   0  0  0  0  0  0  0  0  0  0  0  0
   28.5317   37.9887   19.0329 C   0  0  0  0  0  0  0  0  0  0  0  0
   28.7214   40.7688   18.6390 N   0  0  0  0  0  0  0  0  0  0  0  0
   28.8857   42.1181   18.4130 C   0  0  0  0  0  0  0  0  0  0  0  0
   29.1944   42.5224   17.2958 O   0  0  0  0  0  0  0  0  0  0  0  0
   28.7085   43.0232   19.4345 N   0  0  0  0  0  0  0  0  0  0  0  0
   28.3522   42.5867   20.6956 C   0  0  0  0  0  0  0  0  0  0  0  0
   28.1849   41.2270   20.9332 C   0  0  1  0  0  0  0  0  0  0  0  0
   28.1762   43.4030   21.6025 O   0  0  0  0  0  0  0  0  0  0  0  0
   27.6632   39.4320   22.4250 C   0  0  2  0  0  0  0  0  0  0  0  0
   27.8306   40.7837   22.1917 N   0  0  0  0  0  0  0  0  0  0  0  0
   27.3052   38.9852   23.6974 C   0  0  0  0  0  0  0  0  0  0  0  0
   27.1392   37.6275   23.9442 C   0  0  1  0  0  0  0  0  0  0  0  0
   26.7586   37.1849   25.3216 C   0  0  0  0  0  0  0  0  0  0  0  0
   27.3279   36.7024   22.9063 C   0  0  1  0  0  0  0  0  0  0  0  0
   27.1493   35.2257   23.1293 C   0  0  0  0  0  0  0  0  0  0  0  0
   27.6867   37.1512   21.6380 C   0  0  0  0  0  0  0  0  0  0  0  0
   27.8578   38.5143   21.3900 C   0  0  1  0  0  0  0  0  0  0  0  0
   28.3756   40.3161   19.8962 C   0  0  1  0  0  0  0  0  0  0  0  0
   28.2174   38.9631   20.1281 N   0  0  0  0  0  0  0  0  0  0  0  0
  1  2  1  6  0  0  0
  1  3  1  0  0  0  0
  1  4  2  0  0  0  0
  1  6  1  0  0  0  0
  5  6  1  0  0  0  0
  7  5  1  6  0  0  0
  7  8  1  0  0  0  0
  7  9  1  0  0  0  0
  9 10  1  6  0  0  0
  9 11  1  0  0  0  0
 11 12  1  1  0  0  0
 11 13  1  0  0  0  0
 13 31  1  0  0  0  0
 14 15  1  0  0  0  0
 15 16  2  0  0  0  0
 15 17  1  0  0  0  0
 17 18  1  0  0  0  0
 18 20  2  0  0  0  0
 19 18  1  6  0  0  0
 19 22  1  0  0  0  0
 19 30  1  0  0  0  0
 21 23  1  1  0  0  0
 21 29  1  0  0  0  0
 21 22  1  0  0  0  0
 23 24  1  0  0  0  0
 24 25  1  6  0  0  0
 24 26  1  0  0  0  0
 26 27  1  6  0  0  0
 26 28  1  0  0  0  0
 29 28  1  6  0  0  0
 29 31  1  0  0  0  0
 30 14  1  6  0  0  0
 30 31  1  0  0  0  0
M  CHG  1   3  -1
M  END
>  <CHROM.1>
-179.91753558,47.83885856,168.17422656,64.50400290,59.66323195,-173.89696965
102.41723151,27.79347886,38.03039492,18.50331681,1.55936796,-1.31179902,-2.11320683

>  <Name>
ligand

>  <RI>
0

>  <Rbt.Current_Directory>
/home/itssahil/PROJECTS/Mol_Feturizer/New_Systems/rnas/3F2T

>  <Rbt.Executable>
rbdock ($Id: //depot/dev/client3/rdock/2013.1/src/exe/rbdock.cxx#4 $)

>  <Rbt.Library>
libRbt.so (2013.1, Build901 2013/11/27)

>  <Rbt.Parameter_File>
/export/apps/rDock/src/rDock_2013.1_src/data/scripts/dock_solv.prm

>  <Rbt.Receptor>
prm/pocket_docking_7.prm

>  <SCORE>
-23.1533

>  <SCORE.INTER>
-22.5134

>  <SCORE.INTER.CONST>
1

>  <SCORE.INTER.POLAR>
0

>  <SCORE.INTER.ROT>
7

>  <SCORE.INTER.SOLV>
12.7515

>  <SCORE.INTER.VDW>
-27.5261

>  <SCORE.INTER.norm>
-0.726237

>  <SCORE.INTRA>
-0.63997

>  <SCORE.INTRA.DIHEDRAL>
-2.35848

>  <SCORE.INTRA.DIHEDRAL.0>
4.64198

>  <SCORE.INTRA.POLAR>
0

>  <SCORE.INTRA.POLAR.0>
0

>  <SCORE.INTRA.REPUL>
0

>  <SCORE.INTRA.REPUL.0>
0

>  <SCORE.INTRA.SOLV>
-0.134892

>  <SCORE.INTRA.SOLV.lig_0>
-49.3611

>  <SCORE.INTRA.VDW>
0.606717

>  <SCORE.INTRA.VDW.0>
-1.91858

>  <SCORE.INTRA.norm>
-0.0206442

>  <SCORE.RESTR>
0

>  <SCORE.RESTR.CAVITY>
0

>  <SCORE.RESTR.norm>
0

>  <SCORE.SYSTEM>
0

>  <SCORE.SYSTEM.CONST>
0

>  <SCORE.SYSTEM.DIHEDRAL>
0

>  <SCORE.SYSTEM.SOLV>
0

>  <SCORE.SYSTEM.norm>
0

>  <SCORE.heavy>
31

>  <SCORE.norm>
-0.746881

>  <RMSD>
6.403

$$$$
ligand
 OpenBabel11021811473D
libRbt.so/2013.1/901 2013/11/27
 31 33  0  0  0  0  0  0  0  0999 V2000
   29.4324   31.8330   14.2947 P   0  0  1  0  0  0  0  0  0  0  0  0
   30.0701   30.4711   14.4036 O   0  0  0  0  0  0  0  0  0  0  0  0
   30.0791   32.5788   13.1579 O   0  5  0  0  0  0  0  0  0  0  0  0
   27.9648   31.6017   14.0605 O   0  0  0  0  0  0  0  0  0  0  0  0
   28.8529   33.8966   15.8034 C   0  0  0  0  0  0  0  0  0  0  0  0
   29.6044   32.7139   15.6261 O   0  0  0  0  0  0  0  0  0  0  0  0
   29.2604   34.5585   17.1172 C   0  0  1  0  0  0  0  0  0  0  0  0
   30.5609   35.0994   16.9960 O   0  0  0  0  0  0  0  0  0  0  0  0
   28.2896   35.6762   17.4591 C   0  0  1  0  0  0  0  0  0  0  0  0
   27.0029   35.1287   17.5681 O   0  0  0  0  0  0  0  0  0  0  0  0
   28.6383   36.3754   18.7623 C   0  0  1  0  0  0  0  0  0  0  0  0
   29.8303   37.0891   18.5733 O   0  0  0  0  0  0  0  0  0  0  0  0
   27.5375   37.3395   19.1724 C   0  0  0  0  0  0  0  0  0  0  0  0
   27.3971   35.4787   21.2789 N   0  0  0  0  0  0  0  0  0  0  0  0
   27.2614   34.5392   22.2778 C   0  0  0  0  0  0  0  0  0  0  0  0
   27.0889   33.3578   21.9929 O   0  0  0  0  0  0  0  0  0  0  0  0
   27.3154   34.9148   23.6007 N   0  0  0  0  0  0  0  0  0  0  0  0
   27.5181   36.2384   23.9395 C   0  0  0  0  0  0  0  0  0  0  0  0
   27.6554   37.1935   22.9384 C   0  0  1  0  0  0  0  0  0  0  0  0
   27.5845   36.5668   25.1258 O   0  0  0  0  0  0  0  0  0  0  0  0
   27.9943   39.4656   22.2732 C   0  0  2  0  0  0  0  0  0  0  0  0
   27.8563   38.5185   23.2699 N   0  0  0  0  0  0  0  0  0  0  0  0
   28.1973   40.8044   22.6097 C   0  0  0  0  0  0  0  0  0  0  0  0
   28.3321   41.7659   21.6151 C   0  0  1  0  0  0  0  0  0  0  0  0
   28.5450   43.1921   22.0132 C   0  0  0  0  0  0  0  0  0  0  0  0
   28.2687   41.3864   20.2658 C   0  0  1  0  0  0  0  0  0  0  0  0
   28.4189   42.3941   19.1593 C   0  0  0  0  0  0  0  0  0  0  0  0
   28.0644   40.0499   19.9332 C   0  0  0  0  0  0  0  0  0  0  0  0
   27.9246   39.0839   20.9313 C   0  0  1  0  0  0  0  0  0  0  0  0
   27.5899   36.8069   21.6013 C   0  0  1  0  0  0  0  0  0  0  0  0
   27.7188   37.7525   20.6021 N   0  0  0  0  0  0  0  0  0  0  0  0
  1  2  1  1  0  0  0
  1  3  1  0  0  0  0
  1  4  2  0  0  0  0
  1  6  1  0  0  0  0
  5  6  1  0  0  0  0
  7  5  1  6  0  0  0
  7  8  1  0  0  0  0
  7  9  1  0  0  0  0
  9 10  1  1  0  0  0
  9 11  1  0  0  0  0
 11 12  1  6  0  0  0
 11 13  1  0  0  0  0
 13 31  1  0  0  0  0
 14 15  1  0  0  0  0
 15 16  2  0  0  0  0
 15 17  1  0  0  0  0
 17 18  1  0  0  0  0
 18 20  2  0  0  0  0
 19 18  1  6  0  0  0
 19 22  1  0  0  0  0
 19 30  1  0  0  0  0
 21 23  1  1  0  0  0
 21 29  1  0  0  0  0
 21 22  1  0  0  0  0
 23 24  1  0  0  0  0
 24 25  1  6  0  0  0
 24 26  1  0  0  0  0
 26 27  1  6  0  0  0
 26 28  1  0  0  0  0
 29 28  1  6  0  0  0
 29 31  1  0  0  0  0
 30 14  1  6  0  0  0
 30 31  1  0  0  0  0
M  CHG  1   3  -1
M  END
>  <CHROM.1>
-177.49169279,-167.36245756,70.89116278,59.26766187,68.60211861,165.62512446
118.88054204,28.39946459,36.22693618,19.25760578,-1.03238995,1.30811613,0.27685111

>  <Name>
ligand

>  <RI>
0

>  <Rbt.Current_Directory>
/home/itssahil/PROJECTS/Mol_Feturizer/New_Systems/rnas/3F2T

>  <Rbt.Executable>
rbdock ($Id: //depot/dev/client3/rdock/2013.1/src/exe/rbdock.cxx#4 $)

>  <Rbt.Library>
libRbt.so (2013.1, Build901 2013/11/27)

>  <Rbt.Parameter_File>
/export/apps/rDock/src/rDock_2013.1_src/data/scripts/dock_solv.prm

>  <Rbt.Receptor>
prm/pocket_docking_6.prm

>  <SCORE>
-20.2702

>  <SCORE.INTER>
-19.9476

>  <SCORE.INTER.CONST>
1

>  <SCORE.INTER.POLAR>
0

>  <SCORE.INTER.ROT>
7

>  <SCORE.INTER.SOLV>
8.98487

>  <SCORE.INTER.VDW>
-24.56

>  <SCORE.INTER.norm>
-0.643472

>  <SCORE.INTRA>
-0.322581

>  <SCORE.INTRA.DIHEDRAL>
-1.76185

>  <SCORE.INTRA.DIHEDRAL.0>
4.64198

>  <SCORE.INTRA.POLAR>
0

>  <SCORE.INTRA.POLAR.0>
0

>  <SCORE.INTRA.REPUL>
0

>  <SCORE.INTRA.REPUL.0>
0

>  <SCORE.INTRA.SOLV>
-0.183755

>  <SCORE.INTRA.SOLV.lig_0>
-49.3611

>  <SCORE.INTRA.VDW>
0.65022

>  <SCORE.INTRA.VDW.0>
-1.91858

>  <SCORE.INTRA.norm>
-0.0104059

>  <SCORE.RESTR>
0

>  <SCORE.RESTR.CAVITY>
0

>  <SCORE.RESTR.norm>
0

>  <SCORE.SYSTEM>
0

>  <SCORE.SYSTEM.CONST>
0

>  <SCORE.SYSTEM.DIHEDRAL>
0

>  <SCORE.SYSTEM.SOLV>
0

>  <SCORE.SYSTEM.norm>
0

>  <SCORE.heavy>
31

>  <SCORE.norm>
-0.653878

>  <RMSD>
6.405

$$$$
ligand
 OpenBabel11021811473D
libRbt.so/2013.1/901 2013/11/27
 31 33  0  0  0  0  0  0  0  0999 V2000
   32.3632   36.0868   16.6218 P   0  0  1  0  0  0  0  0  0  0  0  0
   32.3732   36.5237   15.1788 O   0  0  0  0  0  0  0  0  0  0  0  0
   31.2289   35.1175   16.8243 O   0  5  0  0  0  0  0  0  0  0  0  0
   33.7029   35.4573   16.8885 O   0  0  0  0  0  0  0  0  0  0  0  0
   30.8614   37.7486   17.9832 C   0  0  0  0  0  0  0  0  0  0  0  0
   32.1598   37.3075   17.6449 O   0  0  0  0  0  0  0  0  0  0  0  0
   30.9554   39.1123   18.6628 C   0  0  1  0  0  0  0  0  0  0  0  0
   31.3918   40.0813   17.7304 O   0  0  0  0  0  0  0  0  0  0  0  0
   29.5937   39.5203   19.1997 C   0  0  1  0  0  0  0  0  0  0  0  0
   28.6131   39.0961   18.2910 O   0  0  0  0  0  0  0  0  0  0  0  0
   29.2968   38.9152   20.5614 C   0  0  1  0  0  0  0  0  0  0  0  0
   30.1334   39.5263   21.5062 O   0  0  0  0  0  0  0  0  0  0  0  0
   27.8468   39.1462   20.9534 C   0  0  0  0  0  0  0  0  0  0  0  0
   27.2137   40.1680   23.4981 N   0  0  0  0  0  0  0  0  0  0  0  0
   26.9691   40.7135   24.7396 C   0  0  0  0  0  0  0  0  0  0  0  0
   26.9662   41.9321   24.8872 O   0  0  0  0  0  0  0  0  0  0  0  0
   26.7288   39.9005   25.8238 N   0  0  0  0  0  0  0  0  0  0  0  0
   26.7192   38.5274   25.6741 C   0  0  0  0  0  0  0  0  0  0  0  0
   26.9658   37.9679   24.4253 C   0  0  1  0  0  0  0  0  0  0  0  0
   26.4849   37.8042   26.6444 O   0  0  0  0  0  0  0  0  0  0  0  0
   27.2030   36.0427   23.0264 C   0  0  2  0  0  0  0  0  0  0  0  0
   26.9596   36.5963   24.2689 N   0  0  0  0  0  0  0  0  0  0  0  0
   27.1966   34.6562   22.8698 C   0  0  0  0  0  0  0  0  0  0  0  0
   27.4453   34.0888   21.6256 C   0  0  1  0  0  0  0  0  0  0  0  0
   27.4339   32.5985   21.4960 C   0  0  0  0  0  0  0  0  0  0  0  0
   27.6991   34.9156   20.5208 C   0  0  1  0  0  0  0  0  0  0  0  0
   27.9639   34.3420   19.1558 C   0  0  0  0  0  0  0  0  0  0  0  0
   27.7065   36.2987   20.6806 C   0  0  0  0  0  0  0  0  0  0  0  0
   27.4609   36.8697   21.9307 C   0  0  1  0  0  0  0  0  0  0  0  0
   27.2178   38.7974   23.3344 C   0  0  1  0  0  0  0  0  0  0  0  0
   27.4701   38.2470   22.0924 N   0  0  0  0  0  0  0  0  0  0  0  0
  1  2  1  6  0  0  0
  1  3  1  0  0  0  0
  1  4  2  0  0  0  0
  1  6  1  0  0  0  0
  5  6  1  0  0  0  0
  7  5  1  6  0  0  0
  7  8  1  0  0  0  0
  7  9  1  0  0  0  0
  9 10  1  6  0  0  0
  9 11  1  0  0  0  0
 11 12  1  1  0  0  0
 11 13  1  0  0  0  0
 13 31  1  0  0  0  0
 14 15  1  0  0  0  0
 15 16  2  0  0  0  0
 15 17  1  0  0  0  0
 17 18  1  0  0  0  0
 18 20  2  0  0  0  0
 19 18  1  6  0  0  0
 19 22  1  0  0  0  0
 19 30  1  0  0  0  0
 21 23  1  1  0  0  0
 21 29  1  0  0  0  0
 21 22  1  0  0  0  0
 23 24  1  0  0  0  0
 24 25  1  6  0  0  0
 24 26  1  0  0  0  0
 26 27  1  6  0  0  0
 26 28  1  0  0  0  0
 29 28  1  6  0  0  0
 29 31  1  0  0  0  0
 30 14  1  6  0  0  0
 30 31  1  0  0  0  0
M  CHG  1   3  -1
M  END
>  <CHROM.1>
-165.51557130,86.18167074,67.59391135,-37.21790688,69.96277242,164.69540245
-64.33604820,28.97516006,37.51818387,20.81458781,0.46184961,-0.93796598,-2.85633386

>  <Name>
ligand

>  <RI>
0

>  <Rbt.Current_Directory>
/home/itssahil/PROJECTS/Mol_Feturizer/New_Systems/rnas/3F2T

>  <Rbt.Executable>
rbdock ($Id: //depot/dev/client3/rdock/2013.1/src/exe/rbdock.cxx#4 $)

>  <Rbt.Library>
libRbt.so (2013.1, Build901 2013/11/27)

>  <Rbt.Parameter_File>
/export/apps/rDock/src/rDock_2013.1_src/data/scripts/dock_solv.prm

>  <Rbt.Receptor>
prm/pocket_docking_8.prm

>  <SCORE>
-24.9967

>  <SCORE.INTER>
-26.8021

>  <SCORE.INTER.CONST>
1

>  <SCORE.INTER.POLAR>
0

>  <SCORE.INTER.ROT>
7

>  <SCORE.INTER.SOLV>
17.4194

>  <SCORE.INTER.VDW>
-31.9412

>  <SCORE.INTER.norm>
-0.864583

>  <SCORE.INTRA>
1.80539

>  <SCORE.INTRA.DIHEDRAL>
1.48132

>  <SCORE.INTRA.DIHEDRAL.0>
4.64198

>  <SCORE.INTRA.POLAR>
0

>  <SCORE.INTRA.POLAR.0>
0

>  <SCORE.INTRA.REPUL>
0

>  <SCORE.INTRA.REPUL.0>
0

>  <SCORE.INTRA.SOLV>
-0.343855

>  <SCORE.INTRA.SOLV.lig_0>
-49.3611

>  <SCORE.INTRA.VDW>
1.23666

>  <SCORE.INTRA.VDW.0>
-1.91858

>  <SCORE.INTRA.norm>
0.0582383

>  <SCORE.RESTR>
0

>  <SCORE.RESTR.CAVITY>
0

>  <SCORE.RESTR.norm>
0

>  <SCORE.SYSTEM>
0

>  <SCORE.SYSTEM.CONST>
0

>  <SCORE.SYSTEM.DIHEDRAL>
0

>  <SCORE.SYSTEM.SOLV>
0

>  <SCORE.SYSTEM.norm>
0

>  <SCORE.heavy>
31

>  <SCORE.norm>
-0.806345

>  <RMSD>
6.424

$$$$
ligand
 OpenBabel11021811473D
libRbt.so/2013.1/901 2013/11/27
 31 33  0  0  0  0  0  0  0  0999 V2000
   32.1208   36.1804   16.6788 P   0  0  1  0  0  0  0  0  0  0  0  0
   32.0117   36.5682   15.2259 O   0  0  0  0  0  0  0  0  0  0  0  0
   31.0497   35.1689   16.9897 O   0  5  0  0  0  0  0  0  0  0  0  0
   33.5036   35.6207   16.8704 O   0  0  0  0  0  0  0  0  0  0  0  0
   30.6417   37.8007   18.1132 C   0  0  0  0  0  0  0  0  0  0  0  0
   31.9310   37.4247   17.6756 O   0  0  0  0  0  0  0  0  0  0  0  0
   30.6949   39.2201   18.6721 C   0  0  1  0  0  0  0  0  0  0  0  0
   31.0047   40.1301   17.6354 O   0  0  0  0  0  0  0  0  0  0  0  0
   29.3498   39.5932   19.2722 C   0  0  1  0  0  0  0  0  0  0  0  0
   28.3394   39.1522   18.4052 O   0  0  0  0  0  0  0  0  0  0  0  0
   29.1280   38.9727   20.6414 C   0  0  1  0  0  0  0  0  0  0  0  0
   30.0936   39.4864   21.5187 O   0  0  0  0  0  0  0  0  0  0  0  0
   27.7431   39.3065   21.1706 C   0  0  0  0  0  0  0  0  0  0  0  0
   27.1759   40.3551   23.7199 N   0  0  0  0  0  0  0  0  0  0  0  0
   26.9631   40.9141   24.9613 C   0  0  0  0  0  0  0  0  0  0  0  0
   26.9556   42.1345   25.0941 O   0  0  0  0  0  0  0  0  0  0  0  0
   26.7598   40.1130   26.0616 N   0  0  0  0  0  0  0  0  0  0  0  0
   26.7558   38.7381   25.9289 C   0  0  0  0  0  0  0  0  0  0  0  0
   26.9704   38.1650   24.6803 C   0  0  1  0  0  0  0  0  0  0  0  0
   26.5545   38.0253   26.9142 O   0  0  0  0  0  0  0  0  0  0  0  0
   27.1813   36.2244   23.2987 C   0  0  2  0  0  0  0  0  0  0  0  0
   26.9696   36.7916   24.5408 N   0  0  0  0  0  0  0  0  0  0  0  0
   27.1803   34.8361   23.1590 C   0  0  0  0  0  0  0  0  0  0  0  0
   27.3974   34.2551   21.9152 C   0  0  1  0  0  0  0  0  0  0  0  0
   27.3929   32.7633   21.8040 C   0  0  0  0  0  0  0  0  0  0  0  0
   27.6135   35.0700   20.7936 C   0  0  1  0  0  0  0  0  0  0  0  0
   27.8431   34.4815   19.4285 C   0  0  0  0  0  0  0  0  0  0  0  0
   27.6155   36.4550   20.9364 C   0  0  0  0  0  0  0  0  0  0  0  0
   27.4018   37.0396   22.1860 C   0  0  1  0  0  0  0  0  0  0  0  0
   27.1852   38.9827   23.5728 C   0  0  1  0  0  0  0  0  0  0  0  0
   27.4057   38.4188   22.3307 N   0  0  0  0  0  0  0  0  0  0  0  0
  1  2  1  6  0  0  0
  1  3  1  0  0  0  0
  1  4  2  0  0  0  0
  1  6  1  0  0  0  0
  5  6  1  0  0  0  0
  7  5  1  6  0  0  0
  7  8  1  0  0  0  0
  7  9  1  0  0  0  0
  9 10  1  6  0  0  0
  9 11  1  0  0  0  0
 11 12  1  1  0  0  0
 11 13  1  0  0  0  0
 13 31  1  0  0  0  0
 14 15  1  0  0  0  0
 15 16  2  0  0  0  0
 15 17  1  0  0  0  0
 17 18  1  0  0  0  0
 18 20  2  0  0  0  0
 19 18  1  6  0  0  0
 19 22  1  0  0  0  0
 19 30  1  0  0  0  0
 21 23  1  1  0  0  0
 21 29  1  0  0  0  0
 21 22  1  0  0  0  0
 23 24  1  0  0  0  0
 24 25  1  6  0  0  0
 24 26  1  0  0  0  0
 26 27  1  6  0  0  0
 26 28  1  0  0  0  0
 29 28  1  6  0  0  0
 29 31  1  0  0  0  0
 30 14  1  6  0  0  0
 30 31  1  0  0  0  0
M  CHG  1   3  -1
M  END
>  <CHROM.1>
-162.65070560,87.56291897,65.61307174,-42.98736524,63.33559330,165.47653196
-58.06665223,28.85537346,37.65153224,20.97984822,0.45313395,-0.98147085,-2.88504405

>  <Name>
ligand

>  <RI>
0

>  <Rbt.Current_Directory>
/home/itssahil/PROJECTS/Mol_Feturizer/New_Systems/rnas/3F2T

>  <Rbt.Executable>
rbdock ($Id: //depot/dev/client3/rdock/2013.1/src/exe/rbdock.cxx#4 $)

>  <Rbt.Library>
libRbt.so (2013.1, Build901 2013/11/27)

>  <Rbt.Parameter_File>
/export/apps/rDock/src/rDock_2013.1_src/data/scripts/dock_solv.prm

>  <Rbt.Receptor>
prm/pocket_docking_8.prm

>  <SCORE>
-24.8962

>  <SCORE.INTER>
-26.1613

>  <SCORE.INTER.CONST>
1

>  <SCORE.INTER.POLAR>
0

>  <SCORE.INTER.ROT>
7

>  <SCORE.INTER.SOLV>
16.5789

>  <SCORE.INTER.VDW>
-31.2338

>  <SCORE.INTER.norm>
-0.843914

>  <SCORE.INTRA>
1.26512

>  <SCORE.INTRA.DIHEDRAL>
0.823181

>  <SCORE.INTRA.DIHEDRAL.0>
4.64198

>  <SCORE.INTRA.POLAR>
0

>  <SCORE.INTRA.POLAR.0>
0

>  <SCORE.INTRA.REPUL>
0

>  <SCORE.INTRA.REPUL.0>
0

>  <SCORE.INTRA.SOLV>
-0.291743

>  <SCORE.INTRA.SOLV.lig_0>
-49.3611

>  <SCORE.INTRA.VDW>
0.999398

>  <SCORE.INTRA.VDW.0>
-1.91858

>  <SCORE.INTRA.norm>
0.0408102

>  <SCORE.RESTR>
0

>  <SCORE.RESTR.CAVITY>
0

>  <SCORE.RESTR.norm>
0

>  <SCORE.SYSTEM>
0

>  <SCORE.SYSTEM.CONST>
0

>  <SCORE.SYSTEM.DIHEDRAL>
0

>  <SCORE.SYSTEM.SOLV>
0

>  <SCORE.SYSTEM.norm>
0

>  <SCORE.heavy>
31

>  <SCORE.norm>
-0.803104

>  <RMSD>
6.430

$$$$
ligand
 OpenBabel11021811473D
libRbt.so/2013.1/901 2013/11/27
 31 33  0  0  0  0  0  0  0  0999 V2000
   25.3367   33.7762   14.5397 P   0  0  1  0  0  0  0  0  0  0  0  0
   24.2199   33.5236   13.5588 O   0  0  0  0  0  0  0  0  0  0  0  0
   25.7318   32.4665   15.1685 O   0  5  0  0  0  0  0  0  0  0  0  0
   26.4631   34.3934   13.7572 O   0  0  0  0  0  0  0  0  0  0  0  0
   25.8568   35.1534   16.7084 C   0  0  0  0  0  0  0  0  0  0  0  0
   24.9203   34.7851   15.7174 O   0  0  0  0  0  0  0  0  0  0  0  0
   26.9161   36.0597   16.0865 C   0  0  1  0  0  0  0  0  0  0  0  0
   26.3264   37.2829   15.6932 O   0  0  0  0  0  0  0  0  0  0  0  0
   28.0158   36.3427   17.0962 C   0  0  1  0  0  0  0  0  0  0  0  0
   29.1663   36.7402   16.3994 O   0  0  0  0  0  0  0  0  0  0  0  0
   27.6369   37.4343   18.0829 C   0  0  1  0  0  0  0  0  0  0  0  0
   26.5556   36.9779   18.8499 O   0  0  0  0  0  0  0  0  0  0  0  0
   28.8008   37.7614   19.0037 C   0  0  0  0  0  0  0  0  0  0  0  0
   28.9212   40.5125   18.4237 N   0  0  0  0  0  0  0  0  0  0  0  0
   29.0538   41.8482   18.1116 C   0  0  0  0  0  0  0  0  0  0  0  0
   29.4141   42.1852   16.9876 O   0  0  0  0  0  0  0  0  0  0  0  0
   28.7868   42.8147   19.0542 N   0  0  0  0  0  0  0  0  0  0  0  0
   28.3714   42.4538   20.3211 C   0  0  0  0  0  0  0  0  0  0  0  0
   28.2355   41.1085   20.6454 C   0  0  1  0  0  0  0  0  0  0  0  0
   28.1154   43.3238   21.1561 O   0  0  0  0  0  0  0  0  0  0  0  0
   27.6865   39.4031   22.2297 C   0  0  2  0  0  0  0  0  0  0  0  0
   27.8226   40.7407   21.9103 N   0  0  0  0  0  0  0  0  0  0  0  0
   27.2692   39.0327   23.5085 C   0  0  0  0  0  0  0  0  0  0  0  0
   27.1340   37.6901   23.8418 C   0  0  1  0  0  0  0  0  0  0  0  0
   26.6878   37.3303   25.2237 C   0  0  0  0  0  0  0  0  0  0  0  0
   27.4141   36.7029   22.8850 C   0  0  1  0  0  0  0  0  0  0  0  0
   27.2716   35.2396   23.2023 C   0  0  0  0  0  0  0  0  0  0  0  0
   27.8319   37.0757   21.6101 C   0  0  0  0  0  0  0  0  0  0  0  0
   27.9721   38.4237   21.2755 C   0  0  1  0  0  0  0  0  0  0  0  0
   28.5171   40.1356   19.6885 C   0  0  1  0  0  0  0  0  0  0  0  0
   28.3903   38.7970   20.0070 N   0  0  0  0  0  0  0  0  0  0  0  0
  1  2  1  6  0  0  0
  1  3  1  0  0  0  0
  1  4  2  0  0  0  0
  1  6  1  0  0  0  0
  5  6  1  0  0  0  0
  7  5  1  1  0  0  0
  7  8  1  0  0  0  0
  7  9  1  0  0  0  0
  9 10  1  6  0  0  0
  9 11  1  0  0  0  0
 11 12  1  1  0  0  0
 11 13  1  0  0  0  0
 13 31  1  0  0  0  0
 14 15  1  0  0  0  0
 15 16  2  0  0  0  0
 15 17  1  0  0  0  0
 17 18  1  0  0  0  0
 18 20  2  0  0  0  0
 19 18  1  6  0  0  0
 19 22  1  0  0  0  0
 19 30  1  0  0  0  0
 21 23  1  1  0  0  0
 21 29  1  0  0  0  0
 21 22  1  0  0  0  0
 23 24  1  0  0  0  0
 24 25  1  6  0  0  0
 24 26  1  0  0  0  0
 26 27  1  6  0  0  0
 26 28  1  0  0  0  0
 29 28  1  6  0  0  0
 29 31  1  0  0  0  0
 30 14  1  6  0  0  0
 30 31  1  0  0  0  0
M  CHG  1   3  -1
M  END
>  <CHROM.1>
70.45067357,-178.68719563,66.29871202,158.89947647,64.59532856,-177.57159333
96.39671698,27.31451486,37.71849669,18.70932692,2.37962542,-1.20833500,-1.54006269

>  <Name>
ligand

>  <RI>
0

>  <Rbt.Current_Directory>
/home/itssahil/PROJECTS/Mol_Feturizer/New_Systems/rnas/3F2T

>  <Rbt.Executable>
rbdock ($Id: //depot/dev/client3/rdock/2013.1/src/exe/rbdock.cxx#4 $)

>  <Rbt.Library>
libRbt.so (2013.1, Build901 2013/11/27)

>  <Rbt.Parameter_File>
/export/apps/rDock/src/rDock_2013.1_src/data/scripts/dock_solv.prm

>  <Rbt.Receptor>
prm/pocket_docking_8.prm

>  <SCORE>
-20.5426

>  <SCORE.INTER>
-21.6631

>  <SCORE.INTER.CONST>
1

>  <SCORE.INTER.POLAR>
0

>  <SCORE.INTER.ROT>
7

>  <SCORE.INTER.SOLV>
12.4074

>  <SCORE.INTER.VDW>
-26.8445

>  <SCORE.INTER.norm>
-0.69881

>  <SCORE.INTRA>
1.12047

>  <SCORE.INTRA.DIHEDRAL>
-1.04985

>  <SCORE.INTRA.DIHEDRAL.0>
4.64198

>  <SCORE.INTRA.POLAR>
0

>  <SCORE.INTRA.POLAR.0>
0

>  <SCORE.INTRA.REPUL>
0

>  <SCORE.INTRA.REPUL.0>
0

>  <SCORE.INTRA.SOLV>
2.55758

>  <SCORE.INTRA.SOLV.lig_0>
-49.3611

>  <SCORE.INTRA.VDW>
0.366608

>  <SCORE.INTRA.VDW.0>
-1.91858

>  <SCORE.INTRA.norm>
0.0361442

>  <SCORE.RESTR>
0

>  <SCORE.RESTR.CAVITY>
0

>  <SCORE.RESTR.norm>
0

>  <SCORE.SYSTEM>
0

>  <SCORE.SYSTEM.CONST>
0

>  <SCORE.SYSTEM.DIHEDRAL>
0

>  <SCORE.SYSTEM.SOLV>
0

>  <SCORE.SYSTEM.norm>
0

>  <SCORE.heavy>
31

>  <SCORE.norm>
-0.662666

>  <RMSD>
6.451

$$$$
ligand
 OpenBabel11021811473D
libRbt.so/2013.1/901 2013/11/27
 31 33  0  0  0  0  0  0  0  0999 V2000
   25.8871   33.6790   15.4395 P   0  0  1  0  0  0  0  0  0  0  0  0
   26.6710   32.4656   15.0078 O   0  0  0  0  0  0  0  0  0  0  0  0
   26.3657   34.8684   14.6500 O   0  5  0  0  0  0  0  0  0  0  0  0
   24.4388   33.3691   15.1781 O   0  0  0  0  0  0  0  0  0  0  0  0
   25.1524   34.8759   17.6527 C   0  0  0  0  0  0  0  0  0  0  0  0
   26.0635   34.0169   16.9993 O   0  0  0  0  0  0  0  0  0  0  0  0
   25.2919   36.2845   17.0813 C   0  0  1  0  0  0  0  0  0  0  0  0
   24.2804   37.1174   17.6123 O   0  0  0  0  0  0  0  0  0  0  0  0
   26.6496   36.8612   17.4458 C   0  0  1  0  0  0  0  0  0  0  0  0
   26.9412   37.9059   16.5565 O   0  0  0  0  0  0  0  0  0  0  0  0
   26.6945   37.3980   18.8666 C   0  0  1  0  0  0  0  0  0  0  0  0
   26.2672   36.3827   19.7341 O   0  0  0  0  0  0  0  0  0  0  0  0
   28.1056   37.8175   19.2438 C   0  0  0  0  0  0  0  0  0  0  0  0
   28.4522   40.5161   18.5246 N   0  0  0  0  0  0  0  0  0  0  0  0
   28.6854   41.8156   18.1298 C   0  0  0  0  0  0  0  0  0  0  0  0
   28.8315   42.0810   16.9403 O   0  0  0  0  0  0  0  0  0  0  0  0
   28.7590   42.8254   19.0619 N   0  0  0  0  0  0  0  0  0  0  0  0
   28.5878   42.5462   20.4038 C   0  0  0  0  0  0  0  0  0  0  0  0
   28.3528   41.2379   20.8117 C   0  0  1  0  0  0  0  0  0  0  0  0
   28.6359   43.4571   21.2330 O   0  0  0  0  0  0  0  0  0  0  0  0
   27.9474   39.6507   22.5541 C   0  0  2  0  0  0  0  0  0  0  0  0
   28.1826   40.9515   22.1514 N   0  0  0  0  0  0  0  0  0  0  0  0
   27.7757   39.3626   23.9085 C   0  0  0  0  0  0  0  0  0  0  0  0
   27.5437   38.0570   24.3250 C   0  0  1  0  0  0  0  0  0  0  0  0
   27.3680   37.7850   25.7855 C   0  0  0  0  0  0  0  0  0  0  0  0
   27.4769   37.0246   23.3771 C   0  0  1  0  0  0  0  0  0  0  0  0
   27.2187   35.6001   23.7851 C   0  0  0  0  0  0  0  0  0  0  0  0
   27.6503   37.3151   22.0264 C   0  0  0  0  0  0  0  0  0  0  0  0
   27.8875   38.6254   21.6073 C   0  0  1  0  0  0  0  0  0  0  0  0
   28.2893   40.2195   19.8628 C   0  0  1  0  0  0  0  0  0  0  0  0
   28.0628   38.9164   20.2628 N   0  0  0  0  0  0  0  0  0  0  0  0
  1  2  1  6  0  0  0
  1  3  1  0  0  0  0
  1  4  2  0  0  0  0
  1  6  1  0  0  0  0
  5  6  1  0  0  0  0
  7  5  1  1  0  0  0
  7  8  1  0  0  0  0
  7  9  1  0  0  0  0
  9 10  1  6  0  0  0
  9 11  1  0  0  0  0
 11 12  1  1  0  0  0
 11 13  1  0  0  0  0
 13 31  1  0  0  0  0
 14 15  1  0  0  0  0
 15 16  2  0  0  0  0
 15 17  1  0  0  0  0
 17 18  1  0  0  0  0
 18 20  2  0  0  0  0
 19 18  1  6  0  0  0
 19 22  1  0  0  0  0
 19 30  1  0  0  0  0
 21 23  1  1  0  0  0
 21 29  1  0  0  0  0
 21 22  1  0  0  0  0
 23 24  1  0  0  0  0
 24 25  1  6  0  0  0
 24 26  1  0  0  0  0
 26 27  1  6  0  0  0
 26 28  1  0  0  0  0
 29 28  1  6  0  0  0
 29 31  1  0  0  0  0
 30 14  1  6  0  0  0
 30 31  1  0  0  0  0
M  CHG  1   3  -1
M  END
>  <CHROM.1>
-66.38831450,-163.11025921,173.11802484,159.58712068,53.65501058,151.49705936
82.19143966,27.13382124,37.81603733,19.24146453,2.60885823,-1.24500639,-1.37220938

>  <Name>
ligand

>  <RI>
0

>  <Rbt.Current_Directory>
/home/itssahil/PROJECTS/Mol_Feturizer/New_Systems/rnas/3F2T

>  <Rbt.Executable>
rbdock ($Id: //depot/dev/client3/rdock/2013.1/src/exe/rbdock.cxx#4 $)

>  <Rbt.Library>
libRbt.so (2013.1, Build901 2013/11/27)

>  <Rbt.Parameter_File>
/export/apps/rDock/src/rDock_2013.1_src/data/scripts/dock_solv.prm

>  <Rbt.Receptor>
prm/pocket_docking_6.prm

>  <SCORE>
-17.0954

>  <SCORE.INTER>
-19.6955

>  <SCORE.INTER.CONST>
1

>  <SCORE.INTER.POLAR>
0

>  <SCORE.INTER.ROT>
7

>  <SCORE.INTER.SOLV>
12.3324

>  <SCORE.INTER.VDW>
-25.5078

>  <SCORE.INTER.norm>
-0.635339

>  <SCORE.INTRA>
2.60007

>  <SCORE.INTRA.DIHEDRAL>
1.43082

>  <SCORE.INTRA.DIHEDRAL.0>
4.64198

>  <SCORE.INTRA.POLAR>
0

>  <SCORE.INTRA.POLAR.0>
0

>  <SCORE.INTRA.REPUL>
0

>  <SCORE.INTRA.REPUL.0>
0

>  <SCORE.INTRA.SOLV>
3.04791

>  <SCORE.INTRA.SOLV.lig_0>
-49.3611

>  <SCORE.INTRA.VDW>
0.360699

>  <SCORE.INTRA.VDW.0>
-1.91858

>  <SCORE.INTRA.norm>
0.0838731

>  <SCORE.RESTR>
0

>  <SCORE.RESTR.CAVITY>
0

>  <SCORE.RESTR.norm>
0

>  <SCORE.SYSTEM>
0

>  <SCORE.SYSTEM.CONST>
0

>  <SCORE.SYSTEM.DIHEDRAL>
0

>  <SCORE.SYSTEM.SOLV>
0

>  <SCORE.SYSTEM.norm>
0

>  <SCORE.heavy>
31

>  <SCORE.norm>
-0.551466

>  <RMSD>
6.463

$$$$
ligand
 OpenBabel11021811473D
libRbt.so/2013.1/901 2013/11/27
 31 33  0  0  0  0  0  0  0  0999 V2000
   28.5575   34.8615   13.4943 P   0  0  1  0  0  0  0  0  0  0  0  0
   29.6044   35.3044   12.5038 O   0  0  0  0  0  0  0  0  0  0  0  0
   27.2366   34.7463   12.7809 O   0  5  0  0  0  0  0  0  0  0  0  0
   29.0215   33.5420   14.0473 O   0  0  0  0  0  0  0  0  0  0  0  0
   27.2851   35.7565   15.6039 C   0  0  0  0  0  0  0  0  0  0  0  0
   28.3735   35.8898   14.7137 O   0  0  0  0  0  0  0  0  0  0  0  0
   27.3178   36.9019   16.6125 C   0  0  1  0  0  0  0  0  0  0  0  0
   26.0059   37.1833   17.0579 O   0  0  0  0  0  0  0  0  0  0  0  0
   28.1742   36.5180   17.8074 C   0  0  1  0  0  0  0  0  0  0  0  0
   29.3446   35.9053   17.3360 O   0  0  0  0  0  0  0  0  0  0  0  0
   28.5560   37.7150   18.6619 C   0  0  1  0  0  0  0  0  0  0  0  0
   29.3889   38.5494   17.9030 O   0  0  0  0  0  0  0  0  0  0  0  0
   27.3221   38.4932   19.0879 C   0  0  0  0  0  0  0  0  0  0  0  0
   27.9748   41.2138   18.7835 N   0  0  0  0  0  0  0  0  0  0  0  0
   28.3449   42.5249   18.5766 C   0  0  0  0  0  0  0  0  0  0  0  0
   28.3197   43.0008   17.4454 O   0  0  0  0  0  0  0  0  0  0  0  0
   28.7475   43.3110   19.6320 N   0  0  0  0  0  0  0  0  0  0  0  0
   28.7732   42.7947   20.9129 C   0  0  0  0  0  0  0  0  0  0  0  0
   28.4022   41.4726   21.1312 C   0  0  1  0  0  0  0  0  0  0  0  0
   29.1166   43.5085   21.8574 O   0  0  0  0  0  0  0  0  0  0  0  0
   28.0565   39.6358   22.6233 C   0  0  2  0  0  0  0  0  0  0  0  0
   28.4273   40.9495   22.4086 N   0  0  0  0  0  0  0  0  0  0  0  0
   28.0824   39.1084   23.9148 C   0  0  0  0  0  0  0  0  0  0  0  0
   27.7163   37.7868   24.1413 C   0  0  1  0  0  0  0  0  0  0  0  0
   27.7598   37.2544   25.5387 C   0  0  0  0  0  0  0  0  0  0  0  0
   27.3138   36.9810   23.0654 C   0  0  1  0  0  0  0  0  0  0  0  0
   26.9013   35.5490   23.2688 C   0  0  0  0  0  0  0  0  0  0  0  0
   27.2906   37.5098   21.7776 C   0  0  0  0  0  0  0  0  0  0  0  0
   27.6621   38.8358   21.5483 C   0  0  1  0  0  0  0  0  0  0  0  0
   28.0051   40.6801   20.0561 C   0  0  1  0  0  0  0  0  0  0  0  0
   27.6418   39.3636   20.2660 N   0  0  0  0  0  0  0  0  0  0  0  0
  1  2  1  6  0  0  0
  1  3  1  0  0  0  0
  1  4  2  0  0  0  0
  1  6  1  0  0  0  0
  5  6  1  0  0  0  0
  7  5  1  6  0  0  0
  7  8  1  0  0  0  0
  7  9  1  0  0  0  0
  9 10  1  6  0  0  0
  9 11  1  0  0  0  0
 11 12  1  6  0  0  0
 11 13  1  0  0  0  0
 13 31  1  0  0  0  0
 14 15  1  0  0  0  0
 15 16  2  0  0  0  0
 15 17  1  0  0  0  0
 17 18  1  0  0  0  0
 18 20  2  0  0  0  0
 19 18  1  1  0  0  0
 19 22  1  0  0  0  0
 19 30  1  0  0  0  0
 21 23  1  6  0  0  0
 21 29  1  0  0  0  0
 21 22  1  0  0  0  0
 23 24  1  0  0  0  0
 24 25  1  1  0  0  0
 24 26  1  0  0  0  0
 26 27  1  1  0  0  0
 26 28  1  0  0  0  0
 29 28  1  1  0  0  0
 29 31  1  0  0  0  0
 30 14  1  1  0  0  0
 30 31  1  0  0  0  0
M  CHG  1   3  -1
M  END
>  <CHROM.1>
-177.07916254,168.95971984,151.85994620,44.09594941,-65.61165225,161.14345205
-81.25592021,28.12415329,38.24743600,18.76230171,-1.40427988,1.41655657,0.84118853

>  <Name>
ligand

>  <RI>
0

>  <Rbt.Current_Directory>
/home/itssahil/PROJECTS/Mol_Feturizer/New_Systems/rnas/3F2T

>  <Rbt.Executable>
rbdock ($Id: //depot/dev/client3/rdock/2013.1/src/exe/rbdock.cxx#4 $)

>  <Rbt.Library>
libRbt.so (2013.1, Build901 2013/11/27)

>  <Rbt.Parameter_File>
/export/apps/rDock/src/rDock_2013.1_src/data/scripts/dock_solv.prm

>  <Rbt.Receptor>
prm/pocket_docking_8.prm

>  <SCORE>
-16.7726

>  <SCORE.INTER>
-19.2671

>  <SCORE.INTER.CONST>
1

>  <SCORE.INTER.POLAR>
0

>  <SCORE.INTER.ROT>
7

>  <SCORE.INTER.SOLV>
10.9368

>  <SCORE.INTER.VDW>
-24.757

>  <SCORE.INTER.norm>
-0.621519

>  <SCORE.INTRA>
2.49452

>  <SCORE.INTRA.DIHEDRAL>
1.26384

>  <SCORE.INTRA.DIHEDRAL.0>
4.64198

>  <SCORE.INTRA.POLAR>
0

>  <SCORE.INTRA.POLAR.0>
0

>  <SCORE.INTRA.REPUL>
0

>  <SCORE.INTRA.REPUL.0>
0

>  <SCORE.INTRA.SOLV>
0.435157

>  <SCORE.INTRA.SOLV.lig_0>
-49.3611

>  <SCORE.INTRA.VDW>
1.64502

>  <SCORE.INTRA.VDW.0>
-1.91858

>  <SCORE.INTRA.norm>
0.0804682

>  <SCORE.RESTR>
0

>  <SCORE.RESTR.CAVITY>
0

>  <SCORE.RESTR.norm>
0

>  <SCORE.SYSTEM>
0

>  <SCORE.SYSTEM.CONST>
0

>  <SCORE.SYSTEM.DIHEDRAL>
0

>  <SCORE.SYSTEM.SOLV>
0

>  <SCORE.SYSTEM.norm>
0

>  <SCORE.heavy>
31

>  <SCORE.norm>
-0.54105

>  <RMSD>
6.482

$$$$
ligand
 OpenBabel11021811473D
libRbt.so/2013.1/901 2013/11/27
 31 33  0  0  0  0  0  0  0  0999 V2000
   24.8186   33.7529   15.0993 P   0  0  1  0  0  0  0  0  0  0  0  0
   23.5805   33.5078   14.2746 O   0  0  0  0  0  0  0  0  0  0  0  0
   25.1481   32.4960   15.8599 O   0  5  0  0  0  0  0  0  0  0  0  0
   25.9075   34.1353   14.1348 O   0  0  0  0  0  0  0  0  0  0  0  0
   25.7281   35.3653   16.9550 C   0  0  0  0  0  0  0  0  0  0  0  0
   24.6379   34.9421   16.1630 O   0  0  0  0  0  0  0  0  0  0  0  0
   25.2562   36.4482   17.9219 C   0  0  1  0  0  0  0  0  0  0  0  0
   24.1871   35.9558   18.7052 O   0  0  0  0  0  0  0  0  0  0  0  0
   26.3953   36.8570   18.8406 C   0  0  1  0  0  0  0  0  0  0  0  0
   26.8994   35.7051   19.4621 O   0  0  0  0  0  0  0  0  0  0  0  0
   27.5256   37.5496   18.0981 C   0  0  1  0  0  0  0  0  0  0  0  0
   27.0400   38.7634   17.5912 O   0  0  0  0  0  0  0  0  0  0  0  0
   28.6953   37.8278   19.0275 C   0  0  0  0  0  0  0  0  0  0  0  0
   28.8283   40.5874   18.4924 N   0  0  0  0  0  0  0  0  0  0  0  0
   28.9665   41.9272   18.2011 C   0  0  0  0  0  0  0  0  0  0  0  0
   29.3129   42.2806   17.0777 O   0  0  0  0  0  0  0  0  0  0  0  0
   28.7208   42.8795   19.1637 N   0  0  0  0  0  0  0  0  0  0  0  0
   28.3214   42.5001   20.4304 C   0  0  0  0  0  0  0  0  0  0  0  0
   28.1800   41.1506   20.7339 C   0  0  1  0  0  0  0  0  0  0  0  0
   28.0844   43.3577   21.2836 O   0  0  0  0  0  0  0  0  0  0  0  0
   27.6413   39.4226   22.2970 C   0  0  2  0  0  0  0  0  0  0  0  0
   27.7829   40.7643   21.9983 N   0  0  0  0  0  0  0  0  0  0  0  0
   27.2400   39.0335   23.5755 C   0  0  0  0  0  0  0  0  0  0  0  0
   27.0994   37.6865   23.8880 C   0  0  1  0  0  0  0  0  0  0  0  0
   26.6709   37.3065   25.2700 C   0  0  0  0  0  0  0  0  0  0  0  0
   27.3578   36.7137   22.9105 C   0  0  1  0  0  0  0  0  0  0  0  0
   27.2088   35.2463   23.2051 C   0  0  0  0  0  0  0  0  0  0  0  0
   27.7597   37.1050   21.6361 C   0  0  0  0  0  0  0  0  0  0  0  0
   27.9052   38.4575   21.3222 C   0  0  1  0  0  0  0  0  0  0  0  0
   28.4400   40.1920   19.7566 C   0  0  1  0  0  0  0  0  0  0  0  0
   28.3076   38.8491   20.0542 N   0  0  0  0  0  0  0  0  0  0  0  0
  1  2  1  6  0  0  0
  1  3  1  0  0  0  0
  1  4  2  0  0  0  0
  1  6  1  0  0  0  0
  5  6  1  0  0  0  0
  7  5  1  6  0  0  0
  7  8  1  0  0  0  0
  7  9  1  0  0  0  0
  9 10  1  6  0  0  0
  9 11  1  0  0  0  0
 11 12  1  1  0  0  0
 11 13  1  0  0  0  0
 13 31  1  0  0  0  0
 14 15  1  0  0  0  0
 15 16  2  0  0  0  0
 15 17  1  0  0  0  0
 17 18  1  0  0  0  0
 18 20  2  0  0  0  0
 19 18  1  6  0  0  0
 19 22  1  0  0  0  0
 19 30  1  0  0  0  0
 21 23  1  1  0  0  0
 21 29  1  0  0  0  0
 21 22  1  0  0  0  0
 23 24  1  0  0  0  0
 24 25  1  6  0  0  0
 24 26  1  0  0  0  0
 26 27  1  6  0  0  0
 26 28  1  0  0  0  0
 29 28  1  6  0  0  0
 29 31  1  0  0  0  0
 30 14  1  6  0  0  0
 30 31  1  0  0  0  0
M  CHG  1   3  -1
M  END
>  <CHROM.1>
-176.97371350,-175.68774945,56.66557972,-54.20959566,65.31646644,-67.22227296
97.74550557,26.92777368,37.75065346,19.14854236,-2.65916786,1.16395803,1.75575406

>  <Name>
ligand

>  <RI>
0

>  <Rbt.Current_Directory>
/home/itssahil/PROJECTS/Mol_Feturizer/New_Systems/rnas/3F2T

>  <Rbt.Executable>
rbdock ($Id: //depot/dev/client3/rdock/2013.1/src/exe/rbdock.cxx#4 $)

>  <Rbt.Library>
libRbt.so (2013.1, Build901 2013/11/27)

>  <Rbt.Parameter_File>
/export/apps/rDock/src/rDock_2013.1_src/data/scripts/dock_solv.prm

>  <Rbt.Receptor>
prm/blind_docking_100.prm

>  <SCORE>
-23.7037

>  <SCORE.INTER>
-22.8218

>  <SCORE.INTER.CONST>
1

>  <SCORE.INTER.POLAR>
0

>  <SCORE.INTER.ROT>
7

>  <SCORE.INTER.SOLV>
13.258

>  <SCORE.INTER.VDW>
-27.9006

>  <SCORE.INTER.norm>
-0.736189

>  <SCORE.INTRA>
-0.881889

>  <SCORE.INTRA.DIHEDRAL>
-2.79256

>  <SCORE.INTRA.DIHEDRAL.0>
4.64198

>  <SCORE.INTRA.POLAR>
0

>  <SCORE.INTRA.POLAR.0>
0

>  <SCORE.INTRA.REPUL>
0

>  <SCORE.INTRA.REPUL.0>
0

>  <SCORE.INTRA.SOLV>
0.230545

>  <SCORE.INTRA.SOLV.lig_0>
-49.3611

>  <SCORE.INTRA.VDW>
0.399119

>  <SCORE.INTRA.VDW.0>
-1.91858

>  <SCORE.INTRA.norm>
-0.028448

>  <SCORE.RESTR>
0

>  <SCORE.RESTR.CAVITY>
0

>  <SCORE.RESTR.norm>
0

>  <SCORE.SYSTEM>
0

>  <SCORE.SYSTEM.CONST>
0

>  <SCORE.SYSTEM.DIHEDRAL>
0

>  <SCORE.SYSTEM.SOLV>
0

>  <SCORE.SYSTEM.norm>
0

>  <SCORE.heavy>
31

>  <SCORE.norm>
-0.764637

>  <RMSD>
6.494

$$$$
ligand
 OpenBabel11021811473D
libRbt.so/2013.1/901 2013/11/27
 31 33  0  0  0  0  0  0  0  0999 V2000
   25.4264   34.2667   17.5834 P   0  0  1  0  0  0  0  0  0  0  0  0
   26.1843   33.3959   18.5531 O   0  0  0  0  0  0  0  0  0  0  0  0
   24.2085   33.5172   17.1123 O   0  5  0  0  0  0  0  0  0  0  0  0
   25.0675   35.5241   18.3265 O   0  0  0  0  0  0  0  0  0  0  0  0
   27.7005   34.7379   16.3681 C   0  0  0  0  0  0  0  0  0  0  0  0
   26.2920   34.6666   16.2914 O   0  0  0  0  0  0  0  0  0  0  0  0
   28.1001   36.0255   17.0840 C   0  0  1  0  0  0  0  0  0  0  0  0
   27.2407   37.0769   16.6906 O   0  0  0  0  0  0  0  0  0  0  0  0
   27.9956   35.8378   18.5882 C   0  0  1  0  0  0  0  0  0  0  0  0
   28.7866   34.7389   18.9542 O   0  0  0  0  0  0  0  0  0  0  0  0
   28.4613   37.0587   19.3636 C   0  0  1  0  0  0  0  0  0  0  0  0
   29.6861   37.4799   18.8266 O   0  0  0  0  0  0  0  0  0  0  0  0
   27.4516   38.1891   19.2537 C   0  0  0  0  0  0  0  0  0  0  0  0
   28.0394   40.8797   18.6749 N   0  0  0  0  0  0  0  0  0  0  0  0
   28.3813   42.1716   18.3389 C   0  0  0  0  0  0  0  0  0  0  0  0
   28.4013   42.5169   17.1611 O   0  0  0  0  0  0  0  0  0  0  0  0
   28.7050   43.0844   19.3167 N   0  0  0  0  0  0  0  0  0  0  0  0
   28.6788   42.7156   20.6476 C   0  0  0  0  0  0  0  0  0  0  0  0
   28.3358   41.4140   20.9961 C   0  0  1  0  0  0  0  0  0  0  0  0
   28.9513   43.5421   21.5207 O   0  0  0  0  0  0  0  0  0  0  0  0
   27.9664   39.7446   22.6683 C   0  0  2  0  0  0  0  0  0  0  0  0
   28.3094   41.0382   22.3242 N   0  0  0  0  0  0  0  0  0  0  0  0
   27.9402   39.3660   24.0110 C   0  0  0  0  0  0  0  0  0  0  0  0
   27.6016   38.0660   24.3677 C   0  0  1  0  0  0  0  0  0  0  0  0
   27.5875   37.6950   25.8169 C   0  0  0  0  0  0  0  0  0  0  0  0
   27.2796   37.1315   23.3719 C   0  0  1  0  0  0  0  0  0  0  0  0
   26.8990   35.7176   23.7160 C   0  0  0  0  0  0  0  0  0  0  0  0
   27.3082   37.5119   22.0327 C   0  0  0  0  0  0  0  0  0  0  0  0
   27.6523   38.8162   21.6730 C   0  0  1  0  0  0  0  0  0  0  0  0
   28.0187   40.4930   19.9998 C   0  0  1  0  0  0  0  0  0  0  0  0
   27.6836   39.1963   20.3397 N   0  0  0  0  0  0  0  0  0  0  0  0
  1  2  1  1  0  0  0
  1  3  1  0  0  0  0
  1  4  2  0  0  0  0
  1  6  1  0  0  0  0
  5  6  1  0  0  0  0
  7  5  1  6  0  0  0
  7  8  1  0  0  0  0
  7  9  1  0  0  0  0
  9 10  1  1  0  0  0
  9 11  1  0  0  0  0
 11 12  1  6  0  0  0
 11 13  1  0  0  0  0
 13 31  1  0  0  0  0
 14 15  1  0  0  0  0
 15 16  2  0  0  0  0
 15 17  1  0  0  0  0
 17 18  1  0  0  0  0
 18 20  2  0  0  0  0
 19 18  1  1  0  0  0
 19 22  1  0  0  0  0
 19 30  1  0  0  0  0
 21 23  1  6  0  0  0
 21 29  1  0  0  0  0
 21 22  1  0  0  0  0
 23 24  1  0  0  0  0
 24 25  1  1  0  0  0
 24 26  1  0  0  0  0
 26 27  1  1  0  0  0
 26 28  1  0  0  0  0
 29 28  1  1  0  0  0
 29 31  1  0  0  0  0
 30 14  1  1  0  0  0
 30 31  1  0  0  0  0
M  CHG  1   3  -1
M  END
>  <CHROM.1>
-76.29390603,-27.40557165,-38.57624679,55.95120675,-47.05844797,161.98254332
-57.54583929,27.50536550,37.91926773,19.78604232,-2.71170622,1.28050583,1.63724713

>  <Name>
ligand

>  <RI>
0

>  <Rbt.Current_Directory>
/home/itssahil/PROJECTS/Mol_Feturizer/New_Systems/rnas/3F2T

>  <Rbt.Executable>
rbdock ($Id: //depot/dev/client3/rdock/2013.1/src/exe/rbdock.cxx#4 $)

>  <Rbt.Library>
libRbt.so (2013.1, Build901 2013/11/27)

>  <Rbt.Parameter_File>
/export/apps/rDock/src/rDock_2013.1_src/data/scripts/dock_solv.prm

>  <Rbt.Receptor>
prm/blind_docking_100.prm

>  <SCORE>
-16.3084

>  <SCORE.INTER>
-20.0047

>  <SCORE.INTER.CONST>
1

>  <SCORE.INTER.POLAR>
0

>  <SCORE.INTER.ROT>
7

>  <SCORE.INTER.SOLV>
10.3352

>  <SCORE.INTER.VDW>
-25.0482

>  <SCORE.INTER.norm>
-0.645314

>  <SCORE.INTRA>
3.69634

>  <SCORE.INTRA.DIHEDRAL>
2.34602

>  <SCORE.INTRA.DIHEDRAL.0>
4.64198

>  <SCORE.INTRA.POLAR>
0

>  <SCORE.INTRA.POLAR.0>
0

>  <SCORE.INTRA.REPUL>
0

>  <SCORE.INTRA.REPUL.0>
0

>  <SCORE.INTRA.SOLV>
4.37762

>  <SCORE.INTRA.SOLV.lig_0>
-49.3611

>  <SCORE.INTRA.VDW>
0.334522

>  <SCORE.INTRA.VDW.0>
-1.91858

>  <SCORE.INTRA.norm>
0.119237

>  <SCORE.RESTR>
0

>  <SCORE.RESTR.CAVITY>
0

>  <SCORE.RESTR.norm>
0

>  <SCORE.SYSTEM>
0

>  <SCORE.SYSTEM.CONST>
0

>  <SCORE.SYSTEM.DIHEDRAL>
0

>  <SCORE.SYSTEM.SOLV>
0

>  <SCORE.SYSTEM.norm>
0

>  <SCORE.heavy>
31

>  <SCORE.norm>
-0.526078

>  <RMSD>
6.497

$$$$
ligand
 OpenBabel11021811473D
libRbt.so/2013.1/901 2013/11/27
 31 33  0  0  0  0  0  0  0  0999 V2000
   23.5915   33.8877   16.5334 P   0  0  1  0  0  0  0  0  0  0  0  0
   24.0398   32.5525   17.0714 O   0  0  0  0  0  0  0  0  0  0  0  0
   22.7023   33.6534   15.3412 O   0  5  0  0  0  0  0  0  0  0  0  0
   22.8672   34.5805   17.6549 O   0  0  0  0  0  0  0  0  0  0  0  0
   25.8091   35.2096   16.9863 C   0  0  0  0  0  0  0  0  0  0  0  0
   24.8140   34.8169   16.0641 O   0  0  0  0  0  0  0  0  0  0  0  0
   26.8705   36.0320   16.2601 C   0  0  1  0  0  0  0  0  0  0  0  0
   26.2945   37.2247   15.7655 O   0  0  0  0  0  0  0  0  0  0  0  0
   27.9975   36.3861   17.2158 C   0  0  1  0  0  0  0  0  0  0  0  0
   29.0980   36.8204   16.4625 O   0  0  0  0  0  0  0  0  0  0  0  0
   27.6104   37.4803   18.1965 C   0  0  1  0  0  0  0  0  0  0  0  0
   26.5712   36.9986   19.0052 O   0  0  0  0  0  0  0  0  0  0  0  0
   28.7901   37.8647   19.0740 C   0  0  0  0  0  0  0  0  0  0  0  0
   28.8693   40.6268   18.5407 N   0  0  0  0  0  0  0  0  0  0  0  0
   28.9818   41.9693   18.2512 C   0  0  0  0  0  0  0  0  0  0  0  0
   29.3356   42.3307   17.1327 O   0  0  0  0  0  0  0  0  0  0  0  0
   28.7020   42.9157   19.2104 N   0  0  0  0  0  0  0  0  0  0  0  0
   28.2937   42.5272   20.4715 C   0  0  0  0  0  0  0  0  0  0  0  0
   28.1781   41.1748   20.7730 C   0  0  1  0  0  0  0  0  0  0  0  0
   28.0261   43.3791   21.3214 O   0  0  0  0  0  0  0  0  0  0  0  0
   27.6564   39.4349   22.3287 C   0  0  2  0  0  0  0  0  0  0  0  0
   27.7724   40.7795   22.0320 N   0  0  0  0  0  0  0  0  0  0  0  0
   27.2464   39.0367   23.6015 C   0  0  0  0  0  0  0  0  0  0  0  0
   27.1314   37.6868   23.9121 C   0  0  1  0  0  0  0  0  0  0  0  0
   26.6924   37.2971   25.2881 C   0  0  0  0  0  0  0  0  0  0  0  0
   27.4245   36.7202   22.9383 C   0  0  1  0  0  0  0  0  0  0  0  0
   27.3041   35.2498   23.2309 C   0  0  0  0  0  0  0  0  0  0  0  0
   27.8351   37.1207   21.6695 C   0  0  0  0  0  0  0  0  0  0  0  0
   27.9550   38.4762   21.3577 C   0  0  1  0  0  0  0  0  0  0  0  0
   28.4726   40.2225   19.7994 C   0  0  1  0  0  0  0  0  0  0  0  0
   28.3659   38.8770   20.0953 N   0  0  0  0  0  0  0  0  0  0  0  0
  1  2  1  1  0  0  0
  1  3  1  0  0  0  0
  1  4  2  0  0  0  0
  1  6  1  0  0  0  0
  5  6  1  0  0  0  0
  7  5  1  1  0  0  0
  7  8  1  0  0  0  0
  7  9  1  0  0  0  0
  9 10  1  6  0  0  0
  9 11  1  0  0  0  0
 11 12  1  1  0  0  0
 11 13  1  0  0  0  0
 13 31  1  0  0  0  0
 14 15  1  0  0  0  0
 15 16  2  0  0  0  0
 15 17  1  0  0  0  0
 17 18  1  0  0  0  0
 18 20  2  0  0  0  0
 19 18  1  6  0  0  0
 19 22  1  0  0  0  0
 19 30  1  0  0  0  0
 21 23  1  1  0  0  0
 21 29  1  0  0  0  0
 21 22  1  0  0  0  0
 23 24  1  0  0  0  0
 24 25  1  6  0  0  0
 24 26  1  0  0  0  0
 26 27  1  6  0  0  0
 26 28  1  0  0  0  0
 29 28  1  6  0  0  0
 29 31  1  0  0  0  0
 30 14  1  6  0  0  0
 30 31  1  0  0  0  0
M  CHG  1   3  -1
M  END
>  <CHROM.1>
177.62844794,-60.24770648,63.83074040,164.66125548,63.74016215,-176.17411030
93.34864272,26.92010195,37.78013123,19.21888233,2.70318377,-1.05956739,-1.46456312

>  <Name>
ligand

>  <RI>
0

>  <Rbt.Current_Directory>
/home/itssahil/PROJECTS/Mol_Feturizer/New_Systems/rnas/3F2T

>  <Rbt.Executable>
rbdock ($Id: //depot/dev/client3/rdock/2013.1/src/exe/rbdock.cxx#4 $)

>  <Rbt.Library>
libRbt.so (2013.1, Build901 2013/11/27)

>  <Rbt.Parameter_File>
/export/apps/rDock/src/rDock_2013.1_src/data/scripts/dock_solv.prm

>  <Rbt.Receptor>
prm/pocket_docking_7.prm

>  <SCORE>
-22.9909

>  <SCORE.INTER>
-22.2383

>  <SCORE.INTER.CONST>
1

>  <SCORE.INTER.POLAR>
0

>  <SCORE.INTER.ROT>
7

>  <SCORE.INTER.SOLV>
15.4078

>  <SCORE.INTER.VDW>
-28.2281

>  <SCORE.INTER.norm>
-0.717364

>  <SCORE.INTRA>
-0.752624

>  <SCORE.INTRA.DIHEDRAL>
-2.28934

>  <SCORE.INTRA.DIHEDRAL.0>
4.64198

>  <SCORE.INTRA.POLAR>
0

>  <SCORE.INTRA.POLAR.0>
0

>  <SCORE.INTRA.REPUL>
0

>  <SCORE.INTRA.REPUL.0>
0

>  <SCORE.INTRA.SOLV>
-0.392171

>  <SCORE.INTRA.SOLV.lig_0>
-49.3611

>  <SCORE.INTRA.VDW>
0.588129

>  <SCORE.INTRA.VDW.0>
-1.91858

>  <SCORE.INTRA.norm>
-0.0242782

>  <SCORE.RESTR>
0

>  <SCORE.RESTR.CAVITY>
0

>  <SCORE.RESTR.norm>
0

>  <SCORE.SYSTEM>
0

>  <SCORE.SYSTEM.CONST>
0

>  <SCORE.SYSTEM.DIHEDRAL>
0

>  <SCORE.SYSTEM.SOLV>
0

>  <SCORE.SYSTEM.norm>
0

>  <SCORE.heavy>
31

>  <SCORE.norm>
-0.741642

>  <RMSD>
6.513

$$$$
ligand
 OpenBabel11021811473D
libRbt.so/2013.1/901 2013/11/27
 31 33  0  0  0  0  0  0  0  0999 V2000
   29.6334   42.5528   26.2038 P   0  0  1  0  0  0  0  0  0  0  0  0
   29.2152   42.0450   27.5604 O   0  0  0  0  0  0  0  0  0  0  0  0
   30.8828   43.3780   26.3618 O   0  5  0  0  0  0  0  0  0  0  0  0
   29.8585   41.3403   25.3429 O   0  0  0  0  0  0  0  0  0  0  0  0
   28.4465   43.5713   24.1003 C   0  0  0  0  0  0  0  0  0  0  0  0
   28.5170   43.4732   25.5076 O   0  0  0  0  0  0  0  0  0  0  0  0
   27.9721   42.2385   23.5270 C   0  0  1  0  0  0  0  0  0  0  0  0
   26.6211   42.0201   23.8816 O   0  0  0  0  0  0  0  0  0  0  0  0
   28.0899   42.2529   22.0122 C   0  0  1  0  0  0  0  0  0  0  0  0
   29.3825   42.6776   21.6716 O   0  0  0  0  0  0  0  0  0  0  0  0
   27.8422   40.8874   21.3934 C   0  0  1  0  0  0  0  0  0  0  0  0
   27.8586   41.0272   19.9984 O   0  0  0  0  0  0  0  0  0  0  0  0
   28.9191   39.8994   21.8099 C   0  0  0  0  0  0  0  0  0  0  0  0
   27.4390   38.7113   23.8878 N   0  0  0  0  0  0  0  0  0  0  0  0
   26.7696   38.1555   24.9564 C   0  0  0  0  0  0  0  0  0  0  0  0
   26.5170   38.8360   25.9463 O   0  0  0  0  0  0  0  0  0  0  0  0
   26.3807   36.8357   24.9259 N   0  0  0  0  0  0  0  0  0  0  0  0
   26.6485   36.0578   23.8164 C   0  0  0  0  0  0  0  0  0  0  0  0
   27.3242   36.6098   22.7337 C   0  0  1  0  0  0  0  0  0  0  0  0
   26.2815   34.8814   23.7864 O   0  0  0  0  0  0  0  0  0  0  0  0
   28.2668   36.3889   20.5469 C   0  0  2  0  0  0  0  0  0  0  0  0
   27.5968   35.8376   21.6224 N   0  0  0  0  0  0  0  0  0  0  0  0
   28.5418   35.6073   19.4243 C   0  0  0  0  0  0  0  0  0  0  0  0
   29.2197   36.1504   18.3392 C   0  0  1  0  0  0  0  0  0  0  0  0
   29.5002   35.2814   17.1542 C   0  0  0  0  0  0  0  0  0  0  0  0
   29.6247   37.4934   18.3718 C   0  0  1  0  0  0  0  0  0  0  0  0
   30.3522   38.1219   17.2151 C   0  0  0  0  0  0  0  0  0  0  0  0
   29.3502   38.2704   19.4941 C   0  0  0  0  0  0  0  0  0  0  0  0
   28.6732   37.7248   20.5863 C   0  0  1  0  0  0  0  0  0  0  0  0
   27.7232   37.9442   22.7761 C   0  0  1  0  0  0  0  0  0  0  0  0
   28.4009   38.4964   21.7060 N   0  0  0  0  0  0  0  0  0  0  0  0
  1  2  1  1  0  0  0
  1  3  1  0  0  0  0
  1  4  2  0  0  0  0
  1  6  1  0  0  0  0
  5  6  1  0  0  0  0
  7  5  1  6  0  0  0
  7  8  1  0  0  0  0
  7  9  1  0  0  0  0
  9 10  1  1  0  0  0
  9 11  1  0  0  0  0
 11 12  1  6  0  0  0
 11 13  1  0  0  0  0
 13 31  1  0  0  0  0
 14 15  1  0  0  0  0
 15 16  2  0  0  0  0
 15 17  1  0  0  0  0
 17 18  1  0  0  0  0
 18 20  2  0  0  0  0
 19 18  1  6  0  0  0
 19 22  1  0  0  0  0
 19 30  1  0  0  0  0
 21 23  1  1  0  0  0
 21 29  1  0  0  0  0
 21 22  1  0  0  0  0
 23 24  1  0  0  0  0
 24 25  1  6  0  0  0
 24 26  1  0  0  0  0
 26 27  1  6  0  0  0
 26 28  1  0  0  0  0
 29 28  1  6  0  0  0
 29 31  1  0  0  0  0
 30 14  1  6  0  0  0
 30 31  1  0  0  0  0
M  CHG  1   3  -1
M  END
>  <CHROM.1>
69.26490249,-153.16292800,68.62050399,50.42738257,174.98506874,156.23278281
97.41532536,28.38306860,39.45622653,22.73104014,-1.48032211,-1.13417239,-2.27025138

>  <Name>
ligand

>  <RI>
0

>  <Rbt.Current_Directory>
/home/itssahil/PROJECTS/Mol_Feturizer/New_Systems/rnas/3F2T

>  <Rbt.Executable>
rbdock ($Id: //depot/dev/client3/rdock/2013.1/src/exe/rbdock.cxx#4 $)

>  <Rbt.Library>
libRbt.so (2013.1, Build901 2013/11/27)

>  <Rbt.Parameter_File>
/export/apps/rDock/src/rDock_2013.1_src/data/scripts/dock_solv.prm

>  <Rbt.Receptor>
prm/pocket_docking_6.prm

>  <SCORE>
-28.681

>  <SCORE.INTER>
-30.6542

>  <SCORE.INTER.CONST>
1

>  <SCORE.INTER.POLAR>
0

>  <SCORE.INTER.ROT>
7

>  <SCORE.INTER.SOLV>
17.4165

>  <SCORE.INTER.VDW>
-34.5083

>  <SCORE.INTER.norm>
-0.988844

>  <SCORE.INTRA>
1.97321

>  <SCORE.INTRA.DIHEDRAL>
0.542646

>  <SCORE.INTRA.DIHEDRAL.0>
4.64198

>  <SCORE.INTRA.POLAR>
0

>  <SCORE.INTRA.POLAR.0>
0

>  <SCORE.INTRA.REPUL>
0

>  <SCORE.INTRA.REPUL.0>
0

>  <SCORE.INTRA.SOLV>
3.00912

>  <SCORE.INTRA.SOLV.lig_0>
-49.3611

>  <SCORE.INTRA.VDW>
0.197331

>  <SCORE.INTRA.VDW.0>
-1.91858

>  <SCORE.INTRA.norm>
0.063652

>  <SCORE.RESTR>
0

>  <SCORE.RESTR.CAVITY>
0

>  <SCORE.RESTR.norm>
0

>  <SCORE.SYSTEM>
0

>  <SCORE.SYSTEM.CONST>
0

>  <SCORE.SYSTEM.DIHEDRAL>
0

>  <SCORE.SYSTEM.SOLV>
0

>  <SCORE.SYSTEM.norm>
0

>  <SCORE.heavy>
31

>  <SCORE.norm>
-0.925192

>  <RMSD>
6.530

$$$$
ligand
 OpenBabel11021811473D
libRbt.so/2013.1/901 2013/11/27
 31 33  0  0  0  0  0  0  0  0999 V2000
   30.1005   42.2660   26.0486 P   0  0  1  0  0  0  0  0  0  0  0  0
   30.0611   40.7594   26.0919 O   0  0  0  0  0  0  0  0  0  0  0  0
   28.7362   42.7945   26.4040 O   0  5  0  0  0  0  0  0  0  0  0  0
   31.1511   42.6959   27.0352 O   0  0  0  0  0  0  0  0  0  0  0  0
   29.8400   42.3674   23.4424 C   0  0  0  0  0  0  0  0  0  0  0  0
   30.4927   42.8414   24.6018 O   0  0  0  0  0  0  0  0  0  0  0  0
   28.3437   42.6457   23.5591 C   0  0  1  0  0  0  0  0  0  0  0  0
   28.1359   43.9983   23.9143 O   0  0  0  0  0  0  0  0  0  0  0  0
   27.6590   42.3725   22.2304 C   0  0  1  0  0  0  0  0  0  0  0  0
   28.5270   42.7545   21.1970 O   0  0  0  0  0  0  0  0  0  0  0  0
   27.2949   40.9083   22.0504 C   0  0  1  0  0  0  0  0  0  0  0  0
   26.6634   40.7618   20.8072 O   0  0  0  0  0  0  0  0  0  0  0  0
   28.5359   40.0319   22.0875 C   0  0  0  0  0  0  0  0  0  0  0  0
   27.1298   38.6203   24.0750 N   0  0  0  0  0  0  0  0  0  0  0  0
   26.4927   37.9578   25.1017 C   0  0  0  0  0  0  0  0  0  0  0  0
   26.1539   38.5678   26.1117 O   0  0  0  0  0  0  0  0  0  0  0  0
   26.2326   36.6097   25.0069 N   0  0  0  0  0  0  0  0  0  0  0  0
   26.5985   35.9095   23.8739 C   0  0  0  0  0  0  0  0  0  0  0  0
   27.2425   36.5693   22.8331 C   0  0  1  0  0  0  0  0  0  0  0  0
   26.3465   34.7060   23.7860 O   0  0  0  0  0  0  0  0  0  0  0  0
   28.2510   36.5335   20.6648 C   0  0  2  0  0  0  0  0  0  0  0  0
   27.6127   35.8752   21.6987 N   0  0  0  0  0  0  0  0  0  0  0  0
   28.6247   35.8308   19.5188 C   0  0  0  0  0  0  0  0  0  0  0  0
   29.2718   36.4821   18.4753 C   0  0  1  0  0  0  0  0  0  0  0  0
   29.6608   35.6958   17.2636 C   0  0  0  0  0  0  0  0  0  0  0  0
   29.5456   37.8547   18.5736 C   0  0  1  0  0  0  0  0  0  0  0  0
   30.2356   38.5988   17.4634 C   0  0  0  0  0  0  0  0  0  0  0  0
   29.1729   38.5529   19.7192 C   0  0  0  0  0  0  0  0  0  0  0  0
   28.5267   37.8989   20.7697 C   0  0  1  0  0  0  0  0  0  0  0  0
   27.5110   37.9324   22.9407 C   0  0  1  0  0  0  0  0  0  0  0  0
   28.1567   38.5921   21.9125 N   0  0  0  0  0  0  0  0  0  0  0  0
  1  2  1  6  0  0  0
  1  3  1  0  0  0  0
  1  4  2  0  0  0  0
  1  6  1  0  0  0  0
  5  6  1  0  0  0  0
  7  5  1  6  0  0  0
  7  8  1  0  0  0  0
  7  9  1  0  0  0  0
  9 10  1  6  0  0  0
  9 11  1  0  0  0  0
 11 12  1  6  0  0  0
 11 13  1  0  0  0  0
 13 31  1  0  0  0  0
 14 15  1  0  0  0  0
 15 16  2  0  0  0  0
 15 17  1  0  0  0  0
 17 18  1  0  0  0  0
 18 20  2  0  0  0  0
 19 18  1  6  0  0  0
 19 22  1  0  0  0  0
 19 30  1  0  0  0  0
 21 23  1  1  0  0  0
 21 29  1  0  0  0  0
 21 22  1  0  0  0  0
 23 24  1  0  0  0  0
 24 25  1  6  0  0  0
 24 26  1  0  0  0  0
 26 27  1  6  0  0  0
 26 28  1  0  0  0  0
 29 28  1  6  0  0  0
 29 31  1  0  0  0  0
 30 14  1  6  0  0  0
 30 31  1  0  0  0  0
M  CHG  1   3  -1
M  END
>  <CHROM.1>
59.78854987,48.93163971,50.06802406,-35.95876444,179.55360691,179.83683899
112.60690529,28.42561495,39.48009569,22.79832879,-1.28472800,-1.12460275
-2.13961504

>  <Name>
ligand

>  <RI>
0

>  <Rbt.Current_Directory>
/home/itssahil/PROJECTS/Mol_Feturizer/New_Systems/rnas/3F2T

>  <Rbt.Executable>
rbdock ($Id: //depot/dev/client3/rdock/2013.1/src/exe/rbdock.cxx#4 $)

>  <Rbt.Library>
libRbt.so (2013.1, Build901 2013/11/27)

>  <Rbt.Parameter_File>
/export/apps/rDock/src/rDock_2013.1_src/data/scripts/dock_solv.prm

>  <Rbt.Receptor>
prm/blind_docking_100.prm

>  <SCORE>
-25.4992

>  <SCORE.INTER>
-28.5631

>  <SCORE.INTER.CONST>
1

>  <SCORE.INTER.POLAR>
0

>  <SCORE.INTER.ROT>
7

>  <SCORE.INTER.SOLV>
19.5729

>  <SCORE.INTER.VDW>
-33.833

>  <SCORE.INTER.norm>
-0.921391

>  <SCORE.INTRA>
3.04496

>  <SCORE.INTRA.DIHEDRAL>
-0.932958

>  <SCORE.INTRA.DIHEDRAL.0>
4.64198

>  <SCORE.INTRA.POLAR>
0

>  <SCORE.INTRA.POLAR.0>
0

>  <SCORE.INTRA.REPUL>
0

>  <SCORE.INTRA.REPUL.0>
0

>  <SCORE.INTRA.SOLV>
1.93441

>  <SCORE.INTRA.SOLV.lig_0>
-49.3611

>  <SCORE.INTRA.VDW>
2.54423

>  <SCORE.INTRA.VDW.0>
-1.91858

>  <SCORE.INTRA.norm>
0.0982246

>  <SCORE.RESTR>
0.0189444

>  <SCORE.RESTR.CAVITY>
0.0189444

>  <SCORE.RESTR.norm>
0.000611111

>  <SCORE.SYSTEM>
0

>  <SCORE.SYSTEM.CONST>
0

>  <SCORE.SYSTEM.DIHEDRAL>
0

>  <SCORE.SYSTEM.SOLV>
0

>  <SCORE.SYSTEM.norm>
0

>  <SCORE.heavy>
31

>  <SCORE.norm>
-0.822556

>  <RMSD>
6.532

$$$$
ligand
 OpenBabel11021811473D
libRbt.so/2013.1/901 2013/11/27
 31 33  0  0  0  0  0  0  0  0999 V2000
   29.6768   34.8559   12.7360 P   0  0  1  0  0  0  0  0  0  0  0  0
   31.1452   34.5918   12.5189 O   0  0  0  0  0  0  0  0  0  0  0  0
   29.1031   35.4531   11.4785 O   0  5  0  0  0  0  0  0  0  0  0  0
   29.0484   33.5320   13.0742 O   0  0  0  0  0  0  0  0  0  0  0  0
   29.8456   35.5839   15.2484 C   0  0  0  0  0  0  0  0  0  0  0  0
   29.3953   35.8777   13.9423 O   0  0  0  0  0  0  0  0  0  0  0  0
   29.4620   36.7295   16.1815 C   0  0  1  0  0  0  0  0  0  0  0  0
   28.0595   36.9071   16.1678 O   0  0  0  0  0  0  0  0  0  0  0  0
   29.9071   36.4157   17.6000 C   0  0  1  0  0  0  0  0  0  0  0  0
   31.2615   36.0526   17.5700 O   0  0  0  0  0  0  0  0  0  0  0  0
   29.7352   37.5960   18.5414 C   0  0  1  0  0  0  0  0  0  0  0  0
   30.3882   38.7035   17.9818 O   0  0  0  0  0  0  0  0  0  0  0  0
   28.2646   37.9269   18.7340 C   0  0  0  0  0  0  0  0  0  0  0  0
   28.5782   40.6938   18.3267 N   0  0  0  0  0  0  0  0  0  0  0  0
   28.7994   42.0329   18.0883 C   0  0  0  0  0  0  0  0  0  0  0  0
   29.0357   42.4249   16.9493 O   0  0  0  0  0  0  0  0  0  0  0  0
   28.7601   42.9412   19.1215 N   0  0  0  0  0  0  0  0  0  0  0  0
   28.4865   42.5191   20.4078 C   0  0  0  0  0  0  0  0  0  0  0  0
   28.2627   41.1698   20.6581 C   0  0  1  0  0  0  0  0  0  0  0  0
   28.4338   43.3392   21.3266 O   0  0  0  0  0  0  0  0  0  0  0  0
   27.7668   39.3994   22.1877 C   0  0  2  0  0  0  0  0  0  0  0  0
   27.9906   40.7407   21.9417 N   0  0  0  0  0  0  0  0  0  0  0  0
   27.4919   38.9670   23.4855 C   0  0  0  0  0  0  0  0  0  0  0  0
   27.2704   37.6196   23.7448 C   0  0  1  0  0  0  0  0  0  0  0  0
   26.9820   37.1921   25.1491 C   0  0  0  0  0  0  0  0  0  0  0  0
   27.3185   36.6907   22.6943 C   0  0  1  0  0  0  0  0  0  0  0  0
   27.0756   35.2253   22.9308 C   0  0  0  0  0  0  0  0  0  0  0  0
   27.5947   37.1250   21.4005 C   0  0  0  0  0  0  0  0  0  0  0  0
   27.8215   38.4776   21.1396 C   0  0  1  0  0  0  0  0  0  0  0  0
   28.3138   40.2549   19.6084 C   0  0  1  0  0  0  0  0  0  0  0  0
   28.0990   38.9118   19.8521 N   0  0  0  0  0  0  0  0  0  0  0  0
  1  2  1  6  0  0  0
  1  3  1  0  0  0  0
  1  4  2  0  0  0  0
  1  6  1  0  0  0  0
  5  6  1  0  0  0  0
  7  5  1  6  0  0  0
  7  8  1  0  0  0  0
  7  9  1  0  0  0  0
  9 10  1  6  0  0  0
  9 11  1  0  0  0  0
 11 12  1  6  0  0  0
 11 13  1  0  0  0  0
 13 31  1  0  0  0  0
 14 15  1  0  0  0  0
 15 16  2  0  0  0  0
 15 17  1  0  0  0  0
 17 18  1  0  0  0  0
 18 20  2  0  0  0  0
 19 18  1  6  0  0  0
 19 22  1  0  0  0  0
 19 30  1  0  0  0  0
 21 23  1  1  0  0  0
 21 29  1  0  0  0  0
 21 22  1  0  0  0  0
 23 24  1  0  0  0  0
 24 25  1  6  0  0  0
 24 26  1  0  0  0  0
 26 27  1  6  0  0  0
 26 28  1  0  0  0  0
 29 28  1  6  0  0  0
 29 31  1  0  0  0  0
 30 14  1  6  0  0  0
 30 31  1  0  0  0  0
M  CHG  1   3  -1
M  END
>  <CHROM.1>
179.11935400,-58.78196454,58.64957697,51.22709003,-53.60885782,169.36494386
-94.81385066,28.78123159,38.04205426,18.30197660,0.66680173,-1.32456833,-2.95401195

>  <Name>
ligand

>  <RI>
0

>  <Rbt.Current_Directory>
/home/itssahil/PROJECTS/Mol_Feturizer/New_Systems/rnas/3F2T

>  <Rbt.Executable>
rbdock ($Id: //depot/dev/client3/rdock/2013.1/src/exe/rbdock.cxx#4 $)

>  <Rbt.Library>
libRbt.so (2013.1, Build901 2013/11/27)

>  <Rbt.Parameter_File>
/export/apps/rDock/src/rDock_2013.1_src/data/scripts/dock_solv.prm

>  <Rbt.Receptor>
prm/pocket_docking_8.prm

>  <SCORE>
-21.2697

>  <SCORE.INTER>
-20.8428

>  <SCORE.INTER.CONST>
1

>  <SCORE.INTER.POLAR>
0

>  <SCORE.INTER.ROT>
7

>  <SCORE.INTER.SOLV>
12.0143

>  <SCORE.INTER.VDW>
-26.1666

>  <SCORE.INTER.norm>
-0.672348

>  <SCORE.INTRA>
-0.426929

>  <SCORE.INTRA.DIHEDRAL>
-2.72809

>  <SCORE.INTRA.DIHEDRAL.0>
4.64198

>  <SCORE.INTRA.POLAR>
0

>  <SCORE.INTRA.POLAR.0>
0

>  <SCORE.INTRA.REPUL>
0

>  <SCORE.INTRA.REPUL.0>
0

>  <SCORE.INTRA.SOLV>
-0.326511

>  <SCORE.INTRA.SOLV.lig_0>
-49.3611

>  <SCORE.INTRA.VDW>
1.10037

>  <SCORE.INTRA.VDW.0>
-1.91858

>  <SCORE.INTRA.norm>
-0.0137719

>  <SCORE.RESTR>
0

>  <SCORE.RESTR.CAVITY>
0

>  <SCORE.RESTR.norm>
0

>  <SCORE.SYSTEM>
0

>  <SCORE.SYSTEM.CONST>
0

>  <SCORE.SYSTEM.DIHEDRAL>
0

>  <SCORE.SYSTEM.SOLV>
0

>  <SCORE.SYSTEM.norm>
0

>  <SCORE.heavy>
31

>  <SCORE.norm>
-0.68612

>  <RMSD>
6.583

$$$$
ligand
 OpenBabel11021811473D
libRbt.so/2013.1/901 2013/11/27
 31 33  0  0  0  0  0  0  0  0999 V2000
   31.3545   37.6639   17.3723 P   0  0  1  0  0  0  0  0  0  0  0  0
   32.7011   38.2690   17.6785 O   0  0  0  0  0  0  0  0  0  0  0  0
   30.8981   38.1595   16.0258 O   0  5  0  0  0  0  0  0  0  0  0  0
   31.5397   36.1716   17.3955 O   0  0  0  0  0  0  0  0  0  0  0  0
   29.8661   39.4064   18.6446 C   0  0  0  0  0  0  0  0  0  0  0  0
   30.2314   38.0559   18.4508 O   0  0  0  0  0  0  0  0  0  0  0  0
   29.0164   39.5208   19.9076 C   0  0  1  0  0  0  0  0  0  0  0  0
   29.6543   38.8475   20.9746 O   0  0  0  0  0  0  0  0  0  0  0  0
   28.8360   40.9822   20.2822 C   0  0  1  0  0  0  0  0  0  0  0  0
   27.7344   41.4884   19.5768 O   0  0  0  0  0  0  0  0  0  0  0  0
   28.5998   41.1797   21.7701 C   0  0  1  0  0  0  0  0  0  0  0  0
   28.5669   42.5569   22.0312 O   0  0  0  0  0  0  0  0  0  0  0  0
   27.2807   40.5578   22.1975 C   0  0  0  0  0  0  0  0  0  0  0  0
   27.8714   41.4717   24.7928 N   0  0  0  0  0  0  0  0  0  0  0  0
   28.2152   41.9677   26.0316 C   0  0  0  0  0  0  0  0  0  0  0  0
   28.2453   43.1798   26.2231 O   0  0  0  0  0  0  0  0  0  0  0  0
   28.5296   41.1123   27.0628 N   0  0  0  0  0  0  0  0  0  0  0  0
   28.4920   39.7454   26.8677 C   0  0  0  0  0  0  0  0  0  0  0  0
   28.1470   39.2357   25.6209 C   0  0  1  0  0  0  0  0  0  0  0  0
   28.7562   38.9832   27.7998 O   0  0  0  0  0  0  0  0  0  0  0  0
   27.7643   37.3666   24.1790 C   0  0  2  0  0  0  0  0  0  0  0  0
   28.1092   37.8707   25.4184 N   0  0  0  0  0  0  0  0  0  0  0  0
   27.7266   35.9867   23.9756 C   0  0  0  0  0  0  0  0  0  0  0  0
   27.3859   35.4691   22.7315 C   0  0  1  0  0  0  0  0  0  0  0  0
   27.3595   33.9845   22.5494 C   0  0  0  0  0  0  0  0  0  0  0  0
   27.0735   36.3396   21.6764 C   0  0  1  0  0  0  0  0  0  0  0  0
   26.6910   35.8202   20.3176 C   0  0  0  0  0  0  0  0  0  0  0  0
   27.1135   37.7161   21.8819 C   0  0  0  0  0  0  0  0  0  0  0  0
   27.4596   38.2372   23.1300 C   0  0  1  0  0  0  0  0  0  0  0  0
   27.8394   40.1085   24.5791 C   0  0  1  0  0  0  0  0  0  0  0  0
   27.5023   39.6080   23.3360 N   0  0  0  0  0  0  0  0  0  0  0  0
  1  2  1  1  0  0  0
  1  3  1  0  0  0  0
  1  4  2  0  0  0  0
  1  6  1  0  0  0  0
  5  6  1  0  0  0  0
  7  5  1  6  0  0  0
  7  8  1  0  0  0  0
  7  9  1  0  0  0  0
  9 10  1  6  0  0  0
  9 11  1  0  0  0  0
 11 12  1  6  0  0  0
 11 13  1  0  0  0  0
 13 31  1  0  0  0  0
 14 15  1  0  0  0  0
 15 16  2  0  0  0  0
 15 17  1  0  0  0  0
 17 18  1  0  0  0  0
 18 20  2  0  0  0  0
 19 18  1  1  0  0  0
 19 22  1  0  0  0  0
 19 30  1  0  0  0  0
 21 23  1  6  0  0  0
 21 29  1  0  0  0  0
 21 22  1  0  0  0  0
 23 24  1  0  0  0  0
 24 25  1  1  0  0  0
 24 26  1  0  0  0  0
 26 27  1  1  0  0  0
 26 28  1  0  0  0  0
 29 28  1  1  0  0  0
 29 31  1  0  0  0  0
 30 14  1  1  0  0  0
 30 31  1  0  0  0  0
M  CHG  1   3  -1
M  END
>  <CHROM.1>
-168.08318201,61.53664918,49.30439179,86.13063592,174.74898665,125.99515465
-105.36689196,28.78205499,38.91566653,21.95129317,-0.68189625,1.17811955
0.42074330

>  <Name>
ligand

>  <RI>
0

>  <Rbt.Current_Directory>
/home/itssahil/PROJECTS/Mol_Feturizer/New_Systems/rnas/3F2T

>  <Rbt.Executable>
rbdock ($Id: //depot/dev/client3/rdock/2013.1/src/exe/rbdock.cxx#4 $)

>  <Rbt.Library>
libRbt.so (2013.1, Build901 2013/11/27)

>  <Rbt.Parameter_File>
/export/apps/rDock/src/rDock_2013.1_src/data/scripts/dock_solv.prm

>  <Rbt.Receptor>
prm/blind_docking_60.prm

>  <SCORE>
-18.1892

>  <SCORE.INTER>
-20.1448

>  <SCORE.INTER.CONST>
1

>  <SCORE.INTER.POLAR>
0

>  <SCORE.INTER.ROT>
7

>  <SCORE.INTER.SOLV>
13.8851

>  <SCORE.INTER.VDW>
-26.3249

>  <SCORE.INTER.norm>
-0.649831

>  <SCORE.INTRA>
1.95559

>  <SCORE.INTRA.DIHEDRAL>
4.96508

>  <SCORE.INTRA.DIHEDRAL.0>
4.64198

>  <SCORE.INTRA.POLAR>
0

>  <SCORE.INTRA.POLAR.0>
0

>  <SCORE.INTRA.REPUL>
0

>  <SCORE.INTRA.REPUL.0>
0

>  <SCORE.INTRA.SOLV>
-0.343917

>  <SCORE.INTRA.SOLV.lig_0>
-49.3611

>  <SCORE.INTRA.VDW>
-0.354997

>  <SCORE.INTRA.VDW.0>
-1.91858

>  <SCORE.INTRA.norm>
0.0630834

>  <SCORE.RESTR>
0

>  <SCORE.RESTR.CAVITY>
0

>  <SCORE.RESTR.norm>
0

>  <SCORE.SYSTEM>
0

>  <SCORE.SYSTEM.CONST>
0

>  <SCORE.SYSTEM.DIHEDRAL>
0

>  <SCORE.SYSTEM.SOLV>
0

>  <SCORE.SYSTEM.norm>
0

>  <SCORE.heavy>
31

>  <SCORE.norm>
-0.586748

>  <RMSD>
6.598

$$$$
ligand
 OpenBabel11021811473D
libRbt.so/2013.1/901 2013/11/27
 31 33  0  0  0  0  0  0  0  0999 V2000
   27.6024   33.4620   14.4148 P   0  0  1  0  0  0  0  0  0  0  0  0
   28.6179   33.9163   13.3972 O   0  0  0  0  0  0  0  0  0  0  0  0
   26.3718   32.9867   13.6890 O   0  5  0  0  0  0  0  0  0  0  0  0
   28.2533   32.3633   15.2092 O   0  0  0  0  0  0  0  0  0  0  0  0
   26.7618   35.8908   14.9294 C   0  0  0  0  0  0  0  0  0  0  0  0
   27.1613   34.6299   15.4247 O   0  0  0  0  0  0  0  0  0  0  0  0
   26.3836   36.7937   16.1007 C   0  0  1  0  0  0  0  0  0  0  0  0
   25.2987   36.2278   16.8088 O   0  0  0  0  0  0  0  0  0  0  0  0
   27.5654   36.9441   17.0438 C   0  0  1  0  0  0  0  0  0  0  0  0
   28.6711   37.3863   16.3028 O   0  0  0  0  0  0  0  0  0  0  0  0
   27.2969   37.9344   18.1645 C   0  0  1  0  0  0  0  0  0  0  0  0
   26.2085   37.4658   18.9140 O   0  0  0  0  0  0  0  0  0  0  0  0
   28.5085   38.0686   19.0720 C   0  0  0  0  0  0  0  0  0  0  0  0
   28.7249   40.8521   18.7182 N   0  0  0  0  0  0  0  0  0  0  0  0
   28.9018   42.2029   18.5109 C   0  0  0  0  0  0  0  0  0  0  0  0
   29.2034   42.6207   17.3967 O   0  0  0  0  0  0  0  0  0  0  0  0
   28.7451   43.0942   19.5477 N   0  0  0  0  0  0  0  0  0  0  0  0
   28.3969   42.6425   20.8057 C   0  0  0  0  0  0  0  0  0  0  0  0
   28.2171   41.2812   21.0245 C   0  0  1  0  0  0  0  0  0  0  0  0
   28.2394   43.4467   21.7266 O   0  0  0  0  0  0  0  0  0  0  0  0
   27.6909   39.4695   22.4944 C   0  0  2  0  0  0  0  0  0  0  0  0
   27.8709   40.8227   22.2798 N   0  0  0  0  0  0  0  0  0  0  0  0
   27.3411   39.0074   23.7636 C   0  0  0  0  0  0  0  0  0  0  0  0
   27.1627   37.6480   23.9916 C   0  0  1  0  0  0  0  0  0  0  0  0
   26.7915   37.1887   25.3661 C   0  0  0  0  0  0  0  0  0  0  0  0
   27.3305   36.7367   22.9380 C   0  0  1  0  0  0  0  0  0  0  0  0
   27.1378   35.2588   23.1405 C   0  0  0  0  0  0  0  0  0  0  0  0
   27.6811   37.2008   21.6729 C   0  0  0  0  0  0  0  0  0  0  0  0
   27.8647   38.5656   21.4437 C   0  0  1  0  0  0  0  0  0  0  0  0
   28.3870   40.3841   19.9720 C   0  0  1  0  0  0  0  0  0  0  0  0
   28.2162   39.0296   20.1850 N   0  0  0  0  0  0  0  0  0  0  0  0
  1  2  1  6  0  0  0
  1  3  1  0  0  0  0
  1  4  2  0  0  0  0
  1  6  1  0  0  0  0
  5  6  1  0  0  0  0
  7  5  1  6  0  0  0
  7  8  1  0  0  0  0
  7  9  1  0  0  0  0
  9 10  1  6  0  0  0
  9 11  1  0  0  0  0
 11 12  1  1  0  0  0
 11 13  1  0  0  0  0
 13 31  1  0  0  0  0
 14 15  1  0  0  0  0
 15 16  2  0  0  0  0
 15 17  1  0  0  0  0
 17 18  1  0  0  0  0
 18 20  2  0  0  0  0
 19 18  1  6  0  0  0
 19 22  1  0  0  0  0
 19 30  1  0  0  0  0
 21 23  1  1  0  0  0
 21 29  1  0  0  0  0
 21 22  1  0  0  0  0
 23 24  1  0  0  0  0
 24 25  1  6  0  0  0
 24 26  1  0  0  0  0
 26 27  1  6  0  0  0
 26 28  1  0  0  0  0
 29 28  1  6  0  0  0
 29 31  1  0  0  0  0
 30 14  1  6  0  0  0
 30 31  1  0  0  0  0
M  CHG  1   3  -1
M  END
>  <CHROM.1>
179.31326786,49.75369245,-61.27872170,54.11860192,60.93307555,-178.95920939
99.62225967,27.67957530,37.81906708,18.81626512,1.86138742,-1.34010875,-2.02228417

>  <Name>
ligand

>  <RI>
0

>  <Rbt.Current_Directory>
/home/itssahil/PROJECTS/Mol_Feturizer/New_Systems/rnas/3F2T

>  <Rbt.Executable>
rbdock ($Id: //depot/dev/client3/rdock/2013.1/src/exe/rbdock.cxx#4 $)

>  <Rbt.Library>
libRbt.so (2013.1, Build901 2013/11/27)

>  <Rbt.Parameter_File>
/export/apps/rDock/src/rDock_2013.1_src/data/scripts/dock_solv.prm

>  <Rbt.Receptor>
prm/pocket_docking_5.prm

>  <SCORE>
-22.5076

>  <SCORE.INTER>
-21.2077

>  <SCORE.INTER.CONST>
1

>  <SCORE.INTER.POLAR>
0

>  <SCORE.INTER.ROT>
7

>  <SCORE.INTER.SOLV>
10.8333

>  <SCORE.INTER.VDW>
-26.0162

>  <SCORE.INTER.norm>
-0.68412

>  <SCORE.INTRA>
-1.29982

>  <SCORE.INTRA.DIHEDRAL>
-2.97627

>  <SCORE.INTRA.DIHEDRAL.0>
4.64198

>  <SCORE.INTRA.POLAR>
0

>  <SCORE.INTRA.POLAR.0>
0

>  <SCORE.INTRA.REPUL>
0

>  <SCORE.INTRA.REPUL.0>
0

>  <SCORE.INTRA.SOLV>
-0.33736

>  <SCORE.INTRA.SOLV.lig_0>
-49.3611

>  <SCORE.INTRA.VDW>
0.356997

>  <SCORE.INTRA.VDW.0>
-1.91858

>  <SCORE.INTRA.norm>
-0.0419296

>  <SCORE.RESTR>
0

>  <SCORE.RESTR.CAVITY>
0

>  <SCORE.RESTR.norm>
0

>  <SCORE.SYSTEM>
0

>  <SCORE.SYSTEM.CONST>
0

>  <SCORE.SYSTEM.DIHEDRAL>
0

>  <SCORE.SYSTEM.SOLV>
0

>  <SCORE.SYSTEM.norm>
0

>  <SCORE.heavy>
31

>  <SCORE.norm>
-0.72605

>  <RMSD>
6.598

$$$$
ligand
 OpenBabel11021811473D
libRbt.so/2013.1/901 2013/11/27
 31 33  0  0  0  0  0  0  0  0999 V2000
   24.9134   33.7722   18.0211 P   0  0  1  0  0  0  0  0  0  0  0  0
   24.3080   32.4623   18.4580 O   0  0  0  0  0  0  0  0  0  0  0  0
   24.7532   33.9039   16.5298 O   0  5  0  0  0  0  0  0  0  0  0  0
   24.1821   34.8531   18.7687 O   0  0  0  0  0  0  0  0  0  0  0  0
   27.2017   35.0506   18.0287 C   0  0  0  0  0  0  0  0  0  0  0  0
   26.4783   33.8844   18.3626 O   0  0  0  0  0  0  0  0  0  0  0  0
   28.6905   34.8002   18.2543 C   0  0  1  0  0  0  0  0  0  0  0  0
   29.1065   33.6812   17.4970 O   0  0  0  0  0  0  0  0  0  0  0  0
   29.4933   36.0159   17.8226 C   0  0  1  0  0  0  0  0  0  0  0  0
   28.9740   36.4813   16.6056 O   0  0  0  0  0  0  0  0  0  0  0  0
   29.4427   37.1420   18.8414 C   0  0  1  0  0  0  0  0  0  0  0  0
   30.4889   38.0334   18.5640 O   0  0  0  0  0  0  0  0  0  0  0  0
   28.1191   37.8846   18.7644 C   0  0  0  0  0  0  0  0  0  0  0  0
   28.5027   40.6421   18.3537 N   0  0  0  0  0  0  0  0  0  0  0  0
   28.7565   41.9747   18.1117 C   0  0  0  0  0  0  0  0  0  0  0  0
   28.9723   42.3627   16.9673 O   0  0  0  0  0  0  0  0  0  0  0  0
   28.7730   42.8810   19.1473 N   0  0  0  0  0  0  0  0  0  0  0  0
   28.5232   42.4636   20.4400 C   0  0  0  0  0  0  0  0  0  0  0  0
   28.2668   41.1208   20.6940 C   0  0  1  0  0  0  0  0  0  0  0  0
   28.5205   43.2824   21.3615 O   0  0  0  0  0  0  0  0  0  0  0  0
   27.7619   39.3617   22.2335 C   0  0  2  0  0  0  0  0  0  0  0  0
   28.0182   40.6964   21.9839 N   0  0  0  0  0  0  0  0  0  0  0  0
   27.5109   38.9340   23.5377 C   0  0  0  0  0  0  0  0  0  0  0  0
   27.2570   37.5930   23.8005 C   0  0  1  0  0  0  0  0  0  0  0  0
   26.9957   37.1703   25.2116 C   0  0  0  0  0  0  0  0  0  0  0  0
   27.2483   36.6659   22.7474 C   0  0  1  0  0  0  0  0  0  0  0  0
   26.9690   35.2077   22.9878 C   0  0  0  0  0  0  0  0  0  0  0  0
   27.5008   37.0955   21.4472 C   0  0  0  0  0  0  0  0  0  0  0  0
   27.7600   38.4415   21.1825 C   0  0  1  0  0  0  0  0  0  0  0  0
   28.2615   40.2077   19.6415 C   0  0  1  0  0  0  0  0  0  0  0  0
   28.0140   38.8709   19.8886 N   0  0  0  0  0  0  0  0  0  0  0  0
  1  2  1  1  0  0  0
  1  3  1  0  0  0  0
  1  4  2  0  0  0  0
  1  6  1  0  0  0  0
  5  6  1  0  0  0  0
  7  5  1  6  0  0  0
  7  8  1  0  0  0  0
  7  9  1  0  0  0  0
  9 10  1  6  0  0  0
  9 11  1  0  0  0  0
 11 12  1  6  0  0  0
 11 13  1  0  0  0  0
 13 31  1  0  0  0  0
 14 15  1  0  0  0  0
 15 16  2  0  0  0  0
 15 17  1  0  0  0  0
 17 18  1  0  0  0  0
 18 20  2  0  0  0  0
 19 18  1  6  0  0  0
 19 22  1  0  0  0  0
 19 30  1  0  0  0  0
 21 23  1  1  0  0  0
 21 29  1  0  0  0  0
 21 22  1  0  0  0  0
 23 24  1  0  0  0  0
 24 25  1  6  0  0  0
 24 26  1  0  0  0  0
 26 27  1  6  0  0  0
 26 28  1  0  0  0  0
 29 28  1  6  0  0  0
 29 31  1  0  0  0  0
 30 14  1  6  0  0  0
 30 31  1  0  0  0  0
M  CHG  1   3  -1
M  END
>  <CHROM.1>
-170.85392757,-179.62791910,56.75092519,-42.99120168,163.05398787,172.65422070
-74.61784615,27.59064053,37.56692055,19.63880881,-2.43715478,1.14963531,1.10402313

>  <Name>
ligand

>  <RI>
0

>  <Rbt.Current_Directory>
/home/itssahil/PROJECTS/Mol_Feturizer/New_Systems/rnas/3F2T

>  <Rbt.Executable>
rbdock ($Id: //depot/dev/client3/rdock/2013.1/src/exe/rbdock.cxx#4 $)

>  <Rbt.Library>
libRbt.so (2013.1, Build901 2013/11/27)

>  <Rbt.Parameter_File>
/export/apps/rDock/src/rDock_2013.1_src/data/scripts/dock_solv.prm

>  <Rbt.Receptor>
prm/pocket_docking_7.prm

>  <SCORE>
-21.4571

>  <SCORE.INTER>
-22.504

>  <SCORE.INTER.CONST>
1

>  <SCORE.INTER.POLAR>
0

>  <SCORE.INTER.ROT>
7

>  <SCORE.INTER.SOLV>
11.839

>  <SCORE.INTER.VDW>
-27.2157

>  <SCORE.INTER.norm>
-0.725935

>  <SCORE.INTRA>
1.04691

>  <SCORE.INTRA.DIHEDRAL>
-0.910149

>  <SCORE.INTRA.DIHEDRAL.0>
4.64198

>  <SCORE.INTRA.POLAR>
0

>  <SCORE.INTRA.POLAR.0>
0

>  <SCORE.INTRA.REPUL>
0

>  <SCORE.INTRA.REPUL.0>
0

>  <SCORE.INTRA.SOLV>
-0.257333

>  <SCORE.INTRA.SOLV.lig_0>
-49.3611

>  <SCORE.INTRA.VDW>
1.63065

>  <SCORE.INTRA.VDW.0>
-1.91858

>  <SCORE.INTRA.norm>
0.0337714

>  <SCORE.RESTR>
0

>  <SCORE.RESTR.CAVITY>
0

>  <SCORE.RESTR.norm>
0

>  <SCORE.SYSTEM>
0

>  <SCORE.SYSTEM.CONST>
0

>  <SCORE.SYSTEM.DIHEDRAL>
0

>  <SCORE.SYSTEM.SOLV>
0

>  <SCORE.SYSTEM.norm>
0

>  <SCORE.heavy>
31

>  <SCORE.norm>
-0.692163

>  <RMSD>
6.622

$$$$
ligand
 OpenBabel11021811473D
libRbt.so/2013.1/901 2013/11/27
 31 33  0  0  0  0  0  0  0  0999 V2000
   30.4419   34.3456   14.2107 P   0  0  1  0  0  0  0  0  0  0  0  0
   29.9777   34.9919   12.9301 O   0  0  0  0  0  0  0  0  0  0  0  0
   29.3787   33.3889   14.6811 O   0  5  0  0  0  0  0  0  0  0  0  0
   31.7353   33.6465   13.8938 O   0  0  0  0  0  0  0  0  0  0  0  0
   31.2114   34.9774   16.6354 C   0  0  0  0  0  0  0  0  0  0  0  0
   30.7093   35.4057   15.3867 O   0  0  0  0  0  0  0  0  0  0  0  0
   31.1819   36.1465   17.6165 C   0  0  1  0  0  0  0  0  0  0  0  0
   31.9798   37.2041   17.1229 O   0  0  0  0  0  0  0  0  0  0  0  0
   29.7563   36.6423   17.7916 C   0  0  1  0  0  0  0  0  0  0  0  0
   28.9826   35.5943   18.3114 O   0  0  0  0  0  0  0  0  0  0  0  0
   29.6628   37.8343   18.7292 C   0  0  1  0  0  0  0  0  0  0  0  0
   30.3757   38.8989   18.1597 O   0  0  0  0  0  0  0  0  0  0  0  0
   28.2160   38.2528   18.9324 C   0  0  0  0  0  0  0  0  0  0  0  0
   28.5444   41.0333   18.6480 N   0  0  0  0  0  0  0  0  0  0  0  0
   28.7710   42.3803   18.4662 C   0  0  0  0  0  0  0  0  0  0  0  0
   28.9656   42.8256   17.3390 O   0  0  0  0  0  0  0  0  0  0  0  0
   28.7839   43.2371   19.5431 N   0  0  0  0  0  0  0  0  0  0  0  0
   28.5577   42.7548   20.8176 C   0  0  0  0  0  0  0  0  0  0  0  0
   28.3289   41.3970   21.0107 C   0  0  1  0  0  0  0  0  0  0  0  0
   28.5516   43.5292   21.7766 O   0  0  0  0  0  0  0  0  0  0  0  0
   27.8750   39.5583   22.4712 C   0  0  2  0  0  0  0  0  0  0  0  0
   28.1040   40.9079   22.2819 N   0  0  0  0  0  0  0  0  0  0  0  0
   27.6480   39.0653   23.7566 C   0  0  0  0  0  0  0  0  0  0  0  0
   27.4218   37.7089   23.9587 C   0  0  1  0  0  0  0  0  0  0  0  0
   27.1856   37.2156   25.3511 C   0  0  0  0  0  0  0  0  0  0  0  0
   27.4169   36.8323   22.8631 C   0  0  1  0  0  0  0  0  0  0  0  0
   27.1671   35.3594   23.0377 C   0  0  0  0  0  0  0  0  0  0  0  0
   27.6454   37.3271   21.5819 C   0  0  0  0  0  0  0  0  0  0  0  0
   27.8769   38.6887   21.3781 C   0  0  1  0  0  0  0  0  0  0  0  0
   28.3271   40.5344   19.9164 C   0  0  1  0  0  0  0  0  0  0  0  0
   28.1070   39.1831   20.1030 N   0  0  0  0  0  0  0  0  0  0  0  0
  1  2  1  6  0  0  0
  1  3  1  0  0  0  0
  1  4  2  0  0  0  0
  1  6  1  0  0  0  0
  5  6  1  0  0  0  0
  7  5  1  6  0  0  0
  7  8  1  0  0  0  0
  7  9  1  0  0  0  0
  9 10  1  1  0  0  0
  9 11  1  0  0  0  0
 11 12  1  6  0  0  0
 11 13  1  0  0  0  0
 13 31  1  0  0  0  0
 14 15  1  0  0  0  0
 15 16  2  0  0  0  0
 15 17  1  0  0  0  0
 17 18  1  0  0  0  0
 18 20  2  0  0  0  0
 19 18  1  6  0  0  0
 19 22  1  0  0  0  0
 19 30  1  0  0  0  0
 21 23  1  1  0  0  0
 21 29  1  0  0  0  0
 21 22  1  0  0  0  0
 23 24  1  0  0  0  0
 24 25  1  6  0  0  0
 24 26  1  0  0  0  0
 26 27  1  6  0  0  0
 26 28  1  0  0  0  0
 29 28  1  6  0  0  0
 29 31  1  0  0  0  0
 30 14  1  6  0  0  0
 30 31  1  0  0  0  0
M  CHG  1   3  -1
M  END
>  <CHROM.1>
-172.07889117,-176.92402161,-59.87769098,61.03479696,63.08334415,165.79359336
-90.52580976,29.12285714,38.03692006,18.94003187,-0.61938658,1.22557748,-0.02842845

>  <Name>
ligand

>  <RI>
0

>  <Rbt.Current_Directory>
/home/itssahil/PROJECTS/Mol_Feturizer/New_Systems/rnas/3F2T

>  <Rbt.Executable>
rbdock ($Id: //depot/dev/client3/rdock/2013.1/src/exe/rbdock.cxx#4 $)

>  <Rbt.Library>
libRbt.so (2013.1, Build901 2013/11/27)

>  <Rbt.Parameter_File>
/export/apps/rDock/src/rDock_2013.1_src/data/scripts/dock_solv.prm

>  <Rbt.Receptor>
prm/pocket_docking_5.prm

>  <SCORE>
-21.3027

>  <SCORE.INTER>
-20.5474

>  <SCORE.INTER.CONST>
1

>  <SCORE.INTER.POLAR>
0

>  <SCORE.INTER.ROT>
7

>  <SCORE.INTER.SOLV>
9.40326

>  <SCORE.INTER.VDW>
-25.0993

>  <SCORE.INTER.norm>
-0.662819

>  <SCORE.INTRA>
-0.761509

>  <SCORE.INTRA.DIHEDRAL>
-2.52568

>  <SCORE.INTRA.DIHEDRAL.0>
4.64198

>  <SCORE.INTRA.POLAR>
0

>  <SCORE.INTRA.POLAR.0>
0

>  <SCORE.INTRA.REPUL>
0

>  <SCORE.INTRA.REPUL.0>
0

>  <SCORE.INTRA.SOLV>
0.414246

>  <SCORE.INTRA.SOLV.lig_0>
-49.3611

>  <SCORE.INTRA.VDW>
0.294207

>  <SCORE.INTRA.VDW.0>
-1.91858

>  <SCORE.INTRA.norm>
-0.0245648

>  <SCORE.RESTR>
0.00620932

>  <SCORE.RESTR.CAVITY>
0.00620932

>  <SCORE.RESTR.norm>
0.000200301

>  <SCORE.SYSTEM>
0

>  <SCORE.SYSTEM.CONST>
0

>  <SCORE.SYSTEM.DIHEDRAL>
0

>  <SCORE.SYSTEM.SOLV>
0

>  <SCORE.SYSTEM.norm>
0

>  <SCORE.heavy>
31

>  <SCORE.norm>
-0.687183

>  <RMSD>
6.793

$$$$
ligand
 OpenBabel11021811473D
libRbt.so/2013.1/901 2013/11/27
 31 33  0  0  0  0  0  0  0  0999 V2000
   28.0608   32.8364   14.3159 P   0  0  1  0  0  0  0  0  0  0  0  0
   28.1512   31.3652   14.6334 O   0  0  0  0  0  0  0  0  0  0  0  0
   29.3088   33.2488   13.5815 O   0  5  0  0  0  0  0  0  0  0  0  0
   26.8234   33.0195   13.4808 O   0  0  0  0  0  0  0  0  0  0  0  0
   27.8179   35.1568   15.5104 C   0  0  0  0  0  0  0  0  0  0  0  0
   27.9321   33.7539   15.6273 O   0  0  0  0  0  0  0  0  0  0  0  0
   27.6801   35.7674   16.9027 C   0  0  1  0  0  0  0  0  0  0  0  0
   28.8893   35.6051   17.6170 O   0  0  0  0  0  0  0  0  0  0  0  0
   27.3664   37.2499   16.7914 C   0  0  1  0  0  0  0  0  0  0  0  0
   26.2501   37.4059   15.9567 O   0  0  0  0  0  0  0  0  0  0  0  0
   27.0662   37.8868   18.1379 C   0  0  1  0  0  0  0  0  0  0  0  0
   26.1720   37.0558   18.8278 O   0  0  0  0  0  0  0  0  0  0  0  0
   28.3356   38.0461   18.9580 C   0  0  0  0  0  0  0  0  0  0  0  0
   28.5983   40.8298   18.6392 N   0  0  0  0  0  0  0  0  0  0  0  0
   28.7964   42.1798   18.4465 C   0  0  0  0  0  0  0  0  0  0  0  0
   29.0696   42.6089   17.3293 O   0  0  0  0  0  0  0  0  0  0  0  0
   28.6928   43.0577   19.5013 N   0  0  0  0  0  0  0  0  0  0  0  0
   28.3772   42.5934   20.7633 C   0  0  0  0  0  0  0  0  0  0  0  0
   28.1763   41.2328   20.9675 C   0  0  1  0  0  0  0  0  0  0  0  0
   28.2671   43.3860   21.7010 O   0  0  0  0  0  0  0  0  0  0  0  0
   27.6613   39.4093   22.4266 C   0  0  2  0  0  0  0  0  0  0  0  0
   27.8623   40.7617   22.2266 N   0  0  0  0  0  0  0  0  0  0  0  0
   27.3442   38.9344   23.6997 C   0  0  0  0  0  0  0  0  0  0  0  0
   27.1450   37.5754   23.9130 C   0  0  1  0  0  0  0  0  0  0  0  0
   26.8100   37.1022   25.2921 C   0  0  0  0  0  0  0  0  0  0  0  0
   27.2587   36.6777   22.8407 C   0  0  1  0  0  0  0  0  0  0  0  0
   27.0420   35.2010   23.0272 C   0  0  0  0  0  0  0  0  0  0  0  0
   27.5769   37.1544   21.5718 C   0  0  0  0  0  0  0  0  0  0  0  0
   27.7813   38.5187   21.3572 C   0  0  1  0  0  0  0  0  0  0  0  0
   28.2924   40.3491   19.8964 C   0  0  1  0  0  0  0  0  0  0  0  0
   28.1005   38.9952   20.0945 N   0  0  0  0  0  0  0  0  0  0  0  0
  1  2  1  1  0  0  0
  1  3  1  0  0  0  0
  1  4  2  0  0  0  0
  1  6  1  0  0  0  0
  5  6  1  0  0  0  0
  7  5  1  6  0  0  0
  7  8  1  0  0  0  0
  7  9  1  0  0  0  0
  9 10  1  6  0  0  0
  9 11  1  0  0  0  0
 11 12  1  1  0  0  0
 11 13  1  0  0  0  0
 13 31  1  0  0  0  0
 14 15  1  0  0  0  0
 15 16  2  0  0  0  0
 15 17  1  0  0  0  0
 17 18  1  0  0  0  0
 18 20  2  0  0  0  0
 19 18  1  6  0  0  0
 19 22  1  0  0  0  0
 19 30  1  0  0  0  0
 21 23  1  1  0  0  0
 21 29  1  0  0  0  0
 21 22  1  0  0  0  0
 23 24  1  0  0  0  0
 24 25  1  6  0  0  0
 24 26  1  0  0  0  0
 26 27  1  6  0  0  0
 26 28  1  0  0  0  0
 29 28  1  6  0  0  0
 29 31  1  0  0  0  0
 30 14  1  6  0  0  0
 30 31  1  0  0  0  0
M  CHG  1   3  -1
M  END
>  <CHROM.1>
178.73124860,-179.10455730,67.78074403,53.14220255,-46.49159270,164.51734056
96.23528748,27.83815981,37.57816185,18.80077703,1.58893922,-1.37996922,-2.35418713

>  <Name>
ligand

>  <RI>
0

>  <Rbt.Current_Directory>
/home/itssahil/PROJECTS/Mol_Feturizer/New_Systems/rnas/3F2T

>  <Rbt.Executable>
rbdock ($Id: //depot/dev/client3/rdock/2013.1/src/exe/rbdock.cxx#4 $)

>  <Rbt.Library>
libRbt.so (2013.1, Build901 2013/11/27)

>  <Rbt.Parameter_File>
/export/apps/rDock/src/rDock_2013.1_src/data/scripts/dock_solv.prm

>  <Rbt.Receptor>
prm/pocket_docking_7.prm

>  <SCORE>
-20.0262

>  <SCORE.INTER>
-19.9821

>  <SCORE.INTER.CONST>
1

>  <SCORE.INTER.POLAR>
0

>  <SCORE.INTER.ROT>
7

>  <SCORE.INTER.SOLV>
9.25942

>  <SCORE.INTER.VDW>
-24.6746

>  <SCORE.INTER.norm>
-0.644585

>  <SCORE.INTRA>
-0.0440448

>  <SCORE.INTRA.DIHEDRAL>
-1.44626

>  <SCORE.INTRA.DIHEDRAL.0>
4.64198

>  <SCORE.INTRA.POLAR>
0

>  <SCORE.INTRA.POLAR.0>
0

>  <SCORE.INTRA.REPUL>
0

>  <SCORE.INTRA.REPUL.0>
0

>  <SCORE.INTRA.SOLV>
0.0434193

>  <SCORE.INTRA.SOLV.lig_0>
-49.3611

>  <SCORE.INTRA.VDW>
0.657376

>  <SCORE.INTRA.VDW.0>
-1.91858

>  <SCORE.INTRA.norm>
-0.0014208

>  <SCORE.RESTR>
0

>  <SCORE.RESTR.CAVITY>
0

>  <SCORE.RESTR.norm>
0

>  <SCORE.SYSTEM>
0

>  <SCORE.SYSTEM.CONST>
0

>  <SCORE.SYSTEM.DIHEDRAL>
0

>  <SCORE.SYSTEM.SOLV>
0

>  <SCORE.SYSTEM.norm>
0

>  <SCORE.heavy>
31

>  <SCORE.norm>
-0.646006

>  <RMSD>
6.798

$$$$
ligand
 OpenBabel11021811473D
libRbt.so/2013.1/901 2013/11/27
 31 33  0  0  0  0  0  0  0  0999 V2000
   28.8520   32.9545   16.0201 P   0  0  1  0  0  0  0  0  0  0  0  0
   29.5678   31.9595   16.8981 O   0  0  0  0  0  0  0  0  0  0  0  0
   29.8093   33.4437   14.9659 O   0  5  0  0  0  0  0  0  0  0  0  0
   27.6736   32.2327   15.4265 O   0  0  0  0  0  0  0  0  0  0  0  0
   26.9260   34.4492   16.9829 C   0  0  0  0  0  0  0  0  0  0  0  0
   28.3132   34.2318   16.8304 O   0  0  0  0  0  0  0  0  0  0  0  0
   26.7036   35.6957   17.8355 C   0  0  1  0  0  0  0  0  0  0  0  0
   27.4036   35.5694   19.0574 O   0  0  0  0  0  0  0  0  0  0  0  0
   27.2096   36.9254   17.1003 C   0  0  1  0  0  0  0  0  0  0  0  0
   26.3831   37.1497   15.9895 O   0  0  0  0  0  0  0  0  0  0  0  0
   27.2092   38.1696   17.9726 C   0  0  1  0  0  0  0  0  0  0  0  0
   26.0369   38.1670   18.7418 O   0  0  0  0  0  0  0  0  0  0  0  0
   28.4147   38.1842   18.8978 C   0  0  0  0  0  0  0  0  0  0  0  0
   28.6332   40.9767   18.6258 N   0  0  0  0  0  0  0  0  0  0  0  0
   28.8097   42.3327   18.4556 C   0  0  0  0  0  0  0  0  0  0  0  0
   29.0720   42.7850   17.3450 O   0  0  0  0  0  0  0  0  0  0  0  0
   28.6966   43.1907   19.5257 N   0  0  0  0  0  0  0  0  0  0  0  0
   28.3930   42.7000   20.7807 C   0  0  0  0  0  0  0  0  0  0  0  0
   28.2138   41.3332   20.9622 C   0  0  1  0  0  0  0  0  0  0  0  0
   28.2742   43.4747   21.7322 O   0  0  0  0  0  0  0  0  0  0  0  0
   27.7326   39.4772   22.3916 C   0  0  2  0  0  0  0  0  0  0  0  0
   27.9120   40.8358   22.2141 N   0  0  0  0  0  0  0  0  0  0  0  0
   27.4277   38.9758   23.6575 C   0  0  0  0  0  0  0  0  0  0  0  0
   27.2503   37.6104   23.8481 C   0  0  1  0  0  0  0  0  0  0  0  0
   26.9278   37.1085   25.2200 C   0  0  0  0  0  0  0  0  0  0  0  0
   27.3737   36.7331   22.7602 C   0  0  1  0  0  0  0  0  0  0  0  0
   27.1805   35.2502   22.9220 C   0  0  0  0  0  0  0  0  0  0  0  0
   27.6797   37.2363   21.4985 C   0  0  0  0  0  0  0  0  0  0  0  0
   27.8622   38.6070   21.3066 C   0  0  1  0  0  0  0  0  0  0  0  0
   28.3396   40.4699   19.8757 C   0  0  1  0  0  0  0  0  0  0  0  0
   28.1693   39.1099   20.0512 N   0  0  0  0  0  0  0  0  0  0  0  0
  1  2  1  1  0  0  0
  1  3  1  0  0  0  0
  1  4  2  0  0  0  0
  1  6  1  0  0  0  0
  5  6  1  0  0  0  0
  7  5  1  6  0  0  0
  7  8  1  0  0  0  0
  7  9  1  0  0  0  0
  9 10  1  6  0  0  0
  9 11  1  0  0  0  0
 11 12  1  1  0  0  0
 11 13  1  0  0  0  0
 13 31  1  0  0  0  0
 14 15  1  0  0  0  0
 15 16  2  0  0  0  0
 15 17  1  0  0  0  0
 17 18  1  0  0  0  0
 18 20  2  0  0  0  0
 19 18  1  6  0  0  0
 19 22  1  0  0  0  0
 19 30  1  0  0  0  0
 21 23  1  1  0  0  0
 21 29  1  0  0  0  0
 21 22  1  0  0  0  0
 23 24  1  0  0  0  0
 24 25  1  6  0  0  0
 24 26  1  0  0  0  0
 26 27  1  6  0  0  0
 26 28  1  0  0  0  0
 29 28  1  6  0  0  0
 29 31  1  0  0  0  0
 30 14  1  6  0  0  0
 30 31  1  0  0  0  0
M  CHG  1   3  -1
M  END
>  <CHROM.1>
177.80549205,-112.77387391,-54.36463681,67.98330588,-40.53489099,-160.05294628
104.08742046,27.92977683,37.66033293,19.27117802,-1.42384713,1.39872375,0.42277399

>  <Name>
ligand

>  <RI>
0

>  <Rbt.Current_Directory>
/home/itssahil/PROJECTS/Mol_Feturizer/New_Systems/rnas/3F2T

>  <Rbt.Executable>
rbdock ($Id: //depot/dev/client3/rdock/2013.1/src/exe/rbdock.cxx#4 $)

>  <Rbt.Library>
libRbt.so (2013.1, Build901 2013/11/27)

>  <Rbt.Parameter_File>
/export/apps/rDock/src/rDock_2013.1_src/data/scripts/dock_solv.prm

>  <Rbt.Receptor>
prm/blind_docking_100.prm

>  <SCORE>
-19.1174

>  <SCORE.INTER>
-20.9946

>  <SCORE.INTER.CONST>
1

>  <SCORE.INTER.POLAR>
0

>  <SCORE.INTER.ROT>
7

>  <SCORE.INTER.SOLV>
11.3982

>  <SCORE.INTER.VDW>
-26.0625

>  <SCORE.INTER.norm>
-0.677246

>  <SCORE.INTRA>
1.87725

>  <SCORE.INTRA.DIHEDRAL>
1.96821

>  <SCORE.INTRA.DIHEDRAL.0>
4.64198

>  <SCORE.INTRA.POLAR>
0

>  <SCORE.INTRA.POLAR.0>
0

>  <SCORE.INTRA.REPUL>
0

>  <SCORE.INTRA.REPUL.0>
0

>  <SCORE.INTRA.SOLV>
0.476074

>  <SCORE.INTRA.SOLV.lig_0>
-49.3611

>  <SCORE.INTRA.VDW>
0.655103

>  <SCORE.INTRA.VDW.0>
-1.91858

>  <SCORE.INTRA.norm>
0.0605563

>  <SCORE.RESTR>
0

>  <SCORE.RESTR.CAVITY>
0

>  <SCORE.RESTR.norm>
0

>  <SCORE.SYSTEM>
0

>  <SCORE.SYSTEM.CONST>
0

>  <SCORE.SYSTEM.DIHEDRAL>
0

>  <SCORE.SYSTEM.SOLV>
0

>  <SCORE.SYSTEM.norm>
0

>  <SCORE.heavy>
31

>  <SCORE.norm>
-0.61669

>  <RMSD>
6.813

$$$$
ligand
 OpenBabel11021811473D
libRbt.so/2013.1/901 2013/11/27
 31 33  0  0  0  0  0  0  0  0999 V2000
   29.0503   33.0770   16.8104 P   0  0  1  0  0  0  0  0  0  0  0  0
   30.1261   34.1314   16.7463 O   0  0  0  0  0  0  0  0  0  0  0  0
   29.4556   31.9208   15.9353 O   0  5  0  0  0  0  0  0  0  0  0  0
   28.9253   32.6793   18.2554 O   0  0  0  0  0  0  0  0  0  0  0  0
   27.4342   34.9721   15.9934 C   0  0  0  0  0  0  0  0  0  0  0  0
   27.6225   33.6065   16.3011 O   0  0  0  0  0  0  0  0  0  0  0  0
   27.4087   35.7800   17.2883 C   0  0  1  0  0  0  0  0  0  0  0  0
   27.1307   34.9247   18.3792 O   0  0  0  0  0  0  0  0  0  0  0  0
   28.7562   36.4454   17.5124 C   0  0  1  0  0  0  0  0  0  0  0  0
   29.0207   37.2895   16.4239 O   0  0  0  0  0  0  0  0  0  0  0  0
   28.7983   37.2647   18.7914 C   0  0  1  0  0  0  0  0  0  0  0  0
   30.0548   37.8809   18.8778 O   0  0  0  0  0  0  0  0  0  0  0  0
   27.7167   38.3322   18.7880 C   0  0  0  0  0  0  0  0  0  0  0  0
   28.2431   41.0921   18.6284 N   0  0  0  0  0  0  0  0  0  0  0  0
   28.5596   42.4270   18.4991 C   0  0  0  0  0  0  0  0  0  0  0  0
   28.6537   42.9325   17.3845 O   0  0  0  0  0  0  0  0  0  0  0  0
   28.7751   43.2041   19.6143 N   0  0  0  0  0  0  0  0  0  0  0  0
   28.6643   42.6541   20.8765 C   0  0  0  0  0  0  0  0  0  0  0  0
   28.3462   41.3078   21.0168 C   0  0  1  0  0  0  0  0  0  0  0  0
   28.8398   43.3588   21.8725 O   0  0  0  0  0  0  0  0  0  0  0  0
   27.9175   39.4134   22.4121 C   0  0  2  0  0  0  0  0  0  0  0  0
   28.2357   40.7511   22.2752 N   0  0  0  0  0  0  0  0  0  0  0  0
   27.8063   38.8520   23.6847 C   0  0  0  0  0  0  0  0  0  0  0  0
   27.4919   37.5063   23.8336 C   0  0  1  0  0  0  0  0  0  0  0  0
   27.3846   36.9380   25.2133 C   0  0  0  0  0  0  0  0  0  0  0  0
   27.2803   36.7102   22.6977 C   0  0  1  0  0  0  0  0  0  0  0  0
   26.9293   35.2524   22.8155 C   0  0  0  0  0  0  0  0  0  0  0  0
   27.3936   37.2730   21.4292 C   0  0  0  0  0  0  0  0  0  0  0  0
   27.7136   38.6235   21.2783 C   0  0  1  0  0  0  0  0  0  0  0  0
   28.1390   40.5253   19.8826 C   0  0  1  0  0  0  0  0  0  0  0  0
   27.8291   39.1853   20.0157 N   0  0  0  0  0  0  0  0  0  0  0  0
  1  2  1  6  0  0  0
  1  3  1  0  0  0  0
  1  4  2  0  0  0  0
  1  6  1  0  0  0  0
  5  6  1  0  0  0  0
  7  5  1  6  0  0  0
  7  8  1  0  0  0  0
  7  9  1  0  0  0  0
  9 10  1  6  0  0  0
  9 11  1  0  0  0  0
 11 12  1  6  0  0  0
 11 13  1  0  0  0  0
 13 31  1  0  0  0  0
 14 15  1  0  0  0  0
 15 16  2  0  0  0  0
 15 17  1  0  0  0  0
 17 18  1  0  0  0  0
 18 20  2  0  0  0  0
 19 18  1  1  0  0  0
 19 22  1  0  0  0  0
 19 30  1  0  0  0  0
 21 23  1  6  0  0  0
 21 29  1  0  0  0  0
 21 22  1  0  0  0  0
 23 24  1  0  0  0  0
 24 25  1  1  0  0  0
 24 26  1  0  0  0  0
 26 27  1  1  0  0  0
 26 28  1  0  0  0  0
 29 28  1  1  0  0  0
 29 31  1  0  0  0  0
 30 14  1  1  0  0  0
 30 31  1  0  0  0  0
M  CHG  1   3  -1
M  END
>  <CHROM.1>
-72.38720992,-6.96626334,-19.49459207,59.59168412,-177.48525686,-176.39605180
-60.12495752,28.31227448,37.63489456,19.42690050,-1.34785423,1.36649206,0.28032006

>  <Name>
ligand

>  <RI>
0

>  <Rbt.Current_Directory>
/home/itssahil/PROJECTS/Mol_Feturizer/New_Systems/rnas/3F2T

>  <Rbt.Executable>
rbdock ($Id: //depot/dev/client3/rdock/2013.1/src/exe/rbdock.cxx#4 $)

>  <Rbt.Library>
libRbt.so (2013.1, Build901 2013/11/27)

>  <Rbt.Parameter_File>
/export/apps/rDock/src/rDock_2013.1_src/data/scripts/dock_solv.prm

>  <Rbt.Receptor>
prm/blind_docking_100.prm

>  <SCORE>
-15.0787

>  <SCORE.INTER>
-18.8866

>  <SCORE.INTER.CONST>
1

>  <SCORE.INTER.POLAR>
0

>  <SCORE.INTER.ROT>
7

>  <SCORE.INTER.SOLV>
15.1064

>  <SCORE.INTER.VDW>
-25.8932

>  <SCORE.INTER.norm>
-0.609245

>  <SCORE.INTRA>
3.80784

>  <SCORE.INTRA.DIHEDRAL>
3.6694

>  <SCORE.INTRA.DIHEDRAL.0>
4.64198

>  <SCORE.INTRA.POLAR>
0

>  <SCORE.INTRA.POLAR.0>
0

>  <SCORE.INTRA.REPUL>
0

>  <SCORE.INTRA.REPUL.0>
0

>  <SCORE.INTRA.SOLV>
2.4568

>  <SCORE.INTRA.SOLV.lig_0>
-49.3611

>  <SCORE.INTRA.VDW>
0.74474

>  <SCORE.INTRA.VDW.0>
-1.91858

>  <SCORE.INTRA.norm>
0.122834

>  <SCORE.RESTR>
0

>  <SCORE.RESTR.CAVITY>
0

>  <SCORE.RESTR.norm>
0

>  <SCORE.SYSTEM>
0

>  <SCORE.SYSTEM.CONST>
0

>  <SCORE.SYSTEM.DIHEDRAL>
0

>  <SCORE.SYSTEM.SOLV>
0

>  <SCORE.SYSTEM.norm>
0

>  <SCORE.heavy>
31

>  <SCORE.norm>
-0.486411

>  <RMSD>
6.834

$$$$
ligand
 OpenBabel11021811473D
libRbt.so/2013.1/901 2013/11/27
 31 33  0  0  0  0  0  0  0  0999 V2000
   29.8545   41.0794   27.2173 P   0  0  1  0  0  0  0  0  0  0  0  0
   29.6609   39.7027   26.6337 O   0  0  0  0  0  0  0  0  0  0  0  0
   30.0868   40.9467   28.6990 O   0  5  0  0  0  0  0  0  0  0  0  0
   31.0359   41.6831   26.5088 O   0  0  0  0  0  0  0  0  0  0  0  0
   28.2113   42.4458   25.6997 C   0  0  0  0  0  0  0  0  0  0  0  0
   28.5842   42.0370   26.9992 O   0  0  0  0  0  0  0  0  0  0  0  0
   27.8838   41.2138   24.8600 C   0  0  1  0  0  0  0  0  0  0  0  0
   26.8218   40.4972   25.4579 O   0  0  0  0  0  0  0  0  0  0  0  0
   27.4704   41.6341   23.4596 C   0  0  1  0  0  0  0  0  0  0  0  0
   28.4609   42.4803   22.9397 O   0  0  0  0  0  0  0  0  0  0  0  0
   27.2929   40.4513   22.5225 C   0  0  1  0  0  0  0  0  0  0  0  0
   26.8372   40.9333   21.2873 O   0  0  0  0  0  0  0  0  0  0  0  0
   28.6083   39.7180   22.3190 C   0  0  0  0  0  0  0  0  0  0  0  0
   27.2450   37.7628   23.8151 N   0  0  0  0  0  0  0  0  0  0  0  0
   26.6241   36.8235   24.6095 C   0  0  0  0  0  0  0  0  0  0  0  0
   26.1974   37.1384   25.7166 O   0  0  0  0  0  0  0  0  0  0  0  0
   26.4787   35.5266   24.1726 N   0  0  0  0  0  0  0  0  0  0  0  0
   26.9447   35.1570   22.9260 C   0  0  0  0  0  0  0  0  0  0  0  0
   27.5732   36.0978   22.1177 C   0  0  1  0  0  0  0  0  0  0  0  0
   26.7952   33.9987   22.5316 O   0  0  0  0  0  0  0  0  0  0  0  0
   28.6656   36.6719   20.0691 C   0  0  2  0  0  0  0  0  0  0  0  0
   28.0430   35.7347   20.8714 N   0  0  0  0  0  0  0  0  0  0  0  0
   29.1401   36.3036   18.8097 C   0  0  0  0  0  0  0  0  0  0  0  0
   29.7724   37.2371   17.9968 C   0  0  1  0  0  0  0  0  0  0  0  0
   30.2715   36.8054   16.6543 C   0  0  0  0  0  0  0  0  0  0  0  0
   29.9294   38.5577   18.4439 C   0  0  1  0  0  0  0  0  0  0  0  0
   30.5995   39.6003   17.5917 C   0  0  0  0  0  0  0  0  0  0  0  0
   29.4563   38.9218   19.7018 C   0  0  0  0  0  0  0  0  0  0  0  0
   28.8248   37.9841   20.5209 C   0  0  1  0  0  0  0  0  0  0  0  0
   27.7253   37.4065   22.5711 C   0  0  1  0  0  0  0  0  0  0  0  0
   28.3550   38.3441   21.7750 N   0  0  0  0  0  0  0  0  0  0  0  0
  1  2  1  6  0  0  0
  1  3  1  0  0  0  0
  1  4  2  0  0  0  0
  1  6  1  0  0  0  0
  5  6  1  0  0  0  0
  7  5  1  1  0  0  0
  7  8  1  0  0  0  0
  7  9  1  0  0  0  0
  9 10  1  6  0  0  0
  9 11  1  0  0  0  0
 11 12  1  6  0  0  0
 11 13  1  0  0  0  0
 13 31  1  0  0  0  0
 14 15  1  0  0  0  0
 15 16  2  0  0  0  0
 15 17  1  0  0  0  0
 17 18  1  0  0  0  0
 18 20  2  0  0  0  0
 19 18  1  6  0  0  0
 19 22  1  0  0  0  0
 19 30  1  0  0  0  0
 21 23  1  1  0  0  0
 21 29  1  0  0  0  0
 21 22  1  0  0  0  0
 23 24  1  0  0  0  0
 24 25  1  6  0  0  0
 24 26  1  0  0  0  0
 26 27  1  6  0  0  0
 26 28  1  0  0  0  0
 29 28  1  6  0  0  0
 29 31  1  0  0  0  0
 30 14  1  6  0  0  0
 30 31  1  0  0  0  0
M  CHG  1   3  -1
M  END
>  <CHROM.1>
60.28423655,-65.95302152,59.69204350,52.49299690,176.53695081,161.97933825
116.79905554,28.43242957,38.92940428,23.08120667,-1.54782095,-1.11951952
-2.06722417

>  <Name>
ligand

>  <RI>
0

>  <Rbt.Current_Directory>
/home/itssahil/PROJECTS/Mol_Feturizer/New_Systems/rnas/3F2T

>  <Rbt.Executable>
rbdock ($Id: //depot/dev/client3/rdock/2013.1/src/exe/rbdock.cxx#4 $)

>  <Rbt.Library>
libRbt.so (2013.1, Build901 2013/11/27)

>  <Rbt.Parameter_File>
/export/apps/rDock/src/rDock_2013.1_src/data/scripts/dock_solv.prm

>  <Rbt.Receptor>
prm/blind_docking_100.prm

>  <SCORE>
-28.4314

>  <SCORE.INTER>
-28.1194

>  <SCORE.INTER.CONST>
1

>  <SCORE.INTER.POLAR>
0

>  <SCORE.INTER.ROT>
7

>  <SCORE.INTER.SOLV>
16.2015

>  <SCORE.INTER.VDW>
-32.4134

>  <SCORE.INTER.norm>
-0.907078

>  <SCORE.INTRA>
-0.311936

>  <SCORE.INTRA.DIHEDRAL>
-1.9883

>  <SCORE.INTRA.DIHEDRAL.0>
4.64198

>  <SCORE.INTRA.POLAR>
0

>  <SCORE.INTRA.POLAR.0>
0

>  <SCORE.INTRA.REPUL>
0

>  <SCORE.INTRA.REPUL.0>
0

>  <SCORE.INTRA.SOLV>
0.867832

>  <SCORE.INTRA.SOLV.lig_0>
-49.3611

>  <SCORE.INTRA.VDW>
0.248297

>  <SCORE.INTRA.VDW.0>
-1.91858

>  <SCORE.INTRA.norm>
-0.0100624

>  <SCORE.RESTR>
0

>  <SCORE.RESTR.CAVITY>
0

>  <SCORE.RESTR.norm>
0

>  <SCORE.SYSTEM>
0

>  <SCORE.SYSTEM.CONST>
0

>  <SCORE.SYSTEM.DIHEDRAL>
0

>  <SCORE.SYSTEM.SOLV>
0

>  <SCORE.SYSTEM.norm>
0

>  <SCORE.heavy>
31

>  <SCORE.norm>
-0.91714

>  <RMSD>
6.856

$$$$
ligand
 OpenBabel11021811473D
libRbt.so/2013.1/901 2013/11/27
 31 33  0  0  0  0  0  0  0  0999 V2000
   26.9836   32.7210   13.4048 P   0  0  1  0  0  0  0  0  0  0  0  0
   27.0670   31.5248   14.3189 O   0  0  0  0  0  0  0  0  0  0  0  0
   28.0641   32.6076   12.3624 O   0  5  0  0  0  0  0  0  0  0  0  0
   25.6066   32.7033   12.8001 O   0  0  0  0  0  0  0  0  0  0  0  0
   26.4086   34.4196   15.3165 C   0  0  0  0  0  0  0  0  0  0  0  0
   27.1846   34.1147   14.1764 O   0  0  0  0  0  0  0  0  0  0  0  0
   26.8030   35.7989   15.8384 C   0  0  1  0  0  0  0  0  0  0  0  0
   26.5515   36.7744   14.8465 O   0  0  0  0  0  0  0  0  0  0  0  0
   25.9942   36.1356   17.0798 C   0  0  1  0  0  0  0  0  0  0  0  0
   26.2771   35.1798   18.0665 O   0  0  0  0  0  0  0  0  0  0  0  0
   26.3118   37.5168   17.6278 C   0  0  1  0  0  0  0  0  0  0  0  0
   25.3873   37.8117   18.6399 O   0  0  0  0  0  0  0  0  0  0  0  0
   27.7169   37.5616   18.2051 C   0  0  0  0  0  0  0  0  0  0  0  0
   28.1654   40.2982   17.7255 N   0  0  0  0  0  0  0  0  0  0  0  0
   28.4450   41.6175   17.4426 C   0  0  0  0  0  0  0  0  0  0  0  0
   28.5429   41.9901   16.2771 O   0  0  0  0  0  0  0  0  0  0  0  0
   28.6191   42.5275   18.4603 N   0  0  0  0  0  0  0  0  0  0  0  0
   28.5034   42.1276   19.7773 C   0  0  0  0  0  0  0  0  0  0  0  0
   28.2222   40.7983   20.0724 C   0  0  1  0  0  0  0  0  0  0  0  0
   28.6416   42.9504   20.6847 O   0  0  0  0  0  0  0  0  0  0  0  0
   27.8257   39.0701   21.6774 C   0  0  2  0  0  0  0  0  0  0  0  0
   28.1070   40.3914   21.3866 N   0  0  0  0  0  0  0  0  0  0  0  0
   27.7097   38.6601   23.0060 C   0  0  0  0  0  0  0  0  0  0  0  0
   27.4321   37.3325   23.3097 C   0  0  1  0  0  0  0  0  0  0  0  0
   27.3184   36.9285   24.7456 C   0  0  0  0  0  0  0  0  0  0  0  0
   27.2628   36.4014   22.2739 C   0  0  1  0  0  0  0  0  0  0  0  0
   26.9524   34.9576   22.5595 C   0  0  0  0  0  0  0  0  0  0  0  0
   27.3808   36.8132   20.9490 C   0  0  0  0  0  0  0  0  0  0  0  0
   27.6638   38.1455   20.6429 C   0  0  1  0  0  0  0  0  0  0  0  0
   28.0569   39.8809   19.0367 C   0  0  1  0  0  0  0  0  0  0  0  0
   27.7840   38.5571   19.3240 N   0  0  0  0  0  0  0  0  0  0  0  0
  1  2  1  1  0  0  0
  1  3  1  0  0  0  0
  1  4  2  0  0  0  0
  1  6  1  0  0  0  0
  5  6  1  0  0  0  0
  7  5  1  6  0  0  0
  7  8  1  0  0  0  0
  7  9  1  0  0  0  0
  9 10  1  1  0  0  0
  9 11  1  0  0  0  0
 11 12  1  1  0  0  0
 11 13  1  0  0  0  0
 13 31  1  0  0  0  0
 14 15  1  0  0  0  0
 15 16  2  0  0  0  0
 15 17  1  0  0  0  0
 17 18  1  0  0  0  0
 18 20  2  0  0  0  0
 19 18  1  6  0  0  0
 19 22  1  0  0  0  0
 19 30  1  0  0  0  0
 21 23  1  1  0  0  0
 21 29  1  0  0  0  0
 21 22  1  0  0  0  0
 23 24  1  0  0  0  0
 24 25  1  6  0  0  0
 24 26  1  0  0  0  0
 26 27  1  6  0  0  0
 26 28  1  0  0  0  0
 29 28  1  6  0  0  0
 29 31  1  0  0  0  0
 30 14  1  6  0  0  0
 30 31  1  0  0  0  0
M  CHG  1   3  -1
M  END
>  <CHROM.1>
-179.76494901,-52.29975738,61.01277265,61.06125862,171.43053493,-149.96087043
96.89856941,27.34236658,37.25214737,18.08435414,-2.20269501,1.36767211,1.43251306

>  <Name>
ligand

>  <RI>
0

>  <Rbt.Current_Directory>
/home/itssahil/PROJECTS/Mol_Feturizer/New_Systems/rnas/3F2T

>  <Rbt.Executable>
rbdock ($Id: //depot/dev/client3/rdock/2013.1/src/exe/rbdock.cxx#4 $)

>  <Rbt.Library>
libRbt.so (2013.1, Build901 2013/11/27)

>  <Rbt.Parameter_File>
/export/apps/rDock/src/rDock_2013.1_src/data/scripts/dock_solv.prm

>  <Rbt.Receptor>
prm/pocket_docking_6.prm

>  <SCORE>
-19.251

>  <SCORE.INTER>
-19.1872

>  <SCORE.INTER.CONST>
1

>  <SCORE.INTER.POLAR>
0

>  <SCORE.INTER.ROT>
7

>  <SCORE.INTER.SOLV>
9.96171

>  <SCORE.INTER.VDW>
-24.3787

>  <SCORE.INTER.norm>
-0.618943

>  <SCORE.INTRA>
-0.0637595

>  <SCORE.INTRA.DIHEDRAL>
-0.302173

>  <SCORE.INTRA.DIHEDRAL.0>
4.64198

>  <SCORE.INTRA.POLAR>
0

>  <SCORE.INTRA.POLAR.0>
0

>  <SCORE.INTRA.REPUL>
0

>  <SCORE.INTRA.REPUL.0>
0

>  <SCORE.INTRA.SOLV>
-0.650141

>  <SCORE.INTRA.SOLV.lig_0>
-49.3611

>  <SCORE.INTRA.VDW>
0.412398

>  <SCORE.INTRA.VDW.0>
-1.91858

>  <SCORE.INTRA.norm>
-0.00205676

>  <SCORE.RESTR>
0

>  <SCORE.RESTR.CAVITY>
0

>  <SCORE.RESTR.norm>
0

>  <SCORE.SYSTEM>
0

>  <SCORE.SYSTEM.CONST>
0

>  <SCORE.SYSTEM.DIHEDRAL>
0

>  <SCORE.SYSTEM.SOLV>
0

>  <SCORE.SYSTEM.norm>
0

>  <SCORE.heavy>
31

>  <SCORE.norm>
-0.621

>  <RMSD>
6.863

$$$$
ligand
 OpenBabel11021811473D
libRbt.so/2013.1/901 2013/11/27
 31 33  0  0  0  0  0  0  0  0999 V2000
   27.8457   33.4538   19.6700 P   0  0  1  0  0  0  0  0  0  0  0  0
   28.5214   32.1195   19.4795 O   0  0  0  0  0  0  0  0  0  0  0  0
   26.4969   33.4111   19.0024 O   0  5  0  0  0  0  0  0  0  0  0  0
   27.7384   33.6720   21.1542 O   0  0  0  0  0  0  0  0  0  0  0  0
   29.0498   34.6489   17.6718 C   0  0  0  0  0  0  0  0  0  0  0  0
   28.6747   34.6727   19.0333 O   0  0  0  0  0  0  0  0  0  0  0  0
   29.7795   35.9451   17.3290 C   0  0  1  0  0  0  0  0  0  0  0  0
   30.2109   35.9084   15.9831 O   0  0  0  0  0  0  0  0  0  0  0  0
   28.8487   37.1311   17.5179 C   0  0  1  0  0  0  0  0  0  0  0  0
   27.5821   36.7842   17.0254 O   0  0  0  0  0  0  0  0  0  0  0  0
   28.7139   37.5425   18.9744 C   0  0  1  0  0  0  0  0  0  0  0  0
   29.8694   38.2470   19.3411 O   0  0  0  0  0  0  0  0  0  0  0  0
   27.4995   38.4333   19.1766 C   0  0  0  0  0  0  0  0  0  0  0  0
   28.1112   41.1575   18.8235 N   0  0  0  0  0  0  0  0  0  0  0  0
   28.4654   42.4698   18.5970 C   0  0  0  0  0  0  0  0  0  0  0  0
   28.5064   42.9076   17.4510 O   0  0  0  0  0  0  0  0  0  0  0  0
   28.7782   43.2996   19.6494 N   0  0  0  0  0  0  0  0  0  0  0  0
   28.7284   42.8262   20.9461 C   0  0  0  0  0  0  0  0  0  0  0  0
   28.3727   41.5033   21.1843 C   0  0  1  0  0  0  0  0  0  0  0  0
   28.9912   43.5787   21.8865 O   0  0  0  0  0  0  0  0  0  0  0  0
   27.9672   39.7085   22.7120 C   0  0  2  0  0  0  0  0  0  0  0  0
   28.3228   41.0231   22.4777 N   0  0  0  0  0  0  0  0  0  0  0  0
   27.9172   39.2244   24.0197 C   0  0  0  0  0  0  0  0  0  0  0  0
   27.5659   37.9024   24.2663 C   0  0  1  0  0  0  0  0  0  0  0  0
   27.5263   37.4174   25.6809 C   0  0  0  0  0  0  0  0  0  0  0  0
   27.2550   37.0524   23.1942 C   0  0  1  0  0  0  0  0  0  0  0  0
   26.8613   35.6181   23.4185 C   0  0  0  0  0  0  0  0  0  0  0  0
   27.3074   37.5379   21.8903 C   0  0  0  0  0  0  0  0  0  0  0  0
   27.6643   38.8644   21.6411 C   0  0  1  0  0  0  0  0  0  0  0  0
   28.0669   40.6667   20.1128 C   0  0  1  0  0  0  0  0  0  0  0  0
   27.7193   39.3493   20.3430 N   0  0  0  0  0  0  0  0  0  0  0  0
  1  2  1  6  0  0  0
  1  3  1  0  0  0  0
  1  4  2  0  0  0  0
  1  6  1  0  0  0  0
  5  6  1  0  0  0  0
  7  5  1  6  0  0  0
  7  8  1  0  0  0  0
  7  9  1  0  0  0  0
  9 10  1  1  0  0  0
  9 11  1  0  0  0  0
 11 12  1  6  0  0  0
 11 13  1  0  0  0  0
 13 31  1  0  0  0  0
 14 15  1  0  0  0  0
 15 16  2  0  0  0  0
 15 17  1  0  0  0  0
 17 18  1  0  0  0  0
 18 20  2  0  0  0  0
 19 18  1  1  0  0  0
 19 22  1  0  0  0  0
 19 30  1  0  0  0  0
 21 23  1  6  0  0  0
 21 29  1  0  0  0  0
 21 22  1  0  0  0  0
 23 24  1  0  0  0  0
 24 25  1  1  0  0  0
 24 26  1  0  0  0  0
 26 27  1  1  0  0  0
 26 28  1  0  0  0  0
 29 28  1  1  0  0  0
 29 31  1  0  0  0  0
 30 14  1  1  0  0  0
 30 31  1  0  0  0  0
M  CHG  1   3  -1
M  END
>  <CHROM.1>
178.06882717,55.16412835,177.48391019,-41.16258350,76.75661089,-152.11997562
-73.91058751,28.22400790,37.89171540,20.19793020,1.72050829,-1.34422008,-2.80805011

>  <Name>
ligand

>  <RI>
0

>  <Rbt.Current_Directory>
/home/itssahil/PROJECTS/Mol_Feturizer/New_Systems/rnas/3F2T

>  <Rbt.Executable>
rbdock ($Id: //depot/dev/client3/rdock/2013.1/src/exe/rbdock.cxx#4 $)

>  <Rbt.Library>
libRbt.so (2013.1, Build901 2013/11/27)

>  <Rbt.Parameter_File>
/export/apps/rDock/src/rDock_2013.1_src/data/scripts/dock_solv.prm

>  <Rbt.Receptor>
prm/blind_docking_80.prm

>  <SCORE>
-21.8153

>  <SCORE.INTER>
-23.8257

>  <SCORE.INTER.CONST>
1

>  <SCORE.INTER.POLAR>
0

>  <SCORE.INTER.ROT>
7

>  <SCORE.INTER.SOLV>
16.7667

>  <SCORE.INTER.VDW>
-29.7394

>  <SCORE.INTER.norm>
-0.768571

>  <SCORE.INTRA>
2.01044

>  <SCORE.INTRA.DIHEDRAL>
1.08237

>  <SCORE.INTRA.DIHEDRAL.0>
4.64198

>  <SCORE.INTRA.POLAR>
0

>  <SCORE.INTRA.POLAR.0>
0

>  <SCORE.INTRA.REPUL>
0

>  <SCORE.INTRA.REPUL.0>
0

>  <SCORE.INTRA.SOLV>
1.13583

>  <SCORE.INTRA.SOLV.lig_0>
-49.3611

>  <SCORE.INTRA.VDW>
0.901336

>  <SCORE.INTRA.VDW.0>
-1.91858

>  <SCORE.INTRA.norm>
0.0648528

>  <SCORE.RESTR>
0

>  <SCORE.RESTR.CAVITY>
0

>  <SCORE.RESTR.norm>
0

>  <SCORE.SYSTEM>
0

>  <SCORE.SYSTEM.CONST>
0

>  <SCORE.SYSTEM.DIHEDRAL>
0

>  <SCORE.SYSTEM.SOLV>
0

>  <SCORE.SYSTEM.norm>
0

>  <SCORE.heavy>
31

>  <SCORE.norm>
-0.703718

>  <RMSD>
6.892

$$$$
ligand
 OpenBabel11021811473D
libRbt.so/2013.1/901 2013/11/27
 31 33  0  0  0  0  0  0  0  0999 V2000
   29.1895   32.4937   15.1738 P   0  0  1  0  0  0  0  0  0  0  0  0
   27.8300   31.9213   14.8619 O   0  0  0  0  0  0  0  0  0  0  0  0
   29.7863   31.7216   16.3204 O   0  5  0  0  0  0  0  0  0  0  0  0
   30.0065   32.3673   13.9174 O   0  0  0  0  0  0  0  0  0  0  0  0
   28.0548   34.5403   16.3546 C   0  0  0  0  0  0  0  0  0  0  0  0
   29.1361   34.0424   15.5945 O   0  0  0  0  0  0  0  0  0  0  0  0
   28.3634   35.9704   16.7903 C   0  0  1  0  0  0  0  0  0  0  0  0
   28.7524   36.7378   15.6685 O   0  0  0  0  0  0  0  0  0  0  0  0
   27.1309   36.6002   17.4172 C   0  0  1  0  0  0  0  0  0  0  0  0
   26.7010   35.7805   18.4710 O   0  0  0  0  0  0  0  0  0  0  0  0
   27.3975   37.9954   17.9569 C   0  0  1  0  0  0  0  0  0  0  0  0
   26.2052   38.4904   18.5041 O   0  0  0  0  0  0  0  0  0  0  0  0
   28.4680   37.9648   19.0351 C   0  0  0  0  0  0  0  0  0  0  0  0
   28.6537   40.7365   18.5843 N   0  0  0  0  0  0  0  0  0  0  0  0
   28.8162   42.0812   18.3309 C   0  0  0  0  0  0  0  0  0  0  0  0
   29.1277   42.4629   17.2066 O   0  0  0  0  0  0  0  0  0  0  0  0
   28.6338   43.0069   19.3328 N   0  0  0  0  0  0  0  0  0  0  0  0
   28.2742   42.5960   20.6015 C   0  0  0  0  0  0  0  0  0  0  0  0
   28.1087   41.2411   20.8668 C   0  0  1  0  0  0  0  0  0  0  0  0
   28.0937   43.4304   21.4907 O   0  0  0  0  0  0  0  0  0  0  0  0
   27.5855   39.4764   22.3937 C   0  0  2  0  0  0  0  0  0  0  0  0
   27.7512   40.8233   22.1330 N   0  0  0  0  0  0  0  0  0  0  0  0
   27.2242   39.0554   23.6740 C   0  0  0  0  0  0  0  0  0  0  0  0
   27.0600   37.7027   23.9483 C   0  0  1  0  0  0  0  0  0  0  0  0
   26.6758   37.2880   25.3334 C   0  0  0  0  0  0  0  0  0  0  0  0
   27.2539   36.7567   22.9304 C   0  0  1  0  0  0  0  0  0  0  0  0
   27.0774   35.2845   23.1834 C   0  0  0  0  0  0  0  0  0  0  0  0
   27.6160   37.1798   21.6543 C   0  0  0  0  0  0  0  0  0  0  0  0
   27.7853   38.5378   21.3786 C   0  0  1  0  0  0  0  0  0  0  0  0
   28.3046   40.3093   19.8495 C   0  0  1  0  0  0  0  0  0  0  0  0
   28.1482   38.9611   20.1088 N   0  0  0  0  0  0  0  0  0  0  0  0
  1  2  1  6  0  0  0
  1  3  1  0  0  0  0
  1  4  2  0  0  0  0
  1  6  1  0  0  0  0
  5  6  1  0  0  0  0
  7  5  1  6  0  0  0
  7  8  1  0  0  0  0
  7  9  1  0  0  0  0
  9 10  1  1  0  0  0
  9 11  1  0  0  0  0
 11 12  1  1  0  0  0
 11 13  1  0  0  0  0
 13 31  1  0  0  0  0
 14 15  1  0  0  0  0
 15 16  2  0  0  0  0
 15 17  1  0  0  0  0
 17 18  1  0  0  0  0
 18 20  2  0  0  0  0
 19 18  1  6  0  0  0
 19 22  1  0  0  0  0
 19 30  1  0  0  0  0
 21 23  1  1  0  0  0
 21 29  1  0  0  0  0
 21 22  1  0  0  0  0
 23 24  1  0  0  0  0
 24 25  1  6  0  0  0
 24 26  1  0  0  0  0
 26 27  1  6  0  0  0
 26 28  1  0  0  0  0
 29 28  1  6  0  0  0
 29 31  1  0  0  0  0
 30 14  1  6  0  0  0
 30 31  1  0  0  0  0
M  CHG  1   3  -1
M  END
>  <CHROM.1>
171.34303629,35.92349665,51.16063456,55.62817289,179.65908531,-143.41010000
111.49630813,28.10515669,37.51891079,19.00595799,1.12176189,-1.32253395,-2.90669602

>  <Name>
ligand

>  <RI>
0

>  <Rbt.Current_Directory>
/home/itssahil/PROJECTS/Mol_Feturizer/New_Systems/rnas/3F2T

>  <Rbt.Executable>
rbdock ($Id: //depot/dev/client3/rdock/2013.1/src/exe/rbdock.cxx#4 $)

>  <Rbt.Library>
libRbt.so (2013.1, Build901 2013/11/27)

>  <Rbt.Parameter_File>
/export/apps/rDock/src/rDock_2013.1_src/data/scripts/dock_solv.prm

>  <Rbt.Receptor>
prm/pocket_docking_4.prm

>  <SCORE>
-17.5467

>  <SCORE.INTER>
-18.9441

>  <SCORE.INTER.CONST>
1

>  <SCORE.INTER.POLAR>
0

>  <SCORE.INTER.ROT>
7

>  <SCORE.INTER.SOLV>
11.0833

>  <SCORE.INTER.VDW>
-24.5905

>  <SCORE.INTER.norm>
-0.611099

>  <SCORE.INTRA>
1.39738

>  <SCORE.INTRA.DIHEDRAL>
1.75982

>  <SCORE.INTRA.DIHEDRAL.0>
4.64198

>  <SCORE.INTRA.POLAR>
0

>  <SCORE.INTRA.POLAR.0>
0

>  <SCORE.INTRA.REPUL>
0

>  <SCORE.INTRA.REPUL.0>
0

>  <SCORE.INTRA.SOLV>
-0.708739

>  <SCORE.INTRA.SOLV.lig_0>
-49.3611

>  <SCORE.INTRA.VDW>
0.871843

>  <SCORE.INTRA.VDW.0>
-1.91858

>  <SCORE.INTRA.norm>
0.0450769

>  <SCORE.RESTR>
0

>  <SCORE.RESTR.CAVITY>
0

>  <SCORE.RESTR.norm>
0

>  <SCORE.SYSTEM>
0

>  <SCORE.SYSTEM.CONST>
0

>  <SCORE.SYSTEM.DIHEDRAL>
0

>  <SCORE.SYSTEM.SOLV>
0

>  <SCORE.SYSTEM.norm>
0

>  <SCORE.heavy>
31

>  <SCORE.norm>
-0.566022

>  <RMSD>
6.915

$$$$
ligand
 OpenBabel11021811473D
libRbt.so/2013.1/901 2013/11/27
 31 33  0  0  0  0  0  0  0  0999 V2000
   32.6378   34.6312   14.3051 P   0  0  1  0  0  0  0  0  0  0  0  0
   34.1255   34.8365   14.4387 O   0  0  0  0  0  0  0  0  0  0  0  0
   32.2431   34.8811   12.8737 O   0  5  0  0  0  0  0  0  0  0  0  0
   32.3603   33.2160   14.7321 O   0  0  0  0  0  0  0  0  0  0  0  0
   31.9474   37.0210   15.1310 C   0  0  0  0  0  0  0  0  0  0  0  0
   31.7823   35.6222   15.2347 O   0  0  0  0  0  0  0  0  0  0  0  0
   31.0257   37.7113   16.1331 C   0  0  1  0  0  0  0  0  0  0  0  0
   29.6767   37.4706   15.7853 O   0  0  0  0  0  0  0  0  0  0  0  0
   31.2801   37.1718   17.5306 C   0  0  1  0  0  0  0  0  0  0  0  0
   32.6662   37.0885   17.7286 O   0  0  0  0  0  0  0  0  0  0  0  0
   30.6806   38.0511   18.6151 C   0  0  1  0  0  0  0  0  0  0  0  0
   31.1214   39.3660   18.4088 O   0  0  0  0  0  0  0  0  0  0  0  0
   29.1621   38.0184   18.5625 C   0  0  0  0  0  0  0  0  0  0  0  0
   29.0618   40.8223   18.3426 N   0  0  0  0  0  0  0  0  0  0  0  0
   29.0888   42.1937   18.2116 C   0  0  0  0  0  0  0  0  0  0  0  0
   29.4910   42.7052   17.1707 O   0  0  0  0  0  0  0  0  0  0  0  0
   28.6689   43.0016   19.2436 N   0  0  0  0  0  0  0  0  0  0  0  0
   28.2046   42.4430   20.4185 C   0  0  0  0  0  0  0  0  0  0  0  0
   28.1745   41.0601   20.5602 C   0  0  1  0  0  0  0  0  0  0  0  0
   27.8120   43.1706   21.3329 O   0  0  0  0  0  0  0  0  0  0  0  0
   27.6827   39.1206   21.8701 C   0  0  2  0  0  0  0  0  0  0  0  0
   27.7135   40.4952   21.7324 N   0  0  0  0  0  0  0  0  0  0  0  0
   27.2167   38.5509   23.0555 C   0  0  0  0  0  0  0  0  0  0  0  0
   27.1863   37.1695   23.2064 C   0  0  1  0  0  0  0  0  0  0  0  0
   26.6836   36.5943   24.4927 C   0  0  0  0  0  0  0  0  0  0  0  0
   27.6221   36.3443   22.1587 C   0  0  1  0  0  0  0  0  0  0  0  0
   27.5970   34.8451   22.2782 C   0  0  0  0  0  0  0  0  0  0  0  0
   28.0882   36.9158   20.9777 C   0  0  0  0  0  0  0  0  0  0  0  0
   28.1231   38.3032   20.8265 C   0  0  1  0  0  0  0  0  0  0  0  0
   28.6104   40.2491   19.5144 C   0  0  1  0  0  0  0  0  0  0  0  0
   28.5891   38.8743   19.6518 N   0  0  0  0  0  0  0  0  0  0  0  0
  1  2  1  1  0  0  0
  1  3  1  0  0  0  0
  1  4  2  0  0  0  0
  1  6  1  0  0  0  0
  5  6  1  0  0  0  0
  7  5  1  6  0  0  0
  7  8  1  0  0  0  0
  7  9  1  0  0  0  0
  9 10  1  1  0  0  0
  9 11  1  0  0  0  0
 11 12  1  6  0  0  0
 11 13  1  0  0  0  0
 13 31  1  0  0  0  0
 14 15  1  0  0  0  0
 15 16  2  0  0  0  0
 15 17  1  0  0  0  0
 17 18  1  0  0  0  0
 18 20  2  0  0  0  0
 19 18  1  6  0  0  0
 19 22  1  0  0  0  0
 19 30  1  0  0  0  0
 21 23  1  1  0  0  0
 21 29  1  0  0  0  0
 21 22  1  0  0  0  0
 23 24  1  0  0  0  0
 24 25  1  6  0  0  0
 24 26  1  0  0  0  0
 26 27  1  6  0  0  0
 26 28  1  0  0  0  0
 29 28  1  6  0  0  0
 29 31  1  0  0  0  0
 30 14  1  6  0  0  0
 30 31  1  0  0  0  0
M  CHG  1   3  -1
M  END
>  <CHROM.1>
-179.49076974,56.21843285,-65.17219192,44.19751075,-52.26350377,179.13791769
-99.97769189,29.79207134,38.10387538,18.51660180,0.32129725,-1.02602448,2.91502143

>  <Name>
ligand

>  <RI>
0

>  <Rbt.Current_Directory>
/home/itssahil/PROJECTS/Mol_Feturizer/New_Systems/rnas/3F2T

>  <Rbt.Executable>
rbdock ($Id: //depot/dev/client3/rdock/2013.1/src/exe/rbdock.cxx#4 $)

>  <Rbt.Library>
libRbt.so (2013.1, Build901 2013/11/27)

>  <Rbt.Parameter_File>
/export/apps/rDock/src/rDock_2013.1_src/data/scripts/dock_solv.prm

>  <Rbt.Receptor>
prm/blind_docking_100.prm

>  <SCORE>
-22.0213

>  <SCORE.INTER>
-22.3556

>  <SCORE.INTER.CONST>
1

>  <SCORE.INTER.POLAR>
0

>  <SCORE.INTER.ROT>
7

>  <SCORE.INTER.SOLV>
13.8133

>  <SCORE.INTER.VDW>
-27.7748

>  <SCORE.INTER.norm>
-0.721147

>  <SCORE.INTRA>
0.334288

>  <SCORE.INTRA.DIHEDRAL>
-2.32235

>  <SCORE.INTRA.DIHEDRAL.0>
4.64198

>  <SCORE.INTRA.POLAR>
0

>  <SCORE.INTRA.POLAR.0>
0

>  <SCORE.INTRA.REPUL>
0

>  <SCORE.INTRA.REPUL.0>
0

>  <SCORE.INTRA.SOLV>
0.169944

>  <SCORE.INTRA.SOLV.lig_0>
-49.3611

>  <SCORE.INTRA.VDW>
1.41049

>  <SCORE.INTRA.VDW.0>
-1.91858

>  <SCORE.INTRA.norm>
0.0107835

>  <SCORE.RESTR>
0

>  <SCORE.RESTR.CAVITY>
0

>  <SCORE.RESTR.norm>
0

>  <SCORE.SYSTEM>
0

>  <SCORE.SYSTEM.CONST>
0

>  <SCORE.SYSTEM.DIHEDRAL>
0

>  <SCORE.SYSTEM.SOLV>
0

>  <SCORE.SYSTEM.norm>
0

>  <SCORE.heavy>
31

>  <SCORE.norm>
-0.710363

>  <RMSD>
6.929

$$$$
ligand
 OpenBabel11021811473D
libRbt.so/2013.1/901 2013/11/27
 31 33  0  0  0  0  0  0  0  0999 V2000
   27.4790   37.1770   24.8547 P   0  0  1  0  0  0  0  0  0  0  0  0
   28.4492   36.9020   25.9756 O   0  0  0  0  0  0  0  0  0  0  0  0
   26.0921   36.8185   25.3185 O   0  5  0  0  0  0  0  0  0  0  0  0
   27.6077   38.6388   24.5253 O   0  0  0  0  0  0  0  0  0  0  0  0
   27.0163   36.5025   22.3645 C   0  0  0  0  0  0  0  0  0  0  0  0
   27.7936   36.3254   23.5303 O   0  0  0  0  0  0  0  0  0  0  0  0
   27.6481   35.7204   21.2158 C   0  0  1  0  0  0  0  0  0  0  0  0
   27.4691   34.3340   21.4270 O   0  0  0  0  0  0  0  0  0  0  0  0
   26.9939   36.1090   19.9006 C   0  0  1  0  0  0  0  0  0  0  0  0
   27.0896   37.5003   19.7514 O   0  0  0  0  0  0  0  0  0  0  0  0
   27.6467   35.4400   18.7027 C   0  0  1  0  0  0  0  0  0  0  0  0
   27.1000   35.9952   17.5370 O   0  0  0  0  0  0  0  0  0  0  0  0
   29.1495   35.6658   18.7072 C   0  0  0  0  0  0  0  0  0  0  0  0
   29.9879   33.7966   16.7776 N   0  0  0  0  0  0  0  0  0  0  0  0
   30.4431   32.8471   15.8888 C   0  0  0  0  0  0  0  0  0  0  0  0
   30.3802   31.6551   16.1752 O   0  0  0  0  0  0  0  0  0  0  0  0
   30.9736   33.2240   14.6762 N   0  0  0  0  0  0  0  0  0  0  0  0
   31.0437   34.5602   14.3336 C   0  0  0  0  0  0  0  0  0  0  0  0
   30.5875   35.5256   15.2243 C   0  0  1  0  0  0  0  0  0  0  0  0
   31.5024   34.8916   13.2384 O   0  0  0  0  0  0  0  0  0  0  0  0
   30.2006   37.8204   15.7752 C   0  0  2  0  0  0  0  0  0  0  0  0
   30.6563   36.8630   14.8892 N   0  0  0  0  0  0  0  0  0  0  0  0
   30.2709   39.1718   15.4353 C   0  0  0  0  0  0  0  0  0  0  0  0
   29.8200   40.1433   16.3213 C   0  0  1  0  0  0  0  0  0  0  0  0
   29.9144   41.5826   15.9243 C   0  0  0  0  0  0  0  0  0  0  0  0
   29.2869   39.7616   17.5617 C   0  0  1  0  0  0  0  0  0  0  0  0
   28.7798   40.7807   18.5449 C   0  0  0  0  0  0  0  0  0  0  0  0
   29.2196   38.4123   17.8987 C   0  0  0  0  0  0  0  0  0  0  0  0
   29.6760   37.4359   17.0114 C   0  0  1  0  0  0  0  0  0  0  0  0
   30.0607   35.1365   16.4542 C   0  0  1  0  0  0  0  0  0  0  0  0
   29.6119   36.0917   17.3462 N   0  0  0  0  0  0  0  0  0  0  0  0
  1  2  1  1  0  0  0
  1  3  1  0  0  0  0
  1  4  2  0  0  0  0
  1  6  1  0  0  0  0
  5  6  1  0  0  0  0
  7  5  1  1  0  0  0
  7  8  1  0  0  0  0
  7  9  1  0  0  0  0
  9 10  1  6  0  0  0
  9 11  1  0  0  0  0
 11 12  1  6  0  0  0
 11 13  1  0  0  0  0
 13 31  1  0  0  0  0
 14 15  1  0  0  0  0
 15 16  2  0  0  0  0
 15 17  1  0  0  0  0
 17 18  1  0  0  0  0
 18 20  2  0  0  0  0
 19 18  1  6  0  0  0
 19 22  1  0  0  0  0
 19 30  1  0  0  0  0
 21 23  1  1  0  0  0
 21 29  1  0  0  0  0
 21 22  1  0  0  0  0
 23 24  1  0  0  0  0
 24 25  1  6  0  0  0
 24 26  1  0  0  0  0
 26 27  1  6  0  0  0
 26 28  1  0  0  0  0
 29 28  1  6  0  0  0
 29 31  1  0  0  0  0
 30 14  1  6  0  0  0
 30 31  1  0  0  0  0
M  CHG  1   3  -1
M  END
>  <CHROM.1>
172.25897688,-177.31505521,71.11642490,55.24551347,-172.08264276,-133.18872170
90.96668747,28.90336224,36.54343210,18.91482939,3.09207899,1.23634428,-0.09787026

>  <Name>
ligand

>  <RI>
0

>  <Rbt.Current_Directory>
/home/itssahil/PROJECTS/Mol_Feturizer/New_Systems/rnas/3F2T

>  <Rbt.Executable>
rbdock ($Id: //depot/dev/client3/rdock/2013.1/src/exe/rbdock.cxx#4 $)

>  <Rbt.Library>
libRbt.so (2013.1, Build901 2013/11/27)

>  <Rbt.Parameter_File>
/export/apps/rDock/src/rDock_2013.1_src/data/scripts/dock_solv.prm

>  <Rbt.Receptor>
prm/blind_docking_100.prm

>  <SCORE>
-13.0519

>  <SCORE.INTER>
-15.0645

>  <SCORE.INTER.CONST>
1

>  <SCORE.INTER.POLAR>
0

>  <SCORE.INTER.ROT>
7

>  <SCORE.INTER.SOLV>
20.1043

>  <SCORE.INTER.VDW>
-25.0111

>  <SCORE.INTER.norm>
-0.485952

>  <SCORE.INTRA>
2.0126

>  <SCORE.INTRA.DIHEDRAL>
2.41658

>  <SCORE.INTRA.DIHEDRAL.0>
4.64198

>  <SCORE.INTRA.POLAR>
0

>  <SCORE.INTRA.POLAR.0>
0

>  <SCORE.INTRA.REPUL>
0

>  <SCORE.INTRA.REPUL.0>
0

>  <SCORE.INTRA.SOLV>
0.0562437

>  <SCORE.INTRA.SOLV.lig_0>
-49.3611

>  <SCORE.INTRA.VDW>
0.776192

>  <SCORE.INTRA.VDW.0>
-1.91858

>  <SCORE.INTRA.norm>
0.0649227

>  <SCORE.RESTR>
0

>  <SCORE.RESTR.CAVITY>
0

>  <SCORE.RESTR.norm>
0

>  <SCORE.SYSTEM>
0

>  <SCORE.SYSTEM.CONST>
0

>  <SCORE.SYSTEM.DIHEDRAL>
0

>  <SCORE.SYSTEM.SOLV>
0

>  <SCORE.SYSTEM.norm>
0

>  <SCORE.heavy>
31

>  <SCORE.norm>
-0.42103

>  <RMSD>
6.951

$$$$
ligand
 OpenBabel11021811473D
libRbt.so/2013.1/901 2013/11/27
 31 33  0  0  0  0  0  0  0  0999 V2000
   27.4045   38.9413   26.2078 P   0  0  1  0  0  0  0  0  0  0  0  0
   28.5962   38.3299   26.9000 O   0  0  0  0  0  0  0  0  0  0  0  0
   26.1503   38.3485   26.7930 O   0  5  0  0  0  0  0  0  0  0  0  0
   27.4912   40.4254   26.4353 O   0  0  0  0  0  0  0  0  0  0  0  0
   27.4073   37.3454   24.1284 C   0  0  0  0  0  0  0  0  0  0  0  0
   27.3899   38.6673   24.6257 O   0  0  0  0  0  0  0  0  0  0  0  0
   27.4754   37.3831   22.6039 C   0  0  1  0  0  0  0  0  0  0  0  0
   28.5665   38.1835   22.1944 O   0  0  0  0  0  0  0  0  0  0  0  0
   27.6603   35.9776   22.0570 C   0  0  1  0  0  0  0  0  0  0  0  0
   26.4446   35.2893   22.1820 O   0  0  0  0  0  0  0  0  0  0  0  0
   28.0822   35.9689   20.5973 C   0  0  1  0  0  0  0  0  0  0  0  0
   28.0084   34.6504   20.1260 O   0  0  0  0  0  0  0  0  0  0  0  0
   27.1679   36.8504   19.7628 C   0  0  0  0  0  0  0  0  0  0  0  0
   25.0259   35.6869   18.3564 N   0  0  0  0  0  0  0  0  0  0  0  0
   23.9680   35.0663   17.7283 C   0  0  0  0  0  0  0  0  0  0  0  0
   22.9085   34.9004   18.3255 O   0  0  0  0  0  0  0  0  0  0  0  0
   24.0886   34.6254   16.4302 N   0  0  0  0  0  0  0  0  0  0  0  0
   25.2705   34.8120   15.7400 C   0  0  0  0  0  0  0  0  0  0  0  0
   26.3436   35.4365   16.3658 C   0  0  1  0  0  0  0  0  0  0  0  0
   25.3672   34.4322   14.5712 O   0  0  0  0  0  0  0  0  0  0  0  0
   28.5928   36.2472   16.3060 C   0  0  2  0  0  0  0  0  0  0  0  0
   27.5283   35.6246   15.6825 N   0  0  0  0  0  0  0  0  0  0  0  0
   29.7897   36.4365   15.6143 C   0  0  0  0  0  0  0  0  0  0  0  0
   30.8683   37.0569   16.2336 C   0  0  1  0  0  0  0  0  0  0  0  0
   32.1369   37.2397   15.4622 C   0  0  0  0  0  0  0  0  0  0  0  0
   30.7502   37.4994   17.5599 C   0  0  1  0  0  0  0  0  0  0  0  0
   31.8903   38.1833   18.2633 C   0  0  0  0  0  0  0  0  0  0  0  0
   29.5551   37.3075   18.2480 C   0  0  0  0  0  0  0  0  0  0  0  0
   28.4725   36.6807   17.6284 C   0  0  1  0  0  0  0  0  0  0  0  0
   26.2169   35.8714   17.6835 C   0  0  1  0  0  0  0  0  0  0  0  0
   27.2821   36.4867   18.3129 N   0  0  0  0  0  0  0  0  0  0  0  0
  1  2  1  1  0  0  0
  1  3  1  0  0  0  0
  1  4  2  0  0  0  0
  1  6  1  0  0  0  0
  5  6  1  0  0  0  0
  7  5  1  1  0  0  0
  7  8  1  0  0  0  0
  7  9  1  0  0  0  0
  9 10  1  6  0  0  0
  9 11  1  0  0  0  0
 11 12  1  6  0  0  0
 11 13  1  0  0  0  0
 13 31  1  0  0  0  0
 14 15  1  0  0  0  0
 15 16  2  0  0  0  0
 15 17  1  0  0  0  0
 17 18  1  0  0  0  0
 18 20  2  0  0  0  0
 19 18  1  6  0  0  0
 19 22  1  0  0  0  0
 19 30  1  0  0  0  0
 21 23  1  1  0  0  0
 21 29  1  0  0  0  0
 21 22  1  0  0  0  0
 23 24  1  0  0  0  0
 24 25  1  6  0  0  0
 24 26  1  0  0  0  0
 26 27  1  6  0  0  0
 26 28  1  0  0  0  0
 29 28  1  6  0  0  0
 29 31  1  0  0  0  0
 30 14  1  6  0  0  0
 30 31  1  0  0  0  0
M  CHG  1   3  -1
M  END
>  <CHROM.1>
-176.52128432,57.60652273,53.43474688,73.84401462,-170.23206429,-160.89541041
-65.16105756,27.50848126,36.77009110,20.10540661,1.55656203,0.36815918,1.28251862

>  <Name>
ligand

>  <RI>
0

>  <Rbt.Current_Directory>
/home/itssahil/PROJECTS/Mol_Feturizer/New_Systems/rnas/3F2T

>  <Rbt.Executable>
rbdock ($Id: //depot/dev/client3/rdock/2013.1/src/exe/rbdock.cxx#4 $)

>  <Rbt.Library>
libRbt.so (2013.1, Build901 2013/11/27)

>  <Rbt.Parameter_File>
/export/apps/rDock/src/rDock_2013.1_src/data/scripts/dock_solv.prm

>  <Rbt.Receptor>
prm/pocket_docking_5.prm

>  <SCORE>
-18.1763

>  <SCORE.INTER>
-18.3915

>  <SCORE.INTER.CONST>
1

>  <SCORE.INTER.POLAR>
0

>  <SCORE.INTER.ROT>
7

>  <SCORE.INTER.SOLV>
19.4392

>  <SCORE.INTER.VDW>
-27.0074

>  <SCORE.INTER.norm>
-0.593273

>  <SCORE.INTRA>
0.215171

>  <SCORE.INTRA.DIHEDRAL>
-1.02091

>  <SCORE.INTRA.DIHEDRAL.0>
4.64198

>  <SCORE.INTRA.POLAR>
0

>  <SCORE.INTRA.POLAR.0>
0

>  <SCORE.INTRA.REPUL>
0

>  <SCORE.INTRA.REPUL.0>
0

>  <SCORE.INTRA.SOLV>
-0.588323

>  <SCORE.INTRA.SOLV.lig_0>
-49.3611

>  <SCORE.INTRA.VDW>
1.01979

>  <SCORE.INTRA.VDW.0>
-1.91858

>  <SCORE.INTRA.norm>
0.00694101

>  <SCORE.RESTR>
0

>  <SCORE.RESTR.CAVITY>
0

>  <SCORE.RESTR.norm>
0

>  <SCORE.SYSTEM>
0

>  <SCORE.SYSTEM.CONST>
0

>  <SCORE.SYSTEM.DIHEDRAL>
0

>  <SCORE.SYSTEM.SOLV>
0

>  <SCORE.SYSTEM.norm>
0

>  <SCORE.heavy>
31

>  <SCORE.norm>
-0.586332

>  <RMSD>
6.968

$$$$
ligand
 OpenBabel11021811473D
libRbt.so/2013.1/901 2013/11/27
 31 33  0  0  0  0  0  0  0  0999 V2000
   29.8203   32.7570   16.3738 P   0  0  1  0  0  0  0  0  0  0  0  0
   29.1539   32.3898   17.6754 O   0  0  0  0  0  0  0  0  0  0  0  0
   31.2751   32.3772   16.4529 O   0  5  0  0  0  0  0  0  0  0  0  0
   29.0945   32.0040   15.2930 O   0  0  0  0  0  0  0  0  0  0  0  0
   28.5016   35.0090   16.1284 C   0  0  0  0  0  0  0  0  0  0  0  0
   29.7358   34.3269   16.0474 O   0  0  0  0  0  0  0  0  0  0  0  0
   28.3989   35.7027   17.4842 C   0  0  1  0  0  0  0  0  0  0  0  0
   28.5352   34.7496   18.5196 O   0  0  0  0  0  0  0  0  0  0  0  0
   29.4987   36.7422   17.6209 C   0  0  1  0  0  0  0  0  0  0  0  0
   29.4239   37.6140   16.5247 O   0  0  0  0  0  0  0  0  0  0  0  0
   29.3824   37.5516   18.9015 C   0  0  1  0  0  0  0  0  0  0  0  0
   30.4080   38.5076   18.9122 O   0  0  0  0  0  0  0  0  0  0  0  0
   28.0391   38.2582   18.9769 C   0  0  0  0  0  0  0  0  0  0  0  0
   28.4572   41.0271   18.6970 N   0  0  0  0  0  0  0  0  0  0  0  0
   28.7255   42.3664   18.5150 C   0  0  0  0  0  0  0  0  0  0  0  0
   28.8939   42.8126   17.3839 O   0  0  0  0  0  0  0  0  0  0  0  0
   28.8095   43.2142   19.5958 N   0  0  0  0  0  0  0  0  0  0  0  0
   28.6136   42.7310   20.8749 C   0  0  0  0  0  0  0  0  0  0  0  0
   28.3431   41.3809   21.0683 C   0  0  1  0  0  0  0  0  0  0  0  0
   28.6712   43.4981   21.8381 O   0  0  0  0  0  0  0  0  0  0  0  0
   27.8776   39.5491   22.5337 C   0  0  2  0  0  0  0  0  0  0  0  0
   28.1481   40.8909   22.3441 N   0  0  0  0  0  0  0  0  0  0  0  0
   27.6809   39.0551   23.8237 C   0  0  0  0  0  0  0  0  0  0  0  0
   27.4134   37.7063   24.0261 C   0  0  1  0  0  0  0  0  0  0  0  0
   27.2115   37.2116   25.4234 C   0  0  0  0  0  0  0  0  0  0  0  0
   27.3359   36.8385   22.9262 C   0  0  1  0  0  0  0  0  0  0  0  0
   27.0396   35.3743   23.1012 C   0  0  0  0  0  0  0  0  0  0  0  0
   27.5343   37.3342   21.6403 C   0  0  0  0  0  0  0  0  0  0  0  0
   27.8073   38.6880   21.4361 C   0  0  1  0  0  0  0  0  0  0  0  0
   28.2693   40.5270   19.9697 C   0  0  1  0  0  0  0  0  0  0  0  0
   28.0075   39.1831   20.1563 N   0  0  0  0  0  0  0  0  0  0  0  0
  1  2  1  1  0  0  0
  1  3  1  0  0  0  0
  1  4  2  0  0  0  0
  1  6  1  0  0  0  0
  5  6  1  0  0  0  0
  7  5  1  6  0  0  0
  7  8  1  0  0  0  0
  7  9  1  0  0  0  0
  9 10  1  6  0  0  0
  9 11  1  0  0  0  0
 11 12  1  6  0  0  0
 11 13  1  0  0  0  0
 13 31  1  0  0  0  0
 14 15  1  0  0  0  0
 15 16  2  0  0  0  0
 15 17  1  0  0  0  0
 17 18  1  0  0  0  0
 18 20  2  0  0  0  0
 19 18  1  6  0  0  0
 19 22  1  0  0  0  0
 19 30  1  0  0  0  0
 21 23  1  1  0  0  0
 21 29  1  0  0  0  0
 21 22  1  0  0  0  0
 23 24  1  0  0  0  0
 24 25  1  6  0  0  0
 24 26  1  0  0  0  0
 26 27  1  6  0  0  0
 26 28  1  0  0  0  0
 29 28  1  6  0  0  0
 29 31  1  0  0  0  0
 30 14  1  6  0  0  0
 30 31  1  0  0  0  0
M  CHG  1   3  -1
M  END
>  <CHROM.1>
97.09604684,-49.47392130,-57.39695962,54.59807491,-178.00515448,-172.98203327
-78.00977063,28.68385005,37.64999767,19.42132914,-1.03286716,1.28349837,0.03397374

>  <Name>
ligand

>  <RI>
0

>  <Rbt.Current_Directory>
/home/itssahil/PROJECTS/Mol_Feturizer/New_Systems/rnas/3F2T

>  <Rbt.Executable>
rbdock ($Id: //depot/dev/client3/rdock/2013.1/src/exe/rbdock.cxx#4 $)

>  <Rbt.Library>
libRbt.so (2013.1, Build901 2013/11/27)

>  <Rbt.Parameter_File>
/export/apps/rDock/src/rDock_2013.1_src/data/scripts/dock_solv.prm

>  <Rbt.Receptor>
prm/pocket_docking_6.prm

>  <SCORE>
-19.0625

>  <SCORE.INTER>
-20.7492

>  <SCORE.INTER.CONST>
1

>  <SCORE.INTER.POLAR>
0

>  <SCORE.INTER.ROT>
7

>  <SCORE.INTER.SOLV>
14.0063

>  <SCORE.INTER.VDW>
-26.7682

>  <SCORE.INTER.norm>
-0.669329

>  <SCORE.INTRA>
1.68667

>  <SCORE.INTRA.DIHEDRAL>
1.82958

>  <SCORE.INTRA.DIHEDRAL.0>
4.64198

>  <SCORE.INTRA.POLAR>
0

>  <SCORE.INTRA.POLAR.0>
0

>  <SCORE.INTRA.REPUL>
0

>  <SCORE.INTRA.REPUL.0>
0

>  <SCORE.INTRA.SOLV>
0.732129

>  <SCORE.INTRA.SOLV.lig_0>
-49.3611

>  <SCORE.INTRA.VDW>
0.405812

>  <SCORE.INTRA.VDW.0>
-1.91858

>  <SCORE.INTRA.norm>
0.0544086

>  <SCORE.RESTR>
0

>  <SCORE.RESTR.CAVITY>
0

>  <SCORE.RESTR.norm>
0

>  <SCORE.SYSTEM>
0

>  <SCORE.SYSTEM.CONST>
0

>  <SCORE.SYSTEM.DIHEDRAL>
0

>  <SCORE.SYSTEM.SOLV>
0

>  <SCORE.SYSTEM.norm>
0

>  <SCORE.heavy>
31

>  <SCORE.norm>
-0.61492

>  <RMSD>
6.987

$$$$
ligand
 OpenBabel11021811473D
libRbt.so/2013.1/901 2013/11/27
 31 33  0  0  0  0  0  0  0  0999 V2000
   29.1386   40.1770   26.8045 P   0  0  1  0  0  0  0  0  0  0  0  0
   29.1064   38.6713   26.8760 O   0  0  0  0  0  0  0  0  0  0  0  0
   27.7727   40.7057   27.1532 O   0  5  0  0  0  0  0  0  0  0  0  0
   30.1894   40.6301   27.7806 O   0  0  0  0  0  0  0  0  0  0  0  0
   29.5845   42.1164   25.0985 C   0  0  0  0  0  0  0  0  0  0  0  0
   29.5250   40.7272   25.3464 O   0  0  0  0  0  0  0  0  0  0  0  0
   28.1655   42.6679   24.9868 C   0  0  1  0  0  0  0  0  0  0  0  0
   28.1432   44.0171   25.4085 O   0  0  0  0  0  0  0  0  0  0  0  0
   27.6904   42.5922   23.5455 C   0  0  1  0  0  0  0  0  0  0  0  0
   28.7219   43.0517   22.7135 O   0  0  0  0  0  0  0  0  0  0  0  0
   27.3135   41.1809   23.1274 C   0  0  1  0  0  0  0  0  0  0  0  0
   26.5084   41.2617   21.9822 O   0  0  0  0  0  0  0  0  0  0  0  0
   28.5523   40.3594   22.8112 C   0  0  0  0  0  0  0  0  0  0  0  0
   27.0487   38.7557   24.5682 N   0  0  0  0  0  0  0  0  0  0  0  0
   26.3619   37.9922   25.4869 C   0  0  0  0  0  0  0  0  0  0  0  0
   25.9882   38.4899   26.5450 O   0  0  0  0  0  0  0  0  0  0  0  0
   26.0907   36.6676   25.2299 N   0  0  0  0  0  0  0  0  0  0  0  0
   26.4956   36.0936   24.0406 C   0  0  0  0  0  0  0  0  0  0  0  0
   27.1899   36.8560   23.1078 C   0  0  1  0  0  0  0  0  0  0  0  0
   26.2338   34.9118   23.8071 O   0  0  0  0  0  0  0  0  0  0  0  0
   28.2873   37.0484   20.9917 C   0  0  2  0  0  0  0  0  0  0  0  0
   27.5992   36.2881   21.9179 N   0  0  0  0  0  0  0  0  0  0  0  0
   28.7006   36.4732   19.7895 C   0  0  0  0  0  0  0  0  0  0  0  0
   29.3979   37.2274   18.8531 C   0  0  1  0  0  0  0  0  0  0  0  0
   29.8282   36.5763   17.5768 C   0  0  0  0  0  0  0  0  0  0  0  0
   29.6829   38.5757   19.1169 C   0  0  1  0  0  0  0  0  0  0  0  0
   30.4270   39.4288   18.1266 C   0  0  0  0  0  0  0  0  0  0  0  0
   29.2707   39.1463   20.3182 C   0  0  0  0  0  0  0  0  0  0  0  0
   28.5739   38.3887   21.2613 C   0  0  1  0  0  0  0  0  0  0  0  0
   27.4691   38.1938   23.3796 C   0  0  1  0  0  0  0  0  0  0  0  0
   28.1645   38.9546   22.4593 N   0  0  0  0  0  0  0  0  0  0  0  0
  1  2  1  6  0  0  0
  1  3  1  0  0  0  0
  1  4  2  0  0  0  0
  1  6  1  0  0  0  0
  5  6  1  0  0  0  0
  7  5  1  6  0  0  0
  7  8  1  0  0  0  0
  7  9  1  0  0  0  0
  9 10  1  6  0  0  0
  9 11  1  0  0  0  0
 11 12  1  6  0  0  0
 11 13  1  0  0  0  0
 13 31  1  0  0  0  0
 14 15  1  0  0  0  0
 15 16  2  0  0  0  0
 15 17  1  0  0  0  0
 17 18  1  0  0  0  0
 18 20  2  0  0  0  0
 19 18  1  6  0  0  0
 19 22  1  0  0  0  0
 19 30  1  0  0  0  0
 21 23  1  1  0  0  0
 21 29  1  0  0  0  0
 21 22  1  0  0  0  0
 23 24  1  0  0  0  0
 24 25  1  6  0  0  0
 24 26  1  0  0  0  0
 26 27  1  6  0  0  0
 26 28  1  0  0  0  0
 29 28  1  6  0  0  0
 29 31  1  0  0  0  0
 30 14  1  6  0  0  0
 30 31  1  0  0  0  0
M  CHG  1   3  -1
M  END
>  <CHROM.1>
-75.77251432,179.18502567,150.62098518,-45.02503098,161.40487744,177.52544476
125.18814690,28.21240885,39.29601191,23.49233321,1.72528986,1.19309010,0.91958645

>  <Name>
ligand

>  <RI>
0

>  <Rbt.Current_Directory>
/home/itssahil/PROJECTS/Mol_Feturizer/New_Systems/rnas/3F2T

>  <Rbt.Executable>
rbdock ($Id: //depot/dev/client3/rdock/2013.1/src/exe/rbdock.cxx#4 $)

>  <Rbt.Library>
libRbt.so (2013.1, Build901 2013/11/27)

>  <Rbt.Parameter_File>
/export/apps/rDock/src/rDock_2013.1_src/data/scripts/dock_solv.prm

>  <Rbt.Receptor>
prm/pocket_docking_7.prm

>  <SCORE>
-27.0157

>  <SCORE.INTER>
-31.2867

>  <SCORE.INTER.CONST>
1

>  <SCORE.INTER.POLAR>
0

>  <SCORE.INTER.ROT>
7

>  <SCORE.INTER.SOLV>
16.4457

>  <SCORE.INTER.VDW>
-34.6063

>  <SCORE.INTER.norm>
-1.00925

>  <SCORE.INTRA>
4.27101

>  <SCORE.INTRA.DIHEDRAL>
2.25089

>  <SCORE.INTRA.DIHEDRAL.0>
4.64198

>  <SCORE.INTRA.POLAR>
0

>  <SCORE.INTRA.POLAR.0>
0

>  <SCORE.INTRA.REPUL>
0

>  <SCORE.INTRA.REPUL.0>
0

>  <SCORE.INTRA.SOLV>
4.64921

>  <SCORE.INTRA.SOLV.lig_0>
-49.3611

>  <SCORE.INTRA.VDW>
0.820959

>  <SCORE.INTRA.VDW.0>
-1.91858

>  <SCORE.INTRA.norm>
0.137774

>  <SCORE.RESTR>
0

>  <SCORE.RESTR.CAVITY>
0

>  <SCORE.RESTR.norm>
0

>  <SCORE.SYSTEM>
0

>  <SCORE.SYSTEM.CONST>
0

>  <SCORE.SYSTEM.DIHEDRAL>
0

>  <SCORE.SYSTEM.SOLV>
0

>  <SCORE.SYSTEM.norm>
0

>  <SCORE.heavy>
31

>  <SCORE.norm>
-0.871473

>  <RMSD>
7.023

$$$$
ligand
 OpenBabel11021811473D
libRbt.so/2013.1/901 2013/11/27
 31 33  0  0  0  0  0  0  0  0999 V2000
   32.7407   34.6395   14.3559 P   0  0  1  0  0  0  0  0  0  0  0  0
   32.0087   33.3354   14.5476 O   0  0  0  0  0  0  0  0  0  0  0  0
   34.2218   34.3711   14.3926 O   0  5  0  0  0  0  0  0  0  0  0  0
   32.2958   35.1898   13.0287 O   0  0  0  0  0  0  0  0  0  0  0  0
   32.6490   35.4255   16.8547 C   0  0  0  0  0  0  0  0  0  0  0  0
   32.4051   35.7201   15.4951 O   0  0  0  0  0  0  0  0  0  0  0  0
   32.2934   36.6429   17.7042 C   0  0  1  0  0  0  0  0  0  0  0  0
   32.9837   37.7790   17.2228 O   0  0  0  0  0  0  0  0  0  0  0  0
   30.7985   36.9063   17.6351 C   0  0  1  0  0  0  0  0  0  0  0  0
   30.1236   35.7235   17.9708 O   0  0  0  0  0  0  0  0  0  0  0  0
   30.3550   38.0105   18.5800 C   0  0  1  0  0  0  0  0  0  0  0  0
   30.9066   39.2196   18.1331 O   0  0  0  0  0  0  0  0  0  0  0  0
   28.8402   38.1296   18.6024 C   0  0  0  0  0  0  0  0  0  0  0  0
   28.8805   40.9388   18.4395 N   0  0  0  0  0  0  0  0  0  0  0  0
   28.9740   42.3093   18.3301 C   0  0  0  0  0  0  0  0  0  0  0  0
   29.3183   42.8203   17.2684 O   0  0  0  0  0  0  0  0  0  0  0  0
   28.6857   43.1164   19.4069 N   0  0  0  0  0  0  0  0  0  0  0  0
   28.2879   42.5588   20.6063 C   0  0  0  0  0  0  0  0  0  0  0  0
   28.1914   41.1769   20.7264 C   0  0  1  0  0  0  0  0  0  0  0  0
   28.0126   43.2869   21.5622 O   0  0  0  0  0  0  0  0  0  0  0  0
   27.6993   39.2394   22.0391 C   0  0  2  0  0  0  0  0  0  0  0  0
   27.7962   40.6129   21.9228 N   0  0  0  0  0  0  0  0  0  0  0  0
   27.2999   38.6706   23.2490 C   0  0  0  0  0  0  0  0  0  0  0  0
   27.2041   37.2900   23.3783 C   0  0  1  0  0  0  0  0  0  0  0  0
   26.7761   36.7155   24.6916 C   0  0  0  0  0  0  0  0  0  0  0  0
   27.5060   36.4650   22.2843 C   0  0  1  0  0  0  0  0  0  0  0  0
   27.4062   34.9672   22.3798 C   0  0  0  0  0  0  0  0  0  0  0  0
   27.9059   37.0355   21.0788 C   0  0  0  0  0  0  0  0  0  0  0  0
   28.0065   38.4218   20.9489 C   0  0  1  0  0  0  0  0  0  0  0  0
   28.4944   40.3660   19.6345 C   0  0  1  0  0  0  0  0  0  0  0  0
   28.4069   38.9919   19.7497 N   0  0  0  0  0  0  0  0  0  0  0  0
  1  2  1  1  0  0  0
  1  3  1  0  0  0  0
  1  4  2  0  0  0  0
  1  6  1  0  0  0  0
  5  6  1  0  0  0  0
  7  5  1  6  0  0  0
  7  8  1  0  0  0  0
  7  9  1  0  0  0  0
  9 10  1  1  0  0  0
  9 11  1  0  0  0  0
 11 12  1  6  0  0  0
 11 13  1  0  0  0  0
 13 31  1  0  0  0  0
 14 15  1  0  0  0  0
 15 16  2  0  0  0  0
 15 17  1  0  0  0  0
 17 18  1  0  0  0  0
 18 20  2  0  0  0  0
 19 18  1  6  0  0  0
 19 22  1  0  0  0  0
 19 30  1  0  0  0  0
 21 23  1  1  0  0  0
 21 29  1  0  0  0  0
 21 22  1  0  0  0  0
 23 24  1  0  0  0  0
 24 25  1  6  0  0  0
 24 26  1  0  0  0  0
 26 27  1  6  0  0  0
 26 28  1  0  0  0  0
 29 28  1  6  0  0  0
 29 31  1  0  0  0  0
 30 14  1  6  0  0  0
 30 31  1  0  0  0  0
M  CHG  1   3  -1
M  END
>  <CHROM.1>
177.72030939,58.33200493,-54.01878177,53.07602412,66.90666420,167.23058224
-96.60943376,29.83702093,38.04001159,18.75807601,0.37954826,-0.99681051,2.93001446

>  <Name>
ligand

>  <RI>
0

>  <Rbt.Current_Directory>
/home/itssahil/PROJECTS/Mol_Feturizer/New_Systems/rnas/3F2T

>  <Rbt.Executable>
rbdock ($Id: //depot/dev/client3/rdock/2013.1/src/exe/rbdock.cxx#4 $)

>  <Rbt.Library>
libRbt.so (2013.1, Build901 2013/11/27)

>  <Rbt.Parameter_File>
/export/apps/rDock/src/rDock_2013.1_src/data/scripts/dock_solv.prm

>  <Rbt.Receptor>
prm/pocket_docking_7.prm

>  <SCORE>
-23.6932

>  <SCORE.INTER>
-22.8073

>  <SCORE.INTER.CONST>
1

>  <SCORE.INTER.POLAR>
0

>  <SCORE.INTER.ROT>
7

>  <SCORE.INTER.SOLV>
18.2804

>  <SCORE.INTER.VDW>
-29.565

>  <SCORE.INTER.norm>
-0.735719

>  <SCORE.INTRA>
-0.885877

>  <SCORE.INTRA.DIHEDRAL>
-2.48071

>  <SCORE.INTRA.DIHEDRAL.0>
4.64198

>  <SCORE.INTRA.POLAR>
0

>  <SCORE.INTRA.POLAR.0>
0

>  <SCORE.INTRA.REPUL>
0

>  <SCORE.INTRA.REPUL.0>
0

>  <SCORE.INTRA.SOLV>
-0.214773

>  <SCORE.INTRA.SOLV.lig_0>
-49.3611

>  <SCORE.INTRA.VDW>
0.461866

>  <SCORE.INTRA.VDW.0>
-1.91858

>  <SCORE.INTRA.norm>
-0.0285767

>  <SCORE.RESTR>
0

>  <SCORE.RESTR.CAVITY>
0

>  <SCORE.RESTR.norm>
0

>  <SCORE.SYSTEM>
0

>  <SCORE.SYSTEM.CONST>
0

>  <SCORE.SYSTEM.DIHEDRAL>
0

>  <SCORE.SYSTEM.SOLV>
0

>  <SCORE.SYSTEM.norm>
0

>  <SCORE.heavy>
31

>  <SCORE.norm>
-0.764295

>  <RMSD>
7.035

$$$$
ligand
 OpenBabel11021811473D
libRbt.so/2013.1/901 2013/11/27
 31 33  0  0  0  0  0  0  0  0999 V2000
   29.4036   40.5595   27.0321 P   0  0  1  0  0  0  0  0  0  0  0  0
   28.4600   40.4210   28.1998 O   0  0  0  0  0  0  0  0  0  0  0  0
   30.7650   40.9350   27.5540 O   0  5  0  0  0  0  0  0  0  0  0  0
   29.4119   39.2306   26.3277 O   0  0  0  0  0  0  0  0  0  0  0  0
   27.6358   41.6851   25.4578 C   0  0  0  0  0  0  0  0  0  0  0  0
   28.9455   41.6887   25.9865 O   0  0  0  0  0  0  0  0  0  0  0  0
   27.4492   42.9125   24.5697 C   0  0  1  0  0  0  0  0  0  0  0  0
   27.9783   44.0536   25.2151 O   0  0  0  0  0  0  0  0  0  0  0  0
   28.1713   42.7124   23.2479 C   0  0  1  0  0  0  0  0  0  0  0  0
   29.5529   42.7475   23.4872 O   0  0  0  0  0  0  0  0  0  0  0  0
   27.8207   41.3912   22.5842 C   0  0  1  0  0  0  0  0  0  0  0  0
   27.8304   41.5807   21.1950 O   0  0  0  0  0  0  0  0  0  0  0  0
   28.8303   40.3157   22.9495 C   0  0  0  0  0  0  0  0  0  0  0  0
   27.2245   38.7899   24.6854 N   0  0  0  0  0  0  0  0  0  0  0  0
   26.4906   38.0580   25.5934 C   0  0  0  0  0  0  0  0  0  0  0  0
   26.1852   38.5483   26.6765 O   0  0  0  0  0  0  0  0  0  0  0  0
   26.0958   36.7732   25.2973 N   0  0  0  0  0  0  0  0  0  0  0  0
   26.4227   36.2090   24.0797 C   0  0  0  0  0  0  0  0  0  0  0  0
   27.1637   36.9397   23.1575 C   0  0  1  0  0  0  0  0  0  0  0  0
   26.0506   35.0647   23.8119 O   0  0  0  0  0  0  0  0  0  0  0  0
   28.2303   37.1101   21.0238 C   0  0  2  0  0  0  0  0  0  0  0  0
   27.4955   36.3813   21.9394 N   0  0  0  0  0  0  0  0  0  0  0  0
   28.5652   36.5445   19.7931 C   0  0  0  0  0  0  0  0  0  0  0  0
   29.3084   37.2669   18.8670 C   0  0  1  0  0  0  0  0  0  0  0  0
   29.6518   36.6269   17.5592 C   0  0  0  0  0  0  0  0  0  0  0  0
   29.7193   38.5737   19.1702 C   0  0  1  0  0  0  0  0  0  0  0  0
   30.5168   39.3924   18.1925 C   0  0  0  0  0  0  0  0  0  0  0  0
   29.3850   39.1349   20.3999 C   0  0  0  0  0  0  0  0  0  0  0  0
   28.6422   38.4087   21.3326 C   0  0  1  0  0  0  0  0  0  0  0  0
   27.5680   38.2364   23.4685 C   0  0  1  0  0  0  0  0  0  0  0  0
   28.3102   38.9650   22.5588 N   0  0  0  0  0  0  0  0  0  0  0  0
  1  2  1  1  0  0  0
  1  3  1  0  0  0  0
  1  4  2  0  0  0  0
  1  6  1  0  0  0  0
  5  6  1  0  0  0  0
  7  5  1  1  0  0  0
  7  8  1  0  0  0  0
  7  9  1  0  0  0  0
  9 10  1  1  0  0  0
  9 11  1  0  0  0  0
 11 12  1  6  0  0  0
 11 13  1  0  0  0  0
 13 31  1  0  0  0  0
 14 15  1  0  0  0  0
 15 16  2  0  0  0  0
 15 17  1  0  0  0  0
 17 18  1  0  0  0  0
 18 20  2  0  0  0  0
 19 18  1  6  0  0  0
 19 22  1  0  0  0  0
 19 30  1  0  0  0  0
 21 23  1  1  0  0  0
 21 29  1  0  0  0  0
 21 22  1  0  0  0  0
 23 24  1  0  0  0  0
 24 25  1  6  0  0  0
 24 26  1  0  0  0  0
 26 27  1  6  0  0  0
 26 28  1  0  0  0  0
 29 28  1  6  0  0  0
 29 31  1  0  0  0  0
 30 14  1  6  0  0  0
 30 31  1  0  0  0  0
M  CHG  1   3  -1
M  END
>  <CHROM.1>
176.32399766,-52.03712931,-44.75310935,-69.79795912,146.01564918,166.94289056
93.90933802,28.29890139,39.40976374,23.54276143,1.65828271,1.17033834,0.98966806

>  <Name>
ligand

>  <RI>
0

>  <Rbt.Current_Directory>
/home/itssahil/PROJECTS/Mol_Feturizer/New_Systems/rnas/3F2T

>  <Rbt.Executable>
rbdock ($Id: //depot/dev/client3/rdock/2013.1/src/exe/rbdock.cxx#4 $)

>  <Rbt.Library>
libRbt.so (2013.1, Build901 2013/11/27)

>  <Rbt.Parameter_File>
/export/apps/rDock/src/rDock_2013.1_src/data/scripts/dock_solv.prm

>  <Rbt.Receptor>
prm/blind_docking_80.prm

>  <SCORE>
-26.8615

>  <SCORE.INTER>
-29.964

>  <SCORE.INTER.CONST>
1

>  <SCORE.INTER.POLAR>
0

>  <SCORE.INTER.ROT>
7

>  <SCORE.INTER.SOLV>
16.4025

>  <SCORE.INTER.VDW>
-33.7102

>  <SCORE.INTER.norm>
-0.966582

>  <SCORE.INTRA>
3.10252

>  <SCORE.INTRA.DIHEDRAL>
1.848

>  <SCORE.INTRA.DIHEDRAL.0>
4.64198

>  <SCORE.INTRA.POLAR>
0

>  <SCORE.INTRA.POLAR.0>
0

>  <SCORE.INTRA.REPUL>
0

>  <SCORE.INTRA.REPUL.0>
0

>  <SCORE.INTRA.SOLV>
2.85484

>  <SCORE.INTRA.SOLV.lig_0>
-49.3611

>  <SCORE.INTRA.VDW>
0.751105

>  <SCORE.INTRA.VDW.0>
-1.91858

>  <SCORE.INTRA.norm>
0.100081

>  <SCORE.RESTR>
0

>  <SCORE.RESTR.CAVITY>
0

>  <SCORE.RESTR.norm>
0

>  <SCORE.SYSTEM>
0

>  <SCORE.SYSTEM.CONST>
0

>  <SCORE.SYSTEM.DIHEDRAL>
0

>  <SCORE.SYSTEM.SOLV>
0

>  <SCORE.SYSTEM.norm>
0

>  <SCORE.heavy>
31

>  <SCORE.norm>
-0.8665

>  <RMSD>
7.090

$$$$
ligand
 OpenBabel11021811473D
libRbt.so/2013.1/901 2013/11/27
 31 33  0  0  0  0  0  0  0  0999 V2000
   33.7285   34.4573   16.1249 P   0  0  1  0  0  0  0  0  0  0  0  0
   32.7248   33.3753   16.4331 O   0  0  0  0  0  0  0  0  0  0  0  0
   34.7436   34.5042   17.2360 O   0  5  0  0  0  0  0  0  0  0  0  0
   34.3500   34.1016   14.8023 O   0  0  0  0  0  0  0  0  0  0  0  0
   31.8135   36.1820   16.6031 C   0  0  0  0  0  0  0  0  0  0  0  0
   33.0626   35.9132   16.0011 O   0  0  0  0  0  0  0  0  0  0  0  0
   31.3537   37.5814   16.2026 C   0  0  1  0  0  0  0  0  0  0  0  0
   31.5017   37.7514   14.8069 O   0  0  0  0  0  0  0  0  0  0  0  0
   29.8925   37.7740   16.5721 C   0  0  1  0  0  0  0  0  0  0  0  0
   29.1752   36.6453   16.1491 O   0  0  0  0  0  0  0  0  0  0  0  0
   29.6863   37.9558   18.0665 C   0  0  1  0  0  0  0  0  0  0  0  0
   30.4652   39.0424   18.4890 O   0  0  0  0  0  0  0  0  0  0  0  0
   28.2262   38.2338   18.3831 C   0  0  0  0  0  0  0  0  0  0  0  0
   28.4957   41.0351   18.3874 N   0  0  0  0  0  0  0  0  0  0  0  0
   28.6931   42.3982   18.3450 C   0  0  0  0  0  0  0  0  0  0  0  0
   28.8634   42.9627   17.2683 O   0  0  0  0  0  0  0  0  0  0  0  0
   28.7038   43.1380   19.5054 N   0  0  0  0  0  0  0  0  0  0  0  0
   28.5047   42.5207   20.7249 C   0  0  0  0  0  0  0  0  0  0  0  0
   28.3054   41.1456   20.7776 C   0  0  1  0  0  0  0  0  0  0  0  0
   28.4964   43.1905   21.7597 O   0  0  0  0  0  0  0  0  0  0  0  0
   27.9079   39.1554   22.0428 C   0  0  2  0  0  0  0  0  0  0  0  0
   28.1076   40.5218   21.9931 N   0  0  0  0  0  0  0  0  0  0  0  0
   27.7083   38.5262   23.2720 C   0  0  0  0  0  0  0  0  0  0  0  0
   27.5117   37.1516   23.3337 C   0  0  1  0  0  0  0  0  0  0  0  0
   27.3044   36.5108   24.6695 C   0  0  0  0  0  0  0  0  0  0  0  0
   27.5091   36.3943   22.1526 C   0  0  1  0  0  0  0  0  0  0  0  0
   27.2908   34.9063   22.1750 C   0  0  0  0  0  0  0  0  0  0  0  0
   27.7102   37.0248   20.9276 C   0  0  0  0  0  0  0  0  0  0  0  0
   27.9120   38.4048   20.8647 C   0  0  1  0  0  0  0  0  0  0  0  0
   28.3056   40.4021   19.5991 C   0  0  1  0  0  0  0  0  0  0  0  0
   28.1148   39.0343   19.6458 N   0  0  0  0  0  0  0  0  0  0  0  0
  1  2  1  1  0  0  0
  1  3  1  0  0  0  0
  1  4  2  0  0  0  0
  1  6  1  0  0  0  0
  5  6  1  0  0  0  0
  7  5  1  6  0  0  0
  7  8  1  0  0  0  0
  7  9  1  0  0  0  0
  9 10  1  1  0  0  0
  9 11  1  0  0  0  0
 11 12  1  6  0  0  0
 11 13  1  0  0  0  0
 13 31  1  0  0  0  0
 14 15  1  0  0  0  0
 15 16  2  0  0  0  0
 15 17  1  0  0  0  0
 17 18  1  0  0  0  0
 18 20  2  0  0  0  0
 19 18  1  6  0  0  0
 19 22  1  0  0  0  0
 19 30  1  0  0  0  0
 21 23  1  1  0  0  0
 21 29  1  0  0  0  0
 21 22  1  0  0  0  0
 23 24  1  0  0  0  0
 24 25  1  6  0  0  0
 24 26  1  0  0  0  0
 26 27  1  6  0  0  0
 26 28  1  0  0  0  0
 29 28  1  6  0  0  0
 29 31  1  0  0  0  0
 30 14  1  6  0  0  0
 30 31  1  0  0  0  0
M  CHG  1   3  -1
M  END
>  <CHROM.1>
-173.94143823,21.81874918,47.40186933,-46.57410652,56.52038169,-152.70989065
-94.63211148,29.84275196,38.08896066,18.88129593,0.26755008,-0.94410074,2.69358964

>  <Name>
ligand

>  <RI>
0

>  <Rbt.Current_Directory>
/home/itssahil/PROJECTS/Mol_Feturizer/New_Systems/rnas/3F2T

>  <Rbt.Executable>
rbdock ($Id: //depot/dev/client3/rdock/2013.1/src/exe/rbdock.cxx#4 $)

>  <Rbt.Library>
libRbt.so (2013.1, Build901 2013/11/27)

>  <Rbt.Parameter_File>
/export/apps/rDock/src/rDock_2013.1_src/data/scripts/dock_solv.prm

>  <Rbt.Receptor>
prm/pocket_docking_8.prm

>  <SCORE>
-20.6258

>  <SCORE.INTER>
-22.2946

>  <SCORE.INTER.CONST>
1

>  <SCORE.INTER.POLAR>
0

>  <SCORE.INTER.ROT>
7

>  <SCORE.INTER.SOLV>
19.1891

>  <SCORE.INTER.VDW>
-29.5261

>  <SCORE.INTER.norm>
-0.71918

>  <SCORE.INTRA>
1.66878

>  <SCORE.INTRA.DIHEDRAL>
1.86095

>  <SCORE.INTRA.DIHEDRAL.0>
4.64198

>  <SCORE.INTRA.POLAR>
0

>  <SCORE.INTRA.POLAR.0>
0

>  <SCORE.INTRA.REPUL>
0

>  <SCORE.INTRA.REPUL.0>
0

>  <SCORE.INTRA.SOLV>
-0.749541

>  <SCORE.INTRA.SOLV.lig_0>
-49.3611

>  <SCORE.INTRA.VDW>
1.11307

>  <SCORE.INTRA.VDW.0>
-1.91858

>  <SCORE.INTRA.norm>
0.0538315

>  <SCORE.RESTR>
0

>  <SCORE.RESTR.CAVITY>
0

>  <SCORE.RESTR.norm>
0

>  <SCORE.SYSTEM>
0

>  <SCORE.SYSTEM.CONST>
0

>  <SCORE.SYSTEM.DIHEDRAL>
0

>  <SCORE.SYSTEM.SOLV>
0

>  <SCORE.SYSTEM.norm>
0

>  <SCORE.heavy>
31

>  <SCORE.norm>
-0.665349

>  <RMSD>
7.092

$$$$
ligand
 OpenBabel11021811473D
libRbt.so/2013.1/901 2013/11/27
 31 33  0  0  0  0  0  0  0  0999 V2000
   25.6963   32.7048   18.3479 P   0  0  1  0  0  0  0  0  0  0  0  0
   26.9659   32.6223   17.5389 O   0  0  0  0  0  0  0  0  0  0  0  0
   24.5372   32.9027   17.4076 O   0  5  0  0  0  0  0  0  0  0  0  0
   25.5921   31.4151   19.1147 O   0  0  0  0  0  0  0  0  0  0  0  0
   26.8734   34.2544   20.1040 C   0  0  0  0  0  0  0  0  0  0  0  0
   25.6980   33.9224   19.3946 O   0  0  0  0  0  0  0  0  0  0  0  0
   26.6004   35.4680   20.9887 C   0  0  1  0  0  0  0  0  0  0  0  0
   26.2381   35.0407   22.2867 O   0  0  0  0  0  0  0  0  0  0  0  0
   27.8456   36.3337   21.0823 C   0  0  1  0  0  0  0  0  0  0  0  0
   28.3774   36.4870   19.7936 O   0  0  0  0  0  0  0  0  0  0  0  0
   27.5598   37.7084   21.6629 C   0  0  1  0  0  0  0  0  0  0  0  0
   27.0994   37.5438   22.9770 O   0  0  0  0  0  0  0  0  0  0  0  0
   28.8159   38.5638   21.6763 C   0  0  0  0  0  0  0  0  0  0  0  0
   28.2225   39.5008   19.0899 N   0  0  0  0  0  0  0  0  0  0  0  0
   27.9969   39.9217   17.7973 C   0  0  0  0  0  0  0  0  0  0  0  0
   27.9883   39.1089   16.8775 O   0  0  0  0  0  0  0  0  0  0  0  0
   27.7821   41.2535   17.5247 N   0  0  0  0  0  0  0  0  0  0  0  0
   27.7793   42.1806   18.5486 C   0  0  0  0  0  0  0  0  0  0  0  0
   28.0067   41.7653   19.8559 C   0  0  1  0  0  0  0  0  0  0  0  0
   27.5677   43.3697   18.3016 O   0  0  0  0  0  0  0  0  0  0  0  0
   28.2315   42.2714   22.1825 C   0  0  2  0  0  0  0  0  0  0  0  0
   28.0071   42.6868   20.8838 N   0  0  0  0  0  0  0  0  0  0  0  0
   28.2317   43.2038   23.2205 C   0  0  0  0  0  0  0  0  0  0  0  0
   28.4615   42.7974   24.5297 C   0  0  1  0  0  0  0  0  0  0  0  0
   28.4580   43.8256   25.6163 C   0  0  0  0  0  0  0  0  0  0  0  0
   28.6894   41.4413   24.8086 C   0  0  1  0  0  0  0  0  0  0  0  0
   28.9330   40.9590   26.2123 C   0  0  0  0  0  0  0  0  0  0  0  0
   28.6902   40.5135   23.7704 C   0  0  0  0  0  0  0  0  0  0  0  0
   28.4636   40.9210   22.4546 C   0  0  1  0  0  0  0  0  0  0  0  0
   28.2331   40.4165   20.1226 C   0  0  1  0  0  0  0  0  0  0  0  0
   28.4663   39.9987   21.4189 N   0  0  0  0  0  0  0  0  0  0  0  0
  1  2  1  6  0  0  0
  1  3  1  0  0  0  0
  1  4  2  0  0  0  0
  1  6  1  0  0  0  0
  5  6  1  0  0  0  0
  7  5  1  6  0  0  0
  7  8  1  0  0  0  0
  7  9  1  0  0  0  0
  9 10  1  6  0  0  0
  9 11  1  0  0  0  0
 11 12  1  1  0  0  0
 11 13  1  0  0  0  0
 13 31  1  0  0  0  0
 14 15  1  0  0  0  0
 15 16  2  0  0  0  0
 15 17  1  0  0  0  0
 17 18  1  0  0  0  0
 18 20  2  0  0  0  0
 19 18  1  1  0  0  0
 19 22  1  0  0  0  0
 19 30  1  0  0  0  0
 21 23  1  6  0  0  0
 21 29  1  0  0  0  0
 21 22  1  0  0  0  0
 23 24  1  0  0  0  0
 24 25  1  1  0  0  0
 24 26  1  0  0  0  0
 26 27  1  1  0  0  0
 26 28  1  0  0  0  0
 29 28  1  1  0  0  0
 29 31  1  0  0  0  0
 30 14  1  1  0  0  0
 30 31  1  0  0  0  0
M  CHG  1   3  -1
M  END
>  <CHROM.1>
178.27237852,-39.09214351,94.24194644,45.77943651,62.92146753,145.33598927
104.62231645,27.48337802,38.30648963,20.65101514,3.09664750,-1.33349219,-1.20661809

>  <Name>
ligand

>  <RI>
0

>  <Rbt.Current_Directory>
/home/itssahil/PROJECTS/Mol_Feturizer/New_Systems/rnas/3F2T

>  <Rbt.Executable>
rbdock ($Id: //depot/dev/client3/rdock/2013.1/src/exe/rbdock.cxx#4 $)

>  <Rbt.Library>
libRbt.so (2013.1, Build901 2013/11/27)

>  <Rbt.Parameter_File>
/export/apps/rDock/src/rDock_2013.1_src/data/scripts/dock_solv.prm

>  <Rbt.Receptor>
prm/blind_docking_80.prm

>  <SCORE>
-13.5551

>  <SCORE.INTER>
-15.7614

>  <SCORE.INTER.CONST>
1

>  <SCORE.INTER.POLAR>
0

>  <SCORE.INTER.ROT>
7

>  <SCORE.INTER.SOLV>
20.0082

>  <SCORE.INTER.VDW>
-25.4437

>  <SCORE.INTER.norm>
-0.508433

>  <SCORE.INTRA>
2.20631

>  <SCORE.INTRA.DIHEDRAL>
4.53358

>  <SCORE.INTRA.DIHEDRAL.0>
4.64198

>  <SCORE.INTRA.POLAR>
0

>  <SCORE.INTRA.POLAR.0>
0

>  <SCORE.INTRA.REPUL>
0

>  <SCORE.INTRA.REPUL.0>
0

>  <SCORE.INTRA.SOLV>
-0.810475

>  <SCORE.INTRA.SOLV.lig_0>
-49.3611

>  <SCORE.INTRA.VDW>
0.344762

>  <SCORE.INTRA.VDW.0>
-1.91858

>  <SCORE.INTRA.norm>
0.0711714

>  <SCORE.RESTR>
0

>  <SCORE.RESTR.CAVITY>
0

>  <SCORE.RESTR.norm>
0

>  <SCORE.SYSTEM>
0

>  <SCORE.SYSTEM.CONST>
0

>  <SCORE.SYSTEM.DIHEDRAL>
0

>  <SCORE.SYSTEM.SOLV>
0

>  <SCORE.SYSTEM.norm>
0

>  <SCORE.heavy>
31

>  <SCORE.norm>
-0.437261

>  <RMSD>
7.108

$$$$
ligand
 OpenBabel11021811473D
libRbt.so/2013.1/901 2013/11/27
 31 33  0  0  0  0  0  0  0  0999 V2000
   33.4544   34.2715   14.5766 P   0  0  1  0  0  0  0  0  0  0  0  0
   33.1652   34.9431   13.2581 O   0  0  0  0  0  0  0  0  0  0  0  0
   32.7445   32.9440   14.6075 O   0  5  0  0  0  0  0  0  0  0  0  0
   34.9482   34.1190   14.6615 O   0  0  0  0  0  0  0  0  0  0  0  0
   31.6229   35.5903   15.9097 C   0  0  0  0  0  0  0  0  0  0  0  0
   32.9560   35.1289   15.8394 O   0  0  0  0  0  0  0  0  0  0  0  0
   31.4218   36.3475   17.2198 C   0  0  1  0  0  0  0  0  0  0  0  0
   32.3719   37.3896   17.3195 O   0  0  0  0  0  0  0  0  0  0  0  0
   30.0255   36.9450   17.2657 C   0  0  1  0  0  0  0  0  0  0  0  0
   29.0930   35.9010   17.1788 O   0  0  0  0  0  0  0  0  0  0  0  0
   29.7671   37.7301   18.5407 C   0  0  1  0  0  0  0  0  0  0  0  0
   30.6844   38.7889   18.5988 O   0  0  0  0  0  0  0  0  0  0  0  0
   28.3545   38.2905   18.5560 C   0  0  0  0  0  0  0  0  0  0  0  0
   28.5290   41.0993   18.5614 N   0  0  0  0  0  0  0  0  0  0  0  0
   28.6830   42.4682   18.5241 C   0  0  0  0  0  0  0  0  0  0  0  0
   28.9074   43.0339   17.4581 O   0  0  0  0  0  0  0  0  0  0  0  0
   28.5894   43.2124   19.6780 N   0  0  0  0  0  0  0  0  0  0  0  0
   28.3282   42.5934   20.8848 C   0  0  0  0  0  0  0  0  0  0  0  0
   28.1721   41.2126   20.9323 C   0  0  1  0  0  0  0  0  0  0  0  0
   28.2267   43.2666   21.9125 O   0  0  0  0  0  0  0  0  0  0  0  0
   27.7561   39.2150   22.1797 C   0  0  2  0  0  0  0  0  0  0  0  0
   27.9127   40.5872   22.1354 N   0  0  0  0  0  0  0  0  0  0  0  0
   27.4940   38.5841   23.3964 C   0  0  0  0  0  0  0  0  0  0  0  0
   27.3399   37.2039   23.4530 C   0  0  1  0  0  0  0  0  0  0  0  0
   27.0634   36.5617   24.7755 C   0  0  0  0  0  0  0  0  0  0  0  0
   27.4435   36.4424   22.2792 C   0  0  1  0  0  0  0  0  0  0  0  0
   27.2743   34.9479   22.2958 C   0  0  0  0  0  0  0  0  0  0  0  0
   27.7067   37.0746   21.0668 C   0  0  0  0  0  0  0  0  0  0  0  0
   27.8658   38.4604   21.0093 C   0  0  1  0  0  0  0  0  0  0  0  0
   28.2778   40.4649   19.7612 C   0  0  1  0  0  0  0  0  0  0  0  0
   28.1303   39.0917   19.8032 N   0  0  0  0  0  0  0  0  0  0  0  0
  1  2  1  6  0  0  0
  1  3  1  0  0  0  0
  1  4  2  0  0  0  0
  1  6  1  0  0  0  0
  5  6  1  0  0  0  0
  7  5  1  6  0  0  0
  7  8  1  0  0  0  0
  7  9  1  0  0  0  0
  9 10  1  1  0  0  0
  9 11  1  0  0  0  0
 11 12  1  6  0  0  0
 11 13  1  0  0  0  0
 13 31  1  0  0  0  0
 14 15  1  0  0  0  0
 15 16  2  0  0  0  0
 15 17  1  0  0  0  0
 17 18  1  0  0  0  0
 18 20  2  0  0  0  0
 19 18  1  6  0  0  0
 19 22  1  0  0  0  0
 19 30  1  0  0  0  0
 21 23  1  1  0  0  0
 21 29  1  0  0  0  0
 21 22  1  0  0  0  0
 23 24  1  0  0  0  0
 24 25  1  6  0  0  0
 24 26  1  0  0  0  0
 26 27  1  6  0  0  0
 26 28  1  0  0  0  0
 29 28  1  6  0  0  0
 29 31  1  0  0  0  0
 30 14  1  6  0  0  0
 30 31  1  0  0  0  0
M  CHG  1   3  -1
M  END
>  <CHROM.1>
178.92308321,52.72108697,55.68399126,60.19624380,61.08753054,-178.49595513
-78.79154386,29.77625970,37.94978675,18.81269804,-0.38832402,0.98084314,-0.24747842

>  <Name>
ligand

>  <RI>
0

>  <Rbt.Current_Directory>
/home/itssahil/PROJECTS/Mol_Feturizer/New_Systems/rnas/3F2T

>  <Rbt.Executable>
rbdock ($Id: //depot/dev/client3/rdock/2013.1/src/exe/rbdock.cxx#4 $)

>  <Rbt.Library>
libRbt.so (2013.1, Build901 2013/11/27)

>  <Rbt.Parameter_File>
/export/apps/rDock/src/rDock_2013.1_src/data/scripts/dock_solv.prm

>  <Rbt.Receptor>
prm/blind_docking_60.prm

>  <SCORE>
-24.7462

>  <SCORE.INTER>
-23.2457

>  <SCORE.INTER.CONST>
1

>  <SCORE.INTER.POLAR>
0

>  <SCORE.INTER.ROT>
7

>  <SCORE.INTER.SOLV>
14.6579

>  <SCORE.INTER.VDW>
-28.6498

>  <SCORE.INTER.norm>
-0.749862

>  <SCORE.INTRA>
-1.50048

>  <SCORE.INTRA.DIHEDRAL>
-3.36845

>  <SCORE.INTRA.DIHEDRAL.0>
4.64198

>  <SCORE.INTRA.POLAR>
0

>  <SCORE.INTRA.POLAR.0>
0

>  <SCORE.INTRA.REPUL>
0

>  <SCORE.INTRA.REPUL.0>
0

>  <SCORE.INTRA.SOLV>
-0.539324

>  <SCORE.INTRA.SOLV.lig_0>
-49.3611

>  <SCORE.INTRA.VDW>
0.45341

>  <SCORE.INTRA.VDW.0>
-1.91858

>  <SCORE.INTRA.norm>
-0.0484025

>  <SCORE.RESTR>
0

>  <SCORE.RESTR.CAVITY>
0

>  <SCORE.RESTR.norm>
0

>  <SCORE.SYSTEM>
0

>  <SCORE.SYSTEM.CONST>
0

>  <SCORE.SYSTEM.DIHEDRAL>
0

>  <SCORE.SYSTEM.SOLV>
0

>  <SCORE.SYSTEM.norm>
0

>  <SCORE.heavy>
31

>  <SCORE.norm>
-0.798264

>  <RMSD>
7.160

$$$$
ligand
 OpenBabel11021811473D
libRbt.so/2013.1/901 2013/11/27
 31 33  0  0  0  0  0  0  0  0999 V2000
   30.8912   39.9701   28.4516 P   0  0  1  0  0  0  0  0  0  0  0  0
   31.7925   40.3665   27.3098 O   0  0  0  0  0  0  0  0  0  0  0  0
   31.2940   38.6008   28.9311 O   0  5  0  0  0  0  0  0  0  0  0  0
   31.0623   41.0181   29.5167 O   0  0  0  0  0  0  0  0  0  0  0  0
   28.8413   38.8251   27.2863 C   0  0  0  0  0  0  0  0  0  0  0  0
   29.3413   39.9128   28.0360 O   0  0  0  0  0  0  0  0  0  0  0  0
   27.3576   39.0484   27.0054 C   0  0  1  0  0  0  0  0  0  0  0  0
   27.1987   40.1326   26.1122 O   0  0  0  0  0  0  0  0  0  0  0  0
   26.7533   37.8013   26.3821 C   0  0  1  0  0  0  0  0  0  0  0  0
   25.4404   38.0952   25.9854 O   0  0  0  0  0  0  0  0  0  0  0  0
   27.5347   37.3143   25.1734 C   0  0  1  0  0  0  0  0  0  0  0  0
   28.5241   36.4259   25.6182 O   0  0  0  0  0  0  0  0  0  0  0  0
   26.6235   36.5972   24.1911 C   0  0  0  0  0  0  0  0  0  0  0  0
   27.0877   34.3637   22.5431 N   0  0  0  0  0  0  0  0  0  0  0  0
   27.3528   33.2358   21.7972 C   0  0  0  0  0  0  0  0  0  0  0  0
   27.0688   32.1256   22.2372 O   0  0  0  0  0  0  0  0  0  0  0  0
   27.9390   33.3417   20.5566 N   0  0  0  0  0  0  0  0  0  0  0  0
   28.2569   34.5834   20.0420 C   0  0  0  0  0  0  0  0  0  0  0  0
   27.9938   35.7271   20.7877 C   0  0  1  0  0  0  0  0  0  0  0  0
   28.7646   34.6740   18.9223 O   0  0  0  0  0  0  0  0  0  0  0  0
   28.0465   38.1066   21.0224 C   0  0  2  0  0  0  0  0  0  0  0  0
   28.3107   36.9713   20.2802 N   0  0  0  0  0  0  0  0  0  0  0  0
   28.3674   39.3634   20.5084 C   0  0  0  0  0  0  0  0  0  0  0  0
   28.1108   40.5114   21.2487 C   0  0  1  0  0  0  0  0  0  0  0  0
   28.4715   41.8417   20.6671 C   0  0  0  0  0  0  0  0  0  0  0  0
   27.5211   40.4052   22.5175 C   0  0  1  0  0  0  0  0  0  0  0  0
   27.2186   41.6230   23.3467 C   0  0  0  0  0  0  0  0  0  0  0  0
   27.2036   39.1494   23.0284 C   0  0  0  0  0  0  0  0  0  0  0  0
   27.4648   37.9954   22.2875 C   0  0  1  0  0  0  0  0  0  0  0  0
   27.4090   35.6111   22.0471 C   0  0  1  0  0  0  0  0  0  0  0  0
   27.1513   36.7436   22.7956 N   0  0  0  0  0  0  0  0  0  0  0  0
  1  2  1  6  0  0  0
  1  3  1  0  0  0  0
  1  4  2  0  0  0  0
  1  6  1  0  0  0  0
  5  6  1  0  0  0  0
  7  5  1  6  0  0  0
  7  8  1  0  0  0  0
  7  9  1  0  0  0  0
  9 10  1  6  0  0  0
  9 11  1  0  0  0  0
 11 12  1  1  0  0  0
 11 13  1  0  0  0  0
 13 31  1  0  0  0  0
 14 15  1  0  0  0  0
 15 16  2  0  0  0  0
 15 17  1  0  0  0  0
 17 18  1  0  0  0  0
 18 20  2  0  0  0  0
 19 18  1  6  0  0  0
 19 22  1  0  0  0  0
 19 30  1  0  0  0  0
 21 23  1  1  0  0  0
 21 29  1  0  0  0  0
 21 22  1  0  0  0  0
 23 24  1  0  0  0  0
 24 25  1  6  0  0  0
 24 26  1  0  0  0  0
 26 27  1  6  0  0  0
 26 28  1  0  0  0  0
 29 28  1  6  0  0  0
 29 31  1  0  0  0  0
 30 14  1  6  0  0  0
 30 31  1  0  0  0  0
M  CHG  1   3  -1
M  END
>  <CHROM.1>
-178.54819647,76.47851231,68.43864905,-172.73498300,89.24470471,151.03452688
-51.79372554,28.29902145,37.87714886,24.09906168,-0.17564385,1.30994975,2.72590404

>  <Name>
ligand

>  <RI>
0

>  <Rbt.Current_Directory>
/home/itssahil/PROJECTS/Mol_Feturizer/New_Systems/rnas/3F2T

>  <Rbt.Executable>
rbdock ($Id: //depot/dev/client3/rdock/2013.1/src/exe/rbdock.cxx#4 $)

>  <Rbt.Library>
libRbt.so (2013.1, Build901 2013/11/27)

>  <Rbt.Parameter_File>
/export/apps/rDock/src/rDock_2013.1_src/data/scripts/dock_solv.prm

>  <Rbt.Receptor>
prm/pocket_docking_7.prm

>  <SCORE>
-26.6068

>  <SCORE.INTER>
-29.9744

>  <SCORE.INTER.CONST>
1

>  <SCORE.INTER.POLAR>
0

>  <SCORE.INTER.ROT>
7

>  <SCORE.INTER.SOLV>
17.9917

>  <SCORE.INTER.VDW>
-34.2469

>  <SCORE.INTER.norm>
-0.966917

>  <SCORE.INTRA>
3.36769

>  <SCORE.INTRA.DIHEDRAL>
2.52407

>  <SCORE.INTRA.DIHEDRAL.0>
4.64198

>  <SCORE.INTRA.POLAR>
0

>  <SCORE.INTRA.POLAR.0>
0

>  <SCORE.INTRA.REPUL>
0

>  <SCORE.INTRA.REPUL.0>
0

>  <SCORE.INTRA.SOLV>
-0.29216

>  <SCORE.INTRA.SOLV.lig_0>
-49.3611

>  <SCORE.INTRA.VDW>
2.25173

>  <SCORE.INTRA.VDW.0>
-1.91858

>  <SCORE.INTRA.norm>
0.108635

>  <SCORE.RESTR>
0

>  <SCORE.RESTR.CAVITY>
0

>  <SCORE.RESTR.norm>
0

>  <SCORE.SYSTEM>
0

>  <SCORE.SYSTEM.CONST>
0

>  <SCORE.SYSTEM.DIHEDRAL>
0

>  <SCORE.SYSTEM.SOLV>
0

>  <SCORE.SYSTEM.norm>
0

>  <SCORE.heavy>
31

>  <SCORE.norm>
-0.858282

>  <RMSD>
7.175

$$$$
ligand
 OpenBabel11021811473D
libRbt.so/2013.1/901 2013/11/27
 31 33  0  0  0  0  0  0  0  0999 V2000
   24.2405   33.4018   18.2861 P   0  0  1  0  0  0  0  0  0  0  0  0
   22.7998   33.8341   18.1817 O   0  0  0  0  0  0  0  0  0  0  0  0
   24.2828   31.9803   18.7804 O   0  5  0  0  0  0  0  0  0  0  0  0
   24.8312   33.5428   16.9102 O   0  0  0  0  0  0  0  0  0  0  0  0
   26.4959   34.1575   19.3872 C   0  0  0  0  0  0  0  0  0  0  0  0
   25.0938   34.3051   19.3031 O   0  0  0  0  0  0  0  0  0  0  0  0
   27.0548   35.2060   20.3456 C   0  0  1  0  0  0  0  0  0  0  0  0
   26.5696   36.4852   19.9894 O   0  0  0  0  0  0  0  0  0  0  0  0
   26.6239   34.8920   21.7684 C   0  0  1  0  0  0  0  0  0  0  0  0
   27.5084   33.9425   22.3006 O   0  0  0  0  0  0  0  0  0  0  0  0
   26.6235   36.1196   22.6637 C   0  0  1  0  0  0  0  0  0  0  0  0
   26.2637   35.7196   23.9585 O   0  0  0  0  0  0  0  0  0  0  0  0
   27.9997   36.7630   22.7031 C   0  0  0  0  0  0  0  0  0  0  0  0
   27.1477   38.2489   24.9361 N   0  0  0  0  0  0  0  0  0  0  0  0
   26.6708   38.9246   26.0383 C   0  0  0  0  0  0  0  0  0  0  0  0
   26.4429   38.3186   27.0812 O   0  0  0  0  0  0  0  0  0  0  0  0
   26.4435   40.2807   25.9808 N   0  0  0  0  0  0  0  0  0  0  0  0
   26.7031   40.9801   24.8183 C   0  0  0  0  0  0  0  0  0  0  0  0
   27.1838   40.3066   23.7009 C   0  0  1  0  0  0  0  0  0  0  0  0
   26.5157   42.1978   24.7778 O   0  0  0  0  0  0  0  0  0  0  0  0
   27.9230   40.3279   21.4265 C   0  0  2  0  0  0  0  0  0  0  0  0
   27.4436   40.9991   22.5352 N   0  0  0  0  0  0  0  0  0  0  0  0
   28.1851   41.0290   20.2490 C   0  0  0  0  0  0  0  0  0  0  0  0
   28.6626   40.3628   19.1264 C   0  0  1  0  0  0  0  0  0  0  0  0
   28.9289   41.1465   17.8802 C   0  0  0  0  0  0  0  0  0  0  0  0
   28.8868   38.9788   19.1802 C   0  0  1  0  0  0  0  0  0  0  0  0
   29.4114   38.2220   17.9909 C   0  0  0  0  0  0  0  0  0  0  0  0
   28.6228   38.2817   20.3563 C   0  0  0  0  0  0  0  0  0  0  0  0
   28.1391   38.9490   21.4831 C   0  0  1  0  0  0  0  0  0  0  0  0
   27.4022   38.9319   23.7640 C   0  0  1  0  0  0  0  0  0  0  0  0
   27.8734   38.2561   22.6546 N   0  0  0  0  0  0  0  0  0  0  0  0
  1  2  1  6  0  0  0
  1  3  1  0  0  0  0
  1  4  2  0  0  0  0
  1  6  1  0  0  0  0
  5  6  1  0  0  0  0
  7  5  1  6  0  0  0
  7  8  1  0  0  0  0
  7  9  1  0  0  0  0
  9 10  1  1  0  0  0
  9 11  1  0  0  0  0
 11 12  1  1  0  0  0
 11 13  1  0  0  0  0
 13 31  1  0  0  0  0
 14 15  1  0  0  0  0
 15 16  2  0  0  0  0
 15 17  1  0  0  0  0
 17 18  1  0  0  0  0
 18 20  2  0  0  0  0
 19 18  1  1  0  0  0
 19 22  1  0  0  0  0
 19 30  1  0  0  0  0
 21 23  1  6  0  0  0
 21 29  1  0  0  0  0
 21 22  1  0  0  0  0
 23 24  1  0  0  0  0
 24 25  1  1  0  0  0
 24 26  1  0  0  0  0
 26 27  1  1  0  0  0
 26 28  1  0  0  0  0
 29 28  1  1  0  0  0
 29 31  1  0  0  0  0
 30 14  1  1  0  0  0
 30 31  1  0  0  0  0
M  CHG  1   3  -1
M  END
>  <CHROM.1>
175.68958853,-171.41457464,-50.83052682,83.29630885,-177.78540589,139.07989157
-103.44245301,26.75002217,37.27491834,21.39289962,2.18734093,-1.08491076
-1.88820862

>  <Name>
ligand

>  <RI>
0

>  <Rbt.Current_Directory>
/home/itssahil/PROJECTS/Mol_Feturizer/New_Systems/rnas/3F2T

>  <Rbt.Executable>
rbdock ($Id: //depot/dev/client3/rdock/2013.1/src/exe/rbdock.cxx#4 $)

>  <Rbt.Library>
libRbt.so (2013.1, Build901 2013/11/27)

>  <Rbt.Parameter_File>
/export/apps/rDock/src/rDock_2013.1_src/data/scripts/dock_solv.prm

>  <Rbt.Receptor>
prm/blind_docking_60.prm

>  <SCORE>
-18.4818

>  <SCORE.INTER>
-20.3232

>  <SCORE.INTER.CONST>
1

>  <SCORE.INTER.POLAR>
0

>  <SCORE.INTER.ROT>
7

>  <SCORE.INTER.SOLV>
18.9862

>  <SCORE.INTER.VDW>
-28.1442

>  <SCORE.INTER.norm>
-0.655587

>  <SCORE.INTRA>
1.84136

>  <SCORE.INTRA.DIHEDRAL>
2.80766

>  <SCORE.INTRA.DIHEDRAL.0>
4.64198

>  <SCORE.INTRA.POLAR>
0

>  <SCORE.INTRA.POLAR.0>
0

>  <SCORE.INTRA.REPUL>
0

>  <SCORE.INTRA.REPUL.0>
0

>  <SCORE.INTRA.SOLV>
0.452765

>  <SCORE.INTRA.SOLV.lig_0>
-49.3611

>  <SCORE.INTRA.VDW>
0.211154

>  <SCORE.INTRA.VDW.0>
-1.91858

>  <SCORE.INTRA.norm>
0.0593989

>  <SCORE.RESTR>
0

>  <SCORE.RESTR.CAVITY>
0

>  <SCORE.RESTR.norm>
0

>  <SCORE.SYSTEM>
0

>  <SCORE.SYSTEM.CONST>
0

>  <SCORE.SYSTEM.DIHEDRAL>
0

>  <SCORE.SYSTEM.SOLV>
0

>  <SCORE.SYSTEM.norm>
0

>  <SCORE.heavy>
31

>  <SCORE.norm>
-0.596188

>  <RMSD>
7.491

$$$$
ligand
 OpenBabel11021811473D
libRbt.so/2013.1/901 2013/11/27
 31 33  0  0  0  0  0  0  0  0999 V2000
   28.1962   34.0592   18.2073 P   0  0  1  0  0  0  0  0  0  0  0  0
   29.0970   35.0344   18.9220 O   0  0  0  0  0  0  0  0  0  0  0  0
   27.2538   34.8321   17.3233 O   0  5  0  0  0  0  0  0  0  0  0  0
   29.0936   33.1451   17.4191 O   0  0  0  0  0  0  0  0  0  0  0  0
   27.3879   33.3785   20.6060 C   0  0  0  0  0  0  0  0  0  0  0  0
   27.3148   33.1685   19.2112 O   0  0  0  0  0  0  0  0  0  0  0  0
   26.9820   34.8163   20.9194 C   0  0  1  0  0  0  0  0  0  0  0  0
   25.7887   35.1361   20.2321 O   0  0  0  0  0  0  0  0  0  0  0  0
   26.7513   34.9775   22.4126 C   0  0  1  0  0  0  0  0  0  0  0  0
   27.8239   34.3838   23.0940 O   0  0  0  0  0  0  0  0  0  0  0  0
   26.6466   36.4336   22.8343 C   0  0  1  0  0  0  0  0  0  0  0  0
   26.3986   36.4752   24.2137 O   0  0  0  0  0  0  0  0  0  0  0  0
   27.9366   37.1793   22.5351 C   0  0  0  0  0  0  0  0  0  0  0  0
   27.8652   38.6619   24.9261 N   0  0  0  0  0  0  0  0  0  0  0  0
   27.7820   39.3323   26.1271 C   0  0  0  0  0  0  0  0  0  0  0  0
   28.0026   38.7402   27.1795 O   0  0  0  0  0  0  0  0  0  0  0  0
   27.4496   40.6674   26.1593 N   0  0  0  0  0  0  0  0  0  0  0  0
   27.2071   41.3516   24.9842 C   0  0  0  0  0  0  0  0  0  0  0  0
   27.2879   40.6834   23.7676 C   0  0  1  0  0  0  0  0  0  0  0  0
   26.9281   42.5519   25.0173 O   0  0  0  0  0  0  0  0  0  0  0  0
   27.1277   40.6948   21.3814 C   0  0  2  0  0  0  0  0  0  0  0  0
   27.0449   41.3606   22.5895 N   0  0  0  0  0  0  0  0  0  0  0  0
   26.8817   41.3805   20.1914 C   0  0  0  0  0  0  0  0  0  0  0  0
   26.9572   40.7191   18.9712 C   0  0  1  0  0  0  0  0  0  0  0  0
   26.6836   41.4856   17.7160 C   0  0  0  0  0  0  0  0  0  0  0  0
   27.2874   39.3559   18.9367 C   0  0  1  0  0  0  0  0  0  0  0  0
   27.3884   38.6056   17.6370 C   0  0  0  0  0  0  0  0  0  0  0  0
   27.5307   38.6740   20.1261 C   0  0  0  0  0  0  0  0  0  0  0  0
   27.4511   39.3362   21.3525 C   0  0  1  0  0  0  0  0  0  0  0  0
   27.6155   39.3292   23.7439 C   0  0  1  0  0  0  0  0  0  0  0  0
   27.6908   38.6582   22.5383 N   0  0  0  0  0  0  0  0  0  0  0  0
  1  2  1  1  0  0  0
  1  3  1  0  0  0  0
  1  4  2  0  0  0  0
  1  6  1  0  0  0  0
  5  6  1  0  0  0  0
  7  5  1  1  0  0  0
  7  8  1  0  0  0  0
  7  9  1  0  0  0  0
  9 10  1  1  0  0  0
  9 11  1  0  0  0  0
 11 12  1  1  0  0  0
 11 13  1  0  0  0  0
 13 31  1  0  0  0  0
 14 15  1  0  0  0  0
 15 16  2  0  0  0  0
 15 17  1  0  0  0  0
 17 18  1  0  0  0  0
 18 20  2  0  0  0  0
 19 18  1  6  0  0  0
 19 22  1  0  0  0  0
 19 30  1  0  0  0  0
 21 23  1  1  0  0  0
 21 29  1  0  0  0  0
 21 22  1  0  0  0  0
 23 24  1  0  0  0  0
 24 25  1  6  0  0  0
 24 26  1  0  0  0  0
 26 27  1  6  0  0  0
 26 28  1  0  0  0  0
 29 28  1  6  0  0  0
 29 31  1  0  0  0  0
 30 14  1  6  0  0  0
 30 31  1  0  0  0  0
M  CHG  1   3  -1
M  END
>  <CHROM.1>
59.36757064,2.62911096,47.43298325,46.77083019,178.38798673,162.03565982
-96.12702839,27.42417318,37.59587481,21.47903830,-0.75924192,-1.49336466
1.56966528

>  <Name>
ligand

>  <RI>
0

>  <Rbt.Current_Directory>
/home/itssahil/PROJECTS/Mol_Feturizer/New_Systems/rnas/3F2T

>  <Rbt.Executable>
rbdock ($Id: //depot/dev/client3/rdock/2013.1/src/exe/rbdock.cxx#4 $)

>  <Rbt.Library>
libRbt.so (2013.1, Build901 2013/11/27)

>  <Rbt.Parameter_File>
/export/apps/rDock/src/rDock_2013.1_src/data/scripts/dock_solv.prm

>  <Rbt.Receptor>
prm/blind_docking_100.prm

>  <SCORE>
-17.8514

>  <SCORE.INTER>
-19.7479

>  <SCORE.INTER.CONST>
1

>  <SCORE.INTER.POLAR>
0

>  <SCORE.INTER.ROT>
7

>  <SCORE.INTER.SOLV>
14.9888

>  <SCORE.INTER.VDW>
-26.4282

>  <SCORE.INTER.norm>
-0.637028

>  <SCORE.INTRA>
1.89651

>  <SCORE.INTRA.DIHEDRAL>
1.09733

>  <SCORE.INTRA.DIHEDRAL.0>
4.64198

>  <SCORE.INTRA.POLAR>
0

>  <SCORE.INTRA.POLAR.0>
0

>  <SCORE.INTRA.REPUL>
0

>  <SCORE.INTRA.REPUL.0>
0

>  <SCORE.INTRA.SOLV>
1.7953

>  <SCORE.INTRA.SOLV.lig_0>
-49.3611

>  <SCORE.INTRA.VDW>
0.450197

>  <SCORE.INTRA.VDW.0>
-1.91858

>  <SCORE.INTRA.norm>
0.0611778

>  <SCORE.RESTR>
0

>  <SCORE.RESTR.CAVITY>
0

>  <SCORE.RESTR.norm>
0

>  <SCORE.SYSTEM>
0

>  <SCORE.SYSTEM.CONST>
0

>  <SCORE.SYSTEM.DIHEDRAL>
0

>  <SCORE.SYSTEM.SOLV>
0

>  <SCORE.SYSTEM.norm>
0

>  <SCORE.heavy>
31

>  <SCORE.norm>
-0.57585

>  <RMSD>
7.536

$$$$
ligand
 OpenBabel11021811473D
libRbt.so/2013.1/901 2013/11/27
 31 33  0  0  0  0  0  0  0  0999 V2000
   31.6278   39.7818   28.9292 P   0  0  1  0  0  0  0  0  0  0  0  0
   32.5732   39.7245   27.7561 O   0  0  0  0  0  0  0  0  0  0  0  0
   31.6804   38.4641   29.6558 O   0  5  0  0  0  0  0  0  0  0  0  0
   32.0848   40.9253   29.7926 O   0  0  0  0  0  0  0  0  0  0  0  0
   29.3865   39.0687   27.7721 C   0  0  0  0  0  0  0  0  0  0  0  0
   30.1050   40.0469   28.4945 O   0  0  0  0  0  0  0  0  0  0  0  0
   28.0235   39.6335   27.3807 C   0  0  1  0  0  0  0  0  0  0  0  0
   28.1926   40.6967   26.4644 O   0  0  0  0  0  0  0  0  0  0  0  0
   27.1791   38.5501   26.7310 C   0  0  1  0  0  0  0  0  0  0  0  0
   25.9568   39.1155   26.3390 O   0  0  0  0  0  0  0  0  0  0  0  0
   27.8501   37.9371   25.5134 C   0  0  1  0  0  0  0  0  0  0  0  0
   28.6992   36.9100   25.9496 O   0  0  0  0  0  0  0  0  0  0  0  0
   26.8185   37.3613   24.5575 C   0  0  0  0  0  0  0  0  0  0  0  0
   27.2009   35.1560   22.8515 N   0  0  0  0  0  0  0  0  0  0  0  0
   27.4290   34.0409   22.0747 C   0  0  0  0  0  0  0  0  0  0  0  0
   27.1677   32.9232   22.5099 O   0  0  0  0  0  0  0  0  0  0  0  0
   27.9526   34.1681   20.8084 N   0  0  0  0  0  0  0  0  0  0  0  0
   28.2440   35.4186   20.2993 C   0  0  0  0  0  0  0  0  0  0  0  0
   28.0179   36.5494   21.0760 C   0  0  1  0  0  0  0  0  0  0  0  0
   28.6952   35.5283   19.1574 O   0  0  0  0  0  0  0  0  0  0  0  0
   28.0813   38.9247   21.3473 C   0  0  2  0  0  0  0  0  0  0  0  0
   28.3086   37.8022   20.5742 N   0  0  0  0  0  0  0  0  0  0  0  0
   28.3757   40.1903   20.8390 C   0  0  0  0  0  0  0  0  0  0  0  0
   28.1557   41.3256   21.6101 C   0  0  1  0  0  0  0  0  0  0  0  0
   28.4865   42.6657   21.0334 C   0  0  0  0  0  0  0  0  0  0  0  0
   27.6301   41.1976   22.9047 C   0  0  1  0  0  0  0  0  0  0  0  0
   27.3688   42.4011   23.7681 C   0  0  0  0  0  0  0  0  0  0  0  0
   27.3389   39.9332   23.4099 C   0  0  0  0  0  0  0  0  0  0  0  0
   27.5633   38.7919   22.6378 C   0  0  1  0  0  0  0  0  0  0  0  0
   27.4966   36.4118   22.3609 C   0  0  1  0  0  0  0  0  0  0  0  0
   27.2761   37.5315   23.1400 N   0  0  0  0  0  0  0  0  0  0  0  0
  1  2  1  6  0  0  0
  1  3  1  0  0  0  0
  1  4  2  0  0  0  0
  1  6  1  0  0  0  0
  5  6  1  0  0  0  0
  7  5  1  6  0  0  0
  7  8  1  0  0  0  0
  7  9  1  0  0  0  0
  9 10  1  6  0  0  0
  9 11  1  0  0  0  0
 11 12  1  1  0  0  0
 11 13  1  0  0  0  0
 13 31  1  0  0  0  0
 14 15  1  0  0  0  0
 15 16  2  0  0  0  0
 15 17  1  0  0  0  0
 17 18  1  0  0  0  0
 18 20  2  0  0  0  0
 19 18  1  6  0  0  0
 19 22  1  0  0  0  0
 19 30  1  0  0  0  0
 21 23  1  1  0  0  0
 21 29  1  0  0  0  0
 21 22  1  0  0  0  0
 23 24  1  0  0  0  0
 24 25  1  6  0  0  0
 24 26  1  0  0  0  0
 26 27  1  6  0  0  0
 26 28  1  0  0  0  0
 29 28  1  6  0  0  0
 29 31  1  0  0  0  0
 30 14  1  6  0  0  0
 30 31  1  0  0  0  0
M  CHG  1   3  -1
M  END
>  <CHROM.1>
-174.66513532,67.55790112,66.01307752,-177.77099587,85.55017771,145.61367204
-57.65364148,28.61011515,38.43073614,24.46432618,-0.37809011,1.19764644,3.08438487

>  <Name>
ligand

>  <RI>
0

>  <Rbt.Current_Directory>
/home/itssahil/PROJECTS/Mol_Feturizer/New_Systems/rnas/3F2T

>  <Rbt.Executable>
rbdock ($Id: //depot/dev/client3/rdock/2013.1/src/exe/rbdock.cxx#4 $)

>  <Rbt.Library>
libRbt.so (2013.1, Build901 2013/11/27)

>  <Rbt.Parameter_File>
/export/apps/rDock/src/rDock_2013.1_src/data/scripts/dock_solv.prm

>  <Rbt.Receptor>
prm/pocket_docking_8.prm

>  <SCORE>
-29.0756

>  <SCORE.INTER>
-31.3903

>  <SCORE.INTER.CONST>
1

>  <SCORE.INTER.POLAR>
0

>  <SCORE.INTER.ROT>
7

>  <SCORE.INTER.SOLV>
13.5765

>  <SCORE.INTER.VDW>
-33.719

>  <SCORE.INTER.norm>
-1.01259

>  <SCORE.INTRA>
2.31462

>  <SCORE.INTRA.DIHEDRAL>
2.23322

>  <SCORE.INTRA.DIHEDRAL.0>
4.64198

>  <SCORE.INTRA.POLAR>
0

>  <SCORE.INTRA.POLAR.0>
0

>  <SCORE.INTRA.REPUL>
0

>  <SCORE.INTRA.REPUL.0>
0

>  <SCORE.INTRA.SOLV>
-0.276068

>  <SCORE.INTRA.SOLV.lig_0>
-49.3611

>  <SCORE.INTRA.VDW>
1.33604

>  <SCORE.INTRA.VDW.0>
-1.91858

>  <SCORE.INTRA.norm>
0.0746652

>  <SCORE.RESTR>
0

>  <SCORE.RESTR.CAVITY>
0

>  <SCORE.RESTR.norm>
0

>  <SCORE.SYSTEM>
0

>  <SCORE.SYSTEM.CONST>
0

>  <SCORE.SYSTEM.DIHEDRAL>
0

>  <SCORE.SYSTEM.SOLV>
0

>  <SCORE.SYSTEM.norm>
0

>  <SCORE.heavy>
31

>  <SCORE.norm>
-0.937924

>  <RMSD>
7.584

$$$$
ligand
 OpenBabel11021811473D
libRbt.so/2013.1/901 2013/11/27
 31 33  0  0  0  0  0  0  0  0999 V2000
   27.7247   33.3026   17.8737 P   0  0  1  0  0  0  0  0  0  0  0  0
   26.3310   32.7356   17.7770 O   0  0  0  0  0  0  0  0  0  0  0  0
   28.5943   32.6222   16.8501 O   0  5  0  0  0  0  0  0  0  0  0  0
   27.6043   34.7810   17.6245 O   0  0  0  0  0  0  0  0  0  0  0  0
   27.6053   33.1459   20.4875 C   0  0  0  0  0  0  0  0  0  0  0  0
   28.3928   33.0808   19.3168 O   0  0  0  0  0  0  0  0  0  0  0  0
   27.3260   34.6084   20.8243 C   0  0  1  0  0  0  0  0  0  0  0  0
   26.3355   35.1180   19.9538 O   0  0  0  0  0  0  0  0  0  0  0  0
   26.8339   34.7269   22.2570 C   0  0  1  0  0  0  0  0  0  0  0  0
   27.7736   34.1170   23.1009 O   0  0  0  0  0  0  0  0  0  0  0  0
   26.6455   36.1703   22.6930 C   0  0  1  0  0  0  0  0  0  0  0  0
   26.1801   36.1729   24.0156 O   0  0  0  0  0  0  0  0  0  0  0  0
   27.9575   36.9341   22.6227 C   0  0  0  0  0  0  0  0  0  0  0  0
   27.2305   38.3903   24.9185 N   0  0  0  0  0  0  0  0  0  0  0  0
   26.8210   39.0467   26.0588 C   0  0  0  0  0  0  0  0  0  0  0  0
   26.7655   38.4469   27.1284 O   0  0  0  0  0  0  0  0  0  0  0  0
   26.4690   40.3762   26.0101 N   0  0  0  0  0  0  0  0  0  0  0  0
   26.5343   41.0691   24.8170 C   0  0  0  0  0  0  0  0  0  0  0  0
   26.9456   40.4149   23.6611 C   0  0  1  0  0  0  0  0  0  0  0  0
   26.2359   42.2646   24.7824 O   0  0  0  0  0  0  0  0  0  0  0  0
   27.4222   40.4490   21.3177 C   0  0  2  0  0  0  0  0  0  0  0  0
   27.0114   41.1008   22.4648 N   0  0  0  0  0  0  0  0  0  0  0  0
   27.4882   41.1434   20.1093 C   0  0  0  0  0  0  0  0  0  0  0  0
   27.8951   40.4960   18.9486 C   0  0  1  0  0  0  0  0  0  0  0  0
   27.9503   41.2715   17.6705 C   0  0  0  0  0  0  0  0  0  0  0  0
   28.2462   39.1384   18.9943 C   0  0  1  0  0  0  0  0  0  0  0  0
   28.7004   38.4033   17.7631 C   0  0  0  0  0  0  0  0  0  0  0  0
   28.1778   38.4477   20.2014 C   0  0  0  0  0  0  0  0  0  0  0  0
   27.7651   39.0957   21.3671 C   0  0  1  0  0  0  0  0  0  0  0  0
   27.2911   39.0662   23.7166 C   0  0  1  0  0  0  0  0  0  0  0  0
   27.6942   38.4090   22.5698 N   0  0  0  0  0  0  0  0  0  0  0  0
  1  2  1  6  0  0  0
  1  3  1  0  0  0  0
  1  4  2  0  0  0  0
  1  6  1  0  0  0  0
  5  6  1  0  0  0  0
  7  5  1  6  0  0  0
  7  8  1  0  0  0  0
  7  9  1  0  0  0  0
  9 10  1  1  0  0  0
  9 11  1  0  0  0  0
 11 12  1  1  0  0  0
 11 13  1  0  0  0  0
 13 31  1  0  0  0  0
 14 15  1  0  0  0  0
 15 16  2  0  0  0  0
 15 17  1  0  0  0  0
 17 18  1  0  0  0  0
 18 20  2  0  0  0  0
 19 18  1  1  0  0  0
 19 22  1  0  0  0  0
 19 30  1  0  0  0  0
 21 23  1  6  0  0  0
 21 29  1  0  0  0  0
 21 22  1  0  0  0  0
 23 24  1  0  0  0  0
 24 25  1  1  0  0  0
 24 26  1  0  0  0  0
 26 27  1  1  0  0  0
 26 28  1  0  0  0  0
 29 28  1  1  0  0  0
 29 31  1  0  0  0  0
 30 14  1  1  0  0  0
 30 31  1  0  0  0  0
M  CHG  1   3  -1
M  END
>  <CHROM.1>
-77.45391509,-35.95174024,76.05440569,54.73130633,179.42787480,159.83638432
-101.26812764,27.36105234,37.24618688,21.35444861,1.00157185,-1.40092953
-2.96167941

>  <Name>
ligand

>  <RI>
0

>  <Rbt.Current_Directory>
/home/itssahil/PROJECTS/Mol_Feturizer/New_Systems/rnas/3F2T

>  <Rbt.Executable>
rbdock ($Id: //depot/dev/client3/rdock/2013.1/src/exe/rbdock.cxx#4 $)

>  <Rbt.Library>
libRbt.so (2013.1, Build901 2013/11/27)

>  <Rbt.Parameter_File>
/export/apps/rDock/src/rDock_2013.1_src/data/scripts/dock_solv.prm

>  <Rbt.Receptor>
prm/blind_docking_60.prm

>  <SCORE>
-18.2502

>  <SCORE.INTER>
-19.9712

>  <SCORE.INTER.CONST>
1

>  <SCORE.INTER.POLAR>
0

>  <SCORE.INTER.ROT>
7

>  <SCORE.INTER.SOLV>
16.1153

>  <SCORE.INTER.VDW>
-26.9526

>  <SCORE.INTER.norm>
-0.644232

>  <SCORE.INTRA>
1.72006

>  <SCORE.INTRA.DIHEDRAL>
0.9657

>  <SCORE.INTRA.DIHEDRAL.0>
4.64198

>  <SCORE.INTRA.POLAR>
0

>  <SCORE.INTRA.POLAR.0>
0

>  <SCORE.INTRA.REPUL>
0

>  <SCORE.INTRA.REPUL.0>
0

>  <SCORE.INTRA.SOLV>
2.2483

>  <SCORE.INTRA.SOLV.lig_0>
-49.3611

>  <SCORE.INTRA.VDW>
0.113061

>  <SCORE.INTRA.VDW.0>
-1.91858

>  <SCORE.INTRA.norm>
0.0554859

>  <SCORE.RESTR>
0.000882939

>  <SCORE.RESTR.CAVITY>
0.000882939

>  <SCORE.RESTR.norm>
2.84819e-05

>  <SCORE.SYSTEM>
0

>  <SCORE.SYSTEM.CONST>
0

>  <SCORE.SYSTEM.DIHEDRAL>
0

>  <SCORE.SYSTEM.SOLV>
0

>  <SCORE.SYSTEM.norm>
0

>  <SCORE.heavy>
31

>  <SCORE.norm>
-0.588717

>  <RMSD>
7.615

$$$$
ligand
 OpenBabel11021811473D
libRbt.so/2013.1/901 2013/11/27
 31 33  0  0  0  0  0  0  0  0999 V2000
   27.9859   33.4607   18.2975 P   0  0  1  0  0  0  0  0  0  0  0  0
   28.1674   32.9015   19.6859 O   0  0  0  0  0  0  0  0  0  0  0  0
   29.1783   33.0756   17.4628 O   0  5  0  0  0  0  0  0  0  0  0  0
   26.7066   32.8769   17.7641 O   0  0  0  0  0  0  0  0  0  0  0  0
   28.8640   35.8627   18.8716 C   0  0  0  0  0  0  0  0  0  0  0  0
   27.8639   35.0616   18.2775 O   0  0  0  0  0  0  0  0  0  0  0  0
   28.4606   37.3311   18.7650 C   0  0  1  0  0  0  0  0  0  0  0  0
   28.0318   37.6139   17.4478 O   0  0  0  0  0  0  0  0  0  0  0  0
   27.3252   37.6296   19.7296 C   0  0  1  0  0  0  0  0  0  0  0  0
   26.3443   36.6382   19.5809 O   0  0  0  0  0  0  0  0  0  0  0  0
   27.7811   37.6567   21.1788 C   0  0  1  0  0  0  0  0  0  0  0  0
   28.3536   36.4135   21.4831 O   0  0  0  0  0  0  0  0  0  0  0  0
   28.8119   38.7506   21.4032 C   0  0  0  0  0  0  0  0  0  0  0  0
   27.5352   39.7858   23.6875 N   0  0  0  0  0  0  0  0  0  0  0  0
   26.8736   40.2225   24.8147 C   0  0  0  0  0  0  0  0  0  0  0  0
   26.9096   39.5581   25.8462 O   0  0  0  0  0  0  0  0  0  0  0  0
   26.1660   41.4027   24.7950 N   0  0  0  0  0  0  0  0  0  0  0  0
   26.1224   42.1676   23.6457 C   0  0  0  0  0  0  0  0  0  0  0  0
   26.7863   41.7347   22.5033 C   0  0  1  0  0  0  0  0  0  0  0  0
   25.5028   43.2333   23.6388 O   0  0  0  0  0  0  0  0  0  0  0  0
   27.4073   42.0618   20.2170 C   0  0  2  0  0  0  0  0  0  0  0  0
   26.7452   42.4932   21.3506 N   0  0  0  0  0  0  0  0  0  0  0  0
   27.3650   42.8294   19.0526 C   0  0  0  0  0  0  0  0  0  0  0  0
   28.0231   42.4021   17.9054 C   0  0  1  0  0  0  0  0  0  0  0  0
   27.9528   43.2493   16.6744 C   0  0  0  0  0  0  0  0  0  0  0  0
   28.7379   41.1949   17.9208 C   0  0  1  0  0  0  0  0  0  0  0  0
   29.4712   40.7015   16.7037 C   0  0  0  0  0  0  0  0  0  0  0  0
   28.7769   40.4302   19.0838 C   0  0  0  0  0  0  0  0  0  0  0  0
   28.1128   40.8563   20.2354 C   0  0  1  0  0  0  0  0  0  0  0  0
   27.4925   40.5337   22.5282 C   0  0  1  0  0  0  0  0  0  0  0  0
   28.1486   40.0950   21.3941 N   0  0  0  0  0  0  0  0  0  0  0  0
  1  2  1  1  0  0  0
  1  3  1  0  0  0  0
  1  4  2  0  0  0  0
  1  6  1  0  0  0  0
  5  6  1  0  0  0  0
  7  5  1  6  0  0  0
  7  8  1  0  0  0  0
  7  9  1  0  0  0  0
  9 10  1  1  0  0  0
  9 11  1  0  0  0  0
 11 12  1  6  0  0  0
 11 13  1  0  0  0  0
 13 31  1  0  0  0  0
 14 15  1  0  0  0  0
 15 16  2  0  0  0  0
 15 17  1  0  0  0  0
 17 18  1  0  0  0  0
 18 20  2  0  0  0  0
 19 18  1  1  0  0  0
 19 22  1  0  0  0  0
 19 30  1  0  0  0  0
 21 23  1  6  0  0  0
 21 29  1  0  0  0  0
 21 22  1  0  0  0  0
 23 24  1  0  0  0  0
 24 25  1  1  0  0  0
 24 26  1  0  0  0  0
 26 27  1  1  0  0  0
 26 28  1  0  0  0  0
 29 28  1  1  0  0  0
 29 31  1  0  0  0  0
 30 14  1  1  0  0  0
 30 31  1  0  0  0  0
M  CHG  1   3  -1
M  END
>  <CHROM.1>
-177.31813367,54.58736073,-47.16548287,-48.04223769,-58.16591976,73.73552524
-95.60981634,27.68860970,38.63793245,20.26440971,0.98131024,-1.33875294,3.04324500

>  <Name>
ligand

>  <RI>
0

>  <Rbt.Current_Directory>
/home/itssahil/PROJECTS/Mol_Feturizer/New_Systems/rnas/3F2T

>  <Rbt.Executable>
rbdock ($Id: //depot/dev/client3/rdock/2013.1/src/exe/rbdock.cxx#4 $)

>  <Rbt.Library>
libRbt.so (2013.1, Build901 2013/11/27)

>  <Rbt.Parameter_File>
/export/apps/rDock/src/rDock_2013.1_src/data/scripts/dock_solv.prm

>  <Rbt.Receptor>
prm/pocket_docking_8.prm

>  <SCORE>
-14.9178

>  <SCORE.INTER>
-15.1821

>  <SCORE.INTER.CONST>
1

>  <SCORE.INTER.POLAR>
0

>  <SCORE.INTER.ROT>
7

>  <SCORE.INTER.SOLV>
15.418

>  <SCORE.INTER.VDW>
-23.5274

>  <SCORE.INTER.norm>
-0.489746

>  <SCORE.INTRA>
0.264294

>  <SCORE.INTRA.DIHEDRAL>
-1.71166

>  <SCORE.INTRA.DIHEDRAL.0>
4.64198

>  <SCORE.INTRA.POLAR>
0

>  <SCORE.INTRA.POLAR.0>
0

>  <SCORE.INTRA.REPUL>
0

>  <SCORE.INTRA.REPUL.0>
0

>  <SCORE.INTRA.SOLV>
0.519007

>  <SCORE.INTRA.SOLV.lig_0>
-49.3611

>  <SCORE.INTRA.VDW>
0.860619

>  <SCORE.INTRA.VDW.0>
-1.91858

>  <SCORE.INTRA.norm>
0.00852561

>  <SCORE.RESTR>
0

>  <SCORE.RESTR.CAVITY>
0

>  <SCORE.RESTR.norm>
0

>  <SCORE.SYSTEM>
0

>  <SCORE.SYSTEM.CONST>
0

>  <SCORE.SYSTEM.DIHEDRAL>
0

>  <SCORE.SYSTEM.SOLV>
0

>  <SCORE.SYSTEM.norm>
0

>  <SCORE.heavy>
31

>  <SCORE.norm>
-0.48122

>  <RMSD>
7.636

$$$$
ligand
 OpenBabel11021811473D
libRbt.so/2013.1/901 2013/11/27
 31 33  0  0  0  0  0  0  0  0999 V2000
   25.3271   32.4383   18.2946 P   0  0  1  0  0  0  0  0  0  0  0  0
   23.9156   32.5336   17.7734 O   0  0  0  0  0  0  0  0  0  0  0  0
   25.4272   31.2388   19.1992 O   0  5  0  0  0  0  0  0  0  0  0  0
   26.2213   32.3186   17.0913 O   0  0  0  0  0  0  0  0  0  0  0  0
   27.1293   33.9290   19.4781 C   0  0  0  0  0  0  0  0  0  0  0  0
   25.7734   33.7312   19.1358 O   0  0  0  0  0  0  0  0  0  0  0  0
   27.2421   35.1347   20.4075 C   0  0  1  0  0  0  0  0  0  0  0  0
   26.5283   36.2263   19.8621 O   0  0  0  0  0  0  0  0  0  0  0  0
   26.6625   34.7961   21.7707 C   0  0  1  0  0  0  0  0  0  0  0  0
   27.4800   33.8283   22.3726 O   0  0  0  0  0  0  0  0  0  0  0  0
   26.5768   36.0056   22.6864 C   0  0  1  0  0  0  0  0  0  0  0  0
   26.1049   35.5787   23.9358 O   0  0  0  0  0  0  0  0  0  0  0  0
   27.9411   36.6519   22.8611 C   0  0  0  0  0  0  0  0  0  0  0  0
   27.0426   38.2082   25.0268 N   0  0  0  0  0  0  0  0  0  0  0  0
   26.5424   38.9190   26.0961 C   0  0  0  0  0  0  0  0  0  0  0  0
   26.2872   38.3459   27.1512 O   0  0  0  0  0  0  0  0  0  0  0  0
   26.3224   40.2735   25.9920 N   0  0  0  0  0  0  0  0  0  0  0  0
   26.6126   40.9361   24.8153 C   0  0  0  0  0  0  0  0  0  0  0  0
   27.1169   40.2271   23.7307 C   0  0  1  0  0  0  0  0  0  0  0  0
   26.4314   42.1527   24.7332 O   0  0  0  0  0  0  0  0  0  0  0  0
   27.9102   40.1764   21.4751 C   0  0  2  0  0  0  0  0  0  0  0  0
   27.4073   40.8828   22.5510 N   0  0  0  0  0  0  0  0  0  0  0  0
   28.2032   40.8402   20.2833 C   0  0  0  0  0  0  0  0  0  0  0  0
   28.7045   40.1384   19.1933 C   0  0  1  0  0  0  0  0  0  0  0  0
   29.0038   40.8827   17.9306 C   0  0  0  0  0  0  0  0  0  0  0  0
   28.9214   38.7559   19.2946 C   0  0  1  0  0  0  0  0  0  0  0  0
   29.4709   37.9612   18.1418 C   0  0  0  0  0  0  0  0  0  0  0  0
   28.6264   38.0959   20.4846 C   0  0  0  0  0  0  0  0  0  0  0  0
   28.1190   38.7991   21.5787 C   0  0  1  0  0  0  0  0  0  0  0  0
   27.3278   38.8542   23.8408 C   0  0  1  0  0  0  0  0  0  0  0  0
   27.8224   38.1432   22.7641 N   0  0  0  0  0  0  0  0  0  0  0  0
  1  2  1  6  0  0  0
  1  3  1  0  0  0  0
  1  4  2  0  0  0  0
  1  6  1  0  0  0  0
  5  6  1  0  0  0  0
  7  5  1  6  0  0  0
  7  8  1  0  0  0  0
  7  9  1  0  0  0  0
  9 10  1  1  0  0  0
  9 11  1  0  0  0  0
 11 12  1  1  0  0  0
 11 13  1  0  0  0  0
 13 31  1  0  0  0  0
 14 15  1  0  0  0  0
 15 16  2  0  0  0  0
 15 17  1  0  0  0  0
 17 18  1  0  0  0  0
 18 20  2  0  0  0  0
 19 18  1  1  0  0  0
 19 22  1  0  0  0  0
 19 30  1  0  0  0  0
 21 23  1  6  0  0  0
 21 29  1  0  0  0  0
 21 22  1  0  0  0  0
 23 24  1  0  0  0  0
 24 25  1  1  0  0  0
 24 26  1  0  0  0  0
 26 27  1  1  0  0  0
 26 28  1  0  0  0  0
 29 28  1  1  0  0  0
 29 31  1  0  0  0  0
 30 14  1  1  0  0  0
 30 31  1  0  0  0  0
M  CHG  1   3  -1
M  END
>  <CHROM.1>
-173.37545769,-167.83297938,-49.16613917,66.95799176,-176.67512891,136.33136250
-98.51047863,26.97292547,36.97163269,21.43404112,1.94297740,-1.15277567,-2.15294241

>  <Name>
ligand

>  <RI>
0

>  <Rbt.Current_Directory>
/home/itssahil/PROJECTS/Mol_Feturizer/New_Systems/rnas/3F2T

>  <Rbt.Executable>
rbdock ($Id: //depot/dev/client3/rdock/2013.1/src/exe/rbdock.cxx#4 $)

>  <Rbt.Library>
libRbt.so (2013.1, Build901 2013/11/27)

>  <Rbt.Parameter_File>
/export/apps/rDock/src/rDock_2013.1_src/data/scripts/dock_solv.prm

>  <Rbt.Receptor>
prm/blind_docking_80.prm

>  <SCORE>
-19.2906

>  <SCORE.INTER>
-20.1118

>  <SCORE.INTER.CONST>
1

>  <SCORE.INTER.POLAR>
0

>  <SCORE.INTER.ROT>
7

>  <SCORE.INTER.SOLV>
23.7262

>  <SCORE.INTER.VDW>
-29.5833

>  <SCORE.INTER.norm>
-0.648768

>  <SCORE.INTRA>
0.821241

>  <SCORE.INTRA.DIHEDRAL>
1.86619

>  <SCORE.INTRA.DIHEDRAL.0>
4.64198

>  <SCORE.INTRA.POLAR>
0

>  <SCORE.INTRA.POLAR.0>
0

>  <SCORE.INTRA.REPUL>
0

>  <SCORE.INTRA.REPUL.0>
0

>  <SCORE.INTRA.SOLV>
0.377912

>  <SCORE.INTRA.SOLV.lig_0>
-49.3611

>  <SCORE.INTRA.VDW>
-0.300809

>  <SCORE.INTRA.VDW.0>
-1.91858

>  <SCORE.INTRA.norm>
0.0264917

>  <SCORE.RESTR>
0

>  <SCORE.RESTR.CAVITY>
0

>  <SCORE.RESTR.norm>
0

>  <SCORE.SYSTEM>
0

>  <SCORE.SYSTEM.CONST>
0

>  <SCORE.SYSTEM.DIHEDRAL>
0

>  <SCORE.SYSTEM.SOLV>
0

>  <SCORE.SYSTEM.norm>
0

>  <SCORE.heavy>
31

>  <SCORE.norm>
-0.622277

>  <RMSD>
7.673

$$$$
ligand
 OpenBabel11021811473D
libRbt.so/2013.1/901 2013/11/27
 31 33  0  0  0  0  0  0  0  0999 V2000
   29.9440   40.1290   27.9266 P   0  0  1  0  0  0  0  0  0  0  0  0
   28.5174   40.1102   28.4141 O   0  0  0  0  0  0  0  0  0  0  0  0
   30.8157   40.7094   29.0084 O   0  5  0  0  0  0  0  0  0  0  0  0
   30.3069   38.7047   27.6076 O   0  0  0  0  0  0  0  0  0  0  0  0
   29.8615   42.3994   26.6193 C   0  0  0  0  0  0  0  0  0  0  0  0
   30.1423   41.0153   26.6025 O   0  0  0  0  0  0  0  0  0  0  0  0
   29.7411   42.9051   25.1841 C   0  0  1  0  0  0  0  0  0  0  0  0
   30.9863   42.7771   24.5268 O   0  0  0  0  0  0  0  0  0  0  0  0
   28.6993   42.0935   24.4327 C   0  0  1  0  0  0  0  0  0  0  0  0
   27.4322   42.4239   24.9351 O   0  0  0  0  0  0  0  0  0  0  0  0
   28.7192   42.3583   22.9366 C   0  0  1  0  0  0  0  0  0  0  0  0
   29.8892   41.7965   22.4060 O   0  0  0  0  0  0  0  0  0  0  0  0
   27.5116   41.7326   22.2585 C   0  0  0  0  0  0  0  0  0  0  0  0
   26.9257   39.8409   24.2581 N   0  0  0  0  0  0  0  0  0  0  0  0
   26.6773   38.9611   25.2891 C   0  0  0  0  0  0  0  0  0  0  0  0
   26.1828   39.3648   26.3376 O   0  0  0  0  0  0  0  0  0  0  0  0
   26.9821   37.6257   25.1554 N   0  0  0  0  0  0  0  0  0  0  0  0
   27.5304   37.1525   23.9793 C   0  0  0  0  0  0  0  0  0  0  0  0
   27.7853   38.0330   22.9337 C   0  0  1  0  0  0  0  0  0  0  0  0
   27.7841   35.9523   23.8577 O   0  0  0  0  0  0  0  0  0  0  0  0
   28.5856   38.4438   20.7178 C   0  0  2  0  0  0  0  0  0  0  0  0
   28.3349   37.5671   21.7562 N   0  0  0  0  0  0  0  0  0  0  0  0
   29.1413   37.9716   19.5282 C   0  0  0  0  0  0  0  0  0  0  0  0
   29.4023   38.8456   18.4795 C   0  0  1  0  0  0  0  0  0  0  0  0
   30.0018   38.3044   17.2203 C   0  0  0  0  0  0  0  0  0  0  0  0
   29.1003   40.2089   18.6169 C   0  0  1  0  0  0  0  0  0  0  0  0
   29.3587   41.1861   17.5030 C   0  0  0  0  0  0  0  0  0  0  0  0
   28.5474   40.6773   19.8058 C   0  0  0  0  0  0  0  0  0  0  0  0
   28.2887   39.8011   20.8614 C   0  0  1  0  0  0  0  0  0  0  0  0
   27.4829   39.3852   23.0803 C   0  0  1  0  0  0  0  0  0  0  0  0
   27.7402   40.2661   22.0472 N   0  0  0  0  0  0  0  0  0  0  0  0
  1  2  1  1  0  0  0
  1  3  1  0  0  0  0
  1  4  2  0  0  0  0
  1  6  1  0  0  0  0
  5  6  1  0  0  0  0
  7  5  1  1  0  0  0
  7  8  1  0  0  0  0
  7  9  1  0  0  0  0
  9 10  1  1  0  0  0
  9 11  1  0  0  0  0
 11 12  1  6  0  0  0
 11 13  1  0  0  0  0
 13 31  1  0  0  0  0
 14 15  1  0  0  0  0
 15 16  2  0  0  0  0
 15 17  1  0  0  0  0
 17 18  1  0  0  0  0
 18 20  2  0  0  0  0
 19 18  1  6  0  0  0
 19 22  1  0  0  0  0
 19 30  1  0  0  0  0
 21 23  1  1  0  0  0
 21 29  1  0  0  0  0
 21 22  1  0  0  0  0
 23 24  1  0  0  0  0
 24 25  1  6  0  0  0
 24 26  1  0  0  0  0
 26 27  1  6  0  0  0
 26 28  1  0  0  0  0
 29 28  1  6  0  0  0
 29 31  1  0  0  0  0
 30 14  1  6  0  0  0
 30 31  1  0  0  0  0
M  CHG  1   3  -1
M  END
>  <CHROM.1>
-163.78228396,61.60356715,-64.65111065,70.62047944,70.56331238,-79.96816716
-92.12602507,28.74576016,40.00792943,23.69859887,1.43710064,1.16802825,1.56054809

>  <Name>
ligand

>  <RI>
0

>  <Rbt.Current_Directory>
/home/itssahil/PROJECTS/Mol_Feturizer/New_Systems/rnas/3F2T

>  <Rbt.Executable>
rbdock ($Id: //depot/dev/client3/rdock/2013.1/src/exe/rbdock.cxx#4 $)

>  <Rbt.Library>
libRbt.so (2013.1, Build901 2013/11/27)

>  <Rbt.Parameter_File>
/export/apps/rDock/src/rDock_2013.1_src/data/scripts/dock_solv.prm

>  <Rbt.Receptor>
prm/blind_docking_60.prm

>  <SCORE>
-22.9891

>  <SCORE.INTER>
-22.394

>  <SCORE.INTER.CONST>
1

>  <SCORE.INTER.POLAR>
0

>  <SCORE.INTER.ROT>
7

>  <SCORE.INTER.SOLV>
15.4897

>  <SCORE.INTER.VDW>
-28.3592

>  <SCORE.INTER.norm>
-0.722388

>  <SCORE.INTRA>
-0.595381

>  <SCORE.INTRA.DIHEDRAL>
-0.152157

>  <SCORE.INTRA.DIHEDRAL.0>
4.64198

>  <SCORE.INTRA.POLAR>
0

>  <SCORE.INTRA.POLAR.0>
0

>  <SCORE.INTRA.REPUL>
0

>  <SCORE.INTRA.REPUL.0>
0

>  <SCORE.INTRA.SOLV>
0.535566

>  <SCORE.INTRA.SOLV.lig_0>
-49.3611

>  <SCORE.INTRA.VDW>
-0.787086

>  <SCORE.INTRA.VDW.0>
-1.91858

>  <SCORE.INTRA.norm>
-0.0192058

>  <SCORE.RESTR>
0.000254727

>  <SCORE.RESTR.CAVITY>
0.000254727

>  <SCORE.RESTR.norm>
8.217e-06

>  <SCORE.SYSTEM>
0

>  <SCORE.SYSTEM.CONST>
0

>  <SCORE.SYSTEM.DIHEDRAL>
0

>  <SCORE.SYSTEM.SOLV>
0

>  <SCORE.SYSTEM.norm>
0

>  <SCORE.heavy>
31

>  <SCORE.norm>
-0.741585

>  <RMSD>
7.782

$$$$
ligand
 OpenBabel11021811473D
libRbt.so/2013.1/901 2013/11/27
 31 33  0  0  0  0  0  0  0  0999 V2000
   27.1498   34.3192   20.7822 P   0  0  1  0  0  0  0  0  0  0  0  0
   25.9150   35.0897   20.3887 O   0  0  0  0  0  0  0  0  0  0  0  0
   27.0620   32.9353   20.1955 O   0  5  0  0  0  0  0  0  0  0  0  0
   28.3250   35.0899   20.2464 O   0  0  0  0  0  0  0  0  0  0  0  0
   27.7511   35.2694   23.1499 C   0  0  0  0  0  0  0  0  0  0  0  0
   27.3172   34.1730   22.3724 O   0  0  0  0  0  0  0  0  0  0  0  0
   26.6308   36.3032   23.2299 C   0  0  1  0  0  0  0  0  0  0  0  0
   25.8782   36.1012   24.4096 O   0  0  0  0  0  0  0  0  0  0  0  0
   27.2173   37.7047   23.2511 C   0  0  1  0  0  0  0  0  0  0  0  0
   28.0368   37.8257   24.3830 O   0  0  0  0  0  0  0  0  0  0  0  0
   28.0416   38.0124   22.0123 C   0  0  1  0  0  0  0  0  0  0  0  0
   27.2008   37.9309   20.8932 O   0  0  0  0  0  0  0  0  0  0  0  0
   28.6374   39.4083   22.0898 C   0  0  0  0  0  0  0  0  0  0  0  0
   27.6620   40.3084   24.5714 N   0  0  0  0  0  0  0  0  0  0  0  0
   27.1794   40.6732   25.8095 C   0  0  0  0  0  0  0  0  0  0  0  0
   27.7049   40.2352   26.8288 O   0  0  0  0  0  0  0  0  0  0  0  0
   26.1056   41.5273   25.9158 N   0  0  0  0  0  0  0  0  0  0  0  0
   25.5080   42.0370   24.7796 C   0  0  0  0  0  0  0  0  0  0  0  0
   25.9875   41.6740   23.5260 C   0  0  1  0  0  0  0  0  0  0  0  0
   24.5584   42.8165   24.8806 O   0  0  0  0  0  0  0  0  0  0  0  0
   25.8732   41.8174   21.1415 C   0  0  2  0  0  0  0  0  0  0  0  0
   25.3937   42.1781   22.3862 N   0  0  0  0  0  0  0  0  0  0  0  0
   25.2721   42.3275   19.9903 C   0  0  0  0  0  0  0  0  0  0  0  0
   25.7432   41.9671   18.7333 C   0  0  1  0  0  0  0  0  0  0  0  0
   25.0716   42.5309   17.5212 C   0  0  0  0  0  0  0  0  0  0  0  0
   26.8324   41.0896   18.6225 C   0  0  1  0  0  0  0  0  0  0  0  0
   27.3784   40.6818   17.2816 C   0  0  0  0  0  0  0  0  0  0  0  0
   27.4291   40.5809   19.7731 C   0  0  0  0  0  0  0  0  0  0  0  0
   26.9541   40.9388   21.0361 C   0  0  1  0  0  0  0  0  0  0  0  0
   27.0690   40.8010   23.4264 C   0  0  1  0  0  0  0  0  0  0  0  0
   27.5456   40.4314   22.1832 N   0  0  0  0  0  0  0  0  0  0  0  0
  1  2  1  6  0  0  0
  1  3  1  0  0  0  0
  1  4  2  0  0  0  0
  1  6  1  0  0  0  0
  5  6  1  0  0  0  0
  7  5  1  1  0  0  0
  7  8  1  0  0  0  0
  7  9  1  0  0  0  0
  9 10  1  1  0  0  0
  9 11  1  0  0  0  0
 11 12  1  6  0  0  0
 11 13  1  0  0  0  0
 13 31  1  0  0  0  0
 14 15  1  0  0  0  0
 15 16  2  0  0  0  0
 15 17  1  0  0  0  0
 17 18  1  0  0  0  0
 18 20  2  0  0  0  0
 19 18  1  1  0  0  0
 19 22  1  0  0  0  0
 19 30  1  0  0  0  0
 21 23  1  6  0  0  0
 21 29  1  0  0  0  0
 21 22  1  0  0  0  0
 23 24  1  0  0  0  0
 24 25  1  1  0  0  0
 24 26  1  0  0  0  0
 26 27  1  1  0  0  0
 26 28  1  0  0  0  0
 29 28  1  1  0  0  0
 29 31  1  0  0  0  0
 30 14  1  1  0  0  0
 30 31  1  0  0  0  0
M  CHG  1   3  -1
M  END
>  <CHROM.1>
71.89878998,-75.46765328,94.76417338,-60.69731337,61.59116864,-60.58456033
-86.55042043,26.81795902,38.83614492,22.08986684,0.40706444,1.39798614,-1.81935538

>  <Name>
ligand

>  <RI>
0

>  <Rbt.Current_Directory>
/home/itssahil/PROJECTS/Mol_Feturizer/New_Systems/rnas/3F2T

>  <Rbt.Executable>
rbdock ($Id: //depot/dev/client3/rdock/2013.1/src/exe/rbdock.cxx#4 $)

>  <Rbt.Library>
libRbt.so (2013.1, Build901 2013/11/27)

>  <Rbt.Parameter_File>
/export/apps/rDock/src/rDock_2013.1_src/data/scripts/dock_solv.prm

>  <Rbt.Receptor>
prm/pocket_docking_6.prm

>  <SCORE>
-21.3367

>  <SCORE.INTER>
-22.878

>  <SCORE.INTER.CONST>
1

>  <SCORE.INTER.POLAR>
0

>  <SCORE.INTER.ROT>
7

>  <SCORE.INTER.SOLV>
20.6925

>  <SCORE.INTER.VDW>
-30.4161

>  <SCORE.INTER.norm>
-0.737998

>  <SCORE.INTRA>
1.47123

>  <SCORE.INTRA.DIHEDRAL>
0.814451

>  <SCORE.INTRA.DIHEDRAL.0>
4.64198

>  <SCORE.INTRA.POLAR>
0

>  <SCORE.INTRA.POLAR.0>
0

>  <SCORE.INTRA.REPUL>
0

>  <SCORE.INTRA.REPUL.0>
0

>  <SCORE.INTRA.SOLV>
3.1861

>  <SCORE.INTRA.SOLV.lig_0>
-49.3611

>  <SCORE.INTRA.VDW>
-0.529043

>  <SCORE.INTRA.VDW.0>
-1.91858

>  <SCORE.INTRA.norm>
0.0474591

>  <SCORE.RESTR>
0.0699789

>  <SCORE.RESTR.CAVITY>
0.0699789

>  <SCORE.RESTR.norm>
0.00225738

>  <SCORE.SYSTEM>
0

>  <SCORE.SYSTEM.CONST>
0

>  <SCORE.SYSTEM.DIHEDRAL>
0

>  <SCORE.SYSTEM.SOLV>
0

>  <SCORE.SYSTEM.norm>
0

>  <SCORE.heavy>
31

>  <SCORE.norm>
-0.688282

>  <RMSD>
7.960

$$$$
ligand
 OpenBabel11021811473D
libRbt.so/2013.1/901 2013/11/27
 31 33  0  0  0  0  0  0  0  0999 V2000
   26.5953   34.1290   19.4426 P   0  0  1  0  0  0  0  0  0  0  0  0
   25.2758   34.4436   18.7844 O   0  0  0  0  0  0  0  0  0  0  0  0
   26.6691   32.6457   19.6902 O   0  5  0  0  0  0  0  0  0  0  0  0
   27.6680   34.6018   18.5004 O   0  0  0  0  0  0  0  0  0  0  0  0
   27.0040   36.2709   20.8971 C   0  0  0  0  0  0  0  0  0  0  0  0
   26.7871   34.8761   20.8509 O   0  0  0  0  0  0  0  0  0  0  0  0
   27.0885   36.7183   22.3541 C   0  0  1  0  0  0  0  0  0  0  0  0
   28.1137   36.0029   23.0144 O   0  0  0  0  0  0  0  0  0  0  0  0
   27.3978   38.2042   22.4245 C   0  0  1  0  0  0  0  0  0  0  0  0
   27.5944   38.5534   23.7686 O   0  0  0  0  0  0  0  0  0  0  0  0
   28.6382   38.5815   21.6321 C   0  0  1  0  0  0  0  0  0  0  0  0
   28.3244   38.5176   20.2671 O   0  0  0  0  0  0  0  0  0  0  0  0
   29.0938   39.9901   21.9753 C   0  0  0  0  0  0  0  0  0  0  0  0
   27.3131   41.0255   23.8928 N   0  0  0  0  0  0  0  0  0  0  0  0
   26.4291   41.4581   24.8574 C   0  0  0  0  0  0  0  0  0  0  0  0
   26.5723   41.1085   26.0253 O   0  0  0  0  0  0  0  0  0  0  0  0
   25.3788   42.2817   24.5221 N   0  0  0  0  0  0  0  0  0  0  0  0
   25.2078   42.6923   23.2144 C   0  0  0  0  0  0  0  0  0  0  0  0
   26.0943   42.2603   22.2342 C   0  0  1  0  0  0  0  0  0  0  0  0
   24.2763   43.4453   22.9226 O   0  0  0  0  0  0  0  0  0  0  0  0
   26.8116   42.2363   19.9529 C   0  0  2  0  0  0  0  0  0  0  0  0
   25.9282   42.6654   20.9249 N   0  0  0  0  0  0  0  0  0  0  0  0
   26.6425   42.6463   18.6299 C   0  0  0  0  0  0  0  0  0  0  0  0
   27.5222   42.2164   17.6435 C   0  0  1  0  0  0  0  0  0  0  0  0
   27.3078   42.6734   16.2353 C   0  0  0  0  0  0  0  0  0  0  0  0
   28.5887   41.3696   17.9817 C   0  0  1  0  0  0  0  0  0  0  0  0
   29.5681   40.8892   16.9461 C   0  0  0  0  0  0  0  0  0  0  0  0
   28.7538   40.9609   19.3024 C   0  0  0  0  0  0  0  0  0  0  0  0
   27.8684   41.3886   20.2933 C   0  0  1  0  0  0  0  0  0  0  0  0
   27.1496   41.4187   22.5799 C   0  0  1  0  0  0  0  0  0  0  0  0
   28.0298   40.9807   21.6089 N   0  0  0  0  0  0  0  0  0  0  0  0
  1  2  1  6  0  0  0
  1  3  1  0  0  0  0
  1  4  2  0  0  0  0
  1  6  1  0  0  0  0
  5  6  1  0  0  0  0
  7  5  1  6  0  0  0
  7  8  1  0  0  0  0
  7  9  1  0  0  0  0
  9 10  1  1  0  0  0
  9 11  1  0  0  0  0
 11 12  1  6  0  0  0
 11 13  1  0  0  0  0
 13 31  1  0  0  0  0
 14 15  1  0  0  0  0
 15 16  2  0  0  0  0
 15 17  1  0  0  0  0
 17 18  1  0  0  0  0
 18 20  2  0  0  0  0
 19 18  1  1  0  0  0
 19 22  1  0  0  0  0
 19 30  1  0  0  0  0
 21 23  1  6  0  0  0
 21 29  1  0  0  0  0
 21 22  1  0  0  0  0
 23 24  1  0  0  0  0
 24 25  1  1  0  0  0
 24 26  1  0  0  0  0
 26 27  1  1  0  0  0
 26 28  1  0  0  0  0
 29 28  1  1  0  0  0
 29 31  1  0  0  0  0
 30 14  1  1  0  0  0
 30 31  1  0  0  0  0
M  CHG  1   3  -1
M  END
>  <CHROM.1>
177.49195129,-71.25331251,56.99358884,-174.43183525,73.01766955,-62.05945064
-79.17514376,27.12090372,39.20406803,21.02356426,-1.31976339,1.37577791,0.02121965

>  <Name>
ligand

>  <RI>
0

>  <Rbt.Current_Directory>
/home/itssahil/PROJECTS/Mol_Feturizer/New_Systems/rnas/3F2T

>  <Rbt.Executable>
rbdock ($Id: //depot/dev/client3/rdock/2013.1/src/exe/rbdock.cxx#4 $)

>  <Rbt.Library>
libRbt.so (2013.1, Build901 2013/11/27)

>  <Rbt.Parameter_File>
/export/apps/rDock/src/rDock_2013.1_src/data/scripts/dock_solv.prm

>  <Rbt.Receptor>
prm/blind_docking_100.prm

>  <SCORE>
-18.0804

>  <SCORE.INTER>
-19.195

>  <SCORE.INTER.CONST>
1

>  <SCORE.INTER.POLAR>
0

>  <SCORE.INTER.ROT>
7

>  <SCORE.INTER.SOLV>
15.7392

>  <SCORE.INTER.VDW>
-26.3097

>  <SCORE.INTER.norm>
-0.619193

>  <SCORE.INTRA>
1.08845

>  <SCORE.INTRA.DIHEDRAL>
-2.53866

>  <SCORE.INTRA.DIHEDRAL.0>
4.64198

>  <SCORE.INTRA.POLAR>
0

>  <SCORE.INTRA.POLAR.0>
0

>  <SCORE.INTRA.REPUL>
0

>  <SCORE.INTRA.REPUL.0>
0

>  <SCORE.INTRA.SOLV>
0.344806

>  <SCORE.INTRA.SOLV.lig_0>
-49.3611

>  <SCORE.INTRA.VDW>
2.18538

>  <SCORE.INTRA.VDW.0>
-1.91858

>  <SCORE.INTRA.norm>
0.0351113

>  <SCORE.RESTR>
0.0261283

>  <SCORE.RESTR.CAVITY>
0.0261283

>  <SCORE.RESTR.norm>
0.00084285

>  <SCORE.SYSTEM>
0

>  <SCORE.SYSTEM.CONST>
0

>  <SCORE.SYSTEM.DIHEDRAL>
0

>  <SCORE.SYSTEM.SOLV>
0

>  <SCORE.SYSTEM.norm>
0

>  <SCORE.heavy>
31

>  <SCORE.norm>
-0.583239

>  <RMSD>
7.980

$$$$
ligand
 OpenBabel11021811473D
libRbt.so/2013.1/901 2013/11/27
 31 33  0  0  0  0  0  0  0  0999 V2000
   27.2351   39.6875   25.0061 P   0  0  1  0  0  0  0  0  0  0  0  0
   26.8868   38.9914   23.7148 O   0  0  0  0  0  0  0  0  0  0  0  0
   26.1369   39.4308   26.0037 O   0  5  0  0  0  0  0  0  0  0  0  0
   28.5544   39.1222   25.4555 O   0  0  0  0  0  0  0  0  0  0  0  0
   26.2989   42.0610   24.4058 C   0  0  0  0  0  0  0  0  0  0  0  0
   27.3907   41.2769   24.8393 O   0  0  0  0  0  0  0  0  0  0  0  0
   26.2100   42.0002   22.8831 C   0  0  1  0  0  0  0  0  0  0  0  0
   25.2093   42.8890   22.4275 O   0  0  0  0  0  0  0  0  0  0  0  0
   27.5416   42.3974   22.2684 C   0  0  1  0  0  0  0  0  0  0  0  0
   28.4146   41.3031   22.3556 O   0  0  0  0  0  0  0  0  0  0  0  0
   27.4134   42.8091   20.8114 C   0  0  1  0  0  0  0  0  0  0  0  0
   28.7006   43.0359   20.3036 O   0  0  0  0  0  0  0  0  0  0  0  0
   26.7391   41.7180   19.9964 C   0  0  0  0  0  0  0  0  0  0  0  0
   28.9309   40.3770   18.8485 N   0  0  0  0  0  0  0  0  0  0  0  0
   30.0483   39.7448   18.3479 C   0  0  0  0  0  0  0  0  0  0  0  0
   30.6997   38.9882   19.0621 O   0  0  0  0  0  0  0  0  0  0  0  0
   30.4457   39.9563   17.0474 N   0  0  0  0  0  0  0  0  0  0  0  0
   29.7193   40.7972   16.2269 C   0  0  0  0  0  0  0  0  0  0  0  0
   28.5908   41.4400   16.7235 C   0  0  1  0  0  0  0  0  0  0  0  0
   30.0686   40.9685   15.0572 O   0  0  0  0  0  0  0  0  0  0  0  0
   26.7391   42.9195   16.4047 C   0  0  2  0  0  0  0  0  0  0  0  0
   27.8613   42.2832   15.9095 N   0  0  0  0  0  0  0  0  0  0  0  0
   26.0027   43.7717   15.5810 C   0  0  0  0  0  0  0  0  0  0  0  0
   24.8753   44.4207   16.0705 C   0  0  1  0  0  0  0  0  0  0  0  0
   24.1125   45.3297   15.1596 C   0  0  0  0  0  0  0  0  0  0  0  0
   24.4734   44.2133   17.3987 C   0  0  1  0  0  0  0  0  0  0  0  0
   23.2546   44.8891   17.9645 C   0  0  0  0  0  0  0  0  0  0  0  0
   25.2113   43.3636   18.2187 C   0  0  0  0  0  0  0  0  0  0  0  0
   26.3462   42.7145   17.7294 C   0  0  1  0  0  0  0  0  0  0  0  0
   28.2005   41.2284   18.0442 C   0  0  1  0  0  0  0  0  0  0  0  0
   27.0837   41.8696   18.5452 N   0  0  0  0  0  0  0  0  0  0  0  0
  1  2  1  6  0  0  0
  1  3  1  0  0  0  0
  1  4  2  0  0  0  0
  1  6  1  0  0  0  0
  5  6  1  0  0  0  0
  7  5  1  1  0  0  0
  7  8  1  0  0  0  0
  7  9  1  0  0  0  0
  9 10  1  6  0  0  0
  9 11  1  0  0  0  0
 11 12  1  6  0  0  0
 11 13  1  0  0  0  0
 13 31  1  0  0  0  0
 14 15  1  0  0  0  0
 15 16  2  0  0  0  0
 15 17  1  0  0  0  0
 17 18  1  0  0  0  0
 18 20  2  0  0  0  0
 19 18  1  6  0  0  0
 19 22  1  0  0  0  0
 19 30  1  0  0  0  0
 21 23  1  1  0  0  0
 21 29  1  0  0  0  0
 21 22  1  0  0  0  0
 23 24  1  0  0  0  0
 24 25  1  6  0  0  0
 24 26  1  0  0  0  0
 26 27  1  6  0  0  0
 26 28  1  0  0  0  0
 29 28  1  6  0  0  0
 29 31  1  0  0  0  0
 30 14  1  6  0  0  0
 30 31  1  0  0  0  0
M  CHG  1   3  -1
M  END
>  <CHROM.1>
-82.36994196,61.16339345,-173.97875617,78.64802548,-174.63025517,-158.02064105
-85.65821825,27.29496070,41.66266097,20.02685102,1.51477434,-0.65010262,1.84726927

>  <Name>
ligand

>  <RI>
0

>  <Rbt.Current_Directory>
/home/itssahil/PROJECTS/Mol_Feturizer/New_Systems/rnas/3F2T

>  <Rbt.Executable>
rbdock ($Id: //depot/dev/client3/rdock/2013.1/src/exe/rbdock.cxx#4 $)

>  <Rbt.Library>
libRbt.so (2013.1, Build901 2013/11/27)

>  <Rbt.Parameter_File>
/export/apps/rDock/src/rDock_2013.1_src/data/scripts/dock_solv.prm

>  <Rbt.Receptor>
prm/blind_docking_60.prm

>  <SCORE>
-18.0861

>  <SCORE.INTER>
-19.7154

>  <SCORE.INTER.CONST>
1

>  <SCORE.INTER.POLAR>
0

>  <SCORE.INTER.ROT>
7

>  <SCORE.INTER.SOLV>
20.0983

>  <SCORE.INTER.VDW>
-28.1097

>  <SCORE.INTER.norm>
-0.635979

>  <SCORE.INTRA>
1.62922

>  <SCORE.INTRA.DIHEDRAL>
1.61499

>  <SCORE.INTRA.DIHEDRAL.0>
4.64198

>  <SCORE.INTRA.POLAR>
0

>  <SCORE.INTRA.POLAR.0>
0

>  <SCORE.INTRA.REPUL>
0

>  <SCORE.INTRA.REPUL.0>
0

>  <SCORE.INTRA.SOLV>
1.26791

>  <SCORE.INTRA.SOLV.lig_0>
-49.3611

>  <SCORE.INTRA.VDW>
0.187776

>  <SCORE.INTRA.VDW.0>
-1.91858

>  <SCORE.INTRA.norm>
0.0525556

>  <SCORE.RESTR>
0

>  <SCORE.RESTR.CAVITY>
0

>  <SCORE.RESTR.norm>
0

>  <SCORE.SYSTEM>
0

>  <SCORE.SYSTEM.CONST>
0

>  <SCORE.SYSTEM.DIHEDRAL>
0

>  <SCORE.SYSTEM.SOLV>
0

>  <SCORE.SYSTEM.norm>
0

>  <SCORE.heavy>
31

>  <SCORE.norm>
-0.583424

>  <RMSD>
8.120

$$$$
ligand
 OpenBabel11021811473D
libRbt.so/2013.1/901 2013/11/27
 31 33  0  0  0  0  0  0  0  0999 V2000
   13.3751   28.6014   18.4687 P   0  0  1  0  0  0  0  0  0  0  0  0
   13.9746   29.4760   19.5406 O   0  0  0  0  0  0  0  0  0  0  0  0
   12.6591   27.4527   19.1279 O   0  5  0  0  0  0  0  0  0  0  0  0
   12.4407   29.4739   17.6764 O   0  0  0  0  0  0  0  0  0  0  0  0
   14.4172   26.6337   17.0857 C   0  0  0  0  0  0  0  0  0  0  0  0
   14.4745   27.9916   17.4698 O   0  0  0  0  0  0  0  0  0  0  0  0
   15.7971   26.1877   16.6089 C   0  0  1  0  0  0  0  0  0  0  0  0
   16.7916   26.7192   17.4617 O   0  0  0  0  0  0  0  0  0  0  0  0
   15.8883   24.6712   16.6274 C   0  0  1  0  0  0  0  0  0  0  0  0
   15.2689   24.2035   17.7957 O   0  0  0  0  0  0  0  0  0  0  0  0
   15.2167   24.0302   15.4246 C   0  0  1  0  0  0  0  0  0  0  0  0
   14.2808   24.9376   14.9081 O   0  0  0  0  0  0  0  0  0  0  0  0
   16.2359   23.6956   14.3481 C   0  0  0  0  0  0  0  0  0  0  0  0
   14.1023   24.3711   12.6419 N   0  0  0  0  0  0  0  0  0  0  0  0
   13.0504   24.6247   11.7886 C   0  0  0  0  0  0  0  0  0  0  0  0
   12.0030   23.9940   11.8978 O   0  0  0  0  0  0  0  0  0  0  0  0
   13.1637   25.5826   10.8070 N   0  0  0  0  0  0  0  0  0  0  0  0
   14.3317   26.3081   10.6756 C   0  0  0  0  0  0  0  0  0  0  0  0
   15.3987   26.0587   11.5316 C   0  0  1  0  0  0  0  0  0  0  0  0
   14.4215   27.1780    9.8068 O   0  0  0  0  0  0  0  0  0  0  0  0
   17.6280   26.5304   12.2578 C   0  0  2  0  0  0  0  0  0  0  0  0
   16.5696   26.7788   11.4047 N   0  0  0  0  0  0  0  0  0  0  0  0
   18.8110   27.2589   12.1284 C   0  0  0  0  0  0  0  0  0  0  0  0
   19.8834   27.0135   12.9778 C   0  0  1  0  0  0  0  0  0  0  0  0
   21.1372   27.8115   12.8073 C   0  0  0  0  0  0  0  0  0  0  0  0
   19.7731   26.0313   13.9737 C   0  0  1  0  0  0  0  0  0  0  0  0
   20.9066   25.7413   14.9189 C   0  0  0  0  0  0  0  0  0  0  0  0
   18.5918   25.3049   14.0993 C   0  0  0  0  0  0  0  0  0  0  0  0
   17.5155   25.5476   13.2440 C   0  0  1  0  0  0  0  0  0  0  0  0
   15.2797   25.0805   12.5168 C   0  0  1  0  0  0  0  0  0  0  0  0
   16.3390   24.8235   13.3660 N   0  0  0  0  0  0  0  0  0  0  0  0
  1  2  1  1  0  0  0
  1  3  1  0  0  0  0
  1  4  2  0  0  0  0
  1  6  1  0  0  0  0
  5  6  1  0  0  0  0
  7  5  1  1  0  0  0
  7  8  1  0  0  0  0
  7  9  1  0  0  0  0
  9 10  1  1  0  0  0
  9 11  1  0  0  0  0
 11 12  1  6  0  0  0
 11 13  1  0  0  0  0
 13 31  1  0  0  0  0
 14 15  1  0  0  0  0
 15 16  2  0  0  0  0
 15 17  1  0  0  0  0
 17 18  1  0  0  0  0
 18 20  2  0  0  0  0
 19 18  1  1  0  0  0
 19 22  1  0  0  0  0
 19 30  1  0  0  0  0
 21 23  1  6  0  0  0
 21 29  1  0  0  0  0
 21 22  1  0  0  0  0
 23 24  1  0  0  0  0
 24 25  1  1  0  0  0
 24 26  1  0  0  0  0
 26 27  1  1  0  0  0
 26 28  1  0  0  0  0
 29 28  1  1  0  0  0
 29 31  1  0  0  0  0
 30 14  1  1  0  0  0
 30 31  1  0  0  0  0
M  CHG  1   3  -1
M  END
>  <CHROM.1>
-158.48175610,135.83647576,41.55533797,-41.25092044,-22.23425454,-93.12472050
114.95910224,15.60571494,26.27142188,14.66322188,2.03170011,0.05710671,1.24641546

>  <Name>
ligand

>  <RI>
0

>  <Rbt.Current_Directory>
/home/itssahil/PROJECTS/Mol_Feturizer/New_Systems/rnas/3F2T

>  <Rbt.Executable>
rbdock ($Id: //depot/dev/client3/rdock/2013.1/src/exe/rbdock.cxx#4 $)

>  <Rbt.Library>
libRbt.so (2013.1, Build901 2013/11/27)

>  <Rbt.Parameter_File>
/export/apps/rDock/src/rDock_2013.1_src/data/scripts/dock_solv.prm

>  <Rbt.Receptor>
prm/blind_docking_40.prm

>  <SCORE>
5.54731

>  <SCORE.INTER>
-4.59132

>  <SCORE.INTER.CONST>
1

>  <SCORE.INTER.POLAR>
0

>  <SCORE.INTER.ROT>
7

>  <SCORE.INTER.SOLV>
19.5917

>  <SCORE.INTER.VDW>
-17.8581

>  <SCORE.INTER.norm>
-0.148107

>  <SCORE.INTRA>
9.69485

>  <SCORE.INTRA.DIHEDRAL>
9.86977

>  <SCORE.INTRA.DIHEDRAL.0>
4.64198

>  <SCORE.INTRA.POLAR>
0

>  <SCORE.INTRA.POLAR.0>
0

>  <SCORE.INTRA.REPUL>
0

>  <SCORE.INTRA.REPUL.0>
0

>  <SCORE.INTRA.SOLV>
0.519849

>  <SCORE.INTRA.SOLV.lig_0>
-49.3611

>  <SCORE.INTRA.VDW>
4.50004

>  <SCORE.INTRA.VDW.0>
-1.91858

>  <SCORE.INTRA.norm>
0.312737

>  <SCORE.RESTR>
0.443777

>  <SCORE.RESTR.CAVITY>
0.443777

>  <SCORE.RESTR.norm>
0.0143154

>  <SCORE.SYSTEM>
0

>  <SCORE.SYSTEM.CONST>
0

>  <SCORE.SYSTEM.DIHEDRAL>
0

>  <SCORE.SYSTEM.SOLV>
0

>  <SCORE.SYSTEM.norm>
0

>  <SCORE.heavy>
31

>  <SCORE.norm>
0.178945

>  <RMSD>
18.508

$$$$
ligand
 OpenBabel11021811473D
libRbt.so/2013.1/901 2013/11/27
 31 33  0  0  0  0  0  0  0  0999 V2000
   11.9046   28.5763   18.9593 P   0  0  1  0  0  0  0  0  0  0  0  0
   10.8188   29.6207   19.0175 O   0  0  0  0  0  0  0  0  0  0  0  0
   12.8158   28.7615   20.1435 O   0  5  0  0  0  0  0  0  0  0  0  0
   11.2153   27.2397   18.9764 O   0  0  0  0  0  0  0  0  0  0  0  0
   13.9608   27.8855   17.4877 C   0  0  0  0  0  0  0  0  0  0  0  0
   12.7971   28.6736   17.6280 O   0  0  0  0  0  0  0  0  0  0  0  0
   13.5582   26.4274   17.2823 C   0  0  1  0  0  0  0  0  0  0  0  0
   12.8336   26.2978   16.0753 O   0  0  0  0  0  0  0  0  0  0  0  0
   14.7975   25.5511   17.2118 C   0  0  1  0  0  0  0  0  0  0  0  0
   14.3936   24.2299   16.9697 O   0  0  0  0  0  0  0  0  0  0  0  0
   15.7561   25.9810   16.1141 C   0  0  1  0  0  0  0  0  0  0  0  0
   16.9893   26.2924   16.7042 O   0  0  0  0  0  0  0  0  0  0  0  0
   15.9541   24.8670   15.0994 C   0  0  0  0  0  0  0  0  0  0  0  0
   13.9399   25.2328   13.1683 N   0  0  0  0  0  0  0  0  0  0  0  0
   12.9293   25.3376   12.2375 C   0  0  0  0  0  0  0  0  0  0  0  0
   11.7765   25.0489   12.5449 O   0  0  0  0  0  0  0  0  0  0  0  0
   13.2012   25.7632   10.9573 N   0  0  0  0  0  0  0  0  0  0  0  0
   14.4911   26.1009   10.5966 C   0  0  0  0  0  0  0  0  0  0  0  0
   15.5175   25.9976   11.5288 C   0  0  1  0  0  0  0  0  0  0  0  0
   14.7263   26.4995    9.4541 O   0  0  0  0  0  0  0  0  0  0  0  0
   17.8274   26.2300   12.1033 C   0  0  2  0  0  0  0  0  0  0  0  0
   16.8093   26.3317   11.1746 N   0  0  0  0  0  0  0  0  0  0  0  0
   19.1326   26.5679   11.7439 C   0  0  0  0  0  0  0  0  0  0  0  0
   20.1649   26.4643   12.6688 C   0  0  1  0  0  0  0  0  0  0  0  0
   21.5523   26.8318   12.2469 C   0  0  0  0  0  0  0  0  0  0  0  0
   19.8913   26.0223   13.9720 C   0  0  1  0  0  0  0  0  0  0  0  0
   20.9780   25.9049   15.0053 C   0  0  0  0  0  0  0  0  0  0  0  0
   18.5881   25.6843   14.3272 C   0  0  0  0  0  0  0  0  0  0  0  0
   17.5511   25.7839   13.3979 C   0  0  1  0  0  0  0  0  0  0  0  0
   15.2358   25.5566   12.8202 C   0  0  1  0  0  0  0  0  0  0  0  0
   16.2528   25.4455   13.7490 N   0  0  0  0  0  0  0  0  0  0  0  0
  1  2  1  6  0  0  0
  1  3  1  0  0  0  0
  1  4  2  0  0  0  0
  1  6  1  0  0  0  0
  5  6  1  0  0  0  0
  7  5  1  6  0  0  0
  7  8  1  0  0  0  0
  7  9  1  0  0  0  0
  9 10  1  6  0  0  0
  9 11  1  0  0  0  0
 11 12  1  1  0  0  0
 11 13  1  0  0  0  0
 13 31  1  0  0  0  0
 14 15  1  0  0  0  0
 15 16  2  0  0  0  0
 15 17  1  0  0  0  0
 17 18  1  0  0  0  0
 18 20  2  0  0  0  0
 19 18  1  1  0  0  0
 19 22  1  0  0  0  0
 19 30  1  0  0  0  0
 21 23  1  6  0  0  0
 21 29  1  0  0  0  0
 21 22  1  0  0  0  0
 23 24  1  0  0  0  0
 24 25  1  1  0  0  0
 24 26  1  0  0  0  0
 26 27  1  1  0  0  0
 26 28  1  0  0  0  0
 29 28  1  1  0  0  0
 29 31  1  0  0  0  0
 30 14  1  1  0  0  0
 30 31  1  0  0  0  0
M  CHG  1   3  -1
M  END
>  <CHROM.1>
71.41171897,171.94136957,63.43960372,-177.67304372,120.81763116,150.42613427
85.51911449,15.16204840,26.48915857,14.87047855,-2.30440671,0.04484184,-1.82525400

>  <Name>
ligand

>  <RI>
0

>  <Rbt.Current_Directory>
/home/itssahil/PROJECTS/Mol_Feturizer/New_Systems/rnas/3F2T

>  <Rbt.Executable>
rbdock ($Id: //depot/dev/client3/rdock/2013.1/src/exe/rbdock.cxx#4 $)

>  <Rbt.Library>
libRbt.so (2013.1, Build901 2013/11/27)

>  <Rbt.Parameter_File>
/export/apps/rDock/src/rDock_2013.1_src/data/scripts/dock_solv.prm

>  <Rbt.Receptor>
prm/blind_docking_40.prm

>  <SCORE>
2.92028

>  <SCORE.INTER>
-4.23476

>  <SCORE.INTER.CONST>
1

>  <SCORE.INTER.POLAR>
0

>  <SCORE.INTER.ROT>
7

>  <SCORE.INTER.SOLV>
15.1599

>  <SCORE.INTER.VDW>
-16.1432

>  <SCORE.INTER.norm>
-0.136605

>  <SCORE.INTRA>
6.34584

>  <SCORE.INTRA.DIHEDRAL>
5.4732

>  <SCORE.INTRA.DIHEDRAL.0>
4.64198

>  <SCORE.INTRA.POLAR>
0

>  <SCORE.INTRA.POLAR.0>
0

>  <SCORE.INTRA.REPUL>
0

>  <SCORE.INTRA.REPUL.0>
0

>  <SCORE.INTRA.SOLV>
2.47298

>  <SCORE.INTRA.SOLV.lig_0>
-49.3611

>  <SCORE.INTRA.VDW>
2.37275

>  <SCORE.INTRA.VDW.0>
-1.91858

>  <SCORE.INTRA.norm>
0.204705

>  <SCORE.RESTR>
0.8092

>  <SCORE.RESTR.CAVITY>
0.8092

>  <SCORE.RESTR.norm>
0.0261032

>  <SCORE.SYSTEM>
0

>  <SCORE.SYSTEM.CONST>
0

>  <SCORE.SYSTEM.DIHEDRAL>
0

>  <SCORE.SYSTEM.SOLV>
0

>  <SCORE.SYSTEM.norm>
0

>  <SCORE.heavy>
31

>  <SCORE.norm>
0.0942027

>  <RMSD>
18.645

$$$$
ligand
 OpenBabel11021811473D
libRbt.so/2013.1/901 2013/11/27
 31 33  0  0  0  0  0  0  0  0999 V2000
   10.5515   29.1817   18.4822 P   0  0  1  0  0  0  0  0  0  0  0  0
   10.2897   30.6486   18.7124 O   0  0  0  0  0  0  0  0  0  0  0  0
   10.4876   28.4669   19.8058 O   0  5  0  0  0  0  0  0  0  0  0  0
    9.4942   28.7024   17.5260 O   0  0  0  0  0  0  0  0  0  0  0  0
   12.4107   27.5726   17.5741 C   0  0  0  0  0  0  0  0  0  0  0  0
   11.9929   28.8964   17.8346 O   0  0  0  0  0  0  0  0  0  0  0  0
   13.8224   27.5963   16.9938 C   0  0  1  0  0  0  0  0  0  0  0  0
   14.7107   28.1841   17.9234 O   0  0  0  0  0  0  0  0  0  0  0  0
   14.2852   26.1804   16.6944 C   0  0  1  0  0  0  0  0  0  0  0  0
   13.4361   25.6323   15.7218 O   0  0  0  0  0  0  0  0  0  0  0  0
   15.7154   26.1283   16.1842 C   0  0  1  0  0  0  0  0  0  0  0  0
   16.5675   25.9421   17.2820 O   0  0  0  0  0  0  0  0  0  0  0  0
   15.9013   24.9800   15.2062 C   0  0  0  0  0  0  0  0  0  0  0  0
   13.8686   25.3227   13.2903 N   0  0  0  0  0  0  0  0  0  0  0  0
   12.8477   25.4171   12.3696 C   0  0  0  0  0  0  0  0  0  0  0  0
   11.6941   25.1588   12.7004 O   0  0  0  0  0  0  0  0  0  0  0  0
   13.1102   25.7984   11.0735 N   0  0  0  0  0  0  0  0  0  0  0  0
   14.4009   26.1017   10.6863 C   0  0  0  0  0  0  0  0  0  0  0  0
   15.4376   26.0085   11.6082 C   0  0  1  0  0  0  0  0  0  0  0  0
   14.6280   26.4609    9.5292 O   0  0  0  0  0  0  0  0  0  0  0  0
   17.7586   26.2167   12.1460 C   0  0  2  0  0  0  0  0  0  0  0  0
   16.7302   26.3083   11.2275 N   0  0  0  0  0  0  0  0  0  0  0  0
   19.0646   26.5200   11.7599 C   0  0  0  0  0  0  0  0  0  0  0  0
   20.1071   26.4262   12.6744 C   0  0  1  0  0  0  0  0  0  0  0  0
   21.4951   26.7556   12.2239 C   0  0  0  0  0  0  0  0  0  0  0  0
   19.8430   26.0292   13.9940 C   0  0  1  0  0  0  0  0  0  0  0  0
   20.9410   25.9240   15.0165 C   0  0  0  0  0  0  0  0  0  0  0  0
   18.5388   25.7257   14.3759 C   0  0  0  0  0  0  0  0  0  0  0  0
   17.4915   25.8155   13.4571 C   0  0  1  0  0  0  0  0  0  0  0  0
   15.1652   25.6123   12.9161 C   0  0  1  0  0  0  0  0  0  0  0  0
   16.1923   25.5114   13.8349 N   0  0  0  0  0  0  0  0  0  0  0  0
  1  2  1  1  0  0  0
  1  3  1  0  0  0  0
  1  4  2  0  0  0  0
  1  6  1  0  0  0  0
  5  6  1  0  0  0  0
  7  5  1  1  0  0  0
  7  8  1  0  0  0  0
  7  9  1  0  0  0  0
  9 10  1  6  0  0  0
  9 11  1  0  0  0  0
 11 12  1  1  0  0  0
 11 13  1  0  0  0  0
 13 31  1  0  0  0  0
 14 15  1  0  0  0  0
 15 16  2  0  0  0  0
 15 17  1  0  0  0  0
 17 18  1  0  0  0  0
 18 20  2  0  0  0  0
 19 18  1  1  0  0  0
 19 22  1  0  0  0  0
 19 30  1  0  0  0  0
 21 23  1  6  0  0  0
 21 29  1  0  0  0  0
 21 22  1  0  0  0  0
 23 24  1  0  0  0  0
 24 25  1  1  0  0  0
 24 26  1  0  0  0  0
 26 27  1  1  0  0  0
 26 28  1  0  0  0  0
 29 28  1  1  0  0  0
 29 31  1  0  0  0  0
 30 14  1  1  0  0  0
 30 31  1  0  0  0  0
M  CHG  1   3  -1
M  END
>  <CHROM.1>
-178.68418764,178.88472712,60.61093625,62.57776097,92.21340772,113.86115473
86.37504508,14.79858072,26.78171322,14.83236543,-2.43159171,0.11089108,-1.88014846

>  <Name>
ligand

>  <RI>
0

>  <Rbt.Current_Directory>
/home/itssahil/PROJECTS/Mol_Feturizer/New_Systems/rnas/3F2T

>  <Rbt.Executable>
rbdock ($Id: //depot/dev/client3/rdock/2013.1/src/exe/rbdock.cxx#4 $)

>  <Rbt.Library>
libRbt.so (2013.1, Build901 2013/11/27)

>  <Rbt.Parameter_File>
/export/apps/rDock/src/rDock_2013.1_src/data/scripts/dock_solv.prm

>  <Rbt.Receptor>
prm/blind_docking_40.prm

>  <SCORE>
2.97306

>  <SCORE.INTER>
-1.8765

>  <SCORE.INTER.CONST>
1

>  <SCORE.INTER.POLAR>
0

>  <SCORE.INTER.ROT>
7

>  <SCORE.INTER.SOLV>
12.7975

>  <SCORE.INTER.VDW>
-13.7835

>  <SCORE.INTER.norm>
-0.0605323

>  <SCORE.INTRA>
3.95997

>  <SCORE.INTRA.DIHEDRAL>
4.88219

>  <SCORE.INTRA.DIHEDRAL.0>
4.64198

>  <SCORE.INTRA.POLAR>
0

>  <SCORE.INTRA.POLAR.0>
0

>  <SCORE.INTRA.REPUL>
0

>  <SCORE.INTRA.REPUL.0>
0

>  <SCORE.INTRA.SOLV>
0.173843

>  <SCORE.INTRA.SOLV.lig_0>
-49.3611

>  <SCORE.INTRA.VDW>
1.43195

>  <SCORE.INTRA.VDW.0>
-1.91858

>  <SCORE.INTRA.norm>
0.127741

>  <SCORE.RESTR>
0.889584

>  <SCORE.RESTR.CAVITY>
0.889584

>  <SCORE.RESTR.norm>
0.0286963

>  <SCORE.SYSTEM>
0

>  <SCORE.SYSTEM.CONST>
0

>  <SCORE.SYSTEM.DIHEDRAL>
0

>  <SCORE.SYSTEM.SOLV>
0

>  <SCORE.SYSTEM.norm>
0

>  <SCORE.heavy>
31

>  <SCORE.norm>
0.095905

>  <RMSD>
18.655

$$$$
ligand
 OpenBabel11021811473D
libRbt.so/2013.1/901 2013/11/27
 31 33  0  0  0  0  0  0  0  0999 V2000
   12.2204   28.2308   19.4152 P   0  0  1  0  0  0  0  0  0  0  0  0
   12.3332   28.6761   20.8513 O   0  0  0  0  0  0  0  0  0  0  0  0
   11.5096   26.9041   19.3761 O   0  5  0  0  0  0  0  0  0  0  0  0
   11.4571   29.3059   18.6917 O   0  0  0  0  0  0  0  0  0  0  0  0
   13.7469   28.0441   17.2926 C   0  0  0  0  0  0  0  0  0  0  0  0
   13.6472   28.0491   18.7015 O   0  0  0  0  0  0  0  0  0  0  0  0
   13.1673   26.7393   16.7526 C   0  0  1  0  0  0  0  0  0  0  0  0
   12.7538   26.9190   15.4126 O   0  0  0  0  0  0  0  0  0  0  0  0
   14.2185   25.6433   16.8032 C   0  0  1  0  0  0  0  0  0  0  0  0
   13.6954   24.4977   16.1859 O   0  0  0  0  0  0  0  0  0  0  0  0
   15.5069   26.0359   16.0997 C   0  0  1  0  0  0  0  0  0  0  0  0
   16.4887   26.2629   17.0746 O   0  0  0  0  0  0  0  0  0  0  0  0
   15.9742   24.9310   15.1668 C   0  0  0  0  0  0  0  0  0  0  0  0
   13.9311   25.2983   13.2665 N   0  0  0  0  0  0  0  0  0  0  0  0
   12.9057   25.4044   12.3521 C   0  0  0  0  0  0  0  0  0  0  0  0
   11.7551   25.1332   12.6829 O   0  0  0  0  0  0  0  0  0  0  0  0
   13.1603   25.8117   11.0625 N   0  0  0  0  0  0  0  0  0  0  0  0
   14.4475   26.1297   10.6755 C   0  0  0  0  0  0  0  0  0  0  0  0
   15.4888   26.0250   11.5910 C   0  0  1  0  0  0  0  0  0  0  0  0
   14.6675   26.5122    9.5245 O   0  0  0  0  0  0  0  0  0  0  0  0
   17.8109   26.2363   12.1227 C   0  0  2  0  0  0  0  0  0  0  0  0
   16.7780   26.3394   11.2105 N   0  0  0  0  0  0  0  0  0  0  0  0
   19.1135   26.5543   11.7368 C   0  0  0  0  0  0  0  0  0  0  0  0
   20.1606   26.4492   12.6449 C   0  0  1  0  0  0  0  0  0  0  0  0
   21.5446   26.7951   12.1947 C   0  0  0  0  0  0  0  0  0  0  0  0
   19.9045   26.0257   13.9578 C   0  0  1  0  0  0  0  0  0  0  0  0
   21.0076   25.9074   14.9734 C   0  0  0  0  0  0  0  0  0  0  0  0
   18.6038   25.7076   14.3394 C   0  0  0  0  0  0  0  0  0  0  0  0
   17.5519   25.8088   13.4271 C   0  0  1  0  0  0  0  0  0  0  0  0
   15.2244   25.6025   12.8923 C   0  0  1  0  0  0  0  0  0  0  0  0
   16.2561   25.4901   13.8046 N   0  0  0  0  0  0  0  0  0  0  0  0
  1  2  1  1  0  0  0
  1  3  1  0  0  0  0
  1  4  2  0  0  0  0
  1  6  1  0  0  0  0
  5  6  1  0  0  0  0
  7  5  1  6  0  0  0
  7  8  1  0  0  0  0
  7  9  1  0  0  0  0
  9 10  1  6  0  0  0
  9 11  1  0  0  0  0
 11 12  1  1  0  0  0
 11 13  1  0  0  0  0
 13 31  1  0  0  0  0
 14 15  1  0  0  0  0
 15 16  2  0  0  0  0
 15 17  1  0  0  0  0
 17 18  1  0  0  0  0
 18 20  2  0  0  0  0
 19 18  1  1  0  0  0
 19 22  1  0  0  0  0
 19 30  1  0  0  0  0
 21 23  1  6  0  0  0
 21 29  1  0  0  0  0
 21 22  1  0  0  0  0
 23 24  1  0  0  0  0
 24 25  1  1  0  0  0
 24 26  1  0  0  0  0
 26 27  1  1  0  0  0
 26 28  1  0  0  0  0
 29 28  1  1  0  0  0
 29 31  1  0  0  0  0
 30 14  1  1  0  0  0
 30 31  1  0  0  0  0
M  CHG  1   3  -1
M  END
>  <CHROM.1>
-72.10999347,-160.46598447,156.19582027,-174.49953285,107.95332547,129.13754945
97.97297600,15.13547258,26.48052269,14.92115262,-2.26218182,0.01029730,-1.81485488

>  <Name>
ligand

>  <RI>
0

>  <Rbt.Current_Directory>
/home/itssahil/PROJECTS/Mol_Feturizer/New_Systems/rnas/3F2T

>  <Rbt.Executable>
rbdock ($Id: //depot/dev/client3/rdock/2013.1/src/exe/rbdock.cxx#4 $)

>  <Rbt.Library>
libRbt.so (2013.1, Build901 2013/11/27)

>  <Rbt.Parameter_File>
/export/apps/rDock/src/rDock_2013.1_src/data/scripts/dock_solv.prm

>  <Rbt.Receptor>
prm/blind_docking_40.prm

>  <SCORE>
4.59401

>  <SCORE.INTER>
-3.98194

>  <SCORE.INTER.CONST>
1

>  <SCORE.INTER.POLAR>
0

>  <SCORE.INTER.ROT>
7

>  <SCORE.INTER.SOLV>
13.7585

>  <SCORE.INTER.VDW>
-15.5074

>  <SCORE.INTER.norm>
-0.12845

>  <SCORE.INTRA>
7.70906

>  <SCORE.INTRA.DIHEDRAL>
9.69012

>  <SCORE.INTRA.DIHEDRAL.0>
4.64198

>  <SCORE.INTRA.POLAR>
0

>  <SCORE.INTRA.POLAR.0>
0

>  <SCORE.INTRA.REPUL>
0

>  <SCORE.INTRA.REPUL.0>
0

>  <SCORE.INTRA.SOLV>
2.50424

>  <SCORE.INTRA.SOLV.lig_0>
-49.3611

>  <SCORE.INTRA.VDW>
1.61188

>  <SCORE.INTRA.VDW.0>
-1.91858

>  <SCORE.INTRA.norm>
0.248679

>  <SCORE.RESTR>
0.866888

>  <SCORE.RESTR.CAVITY>
0.866888

>  <SCORE.RESTR.norm>
0.0279641

>  <SCORE.SYSTEM>
0

>  <SCORE.SYSTEM.CONST>
0

>  <SCORE.SYSTEM.DIHEDRAL>
0

>  <SCORE.SYSTEM.SOLV>
0

>  <SCORE.SYSTEM.norm>
0

>  <SCORE.heavy>
31

>  <SCORE.norm>
0.148194

>  <RMSD>
18.675

$$$$
ligand
 OpenBabel11021811473D
libRbt.so/2013.1/901 2013/11/27
 31 33  0  0  0  0  0  0  0  0999 V2000
   11.7369   29.0533   18.1584 P   0  0  1  0  0  0  0  0  0  0  0  0
   12.2581   30.2628   17.4245 O   0  0  0  0  0  0  0  0  0  0  0  0
   11.0026   29.5153   19.3890 O   0  5  0  0  0  0  0  0  0  0  0  0
   10.8360   28.3250   17.1992 O   0  0  0  0  0  0  0  0  0  0  0  0
   13.8262   27.5431   17.6848 C   0  0  0  0  0  0  0  0  0  0  0  0
   12.9027   28.0523   18.6243 O   0  0  0  0  0  0  0  0  0  0  0  0
   13.1490   26.4578   16.8519 C   0  0  1  0  0  0  0  0  0  0  0  0
   12.7577   26.9898   15.6018 O   0  0  0  0  0  0  0  0  0  0  0  0
   14.1108   25.3047   16.6197 C   0  0  1  0  0  0  0  0  0  0  0  0
   13.5074   24.3937   15.7404 O   0  0  0  0  0  0  0  0  0  0  0  0
   15.4343   25.7576   16.0263 C   0  0  1  0  0  0  0  0  0  0  0  0
   16.3575   25.9042   17.0713 O   0  0  0  0  0  0  0  0  0  0  0  0
   15.9615   24.7359   15.0325 C   0  0  0  0  0  0  0  0  0  0  0  0
   13.9307   25.1566   13.1302 N   0  0  0  0  0  0  0  0  0  0  0  0
   12.9137   25.2871   12.2096 C   0  0  0  0  0  0  0  0  0  0  0  0
   11.7695   24.9545   12.5045 O   0  0  0  0  0  0  0  0  0  0  0  0
   13.1697   25.7877   10.9535 N   0  0  0  0  0  0  0  0  0  0  0  0
   14.4495   26.1755   10.6076 C   0  0  0  0  0  0  0  0  0  0  0  0
   15.4822   26.0468   11.5297 C   0  0  1  0  0  0  0  0  0  0  0  0
   14.6700   26.6409    9.4876 O   0  0  0  0  0  0  0  0  0  0  0  0
   17.7884   26.3036   12.1088 C   0  0  2  0  0  0  0  0  0  0  0  0
   16.7640   26.4307   11.1900 N   0  0  0  0  0  0  0  0  0  0  0  0
   19.0835   26.6919   11.7641 C   0  0  0  0  0  0  0  0  0  0  0  0
   20.1221   26.5635   12.6789 C   0  0  1  0  0  0  0  0  0  0  0  0
   21.4984   26.9867   12.2731 C   0  0  0  0  0  0  0  0  0  0  0  0
   19.8648   26.0453   13.9571 C   0  0  1  0  0  0  0  0  0  0  0  0
   20.9586   25.8985   14.9791 C   0  0  0  0  0  0  0  0  0  0  0  0
   18.5717   25.6571   14.2975 C   0  0  0  0  0  0  0  0  0  0  0  0
   17.5285   25.7817   13.3781 C   0  0  1  0  0  0  0  0  0  0  0  0
   15.2168   25.5301   12.7962 C   0  0  1  0  0  0  0  0  0  0  0  0
   16.2403   25.3936   13.7145 N   0  0  0  0  0  0  0  0  0  0  0  0
  1  2  1  6  0  0  0
  1  3  1  0  0  0  0
  1  4  2  0  0  0  0
  1  6  1  0  0  0  0
  5  6  1  0  0  0  0
  7  5  1  1  0  0  0
  7  8  1  0  0  0  0
  7  9  1  0  0  0  0
  9 10  1  6  0  0  0
  9 11  1  0  0  0  0
 11 12  1  1  0  0  0
 11 13  1  0  0  0  0
 13 31  1  0  0  0  0
 14 15  1  0  0  0  0
 15 16  2  0  0  0  0
 15 17  1  0  0  0  0
 17 18  1  0  0  0  0
 18 20  2  0  0  0  0
 19 18  1  1  0  0  0
 19 22  1  0  0  0  0
 19 30  1  0  0  0  0
 21 23  1  6  0  0  0
 21 29  1  0  0  0  0
 21 22  1  0  0  0  0
 23 24  1  0  0  0  0
 24 25  1  1  0  0  0
 24 26  1  0  0  0  0
 26 27  1  1  0  0  0
 26 28  1  0  0  0  0
 29 28  1  1  0  0  0
 29 31  1  0  0  0  0
 30 14  1  1  0  0  0
 30 31  1  0  0  0  0
M  CHG  1   3  -1
M  END
>  <CHROM.1>
-75.49889241,-54.72844394,100.40090499,-173.98070146,96.74027710,125.81215798
98.35031935,15.00927339,26.59316095,14.62365647,-2.39807033,0.06353883,-1.88920874

>  <Name>
ligand

>  <RI>
0

>  <Rbt.Current_Directory>
/home/itssahil/PROJECTS/Mol_Feturizer/New_Systems/rnas/3F2T

>  <Rbt.Executable>
rbdock ($Id: //depot/dev/client3/rdock/2013.1/src/exe/rbdock.cxx#4 $)

>  <Rbt.Library>
libRbt.so (2013.1, Build901 2013/11/27)

>  <Rbt.Parameter_File>
/export/apps/rDock/src/rDock_2013.1_src/data/scripts/dock_solv.prm

>  <Rbt.Receptor>
prm/blind_docking_40.prm

>  <SCORE>
4.50162

>  <SCORE.INTER>
-4.00089

>  <SCORE.INTER.CONST>
1

>  <SCORE.INTER.POLAR>
0

>  <SCORE.INTER.ROT>
7

>  <SCORE.INTER.SOLV>
13.3267

>  <SCORE.INTER.VDW>
-15.3762

>  <SCORE.INTER.norm>
-0.129061

>  <SCORE.INTRA>
7.73552

>  <SCORE.INTRA.DIHEDRAL>
10.7692

>  <SCORE.INTRA.DIHEDRAL.0>
4.64198

>  <SCORE.INTRA.POLAR>
0

>  <SCORE.INTRA.POLAR.0>
0

>  <SCORE.INTRA.REPUL>
0

>  <SCORE.INTRA.REPUL.0>
0

>  <SCORE.INTRA.SOLV>
2.19955

>  <SCORE.INTRA.SOLV.lig_0>
-49.3611

>  <SCORE.INTRA.VDW>
1.25114

>  <SCORE.INTRA.VDW.0>
-1.91858

>  <SCORE.INTRA.norm>
0.249533

>  <SCORE.RESTR>
0.766977

>  <SCORE.RESTR.CAVITY>
0.766977

>  <SCORE.RESTR.norm>
0.0247412

>  <SCORE.SYSTEM>
0

>  <SCORE.SYSTEM.CONST>
0

>  <SCORE.SYSTEM.DIHEDRAL>
0

>  <SCORE.SYSTEM.SOLV>
0

>  <SCORE.SYSTEM.norm>
0

>  <SCORE.heavy>
31

>  <SCORE.norm>
0.145213

>  <RMSD>
18.676

$$$$
ligand
 OpenBabel11021811473D
libRbt.so/2013.1/901 2013/11/27
 31 33  0  0  0  0  0  0  0  0999 V2000
   11.8868   28.5432   21.3015 P   0  0  1  0  0  0  0  0  0  0  0  0
   12.5816   29.3706   22.3531 O   0  0  0  0  0  0  0  0  0  0  0  0
   11.7268   27.1389   21.8206 O   0  5  0  0  0  0  0  0  0  0  0  0
   10.5625   29.2065   21.0399 O   0  0  0  0  0  0  0  0  0  0  0  0
   12.7171   27.2807   19.1598 C   0  0  0  0  0  0  0  0  0  0  0  0
   12.7031   28.4704   19.9207 O   0  0  0  0  0  0  0  0  0  0  0  0
   13.4719   27.5270   17.8561 C   0  0  1  0  0  0  0  0  0  0  0  0
   14.6575   28.2505   18.1202 O   0  0  0  0  0  0  0  0  0  0  0  0
   13.8352   26.2018   17.2074 C   0  0  1  0  0  0  0  0  0  0  0  0
   12.7745   25.8079   16.3785 O   0  0  0  0  0  0  0  0  0  0  0  0
   15.1039   26.2863   16.3755 C   0  0  1  0  0  0  0  0  0  0  0  0
   16.2015   26.3042   17.2479 O   0  0  0  0  0  0  0  0  0  0  0  0
   15.2236   25.0906   15.4453 C   0  0  0  0  0  0  0  0  0  0  0  0
   13.5205   24.9595   13.2087 N   0  0  0  0  0  0  0  0  0  0  0  0
   12.6682   24.8208   12.1348 C   0  0  0  0  0  0  0  0  0  0  0  0
   11.5191   24.4250   12.3076 O   0  0  0  0  0  0  0  0  0  0  0  0
   13.0957   25.1211   10.8616 N   0  0  0  0  0  0  0  0  0  0  0  0
   14.3824   25.5765   10.6500 C   0  0  0  0  0  0  0  0  0  0  0  0
   15.2497   25.7188   11.7274 C   0  0  1  0  0  0  0  0  0  0  0  0
   14.7545   25.8621    9.5100 O   0  0  0  0  0  0  0  0  0  0  0  0
   17.3973   26.3141   12.5954 C   0  0  2  0  0  0  0  0  0  0  0  0
   16.5377   26.1716   11.5228 N   0  0  0  0  0  0  0  0  0  0  0  0
   18.6989   26.7717   12.3872 C   0  0  0  0  0  0  0  0  0  0  0  0
   19.5732   26.9136   13.4583 C   0  0  1  0  0  0  0  0  0  0  0  0
   20.9623   27.4035   13.1968 C   0  0  0  0  0  0  0  0  0  0  0  0
   19.1421   26.5997   14.7561 C   0  0  1  0  0  0  0  0  0  0  0  0
   20.0538   26.7481   15.9432 C   0  0  0  0  0  0  0  0  0  0  0  0
   17.8432   26.1417   14.9604 C   0  0  0  0  0  0  0  0  0  0  0  0
   16.9654   25.9947   13.8848 C   0  0  1  0  0  0  0  0  0  0  0  0
   14.8126   25.4034   13.0123 C   0  0  1  0  0  0  0  0  0  0  0  0
   15.6721   25.5365   14.0860 N   0  0  0  0  0  0  0  0  0  0  0  0
  1  2  1  1  0  0  0
  1  3  1  0  0  0  0
  1  4  2  0  0  0  0
  1  6  1  0  0  0  0
  5  6  1  0  0  0  0
  7  5  1  1  0  0  0
  7  8  1  0  0  0  0
  7  9  1  0  0  0  0
  9 10  1  6  0  0  0
  9 11  1  0  0  0  0
 11 12  1  1  0  0  0
 11 13  1  0  0  0  0
 13 31  1  0  0  0  0
 14 15  1  0  0  0  0
 15 16  2  0  0  0  0
 15 17  1  0  0  0  0
 17 18  1  0  0  0  0
 18 20  2  0  0  0  0
 19 18  1  1  0  0  0
 19 22  1  0  0  0  0
 19 30  1  0  0  0  0
 21 23  1  6  0  0  0
 21 29  1  0  0  0  0
 21 22  1  0  0  0  0
 23 24  1  0  0  0  0
 24 25  1  1  0  0  0
 24 26  1  0  0  0  0
 26 27  1  1  0  0  0
 26 28  1  0  0  0  0
 29 28  1  1  0  0  0
 29 31  1  0  0  0  0
 30 14  1  1  0  0  0
 30 31  1  0  0  0  0
M  CHG  1   3  -1
M  END
>  <CHROM.1>
175.62889002,143.21479576,44.44458978,88.53343404,76.11662423,136.84448339
70.25717065,14.80110836,26.64250858,15.71351900,2.02625854,0.13055288,1.23925670

>  <Name>
ligand

>  <RI>
0

>  <Rbt.Current_Directory>
/home/itssahil/PROJECTS/Mol_Feturizer/New_Systems/rnas/3F2T

>  <Rbt.Executable>
rbdock ($Id: //depot/dev/client3/rdock/2013.1/src/exe/rbdock.cxx#4 $)

>  <Rbt.Library>
libRbt.so (2013.1, Build901 2013/11/27)

>  <Rbt.Parameter_File>
/export/apps/rDock/src/rDock_2013.1_src/data/scripts/dock_solv.prm

>  <Rbt.Receptor>
prm/blind_docking_40.prm

>  <SCORE>
61.8507

>  <SCORE.INTER>
56.2147

>  <SCORE.INTER.CONST>
1

>  <SCORE.INTER.POLAR>
0

>  <SCORE.INTER.ROT>
7

>  <SCORE.INTER.SOLV>
17.2111

>  <SCORE.INTER.VDW>
23.4728

>  <SCORE.INTER.norm>
1.81338

>  <SCORE.INTRA>
5.01448

>  <SCORE.INTRA.DIHEDRAL>
6.9026

>  <SCORE.INTRA.DIHEDRAL.0>
4.64198

>  <SCORE.INTRA.POLAR>
0

>  <SCORE.INTRA.POLAR.0>
0

>  <SCORE.INTRA.REPUL>
0

>  <SCORE.INTRA.REPUL.0>
0

>  <SCORE.INTRA.SOLV>
0.122594

>  <SCORE.INTRA.SOLV.lig_0>
-49.3611

>  <SCORE.INTRA.VDW>
1.50189

>  <SCORE.INTRA.VDW.0>
-1.91858

>  <SCORE.INTRA.norm>
0.161757

>  <SCORE.RESTR>
0.621507

>  <SCORE.RESTR.CAVITY>
0.621507

>  <SCORE.RESTR.norm>
0.0200486

>  <SCORE.SYSTEM>
0

>  <SCORE.SYSTEM.CONST>
0

>  <SCORE.SYSTEM.DIHEDRAL>
0

>  <SCORE.SYSTEM.SOLV>
0

>  <SCORE.SYSTEM.norm>
0

>  <SCORE.heavy>
31

>  <SCORE.norm>
1.99518

>  <RMSD>
18.688

$$$$
ligand
 OpenBabel11021811473D
libRbt.so/2013.1/901 2013/11/27
 31 33  0  0  0  0  0  0  0  0999 V2000
   11.7136   28.9164   18.5681 P   0  0  1  0  0  0  0  0  0  0  0  0
   12.3867   29.0553   19.9101 O   0  0  0  0  0  0  0  0  0  0  0  0
   10.2245   29.0253   18.7618 O   0  5  0  0  0  0  0  0  0  0  0  0
   12.2558   30.0187   17.7004 O   0  0  0  0  0  0  0  0  0  0  0  0
   13.3484   27.0597   17.7017 C   0  0  0  0  0  0  0  0  0  0  0  0
   12.0186   27.5096   17.8565 O   0  0  0  0  0  0  0  0  0  0  0  0
   13.3386   25.6742   17.0609 C   0  0  1  0  0  0  0  0  0  0  0  0
   12.9117   25.7730   15.7167 O   0  0  0  0  0  0  0  0  0  0  0  0
   14.7352   25.0765   17.0937 C   0  0  1  0  0  0  0  0  0  0  0  0
   14.6340   23.6987   16.8515 O   0  0  0  0  0  0  0  0  0  0  0  0
   15.6590   25.6914   16.0558 C   0  0  1  0  0  0  0  0  0  0  0  0
   16.8292   26.1128   16.7032 O   0  0  0  0  0  0  0  0  0  0  0  0
   16.0186   24.6787   14.9813 C   0  0  0  0  0  0  0  0  0  0  0  0
   13.9796   25.1071   13.0895 N   0  0  0  0  0  0  0  0  0  0  0  0
   12.9603   25.2406   12.1720 C   0  0  0  0  0  0  0  0  0  0  0  0
   11.8233   24.8762   12.4572 O   0  0  0  0  0  0  0  0  0  0  0  0
   13.2058   25.7798   10.9298 N   0  0  0  0  0  0  0  0  0  0  0  0
   14.4772   26.2036   10.5953 C   0  0  0  0  0  0  0  0  0  0  0  0
   15.5123   26.0722   11.5143 C   0  0  1  0  0  0  0  0  0  0  0  0
   14.6880   26.7031    9.4882 O   0  0  0  0  0  0  0  0  0  0  0  0
   17.8124   26.3620   12.1016 C   0  0  2  0  0  0  0  0  0  0  0  0
   16.7857   26.4919   11.1859 N   0  0  0  0  0  0  0  0  0  0  0  0
   19.0991   26.7865   11.7683 C   0  0  0  0  0  0  0  0  0  0  0  0
   20.1401   26.6557   12.6800 C   0  0  1  0  0  0  0  0  0  0  0  0
   21.5072   27.1185   12.2867 C   0  0  0  0  0  0  0  0  0  0  0  0
   19.8936   26.0983   13.9438 C   0  0  1  0  0  0  0  0  0  0  0  0
   20.9901   25.9474   14.9623 C   0  0  0  0  0  0  0  0  0  0  0  0
   18.6089   25.6740   14.2729 C   0  0  0  0  0  0  0  0  0  0  0  0
   17.5635   25.8011   13.3565 C   0  0  1  0  0  0  0  0  0  0  0  0
   15.2577   25.5163   12.7664 C   0  0  1  0  0  0  0  0  0  0  0  0
   16.2837   25.3770   13.6814 N   0  0  0  0  0  0  0  0  0  0  0  0
  1  2  1  1  0  0  0
  1  3  1  0  0  0  0
  1  4  2  0  0  0  0
  1  6  1  0  0  0  0
  5  6  1  0  0  0  0
  7  5  1  6  0  0  0
  7  8  1  0  0  0  0
  7  9  1  0  0  0  0
  9 10  1  6  0  0  0
  9 11  1  0  0  0  0
 11 12  1  1  0  0  0
 11 13  1  0  0  0  0
 13 31  1  0  0  0  0
 14 15  1  0  0  0  0
 15 16  2  0  0  0  0
 15 17  1  0  0  0  0
 17 18  1  0  0  0  0
 18 20  2  0  0  0  0
 19 18  1  1  0  0  0
 19 22  1  0  0  0  0
 19 30  1  0  0  0  0
 21 23  1  6  0  0  0
 21 29  1  0  0  0  0
 21 22  1  0  0  0  0
 23 24  1  0  0  0  0
 24 25  1  1  0  0  0
 24 26  1  0  0  0  0
 26 27  1  1  0  0  0
 26 28  1  0  0  0  0
 29 28  1  1  0  0  0
 29 31  1  0  0  0  0
 30 14  1  1  0  0  0
 30 31  1  0  0  0  0
M  CHG  1   3  -1
M  END
>  <CHROM.1>
177.24259933,-51.78509001,69.34870613,163.86161592,127.87938848,150.76986342
90.35543205,15.09989080,26.46904257,14.74987902,-2.36022846,0.05490279,-1.83652275

>  <Name>
ligand

>  <RI>
0

>  <Rbt.Current_Directory>
/home/itssahil/PROJECTS/Mol_Feturizer/New_Systems/rnas/3F2T

>  <Rbt.Executable>
rbdock ($Id: //depot/dev/client3/rdock/2013.1/src/exe/rbdock.cxx#4 $)

>  <Rbt.Library>
libRbt.so (2013.1, Build901 2013/11/27)

>  <Rbt.Parameter_File>
/export/apps/rDock/src/rDock_2013.1_src/data/scripts/dock_solv.prm

>  <Rbt.Receptor>
prm/blind_docking_40.prm

>  <SCORE>
2.50799

>  <SCORE.INTER>
-2.75477

>  <SCORE.INTER.CONST>
1

>  <SCORE.INTER.POLAR>
0

>  <SCORE.INTER.ROT>
7

>  <SCORE.INTER.SOLV>
14.8651

>  <SCORE.INTER.VDW>
-15.0582

>  <SCORE.INTER.norm>
-0.0888637

>  <SCORE.INTRA>
4.48912

>  <SCORE.INTRA.DIHEDRAL>
5.7471

>  <SCORE.INTRA.DIHEDRAL.0>
4.64198

>  <SCORE.INTRA.POLAR>
0

>  <SCORE.INTRA.POLAR.0>
0

>  <SCORE.INTRA.REPUL>
0

>  <SCORE.INTRA.REPUL.0>
0

>  <SCORE.INTRA.SOLV>
-0.394185

>  <SCORE.INTRA.SOLV.lig_0>
-49.3611

>  <SCORE.INTRA.VDW>
1.81266

>  <SCORE.INTRA.VDW.0>
-1.91858

>  <SCORE.INTRA.norm>
0.14481

>  <SCORE.RESTR>
0.773644

>  <SCORE.RESTR.CAVITY>
0.773644

>  <SCORE.RESTR.norm>
0.0249562

>  <SCORE.SYSTEM>
0

>  <SCORE.SYSTEM.CONST>
0

>  <SCORE.SYSTEM.DIHEDRAL>
0

>  <SCORE.SYSTEM.SOLV>
0

>  <SCORE.SYSTEM.norm>
0

>  <SCORE.heavy>
31

>  <SCORE.norm>
0.080903

>  <RMSD>
18.710

$$$$
ligand
 OpenBabel11021811473D
libRbt.so/2013.1/901 2013/11/27
 31 33  0  0  0  0  0  0  0  0999 V2000
   11.6377   28.1501   20.4548 P   0  0  1  0  0  0  0  0  0  0  0  0
   12.6028   28.5468   21.5432 O   0  0  0  0  0  0  0  0  0  0  0  0
   11.0756   26.7918   20.7802 O   0  5  0  0  0  0  0  0  0  0  0  0
   10.5730   29.2117   20.4180 O   0  0  0  0  0  0  0  0  0  0  0  0
   12.7610   26.8258   18.4914 C   0  0  0  0  0  0  0  0  0  0  0  0
   12.3261   28.0669   19.0065 O   0  0  0  0  0  0  0  0  0  0  0  0
   13.6440   27.0702   17.2704 C   0  0  1  0  0  0  0  0  0  0  0  0
   14.6112   28.0568   17.5706 O   0  0  0  0  0  0  0  0  0  0  0  0
   14.3535   25.7856   16.8765 C   0  0  1  0  0  0  0  0  0  0  0  0
   13.4958   25.0388   16.0555 O   0  0  0  0  0  0  0  0  0  0  0  0
   15.6515   26.0402   16.1287 C   0  0  1  0  0  0  0  0  0  0  0  0
   16.6888   26.1336   17.0675 O   0  0  0  0  0  0  0  0  0  0  0  0
   15.9522   24.9068   15.1620 C   0  0  0  0  0  0  0  0  0  0  0  0
   13.9219   25.2397   13.2419 N   0  0  0  0  0  0  0  0  0  0  0  0
   12.9032   25.3288   12.3183 C   0  0  0  0  0  0  0  0  0  0  0  0
   11.7521   25.0515   12.6423 O   0  0  0  0  0  0  0  0  0  0  0  0
   13.1650   25.7259   11.0269 N   0  0  0  0  0  0  0  0  0  0  0  0
   14.4528   26.0506   10.6474 C   0  0  0  0  0  0  0  0  0  0  0  0
   15.4874   25.9629   11.5722 C   0  0  1  0  0  0  0  0  0  0  0  0
   14.6791   26.4238    9.4945 O   0  0  0  0  0  0  0  0  0  0  0  0
   17.8033   26.1979   12.1207 C   0  0  2  0  0  0  0  0  0  0  0  0
   16.7771   26.2841   11.1992 N   0  0  0  0  0  0  0  0  0  0  0  0
   19.1065   26.5227   11.7423 C   0  0  0  0  0  0  0  0  0  0  0  0
   20.1468   26.4346   12.6598 C   0  0  1  0  0  0  0  0  0  0  0  0
   21.5317   26.7873   12.2176 C   0  0  0  0  0  0  0  0  0  0  0  0
   19.8834   26.0216   13.9746 C   0  0  1  0  0  0  0  0  0  0  0  0
   20.9791   25.9217   15.0002 C   0  0  0  0  0  0  0  0  0  0  0  0
   18.5822   25.6965   14.3487 C   0  0  0  0  0  0  0  0  0  0  0  0
   17.5371   25.7807   13.4269 C   0  0  1  0  0  0  0  0  0  0  0  0
   15.2158   25.5507   12.8753 C   0  0  1  0  0  0  0  0  0  0  0  0
   16.2408   25.4552   13.7969 N   0  0  0  0  0  0  0  0  0  0  0  0
  1  2  1  1  0  0  0
  1  3  1  0  0  0  0
  1  4  2  0  0  0  0
  1  6  1  0  0  0  0
  5  6  1  0  0  0  0
  7  5  1  1  0  0  0
  7  8  1  0  0  0  0
  7  9  1  0  0  0  0
  9 10  1  6  0  0  0
  9 11  1  0  0  0  0
 11 12  1  1  0  0  0
 11 13  1  0  0  0  0
 13 31  1  0  0  0  0
 14 15  1  0  0  0  0
 15 16  2  0  0  0  0
 15 17  1  0  0  0  0
 17 18  1  0  0  0  0
 18 20  2  0  0  0  0
 19 18  1  1  0  0  0
 19 22  1  0  0  0  0
 19 30  1  0  0  0  0
 21 23  1  6  0  0  0
 21 29  1  0  0  0  0
 21 22  1  0  0  0  0
 23 24  1  0  0  0  0
 24 25  1  1  0  0  0
 24 26  1  0  0  0  0
 26 27  1  1  0  0  0
 26 28  1  0  0  0  0
 29 28  1  1  0  0  0
 29 31  1  0  0  0  0
 30 14  1  1  0  0  0
 30 31  1  0  0  0  0
M  CHG  1   3  -1
M  END
>  <CHROM.1>
-167.33960338,97.21508574,48.31315296,84.90994367,89.65916221,128.91447027
90.30844156,15.06314873,26.47008203,15.26301798,-2.19844400,-0.00911334,-1.80569189

>  <Name>
ligand

>  <RI>
0

>  <Rbt.Current_Directory>
/home/itssahil/PROJECTS/Mol_Feturizer/New_Systems/rnas/3F2T

>  <Rbt.Executable>
rbdock ($Id: //depot/dev/client3/rdock/2013.1/src/exe/rbdock.cxx#4 $)

>  <Rbt.Library>
libRbt.so (2013.1, Build901 2013/11/27)

>  <Rbt.Parameter_File>
/export/apps/rDock/src/rDock_2013.1_src/data/scripts/dock_solv.prm

>  <Rbt.Receptor>
prm/blind_docking_40.prm

>  <SCORE>
2.91864

>  <SCORE.INTER>
-3.87682

>  <SCORE.INTER.CONST>
1

>  <SCORE.INTER.POLAR>
0

>  <SCORE.INTER.ROT>
7

>  <SCORE.INTER.SOLV>
14.2586

>  <SCORE.INTER.VDW>
-15.6041

>  <SCORE.INTER.norm>
-0.125059

>  <SCORE.INTRA>
5.96162

>  <SCORE.INTRA.DIHEDRAL>
9.16022

>  <SCORE.INTRA.DIHEDRAL.0>
4.64198

>  <SCORE.INTRA.POLAR>
0

>  <SCORE.INTRA.POLAR.0>
0

>  <SCORE.INTRA.REPUL>
0

>  <SCORE.INTRA.REPUL.0>
0

>  <SCORE.INTRA.SOLV>
-0.0636542

>  <SCORE.INTRA.SOLV.lig_0>
-49.3611

>  <SCORE.INTRA.VDW>
1.41334

>  <SCORE.INTRA.VDW.0>
-1.91858

>  <SCORE.INTRA.norm>
0.19231

>  <SCORE.RESTR>
0.833834

>  <SCORE.RESTR.CAVITY>
0.833834

>  <SCORE.RESTR.norm>
0.0268979

>  <SCORE.SYSTEM>
0

>  <SCORE.SYSTEM.CONST>
0

>  <SCORE.SYSTEM.DIHEDRAL>
0

>  <SCORE.SYSTEM.SOLV>
0

>  <SCORE.SYSTEM.norm>
0

>  <SCORE.heavy>
31

>  <SCORE.norm>
0.0941497

>  <RMSD>
18.744

$$$$
ligand
 OpenBabel11021811473D
libRbt.so/2013.1/901 2013/11/27
 31 33  0  0  0  0  0  0  0  0999 V2000
   12.3895   27.7771   19.3898 P   0  0  1  0  0  0  0  0  0  0  0  0
   12.7345   28.4970   20.6689 O   0  0  0  0  0  0  0  0  0  0  0  0
   12.2969   26.3019   19.6766 O   0  5  0  0  0  0  0  0  0  0  0  0
   11.0807   28.3472   18.9165 O   0  0  0  0  0  0  0  0  0  0  0  0
   13.2108   27.5977   16.9071 C   0  0  0  0  0  0  0  0  0  0  0  0
   13.4859   27.9891   18.2360 O   0  0  0  0  0  0  0  0  0  0  0  0
   13.2284   26.0739   16.8182 C   0  0  1  0  0  0  0  0  0  0  0  0
   12.8620   25.6675   15.5147 O   0  0  0  0  0  0  0  0  0  0  0  0
   14.6215   25.5514   17.1262 C   0  0  1  0  0  0  0  0  0  0  0  0
   14.5790   24.1494   17.1294 O   0  0  0  0  0  0  0  0  0  0  0  0
   15.6554   26.0095   16.1113 C   0  0  1  0  0  0  0  0  0  0  0  0
   16.8233   26.3627   16.8021 O   0  0  0  0  0  0  0  0  0  0  0  0
   15.9748   24.8999   15.1232 C   0  0  0  0  0  0  0  0  0  0  0  0
   13.9443   25.2693   13.2099 N   0  0  0  0  0  0  0  0  0  0  0  0
   12.9257   25.3758   12.2880 C   0  0  0  0  0  0  0  0  0  0  0  0
   11.7754   25.0878   12.6052 O   0  0  0  0  0  0  0  0  0  0  0  0
   13.1869   25.8025   11.0060 N   0  0  0  0  0  0  0  0  0  0  0  0
   14.4739   26.1396   10.6345 C   0  0  0  0  0  0  0  0  0  0  0  0
   15.5083   26.0345   11.5577 C   0  0  1  0  0  0  0  0  0  0  0  0
   14.6995   26.5392    9.4904 O   0  0  0  0  0  0  0  0  0  0  0  0
   17.8232   26.2644   12.1124 C   0  0  2  0  0  0  0  0  0  0  0  0
   16.7972   26.3680   11.1926 N   0  0  0  0  0  0  0  0  0  0  0  0
   19.1255   26.6017   11.7420 C   0  0  0  0  0  0  0  0  0  0  0  0
   20.1657   26.4963   12.6579 C   0  0  1  0  0  0  0  0  0  0  0  0
   21.5497   26.8631   12.2243 C   0  0  0  0  0  0  0  0  0  0  0  0
   19.9030   26.0532   13.9630 C   0  0  1  0  0  0  0  0  0  0  0  0
   20.9985   25.9338   14.9866 C   0  0  0  0  0  0  0  0  0  0  0  0
   18.6027   25.7158   14.3290 C   0  0  0  0  0  0  0  0  0  0  0  0
   17.5577   25.8173   13.4088 C   0  0  1  0  0  0  0  0  0  0  0  0
   15.2374   25.5924   12.8510 C   0  0  1  0  0  0  0  0  0  0  0  0
   16.2623   25.4795   13.7708 N   0  0  0  0  0  0  0  0  0  0  0  0
  1  2  1  1  0  0  0
  1  3  1  0  0  0  0
  1  4  2  0  0  0  0
  1  6  1  0  0  0  0
  5  6  1  0  0  0  0
  7  5  1  6  0  0  0
  7  8  1  0  0  0  0
  7  9  1  0  0  0  0
  9 10  1  6  0  0  0
  9 11  1  0  0  0  0
 11 12  1  1  0  0  0
 11 13  1  0  0  0  0
 13 31  1  0  0  0  0
 14 15  1  0  0  0  0
 15 16  2  0  0  0  0
 15 17  1  0  0  0  0
 17 18  1  0  0  0  0
 18 20  2  0  0  0  0
 19 18  1  1  0  0  0
 19 22  1  0  0  0  0
 19 30  1  0  0  0  0
 21 23  1  6  0  0  0
 21 29  1  0  0  0  0
 21 22  1  0  0  0  0
 23 24  1  0  0  0  0
 24 25  1  1  0  0  0
 24 26  1  0  0  0  0
 26 27  1  1  0  0  0
 26 28  1  0  0  0  0
 29 28  1  1  0  0  0
 29 31  1  0  0  0  0
 30 14  1  1  0  0  0
 30 31  1  0  0  0  0
M  CHG  1   3  -1
M  END
>  <CHROM.1>
-72.20765219,-168.30312535,175.91443512,175.84971495,138.48390313,145.95006469
90.91666701,15.22552036,26.29952088,14.92787862,-2.25262069,-0.00813114,-1.74834319

>  <Name>
ligand

>  <RI>
0

>  <Rbt.Current_Directory>
/home/itssahil/PROJECTS/Mol_Feturizer/New_Systems/rnas/3F2T

>  <Rbt.Executable>
rbdock ($Id: //depot/dev/client3/rdock/2013.1/src/exe/rbdock.cxx#4 $)

>  <Rbt.Library>
libRbt.so (2013.1, Build901 2013/11/27)

>  <Rbt.Parameter_File>
/export/apps/rDock/src/rDock_2013.1_src/data/scripts/dock_solv.prm

>  <Rbt.Receptor>
prm/blind_docking_40.prm

>  <SCORE>
1.23373

>  <SCORE.INTER>
-4.88053

>  <SCORE.INTER.CONST>
1

>  <SCORE.INTER.POLAR>
0

>  <SCORE.INTER.ROT>
7

>  <SCORE.INTER.SOLV>
12.5529

>  <SCORE.INTER.VDW>
-15.7046

>  <SCORE.INTER.norm>
-0.157437

>  <SCORE.INTRA>
5.28312

>  <SCORE.INTRA.DIHEDRAL>
5.14765

>  <SCORE.INTRA.DIHEDRAL.0>
4.64198

>  <SCORE.INTRA.POLAR>
0

>  <SCORE.INTRA.POLAR.0>
0

>  <SCORE.INTRA.REPUL>
0

>  <SCORE.INTRA.REPUL.0>
0

>  <SCORE.INTRA.SOLV>
2.80471

>  <SCORE.INTRA.SOLV.lig_0>
-49.3611

>  <SCORE.INTRA.VDW>
1.30694

>  <SCORE.INTRA.VDW.0>
-1.91858

>  <SCORE.INTRA.norm>
0.170423

>  <SCORE.RESTR>
0.831137

>  <SCORE.RESTR.CAVITY>
0.831137

>  <SCORE.RESTR.norm>
0.0268109

>  <SCORE.SYSTEM>
0

>  <SCORE.SYSTEM.CONST>
0

>  <SCORE.SYSTEM.DIHEDRAL>
0

>  <SCORE.SYSTEM.SOLV>
0

>  <SCORE.SYSTEM.norm>
0

>  <SCORE.heavy>
31

>  <SCORE.norm>
0.0397977

>  <RMSD>
18.751

$$$$
ligand
 OpenBabel11021811473D
libRbt.so/2013.1/901 2013/11/27
 31 33  0  0  0  0  0  0  0  0999 V2000
   11.9394   28.6809   18.8107 P   0  0  1  0  0  0  0  0  0  0  0  0
   12.7470   28.9226   20.0608 O   0  0  0  0  0  0  0  0  0  0  0  0
   10.4786   28.8274   19.1445 O   0  5  0  0  0  0  0  0  0  0  0  0
   12.3964   29.6983   17.8017 O   0  0  0  0  0  0  0  0  0  0  0  0
   13.4561   26.7791   17.8342 C   0  0  0  0  0  0  0  0  0  0  0  0
   12.1618   27.2149   18.1945 O   0  0  0  0  0  0  0  0  0  0  0  0
   13.3886   25.3217   17.3855 C   0  0  1  0  0  0  0  0  0  0  0  0
   12.6327   25.2232   16.1948 O   0  0  0  0  0  0  0  0  0  0  0  0
   14.7892   24.7919   17.1274 C   0  0  1  0  0  0  0  0  0  0  0  0
   14.6927   23.4402   16.7658 O   0  0  0  0  0  0  0  0  0  0  0  0
   15.5052   25.5470   16.0203 C   0  0  1  0  0  0  0  0  0  0  0  0
   16.5880   26.2350   16.5863 O   0  0  0  0  0  0  0  0  0  0  0  0
   16.0204   24.5914   14.9569 C   0  0  0  0  0  0  0  0  0  0  0  0
   13.9785   25.0654   13.0791 N   0  0  0  0  0  0  0  0  0  0  0  0
   12.9582   25.2208   12.1661 C   0  0  0  0  0  0  0  0  0  0  0  0
   11.8237   24.8400   12.4396 O   0  0  0  0  0  0  0  0  0  0  0  0
   13.2001   25.8002   10.9415 N   0  0  0  0  0  0  0  0  0  0  0  0
   14.4686   26.2427   10.6206 C   0  0  0  0  0  0  0  0  0  0  0  0
   15.5046   26.0895   11.5352 C   0  0  1  0  0  0  0  0  0  0  0  0
   14.6760   26.7782    9.5297 O   0  0  0  0  0  0  0  0  0  0  0  0
   17.8028   26.3760   12.1316 C   0  0  2  0  0  0  0  0  0  0  0  0
   16.7752   26.5278   11.2202 N   0  0  0  0  0  0  0  0  0  0  0  0
   19.0866   26.8194   11.8120 C   0  0  0  0  0  0  0  0  0  0  0  0
   20.1284   26.6669   12.7193 C   0  0  1  0  0  0  0  0  0  0  0  0
   21.4925   27.1509   12.3408 C   0  0  0  0  0  0  0  0  0  0  0  0
   19.8858   26.0686   13.9649 C   0  0  1  0  0  0  0  0  0  0  0  0
   20.9834   25.8931   14.9783 C   0  0  0  0  0  0  0  0  0  0  0  0
   18.6040   25.6257   14.2803 C   0  0  0  0  0  0  0  0  0  0  0  0
   17.5576   25.7744   13.3682 C   0  0  1  0  0  0  0  0  0  0  0  0
   15.2538   25.4930   12.7692 C   0  0  1  0  0  0  0  0  0  0  0  0
   16.2808   25.3319   13.6795 N   0  0  0  0  0  0  0  0  0  0  0  0
  1  2  1  1  0  0  0
  1  3  1  0  0  0  0
  1  4  2  0  0  0  0
  1  6  1  0  0  0  0
  5  6  1  0  0  0  0
  7  5  1  6  0  0  0
  7  8  1  0  0  0  0
  7  9  1  0  0  0  0
  9 10  1  6  0  0  0
  9 11  1  0  0  0  0
 11 12  1  1  0  0  0
 11 13  1  0  0  0  0
 13 31  1  0  0  0  0
 14 15  1  0  0  0  0
 15 16  2  0  0  0  0
 15 17  1  0  0  0  0
 17 18  1  0  0  0  0
 18 20  2  0  0  0  0
 19 18  1  1  0  0  0
 19 22  1  0  0  0  0
 19 30  1  0  0  0  0
 21 23  1  6  0  0  0
 21 29  1  0  0  0  0
 21 22  1  0  0  0  0
 23 24  1  0  0  0  0
 24 25  1  1  0  0  0
 24 26  1  0  0  0  0
 26 27  1  1  0  0  0
 26 28  1  0  0  0  0
 29 28  1  1  0  0  0
 29 31  1  0  0  0  0
 30 14  1  1  0  0  0
 30 31  1  0  0  0  0
M  CHG  1   3  -1
M  END
>  <CHROM.1>
175.51826868,-57.40841484,65.76802197,177.85316750,113.64270346,160.20696527
96.62826448,15.12928546,26.35914254,14.83345912,-2.32144301,0.01778923,-1.81559553

>  <Name>
ligand

>  <RI>
0

>  <Rbt.Current_Directory>
/home/itssahil/PROJECTS/Mol_Feturizer/New_Systems/rnas/3F2T

>  <Rbt.Executable>
rbdock ($Id: //depot/dev/client3/rdock/2013.1/src/exe/rbdock.cxx#4 $)

>  <Rbt.Library>
libRbt.so (2013.1, Build901 2013/11/27)

>  <Rbt.Parameter_File>
/export/apps/rDock/src/rDock_2013.1_src/data/scripts/dock_solv.prm

>  <Rbt.Receptor>
prm/blind_docking_40.prm

>  <SCORE>
1.68553

>  <SCORE.INTER>
-3.1664

>  <SCORE.INTER.CONST>
1

>  <SCORE.INTER.POLAR>
0

>  <SCORE.INTER.ROT>
7

>  <SCORE.INTER.SOLV>
13.9046

>  <SCORE.INTER.VDW>
-15.0125

>  <SCORE.INTER.norm>
-0.102142

>  <SCORE.INTRA>
3.69172

>  <SCORE.INTRA.DIHEDRAL>
3.47547

>  <SCORE.INTRA.DIHEDRAL.0>
4.64198

>  <SCORE.INTRA.POLAR>
0

>  <SCORE.INTRA.POLAR.0>
0

>  <SCORE.INTRA.REPUL>
0

>  <SCORE.INTRA.REPUL.0>
0

>  <SCORE.INTRA.SOLV>
-0.539644

>  <SCORE.INTRA.SOLV.lig_0>
-49.3611

>  <SCORE.INTRA.VDW>
2.22381

>  <SCORE.INTRA.VDW.0>
-1.91858

>  <SCORE.INTRA.norm>
0.119088

>  <SCORE.RESTR>
1.16022

>  <SCORE.RESTR.CAVITY>
1.16022

>  <SCORE.RESTR.norm>
0.0374263

>  <SCORE.SYSTEM>
0

>  <SCORE.SYSTEM.CONST>
0

>  <SCORE.SYSTEM.DIHEDRAL>
0

>  <SCORE.SYSTEM.SOLV>
0

>  <SCORE.SYSTEM.norm>
0

>  <SCORE.heavy>
31

>  <SCORE.norm>
0.0543721

>  <RMSD>
18.765

$$$$
ligand
 OpenBabel11021811473D
libRbt.so/2013.1/901 2013/11/27
 31 33  0  0  0  0  0  0  0  0999 V2000
   11.6569   28.6575   18.0892 P   0  0  1  0  0  0  0  0  0  0  0  0
   12.2237   29.9107   17.4715 O   0  0  0  0  0  0  0  0  0  0  0  0
   11.9460   28.6749   19.5667 O   0  5  0  0  0  0  0  0  0  0  0  0
   10.1812   28.6661   17.7989 O   0  0  0  0  0  0  0  0  0  0  0  0
   13.5435   27.3472   16.8266 C   0  0  0  0  0  0  0  0  0  0  0  0
   12.2900   27.3151   17.4767 O   0  0  0  0  0  0  0  0  0  0  0  0
   13.9538   25.9243   16.4560 C   0  0  1  0  0  0  0  0  0  0  0  0
   13.0524   25.4010   15.5008 O   0  0  0  0  0  0  0  0  0  0  0  0
   15.3543   25.9240   15.8667 C   0  0  1  0  0  0  0  0  0  0  0  0
   16.1344   26.8490   16.5760 O   0  0  0  0  0  0  0  0  0  0  0  0
   16.0199   24.5601   15.9413 C   0  0  1  0  0  0  0  0  0  0  0  0
   15.2870   23.7612   16.8305 O   0  0  0  0  0  0  0  0  0  0  0  0
   16.0466   23.8938   14.5757 C   0  0  0  0  0  0  0  0  0  0  0  0
   13.9506   24.5642   12.8215 N   0  0  0  0  0  0  0  0  0  0  0  0
   12.9119   24.8146   11.9513 C   0  0  0  0  0  0  0  0  0  0  0  0
   11.8255   24.2672   12.1152 O   0  0  0  0  0  0  0  0  0  0  0  0
   13.0818   25.6762   10.8917 N   0  0  0  0  0  0  0  0  0  0  0  0
   14.2947   26.3079   10.6974 C   0  0  0  0  0  0  0  0  0  0  0  0
   15.3488   26.0609   11.5699 C   0  0  1  0  0  0  0  0  0  0  0  0
   14.4360   27.0932    9.7577 O   0  0  0  0  0  0  0  0  0  0  0  0
   17.6097   26.4417   12.2500 C   0  0  2  0  0  0  0  0  0  0  0  0
   16.5642   26.6874   11.3805 N   0  0  0  0  0  0  0  0  0  0  0  0
   18.8377   27.0755   12.0574 C   0  0  0  0  0  0  0  0  0  0  0  0
   19.8975   26.8315   12.9231 C   0  0  1  0  0  0  0  0  0  0  0  0
   21.2005   27.5262   12.6835 C   0  0  0  0  0  0  0  0  0  0  0  0
   19.7290   25.9468   13.9990 C   0  0  1  0  0  0  0  0  0  0  0  0
   20.8474   25.6624   14.9637 C   0  0  0  0  0  0  0  0  0  0  0  0
   18.5028   25.3146   14.1876 C   0  0  0  0  0  0  0  0  0  0  0  0
   17.4390   25.5556   13.3163 C   0  0  1  0  0  0  0  0  0  0  0  0
   15.1718   25.1798   12.6347 C   0  0  1  0  0  0  0  0  0  0  0  0
   16.2177   24.9251   13.5012 N   0  0  0  0  0  0  0  0  0  0  0  0
  1  2  1  6  0  0  0
  1  3  1  0  0  0  0
  1  4  2  0  0  0  0
  1  6  1  0  0  0  0
  5  6  1  0  0  0  0
  7  5  1  6  0  0  0
  7  8  1  0  0  0  0
  7  9  1  0  0  0  0
  9 10  1  1  0  0  0
  9 11  1  0  0  0  0
 11 12  1  1  0  0  0
 11 13  1  0  0  0  0
 13 31  1  0  0  0  0
 14 15  1  0  0  0  0
 15 16  2  0  0  0  0
 15 17  1  0  0  0  0
 17 18  1  0  0  0  0
 18 20  2  0  0  0  0
 19 18  1  1  0  0  0
 19 22  1  0  0  0  0
 19 30  1  0  0  0  0
 21 23  1  6  0  0  0
 21 29  1  0  0  0  0
 21 22  1  0  0  0  0
 23 24  1  0  0  0  0
 24 25  1  1  0  0  0
 24 26  1  0  0  0  0
 26 27  1  1  0  0  0
 26 28  1  0  0  0  0
 29 28  1  1  0  0  0
 29 31  1  0  0  0  0
 30 14  1  1  0  0  0
 30 31  1  0  0  0  0
M  CHG  1   3  -1
M  END
>  <CHROM.1>
175.07901510,21.44822250,65.08891055,38.64557804,-14.54415440,34.14671829
72.77127753,15.06393901,26.35712937,14.55163660,-2.42187830,0.05027307,-1.88205612

>  <Name>
ligand

>  <RI>
0

>  <Rbt.Current_Directory>
/home/itssahil/PROJECTS/Mol_Feturizer/New_Systems/rnas/3F2T

>  <Rbt.Executable>
rbdock ($Id: //depot/dev/client3/rdock/2013.1/src/exe/rbdock.cxx#4 $)

>  <Rbt.Library>
libRbt.so (2013.1, Build901 2013/11/27)

>  <Rbt.Parameter_File>
/export/apps/rDock/src/rDock_2013.1_src/data/scripts/dock_solv.prm

>  <Rbt.Receptor>
prm/blind_docking_40.prm

>  <SCORE>
6.45548

>  <SCORE.INTER>
1.45457

>  <SCORE.INTER.CONST>
1

>  <SCORE.INTER.POLAR>
0

>  <SCORE.INTER.ROT>
7

>  <SCORE.INTER.SOLV>
12.4661

>  <SCORE.INTER.VDW>
-11.4523

>  <SCORE.INTER.norm>
0.0469217

>  <SCORE.INTRA>
4.54853

>  <SCORE.INTRA.DIHEDRAL>
6.84246

>  <SCORE.INTRA.DIHEDRAL.0>
4.64198

>  <SCORE.INTRA.POLAR>
0

>  <SCORE.INTRA.POLAR.0>
0

>  <SCORE.INTRA.REPUL>
0

>  <SCORE.INTRA.REPUL.0>
0

>  <SCORE.INTRA.SOLV>
-0.495056

>  <SCORE.INTRA.SOLV.lig_0>
-49.3611

>  <SCORE.INTRA.VDW>
1.37483

>  <SCORE.INTRA.VDW.0>
-1.91858

>  <SCORE.INTRA.norm>
0.146727

>  <SCORE.RESTR>
0.452378

>  <SCORE.RESTR.CAVITY>
0.452378

>  <SCORE.RESTR.norm>
0.0145928

>  <SCORE.SYSTEM>
0

>  <SCORE.SYSTEM.CONST>
0

>  <SCORE.SYSTEM.DIHEDRAL>
0

>  <SCORE.SYSTEM.SOLV>
0

>  <SCORE.SYSTEM.norm>
0

>  <SCORE.heavy>
31

>  <SCORE.norm>
0.208241

>  <RMSD>
18.771

$$$$
ligand
 OpenBabel11021811473D
libRbt.so/2013.1/901 2013/11/27
 31 33  0  0  0  0  0  0  0  0999 V2000
   11.6754   28.9189   18.0551 P   0  0  1  0  0  0  0  0  0  0  0  0
   11.1511   29.5856   19.3017 O   0  0  0  0  0  0  0  0  0  0  0  0
   10.5065   28.5154   17.1961 O   0  5  0  0  0  0  0  0  0  0  0  0
   12.5623   29.9234   17.3723 O   0  0  0  0  0  0  0  0  0  0  0  0
   13.1577   26.8880   17.3145 C   0  0  0  0  0  0  0  0  0  0  0  0
   12.5399   27.6018   18.3650 O   0  0  0  0  0  0  0  0  0  0  0  0
   13.7781   25.6097   17.8725 C   0  0  1  0  0  0  0  0  0  0  0  0
   12.7952   24.8638   18.5626 O   0  0  0  0  0  0  0  0  0  0  0  0
   14.3352   24.7647   16.7392 C   0  0  1  0  0  0  0  0  0  0  0  0
   13.2902   24.4675   15.8521 O   0  0  0  0  0  0  0  0  0  0  0  0
   15.4435   25.4690   15.9748 C   0  0  1  0  0  0  0  0  0  0  0  0
   16.4402   25.8408   16.8883 O   0  0  0  0  0  0  0  0  0  0  0  0
   16.0456   24.5516   14.9234 C   0  0  0  0  0  0  0  0  0  0  0  0
   13.9872   25.0362   13.0665 N   0  0  0  0  0  0  0  0  0  0  0  0
   12.9594   25.1965   12.1628 C   0  0  0  0  0  0  0  0  0  0  0  0
   11.8297   24.8037   12.4388 O   0  0  0  0  0  0  0  0  0  0  0  0
   13.1885   25.7946   10.9446 N   0  0  0  0  0  0  0  0  0  0  0  0
   14.4515   26.2508   10.6211 C   0  0  0  0  0  0  0  0  0  0  0  0
   15.4949   26.0927   11.5264 C   0  0  1  0  0  0  0  0  0  0  0  0
   14.6473   26.8027    9.5364 O   0  0  0  0  0  0  0  0  0  0  0  0
   17.7951   26.3880   12.1109 C   0  0  2  0  0  0  0  0  0  0  0  0
   16.7601   26.5447   11.2088 N   0  0  0  0  0  0  0  0  0  0  0  0
   19.0733   26.8452   11.7886 C   0  0  0  0  0  0  0  0  0  0  0  0
   20.1226   26.6880   12.6865 C   0  0  1  0  0  0  0  0  0  0  0  0
   21.4804   27.1873   12.3053 C   0  0  0  0  0  0  0  0  0  0  0  0
   19.8931   26.0708   13.9254 C   0  0  1  0  0  0  0  0  0  0  0  0
   20.9989   25.8896   14.9287 C   0  0  0  0  0  0  0  0  0  0  0  0
   18.6167   25.6142   14.2435 C   0  0  0  0  0  0  0  0  0  0  0  0
   17.5630   25.7677   13.3407 C   0  0  1  0  0  0  0  0  0  0  0  0
   15.2571   25.4774   12.7538 C   0  0  1  0  0  0  0  0  0  0  0  0
   16.2916   25.3114   13.6547 N   0  0  0  0  0  0  0  0  0  0  0  0
  1  2  1  1  0  0  0
  1  3  1  0  0  0  0
  1  4  2  0  0  0  0
  1  6  1  0  0  0  0
  5  6  1  0  0  0  0
  7  5  1  6  0  0  0
  7  8  1  0  0  0  0
  7  9  1  0  0  0  0
  9 10  1  6  0  0  0
  9 11  1  0  0  0  0
 11 12  1  1  0  0  0
 11 13  1  0  0  0  0
 13 31  1  0  0  0  0
 14 15  1  0  0  0  0
 15 16  2  0  0  0  0
 15 17  1  0  0  0  0
 17 18  1  0  0  0  0
 18 20  2  0  0  0  0
 19 18  1  1  0  0  0
 19 22  1  0  0  0  0
 19 30  1  0  0  0  0
 21 23  1  6  0  0  0
 21 29  1  0  0  0  0
 21 22  1  0  0  0  0
 23 24  1  0  0  0  0
 24 25  1  1  0  0  0
 24 26  1  0  0  0  0
 26 27  1  1  0  0  0
 26 28  1  0  0  0  0
 29 28  1  1  0  0  0
 29 31  1  0  0  0  0
 30 14  1  1  0  0  0
 30 31  1  0  0  0  0
M  CHG  1   3  -1
M  END
>  <CHROM.1>
-173.88395724,-177.10925423,54.85458357,-58.57283155,55.73148198,138.55785104
100.40363180,15.01120122,26.42705393,14.71265243,-2.40250130,0.06217888,-1.79200255

>  <Name>
ligand

>  <RI>
0

>  <Rbt.Current_Directory>
/home/itssahil/PROJECTS/Mol_Feturizer/New_Systems/rnas/3F2T

>  <Rbt.Executable>
rbdock ($Id: //depot/dev/client3/rdock/2013.1/src/exe/rbdock.cxx#4 $)

>  <Rbt.Library>
libRbt.so (2013.1, Build901 2013/11/27)

>  <Rbt.Parameter_File>
/export/apps/rDock/src/rDock_2013.1_src/data/scripts/dock_solv.prm

>  <Rbt.Receptor>
prm/blind_docking_40.prm

>  <SCORE>
0.121617

>  <SCORE.INTER>
-2.12579

>  <SCORE.INTER.CONST>
1

>  <SCORE.INTER.POLAR>
0

>  <SCORE.INTER.ROT>
7

>  <SCORE.INTER.SOLV>
14.744

>  <SCORE.INTER.VDW>
-14.5985

>  <SCORE.INTER.norm>
-0.0685737

>  <SCORE.INTRA>
0.778569

>  <SCORE.INTRA.DIHEDRAL>
1.16913

>  <SCORE.INTRA.DIHEDRAL.0>
4.64198

>  <SCORE.INTRA.POLAR>
0

>  <SCORE.INTRA.POLAR.0>
0

>  <SCORE.INTRA.REPUL>
0

>  <SCORE.INTRA.REPUL.0>
0

>  <SCORE.INTRA.SOLV>
-0.0307545

>  <SCORE.INTRA.SOLV.lig_0>
-49.3611

>  <SCORE.INTRA.VDW>
0.209383

>  <SCORE.INTRA.VDW.0>
-1.91858

>  <SCORE.INTRA.norm>
0.0251151

>  <SCORE.RESTR>
1.46883

>  <SCORE.RESTR.CAVITY>
1.46883

>  <SCORE.RESTR.norm>
0.0473817

>  <SCORE.SYSTEM>
0

>  <SCORE.SYSTEM.CONST>
0

>  <SCORE.SYSTEM.DIHEDRAL>
0

>  <SCORE.SYSTEM.SOLV>
0

>  <SCORE.SYSTEM.norm>
0

>  <SCORE.heavy>
31

>  <SCORE.norm>
0.00392312

>  <RMSD>
18.774

$$$$
ligand
 OpenBabel11021811473D
libRbt.so/2013.1/901 2013/11/27
 31 33  0  0  0  0  0  0  0  0999 V2000
   12.4435   27.6262   19.4122 P   0  0  1  0  0  0  0  0  0  0  0  0
   12.4430   26.1750   19.8213 O   0  0  0  0  0  0  0  0  0  0  0  0
   11.0623   27.9945   18.9393 O   0  5  0  0  0  0  0  0  0  0  0  0
   12.8575   28.4134   20.6250 O   0  0  0  0  0  0  0  0  0  0  0  0
   13.2128   27.4892   16.9102 C   0  0  0  0  0  0  0  0  0  0  0  0
   13.4746   27.9416   18.2223 O   0  0  0  0  0  0  0  0  0  0  0  0
   13.3407   25.9687   16.8681 C   0  0  1  0  0  0  0  0  0  0  0  0
   13.0091   25.4973   15.5771 O   0  0  0  0  0  0  0  0  0  0  0  0
   14.7669   25.5578   17.1935 C   0  0  1  0  0  0  0  0  0  0  0  0
   14.8057   24.1629   17.3341 O   0  0  0  0  0  0  0  0  0  0  0  0
   15.7548   25.9709   16.1155 C   0  0  1  0  0  0  0  0  0  0  0  0
   16.9851   26.2469   16.7288 O   0  0  0  0  0  0  0  0  0  0  0  0
   15.9422   24.8593   15.0963 C   0  0  0  0  0  0  0  0  0  0  0  0
   13.9275   25.2267   13.1660 N   0  0  0  0  0  0  0  0  0  0  0  0
   12.9166   25.3323   12.2355 C   0  0  0  0  0  0  0  0  0  0  0  0
   11.7641   25.0419   12.5425 O   0  0  0  0  0  0  0  0  0  0  0  0
   13.1880   25.7606   10.9561 N   0  0  0  0  0  0  0  0  0  0  0  0
   14.4775   26.1002   10.5959 C   0  0  0  0  0  0  0  0  0  0  0  0
   15.5041   25.9962   11.5278 C   0  0  1  0  0  0  0  0  0  0  0  0
   14.7122   26.5013    9.4541 O   0  0  0  0  0  0  0  0  0  0  0  0
   17.8139   26.2298   12.1025 C   0  0  2  0  0  0  0  0  0  0  0  0
   16.7955   26.3322   11.1741 N   0  0  0  0  0  0  0  0  0  0  0  0
   19.1187   26.5696   11.7436 C   0  0  0  0  0  0  0  0  0  0  0  0
   20.1512   26.4653   12.6682 C   0  0  1  0  0  0  0  0  0  0  0  0
   21.5382   26.8350   12.2469 C   0  0  0  0  0  0  0  0  0  0  0  0
   19.8781   26.0206   13.9707 C   0  0  1  0  0  0  0  0  0  0  0  0
   20.9651   25.9023   15.0036 C   0  0  0  0  0  0  0  0  0  0  0  0
   18.5753   25.6806   14.3253 C   0  0  0  0  0  0  0  0  0  0  0  0
   17.5381   25.7810   13.3963 C   0  0  1  0  0  0  0  0  0  0  0  0
   15.2230   25.5525   12.8184 C   0  0  1  0  0  0  0  0  0  0  0  0
   16.2402   25.4406   13.7469 N   0  0  0  0  0  0  0  0  0  0  0  0
  1  2  1  1  0  0  0
  1  3  1  0  0  0  0
  1  4  2  0  0  0  0
  1  6  1  0  0  0  0
  5  6  1  0  0  0  0
  7  5  1  6  0  0  0
  7  8  1  0  0  0  0
  7  9  1  0  0  0  0
  9 10  1  6  0  0  0
  9 11  1  0  0  0  0
 11 12  1  1  0  0  0
 11 13  1  0  0  0  0
 13 31  1  0  0  0  0
 14 15  1  0  0  0  0
 15 16  2  0  0  0  0
 15 17  1  0  0  0  0
 17 18  1  0  0  0  0
 18 20  2  0  0  0  0
 19 18  1  1  0  0  0
 19 22  1  0  0  0  0
 19 30  1  0  0  0  0
 21 23  1  6  0  0  0
 21 29  1  0  0  0  0
 21 22  1  0  0  0  0
 23 24  1  0  0  0  0
 24 25  1  1  0  0  0
 24 26  1  0  0  0  0
 26 27  1  1  0  0  0
 26 28  1  0  0  0  0
 29 28  1  1  0  0  0
 29 31  1  0  0  0  0
 30 14  1  1  0  0  0
 30 31  1  0  0  0  0
M  CHG  1   3  -1
M  END
>  <CHROM.1>
-69.27769383,71.34270180,176.80279096,171.67978389,148.01039135,148.82016989
85.04145988,15.26024874,26.22923382,14.93229775,-2.23416543,-0.00958516,-1.73113882

>  <Name>
ligand

>  <RI>
0

>  <Rbt.Current_Directory>
/home/itssahil/PROJECTS/Mol_Feturizer/New_Systems/rnas/3F2T

>  <Rbt.Executable>
rbdock ($Id: //depot/dev/client3/rdock/2013.1/src/exe/rbdock.cxx#4 $)

>  <Rbt.Library>
libRbt.so (2013.1, Build901 2013/11/27)

>  <Rbt.Parameter_File>
/export/apps/rDock/src/rDock_2013.1_src/data/scripts/dock_solv.prm

>  <Rbt.Receptor>
prm/blind_docking_40.prm

>  <SCORE>
0.716319

>  <SCORE.INTER>
-3.12086

>  <SCORE.INTER.CONST>
1

>  <SCORE.INTER.POLAR>
0

>  <SCORE.INTER.ROT>
7

>  <SCORE.INTER.SOLV>
16.2011

>  <SCORE.INTER.VDW>
-15.7476

>  <SCORE.INTER.norm>
-0.100673

>  <SCORE.INTRA>
3.03512

>  <SCORE.INTRA.DIHEDRAL>
3.35642

>  <SCORE.INTRA.DIHEDRAL.0>
4.64198

>  <SCORE.INTRA.POLAR>
0

>  <SCORE.INTRA.POLAR.0>
0

>  <SCORE.INTRA.REPUL>
0

>  <SCORE.INTRA.REPUL.0>
0

>  <SCORE.INTRA.SOLV>
0.986982

>  <SCORE.INTRA.SOLV.lig_0>
-49.3611

>  <SCORE.INTRA.VDW>
0.863413

>  <SCORE.INTRA.VDW.0>
-1.91858

>  <SCORE.INTRA.norm>
0.097907

>  <SCORE.RESTR>
0.802058

>  <SCORE.RESTR.CAVITY>
0.802058

>  <SCORE.RESTR.norm>
0.0258728

>  <SCORE.SYSTEM>
0

>  <SCORE.SYSTEM.CONST>
0

>  <SCORE.SYSTEM.DIHEDRAL>
0

>  <SCORE.SYSTEM.SOLV>
0

>  <SCORE.SYSTEM.norm>
0

>  <SCORE.heavy>
31

>  <SCORE.norm>
0.0231071

>  <RMSD>
18.780

$$$$
ligand
 OpenBabel11021811473D
libRbt.so/2013.1/901 2013/11/27
 31 33  0  0  0  0  0  0  0  0999 V2000
   11.8388   27.1955   20.4892 P   0  0  1  0  0  0  0  0  0  0  0  0
   10.4241   27.4677   20.0446 O   0  0  0  0  0  0  0  0  0  0  0  0
   12.3537   28.4035   21.2258 O   0  5  0  0  0  0  0  0  0  0  0  0
   11.7851   25.9752   21.3668 O   0  0  0  0  0  0  0  0  0  0  0  0
   12.4578   27.2223   17.9423 C   0  0  0  0  0  0  0  0  0  0  0  0
   12.8349   26.9005   19.2649 O   0  0  0  0  0  0  0  0  0  0  0  0
   13.7114   27.3656   17.0833 C   0  0  1  0  0  0  0  0  0  0  0  0
   14.6116   28.2654   17.6987 O   0  0  0  0  0  0  0  0  0  0  0  0
   14.3911   26.0158   16.9263 C   0  0  1  0  0  0  0  0  0  0  0  0
   13.5473   25.1778   16.1826 O   0  0  0  0  0  0  0  0  0  0  0  0
   15.7325   26.1151   16.2195 C   0  0  1  0  0  0  0  0  0  0  0  0
   16.7446   26.0728   17.1889 O   0  0  0  0  0  0  0  0  0  0  0  0
   15.9211   24.9614   15.2485 C   0  0  0  0  0  0  0  0  0  0  0  0
   13.8698   25.2850   13.3492 N   0  0  0  0  0  0  0  0  0  0  0  0
   12.8402   25.3701   12.4374 C   0  0  0  0  0  0  0  0  0  0  0  0
   11.6907   25.1098   12.7803 O   0  0  0  0  0  0  0  0  0  0  0  0
   13.0895   25.7442   11.1366 N   0  0  0  0  0  0  0  0  0  0  0  0
   14.3755   26.0496   10.7357 C   0  0  0  0  0  0  0  0  0  0  0  0
   15.4209   25.9658   11.6487 C   0  0  1  0  0  0  0  0  0  0  0  0
   14.5907   26.4023    9.5743 O   0  0  0  0  0  0  0  0  0  0  0  0
   17.7460   26.1855   12.1638 C   0  0  2  0  0  0  0  0  0  0  0  0
   16.7089   26.2677   11.2543 N   0  0  0  0  0  0  0  0  0  0  0  0
   19.0474   26.4909   11.7639 C   0  0  0  0  0  0  0  0  0  0  0  0
   20.0985   26.4064   12.6694 C   0  0  1  0  0  0  0  0  0  0  0  0
   21.4811   26.7379   12.2041 C   0  0  0  0  0  0  0  0  0  0  0  0
   19.8478   26.0168   13.9938 C   0  0  1  0  0  0  0  0  0  0  0  0
   20.9555   25.9218   15.0068 C   0  0  0  0  0  0  0  0  0  0  0  0
   18.5483   25.7112   14.3894 C   0  0  0  0  0  0  0  0  0  0  0  0
   17.4924   25.7916   13.4798 C   0  0  1  0  0  0  0  0  0  0  0  0
   15.1619   25.5769   12.9614 C   0  0  1  0  0  0  0  0  0  0  0  0
   16.1977   25.4853   13.8714 N   0  0  0  0  0  0  0  0  0  0  0  0
  1  2  1  6  0  0  0
  1  3  1  0  0  0  0
  1  4  2  0  0  0  0
  1  6  1  0  0  0  0
  5  6  1  0  0  0  0
  7  5  1  1  0  0  0
  7  8  1  0  0  0  0
  7  9  1  0  0  0  0
  9 10  1  6  0  0  0
  9 11  1  0  0  0  0
 11 12  1  1  0  0  0
 11 13  1  0  0  0  0
 13 31  1  0  0  0  0
 14 15  1  0  0  0  0
 15 16  2  0  0  0  0
 15 17  1  0  0  0  0
 17 18  1  0  0  0  0
 18 20  2  0  0  0  0
 19 18  1  1  0  0  0
 19 22  1  0  0  0  0
 19 30  1  0  0  0  0
 21 23  1  6  0  0  0
 21 29  1  0  0  0  0
 21 22  1  0  0  0  0
 23 24  1  0  0  0  0
 24 25  1  1  0  0  0
 24 26  1  0  0  0  0
 26 27  1  1  0  0  0
 26 28  1  0  0  0  0
 29 28  1  1  0  0  0
 29 31  1  0  0  0  0
 30 14  1  1  0  0  0
 30 31  1  0  0  0  0
M  CHG  1   3  -1
M  END
>  <CHROM.1>
157.94840687,15.34144709,-52.28399435,66.18061512,100.35883760,123.97390141
86.68899944,15.07535843,26.31032996,15.30180625,-2.19998756,-0.03067019,-1.73022213

>  <Name>
ligand

>  <RI>
0

>  <Rbt.Current_Directory>
/home/itssahil/PROJECTS/Mol_Feturizer/New_Systems/rnas/3F2T

>  <Rbt.Executable>
rbdock ($Id: //depot/dev/client3/rdock/2013.1/src/exe/rbdock.cxx#4 $)

>  <Rbt.Library>
libRbt.so (2013.1, Build901 2013/11/27)

>  <Rbt.Parameter_File>
/export/apps/rDock/src/rDock_2013.1_src/data/scripts/dock_solv.prm

>  <Rbt.Receptor>
prm/blind_docking_40.prm

>  <SCORE>
6.38901

>  <SCORE.INTER>
-1.06454

>  <SCORE.INTER.CONST>
1

>  <SCORE.INTER.POLAR>
0

>  <SCORE.INTER.ROT>
7

>  <SCORE.INTER.SOLV>
17.2639

>  <SCORE.INTER.VDW>
-14.731

>  <SCORE.INTER.norm>
-0.0343399

>  <SCORE.INTRA>
6.65581

>  <SCORE.INTRA.DIHEDRAL>
10.5615

>  <SCORE.INTRA.DIHEDRAL.0>
4.64198

>  <SCORE.INTRA.POLAR>
0

>  <SCORE.INTRA.POLAR.0>
0

>  <SCORE.INTRA.REPUL>
0

>  <SCORE.INTRA.REPUL.0>
0

>  <SCORE.INTRA.SOLV>
-0.275752

>  <SCORE.INTRA.SOLV.lig_0>
-49.3611

>  <SCORE.INTRA.VDW>
1.51291

>  <SCORE.INTRA.VDW.0>
-1.91858

>  <SCORE.INTRA.norm>
0.214703

>  <SCORE.RESTR>
0.797739

>  <SCORE.RESTR.CAVITY>
0.797739

>  <SCORE.RESTR.norm>
0.0257335

>  <SCORE.SYSTEM>
0

>  <SCORE.SYSTEM.CONST>
0

>  <SCORE.SYSTEM.DIHEDRAL>
0

>  <SCORE.SYSTEM.SOLV>
0

>  <SCORE.SYSTEM.norm>
0

>  <SCORE.heavy>
31

>  <SCORE.norm>
0.206097

>  <RMSD>
18.817

$$$$
ligand
 OpenBabel11021811473D
libRbt.so/2013.1/901 2013/11/27
 31 33  0  0  0  0  0  0  0  0999 V2000
   12.1689   28.5253   18.7967 P   0  0  1  0  0  0  0  0  0  0  0  0
   11.9299   28.9308   20.2291 O   0  0  0  0  0  0  0  0  0  0  0  0
   11.4075   29.4620   17.8968 O   0  5  0  0  0  0  0  0  0  0  0  0
   13.6539   28.6028   18.5714 O   0  0  0  0  0  0  0  0  0  0  0  0
   12.0865   26.3814   17.2910 C   0  0  0  0  0  0  0  0  0  0  0  0
   11.6817   27.0286   18.4793 O   0  0  0  0  0  0  0  0  0  0  0  0
   13.5567   25.9880   17.4090 C   0  0  1  0  0  0  0  0  0  0  0  0
   13.7215   25.0704   18.4718 O   0  0  0  0  0  0  0  0  0  0  0  0
   14.0264   25.3391   16.1179 C   0  0  1  0  0  0  0  0  0  0  0  0
   13.5739   26.1153   15.0409 O   0  0  0  0  0  0  0  0  0  0  0  0
   15.5393   25.2227   16.0386 C   0  0  1  0  0  0  0  0  0  0  0  0
   16.0006   24.6607   17.2374 O   0  0  0  0  0  0  0  0  0  0  0  0
   15.9553   24.3351   14.8773 C   0  0  0  0  0  0  0  0  0  0  0  0
   13.8931   24.8455   13.0315 N   0  0  0  0  0  0  0  0  0  0  0  0
   12.8659   25.0177   12.1293 C   0  0  0  0  0  0  0  0  0  0  0  0
   11.7478   24.5759   12.3772 O   0  0  0  0  0  0  0  0  0  0  0  0
   13.0827   25.6824   10.9439 N   0  0  0  0  0  0  0  0  0  0  0  0
   14.3322   26.1941   10.6526 C   0  0  0  0  0  0  0  0  0  0  0  0
   15.3749   26.0245   11.5566 C   0  0  1  0  0  0  0  0  0  0  0  0
   14.5164   26.8051    9.5979 O   0  0  0  0  0  0  0  0  0  0  0  0
   17.6610   26.3635   12.1718 C   0  0  2  0  0  0  0  0  0  0  0  0
   16.6267   26.5317   11.2710 N   0  0  0  0  0  0  0  0  0  0  0  0
   18.9258   26.8766   11.8819 C   0  0  0  0  0  0  0  0  0  0  0  0
   19.9743   26.7085   12.7786 C   0  0  1  0  0  0  0  0  0  0  0  0
   21.3175   27.2690   12.4326 C   0  0  0  0  0  0  0  0  0  0  0  0
   19.7576   26.0236   13.9838 C   0  0  1  0  0  0  0  0  0  0  0  0
   20.8629   25.8281   14.9850 C   0  0  0  0  0  0  0  0  0  0  0  0
   18.4948   25.5113   14.2695 C   0  0  0  0  0  0  0  0  0  0  0  0
   17.4419   25.6759   13.3677 C   0  0  1  0  0  0  0  0  0  0  0  0
   15.1499   25.3419   12.7503 C   0  0  1  0  0  0  0  0  0  0  0  0
   16.1840   25.1644   13.6495 N   0  0  0  0  0  0  0  0  0  0  0  0
  1  2  1  1  0  0  0
  1  3  1  0  0  0  0
  1  4  2  0  0  0  0
  1  6  1  0  0  0  0
  5  6  1  0  0  0  0
  7  5  1  6  0  0  0
  7  8  1  0  0  0  0
  7  9  1  0  0  0  0
  9 10  1  6  0  0  0
  9 11  1  0  0  0  0
 11 12  1  1  0  0  0
 11 13  1  0  0  0  0
 13 31  1  0  0  0  0
 14 15  1  0  0  0  0
 15 16  2  0  0  0  0
 15 17  1  0  0  0  0
 17 18  1  0  0  0  0
 18 20  2  0  0  0  0
 19 18  1  1  0  0  0
 19 22  1  0  0  0  0
 19 30  1  0  0  0  0
 21 23  1  6  0  0  0
 21 29  1  0  0  0  0
 21 22  1  0  0  0  0
 23 24  1  0  0  0  0
 24 25  1  1  0  0  0
 24 26  1  0  0  0  0
 26 27  1  1  0  0  0
 26 28  1  0  0  0  0
 29 28  1  1  0  0  0
 29 31  1  0  0  0  0
 30 14  1  1  0  0  0
 30 31  1  0  0  0  0
M  CHG  1   3  -1
M  END
>  <CHROM.1>
73.29568963,-165.99985134,62.33069650,45.84498904,49.05116128,91.91501081
90.90796894,15.02728527,26.32529593,14.83437812,-2.28516353,0.01263556,-1.80459631

>  <Name>
ligand

>  <RI>
0

>  <Rbt.Current_Directory>
/home/itssahil/PROJECTS/Mol_Feturizer/New_Systems/rnas/3F2T

>  <Rbt.Executable>
rbdock ($Id: //depot/dev/client3/rdock/2013.1/src/exe/rbdock.cxx#4 $)

>  <Rbt.Library>
libRbt.so (2013.1, Build901 2013/11/27)

>  <Rbt.Parameter_File>
/export/apps/rDock/src/rDock_2013.1_src/data/scripts/dock_solv.prm

>  <Rbt.Receptor>
prm/blind_docking_40.prm

>  <SCORE>
3.56498

>  <SCORE.INTER>
-1.05542

>  <SCORE.INTER.CONST>
1

>  <SCORE.INTER.POLAR>
0

>  <SCORE.INTER.ROT>
7

>  <SCORE.INTER.SOLV>
15.6592

>  <SCORE.INTER.VDW>
-14.19

>  <SCORE.INTER.norm>
-0.0340457

>  <SCORE.INTRA>
3.61264

>  <SCORE.INTRA.DIHEDRAL>
1.88299

>  <SCORE.INTRA.DIHEDRAL.0>
4.64198

>  <SCORE.INTRA.POLAR>
0

>  <SCORE.INTRA.POLAR.0>
0

>  <SCORE.INTRA.REPUL>
0

>  <SCORE.INTRA.REPUL.0>
0

>  <SCORE.INTRA.SOLV>
2.71911

>  <SCORE.INTRA.SOLV.lig_0>
-49.3611

>  <SCORE.INTRA.VDW>
1.31159

>  <SCORE.INTRA.VDW.0>
-1.91858

>  <SCORE.INTRA.norm>
0.116537

>  <SCORE.RESTR>
1.00776

>  <SCORE.RESTR.CAVITY>
1.00776

>  <SCORE.RESTR.norm>
0.0325085

>  <SCORE.SYSTEM>
0

>  <SCORE.SYSTEM.CONST>
0

>  <SCORE.SYSTEM.DIHEDRAL>
0

>  <SCORE.SYSTEM.SOLV>
0

>  <SCORE.SYSTEM.norm>
0

>  <SCORE.heavy>
31

>  <SCORE.norm>
0.114999

>  <RMSD>
18.832

$$$$
ligand
 OpenBabel11021811473D
libRbt.so/2013.1/901 2013/11/27
 31 33  0  0  0  0  0  0  0  0999 V2000
   11.8564   28.7160   19.1070 P   0  0  1  0  0  0  0  0  0  0  0  0
   12.3071   29.7294   18.0857 O   0  0  0  0  0  0  0  0  0  0  0  0
   12.3623   29.1380   20.4609 O   0  5  0  0  0  0  0  0  0  0  0  0
   10.3540   28.6849   19.0462 O   0  0  0  0  0  0  0  0  0  0  0  0
   13.1837   26.9824   17.6566 C   0  0  0  0  0  0  0  0  0  0  0  0
   12.4101   27.2382   18.8103 O   0  0  0  0  0  0  0  0  0  0  0  0
   13.4800   25.4873   17.5718 C   0  0  1  0  0  0  0  0  0  0  0  0
   12.3103   24.7512   17.8696 O   0  0  0  0  0  0  0  0  0  0  0  0
   13.9470   25.1286   16.1711 C   0  0  1  0  0  0  0  0  0  0  0  0
   13.1983   25.8746   15.2490 O   0  0  0  0  0  0  0  0  0  0  0  0
   15.4229   25.4181   15.9547 C   0  0  1  0  0  0  0  0  0  0  0  0
   16.0970   25.1928   17.1633 O   0  0  0  0  0  0  0  0  0  0  0  0
   16.0023   24.5109   14.8820 C   0  0  0  0  0  0  0  0  0  0  0  0
   13.9660   25.0034   13.0029 N   0  0  0  0  0  0  0  0  0  0  0  0
   12.9497   25.1674   12.0869 C   0  0  0  0  0  0  0  0  0  0  0  0
   11.8200   24.7596   12.3408 O   0  0  0  0  0  0  0  0  0  0  0  0
   13.1902   25.7858   10.8813 N   0  0  0  0  0  0  0  0  0  0  0  0
   14.4531   26.2591   10.5828 C   0  0  0  0  0  0  0  0  0  0  0  0
   15.4850   26.0974   11.5006 C   0  0  1  0  0  0  0  0  0  0  0  0
   14.6590   26.8291    9.5094 O   0  0  0  0  0  0  0  0  0  0  0  0
   17.7736   26.4062   12.1226 C   0  0  2  0  0  0  0  0  0  0  0  0
   16.7501   26.5664   11.2081 N   0  0  0  0  0  0  0  0  0  0  0  0
   19.0517   26.8805   11.8256 C   0  0  0  0  0  0  0  0  0  0  0  0
   20.0896   26.7200   12.7361 C   0  0  1  0  0  0  0  0  0  0  0  0
   21.4476   27.2380   12.3821 C   0  0  0  0  0  0  0  0  0  0  0  0
   19.8485   26.0821   13.9623 C   0  0  1  0  0  0  0  0  0  0  0  0
   20.9416   25.8965   14.9786 C   0  0  0  0  0  0  0  0  0  0  0  0
   18.5723   25.6084   14.2551 C   0  0  0  0  0  0  0  0  0  0  0  0
   17.5301   25.7652   13.3396 C   0  0  1  0  0  0  0  0  0  0  0  0
   15.2358   25.4616   12.7152 C   0  0  1  0  0  0  0  0  0  0  0  0
   16.2589   25.2921   13.6284 N   0  0  0  0  0  0  0  0  0  0  0  0
  1  2  1  6  0  0  0
  1  3  1  0  0  0  0
  1  4  2  0  0  0  0
  1  6  1  0  0  0  0
  5  6  1  0  0  0  0
  7  5  1  6  0  0  0
  7  8  1  0  0  0  0
  7  9  1  0  0  0  0
  9 10  1  6  0  0  0
  9 11  1  0  0  0  0
 11 12  1  1  0  0  0
 11 13  1  0  0  0  0
 13 31  1  0  0  0  0
 14 15  1  0  0  0  0
 15 16  2  0  0  0  0
 15 17  1  0  0  0  0
 17 18  1  0  0  0  0
 18 20  2  0  0  0  0
 19 18  1  1  0  0  0
 19 22  1  0  0  0  0
 19 30  1  0  0  0  0
 21 23  1  6  0  0  0
 21 29  1  0  0  0  0
 21 22  1  0  0  0  0
 23 24  1  0  0  0  0
 24 25  1  1  0  0  0
 24 26  1  0  0  0  0
 26 27  1  1  0  0  0
 26 28  1  0  0  0  0
 29 28  1  1  0  0  0
 29 31  1  0  0  0  0
 30 14  1  1  0  0  0
 30 31  1  0  0  0  0
M  CHG  1   3  -1
M  END
>  <CHROM.1>
-175.64347388,-2.65865296,43.75364591,-38.64198033,33.64674117,107.35405467
98.36365614,14.98258720,26.41508919,14.87533468,-2.29485966,-0.00671145,-1.82871738

>  <Name>
ligand

>  <RI>
0

>  <Rbt.Current_Directory>
/home/itssahil/PROJECTS/Mol_Feturizer/New_Systems/rnas/3F2T

>  <Rbt.Executable>
rbdock ($Id: //depot/dev/client3/rdock/2013.1/src/exe/rbdock.cxx#4 $)

>  <Rbt.Library>
libRbt.so (2013.1, Build901 2013/11/27)

>  <Rbt.Parameter_File>
/export/apps/rDock/src/rDock_2013.1_src/data/scripts/dock_solv.prm

>  <Rbt.Receptor>
prm/blind_docking_40.prm

>  <SCORE>
5.20875

>  <SCORE.INTER>
-1.86029

>  <SCORE.INTER.CONST>
1

>  <SCORE.INTER.POLAR>
0

>  <SCORE.INTER.ROT>
7

>  <SCORE.INTER.SOLV>
14.7586

>  <SCORE.INTER.VDW>
-14.4264

>  <SCORE.INTER.norm>
-0.0600093

>  <SCORE.INTRA>
5.44786

>  <SCORE.INTRA.DIHEDRAL>
8.49129

>  <SCORE.INTRA.DIHEDRAL.0>
4.64198

>  <SCORE.INTRA.POLAR>
0

>  <SCORE.INTRA.POLAR.0>
0

>  <SCORE.INTRA.REPUL>
0

>  <SCORE.INTRA.REPUL.0>
0

>  <SCORE.INTRA.SOLV>
-0.524494

>  <SCORE.INTRA.SOLV.lig_0>
-49.3611

>  <SCORE.INTRA.VDW>
1.46446

>  <SCORE.INTRA.VDW.0>
-1.91858

>  <SCORE.INTRA.norm>
0.175737

>  <SCORE.RESTR>
1.62118

>  <SCORE.RESTR.CAVITY>
1.62118

>  <SCORE.RESTR.norm>
0.0522961

>  <SCORE.SYSTEM>
0

>  <SCORE.SYSTEM.CONST>
0

>  <SCORE.SYSTEM.DIHEDRAL>
0

>  <SCORE.SYSTEM.SOLV>
0

>  <SCORE.SYSTEM.norm>
0

>  <SCORE.heavy>
31

>  <SCORE.norm>
0.168024

>  <RMSD>
18.833

$$$$
ligand
 OpenBabel11021811473D
libRbt.so/2013.1/901 2013/11/27
 31 33  0  0  0  0  0  0  0  0999 V2000
   11.3617   28.5656   20.3182 P   0  0  1  0  0  0  0  0  0  0  0  0
   12.3449   28.8840   21.4160 O   0  0  0  0  0  0  0  0  0  0  0  0
   10.6259   27.3031   20.6810 O   0  5  0  0  0  0  0  0  0  0  0  0
   10.4403   29.7495   20.2111 O   0  0  0  0  0  0  0  0  0  0  0  0
   12.7825   27.1472   18.6329 C   0  0  0  0  0  0  0  0  0  0  0  0
   12.0658   28.3360   18.8934 O   0  0  0  0  0  0  0  0  0  0  0  0
   13.6639   27.3512   17.4034 C   0  0  1  0  0  0  0  0  0  0  0  0
   14.6048   28.3759   17.6552 O   0  0  0  0  0  0  0  0  0  0  0  0
   14.4069   26.0665   17.0776 C   0  0  1  0  0  0  0  0  0  0  0  0
   13.5054   25.1707   16.4842 O   0  0  0  0  0  0  0  0  0  0  0  0
   15.5735   26.2899   16.1299 C   0  0  1  0  0  0  0  0  0  0  0  0
   16.6505   26.7976   16.8702 O   0  0  0  0  0  0  0  0  0  0  0  0
   15.9915   24.9877   15.4673 C   0  0  0  0  0  0  0  0  0  0  0  0
   13.8682   24.7066   13.6418 N   0  0  0  0  0  0  0  0  0  0  0  0
   12.8101   24.5003   12.7835 C   0  0  0  0  0  0  0  0  0  0  0  0
   11.6962   24.2418   13.2300 O   0  0  0  0  0  0  0  0  0  0  0  0
   12.9909   24.5791   11.4215 N   0  0  0  0  0  0  0  0  0  0  0  0
   14.2353   24.8779   10.9019 C   0  0  0  0  0  0  0  0  0  0  0  0
   15.3091   25.0870   11.7602 C   0  0  1  0  0  0  0  0  0  0  0  0
   14.3879   24.9659    9.6819 O   0  0  0  0  0  0  0  0  0  0  0  0
   17.6212   25.5934   12.1026 C   0  0  2  0  0  0  0  0  0  0  0  0
   16.5560   25.3842   11.2476 N   0  0  0  0  0  0  0  0  0  0  0  0
   18.8810   25.8936   11.5833 C   0  0  0  0  0  0  0  0  0  0  0  0
   19.9603   26.1008   12.4342 C   0  0  1  0  0  0  0  0  0  0  0  0
   21.2970   26.4172   11.8415 C   0  0  0  0  0  0  0  0  0  0  0  0
   19.7800   26.0123   13.8228 C   0  0  1  0  0  0  0  0  0  0  0  0
   20.9196   26.2384   14.7781 C   0  0  0  0  0  0  0  0  0  0  0  0
   18.5221   25.7110   14.3380 C   0  0  0  0  0  0  0  0  0  0  0  0
   17.4381   25.4986   13.4842 C   0  0  1  0  0  0  0  0  0  0  0  0
   15.1201   24.9959   13.1377 C   0  0  1  0  0  0  0  0  0  0  0  0
   16.1849   25.1960   13.9953 N   0  0  0  0  0  0  0  0  0  0  0  0
  1  2  1  1  0  0  0
  1  3  1  0  0  0  0
  1  4  2  0  0  0  0
  1  6  1  0  0  0  0
  5  6  1  0  0  0  0
  7  5  1  1  0  0  0
  7  8  1  0  0  0  0
  7  9  1  0  0  0  0
  9 10  1  6  0  0  0
  9 11  1  0  0  0  0
 11 12  1  1  0  0  0
 11 13  1  0  0  0  0
 13 31  1  0  0  0  0
 14 15  1  0  0  0  0
 15 16  2  0  0  0  0
 15 17  1  0  0  0  0
 17 18  1  0  0  0  0
 18 20  2  0  0  0  0
 19 18  1  1  0  0  0
 19 22  1  0  0  0  0
 19 30  1  0  0  0  0
 21 23  1  6  0  0  0
 21 29  1  0  0  0  0
 21 22  1  0  0  0  0
 23 24  1  0  0  0  0
 24 25  1  1  0  0  0
 24 26  1  0  0  0  0
 26 27  1  1  0  0  0
 26 28  1  0  0  0  0
 29 28  1  1  0  0  0
 29 31  1  0  0  0  0
 30 14  1  1  0  0  0
 30 31  1  0  0  0  0
M  CHG  1   3  -1
M  END
>  <CHROM.1>
-163.84706069,74.17258906,62.06849563,75.44860381,79.18333907,133.97404292
93.33727460,14.92868150,26.32103698,15.32695339,-2.20032622,-0.10931346,-1.99678397

>  <Name>
ligand

>  <RI>
0

>  <Rbt.Current_Directory>
/home/itssahil/PROJECTS/Mol_Feturizer/New_Systems/rnas/3F2T

>  <Rbt.Executable>
rbdock ($Id: //depot/dev/client3/rdock/2013.1/src/exe/rbdock.cxx#4 $)

>  <Rbt.Library>
libRbt.so (2013.1, Build901 2013/11/27)

>  <Rbt.Parameter_File>
/export/apps/rDock/src/rDock_2013.1_src/data/scripts/dock_solv.prm

>  <Rbt.Receptor>
prm/blind_docking_40.prm

>  <SCORE>
5.81153

>  <SCORE.INTER>
1.69279

>  <SCORE.INTER.CONST>
1

>  <SCORE.INTER.POLAR>
0

>  <SCORE.INTER.ROT>
7

>  <SCORE.INTER.SOLV>
12.7565

>  <SCORE.INTER.VDW>
-11.3903

>  <SCORE.INTER.norm>
0.0546061

>  <SCORE.INTRA>
2.73512

>  <SCORE.INTRA.DIHEDRAL>
4.88962

>  <SCORE.INTRA.DIHEDRAL.0>
4.64198

>  <SCORE.INTRA.POLAR>
0

>  <SCORE.INTRA.POLAR.0>
0

>  <SCORE.INTRA.REPUL>
0

>  <SCORE.INTRA.REPUL.0>
0

>  <SCORE.INTRA.SOLV>
-0.266295

>  <SCORE.INTRA.SOLV.lig_0>
-49.3611

>  <SCORE.INTRA.VDW>
0.423463

>  <SCORE.INTRA.VDW.0>
-1.91858

>  <SCORE.INTRA.norm>
0.0882298

>  <SCORE.RESTR>
1.38362

>  <SCORE.RESTR.CAVITY>
1.38362

>  <SCORE.RESTR.norm>
0.0446328

>  <SCORE.SYSTEM>
0

>  <SCORE.SYSTEM.CONST>
0

>  <SCORE.SYSTEM.DIHEDRAL>
0

>  <SCORE.SYSTEM.SOLV>
0

>  <SCORE.SYSTEM.norm>
0

>  <SCORE.heavy>
31

>  <SCORE.norm>
0.187469

>  <RMSD>
18.854

$$$$
ligand
 OpenBabel11021811473D
libRbt.so/2013.1/901 2013/11/27
 31 33  0  0  0  0  0  0  0  0999 V2000
   11.0915   29.4060   18.5171 P   0  0  1  0  0  0  0  0  0  0  0  0
   10.3217   28.2551   17.9205 O   0  0  0  0  0  0  0  0  0  0  0  0
   10.2726   30.6610   18.3714 O   0  5  0  0  0  0  0  0  0  0  0  0
   11.3404   29.0542   19.9581 O   0  0  0  0  0  0  0  0  0  0  0  0
   13.5354   28.6894   17.8972 C   0  0  0  0  0  0  0  0  0  0  0  0
   12.5068   29.6524   17.7998 O   0  0  0  0  0  0  0  0  0  0  0  0
   13.0281   27.3559   17.3543 C   0  0  1  0  0  0  0  0  0  0  0  0
   12.6929   27.4933   15.9878 O   0  0  0  0  0  0  0  0  0  0  0  0
   14.1056   26.2938   17.4950 C   0  0  1  0  0  0  0  0  0  0  0  0
   13.5656   25.0595   17.1048 O   0  0  0  0  0  0  0  0  0  0  0  0
   15.3296   26.5861   16.6435 C   0  0  1  0  0  0  0  0  0  0  0  0
   16.3178   27.1402   17.4695 O   0  0  0  0  0  0  0  0  0  0  0  0
   15.8647   25.3138   16.0075 C   0  0  0  0  0  0  0  0  0  0  0  0
   13.4458   24.9507   14.6158 N   0  0  0  0  0  0  0  0  0  0  0  0
   12.2490   24.7073   13.9776 C   0  0  0  0  0  0  0  0  0  0  0  0
   11.2312   24.5053   14.6335 O   0  0  0  0  0  0  0  0  0  0  0  0
   12.1831   24.6858   12.6031 N   0  0  0  0  0  0  0  0  0  0  0  0
   13.3165   24.9201   11.8493 C   0  0  0  0  0  0  0  0  0  0  0  0
   14.5287   25.1659   12.4845 C   0  0  1  0  0  0  0  0  0  0  0  0
   13.2483   24.9184   10.6185 O   0  0  0  0  0  0  0  0  0  0  0  0
   16.8691   25.6449   12.3708 C   0  0  2  0  0  0  0  0  0  0  0  0
   15.6659   25.3990   11.7373 N   0  0  0  0  0  0  0  0  0  0  0  0
   18.0177   25.8802   11.6144 C   0  0  0  0  0  0  0  0  0  0  0  0
   19.2340   26.1235   12.2415 C   0  0  1  0  0  0  0  0  0  0  0  0
   20.4453   26.3681   11.3983 C   0  0  0  0  0  0  0  0  0  0  0  0
   19.3052   26.1373   13.6427 C   0  0  1  0  0  0  0  0  0  0  0  0
   20.5997   26.4055   14.3601 C   0  0  0  0  0  0  0  0  0  0  0  0
   18.1576   25.9004   14.3948 C   0  0  0  0  0  0  0  0  0  0  0  0
   16.9362   25.6518   13.7661 C   0  0  1  0  0  0  0  0  0  0  0  0
   14.5894   25.1764   13.8766 C   0  0  1  0  0  0  0  0  0  0  0  0
   15.7926   25.4134   14.5134 N   0  0  0  0  0  0  0  0  0  0  0  0
  1  2  1  6  0  0  0
  1  3  1  0  0  0  0
  1  4  2  0  0  0  0
  1  6  1  0  0  0  0
  5  6  1  0  0  0  0
  7  5  1  6  0  0  0
  7  8  1  0  0  0  0
  7  9  1  0  0  0  0
  9 10  1  6  0  0  0
  9 11  1  0  0  0  0
 11 12  1  1  0  0  0
 11 13  1  0  0  0  0
 13 31  1  0  0  0  0
 14 15  1  0  0  0  0
 15 16  2  0  0  0  0
 15 17  1  0  0  0  0
 17 18  1  0  0  0  0
 18 20  2  0  0  0  0
 19 18  1  1  0  0  0
 19 22  1  0  0  0  0
 19 30  1  0  0  0  0
 21 23  1  6  0  0  0
 21 29  1  0  0  0  0
 21 22  1  0  0  0  0
 23 24  1  0  0  0  0
 24 25  1  1  0  0  0
 24 26  1  0  0  0  0
 26 27  1  1  0  0  0
 26 28  1  0  0  0  0
 29 28  1  1  0  0  0
 29 31  1  0  0  0  0
 30 14  1  1  0  0  0
 30 31  1  0  0  0  0
M  CHG  1   3  -1
M  END
>  <CHROM.1>
57.72826525,-66.29741270,62.04188227,174.54570195,100.34214376,117.83945880
104.08741959,14.43185586,26.60688855,15.20793894,-2.34791020,-0.08204090
-2.15438925

>  <Name>
ligand

>  <RI>
0

>  <Rbt.Current_Directory>
/home/itssahil/PROJECTS/Mol_Feturizer/New_Systems/rnas/3F2T

>  <Rbt.Executable>
rbdock ($Id: //depot/dev/client3/rdock/2013.1/src/exe/rbdock.cxx#4 $)

>  <Rbt.Library>
libRbt.so (2013.1, Build901 2013/11/27)

>  <Rbt.Parameter_File>
/export/apps/rDock/src/rDock_2013.1_src/data/scripts/dock_solv.prm

>  <Rbt.Receptor>
prm/blind_docking_40.prm

>  <SCORE>
2.56638

>  <SCORE.INTER>
-5.21893

>  <SCORE.INTER.CONST>
1

>  <SCORE.INTER.POLAR>
0

>  <SCORE.INTER.ROT>
7

>  <SCORE.INTER.SOLV>
15.4248

>  <SCORE.INTER.VDW>
-16.8876

>  <SCORE.INTER.norm>
-0.168353

>  <SCORE.INTRA>
5.6943

>  <SCORE.INTRA.DIHEDRAL>
6.25161

>  <SCORE.INTRA.DIHEDRAL.0>
4.64198

>  <SCORE.INTRA.POLAR>
0

>  <SCORE.INTRA.POLAR.0>
0

>  <SCORE.INTRA.REPUL>
0

>  <SCORE.INTRA.REPUL.0>
0

>  <SCORE.INTRA.SOLV>
1.66171

>  <SCORE.INTRA.SOLV.lig_0>
-49.3611

>  <SCORE.INTRA.VDW>
1.73765

>  <SCORE.INTRA.VDW.0>
-1.91858

>  <SCORE.INTRA.norm>
0.183687

>  <SCORE.RESTR>
2.091

>  <SCORE.RESTR.CAVITY>
2.091

>  <SCORE.RESTR.norm>
0.0674517

>  <SCORE.SYSTEM>
0

>  <SCORE.SYSTEM.CONST>
0

>  <SCORE.SYSTEM.DIHEDRAL>
0

>  <SCORE.SYSTEM.SOLV>
0

>  <SCORE.SYSTEM.norm>
0

>  <SCORE.heavy>
31

>  <SCORE.norm>
0.0827863

>  <RMSD>
18.865

$$$$
ligand
 OpenBabel11021811473D
libRbt.so/2013.1/901 2013/11/27
 31 33  0  0  0  0  0  0  0  0999 V2000
   17.4156   26.8886   11.6731 P   0  0  1  0  0  0  0  0  0  0  0  0
   17.4943   27.5791   10.3351 O   0  0  0  0  0  0  0  0  0  0  0  0
   15.9702   26.6057   11.9855 O   0  5  0  0  0  0  0  0  0  0  0  0
   18.2282   25.6286   11.5538 O   0  0  0  0  0  0  0  0  0  0  0  0
   18.4297   27.1599   14.0749 C   0  0  0  0  0  0  0  0  0  0  0  0
   18.0171   27.7726   12.8710 O   0  0  0  0  0  0  0  0  0  0  0  0
   17.2039   26.6311   14.8152 C   0  0  1  0  0  0  0  0  0  0  0  0
   16.9036   25.3238   14.3686 O   0  0  0  0  0  0  0  0  0  0  0  0
   17.4756   26.5931   16.3097 C   0  0  1  0  0  0  0  0  0  0  0  0
   18.3910   27.6093   16.6203 O   0  0  0  0  0  0  0  0  0  0  0  0
   16.2178   26.7944   17.1381 C   0  0  1  0  0  0  0  0  0  0  0  0
   15.6002   27.9812   16.7184 O   0  0  0  0  0  0  0  0  0  0  0  0
   15.2533   25.6351   16.9508 C   0  0  0  0  0  0  0  0  0  0  0  0
   13.5548   27.4009   18.3354 N   0  0  0  0  0  0  0  0  0  0  0  0
   12.7303   28.2187   19.0772 C   0  0  0  0  0  0  0  0  0  0  0  0
   13.0909   28.6198   20.1799 O   0  0  0  0  0  0  0  0  0  0  0  0
   11.4973   28.5909   18.5924 N   0  0  0  0  0  0  0  0  0  0  0  0
   11.0792   28.1564   17.3497 C   0  0  0  0  0  0  0  0  0  0  0  0
   11.9041   27.3304   16.5943 C   0  0  1  0  0  0  0  0  0  0  0  0
    9.9818   28.5080   16.9119 O   0  0  0  0  0  0  0  0  0  0  0  0
   12.3140   26.0716   14.6026 C   0  0  2  0  0  0  0  0  0  0  0  0
   11.4917   26.8909   15.3523 N   0  0  0  0  0  0  0  0  0  0  0  0
   11.8960   25.6280   13.3475 C   0  0  0  0  0  0  0  0  0  0  0  0
   12.7131   24.7994   12.5874 C   0  0  1  0  0  0  0  0  0  0  0  0
   12.2304   24.3405   11.2478 C   0  0  0  0  0  0  0  0  0  0  0  0
   13.9669   24.4116   13.0835 C   0  0  1  0  0  0  0  0  0  0  0  0
   14.8849   23.5237   12.2890 C   0  0  0  0  0  0  0  0  0  0  0  0
   14.3806   24.8546   14.3371 C   0  0  0  0  0  0  0  0  0  0  0  0
   13.5590   25.6834   15.1033 C   0  0  1  0  0  0  0  0  0  0  0  0
   13.1470   26.9499   17.0962 C   0  0  1  0  0  0  0  0  0  0  0  0
   13.9682   26.1238   16.3530 N   0  0  0  0  0  0  0  0  0  0  0  0
  1  2  1  6  0  0  0
  1  3  1  0  0  0  0
  1  4  2  0  0  0  0
  1  6  1  0  0  0  0
  5  6  1  0  0  0  0
  7  5  1  6  0  0  0
  7  8  1  0  0  0  0
  7  9  1  0  0  0  0
  9 10  1  6  0  0  0
  9 11  1  0  0  0  0
 11 12  1  6  0  0  0
 11 13  1  0  0  0  0
 13 31  1  0  0  0  0
 14 15  1  0  0  0  0
 15 16  2  0  0  0  0
 15 17  1  0  0  0  0
 17 18  1  0  0  0  0
 18 20  2  0  0  0  0
 19 18  1  6  0  0  0
 19 22  1  0  0  0  0
 19 30  1  0  0  0  0
 21 23  1  1  0  0  0
 21 29  1  0  0  0  0
 21 22  1  0  0  0  0
 23 24  1  0  0  0  0
 24 25  1  6  0  0  0
 24 26  1  0  0  0  0
 26 27  1  6  0  0  0
 26 28  1  0  0  0  0
 29 28  1  6  0  0  0
 29 31  1  0  0  0  0
 30 14  1  6  0  0  0
 30 31  1  0  0  0  0
M  CHG  1   3  -1
M  END
>  <CHROM.1>
-68.65219208,-159.20522106,87.33280203,29.49040629,-54.00578879,-118.04803473
116.87076936,14.77216391,26.63399863,14.91181192,-0.86647702,0.15868023,1.17688379

>  <Name>
ligand

>  <RI>
0

>  <Rbt.Current_Directory>
/home/itssahil/PROJECTS/Mol_Feturizer/New_Systems/rnas/3F2T

>  <Rbt.Executable>
rbdock ($Id: //depot/dev/client3/rdock/2013.1/src/exe/rbdock.cxx#4 $)

>  <Rbt.Library>
libRbt.so (2013.1, Build901 2013/11/27)

>  <Rbt.Parameter_File>
/export/apps/rDock/src/rDock_2013.1_src/data/scripts/dock_solv.prm

>  <Rbt.Receptor>
prm/blind_docking_40.prm

>  <SCORE>
6.9919

>  <SCORE.INTER>
-2.82053

>  <SCORE.INTER.CONST>
1

>  <SCORE.INTER.POLAR>
0

>  <SCORE.INTER.ROT>
7

>  <SCORE.INTER.SOLV>
14.8274

>  <SCORE.INTER.VDW>
-15.0895

>  <SCORE.INTER.norm>
-0.0909849

>  <SCORE.INTRA>
8.55272

>  <SCORE.INTRA.DIHEDRAL>
8.00436

>  <SCORE.INTRA.DIHEDRAL.0>
4.64198

>  <SCORE.INTRA.POLAR>
0

>  <SCORE.INTRA.POLAR.0>
0

>  <SCORE.INTRA.REPUL>
0

>  <SCORE.INTRA.REPUL.0>
0

>  <SCORE.INTRA.SOLV>
6.19639

>  <SCORE.INTRA.SOLV.lig_0>
-49.3611

>  <SCORE.INTRA.VDW>
1.45235

>  <SCORE.INTRA.VDW.0>
-1.91858

>  <SCORE.INTRA.norm>
0.275894

>  <SCORE.RESTR>
1.25971

>  <SCORE.RESTR.CAVITY>
1.25971

>  <SCORE.RESTR.norm>
0.0406358

>  <SCORE.SYSTEM>
0

>  <SCORE.SYSTEM.CONST>
0

>  <SCORE.SYSTEM.DIHEDRAL>
0

>  <SCORE.SYSTEM.SOLV>
0

>  <SCORE.SYSTEM.norm>
0

>  <SCORE.heavy>
31

>  <SCORE.norm>
0.225545

>  <RMSD>
18.897

$$$$
ligand
 OpenBabel11021811473D
libRbt.so/2013.1/901 2013/11/27
 31 33  0  0  0  0  0  0  0  0999 V2000
   12.4433   28.4167   18.6538 P   0  0  1  0  0  0  0  0  0  0  0  0
   10.9482   28.4854   18.8354 O   0  0  0  0  0  0  0  0  0  0  0  0
   12.8200   29.2300   17.4440 O   0  5  0  0  0  0  0  0  0  0  0  0
   13.0540   28.9601   19.9163 O   0  0  0  0  0  0  0  0  0  0  0  0
   12.1028   25.9043   17.9887 C   0  0  0  0  0  0  0  0  0  0  0  0
   12.9795   26.9198   18.4304 O   0  0  0  0  0  0  0  0  0  0  0  0
   11.9209   26.0200   16.4775 C   0  0  1  0  0  0  0  0  0  0  0  0
   11.3720   27.2831   16.1581 O   0  0  0  0  0  0  0  0  0  0  0  0
   13.2625   25.8728   15.7797 C   0  0  1  0  0  0  0  0  0  0  0  0
   14.1253   26.8678   16.2622 O   0  0  0  0  0  0  0  0  0  0  0  0
   13.8988   24.5134   16.0164 C   0  0  1  0  0  0  0  0  0  0  0  0
   12.8940   23.6214   16.4174 O   0  0  0  0  0  0  0  0  0  0  0  0
   14.5535   23.9922   14.7479 C   0  0  0  0  0  0  0  0  0  0  0  0
   16.1193   25.4036   16.6123 N   0  0  0  0  0  0  0  0  0  0  0  0
   16.8187   26.1157   17.5623 C   0  0  0  0  0  0  0  0  0  0  0  0
   16.6089   25.9212   18.7560 O   0  0  0  0  0  0  0  0  0  0  0  0
   17.7548   27.0509   17.1840 N   0  0  0  0  0  0  0  0  0  0  0  0
   18.0104   27.2762   15.8454 C   0  0  0  0  0  0  0  0  0  0  0  0
   17.3090   26.5629   14.8797 C   0  0  1  0  0  0  0  0  0  0  0  0
   18.8632   28.1014   15.5120 O   0  0  0  0  0  0  0  0  0  0  0  0
   16.8610   26.0728   12.5821 C   0  0  2  0  0  0  0  0  0  0  0  0
   17.5580   26.7843   13.5400 N   0  0  0  0  0  0  0  0  0  0  0  0
   17.1135   26.2977   11.2284 C   0  0  0  0  0  0  0  0  0  0  0  0
   16.4144   25.5913   10.2567 C   0  0  1  0  0  0  0  0  0  0  0  0
   16.7092   25.8613    8.8151 C   0  0  0  0  0  0  0  0  0  0  0  0
   15.4534   24.6436   10.6402 C   0  0  1  0  0  0  0  0  0  0  0  0
   14.6818   23.8517    9.6205 C   0  0  0  0  0  0  0  0  0  0  0  0
   15.2025   24.4227   11.9918 C   0  0  0  0  0  0  0  0  0  0  0  0
   15.9010   25.1346   12.9687 C   0  0  1  0  0  0  0  0  0  0  0  0
   16.3558   25.6247   15.2706 C   0  0  1  0  0  0  0  0  0  0  0  0
   15.6508   24.9176   14.3153 N   0  0  0  0  0  0  0  0  0  0  0  0
  1  2  1  1  0  0  0
  1  3  1  0  0  0  0
  1  4  2  0  0  0  0
  1  6  1  0  0  0  0
  5  6  1  0  0  0  0
  7  5  1  1  0  0  0
  7  8  1  0  0  0  0
  7  9  1  0  0  0  0
  9 10  1  1  0  0  0
  9 11  1  0  0  0  0
 11 12  1  6  0  0  0
 11 13  1  0  0  0  0
 13 31  1  0  0  0  0
 14 15  1  0  0  0  0
 15 16  2  0  0  0  0
 15 17  1  0  0  0  0
 17 18  1  0  0  0  0
 18 20  2  0  0  0  0
 19 18  1  1  0  0  0
 19 22  1  0  0  0  0
 19 30  1  0  0  0  0
 21 23  1  6  0  0  0
 21 29  1  0  0  0  0
 21 22  1  0  0  0  0
 23 24  1  0  0  0  0
 24 25  1  1  0  0  0
 24 26  1  0  0  0  0
 26 27  1  1  0  0  0
 26 28  1  0  0  0  0
 29 28  1  1  0  0  0
 29 31  1  0  0  0  0
 30 14  1  1  0  0  0
 30 31  1  0  0  0  0
M  CHG  1   3  -1
M  END
>  <CHROM.1>
80.14010458,20.64598200,-60.19117080,-58.30316333,20.07707558,61.84998890
-144.67271479,14.82395011,26.32909338,15.45879370,2.03805262,0.15398437,1.17472256

>  <Name>
ligand

>  <RI>
0

>  <Rbt.Current_Directory>
/home/itssahil/PROJECTS/Mol_Feturizer/New_Systems/rnas/3F2T

>  <Rbt.Executable>
rbdock ($Id: //depot/dev/client3/rdock/2013.1/src/exe/rbdock.cxx#4 $)

>  <Rbt.Library>
libRbt.so (2013.1, Build901 2013/11/27)

>  <Rbt.Parameter_File>
/export/apps/rDock/src/rDock_2013.1_src/data/scripts/dock_solv.prm

>  <Rbt.Receptor>
prm/blind_docking_40.prm

>  <SCORE>
31.4548

>  <SCORE.INTER>
19.2384

>  <SCORE.INTER.CONST>
1

>  <SCORE.INTER.POLAR>
0

>  <SCORE.INTER.ROT>
7

>  <SCORE.INTER.SOLV>
19.1055

>  <SCORE.INTER.VDW>
-1.80959

>  <SCORE.INTER.norm>
0.620592

>  <SCORE.INTRA>
9.45108

>  <SCORE.INTRA.DIHEDRAL>
4.3895

>  <SCORE.INTRA.DIHEDRAL.0>
4.64198

>  <SCORE.INTRA.POLAR>
0

>  <SCORE.INTRA.POLAR.0>
0

>  <SCORE.INTRA.REPUL>
0

>  <SCORE.INTRA.REPUL.0>
0

>  <SCORE.INTRA.SOLV>
4.29915

>  <SCORE.INTRA.SOLV.lig_0>
-49.3611

>  <SCORE.INTRA.VDW>
5.10675

>  <SCORE.INTRA.VDW.0>
-1.91858

>  <SCORE.INTRA.norm>
0.304874

>  <SCORE.RESTR>
2.76532

>  <SCORE.RESTR.CAVITY>
2.76532

>  <SCORE.RESTR.norm>
0.0892038

>  <SCORE.SYSTEM>
0

>  <SCORE.SYSTEM.CONST>
0

>  <SCORE.SYSTEM.DIHEDRAL>
0

>  <SCORE.SYSTEM.SOLV>
0

>  <SCORE.SYSTEM.norm>
0

>  <SCORE.heavy>
31

>  <SCORE.norm>
1.01467

>  <RMSD>
18.945

$$$$
ligand
 OpenBabel11021811473D
libRbt.so/2013.1/901 2013/11/27
 31 33  0  0  0  0  0  0  0  0999 V2000
   11.2861   27.5986   19.6068 P   0  0  1  0  0  0  0  0  0  0  0  0
   10.8508   26.6682   20.7105 O   0  0  0  0  0  0  0  0  0  0  0  0
   10.0940   28.3976   19.1514 O   0  5  0  0  0  0  0  0  0  0  0  0
   12.3680   28.4703   20.1828 O   0  0  0  0  0  0  0  0  0  0  0  0
   12.8360   25.7984   18.4987 C   0  0  0  0  0  0  0  0  0  0  0  0
   11.8794   26.8240   18.3315 O   0  0  0  0  0  0  0  0  0  0  0  0
   13.4810   25.4884   17.1504 C   0  0  1  0  0  0  0  0  0  0  0  0
   13.1862   26.5215   16.2313 O   0  0  0  0  0  0  0  0  0  0  0  0
   14.9885   25.3815   17.3076 C   0  0  1  0  0  0  0  0  0  0  0  0
   15.3211   24.0310   17.4888 O   0  0  0  0  0  0  0  0  0  0  0  0
   15.7416   25.9157   16.1009 C   0  0  1  0  0  0  0  0  0  0  0  0
   16.9923   26.3795   16.5329 O   0  0  0  0  0  0  0  0  0  0  0  0
   15.9441   24.8257   15.0614 C   0  0  0  0  0  0  0  0  0  0  0  0
   13.9193   25.2198   13.1470 N   0  0  0  0  0  0  0  0  0  0  0  0
   12.9040   25.3380   12.2229 C   0  0  0  0  0  0  0  0  0  0  0  0
   11.7545   25.0346   12.5287 O   0  0  0  0  0  0  0  0  0  0  0  0
   13.1675   25.7935   10.9513 N   0  0  0  0  0  0  0  0  0  0  0  0
   14.4535   26.1481   10.5929 C   0  0  0  0  0  0  0  0  0  0  0  0
   15.4846   26.0314   11.5184 C   0  0  1  0  0  0  0  0  0  0  0  0
   14.6811   26.5734    9.4584 O   0  0  0  0  0  0  0  0  0  0  0  0
   17.7952   26.2672   12.0883 C   0  0  2  0  0  0  0  0  0  0  0  0
   16.7725   26.3822   11.1662 N   0  0  0  0  0  0  0  0  0  0  0  0
   19.0965   26.6220   11.7311 C   0  0  0  0  0  0  0  0  0  0  0  0
   20.1335   26.5053   12.6492 C   0  0  1  0  0  0  0  0  0  0  0  0
   21.5165   26.8916   12.2298 C   0  0  0  0  0  0  0  0  0  0  0  0
   19.8684   26.0329   13.9435 C   0  0  1  0  0  0  0  0  0  0  0  0
   20.9603   25.9003   14.9695 C   0  0  0  0  0  0  0  0  0  0  0  0
   18.5691   25.6781   14.2965 C   0  0  0  0  0  0  0  0  0  0  0  0
   17.5275   25.7909   13.3739 C   0  0  1  0  0  0  0  0  0  0  0  0
   15.2114   25.5602   12.8009 C   0  0  1  0  0  0  0  0  0  0  0  0
   16.2331   25.4358   13.7228 N   0  0  0  0  0  0  0  0  0  0  0  0
  1  2  1  1  0  0  0
  1  3  1  0  0  0  0
  1  4  2  0  0  0  0
  1  6  1  0  0  0  0
  5  6  1  0  0  0  0
  7  5  1  1  0  0  0
  7  8  1  0  0  0  0
  7  9  1  0  0  0  0
  9 10  1  6  0  0  0
  9 11  1  0  0  0  0
 11 12  1  1  0  0  0
 11 13  1  0  0  0  0
 13 31  1  0  0  0  0
 14 15  1  0  0  0  0
 15 16  2  0  0  0  0
 15 17  1  0  0  0  0
 17 18  1  0  0  0  0
 18 20  2  0  0  0  0
 19 18  1  1  0  0  0
 19 22  1  0  0  0  0
 19 30  1  0  0  0  0
 21 23  1  6  0  0  0
 21 29  1  0  0  0  0
 21 22  1  0  0  0  0
 23 24  1  0  0  0  0
 24 25  1  1  0  0  0
 24 26  1  0  0  0  0
 26 27  1  1  0  0  0
 26 28  1  0  0  0  0
 29 28  1  1  0  0  0
 29 31  1  0  0  0  0
 30 14  1  1  0  0  0
 30 31  1  0  0  0  0
M  CHG  1   3  -1
M  END
>  <CHROM.1>
-165.68502747,-47.44586185,14.65966172,94.72405070,151.86654786,160.13452748
85.56765006,15.02958087,26.19637234,15.04648375,-2.30834883,0.02773460,-1.68272853

>  <Name>
ligand

>  <RI>
0

>  <Rbt.Current_Directory>
/home/itssahil/PROJECTS/Mol_Feturizer/New_Systems/rnas/3F2T

>  <Rbt.Executable>
rbdock ($Id: //depot/dev/client3/rdock/2013.1/src/exe/rbdock.cxx#4 $)

>  <Rbt.Library>
libRbt.so (2013.1, Build901 2013/11/27)

>  <Rbt.Parameter_File>
/export/apps/rDock/src/rDock_2013.1_src/data/scripts/dock_solv.prm

>  <Rbt.Receptor>
prm/blind_docking_40.prm

>  <SCORE>
6.82549

>  <SCORE.INTER>
-0.408229

>  <SCORE.INTER.CONST>
1

>  <SCORE.INTER.POLAR>
0

>  <SCORE.INTER.ROT>
7

>  <SCORE.INTER.SOLV>
13.1964

>  <SCORE.INTER.VDW>
-12.9376

>  <SCORE.INTER.norm>
-0.0131687

>  <SCORE.INTRA>
6.37643

>  <SCORE.INTRA.DIHEDRAL>
9.51258

>  <SCORE.INTRA.DIHEDRAL.0>
4.64198

>  <SCORE.INTRA.POLAR>
0

>  <SCORE.INTRA.POLAR.0>
0

>  <SCORE.INTRA.REPUL>
0

>  <SCORE.INTRA.REPUL.0>
0

>  <SCORE.INTRA.SOLV>
-0.396598

>  <SCORE.INTRA.SOLV.lig_0>
-49.3611

>  <SCORE.INTRA.VDW>
1.81844

>  <SCORE.INTRA.VDW.0>
-1.91858

>  <SCORE.INTRA.norm>
0.205691

>  <SCORE.RESTR>
0.857291

>  <SCORE.RESTR.CAVITY>
0.857291

>  <SCORE.RESTR.norm>
0.0276546

>  <SCORE.SYSTEM>
0

>  <SCORE.SYSTEM.CONST>
0

>  <SCORE.SYSTEM.DIHEDRAL>
0

>  <SCORE.SYSTEM.SOLV>
0

>  <SCORE.SYSTEM.norm>
0

>  <SCORE.heavy>
31

>  <SCORE.norm>
0.220177

>  <RMSD>
18.949

$$$$
ligand
 OpenBabel11021811473D
libRbt.so/2013.1/901 2013/11/27
 31 33  0  0  0  0  0  0  0  0999 V2000
   11.8015   28.1856   21.0679 P   0  0  1  0  0  0  0  0  0  0  0  0
   10.6943   29.1910   20.8767 O   0  0  0  0  0  0  0  0  0  0  0  0
   12.6003   28.5733   22.2838 O   0  5  0  0  0  0  0  0  0  0  0  0
   11.1400   26.8443   21.2266 O   0  0  0  0  0  0  0  0  0  0  0  0
   12.3097   28.1699   18.4965 C   0  0  0  0  0  0  0  0  0  0  0  0
   12.8064   28.1146   19.8175 O   0  0  0  0  0  0  0  0  0  0  0  0
   13.4819   28.1723   17.5187 C   0  0  1  0  0  0  0  0  0  0  0  0
   14.4521   29.1109   17.9388 O   0  0  0  0  0  0  0  0  0  0  0  0
   14.1178   26.7933   17.4662 C   0  0  1  0  0  0  0  0  0  0  0  0
   13.1896   25.8973   16.9159 O   0  0  0  0  0  0  0  0  0  0  0  0
   15.3848   26.7651   16.6280 C   0  0  1  0  0  0  0  0  0  0  0  0
   16.4650   27.1122   17.4519 O   0  0  0  0  0  0  0  0  0  0  0  0
   15.6219   25.3802   16.0491 C   0  0  0  0  0  0  0  0  0  0  0  0
   13.2210   24.9907   14.6334 N   0  0  0  0  0  0  0  0  0  0  0  0
   12.0319   24.7359   13.9855 C   0  0  0  0  0  0  0  0  0  0  0  0
   11.0027   24.5638   14.6320 O   0  0  0  0  0  0  0  0  0  0  0  0
   11.9863   24.6696   12.6116 N   0  0  0  0  0  0  0  0  0  0  0  0
   13.1328   24.8699   11.8678 C   0  0  0  0  0  0  0  0  0  0  0  0
   14.3375   25.1268   12.5130 C   0  0  1  0  0  0  0  0  0  0  0  0
   13.0830   24.8281   10.6368 O   0  0  0  0  0  0  0  0  0  0  0  0
   16.6832   25.5831   12.4192 C   0  0  2  0  0  0  0  0  0  0  0  0
   15.4876   25.3261   11.7759 N   0  0  0  0  0  0  0  0  0  0  0  0
   17.8450   25.7842   11.6730 C   0  0  0  0  0  0  0  0  0  0  0  0
   19.0538   26.0383   12.3102 C   0  0  1  0  0  0  0  0  0  0  0  0
   20.2796   26.2453   11.4779 C   0  0  0  0  0  0  0  0  0  0  0  0
   19.1042   26.0977   13.7111 C   0  0  1  0  0  0  0  0  0  0  0  0
   20.3901   26.3791   14.4389 C   0  0  0  0  0  0  0  0  0  0  0  0
   17.9435   25.8949   14.4530 C   0  0  0  0  0  0  0  0  0  0  0  0
   16.7296   25.6355   13.8143 C   0  0  1  0  0  0  0  0  0  0  0  0
   14.3774   25.1827   13.9047 C   0  0  1  0  0  0  0  0  0  0  0  0
   15.5729   25.4310   14.5516 N   0  0  0  0  0  0  0  0  0  0  0  0
  1  2  1  6  0  0  0
  1  3  1  0  0  0  0
  1  4  2  0  0  0  0
  1  6  1  0  0  0  0
  5  6  1  0  0  0  0
  7  5  1  1  0  0  0
  7  8  1  0  0  0  0
  7  9  1  0  0  0  0
  9 10  1  6  0  0  0
  9 11  1  0  0  0  0
 11 12  1  1  0  0  0
 11 13  1  0  0  0  0
 13 31  1  0  0  0  0
 14 15  1  0  0  0  0
 15 16  2  0  0  0  0
 15 17  1  0  0  0  0
 17 18  1  0  0  0  0
 18 20  2  0  0  0  0
 19 18  1  6  0  0  0
 19 22  1  0  0  0  0
 19 30  1  0  0  0  0
 21 23  1  1  0  0  0
 21 29  1  0  0  0  0
 21 22  1  0  0  0  0
 23 24  1  0  0  0  0
 24 25  1  6  0  0  0
 24 26  1  0  0  0  0
 26 27  1  6  0  0  0
 26 28  1  0  0  0  0
 29 28  1  6  0  0  0
 29 31  1  0  0  0  0
 30 14  1  6  0  0  0
 30 31  1  0  0  0  0
M  CHG  1   3  -1
M  END
>  <CHROM.1>
176.42307365,-40.82846299,-47.15607712,65.75426606,87.17302142,117.14965271
91.63002643,14.49974676,26.44683863,15.85316533,-2.11195901,-0.17100205,-1.98382849

>  <Name>
ligand

>  <RI>
0

>  <Rbt.Current_Directory>
/home/itssahil/PROJECTS/Mol_Feturizer/New_Systems/rnas/3F2T

>  <Rbt.Executable>
rbdock ($Id: //depot/dev/client3/rdock/2013.1/src/exe/rbdock.cxx#4 $)

>  <Rbt.Library>
libRbt.so (2013.1, Build901 2013/11/27)

>  <Rbt.Parameter_File>
/export/apps/rDock/src/rDock_2013.1_src/data/scripts/dock_solv.prm

>  <Rbt.Receptor>
prm/blind_docking_40.prm

>  <SCORE>
-0.165395

>  <SCORE.INTER>
-6.08423

>  <SCORE.INTER.CONST>
1

>  <SCORE.INTER.POLAR>
0

>  <SCORE.INTER.ROT>
7

>  <SCORE.INTER.SOLV>
17.1326

>  <SCORE.INTER.VDW>
-18.0337

>  <SCORE.INTER.norm>
-0.196266

>  <SCORE.INTRA>
3.86352

>  <SCORE.INTRA.DIHEDRAL>
5.51782

>  <SCORE.INTRA.DIHEDRAL.0>
4.64198

>  <SCORE.INTRA.POLAR>
0

>  <SCORE.INTRA.POLAR.0>
0

>  <SCORE.INTRA.REPUL>
0

>  <SCORE.INTRA.REPUL.0>
0

>  <SCORE.INTRA.SOLV>
-0.185091

>  <SCORE.INTRA.SOLV.lig_0>
-49.3611

>  <SCORE.INTRA.VDW>
1.19716

>  <SCORE.INTRA.VDW.0>
-1.91858

>  <SCORE.INTRA.norm>
0.12463

>  <SCORE.RESTR>
2.05532

>  <SCORE.RESTR.CAVITY>
2.05532

>  <SCORE.RESTR.norm>
0.0663006

>  <SCORE.SYSTEM>
0

>  <SCORE.SYSTEM.CONST>
0

>  <SCORE.SYSTEM.DIHEDRAL>
0

>  <SCORE.SYSTEM.SOLV>
0

>  <SCORE.SYSTEM.norm>
0

>  <SCORE.heavy>
31

>  <SCORE.norm>
-0.00533532

>  <RMSD>
18.977

$$$$
ligand
 OpenBabel11021811473D
libRbt.so/2013.1/901 2013/11/27
 31 33  0  0  0  0  0  0  0  0999 V2000
   12.7984   28.0298   17.6584 P   0  0  1  0  0  0  0  0  0  0  0  0
   11.9810   28.1486   16.3971 O   0  0  0  0  0  0  0  0  0  0  0  0
   13.0439   29.4107   18.2059 O   0  5  0  0  0  0  0  0  0  0  0  0
   12.0021   27.1760   18.6066 O   0  0  0  0  0  0  0  0  0  0  0  0
   14.3000   26.0024   16.9474 C   0  0  0  0  0  0  0  0  0  0  0  0
   14.2244   27.3320   17.4178 O   0  0  0  0  0  0  0  0  0  0  0  0
   15.7563   25.6579   16.6466 C   0  0  1  0  0  0  0  0  0  0  0  0
   16.4843   25.5651   17.8550 O   0  0  0  0  0  0  0  0  0  0  0  0
   15.8358   24.3270   15.9178 C   0  0  1  0  0  0  0  0  0  0  0  0
   15.0066   23.4089   16.5788 O   0  0  0  0  0  0  0  0  0  0  0  0
   15.3983   24.4281   14.4663 C   0  0  1  0  0  0  0  0  0  0  0  0
   13.9972   24.3912   14.4256 O   0  0  0  0  0  0  0  0  0  0  0  0
   15.8828   25.7265   13.8426 C   0  0  0  0  0  0  0  0  0  0  0  0
   14.4356   24.6199   11.6976 N   0  0  0  0  0  0  0  0  0  0  0  0
   13.6985   24.0235   10.6977 C   0  0  0  0  0  0  0  0  0  0  0  0
   12.5015   23.8058   10.8612 O   0  0  0  0  0  0  0  0  0  0  0  0
   14.2950   23.6647    9.5105 N   0  0  0  0  0  0  0  0  0  0  0  0
   15.6387   23.9104    9.3059 C   0  0  0  0  0  0  0  0  0  0  0  0
   16.3907   24.5111   10.3094 C   0  0  1  0  0  0  0  0  0  0  0  0
   16.1641   23.6042    8.2336 O   0  0  0  0  0  0  0  0  0  0  0  0
   18.4795   25.3568   11.1104 C   0  0  2  0  0  0  0  0  0  0  0  0
   17.7346   24.7580   10.1124 N   0  0  0  0  0  0  0  0  0  0  0  0
   19.8377   25.6056   10.9100 C   0  0  0  0  0  0  0  0  0  0  0  0
   20.5973   26.2026   11.9092 C   0  0  1  0  0  0  0  0  0  0  0  0
   22.0514   26.4508   11.6603 C   0  0  0  0  0  0  0  0  0  0  0  0
   19.9930   26.5614   13.1236 C   0  0  1  0  0  0  0  0  0  0  0  0
   20.7772   27.2176   14.2267 C   0  0  0  0  0  0  0  0  0  0  0  0
   18.6378   26.3103   13.3212 C   0  0  0  0  0  0  0  0  0  0  0  0
   17.8747   25.7068   12.3200 C   0  0  1  0  0  0  0  0  0  0  0  0
   15.7817   24.8627   11.5123 C   0  0  1  0  0  0  0  0  0  0  0  0
   16.5254   25.4538   12.5158 N   0  0  0  0  0  0  0  0  0  0  0  0
  1  2  1  6  0  0  0
  1  3  1  0  0  0  0
  1  4  2  0  0  0  0
  1  6  1  0  0  0  0
  5  6  1  0  0  0  0
  7  5  1  1  0  0  0
  7  8  1  0  0  0  0
  7  9  1  0  0  0  0
  9 10  1  1  0  0  0
  9 11  1  0  0  0  0
 11 12  1  1  0  0  0
 11 13  1  0  0  0  0
 13 31  1  0  0  0  0
 14 15  1  0  0  0  0
 15 16  2  0  0  0  0
 15 17  1  0  0  0  0
 17 18  1  0  0  0  0
 18 20  2  0  0  0  0
 19 18  1  6  0  0  0
 19 22  1  0  0  0  0
 19 30  1  0  0  0  0
 21 23  1  1  0  0  0
 21 29  1  0  0  0  0
 21 22  1  0  0  0  0
 23 24  1  0  0  0  0
 24 25  1  6  0  0  0
 24 26  1  0  0  0  0
 26 27  1  6  0  0  0
 26 28  1  0  0  0  0
 29 28  1  6  0  0  0
 29 31  1  0  0  0  0
 30 14  1  6  0  0  0
 30 31  1  0  0  0  0
M  CHG  1   3  -1
M  END
>  <CHROM.1>
173.03954679,-61.96111889,69.82775438,-46.16491347,-81.07190608,132.01610527
-115.56654327,15.81416475,25.68409951,13.80161364,2.13867090,0.17627277,1.14580045

>  <Name>
ligand

>  <RI>
0

>  <Rbt.Current_Directory>
/home/itssahil/PROJECTS/Mol_Feturizer/New_Systems/rnas/3F2T

>  <Rbt.Executable>
rbdock ($Id: //depot/dev/client3/rdock/2013.1/src/exe/rbdock.cxx#4 $)

>  <Rbt.Library>
libRbt.so (2013.1, Build901 2013/11/27)

>  <Rbt.Parameter_File>
/export/apps/rDock/src/rDock_2013.1_src/data/scripts/dock_solv.prm

>  <Rbt.Receptor>
prm/blind_docking_40.prm

>  <SCORE>
10.6391

>  <SCORE.INTER>
0.737155

>  <SCORE.INTER.CONST>
1

>  <SCORE.INTER.POLAR>
0

>  <SCORE.INTER.ROT>
7

>  <SCORE.INTER.SOLV>
13.4806

>  <SCORE.INTER.VDW>
-12.2688

>  <SCORE.INTER.norm>
0.0237792

>  <SCORE.INTRA>
4.36798

>  <SCORE.INTRA.DIHEDRAL>
4.06924

>  <SCORE.INTRA.DIHEDRAL.0>
4.64198

>  <SCORE.INTRA.POLAR>
0

>  <SCORE.INTRA.POLAR.0>
0

>  <SCORE.INTRA.REPUL>
0

>  <SCORE.INTRA.REPUL.0>
0

>  <SCORE.INTRA.SOLV>
-0.545144

>  <SCORE.INTRA.SOLV.lig_0>
-49.3611

>  <SCORE.INTRA.VDW>
2.60594

>  <SCORE.INTRA.VDW.0>
-1.91858

>  <SCORE.INTRA.norm>
0.140903

>  <SCORE.RESTR>
5.534

>  <SCORE.RESTR.CAVITY>
5.534

>  <SCORE.RESTR.norm>
0.178516

>  <SCORE.SYSTEM>
0

>  <SCORE.SYSTEM.CONST>
0

>  <SCORE.SYSTEM.DIHEDRAL>
0

>  <SCORE.SYSTEM.SOLV>
0

>  <SCORE.SYSTEM.norm>
0

>  <SCORE.heavy>
31

>  <SCORE.norm>
0.343198

>  <RMSD>
18.988

$$$$
ligand
 OpenBabel11021811473D
libRbt.so/2013.1/901 2013/11/27
 31 33  0  0  0  0  0  0  0  0999 V2000
   11.8219   27.2878   20.8878 P   0  0  1  0  0  0  0  0  0  0  0  0
   10.3989   27.6196   20.5159 O   0  0  0  0  0  0  0  0  0  0  0  0
   12.5588   28.5706   21.1676 O   0  5  0  0  0  0  0  0  0  0  0  0
   11.7523   26.3970   22.0976 O   0  0  0  0  0  0  0  0  0  0  0  0
   12.6531   27.0350   18.4148 C   0  0  0  0  0  0  0  0  0  0  0  0
   12.6084   26.5087   19.7247 O   0  0  0  0  0  0  0  0  0  0  0  0
   12.8776   25.8963   17.4233 C   0  0  1  0  0  0  0  0  0  0  0  0
   12.4566   26.2959   16.1341 O   0  0  0  0  0  0  0  0  0  0  0  0
   14.3525   25.5347   17.3722 C   0  0  1  0  0  0  0  0  0  0  0  0
   14.4761   24.2528   16.8165 O   0  0  0  0  0  0  0  0  0  0  0  0
   15.1656   26.5118   16.5397 C   0  0  1  0  0  0  0  0  0  0  0  0
   15.5620   27.5714   17.3680 O   0  0  0  0  0  0  0  0  0  0  0  0
   16.4001   25.8380   15.9640 C   0  0  0  0  0  0  0  0  0  0  0  0
   18.5883   26.9067   14.5535 N   0  0  0  0  0  0  0  0  0  0  0  0
   19.6602   27.4908   13.9142 C   0  0  0  0  0  0  0  0  0  0  0  0
   20.6490   27.8322   14.5565 O   0  0  0  0  0  0  0  0  0  0  0  0
   19.6324   27.6990   12.5541 N   0  0  0  0  0  0  0  0  0  0  0  0
   18.5317   27.3128   11.8143 C   0  0  0  0  0  0  0  0  0  0  0  0
   17.4451   26.7233   12.4508 C   0  0  1  0  0  0  0  0  0  0  0  0
   18.5196   27.4843   10.5937 O   0  0  0  0  0  0  0  0  0  0  0  0
   15.2631   25.7492   12.3524 C   0  0  2  0  0  0  0  0  0  0  0  0
   16.3411   26.3365   11.7179 N   0  0  0  0  0  0  0  0  0  0  0  0
   14.1478   25.3589   11.6105 C   0  0  0  0  0  0  0  0  0  0  0  0
   13.0561   24.7720   12.2394 C   0  0  1  0  0  0  0  0  0  0  0  0
   11.8763   24.3696   11.4124 C   0  0  0  0  0  0  0  0  0  0  0  0
   13.0788   24.5667   13.6273 C   0  0  1  0  0  0  0  0  0  0  0  0
   11.9221   23.9268   14.3449 C   0  0  0  0  0  0  0  0  0  0  0  0
   14.1925   24.9588   14.3652 C   0  0  0  0  0  0  0  0  0  0  0  0
   15.2879   25.5522   13.7351 C   0  0  1  0  0  0  0  0  0  0  0  0
   17.4768   26.5247   13.8297 C   0  0  1  0  0  0  0  0  0  0  0  0
   16.3972   25.9455   14.4687 N   0  0  0  0  0  0  0  0  0  0  0  0
  1  2  1  6  0  0  0
  1  3  1  0  0  0  0
  1  4  2  0  0  0  0
  1  6  1  0  0  0  0
  5  6  1  0  0  0  0
  7  5  1  1  0  0  0
  7  8  1  0  0  0  0
  7  9  1  0  0  0  0
  9 10  1  6  0  0  0
  9 11  1  0  0  0  0
 11 12  1  1  0  0  0
 11 13  1  0  0  0  0
 13 31  1  0  0  0  0
 14 15  1  0  0  0  0
 15 16  2  0  0  0  0
 15 17  1  0  0  0  0
 17 18  1  0  0  0  0
 18 20  2  0  0  0  0
 19 18  1  6  0  0  0
 19 22  1  0  0  0  0
 19 30  1  0  0  0  0
 21 23  1  1  0  0  0
 21 29  1  0  0  0  0
 21 22  1  0  0  0  0
 23 24  1  0  0  0  0
 24 25  1  6  0  0  0
 24 26  1  0  0  0  0
 26 27  1  6  0  0  0
 26 28  1  0  0  0  0
 29 28  1  6  0  0  0
 29 31  1  0  0  0  0
 30 14  1  6  0  0  0
 30 31  1  0  0  0  0
M  CHG  1   3  -1
M  END
>  <CHROM.1>
-154.97343355,52.92192813,159.11814741,161.19658744,86.99116742,122.29419739
-51.88090706,14.81287427,26.35863502,15.69416659,-2.25318183,-0.36000391
-1.88883142

>  <Name>
ligand

>  <RI>
0

>  <Rbt.Current_Directory>
/home/itssahil/PROJECTS/Mol_Feturizer/New_Systems/rnas/3F2T

>  <Rbt.Executable>
rbdock ($Id: //depot/dev/client3/rdock/2013.1/src/exe/rbdock.cxx#4 $)

>  <Rbt.Library>
libRbt.so (2013.1, Build901 2013/11/27)

>  <Rbt.Parameter_File>
/export/apps/rDock/src/rDock_2013.1_src/data/scripts/dock_solv.prm

>  <Rbt.Receptor>
prm/blind_docking_40.prm

>  <SCORE>
10.6465

>  <SCORE.INTER>
1.89759

>  <SCORE.INTER.CONST>
1

>  <SCORE.INTER.POLAR>
0

>  <SCORE.INTER.ROT>
7

>  <SCORE.INTER.SOLV>
15.5451

>  <SCORE.INTER.VDW>
-12.1833

>  <SCORE.INTER.norm>
0.0612125

>  <SCORE.INTRA>
6.69513

>  <SCORE.INTRA.DIHEDRAL>
9.53998

>  <SCORE.INTRA.DIHEDRAL.0>
4.64198

>  <SCORE.INTRA.POLAR>
0

>  <SCORE.INTRA.POLAR.0>
0

>  <SCORE.INTRA.REPUL>
0

>  <SCORE.INTRA.REPUL.0>
0

>  <SCORE.INTRA.SOLV>
-0.0470804

>  <SCORE.INTRA.SOLV.lig_0>
-49.3611

>  <SCORE.INTRA.VDW>
1.94868

>  <SCORE.INTRA.VDW.0>
-1.91858

>  <SCORE.INTRA.norm>
0.215972

>  <SCORE.RESTR>
2.05375

>  <SCORE.RESTR.CAVITY>
2.05375

>  <SCORE.RESTR.norm>
0.06625

>  <SCORE.SYSTEM>
0

>  <SCORE.SYSTEM.CONST>
0

>  <SCORE.SYSTEM.DIHEDRAL>
0

>  <SCORE.SYSTEM.SOLV>
0

>  <SCORE.SYSTEM.norm>
0

>  <SCORE.heavy>
31

>  <SCORE.norm>
0.343434

>  <RMSD>
18.999

$$$$
ligand
 OpenBabel11021811473D
libRbt.so/2013.1/901 2013/11/27
 31 33  0  0  0  0  0  0  0  0999 V2000
   10.8280   29.2554   18.5697 P   0  0  1  0  0  0  0  0  0  0  0  0
   11.2258   29.2827   20.0237 O   0  0  0  0  0  0  0  0  0  0  0  0
    9.5154   28.5289   18.4425 O   0  5  0  0  0  0  0  0  0  0  0  0
   10.7295   30.6888   18.1251 O   0  0  0  0  0  0  0  0  0  0  0  0
   12.0566   27.1033   17.7154 C   0  0  0  0  0  0  0  0  0  0  0  0
   11.9011   28.5051   17.6403 O   0  0  0  0  0  0  0  0  0  0  0  0
   13.2049   26.6757   16.8052 C   0  0  1  0  0  0  0  0  0  0  0  0
   14.4211   27.2120   17.2870 O   0  0  0  0  0  0  0  0  0  0  0  0
   13.3093   25.1601   16.7772 C   0  0  1  0  0  0  0  0  0  0  0  0
   12.1237   24.6436   16.2343 O   0  0  0  0  0  0  0  0  0  0  0  0
   14.4842   24.6701   15.9475 C   0  0  1  0  0  0  0  0  0  0  0  0
   14.5133   23.2697   16.0105 O   0  0  0  0  0  0  0  0  0  0  0  0
   14.3428   25.1029   14.4977 C   0  0  0  0  0  0  0  0  0  0  0  0
   16.4350   26.2398   15.9976 N   0  0  0  0  0  0  0  0  0  0  0  0
   17.4082   26.8520   16.7572 C   0  0  0  0  0  0  0  0  0  0  0  0
   17.1999   27.1006   17.9411 O   0  0  0  0  0  0  0  0  0  0  0  0
   18.6188   27.1921   16.1978 N   0  0  0  0  0  0  0  0  0  0  0  0
   18.8737   26.9115   14.8696 C   0  0  0  0  0  0  0  0  0  0  0  0
   17.8975   26.2947   14.0951 C   0  0  1  0  0  0  0  0  0  0  0  0
   19.9665   27.2011   14.3781 O   0  0  0  0  0  0  0  0  0  0  0  0
   17.1738   25.3984   11.9993 C   0  0  2  0  0  0  0  0  0  0  0  0
   18.1449   26.0131   12.7665 N   0  0  0  0  0  0  0  0  0  0  0  0
   17.4251   25.1144   10.6565 C   0  0  0  0  0  0  0  0  0  0  0  0
   16.4534   24.5010    9.8745 C   0  0  1  0  0  0  0  0  0  0  0  0
   16.7569   24.2151    8.4378 C   0  0  0  0  0  0  0  0  0  0  0  0
   15.2154   24.1613   10.4406 C   0  0  1  0  0  0  0  0  0  0  0  0
   14.1407   23.4885    9.6316 C   0  0  0  0  0  0  0  0  0  0  0  0
   14.9670   24.4475   11.7805 C   0  0  0  0  0  0  0  0  0  0  0  0
   15.9406   25.0674   12.5658 C   0  0  1  0  0  0  0  0  0  0  0  0
   16.6707   25.9623   14.6662 C   0  0  1  0  0  0  0  0  0  0  0  0
   15.6943   25.3553   13.8998 N   0  0  0  0  0  0  0  0  0  0  0  0
  1  2  1  1  0  0  0
  1  3  1  0  0  0  0
  1  4  2  0  0  0  0
  1  6  1  0  0  0  0
  5  6  1  0  0  0  0
  7  5  1  1  0  0  0
  7  8  1  0  0  0  0
  7  9  1  0  0  0  0
  9 10  1  6  0  0  0
  9 11  1  0  0  0  0
 11 12  1  6  0  0  0
 11 13  1  0  0  0  0
 13 31  1  0  0  0  0
 14 15  1  0  0  0  0
 15 16  2  0  0  0  0
 15 17  1  0  0  0  0
 17 18  1  0  0  0  0
 18 20  2  0  0  0  0
 19 18  1  1  0  0  0
 19 22  1  0  0  0  0
 19 30  1  0  0  0  0
 21 23  1  6  0  0  0
 21 29  1  0  0  0  0
 21 22  1  0  0  0  0
 23 24  1  0  0  0  0
 24 25  1  1  0  0  0
 24 26  1  0  0  0  0
 26 27  1  1  0  0  0
 26 28  1  0  0  0  0
 29 28  1  1  0  0  0
 29 31  1  0  0  0  0
 30 14  1  1  0  0  0
 30 31  1  0  0  0  0
M  CHG  1   3  -1
M  END
>  <CHROM.1>
-175.89823316,70.87594875,65.05982218,62.60093152,178.58700860,147.24708339
145.59580770,14.79538972,26.37091304,15.16686444,2.18919541,0.04791937,1.05065150

>  <Name>
ligand

>  <RI>
0

>  <Rbt.Current_Directory>
/home/itssahil/PROJECTS/Mol_Feturizer/New_Systems/rnas/3F2T

>  <Rbt.Executable>
rbdock ($Id: //depot/dev/client3/rdock/2013.1/src/exe/rbdock.cxx#4 $)

>  <Rbt.Library>
libRbt.so (2013.1, Build901 2013/11/27)

>  <Rbt.Parameter_File>
/export/apps/rDock/src/rDock_2013.1_src/data/scripts/dock_solv.prm

>  <Rbt.Receptor>
prm/blind_docking_40.prm

>  <SCORE>
4.99343

>  <SCORE.INTER>
-1.67658

>  <SCORE.INTER.CONST>
1

>  <SCORE.INTER.POLAR>
0

>  <SCORE.INTER.ROT>
7

>  <SCORE.INTER.SOLV>
13.8971

>  <SCORE.INTER.VDW>
-14.0167

>  <SCORE.INTER.norm>
-0.0540833

>  <SCORE.INTRA>
2.80449

>  <SCORE.INTRA.DIHEDRAL>
-0.180236

>  <SCORE.INTRA.DIHEDRAL.0>
4.64198

>  <SCORE.INTRA.POLAR>
0

>  <SCORE.INTRA.POLAR.0>
0

>  <SCORE.INTRA.REPUL>
0

>  <SCORE.INTRA.REPUL.0>
0

>  <SCORE.INTRA.SOLV>
-0.0730874

>  <SCORE.INTRA.SOLV.lig_0>
-49.3611

>  <SCORE.INTRA.VDW>
2.93115

>  <SCORE.INTRA.VDW.0>
-1.91858

>  <SCORE.INTRA.norm>
0.0904673

>  <SCORE.RESTR>
3.86553

>  <SCORE.RESTR.CAVITY>
3.86553

>  <SCORE.RESTR.norm>
0.124694

>  <SCORE.SYSTEM>
0

>  <SCORE.SYSTEM.CONST>
0

>  <SCORE.SYSTEM.DIHEDRAL>
0

>  <SCORE.SYSTEM.SOLV>
0

>  <SCORE.SYSTEM.norm>
0

>  <SCORE.heavy>
31

>  <SCORE.norm>
0.161078

>  <RMSD>
19.054

$$$$
ligand
 OpenBabel11021811473D
libRbt.so/2013.1/901 2013/11/27
 31 33  0  0  0  0  0  0  0  0999 V2000
   10.0992   29.5358   18.7393 P   0  0  1  0  0  0  0  0  0  0  0  0
   10.6552   30.8164   18.1698 O   0  0  0  0  0  0  0  0  0  0  0  0
    9.9425   29.6982   20.2280 O   0  5  0  0  0  0  0  0  0  0  0  0
    8.7829   29.2968   18.0522 O   0  0  0  0  0  0  0  0  0  0  0  0
   12.4250   28.3282   18.7929 C   0  0  0  0  0  0  0  0  0  0  0  0
   11.0497   28.2685   18.4770 O   0  0  0  0  0  0  0  0  0  0  0  0
   13.0192   26.9241   18.7176 C   0  0  1  0  0  0  0  0  0  0  0  0
   12.1029   25.9888   19.2508 O   0  0  0  0  0  0  0  0  0  0  0  0
   13.3121   26.5605   17.2716 C   0  0  1  0  0  0  0  0  0  0  0  0
   12.2602   27.0332   16.4733 O   0  0  0  0  0  0  0  0  0  0  0  0
   14.6162   27.1584   16.7710 C   0  0  1  0  0  0  0  0  0  0  0  0
   15.1183   28.0121   17.7636 O   0  0  0  0  0  0  0  0  0  0  0  0
   15.6373   26.0702   16.4837 C   0  0  0  0  0  0  0  0  0  0  0  0
   17.9614   26.4526   14.9436 N   0  0  0  0  0  0  0  0  0  0  0  0
   19.1067   26.7119   14.2226 C   0  0  0  0  0  0  0  0  0  0  0  0
   20.1212   27.0979   14.7959 O   0  0  0  0  0  0  0  0  0  0  0  0
   19.1244   26.5437   12.8568 N   0  0  0  0  0  0  0  0  0  0  0  0
   17.9947   26.1014   12.1965 C   0  0  0  0  0  0  0  0  0  0  0  0
   16.8341   25.8379   12.9156 C   0  0  1  0  0  0  0  0  0  0  0  0
   18.0213   25.9343   10.9754 O   0  0  0  0  0  0  0  0  0  0  0  0
   14.5493   25.1344   12.9788 C   0  0  2  0  0  0  0  0  0  0  0  0
   15.7009   25.3973   12.2618 N   0  0  0  0  0  0  0  0  0  0  0  0
   13.4046   24.6892   12.3167 C   0  0  0  0  0  0  0  0  0  0  0  0
   12.2394   24.4267   13.0276 C   0  0  1  0  0  0  0  0  0  0  0  0
   11.0304   23.9543   12.2839 C   0  0  0  0  0  0  0  0  0  0  0  0
   12.2167   24.6059   14.4191 C   0  0  1  0  0  0  0  0  0  0  0  0
   10.9792   24.3244   15.2264 C   0  0  0  0  0  0  0  0  0  0  0  0
   13.3601   25.0518   15.0766 C   0  0  0  0  0  0  0  0  0  0  0  0
   14.5297   25.3197   14.3632 C   0  0  1  0  0  0  0  0  0  0  0  0
   16.8213   26.0199   14.2970 C   0  0  1  0  0  0  0  0  0  0  0  0
   15.6689   25.7661   15.0160 N   0  0  0  0  0  0  0  0  0  0  0  0
  1  2  1  6  0  0  0
  1  3  1  0  0  0  0
  1  4  2  0  0  0  0
  1  6  1  0  0  0  0
  5  6  1  0  0  0  0
  7  5  1  6  0  0  0
  7  8  1  0  0  0  0
  7  9  1  0  0  0  0
  9 10  1  6  0  0  0
  9 11  1  0  0  0  0
 11 12  1  1  0  0  0
 11 13  1  0  0  0  0
 13 31  1  0  0  0  0
 14 15  1  0  0  0  0
 15 16  2  0  0  0  0
 15 17  1  0  0  0  0
 17 18  1  0  0  0  0
 18 20  2  0  0  0  0
 19 18  1  1  0  0  0
 19 22  1  0  0  0  0
 19 30  1  0  0  0  0
 21 23  1  6  0  0  0
 21 29  1  0  0  0  0
 21 22  1  0  0  0  0
 23 24  1  0  0  0  0
 24 25  1  1  0  0  0
 24 26  1  0  0  0  0
 26 27  1  1  0  0  0
 26 28  1  0  0  0  0
 29 28  1  1  0  0  0
 29 31  1  0  0  0  0
 30 14  1  1  0  0  0
 30 31  1  0  0  0  0
M  CHG  1   3  -1
M  END
>  <CHROM.1>
168.45555644,50.19811255,-39.50055872,-40.07986571,-6.36319835,99.04547415
-59.70711211,13.90277724,26.76047520,15.71621771,-2.40983517,-0.15602105
-2.22037271

>  <Name>
ligand

>  <RI>
0

>  <Rbt.Current_Directory>
/home/itssahil/PROJECTS/Mol_Feturizer/New_Systems/rnas/3F2T

>  <Rbt.Executable>
rbdock ($Id: //depot/dev/client3/rdock/2013.1/src/exe/rbdock.cxx#4 $)

>  <Rbt.Library>
libRbt.so (2013.1, Build901 2013/11/27)

>  <Rbt.Parameter_File>
/export/apps/rDock/src/rDock_2013.1_src/data/scripts/dock_solv.prm

>  <Rbt.Receptor>
prm/blind_docking_40.prm

>  <SCORE>
14.3283

>  <SCORE.INTER>
2.3103

>  <SCORE.INTER.CONST>
1

>  <SCORE.INTER.POLAR>
0

>  <SCORE.INTER.ROT>
7

>  <SCORE.INTER.SOLV>
10.5232

>  <SCORE.INTER.VDW>
-10.2342

>  <SCORE.INTER.norm>
0.074526

>  <SCORE.INTRA>
8.88865

>  <SCORE.INTRA.DIHEDRAL>
9.17891

>  <SCORE.INTRA.DIHEDRAL.0>
4.64198

>  <SCORE.INTRA.POLAR>
0

>  <SCORE.INTRA.POLAR.0>
0

>  <SCORE.INTRA.REPUL>
0

>  <SCORE.INTRA.REPUL.0>
0

>  <SCORE.INTRA.SOLV>
0.257942

>  <SCORE.INTRA.SOLV.lig_0>
-49.3611

>  <SCORE.INTRA.VDW>
4.17022

>  <SCORE.INTRA.VDW.0>
-1.91858

>  <SCORE.INTRA.norm>
0.286731

>  <SCORE.RESTR>
3.12933

>  <SCORE.RESTR.CAVITY>
3.12933

>  <SCORE.RESTR.norm>
0.100946

>  <SCORE.SYSTEM>
0

>  <SCORE.SYSTEM.CONST>
0

>  <SCORE.SYSTEM.DIHEDRAL>
0

>  <SCORE.SYSTEM.SOLV>
0

>  <SCORE.SYSTEM.norm>
0

>  <SCORE.heavy>
31

>  <SCORE.norm>
0.462203

>  <RMSD>
19.075

$$$$
ligand
 OpenBabel11021811473D
libRbt.so/2013.1/901 2013/11/27
 31 33  0  0  0  0  0  0  0  0999 V2000
   10.0662   29.8852   19.2943 P   0  0  1  0  0  0  0  0  0  0  0  0
    9.0055   29.3555   18.3628 O   0  0  0  0  0  0  0  0  0  0  0  0
   10.0874   31.3875   19.1963 O   0  5  0  0  0  0  0  0  0  0  0  0
    9.7009   29.4109   20.6740 O   0  0  0  0  0  0  0  0  0  0  0  0
   11.9998   29.3511   17.6071 C   0  0  0  0  0  0  0  0  0  0  0  0
   11.5367   29.3454   18.9414 O   0  0  0  0  0  0  0  0  0  0  0  0
   13.4610   28.9103   17.5806 C   0  0  1  0  0  0  0  0  0  0  0  0
   14.1923   29.6226   18.5587 O   0  0  0  0  0  0  0  0  0  0  0  0
   13.5606   27.4229   17.8742 C   0  0  1  0  0  0  0  0  0  0  0  0
   12.9689   27.1762   19.1217 O   0  0  0  0  0  0  0  0  0  0  0  0
   12.8668   26.5717   16.8241 C   0  0  1  0  0  0  0  0  0  0  0  0
   12.9013   27.2630   15.6047 O   0  0  0  0  0  0  0  0  0  0  0  0
   13.5677   25.2333   16.6605 C   0  0  0  0  0  0  0  0  0  0  0  0
   16.1761   26.2449   16.9653 N   0  0  0  0  0  0  0  0  0  0  0  0
   17.4221   26.8026   17.1528 C   0  0  0  0  0  0  0  0  0  0  0  0
   17.7743   27.1608   18.2728 O   0  0  0  0  0  0  0  0  0  0  0  0
   18.2806   26.9656   16.0896 N   0  0  0  0  0  0  0  0  0  0  0  0
   17.9043   26.5598   14.8241 C   0  0  0  0  0  0  0  0  0  0  0  0
   16.6487   25.9966   14.6251 C   0  0  1  0  0  0  0  0  0  0  0  0
   18.6842   26.6907   13.8785 O   0  0  0  0  0  0  0  0  0  0  0  0
   15.0177   25.0294   13.1677 C   0  0  2  0  0  0  0  0  0  0  0  0
   16.2654   25.5905   13.3626 N   0  0  0  0  0  0  0  0  0  0  0  0
   14.6315   24.6195   11.8911 C   0  0  0  0  0  0  0  0  0  0  0  0
   13.3769   24.0586   11.6831 C   0  0  1  0  0  0  0  0  0  0  0  0
   12.9958   23.6341   10.3002 C   0  0  0  0  0  0  0  0  0  0  0  0
   12.4967   23.8996   12.7641 C   0  0  1  0  0  0  0  0  0  0  0  0
   11.1341   23.2890   12.5833 C   0  0  0  0  0  0  0  0  0  0  0  0
   12.8844   24.3111   14.0365 C   0  0  0  0  0  0  0  0  0  0  0  0
   14.1427   24.8784   14.2460 C   0  0  1  0  0  0  0  0  0  0  0  0
   15.7813   25.8439   15.7049 C   0  0  1  0  0  0  0  0  0  0  0  0
   14.5297   25.2910   15.5121 N   0  0  0  0  0  0  0  0  0  0  0  0
  1  2  1  6  0  0  0
  1  3  1  0  0  0  0
  1  4  2  0  0  0  0
  1  6  1  0  0  0  0
  5  6  1  0  0  0  0
  7  5  1  1  0  0  0
  7  8  1  0  0  0  0
  7  9  1  0  0  0  0
  9 10  1  1  0  0  0
  9 11  1  0  0  0  0
 11 12  1  6  0  0  0
 11 13  1  0  0  0  0
 13 31  1  0  0  0  0
 14 15  1  0  0  0  0
 15 16  2  0  0  0  0
 15 17  1  0  0  0  0
 17 18  1  0  0  0  0
 18 20  2  0  0  0  0
 19 18  1  1  0  0  0
 19 22  1  0  0  0  0
 19 30  1  0  0  0  0
 21 23  1  6  0  0  0
 21 29  1  0  0  0  0
 21 22  1  0  0  0  0
 23 24  1  0  0  0  0
 24 25  1  1  0  0  0
 24 26  1  0  0  0  0
 26 27  1  1  0  0  0
 26 28  1  0  0  0  0
 29 28  1  1  0  0  0
 29 31  1  0  0  0  0
 30 14  1  1  0  0  0
 30 31  1  0  0  0  0
M  CHG  1   3  -1
M  END
>  <CHROM.1>
174.79080870,46.21861490,-48.14632844,-57.66438376,28.55533989,-96.00677767
-93.99588318,13.69965537,26.94561291,16.18332921,2.10735213,-0.04169183,0.91943910

>  <Name>
ligand

>  <RI>
0

>  <Rbt.Current_Directory>
/home/itssahil/PROJECTS/Mol_Feturizer/New_Systems/rnas/3F2T

>  <Rbt.Executable>
rbdock ($Id: //depot/dev/client3/rdock/2013.1/src/exe/rbdock.cxx#4 $)

>  <Rbt.Library>
libRbt.so (2013.1, Build901 2013/11/27)

>  <Rbt.Parameter_File>
/export/apps/rDock/src/rDock_2013.1_src/data/scripts/dock_solv.prm

>  <Rbt.Receptor>
prm/blind_docking_40.prm

>  <SCORE>
-0.942049

>  <SCORE.INTER>
-6.88087

>  <SCORE.INTER.CONST>
1

>  <SCORE.INTER.POLAR>
0

>  <SCORE.INTER.ROT>
7

>  <SCORE.INTER.SOLV>
19.9912

>  <SCORE.INTER.VDW>
-19.5176

>  <SCORE.INTER.norm>
-0.221964

>  <SCORE.INTRA>
2.73677

>  <SCORE.INTRA.DIHEDRAL>
3.76869

>  <SCORE.INTRA.DIHEDRAL.0>
4.64198

>  <SCORE.INTRA.POLAR>
0

>  <SCORE.INTRA.POLAR.0>
0

>  <SCORE.INTRA.REPUL>
0

>  <SCORE.INTRA.REPUL.0>
0

>  <SCORE.INTRA.SOLV>
0.193997

>  <SCORE.INTRA.SOLV.lig_0>
-49.3611

>  <SCORE.INTRA.VDW>
0.755425

>  <SCORE.INTRA.VDW.0>
-1.91858

>  <SCORE.INTRA.norm>
0.0882829

>  <SCORE.RESTR>
3.20206

>  <SCORE.RESTR.CAVITY>
3.20206

>  <SCORE.RESTR.norm>
0.103292

>  <SCORE.SYSTEM>
0

>  <SCORE.SYSTEM.CONST>
0

>  <SCORE.SYSTEM.DIHEDRAL>
0

>  <SCORE.SYSTEM.SOLV>
0

>  <SCORE.SYSTEM.norm>
0

>  <SCORE.heavy>
31

>  <SCORE.norm>
-0.0303887

>  <RMSD>
19.097

$$$$
ligand
 OpenBabel11021811473D
libRbt.so/2013.1/901 2013/11/27
 31 33  0  0  0  0  0  0  0  0999 V2000
   10.9111   28.0691   20.8191 P   0  0  1  0  0  0  0  0  0  0  0  0
    9.4693   28.4916   20.9454 O   0  0  0  0  0  0  0  0  0  0  0  0
   11.7432   28.9088   21.7517 O   0  5  0  0  0  0  0  0  0  0  0  0
   10.9623   26.6079   21.1718 O   0  0  0  0  0  0  0  0  0  0  0  0
   12.8844   28.2345   19.1018 C   0  0  0  0  0  0  0  0  0  0  0  0
   11.4914   28.2564   19.3337 O   0  0  0  0  0  0  0  0  0  0  0  0
   13.1500   28.4627   17.6160 C   0  0  1  0  0  0  0  0  0  0  0  0
   14.4990   28.8398   17.4245 O   0  0  0  0  0  0  0  0  0  0  0  0
   12.8778   27.1866   16.8373 C   0  0  1  0  0  0  0  0  0  0  0  0
   12.7912   27.5080   15.4748 O   0  0  0  0  0  0  0  0  0  0  0  0
   13.9649   26.1422   17.0279 C   0  0  1  0  0  0  0  0  0  0  0  0
   13.7858   25.5451   18.2838 O   0  0  0  0  0  0  0  0  0  0  0  0
   13.8859   25.0737   15.9501 C   0  0  0  0  0  0  0  0  0  0  0  0
   16.3361   26.2247   16.7194 N   0  0  0  0  0  0  0  0  0  0  0  0
   17.4948   26.8473   17.1301 C   0  0  0  0  0  0  0  0  0  0  0  0
   17.6308   27.1837   18.3028 O   0  0  0  0  0  0  0  0  0  0  0  0
   18.5070   27.0997   16.2326 N   0  0  0  0  0  0  0  0  0  0  0  0
   18.3748   26.7198   14.9112 C   0  0  0  0  0  0  0  0  0  0  0  0
   17.2089   26.0917   14.4874 C   0  0  1  0  0  0  0  0  0  0  0  0
   19.2920   26.9313   14.1153 O   0  0  0  0  0  0  0  0  0  0  0  0
   15.9105   25.0852   12.7494 C   0  0  2  0  0  0  0  0  0  0  0  0
   17.0693   25.7110   13.1678 N   0  0  0  0  0  0  0  0  0  0  0  0
   15.7707   24.7010   11.4153 C   0  0  0  0  0  0  0  0  0  0  0  0
   14.6072   24.0756   10.9828 C   0  0  1  0  0  0  0  0  0  0  0  0
   14.4911   23.6811    9.5444 C   0  0  0  0  0  0  0  0  0  0  0  0
   13.5704   23.8251   11.8944 C   0  0  1  0  0  0  0  0  0  0  0  0
   12.2993   23.1427   11.4691 C   0  0  0  0  0  0  0  0  0  0  0  0
   13.7123   24.2111   13.2246 C   0  0  0  0  0  0  0  0  0  0  0  0
   14.8787   24.8431   13.6593 C   0  0  1  0  0  0  0  0  0  0  0  0
   16.1846   25.8483   15.4001 C   0  0  1  0  0  0  0  0  0  0  0  0
   15.0210   25.2305   14.9833 N   0  0  0  0  0  0  0  0  0  0  0  0
  1  2  1  1  0  0  0
  1  3  1  0  0  0  0
  1  4  2  0  0  0  0
  1  6  1  0  0  0  0
  5  6  1  0  0  0  0
  7  5  1  1  0  0  0
  7  8  1  0  0  0  0
  7  9  1  0  0  0  0
  9 10  1  6  0  0  0
  9 11  1  0  0  0  0
 11 12  1  1  0  0  0
 11 13  1  0  0  0  0
 13 31  1  0  0  0  0
 14 15  1  0  0  0  0
 15 16  2  0  0  0  0
 15 17  1  0  0  0  0
 17 18  1  0  0  0  0
 18 20  2  0  0  0  0
 19 18  1  1  0  0  0
 19 22  1  0  0  0  0
 19 30  1  0  0  0  0
 21 23  1  6  0  0  0
 21 29  1  0  0  0  0
 21 22  1  0  0  0  0
 23 24  1  0  0  0  0
 24 25  1  1  0  0  0
 24 26  1  0  0  0  0
 26 27  1  1  0  0  0
 26 28  1  0  0  0  0
 29 28  1  1  0  0  0
 29 31  1  0  0  0  0
 30 14  1  1  0  0  0
 30 31  1  0  0  0  0
M  CHG  1   3  -1
M  END
>  <CHROM.1>
-178.88165069,164.13133707,162.58349386,164.94772632,76.86214035,107.65224527
-150.51292650,14.31071705,26.43041507,16.23754718,2.03891075,0.15876803,1.10217861

>  <Name>
ligand

>  <RI>
0

>  <Rbt.Current_Directory>
/home/itssahil/PROJECTS/Mol_Feturizer/New_Systems/rnas/3F2T

>  <Rbt.Executable>
rbdock ($Id: //depot/dev/client3/rdock/2013.1/src/exe/rbdock.cxx#4 $)

>  <Rbt.Library>
libRbt.so (2013.1, Build901 2013/11/27)

>  <Rbt.Parameter_File>
/export/apps/rDock/src/rDock_2013.1_src/data/scripts/dock_solv.prm

>  <Rbt.Receptor>
prm/blind_docking_40.prm

>  <SCORE>
8.044

>  <SCORE.INTER>
-2.15575

>  <SCORE.INTER.CONST>
1

>  <SCORE.INTER.POLAR>
0

>  <SCORE.INTER.ROT>
7

>  <SCORE.INTER.SOLV>
15.8122

>  <SCORE.INTER.VDW>
-14.9746

>  <SCORE.INTER.norm>
-0.0695403

>  <SCORE.INTRA>
7.4445

>  <SCORE.INTRA.DIHEDRAL>
4.67885

>  <SCORE.INTRA.DIHEDRAL.0>
4.64198

>  <SCORE.INTRA.POLAR>
0

>  <SCORE.INTRA.POLAR.0>
0

>  <SCORE.INTRA.REPUL>
0

>  <SCORE.INTRA.REPUL.0>
0

>  <SCORE.INTRA.SOLV>
0.480436

>  <SCORE.INTRA.SOLV.lig_0>
-49.3611

>  <SCORE.INTRA.VDW>
4.86485

>  <SCORE.INTRA.VDW.0>
-1.91858

>  <SCORE.INTRA.norm>
0.240145

>  <SCORE.RESTR>
2.75525

>  <SCORE.RESTR.CAVITY>
2.75525

>  <SCORE.RESTR.norm>
0.0888792

>  <SCORE.SYSTEM>
0

>  <SCORE.SYSTEM.CONST>
0

>  <SCORE.SYSTEM.DIHEDRAL>
0

>  <SCORE.SYSTEM.SOLV>
0

>  <SCORE.SYSTEM.norm>
0

>  <SCORE.heavy>
31

>  <SCORE.norm>
0.259484

>  <RMSD>
19.142

$$$$
ligand
 OpenBabel11021811473D
libRbt.so/2013.1/901 2013/11/27
 31 33  0  0  0  0  0  0  0  0999 V2000
   18.6829   27.4764   13.0826 P   0  0  1  0  0  0  0  0  0  0  0  0
   17.2834   27.2515   12.5688 O   0  0  0  0  0  0  0  0  0  0  0  0
   19.4732   26.2079   12.9004 O   0  5  0  0  0  0  0  0  0  0  0  0
   19.2525   28.6197   12.2886 O   0  0  0  0  0  0  0  0  0  0  0  0
   18.4188   26.9022   15.6264 C   0  0  0  0  0  0  0  0  0  0  0  0
   18.7238   27.8658   14.6399 O   0  0  0  0  0  0  0  0  0  0  0  0
   16.9341   26.5561   15.5486 C   0  0  1  0  0  0  0  0  0  0  0  0
   16.7084   25.6589   14.4796 O   0  0  0  0  0  0  0  0  0  0  0  0
   16.4837   25.9042   16.8451 C   0  0  1  0  0  0  0  0  0  0  0  0
   16.9305   26.6916   17.9164 O   0  0  0  0  0  0  0  0  0  0  0  0
   14.9735   25.7632   16.9350 C   0  0  1  0  0  0  0  0  0  0  0  0
   14.6736   24.9260   18.0189 O   0  0  0  0  0  0  0  0  0  0  0  0
   14.3140   27.1155   17.1498 C   0  0  0  0  0  0  0  0  0  0  0  0
   12.1277   28.4839   18.2755 N   0  0  0  0  0  0  0  0  0  0  0  0
   11.0739   29.1188   18.8962 C   0  0  0  0  0  0  0  0  0  0  0  0
   11.2552   29.7322   19.9439 O   0  0  0  0  0  0  0  0  0  0  0  0
    9.8112   29.0700   18.3510 N   0  0  0  0  0  0  0  0  0  0  0  0
    9.5909   28.3921   17.1679 C   0  0  0  0  0  0  0  0  0  0  0  0
   10.6480   27.7478   16.5349 C   0  0  1  0  0  0  0  0  0  0  0  0
    8.4617   28.3673   16.6739 O   0  0  0  0  0  0  0  0  0  0  0  0
   11.4870   26.4289   14.7249 C   0  0  2  0  0  0  0  0  0  0  0  0
   10.4345   27.0669   15.3531 N   0  0  0  0  0  0  0  0  0  0  0  0
   11.2699   25.7410   13.5306 C   0  0  0  0  0  0  0  0  0  0  0  0
   12.3204   25.0915   12.8931 C   0  0  1  0  0  0  0  0  0  0  0  0
   12.0496   24.3608   11.6161 C   0  0  0  0  0  0  0  0  0  0  0  0
   13.6069   25.1327   13.4517 C   0  0  1  0  0  0  0  0  0  0  0  0
   14.7724   24.4510   12.7891 C   0  0  0  0  0  0  0  0  0  0  0  0
   13.8201   25.8187   14.6445 C   0  0  0  0  0  0  0  0  0  0  0  0
   12.7648   26.4678   15.2879 C   0  0  1  0  0  0  0  0  0  0  0  0
   11.9216   27.7937   17.0981 C   0  0  1  0  0  0  0  0  0  0  0  0
   12.9747   27.1496   16.4771 N   0  0  0  0  0  0  0  0  0  0  0  0
  1  2  1  6  0  0  0
  1  3  1  0  0  0  0
  1  4  2  0  0  0  0
  1  6  1  0  0  0  0
  5  6  1  0  0  0  0
  7  5  1  1  0  0  0
  7  8  1  0  0  0  0
  7  9  1  0  0  0  0
  9 10  1  1  0  0  0
  9 11  1  0  0  0  0
 11 12  1  1  0  0  0
 11 13  1  0  0  0  0
 13 31  1  0  0  0  0
 14 15  1  0  0  0  0
 15 16  2  0  0  0  0
 15 17  1  0  0  0  0
 17 18  1  0  0  0  0
 18 20  2  0  0  0  0
 19 18  1  6  0  0  0
 19 22  1  0  0  0  0
 19 30  1  0  0  0  0
 21 23  1  1  0  0  0
 21 29  1  0  0  0  0
 21 22  1  0  0  0  0
 23 24  1  0  0  0  0
 24 25  1  6  0  0  0
 24 26  1  0  0  0  0
 26 27  1  6  0  0  0
 26 28  1  0  0  0  0
 29 28  1  6  0  0  0
 29 31  1  0  0  0  0
 30 14  1  6  0  0  0
 30 31  1  0  0  0  0
M  CHG  1   3  -1
M  END
>  <CHROM.1>
-68.69051573,70.73906264,78.84973982,49.04618853,168.41463167,147.10583121
-34.21808620,14.30723194,26.91873860,15.42814712,-0.46356732,0.07248417,1.11757750

>  <Name>
ligand

>  <RI>
0

>  <Rbt.Current_Directory>
/home/itssahil/PROJECTS/Mol_Feturizer/New_Systems/rnas/3F2T

>  <Rbt.Executable>
rbdock ($Id: //depot/dev/client3/rdock/2013.1/src/exe/rbdock.cxx#4 $)

>  <Rbt.Library>
libRbt.so (2013.1, Build901 2013/11/27)

>  <Rbt.Parameter_File>
/export/apps/rDock/src/rDock_2013.1_src/data/scripts/dock_solv.prm

>  <Rbt.Receptor>
prm/blind_docking_40.prm

>  <SCORE>
4.54373

>  <SCORE.INTER>
-3.84662

>  <SCORE.INTER.CONST>
1

>  <SCORE.INTER.POLAR>
0

>  <SCORE.INTER.ROT>
7

>  <SCORE.INTER.SOLV>
14.0558

>  <SCORE.INTER.VDW>
-15.5164

>  <SCORE.INTER.norm>
-0.124084

>  <SCORE.INTRA>
6.40153

>  <SCORE.INTRA.DIHEDRAL>
2.35195

>  <SCORE.INTRA.DIHEDRAL.0>
4.64198

>  <SCORE.INTRA.POLAR>
0

>  <SCORE.INTRA.POLAR.0>
0

>  <SCORE.INTRA.REPUL>
0

>  <SCORE.INTRA.REPUL.0>
0

>  <SCORE.INTRA.SOLV>
1.57888

>  <SCORE.INTRA.SOLV.lig_0>
-49.3611

>  <SCORE.INTRA.VDW>
4.43611

>  <SCORE.INTRA.VDW.0>
-1.91858

>  <SCORE.INTRA.norm>
0.206501

>  <SCORE.RESTR>
1.98882

>  <SCORE.RESTR.CAVITY>
1.98882

>  <SCORE.RESTR.norm>
0.0641554

>  <SCORE.SYSTEM>
0

>  <SCORE.SYSTEM.CONST>
0

>  <SCORE.SYSTEM.DIHEDRAL>
0

>  <SCORE.SYSTEM.SOLV>
0

>  <SCORE.SYSTEM.norm>
0

>  <SCORE.heavy>
31

>  <SCORE.norm>
0.146572

>  <RMSD>
19.156

$$$$
ligand
 OpenBabel11021811473D
libRbt.so/2013.1/901 2013/11/27
 31 33  0  0  0  0  0  0  0  0999 V2000
   12.2493   27.9832   19.3466 P   0  0  1  0  0  0  0  0  0  0  0  0
   10.8647   27.4581   19.6300 O   0  0  0  0  0  0  0  0  0  0  0  0
   12.1282   29.2740   18.5810 O   0  5  0  0  0  0  0  0  0  0  0  0
   12.9168   28.1744   20.6807 O   0  0  0  0  0  0  0  0  0  0  0  0
   12.9145   25.5776   18.5459 C   0  0  0  0  0  0  0  0  0  0  0  0
   13.1369   26.9704   18.4721 O   0  0  0  0  0  0  0  0  0  0  0  0
   13.4875   24.9105   17.2982 C   0  0  1  0  0  0  0  0  0  0  0  0
   13.2996   25.7522   16.1779 O   0  0  0  0  0  0  0  0  0  0  0  0
   14.9742   24.6554   17.4814 C   0  0  1  0  0  0  0  0  0  0  0  0
   15.1340   23.4738   18.2200 O   0  0  0  0  0  0  0  0  0  0  0  0
   15.7102   24.5123   16.1598 C   0  0  1  0  0  0  0  0  0  0  0  0
   14.9835   23.6329   15.3446 O   0  0  0  0  0  0  0  0  0  0  0  0
   15.8351   25.8555   15.4599 C   0  0  0  0  0  0  0  0  0  0  0  0
   13.6812   25.0599   13.8327 N   0  0  0  0  0  0  0  0  0  0  0  0
   12.6101   24.6137   13.0895 C   0  0  0  0  0  0  0  0  0  0  0  0
   11.5103   24.4739   13.6165 O   0  0  0  0  0  0  0  0  0  0  0  0
   12.7622   24.3188   11.7538 N   0  0  0  0  0  0  0  0  0  0  0  0
   13.9904   24.4791   11.1424 C   0  0  0  0  0  0  0  0  0  0  0  0
   15.0771   24.9281   11.8845 C   0  0  1  0  0  0  0  0  0  0  0  0
   14.1169   24.2316    9.9414 O   0  0  0  0  0  0  0  0  0  0  0  0
   17.3859   25.5368   12.0194 C   0  0  2  0  0  0  0  0  0  0  0  0
   16.3079   25.0887   11.2802 N   0  0  0  0  0  0  0  0  0  0  0  0
   18.6294   25.6986   11.4074 C   0  0  0  0  0  0  0  0  0  0  0  0
   19.7216   26.1438   12.1429 C   0  0  1  0  0  0  0  0  0  0  0  0
   21.0401   26.3020   11.4541 C   0  0  0  0  0  0  0  0  0  0  0  0
   19.5707   26.4366   13.5067 C   0  0  1  0  0  0  0  0  0  0  0  0
   20.7248   26.9294   14.3359 C   0  0  0  0  0  0  0  0  0  0  0  0
   18.3290   26.2726   14.1150 C   0  0  0  0  0  0  0  0  0  0  0  0
   17.2322   25.8215   13.3783 C   0  0  1  0  0  0  0  0  0  0  0  0
   14.9174   25.2152   13.2386 C   0  0  1  0  0  0  0  0  0  0  0  0
   15.9953   25.6553   13.9828 N   0  0  0  0  0  0  0  0  0  0  0  0
  1  2  1  1  0  0  0
  1  3  1  0  0  0  0
  1  4  2  0  0  0  0
  1  6  1  0  0  0  0
  5  6  1  0  0  0  0
  7  5  1  1  0  0  0
  7  8  1  0  0  0  0
  7  9  1  0  0  0  0
  9 10  1  1  0  0  0
  9 11  1  0  0  0  0
 11 12  1  6  0  0  0
 11 13  1  0  0  0  0
 13 31  1  0  0  0  0
 14 15  1  0  0  0  0
 15 16  2  0  0  0  0
 15 17  1  0  0  0  0
 17 18  1  0  0  0  0
 18 20  2  0  0  0  0
 19 18  1  6  0  0  0
 19 22  1  0  0  0  0
 19 30  1  0  0  0  0
 21 23  1  1  0  0  0
 21 29  1  0  0  0  0
 21 22  1  0  0  0  0
 23 24  1  0  0  0  0
 24 25  1  6  0  0  0
 24 26  1  0  0  0  0
 26 27  1  6  0  0  0
 26 28  1  0  0  0  0
 29 28  1  6  0  0  0
 29 31  1  0  0  0  0
 30 14  1  6  0  0  0
 30 31  1  0  0  0  0
M  CHG  1   3  -1
M  END
>  <CHROM.1>
159.29202317,-28.81002445,-36.04452736,81.75854075,-47.45316418,-155.55306409
-104.67163216,14.96658265,25.77554664,15.08507204,-2.22632932,-0.20042473
-1.94877889

>  <Name>
ligand

>  <RI>
0

>  <Rbt.Current_Directory>
/home/itssahil/PROJECTS/Mol_Feturizer/New_Systems/rnas/3F2T

>  <Rbt.Executable>
rbdock ($Id: //depot/dev/client3/rdock/2013.1/src/exe/rbdock.cxx#4 $)

>  <Rbt.Library>
libRbt.so (2013.1, Build901 2013/11/27)

>  <Rbt.Parameter_File>
/export/apps/rDock/src/rDock_2013.1_src/data/scripts/dock_solv.prm

>  <Rbt.Receptor>
prm/blind_docking_40.prm

>  <SCORE>
8.51966

>  <SCORE.INTER>
-0.0734146

>  <SCORE.INTER.CONST>
1

>  <SCORE.INTER.POLAR>
0

>  <SCORE.INTER.ROT>
7

>  <SCORE.INTER.SOLV>
14.692

>  <SCORE.INTER.VDW>
-13.213

>  <SCORE.INTER.norm>
-0.00236821

>  <SCORE.INTRA>
6.22698

>  <SCORE.INTRA.DIHEDRAL>
5.4513

>  <SCORE.INTRA.DIHEDRAL.0>
4.64198

>  <SCORE.INTRA.POLAR>
0

>  <SCORE.INTRA.POLAR.0>
0

>  <SCORE.INTRA.REPUL>
0

>  <SCORE.INTRA.REPUL.0>
0

>  <SCORE.INTRA.SOLV>
0.515808

>  <SCORE.INTRA.SOLV.lig_0>
-49.3611

>  <SCORE.INTRA.VDW>
3.24343

>  <SCORE.INTRA.VDW.0>
-1.91858

>  <SCORE.INTRA.norm>
0.20087

>  <SCORE.RESTR>
2.3661

>  <SCORE.RESTR.CAVITY>
2.3661

>  <SCORE.RESTR.norm>
0.0763258

>  <SCORE.SYSTEM>
0

>  <SCORE.SYSTEM.CONST>
0

>  <SCORE.SYSTEM.DIHEDRAL>
0

>  <SCORE.SYSTEM.SOLV>
0

>  <SCORE.SYSTEM.norm>
0

>  <SCORE.heavy>
31

>  <SCORE.norm>
0.274828

>  <RMSD>
19.186

$$$$
ligand
 OpenBabel11021811473D
libRbt.so/2013.1/901 2013/11/27
 31 33  0  0  0  0  0  0  0  0999 V2000
   11.1572   28.3163   20.8193 P   0  0  1  0  0  0  0  0  0  0  0  0
   12.4286   28.9146   21.3658 O   0  0  0  0  0  0  0  0  0  0  0  0
   10.5722   27.3960   21.8575 O   0  5  0  0  0  0  0  0  0  0  0  0
   10.2435   29.4678   20.5014 O   0  0  0  0  0  0  0  0  0  0  0  0
   12.6747   26.9683   19.1608 C   0  0  0  0  0  0  0  0  0  0  0  0
   11.3911   27.4647   19.4783 O   0  0  0  0  0  0  0  0  0  0  0  0
   12.5565   25.9656   18.0159 C   0  0  1  0  0  0  0  0  0  0  0  0
   11.9975   26.5991   16.8823 O   0  0  0  0  0  0  0  0  0  0  0  0
   13.9300   25.4258   17.6539 C   0  0  1  0  0  0  0  0  0  0  0  0
   13.7714   24.1513   17.0903 O   0  0  0  0  0  0  0  0  0  0  0  0
   14.6647   26.3134   16.6634 C   0  0  1  0  0  0  0  0  0  0  0  0
   15.1071   27.4577   17.3423 O   0  0  0  0  0  0  0  0  0  0  0  0
   15.8620   25.5894   16.0702 C   0  0  0  0  0  0  0  0  0  0  0  0
   13.4469   25.1824   14.6838 N   0  0  0  0  0  0  0  0  0  0  0  0
   12.2515   24.9194   14.0510 C   0  0  0  0  0  0  0  0  0  0  0  0
   11.2294   24.7523   14.7101 O   0  0  0  0  0  0  0  0  0  0  0  0
   12.1915   24.8392   12.6784 N   0  0  0  0  0  0  0  0  0  0  0  0
   13.3299   25.0335   11.9207 C   0  0  0  0  0  0  0  0  0  0  0  0
   14.5409   25.2986   12.5505 C   0  0  1  0  0  0  0  0  0  0  0  0
   13.2672   24.9793   10.6907 O   0  0  0  0  0  0  0  0  0  0  0  0
   16.8848   25.7573   12.4274 C   0  0  2  0  0  0  0  0  0  0  0  0
   15.6829   25.4921   11.7993 N   0  0  0  0  0  0  0  0  0  0  0  0
   18.0383   25.9524   11.6671 C   0  0  0  0  0  0  0  0  0  0  0  0
   19.2534   26.2146   12.2889 C   0  0  1  0  0  0  0  0  0  0  0  0
   20.4700   26.4150   11.4417 C   0  0  0  0  0  0  0  0  0  0  0  0
   19.3184   26.2882   13.6886 C   0  0  1  0  0  0  0  0  0  0  0  0
   20.6114   26.5787   14.3999 C   0  0  0  0  0  0  0  0  0  0  0  0
   18.1659   26.0914   14.4447 C   0  0  0  0  0  0  0  0  0  0  0  0
   16.9457   25.8238   13.8214 C   0  0  1  0  0  0  0  0  0  0  0  0
   14.5953   25.3687   13.9410 C   0  0  1  0  0  0  0  0  0  0  0  0
   15.7972   25.6252   14.5728 N   0  0  0  0  0  0  0  0  0  0  0  0
  1  2  1  1  0  0  0
  1  3  1  0  0  0  0
  1  4  2  0  0  0  0
  1  6  1  0  0  0  0
  5  6  1  0  0  0  0
  7  5  1  1  0  0  0
  7  8  1  0  0  0  0
  7  9  1  0  0  0  0
  9 10  1  6  0  0  0
  9 11  1  0  0  0  0
 11 12  1  1  0  0  0
 11 13  1  0  0  0  0
 13 31  1  0  0  0  0
 14 15  1  0  0  0  0
 15 16  2  0  0  0  0
 15 17  1  0  0  0  0
 17 18  1  0  0  0  0
 18 20  2  0  0  0  0
 19 18  1  6  0  0  0
 19 22  1  0  0  0  0
 19 30  1  0  0  0  0
 21 23  1  1  0  0  0
 21 29  1  0  0  0  0
 21 22  1  0  0  0  0
 23 24  1  0  0  0  0
 24 25  1  6  0  0  0
 24 26  1  0  0  0  0
 26 27  1  6  0  0  0
 26 28  1  0  0  0  0
 29 28  1  6  0  0  0
 29 31  1  0  0  0  0
 30 14  1  6  0  0  0
 30 31  1  0  0  0  0
M  CHG  1   3  -1
M  END
>  <CHROM.1>
168.13377281,20.57603473,59.75721524,153.65444286,74.05310886,126.45829582
140.14853043,14.32355006,26.28207967,15.81846809,-2.23187978,-0.17017259
-1.96016421

>  <Name>
ligand

>  <RI>
0

>  <Rbt.Current_Directory>
/home/itssahil/PROJECTS/Mol_Feturizer/New_Systems/rnas/3F2T

>  <Rbt.Executable>
rbdock ($Id: //depot/dev/client3/rdock/2013.1/src/exe/rbdock.cxx#4 $)

>  <Rbt.Library>
libRbt.so (2013.1, Build901 2013/11/27)

>  <Rbt.Parameter_File>
/export/apps/rDock/src/rDock_2013.1_src/data/scripts/dock_solv.prm

>  <Rbt.Receptor>
prm/blind_docking_40.prm

>  <SCORE>
2.97119

>  <SCORE.INTER>
-5.03105

>  <SCORE.INTER.CONST>
1

>  <SCORE.INTER.POLAR>
0

>  <SCORE.INTER.ROT>
7

>  <SCORE.INTER.SOLV>
9.46387

>  <SCORE.INTER.VDW>
-14.7753

>  <SCORE.INTER.norm>
-0.162292

>  <SCORE.INTRA>
5.33076

>  <SCORE.INTRA.DIHEDRAL>
6.9431

>  <SCORE.INTRA.DIHEDRAL.0>
4.64198

>  <SCORE.INTRA.POLAR>
0

>  <SCORE.INTRA.POLAR.0>
0

>  <SCORE.INTRA.REPUL>
0

>  <SCORE.INTRA.REPUL.0>
0

>  <SCORE.INTRA.SOLV>
0.330124

>  <SCORE.INTRA.SOLV.lig_0>
-49.3611

>  <SCORE.INTRA.VDW>
1.69414

>  <SCORE.INTRA.VDW.0>
-1.91858

>  <SCORE.INTRA.norm>
0.17196

>  <SCORE.RESTR>
2.67148

>  <SCORE.RESTR.CAVITY>
2.67148

>  <SCORE.RESTR.norm>
0.0861769

>  <SCORE.SYSTEM>
0

>  <SCORE.SYSTEM.CONST>
0

>  <SCORE.SYSTEM.DIHEDRAL>
0

>  <SCORE.SYSTEM.SOLV>
0

>  <SCORE.SYSTEM.norm>
0

>  <SCORE.heavy>
31

>  <SCORE.norm>
0.0958449

>  <RMSD>
19.204

$$$$
ligand
 OpenBabel11021811473D
libRbt.so/2013.1/901 2013/11/27
 31 33  0  0  0  0  0  0  0  0999 V2000
   11.5085   27.5165   20.3331 P   0  0  1  0  0  0  0  0  0  0  0  0
   11.3324   26.1670   20.9821 O   0  0  0  0  0  0  0  0  0  0  0  0
   10.1527   28.0491   19.9524 O   0  5  0  0  0  0  0  0  0  0  0  0
   12.1994   28.3910   21.3430 O   0  0  0  0  0  0  0  0  0  0  0  0
   12.0137   26.6673   17.9053 C   0  0  0  0  0  0  0  0  0  0  0  0
   12.4091   27.4606   19.0049 O   0  0  0  0  0  0  0  0  0  0  0  0
   13.1058   26.7058   16.8395 C   0  0  1  0  0  0  0  0  0  0  0  0
   13.3088   28.0380   16.4119 O   0  0  0  0  0  0  0  0  0  0  0  0
   14.4068   26.1653   17.4087 C   0  0  1  0  0  0  0  0  0  0  0  0
   14.3669   24.7643   17.3542 O   0  0  0  0  0  0  0  0  0  0  0  0
   15.6265   26.6524   16.6445 C   0  0  1  0  0  0  0  0  0  0  0  0
   16.5537   27.1535   17.5693 O   0  0  0  0  0  0  0  0  0  0  0  0
   16.2648   25.5176   15.8607 C   0  0  0  0  0  0  0  0  0  0  0  0
   18.0894   26.6484   14.0409 N   0  0  0  0  0  0  0  0  0  0  0  0
   18.9934   27.2620   13.2012 C   0  0  0  0  0  0  0  0  0  0  0  0
   20.0917   27.6085   13.6261 O   0  0  0  0  0  0  0  0  0  0  0  0
   18.6746   27.4940   11.8826 N   0  0  0  0  0  0  0  0  0  0  0  0
   17.4469   27.1025   11.3853 C   0  0  0  0  0  0  0  0  0  0  0  0
   16.5280   26.4834   12.2253 C   0  0  1  0  0  0  0  0  0  0  0  0
   17.1735   27.2956   10.1989 O   0  0  0  0  0  0  0  0  0  0  0  0
   14.3876   25.4743   12.5717 C   0  0  2  0  0  0  0  0  0  0  0  0
   15.2984   26.0911   11.7354 N   0  0  0  0  0  0  0  0  0  0  0  0
   13.1451   25.0785   12.0752 C   0  0  0  0  0  0  0  0  0  0  0  0
   12.2196   24.4620   12.9090 C   0  0  1  0  0  0  0  0  0  0  0  0
   10.8962   24.0544   12.3428 C   0  0  0  0  0  0  0  0  0  0  0  0
   12.5393   24.2323   14.2557 C   0  0  1  0  0  0  0  0  0  0  0  0
   11.5699   23.5601   15.1888 C   0  0  0  0  0  0  0  0  0  0  0  0
   13.7793   24.6299   14.7486 C   0  0  0  0  0  0  0  0  0  0  0  0
   14.7081   25.2530   13.9131 C   0  0  1  0  0  0  0  0  0  0  0  0
   16.8545   26.2607   13.5615 C   0  0  1  0  0  0  0  0  0  0  0  0
   15.9428   25.6519   14.4027 N   0  0  0  0  0  0  0  0  0  0  0  0
  1  2  1  1  0  0  0
  1  3  1  0  0  0  0
  1  4  2  0  0  0  0
  1  6  1  0  0  0  0
  5  6  1  0  0  0  0
  7  5  1  1  0  0  0
  7  8  1  0  0  0  0
  7  9  1  0  0  0  0
  9 10  1  6  0  0  0
  9 11  1  0  0  0  0
 11 12  1  1  0  0  0
 11 13  1  0  0  0  0
 13 31  1  0  0  0  0
 14 15  1  0  0  0  0
 15 16  2  0  0  0  0
 15 17  1  0  0  0  0
 17 18  1  0  0  0  0
 18 20  2  0  0  0  0
 19 18  1  6  0  0  0
 19 22  1  0  0  0  0
 19 30  1  0  0  0  0
 21 23  1  1  0  0  0
 21 29  1  0  0  0  0
 21 22  1  0  0  0  0
 23 24  1  0  0  0  0
 24 25  1  6  0  0  0
 24 26  1  0  0  0  0
 26 27  1  6  0  0  0
 26 28  1  0  0  0  0
 29 28  1  6  0  0  0
 29 31  1  0  0  0  0
 30 14  1  6  0  0  0
 30 31  1  0  0  0  0
M  CHG  1   3  -1
M  END
>  <CHROM.1>
-175.11379232,59.90939169,-59.94983858,81.83070975,130.18047390,104.69304883
-79.13077576,14.39990026,26.35588858,15.57876379,-2.25331895,-0.36767950
-1.93455603

>  <Name>
ligand

>  <RI>
0

>  <Rbt.Current_Directory>
/home/itssahil/PROJECTS/Mol_Feturizer/New_Systems/rnas/3F2T

>  <Rbt.Executable>
rbdock ($Id: //depot/dev/client3/rdock/2013.1/src/exe/rbdock.cxx#4 $)

>  <Rbt.Library>
libRbt.so (2013.1, Build901 2013/11/27)

>  <Rbt.Parameter_File>
/export/apps/rDock/src/rDock_2013.1_src/data/scripts/dock_solv.prm

>  <Rbt.Receptor>
prm/blind_docking_40.prm

>  <SCORE>
10.2228

>  <SCORE.INTER>
1.96204

>  <SCORE.INTER.CONST>
1

>  <SCORE.INTER.POLAR>
0

>  <SCORE.INTER.ROT>
7

>  <SCORE.INTER.SOLV>
12.4862

>  <SCORE.INTER.VDW>
-11.1207

>  <SCORE.INTER.norm>
0.0632918

>  <SCORE.INTRA>
5.32633

>  <SCORE.INTRA.DIHEDRAL>
7.64054

>  <SCORE.INTRA.DIHEDRAL.0>
4.64198

>  <SCORE.INTRA.POLAR>
0

>  <SCORE.INTRA.POLAR.0>
0

>  <SCORE.INTRA.REPUL>
0

>  <SCORE.INTRA.REPUL.0>
0

>  <SCORE.INTRA.SOLV>
-0.314852

>  <SCORE.INTRA.SOLV.lig_0>
-49.3611

>  <SCORE.INTRA.VDW>
1.66348

>  <SCORE.INTRA.VDW.0>
-1.91858

>  <SCORE.INTRA.norm>
0.171817

>  <SCORE.RESTR>
2.9344

>  <SCORE.RESTR.CAVITY>
2.9344

>  <SCORE.RESTR.norm>
0.0946579

>  <SCORE.SYSTEM>
0

>  <SCORE.SYSTEM.CONST>
0

>  <SCORE.SYSTEM.DIHEDRAL>
0

>  <SCORE.SYSTEM.SOLV>
0

>  <SCORE.SYSTEM.norm>
0

>  <SCORE.heavy>
31

>  <SCORE.norm>
0.329767

>  <RMSD>
19.212

$$$$
ligand
 OpenBabel11021811473D
libRbt.so/2013.1/901 2013/11/27
 31 33  0  0  0  0  0  0  0  0999 V2000
   18.0721   26.6758   14.5652 P   0  0  1  0  0  0  0  0  0  0  0  0
   19.5138   26.9174   14.9346 O   0  0  0  0  0  0  0  0  0  0  0  0
   17.6288   27.7592   13.6183 O   0  5  0  0  0  0  0  0  0  0  0  0
   18.0139   25.3115   13.9349 O   0  0  0  0  0  0  0  0  0  0  0  0
   15.9245   25.8943   15.8488 C   0  0  0  0  0  0  0  0  0  0  0  0
   17.0883   26.6944   15.8341 O   0  0  0  0  0  0  0  0  0  0  0  0
   15.0056   26.3648   16.9732 C   0  0  1  0  0  0  0  0  0  0  0  0
   15.2198   27.7402   17.2209 O   0  0  0  0  0  0  0  0  0  0  0  0
   13.5531   26.1533   16.5804 C   0  0  1  0  0  0  0  0  0  0  0  0
   13.3897   24.8166   16.1881 O   0  0  0  0  0  0  0  0  0  0  0  0
   12.5903   26.4532   17.7169 C   0  0  1  0  0  0  0  0  0  0  0  0
   12.9888   25.7117   18.8382 O   0  0  0  0  0  0  0  0  0  0  0  0
   12.6048   27.9326   18.0644 C   0  0  0  0  0  0  0  0  0  0  0  0
   10.5030   28.2432   16.2189 N   0  0  0  0  0  0  0  0  0  0  0  0
    9.5239   28.4361   15.2687 C   0  0  0  0  0  0  0  0  0  0  0  0
    9.7419   28.1551   14.0938 O   0  0  0  0  0  0  0  0  0  0  0  0
    8.2964   28.9462   15.6253 N   0  0  0  0  0  0  0  0  0  0  0  0
    8.0306   29.2593   16.9441 C   0  0  0  0  0  0  0  0  0  0  0  0
    9.0127   29.0688   17.9097 C   0  0  1  0  0  0  0  0  0  0  0  0
    6.9233   29.6983   17.2613 O   0  0  0  0  0  0  0  0  0  0  0  0
    9.7315   29.1894   20.1876 C   0  0  2  0  0  0  0  0  0  0  0  0
    8.7545   29.3814   19.2294 N   0  0  0  0  0  0  0  0  0  0  0  0
    9.4692   29.5059   21.5210 C   0  0  0  0  0  0  0  0  0  0  0  0
   10.4465   29.3216   22.4919 C   0  0  1  0  0  0  0  0  0  0  0  0
   10.1308   29.6752   23.9108 C   0  0  0  0  0  0  0  0  0  0  0  0
   11.7015   28.8097   22.1291 C   0  0  1  0  0  0  0  0  0  0  0  0
   12.7831   28.5868   23.1503 C   0  0  0  0  0  0  0  0  0  0  0  0
   11.9608   28.4965   20.7974 C   0  0  0  0  0  0  0  0  0  0  0  0
   10.9814   28.6851   19.8206 C   0  0  1  0  0  0  0  0  0  0  0  0
   10.2563   28.5610   17.5393 C   0  0  1  0  0  0  0  0  0  0  0  0
   11.2385   28.3759   18.4934 N   0  0  0  0  0  0  0  0  0  0  0  0
  1  2  1  1  0  0  0
  1  3  1  0  0  0  0
  1  4  2  0  0  0  0
  1  6  1  0  0  0  0
  5  6  1  0  0  0  0
  7  5  1  6  0  0  0
  7  8  1  0  0  0  0
  7  9  1  0  0  0  0
  9 10  1  1  0  0  0
  9 11  1  0  0  0  0
 11 12  1  1  0  0  0
 11 13  1  0  0  0  0
 13 31  1  0  0  0  0
 14 15  1  0  0  0  0
 15 16  2  0  0  0  0
 15 17  1  0  0  0  0
 17 18  1  0  0  0  0
 18 20  2  0  0  0  0
 19 18  1  1  0  0  0
 19 22  1  0  0  0  0
 19 30  1  0  0  0  0
 21 23  1  6  0  0  0
 21 29  1  0  0  0  0
 21 22  1  0  0  0  0
 23 24  1  0  0  0  0
 24 25  1  1  0  0  0
 24 26  1  0  0  0  0
 26 27  1  1  0  0  0
 26 28  1  0  0  0  0
 29 28  1  1  0  0  0
 29 31  1  0  0  0  0
 30 14  1  1  0  0  0
 30 31  1  0  0  0  0
M  CHG  1   3  -1
M  END
>  <CHROM.1>
-165.37109134,-148.71742773,27.93750123,52.88604949,-53.15363155,145.99901863
108.67958778,12.68401753,27.78426989,17.58796464,-0.57184399,-0.25246974
1.44326880

>  <Name>
ligand

>  <RI>
0

>  <Rbt.Current_Directory>
/home/itssahil/PROJECTS/Mol_Feturizer/New_Systems/rnas/3F2T

>  <Rbt.Executable>
rbdock ($Id: //depot/dev/client3/rdock/2013.1/src/exe/rbdock.cxx#4 $)

>  <Rbt.Library>
libRbt.so (2013.1, Build901 2013/11/27)

>  <Rbt.Parameter_File>
/export/apps/rDock/src/rDock_2013.1_src/data/scripts/dock_solv.prm

>  <Rbt.Receptor>
prm/blind_docking_40.prm

>  <SCORE>
1.86197

>  <SCORE.INTER>
-4.76943

>  <SCORE.INTER.CONST>
1

>  <SCORE.INTER.POLAR>
0

>  <SCORE.INTER.ROT>
7

>  <SCORE.INTER.SOLV>
16.7783

>  <SCORE.INTER.VDW>
-17.0391

>  <SCORE.INTER.norm>
-0.153853

>  <SCORE.INTRA>
4.44029

>  <SCORE.INTRA.DIHEDRAL>
5.3505

>  <SCORE.INTRA.DIHEDRAL.0>
4.64198

>  <SCORE.INTRA.POLAR>
0

>  <SCORE.INTRA.POLAR.0>
0

>  <SCORE.INTRA.REPUL>
0

>  <SCORE.INTRA.REPUL.0>
0

>  <SCORE.INTRA.SOLV>
0.198455

>  <SCORE.INTRA.SOLV.lig_0>
-49.3611

>  <SCORE.INTRA.VDW>
1.66581

>  <SCORE.INTRA.VDW.0>
-1.91858

>  <SCORE.INTRA.norm>
0.143235

>  <SCORE.RESTR>
2.19112

>  <SCORE.RESTR.CAVITY>
2.19112

>  <SCORE.RESTR.norm>
0.0706812

>  <SCORE.SYSTEM>
0

>  <SCORE.SYSTEM.CONST>
0

>  <SCORE.SYSTEM.DIHEDRAL>
0

>  <SCORE.SYSTEM.SOLV>
0

>  <SCORE.SYSTEM.norm>
0

>  <SCORE.heavy>
31

>  <SCORE.norm>
0.0600635

>  <RMSD>
19.219

$$$$
ligand
 OpenBabel11021811473D
libRbt.so/2013.1/901 2013/11/27
 31 33  0  0  0  0  0  0  0  0999 V2000
   11.4559   27.4728   21.2416 P   0  0  1  0  0  0  0  0  0  0  0  0
   12.2138   26.2013   20.9547 O   0  0  0  0  0  0  0  0  0  0  0  0
   10.1695   27.4543   20.4594 O   0  5  0  0  0  0  0  0  0  0  0  0
   11.2177   27.5042   22.7262 O   0  0  0  0  0  0  0  0  0  0  0  0
   13.0050   28.8323   19.6221 C   0  0  0  0  0  0  0  0  0  0  0  0
   12.2685   28.7941   20.8267 O   0  0  0  0  0  0  0  0  0  0  0  0
   12.0373   28.8312   18.4415 C   0  0  1  0  0  0  0  0  0  0  0  0
   12.4223   29.8206   17.5078 O   0  0  0  0  0  0  0  0  0  0  0  0
   12.0522   27.4740   17.7585 C   0  0  1  0  0  0  0  0  0  0  0  0
   10.8798   27.3465   16.9991 O   0  0  0  0  0  0  0  0  0  0  0  0
   13.2522   27.2926   16.8442 C   0  0  1  0  0  0  0  0  0  0  0  0
   14.3474   27.9523   17.4198 O   0  0  0  0  0  0  0  0  0  0  0  0
   13.5877   25.8201   16.6748 C   0  0  0  0  0  0  0  0  0  0  0  0
   16.3102   26.4721   16.9627 N   0  0  0  0  0  0  0  0  0  0  0  0
   17.6209   26.8608   17.1356 C   0  0  0  0  0  0  0  0  0  0  0  0
   18.0050   27.2621   18.2302 O   0  0  0  0  0  0  0  0  0  0  0  0
   18.5092   26.8055   16.0859 N   0  0  0  0  0  0  0  0  0  0  0  0
   18.0965   26.3478   14.8497 C   0  0  0  0  0  0  0  0  0  0  0  0
   16.7757   25.9542   14.6656 C   0  0  1  0  0  0  0  0  0  0  0  0
   18.9007   26.2824   13.9178 O   0  0  0  0  0  0  0  0  0  0  0  0
   15.0433   25.1051   13.2523 C   0  0  2  0  0  0  0  0  0  0  0  0
   16.3560   25.4975   13.4323 N   0  0  0  0  0  0  0  0  0  0  0  0
   14.6204   24.6439   12.0052 C   0  0  0  0  0  0  0  0  0  0  0  0
   13.3011   24.2516   11.8118 C   0  0  1  0  0  0  0  0  0  0  0  0
   12.8826   23.7658   10.4602 C   0  0  0  0  0  0  0  0  0  0  0  0
   12.3917   24.3154   12.8784 C   0  0  1  0  0  0  0  0  0  0  0  0
   10.9578   23.8920   12.7135 C   0  0  0  0  0  0  0  0  0  0  0  0
   12.8163   24.7777   14.1212 C   0  0  0  0  0  0  0  0  0  0  0  0
   14.1402   25.1759   14.3155 C   0  0  1  0  0  0  0  0  0  0  0  0
   15.8799   26.0223   15.7307 C   0  0  1  0  0  0  0  0  0  0  0  0
   14.5645   25.6388   15.5520 N   0  0  0  0  0  0  0  0  0  0  0  0
  1  2  1  6  0  0  0
  1  3  1  0  0  0  0
  1  4  2  0  0  0  0
  1  6  1  0  0  0  0
  5  6  1  0  0  0  0
  7  5  1  1  0  0  0
  7  8  1  0  0  0  0
  7  9  1  0  0  0  0
  9 10  1  6  0  0  0
  9 11  1  0  0  0  0
 11 12  1  1  0  0  0
 11 13  1  0  0  0  0
 13 31  1  0  0  0  0
 14 15  1  0  0  0  0
 15 16  2  0  0  0  0
 15 17  1  0  0  0  0
 17 18  1  0  0  0  0
 18 20  2  0  0  0  0
 19 18  1  1  0  0  0
 19 22  1  0  0  0  0
 19 30  1  0  0  0  0
 21 23  1  6  0  0  0
 21 29  1  0  0  0  0
 21 22  1  0  0  0  0
 23 24  1  0  0  0  0
 24 25  1  1  0  0  0
 24 26  1  0  0  0  0
 26 27  1  1  0  0  0
 26 28  1  0  0  0  0
 29 28  1  1  0  0  0
 29 31  1  0  0  0  0
 30 14  1  1  0  0  0
 30 31  1  0  0  0  0
M  CHG  1   3  -1
M  END
>  <CHROM.1>
69.26628719,40.98324743,133.60642816,160.52179670,35.00288218,167.64605512
-102.86830314,13.89704810,26.56098360,16.66405263,1.99339845,0.11739082,1.15538805

>  <Name>
ligand

>  <RI>
0

>  <Rbt.Current_Directory>
/home/itssahil/PROJECTS/Mol_Feturizer/New_Systems/rnas/3F2T

>  <Rbt.Executable>
rbdock ($Id: //depot/dev/client3/rdock/2013.1/src/exe/rbdock.cxx#4 $)

>  <Rbt.Library>
libRbt.so (2013.1, Build901 2013/11/27)

>  <Rbt.Parameter_File>
/export/apps/rDock/src/rDock_2013.1_src/data/scripts/dock_solv.prm

>  <Rbt.Receptor>
prm/blind_docking_40.prm

>  <SCORE>
-0.660006

>  <SCORE.INTER>
-7.73098

>  <SCORE.INTER.CONST>
1

>  <SCORE.INTER.POLAR>
0

>  <SCORE.INTER.ROT>
7

>  <SCORE.INTER.SOLV>
12.6445

>  <SCORE.INTER.VDW>
-17.6355

>  <SCORE.INTER.norm>
-0.249386

>  <SCORE.INTRA>
5.24788

>  <SCORE.INTRA.DIHEDRAL>
5.92985

>  <SCORE.INTRA.DIHEDRAL.0>
4.64198

>  <SCORE.INTRA.POLAR>
0

>  <SCORE.INTRA.POLAR.0>
0

>  <SCORE.INTRA.REPUL>
0

>  <SCORE.INTRA.REPUL.0>
0

>  <SCORE.INTRA.SOLV>
2.39341

>  <SCORE.INTRA.SOLV.lig_0>
-49.3611

>  <SCORE.INTRA.VDW>
1.08625

>  <SCORE.INTRA.VDW.0>
-1.91858

>  <SCORE.INTRA.norm>
0.169287

>  <SCORE.RESTR>
1.82308

>  <SCORE.RESTR.CAVITY>
1.82308

>  <SCORE.RESTR.norm>
0.0588092

>  <SCORE.SYSTEM>
0

>  <SCORE.SYSTEM.CONST>
0

>  <SCORE.SYSTEM.DIHEDRAL>
0

>  <SCORE.SYSTEM.SOLV>
0

>  <SCORE.SYSTEM.norm>
0

>  <SCORE.heavy>
31

>  <SCORE.norm>
-0.0212905

>  <RMSD>
19.259

$$$$
ligand
 OpenBabel11021811473D
libRbt.so/2013.1/901 2013/11/27
 31 33  0  0  0  0  0  0  0  0999 V2000
   19.9125   25.9232   13.9201 P   0  0  1  0  0  0  0  0  0  0  0  0
   19.4450   24.5142   13.6563 O   0  0  0  0  0  0  0  0  0  0  0  0
   21.4178   25.9346   13.9481 O   0  5  0  0  0  0  0  0  0  0  0  0
   19.3584   26.7736   12.8103 O   0  0  0  0  0  0  0  0  0  0  0  0
   18.3146   27.4244   15.3567 C   0  0  0  0  0  0  0  0  0  0  0  0
   19.3870   26.5059   15.3210 O   0  0  0  0  0  0  0  0  0  0  0  0
   16.9974   26.6642   15.2248 C   0  0  1  0  0  0  0  0  0  0  0  0
   17.1608   25.5768   14.3361 O   0  0  0  0  0  0  0  0  0  0  0  0
   16.5654   26.1336   16.5814 C   0  0  1  0  0  0  0  0  0  0  0  0
   16.1675   27.2187   17.3761 O   0  0  0  0  0  0  0  0  0  0  0  0
   15.4137   25.1473   16.4839 C   0  0  1  0  0  0  0  0  0  0  0  0
   15.8736   23.8912   16.9041 O   0  0  0  0  0  0  0  0  0  0  0  0
   14.2547   25.5772   17.3679 C   0  0  0  0  0  0  0  0  0  0  0  0
   12.4394   27.4599   18.4072 N   0  0  0  0  0  0  0  0  0  0  0  0
   11.5414   28.3344   18.9795 C   0  0  0  0  0  0  0  0  0  0  0  0
   11.6996   28.7096   20.1375 O   0  0  0  0  0  0  0  0  0  0  0  0
   10.4602   28.7929   18.2620 N   0  0  0  0  0  0  0  0  0  0  0  0
   10.2716   28.3885   16.9548 C   0  0  0  0  0  0  0  0  0  0  0  0
   11.1722   27.5056   16.3692 C   0  0  1  0  0  0  0  0  0  0  0  0
    9.3120   28.8168   16.3104 O   0  0  0  0  0  0  0  0  0  0  0  0
   11.8861   26.2197   14.4833 C   0  0  2  0  0  0  0  0  0  0  0  0
   10.9887   27.0957   15.0638 N   0  0  0  0  0  0  0  0  0  0  0  0
   11.6994   25.8062   13.1639 C   0  0  0  0  0  0  0  0  0  0  0  0
   12.5931   24.9213   12.5721 C   0  0  1  0  0  0  0  0  0  0  0  0
   12.3592   24.4970   11.1567 C   0  0  0  0  0  0  0  0  0  0  0  0
   13.6913   24.4458   13.3046 C   0  0  1  0  0  0  0  0  0  0  0  0
   14.6863   23.4946   12.6986 C   0  0  0  0  0  0  0  0  0  0  0  0
   13.8739   24.8590   14.6217 C   0  0  0  0  0  0  0  0  0  0  0  0
   12.9746   25.7445   15.2185 C   0  0  1  0  0  0  0  0  0  0  0  0
   12.2590   27.0382   17.1053 C   0  0  1  0  0  0  0  0  0  0  0  0
   13.1535   26.1555   16.5309 N   0  0  0  0  0  0  0  0  0  0  0  0
  1  2  1  6  0  0  0
  1  3  1  0  0  0  0
  1  4  2  0  0  0  0
  1  6  1  0  0  0  0
  5  6  1  0  0  0  0
  7  5  1  1  0  0  0
  7  8  1  0  0  0  0
  7  9  1  0  0  0  0
  9 10  1  1  0  0  0
  9 11  1  0  0  0  0
 11 12  1  1  0  0  0
 11 13  1  0  0  0  0
 13 31  1  0  0  0  0
 14 15  1  0  0  0  0
 15 16  2  0  0  0  0
 15 17  1  0  0  0  0
 17 18  1  0  0  0  0
 18 20  2  0  0  0  0
 19 18  1  6  0  0  0
 19 22  1  0  0  0  0
 19 30  1  0  0  0  0
 21 23  1  1  0  0  0
 21 29  1  0  0  0  0
 21 22  1  0  0  0  0
 23 24  1  0  0  0  0
 24 25  1  6  0  0  0
 24 26  1  0  0  0  0
 26 27  1  6  0  0  0
 26 28  1  0  0  0  0
 29 28  1  6  0  0  0
 29 31  1  0  0  0  0
 30 14  1  6  0  0  0
 30 31  1  0  0  0  0
M  CHG  1   3  -1
M  END
>  <CHROM.1>
80.06749652,-103.02877162,-36.46329132,70.49046659,114.71353470,104.47460802
28.35849260,14.80912171,26.29007632,15.43960345,-0.40216356,-0.03275623,1.07287630

>  <Name>
ligand

>  <RI>
0

>  <Rbt.Current_Directory>
/home/itssahil/PROJECTS/Mol_Feturizer/New_Systems/rnas/3F2T

>  <Rbt.Executable>
rbdock ($Id: //depot/dev/client3/rdock/2013.1/src/exe/rbdock.cxx#4 $)

>  <Rbt.Library>
libRbt.so (2013.1, Build901 2013/11/27)

>  <Rbt.Parameter_File>
/export/apps/rDock/src/rDock_2013.1_src/data/scripts/dock_solv.prm

>  <Rbt.Receptor>
prm/blind_docking_40.prm

>  <SCORE>
11.6185

>  <SCORE.INTER>
-6.11605

>  <SCORE.INTER.CONST>
1

>  <SCORE.INTER.POLAR>
0

>  <SCORE.INTER.ROT>
7

>  <SCORE.INTER.SOLV>
16.6758

>  <SCORE.INTER.VDW>
-17.9026

>  <SCORE.INTER.norm>
-0.197292

>  <SCORE.INTRA>
16.6925

>  <SCORE.INTRA.DIHEDRAL>
12.1415

>  <SCORE.INTRA.DIHEDRAL.0>
4.64198

>  <SCORE.INTRA.POLAR>
0

>  <SCORE.INTRA.POLAR.0>
0

>  <SCORE.INTRA.REPUL>
0

>  <SCORE.INTRA.REPUL.0>
0

>  <SCORE.INTRA.SOLV>
2.33883

>  <SCORE.INTRA.SOLV.lig_0>
-49.3611

>  <SCORE.INTRA.VDW>
9.45234

>  <SCORE.INTRA.VDW.0>
-1.91858

>  <SCORE.INTRA.norm>
0.538468

>  <SCORE.RESTR>
1.04201

>  <SCORE.RESTR.CAVITY>
1.04201

>  <SCORE.RESTR.norm>
0.0336131

>  <SCORE.SYSTEM>
0

>  <SCORE.SYSTEM.CONST>
0

>  <SCORE.SYSTEM.DIHEDRAL>
0

>  <SCORE.SYSTEM.SOLV>
0

>  <SCORE.SYSTEM.norm>
0

>  <SCORE.heavy>
31

>  <SCORE.norm>
0.374789

>  <RMSD>
19.282

$$$$
ligand
 OpenBabel11021811473D
libRbt.so/2013.1/901 2013/11/27
 31 33  0  0  0  0  0  0  0  0999 V2000
   11.7460   28.5726   20.9046 P   0  0  1  0  0  0  0  0  0  0  0  0
   12.5229   29.1941   22.0375 O   0  0  0  0  0  0  0  0  0  0  0  0
   11.2820   27.2052   21.3312 O   0  5  0  0  0  0  0  0  0  0  0  0
   10.5963   29.4979   20.6149 O   0  0  0  0  0  0  0  0  0  0  0  0
   12.7574   27.1372   18.9586 C   0  0  0  0  0  0  0  0  0  0  0  0
   12.6162   28.4046   19.5657 O   0  0  0  0  0  0  0  0  0  0  0  0
   13.5534   27.2859   17.6646 C   0  0  1  0  0  0  0  0  0  0  0  0
   14.6443   28.1606   17.8730 O   0  0  0  0  0  0  0  0  0  0  0  0
   14.0824   25.9323   17.2212 C   0  0  1  0  0  0  0  0  0  0  0  0
   12.9906   25.0809   16.9970 O   0  0  0  0  0  0  0  0  0  0  0  0
   14.9100   26.0157   15.9497 C   0  0  1  0  0  0  0  0  0  0  0  0
   16.1734   26.5264   16.2799 O   0  0  0  0  0  0  0  0  0  0  0  0
   15.0746   24.6433   15.3182 C   0  0  0  0  0  0  0  0  0  0  0  0
   13.1193   24.0524   13.3822 N   0  0  0  0  0  0  0  0  0  0  0  0
   12.1474   23.6952   12.4731 C   0  0  0  0  0  0  0  0  0  0  0  0
   11.0328   23.3598   12.8631 O   0  0  0  0  0  0  0  0  0  0  0  0
   12.4159   23.7083   11.1234 N   0  0  0  0  0  0  0  0  0  0  0  0
   13.6617   24.0917   10.6665 C   0  0  0  0  0  0  0  0  0  0  0  0
   14.6490   24.4532   11.5764 C   0  0  1  0  0  0  0  0  0  0  0  0
   13.8913   24.1199    9.4557 O   0  0  0  0  0  0  0  0  0  0  0  0
   16.8759   25.1962   12.0328 C   0  0  2  0  0  0  0  0  0  0  0  0
   15.8969   24.8357   11.1267 N   0  0  0  0  0  0  0  0  0  0  0  0
   18.1368   25.5825   11.5770 C   0  0  0  0  0  0  0  0  0  0  0  0
   19.1303   25.9421   12.4800 C   0  0  1  0  0  0  0  0  0  0  0  0
   20.4713   26.3474   11.9551 C   0  0  0  0  0  0  0  0  0  0  0  0
   18.8613   25.9211   13.8570 C   0  0  1  0  0  0  0  0  0  0  0  0
   19.9056   26.3116   14.8666 C   0  0  0  0  0  0  0  0  0  0  0  0
   17.6026   25.5336   14.3088 C   0  0  0  0  0  0  0  0  0  0  0  0
   16.6052   25.1682   13.4029 C   0  0  1  0  0  0  0  0  0  0  0  0
   14.3724   24.4280   12.9418 C   0  0  1  0  0  0  0  0  0  0  0  0
   15.3516   24.7797   13.8511 N   0  0  0  0  0  0  0  0  0  0  0  0
  1  2  1  1  0  0  0
  1  3  1  0  0  0  0
  1  4  2  0  0  0  0
  1  6  1  0  0  0  0
  5  6  1  0  0  0  0
  7  5  1  1  0  0  0
  7  8  1  0  0  0  0
  7  9  1  0  0  0  0
  9 10  1  6  0  0  0
  9 11  1  0  0  0  0
 11 12  1  1  0  0  0
 11 13  1  0  0  0  0
 13 31  1  0  0  0  0
 14 15  1  0  0  0  0
 15 16  2  0  0  0  0
 15 17  1  0  0  0  0
 17 18  1  0  0  0  0
 18 20  2  0  0  0  0
 19 18  1  6  0  0  0
 19 22  1  0  0  0  0
 19 30  1  0  0  0  0
 21 23  1  1  0  0  0
 21 29  1  0  0  0  0
 21 22  1  0  0  0  0
 23 24  1  0  0  0  0
 24 25  1  6  0  0  0
 24 26  1  0  0  0  0
 26 27  1  6  0  0  0
 26 28  1  0  0  0  0
 29 28  1  6  0  0  0
 29 31  1  0  0  0  0
 30 14  1  6  0  0  0
 30 31  1  0  0  0  0
M  CHG  1   3  -1
M  END
>  <CHROM.1>
176.39431288,123.97525507,42.76217895,60.58761303,76.79435641,156.07599149
75.95975009,14.51917393,26.02367702,15.40057616,1.99878976,0.20485697,1.09648500

>  <Name>
ligand

>  <RI>
0

>  <Rbt.Current_Directory>
/home/itssahil/PROJECTS/Mol_Feturizer/New_Systems/rnas/3F2T

>  <Rbt.Executable>
rbdock ($Id: //depot/dev/client3/rdock/2013.1/src/exe/rbdock.cxx#4 $)

>  <Rbt.Library>
libRbt.so (2013.1, Build901 2013/11/27)

>  <Rbt.Parameter_File>
/export/apps/rDock/src/rDock_2013.1_src/data/scripts/dock_solv.prm

>  <Rbt.Receptor>
prm/blind_docking_40.prm

>  <SCORE>
6.47863

>  <SCORE.INTER>
-0.267634

>  <SCORE.INTER.CONST>
1

>  <SCORE.INTER.POLAR>
0

>  <SCORE.INTER.ROT>
7

>  <SCORE.INTER.SOLV>
14.0902

>  <SCORE.INTER.VDW>
-13.1418

>  <SCORE.INTER.norm>
-0.00863336

>  <SCORE.INTRA>
3.20079

>  <SCORE.INTRA.DIHEDRAL>
2.88454

>  <SCORE.INTRA.DIHEDRAL.0>
4.64198

>  <SCORE.INTRA.POLAR>
0

>  <SCORE.INTRA.POLAR.0>
0

>  <SCORE.INTRA.REPUL>
0

>  <SCORE.INTRA.REPUL.0>
0

>  <SCORE.INTRA.SOLV>
-0.0122612

>  <SCORE.INTRA.SOLV.lig_0>
-49.3611

>  <SCORE.INTRA.VDW>
1.76465

>  <SCORE.INTRA.VDW.0>
-1.91858

>  <SCORE.INTRA.norm>
0.103251

>  <SCORE.RESTR>
3.54547

>  <SCORE.RESTR.CAVITY>
3.54547

>  <SCORE.RESTR.norm>
0.11437

>  <SCORE.SYSTEM>
0

>  <SCORE.SYSTEM.CONST>
0

>  <SCORE.SYSTEM.DIHEDRAL>
0

>  <SCORE.SYSTEM.SOLV>
0

>  <SCORE.SYSTEM.norm>
0

>  <SCORE.heavy>
31

>  <SCORE.norm>
0.208988

>  <RMSD>
19.340

$$$$
ligand
 OpenBabel11021811473D
libRbt.so/2013.1/901 2013/11/27
 31 33  0  0  0  0  0  0  0  0999 V2000
   12.2651   28.4666   19.1871 P   0  0  1  0  0  0  0  0  0  0  0  0
   13.2324   29.1293   18.2393 O   0  0  0  0  0  0  0  0  0  0  0  0
   12.9356   28.3051   20.5255 O   0  5  0  0  0  0  0  0  0  0  0  0
   11.0572   29.3596   19.2608 O   0  0  0  0  0  0  0  0  0  0  0  0
   12.7435   25.9843   18.4945 C   0  0  0  0  0  0  0  0  0  0  0  0
   11.7963   27.0136   18.6898 O   0  0  0  0  0  0  0  0  0  0  0  0
   13.5251   26.2575   17.2121 C   0  0  1  0  0  0  0  0  0  0  0  0
   14.6103   27.1202   17.4890 O   0  0  0  0  0  0  0  0  0  0  0  0
   14.0615   24.9549   16.6427 C   0  0  1  0  0  0  0  0  0  0  0  0
   13.0119   24.2891   15.9928 O   0  0  0  0  0  0  0  0  0  0  0  0
   15.1938   25.1717   15.6529 C   0  0  1  0  0  0  0  0  0  0  0  0
   15.4399   23.9589   14.9937 O   0  0  0  0  0  0  0  0  0  0  0  0
   14.8238   26.2317   14.6287 C   0  0  0  0  0  0  0  0  0  0  0  0
   13.0684   25.0190   12.7937 N   0  0  0  0  0  0  0  0  0  0  0  0
   12.1849   24.3767   11.9536 C   0  0  0  0  0  0  0  0  0  0  0  0
   11.0112   24.2366   12.2848 O   0  0  0  0  0  0  0  0  0  0  0  0
   12.6082   23.8853   10.7398 N   0  0  0  0  0  0  0  0  0  0  0  0
   13.9231   24.0422   10.3470 C   0  0  0  0  0  0  0  0  0  0  0  0
   14.8220   24.6882   11.1884 C   0  0  1  0  0  0  0  0  0  0  0  0
   14.2929   23.6168    9.2507 O   0  0  0  0  0  0  0  0  0  0  0  0
   17.0291   25.4909   11.6401 C   0  0  2  0  0  0  0  0  0  0  0  0
   16.1380   24.8468   10.8030 N   0  0  0  0  0  0  0  0  0  0  0  0
   18.3590   25.6504   11.2493 C   0  0  0  0  0  0  0  0  0  0  0  0
   19.2647   26.2921   12.0859 C   0  0  1  0  0  0  0  0  0  0  0  0
   20.6833   26.4418   11.6354 C   0  0  0  0  0  0  0  0  0  0  0  0
   18.8372   26.7862   13.3276 C   0  0  1  0  0  0  0  0  0  0  0  0
   19.7831   27.4946   14.2581 C   0  0  0  0  0  0  0  0  0  0  0  0
   17.5098   26.6240   13.7154 C   0  0  0  0  0  0  0  0  0  0  0  0
   16.6002   25.9760   12.8778 C   0  0  1  0  0  0  0  0  0  0  0  0
   14.3880   25.1745   12.4200 C   0  0  1  0  0  0  0  0  0  0  0  0
   15.2782   25.8114   13.2633 N   0  0  0  0  0  0  0  0  0  0  0  0
  1  2  1  6  0  0  0
  1  3  1  0  0  0  0
  1  4  2  0  0  0  0
  1  6  1  0  0  0  0
  5  6  1  0  0  0  0
  7  5  1  1  0  0  0
  7  8  1  0  0  0  0
  7  9  1  0  0  0  0
  9 10  1  6  0  0  0
  9 11  1  0  0  0  0
 11 12  1  6  0  0  0
 11 13  1  0  0  0  0
 13 31  1  0  0  0  0
 14 15  1  0  0  0  0
 15 16  2  0  0  0  0
 15 17  1  0  0  0  0
 17 18  1  0  0  0  0
 18 20  2  0  0  0  0
 19 18  1  6  0  0  0
 19 22  1  0  0  0  0
 19 30  1  0  0  0  0
 21 23  1  1  0  0  0
 21 29  1  0  0  0  0
 21 22  1  0  0  0  0
 23 24  1  0  0  0  0
 24 25  1  6  0  0  0
 24 26  1  0  0  0  0
 26 27  1  6  0  0  0
 26 28  1  0  0  0  0
 29 28  1  6  0  0  0
 29 31  1  0  0  0  0
 30 14  1  6  0  0  0
 30 31  1  0  0  0  0
M  CHG  1   3  -1
M  END
>  <CHROM.1>
-74.47132862,60.19574497,85.60290171,77.88585780,-168.54721330,-138.43927139
-80.22438848,14.64815038,26.03340840,14.62907210,-2.05668655,-0.25716079
-2.04727788

>  <Name>
ligand

>  <RI>
0

>  <Rbt.Current_Directory>
/home/itssahil/PROJECTS/Mol_Feturizer/New_Systems/rnas/3F2T

>  <Rbt.Executable>
rbdock ($Id: //depot/dev/client3/rdock/2013.1/src/exe/rbdock.cxx#4 $)

>  <Rbt.Library>
libRbt.so (2013.1, Build901 2013/11/27)

>  <Rbt.Parameter_File>
/export/apps/rDock/src/rDock_2013.1_src/data/scripts/dock_solv.prm

>  <Rbt.Receptor>
prm/blind_docking_40.prm

>  <SCORE>
22.5546

>  <SCORE.INTER>
16.0891

>  <SCORE.INTER.CONST>
1

>  <SCORE.INTER.POLAR>
0

>  <SCORE.INTER.ROT>
7

>  <SCORE.INTER.SOLV>
14.289

>  <SCORE.INTER.VDW>
-2.30358

>  <SCORE.INTER.norm>
0.519005

>  <SCORE.INTRA>
4.30687

>  <SCORE.INTRA.DIHEDRAL>
5.17062

>  <SCORE.INTRA.DIHEDRAL.0>
4.64198

>  <SCORE.INTRA.POLAR>
0

>  <SCORE.INTRA.POLAR.0>
0

>  <SCORE.INTRA.REPUL>
0

>  <SCORE.INTRA.REPUL.0>
0

>  <SCORE.INTRA.SOLV>
1.24885

>  <SCORE.INTRA.SOLV.lig_0>
-49.3611

>  <SCORE.INTRA.VDW>
1.09714

>  <SCORE.INTRA.VDW.0>
-1.91858

>  <SCORE.INTRA.norm>
0.138931

>  <SCORE.RESTR>
2.15863

>  <SCORE.RESTR.CAVITY>
2.15863

>  <SCORE.RESTR.norm>
0.0696334

>  <SCORE.SYSTEM>
0

>  <SCORE.SYSTEM.CONST>
0

>  <SCORE.SYSTEM.DIHEDRAL>
0

>  <SCORE.SYSTEM.SOLV>
0

>  <SCORE.SYSTEM.norm>
0

>  <SCORE.heavy>
31

>  <SCORE.norm>
0.727569

>  <RMSD>
19.345

$$$$
ligand
 OpenBabel11021811473D
libRbt.so/2013.1/901 2013/11/27
 31 33  0  0  0  0  0  0  0  0999 V2000
   10.3748   30.0041   19.0098 P   0  0  1  0  0  0  0  0  0  0  0  0
    9.4001   28.9634   18.5198 O   0  0  0  0  0  0  0  0  0  0  0  0
    9.6140   31.2620   19.3351 O   0  5  0  0  0  0  0  0  0  0  0  0
   11.0525   29.4211   20.2193 O   0  0  0  0  0  0  0  0  0  0  0  0
   12.5104   29.4425   17.5976 C   0  0  0  0  0  0  0  0  0  0  0  0
   11.4979   30.3720   17.9228 O   0  0  0  0  0  0  0  0  0  0  0  0
   11.8664   28.1580   17.0821 C   0  0  1  0  0  0  0  0  0  0  0  0
   11.0116   28.4552   15.9960 O   0  0  0  0  0  0  0  0  0  0  0  0
   12.9400   27.1891   16.6160 C   0  0  1  0  0  0  0  0  0  0  0  0
   13.6737   26.7680   17.7348 O   0  0  0  0  0  0  0  0  0  0  0  0
   12.3633   25.9686   15.9186 C   0  0  1  0  0  0  0  0  0  0  0  0
   11.8930   26.3636   14.6581 O   0  0  0  0  0  0  0  0  0  0  0  0
   13.4223   24.8929   15.7429 C   0  0  0  0  0  0  0  0  0  0  0  0
   12.2977   24.2522   13.2440 N   0  0  0  0  0  0  0  0  0  0  0  0
   11.7255   23.8682   12.0507 C   0  0  0  0  0  0  0  0  0  0  0  0
   10.5748   23.4412   12.0287 O   0  0  0  0  0  0  0  0  0  0  0  0
   12.4364   23.9568   10.8756 N   0  0  0  0  0  0  0  0  0  0  0  0
   13.7290   24.4435   10.8806 C   0  0  0  0  0  0  0  0  0  0  0  0
   14.3150   24.8327   12.0799 C   0  0  1  0  0  0  0  0  0  0  0  0
   14.3549   24.5386    9.8228 O   0  0  0  0  0  0  0  0  0  0  0  0
   16.1867   25.7063   13.2853 C   0  0  2  0  0  0  0  0  0  0  0  0
   15.6072   25.3184   12.0924 N   0  0  0  0  0  0  0  0  0  0  0  0
   17.4929   26.1969   13.2965 C   0  0  0  0  0  0  0  0  0  0  0  0
   18.0872   26.5850   14.4916 C   0  0  1  0  0  0  0  0  0  0  0  0
   19.4905   27.1028   14.4657 C   0  0  0  0  0  0  0  0  0  0  0  0
   17.3672   26.4873   15.6919 C   0  0  1  0  0  0  0  0  0  0  0  0
   17.9702   26.9051   17.0049 C   0  0  0  0  0  0  0  0  0  0  0  0
   16.0645   25.9958   15.6777 C   0  0  0  0  0  0  0  0  0  0  0  0
   15.4680   25.6018   14.4786 C   0  0  1  0  0  0  0  0  0  0  0  0
   13.5921   24.7309   13.2668 C   0  0  1  0  0  0  0  0  0  0  0  0
   14.1715   25.1099   14.4627 N   0  0  0  0  0  0  0  0  0  0  0  0
  1  2  1  6  0  0  0
  1  3  1  0  0  0  0
  1  4  2  0  0  0  0
  1  6  1  0  0  0  0
  5  6  1  0  0  0  0
  7  5  1  6  0  0  0
  7  8  1  0  0  0  0
  7  9  1  0  0  0  0
  9 10  1  1  0  0  0
  9 11  1  0  0  0  0
 11 12  1  6  0  0  0
 11 13  1  0  0  0  0
 13 31  1  0  0  0  0
 14 15  1  0  0  0  0
 15 16  2  0  0  0  0
 15 17  1  0  0  0  0
 17 18  1  0  0  0  0
 18 20  2  0  0  0  0
 19 18  1  6  0  0  0
 19 22  1  0  0  0  0
 19 30  1  0  0  0  0
 21 23  1  1  0  0  0
 21 29  1  0  0  0  0
 21 22  1  0  0  0  0
 23 24  1  0  0  0  0
 24 25  1  6  0  0  0
 24 26  1  0  0  0  0
 26 27  1  6  0  0  0
 26 28  1  0  0  0  0
 29 28  1  6  0  0  0
 29 31  1  0  0  0  0
 30 14  1  6  0  0  0
 30 31  1  0  0  0  0
M  CHG  1   3  -1
M  END
>  <CHROM.1>
58.45194884,-70.61913874,55.30288203,67.18832167,72.63598459,-87.58170647
106.07663253,13.37293373,26.75330646,15.27812603,2.06476806,-0.01235520,0.92705490

>  <Name>
ligand

>  <RI>
0

>  <Rbt.Current_Directory>
/home/itssahil/PROJECTS/Mol_Feturizer/New_Systems/rnas/3F2T

>  <Rbt.Executable>
rbdock ($Id: //depot/dev/client3/rdock/2013.1/src/exe/rbdock.cxx#4 $)

>  <Rbt.Library>
libRbt.so (2013.1, Build901 2013/11/27)

>  <Rbt.Parameter_File>
/export/apps/rDock/src/rDock_2013.1_src/data/scripts/dock_solv.prm

>  <Rbt.Receptor>
prm/blind_docking_40.prm

>  <SCORE>
5.64426

>  <SCORE.INTER>
2.34679

>  <SCORE.INTER.CONST>
1

>  <SCORE.INTER.POLAR>
0

>  <SCORE.INTER.ROT>
7

>  <SCORE.INTER.SOLV>
17.1629

>  <SCORE.INTER.VDW>
-12.4231

>  <SCORE.INTER.norm>
0.0757029

>  <SCORE.INTRA>
1.47985

>  <SCORE.INTRA.DIHEDRAL>
0.0161292

>  <SCORE.INTRA.DIHEDRAL.0>
4.64198

>  <SCORE.INTRA.POLAR>
0

>  <SCORE.INTRA.POLAR.0>
0

>  <SCORE.INTRA.REPUL>
0

>  <SCORE.INTRA.REPUL.0>
0

>  <SCORE.INTRA.SOLV>
1.4738

>  <SCORE.INTRA.SOLV.lig_0>
-49.3611

>  <SCORE.INTRA.VDW>
0.734885

>  <SCORE.INTRA.VDW.0>
-1.91858

>  <SCORE.INTRA.norm>
0.0477371

>  <SCORE.RESTR>
1.81762

>  <SCORE.RESTR.CAVITY>
1.81762

>  <SCORE.RESTR.norm>
0.058633

>  <SCORE.SYSTEM>
0

>  <SCORE.SYSTEM.CONST>
0

>  <SCORE.SYSTEM.DIHEDRAL>
0

>  <SCORE.SYSTEM.SOLV>
0

>  <SCORE.SYSTEM.norm>
0

>  <SCORE.heavy>
31

>  <SCORE.norm>
0.182073

>  <RMSD>
19.349

$$$$
ligand
 OpenBabel11021811473D
libRbt.so/2013.1/901 2013/11/27
 31 33  0  0  0  0  0  0  0  0999 V2000
   11.5189   28.5867   20.8336 P   0  0  1  0  0  0  0  0  0  0  0  0
   12.5144   29.0793   21.8532 O   0  0  0  0  0  0  0  0  0  0  0  0
   11.1500   27.1656   21.1673 O   0  5  0  0  0  0  0  0  0  0  0  0
   10.3362   29.5129   20.9069 O   0  0  0  0  0  0  0  0  0  0  0  0
   12.8339   27.5158   18.8350 C   0  0  0  0  0  0  0  0  0  0  0  0
   12.0936   28.6100   19.3345 O   0  0  0  0  0  0  0  0  0  0  0  0
   13.2945   27.8277   17.4135 C   0  0  1  0  0  0  0  0  0  0  0  0
   14.5595   28.4580   17.4491 O   0  0  0  0  0  0  0  0  0  0  0  0
   13.4041   26.5434   16.6090 C   0  0  1  0  0  0  0  0  0  0  0  0
   12.6602   26.6937   15.4295 O   0  0  0  0  0  0  0  0  0  0  0  0
   14.8393   26.2021   16.2450 C   0  0  1  0  0  0  0  0  0  0  0  0
   15.6102   26.2375   17.4156 O   0  0  0  0  0  0  0  0  0  0  0  0
   14.9279   24.8156   15.6292 C   0  0  0  0  0  0  0  0  0  0  0  0
   12.8656   24.0120   13.8911 N   0  0  0  0  0  0  0  0  0  0  0  0
   11.8498   23.5511   13.0820 C   0  0  0  0  0  0  0  0  0  0  0  0
   10.8020   23.1478   13.5783 O   0  0  0  0  0  0  0  0  0  0  0  0
   11.9999   23.5360   11.7141 N   0  0  0  0  0  0  0  0  0  0  0  0
   13.1686   23.9946   11.1382 C   0  0  0  0  0  0  0  0  0  0  0  0
   14.1993   24.4608   11.9466 C   0  0  1  0  0  0  0  0  0  0  0  0
   13.2907   23.9965    9.9115 O   0  0  0  0  0  0  0  0  0  0  0  0
   16.3930   25.3834   12.1832 C   0  0  2  0  0  0  0  0  0  0  0  0
   15.3708   24.9189   11.3777 N   0  0  0  0  0  0  0  0  0  0  0  0
   17.5766   25.8460   11.6069 C   0  0  0  0  0  0  0  0  0  0  0  0
   18.6130   26.3106   12.4081 C   0  0  1  0  0  0  0  0  0  0  0  0
   19.8688   26.7956   11.7554 C   0  0  0  0  0  0  0  0  0  0  0  0
   18.4654   26.3188   13.8033 C   0  0  1  0  0  0  0  0  0  0  0  0
   19.5591   26.8217   14.7052 C   0  0  0  0  0  0  0  0  0  0  0  0
   17.2838   25.8550   14.3755 C   0  0  0  0  0  0  0  0  0  0  0  0
   16.2437   25.3842   13.5720 C   0  0  1  0  0  0  0  0  0  0  0  0
   14.0435   24.4639   13.3313 C   0  0  1  0  0  0  0  0  0  0  0  0
   15.0669   24.9197   14.1401 N   0  0  0  0  0  0  0  0  0  0  0  0
  1  2  1  1  0  0  0
  1  3  1  0  0  0  0
  1  4  2  0  0  0  0
  1  6  1  0  0  0  0
  5  6  1  0  0  0  0
  7  5  1  1  0  0  0
  7  8  1  0  0  0  0
  7  9  1  0  0  0  0
  9 10  1  6  0  0  0
  9 11  1  0  0  0  0
 11 12  1  1  0  0  0
 11 13  1  0  0  0  0
 13 31  1  0  0  0  0
 14 15  1  0  0  0  0
 15 16  2  0  0  0  0
 15 17  1  0  0  0  0
 17 18  1  0  0  0  0
 18 20  2  0  0  0  0
 19 18  1  6  0  0  0
 19 22  1  0  0  0  0
 19 30  1  0  0  0  0
 21 23  1  1  0  0  0
 21 29  1  0  0  0  0
 21 22  1  0  0  0  0
 23 24  1  0  0  0  0
 24 25  1  6  0  0  0
 24 26  1  0  0  0  0
 26 27  1  6  0  0  0
 26 28  1  0  0  0  0
 29 28  1  6  0  0  0
 29 31  1  0  0  0  0
 30 14  1  6  0  0  0
 30 31  1  0  0  0  0
M  CHG  1   3  -1
M  END
>  <CHROM.1>
-177.98243527,86.27431322,90.23510537,127.02891681,51.59748074,102.30792733
70.83077867,14.18371004,26.20322436,15.48223602,2.00650065,0.27294138,1.05471632

>  <Name>
ligand

>  <RI>
0

>  <Rbt.Current_Directory>
/home/itssahil/PROJECTS/Mol_Feturizer/New_Systems/rnas/3F2T

>  <Rbt.Executable>
rbdock ($Id: //depot/dev/client3/rdock/2013.1/src/exe/rbdock.cxx#4 $)

>  <Rbt.Library>
libRbt.so (2013.1, Build901 2013/11/27)

>  <Rbt.Parameter_File>
/export/apps/rDock/src/rDock_2013.1_src/data/scripts/dock_solv.prm

>  <Rbt.Receptor>
prm/blind_docking_40.prm

>  <SCORE>
6.5533

>  <SCORE.INTER>
-3.51648

>  <SCORE.INTER.CONST>
1

>  <SCORE.INTER.POLAR>
0

>  <SCORE.INTER.ROT>
7

>  <SCORE.INTER.SOLV>
13.2699

>  <SCORE.INTER.VDW>
-15.0343

>  <SCORE.INTER.norm>
-0.113435

>  <SCORE.INTRA>
6.28979

>  <SCORE.INTRA.DIHEDRAL>
9.93958

>  <SCORE.INTRA.DIHEDRAL.0>
4.64198

>  <SCORE.INTRA.POLAR>
0

>  <SCORE.INTRA.POLAR.0>
0

>  <SCORE.INTRA.REPUL>
0

>  <SCORE.INTRA.REPUL.0>
0

>  <SCORE.INTRA.SOLV>
-0.253256

>  <SCORE.INTRA.SOLV.lig_0>
-49.3611

>  <SCORE.INTRA.VDW>
1.44663

>  <SCORE.INTRA.VDW.0>
-1.91858

>  <SCORE.INTRA.norm>
0.202896

>  <SCORE.RESTR>
3.77999

>  <SCORE.RESTR.CAVITY>
3.77999

>  <SCORE.RESTR.norm>
0.121935

>  <SCORE.SYSTEM>
0

>  <SCORE.SYSTEM.CONST>
0

>  <SCORE.SYSTEM.DIHEDRAL>
0

>  <SCORE.SYSTEM.SOLV>
0

>  <SCORE.SYSTEM.norm>
0

>  <SCORE.heavy>
31

>  <SCORE.norm>
0.211397

>  <RMSD>
19.377

$$$$
ligand
 OpenBabel11021811473D
libRbt.so/2013.1/901 2013/11/27
 31 33  0  0  0  0  0  0  0  0999 V2000
    9.3161   30.6798   19.1654 P   0  0  1  0  0  0  0  0  0  0  0  0
    9.4760   32.1206   19.5796 O   0  0  0  0  0  0  0  0  0  0  0  0
    9.0530   29.8509   20.3945 O   0  5  0  0  0  0  0  0  0  0  0  0
    8.1678   30.6375   18.1951 O   0  0  0  0  0  0  0  0  0  0  0  0
   10.6222   28.7681   17.9364 C   0  0  0  0  0  0  0  0  0  0  0  0
   10.6203   30.0880   18.4392 O   0  0  0  0  0  0  0  0  0  0  0  0
   12.0092   28.4411   17.3891 C   0  0  1  0  0  0  0  0  0  0  0  0
   12.9625   28.5131   18.4306 O   0  0  0  0  0  0  0  0  0  0  0  0
   12.0199   27.0385   16.8048 C   0  0  1  0  0  0  0  0  0  0  0  0
   11.1452   27.0076   15.7088 O   0  0  0  0  0  0  0  0  0  0  0  0
   13.4020   26.6080   16.3429 C   0  0  1  0  0  0  0  0  0  0  0  0
   14.2302   26.5058   17.4697 O   0  0  0  0  0  0  0  0  0  0  0  0
   13.3445   25.2616   15.6404 C   0  0  0  0  0  0  0  0  0  0  0  0
   12.2100   24.5481   13.1658 N   0  0  0  0  0  0  0  0  0  0  0  0
   11.6256   24.1333   11.9889 C   0  0  0  0  0  0  0  0  0  0  0  0
   10.4391   23.8193   11.9677 O   0  0  0  0  0  0  0  0  0  0  0  0
   12.3640   24.0647   10.8295 N   0  0  0  0  0  0  0  0  0  0  0  0
   13.6979   24.4230   10.8331 C   0  0  0  0  0  0  0  0  0  0  0  0
   14.2965   24.8421   12.0161 C   0  0  1  0  0  0  0  0  0  0  0  0
   14.3501   24.3777    9.7880 O   0  0  0  0  0  0  0  0  0  0  0  0
   16.2219   25.6178   13.2037 C   0  0  2  0  0  0  0  0  0  0  0  0
   15.6298   25.1998   12.0272 N   0  0  0  0  0  0  0  0  0  0  0  0
   17.5696   25.9790   13.2136 C   0  0  0  0  0  0  0  0  0  0  0  0
   18.1764   26.3959   14.3926 C   0  0  1  0  0  0  0  0  0  0  0  0
   19.6241   26.7720   14.3661 C   0  0  0  0  0  0  0  0  0  0  0  0
   17.4276   26.4583   15.5775 C   0  0  1  0  0  0  0  0  0  0  0  0
   18.0438   26.9126   16.8722 C   0  0  0  0  0  0  0  0  0  0  0  0
   16.0833   26.0956   15.5648 C   0  0  0  0  0  0  0  0  0  0  0  0
   15.4738   25.6727   14.3821 C   0  0  1  0  0  0  0  0  0  0  0  0
   13.5447   24.8996   13.1878 C   0  0  1  0  0  0  0  0  0  0  0  0
   14.1357   25.3089   14.3679 N   0  0  0  0  0  0  0  0  0  0  0  0
  1  2  1  1  0  0  0
  1  3  1  0  0  0  0
  1  4  2  0  0  0  0
  1  6  1  0  0  0  0
  5  6  1  0  0  0  0
  7  5  1  1  0  0  0
  7  8  1  0  0  0  0
  7  9  1  0  0  0  0
  9 10  1  6  0  0  0
  9 11  1  0  0  0  0
 11 12  1  1  0  0  0
 11 13  1  0  0  0  0
 13 31  1  0  0  0  0
 14 15  1  0  0  0  0
 15 16  2  0  0  0  0
 15 17  1  0  0  0  0
 17 18  1  0  0  0  0
 18 20  2  0  0  0  0
 19 18  1  6  0  0  0
 19 22  1  0  0  0  0
 19 30  1  0  0  0  0
 21 23  1  1  0  0  0
 21 29  1  0  0  0  0
 21 22  1  0  0  0  0
 23 24  1  0  0  0  0
 24 25  1  6  0  0  0
 24 26  1  0  0  0  0
 26 27  1  6  0  0  0
 26 28  1  0  0  0  0
 29 28  1  6  0  0  0
 29 31  1  0  0  0  0
 30 14  1  6  0  0  0
 30 31  1  0  0  0  0
M  CHG  1   3  -1
M  END
>  <CHROM.1>
-176.14783166,-177.36952313,61.79592676,64.05233673,65.86919051,133.72340484
56.25605262,13.15597516,26.93802045,15.41715994,2.16870199,-0.07588627,0.94167522

>  <Name>
ligand

>  <RI>
0

>  <Rbt.Current_Directory>
/home/itssahil/PROJECTS/Mol_Feturizer/New_Systems/rnas/3F2T

>  <Rbt.Executable>
rbdock ($Id: //depot/dev/client3/rdock/2013.1/src/exe/rbdock.cxx#4 $)

>  <Rbt.Library>
libRbt.so (2013.1, Build901 2013/11/27)

>  <Rbt.Parameter_File>
/export/apps/rDock/src/rDock_2013.1_src/data/scripts/dock_solv.prm

>  <Rbt.Receptor>
prm/blind_docking_40.prm

>  <SCORE>
5.78281

>  <SCORE.INTER>
2.35132

>  <SCORE.INTER.CONST>
1

>  <SCORE.INTER.POLAR>
0

>  <SCORE.INTER.ROT>
7

>  <SCORE.INTER.SOLV>
11.7536

>  <SCORE.INTER.VDW>
-10.617

>  <SCORE.INTER.norm>
0.0758491

>  <SCORE.INTRA>
2.27214

>  <SCORE.INTRA.DIHEDRAL>
1.41851

>  <SCORE.INTRA.DIHEDRAL.0>
4.64198

>  <SCORE.INTRA.POLAR>
0

>  <SCORE.INTRA.POLAR.0>
0

>  <SCORE.INTRA.REPUL>
0

>  <SCORE.INTRA.REPUL.0>
0

>  <SCORE.INTRA.SOLV>
0.124633

>  <SCORE.INTRA.SOLV.lig_0>
-49.3611

>  <SCORE.INTRA.VDW>
1.50057

>  <SCORE.INTRA.VDW.0>
-1.91858

>  <SCORE.INTRA.norm>
0.0732948

>  <SCORE.RESTR>
1.15935

>  <SCORE.RESTR.CAVITY>
1.15935

>  <SCORE.RESTR.norm>
0.0373985

>  <SCORE.SYSTEM>
0

>  <SCORE.SYSTEM.CONST>
0

>  <SCORE.SYSTEM.DIHEDRAL>
0

>  <SCORE.SYSTEM.SOLV>
0

>  <SCORE.SYSTEM.norm>
0

>  <SCORE.heavy>
31

>  <SCORE.norm>
0.186542

>  <RMSD>
19.422

$$$$
ligand
 OpenBabel11021811473D
libRbt.so/2013.1/901 2013/11/27
 31 33  0  0  0  0  0  0  0  0999 V2000
    9.5466   27.8031   15.5623 P   0  0  1  0  0  0  0  0  0  0  0  0
    8.8315   29.1204   15.3996 O   0  0  0  0  0  0  0  0  0  0  0  0
    8.5761   26.7923   16.1131 O   0  5  0  0  0  0  0  0  0  0  0  0
   10.0541   27.4195   14.1994 O   0  0  0  0  0  0  0  0  0  0  0  0
   11.8806   26.9925   16.4376 C   0  0  0  0  0  0  0  0  0  0  0  0
   10.7962   27.8882   16.5671 O   0  0  0  0  0  0  0  0  0  0  0  0
   12.7166   27.0279   17.7144 C   0  0  1  0  0  0  0  0  0  0  0  0
   11.9224   26.6349   18.8160 O   0  0  0  0  0  0  0  0  0  0  0  0
   13.8954   26.0773   17.5903 C   0  0  1  0  0  0  0  0  0  0  0  0
   13.4176   24.8320   17.1566 O   0  0  0  0  0  0  0  0  0  0  0  0
   14.9437   26.5710   16.6074 C   0  0  1  0  0  0  0  0  0  0  0  0
   15.8231   27.4215   17.2926 O   0  0  0  0  0  0  0  0  0  0  0  0
   15.7274   25.4087   16.0204 C   0  0  0  0  0  0  0  0  0  0  0  0
   13.3268   24.9867   14.6137 N   0  0  0  0  0  0  0  0  0  0  0  0
   12.1387   24.7160   13.9704 C   0  0  0  0  0  0  0  0  0  0  0  0
   11.1135   24.5348   14.6208 O   0  0  0  0  0  0  0  0  0  0  0  0
   12.0896   24.6439   12.5970 N   0  0  0  0  0  0  0  0  0  0  0  0
   13.2316   24.8541   11.8489 C   0  0  0  0  0  0  0  0  0  0  0  0
   14.4352   25.1272   12.4893 C   0  0  1  0  0  0  0  0  0  0  0  0
   13.1785   24.8070   10.6182 O   0  0  0  0  0  0  0  0  0  0  0  0
   16.7753   25.6095   12.3865 C   0  0  2  0  0  0  0  0  0  0  0  0
   15.5807   25.3365   11.7479 N   0  0  0  0  0  0  0  0  0  0  0  0
   17.9324   25.8208   11.6360 C   0  0  0  0  0  0  0  0  0  0  0  0
   19.1403   26.0910   12.2684 C   0  0  1  0  0  0  0  0  0  0  0  0
   20.3611   26.3085   11.4315 C   0  0  0  0  0  0  0  0  0  0  0  0
   19.1943   26.1564   13.6689 C   0  0  1  0  0  0  0  0  0  0  0  0
   20.4791   26.4551   14.3917 C   0  0  0  0  0  0  0  0  0  0  0  0
   18.0382   25.9435   14.4152 C   0  0  0  0  0  0  0  0  0  0  0  0
   16.8253   25.6679   13.7813 C   0  0  1  0  0  0  0  0  0  0  0  0
   14.4787   25.1890   13.8806 C   0  0  1  0  0  0  0  0  0  0  0  0
   15.6733   25.4532   14.5229 N   0  0  0  0  0  0  0  0  0  0  0  0
  1  2  1  6  0  0  0
  1  3  1  0  0  0  0
  1  4  2  0  0  0  0
  1  6  1  0  0  0  0
  5  6  1  0  0  0  0
  7  5  1  6  0  0  0
  7  8  1  0  0  0  0
  7  9  1  0  0  0  0
  9 10  1  6  0  0  0
  9 11  1  0  0  0  0
 11 12  1  1  0  0  0
 11 13  1  0  0  0  0
 13 31  1  0  0  0  0
 14 15  1  0  0  0  0
 15 16  2  0  0  0  0
 15 17  1  0  0  0  0
 17 18  1  0  0  0  0
 18 20  2  0  0  0  0
 19 18  1  6  0  0  0
 19 22  1  0  0  0  0
 19 30  1  0  0  0  0
 21 23  1  1  0  0  0
 21 29  1  0  0  0  0
 21 22  1  0  0  0  0
 23 24  1  0  0  0  0
 24 25  1  6  0  0  0
 24 26  1  0  0  0  0
 26 27  1  6  0  0  0
 26 28  1  0  0  0  0
 29 28  1  6  0  0  0
 29 31  1  0  0  0  0
 30 14  1  6  0  0  0
 30 31  1  0  0  0  0
M  CHG  1   3  -1
M  END
>  <CHROM.1>
-164.37030555,-153.53155732,60.51053513,-49.91454579,86.49897793,125.39205004
114.97790881,13.91780584,26.16485243,14.65255452,2.75676439,-0.05088632,1.29583349

>  <Name>
ligand

>  <RI>
0

>  <Rbt.Current_Directory>
/home/itssahil/PROJECTS/Mol_Feturizer/New_Systems/rnas/3F2T

>  <Rbt.Executable>
rbdock ($Id: //depot/dev/client3/rdock/2013.1/src/exe/rbdock.cxx#4 $)

>  <Rbt.Library>
libRbt.so (2013.1, Build901 2013/11/27)

>  <Rbt.Parameter_File>
/export/apps/rDock/src/rDock_2013.1_src/data/scripts/dock_solv.prm

>  <Rbt.Receptor>
prm/blind_docking_40.prm

>  <SCORE>
7.37474

>  <SCORE.INTER>
-1.04062

>  <SCORE.INTER.CONST>
1

>  <SCORE.INTER.POLAR>
0

>  <SCORE.INTER.ROT>
7

>  <SCORE.INTER.SOLV>
12.0619

>  <SCORE.INTER.VDW>
-12.981

>  <SCORE.INTER.norm>
-0.0335684

>  <SCORE.INTRA>
4.93073

>  <SCORE.INTRA.DIHEDRAL>
6.42573

>  <SCORE.INTRA.DIHEDRAL.0>
4.64198

>  <SCORE.INTRA.POLAR>
0

>  <SCORE.INTRA.POLAR.0>
0

>  <SCORE.INTRA.REPUL>
0

>  <SCORE.INTRA.REPUL.0>
0

>  <SCORE.INTRA.SOLV>
2.22337

>  <SCORE.INTRA.SOLV.lig_0>
-49.3611

>  <SCORE.INTRA.VDW>
0.606181

>  <SCORE.INTRA.VDW.0>
-1.91858

>  <SCORE.INTRA.norm>
0.159056

>  <SCORE.RESTR>
3.48463

>  <SCORE.RESTR.CAVITY>
3.48463

>  <SCORE.RESTR.norm>
0.112407

>  <SCORE.SYSTEM>
0

>  <SCORE.SYSTEM.CONST>
0

>  <SCORE.SYSTEM.DIHEDRAL>
0

>  <SCORE.SYSTEM.SOLV>
0

>  <SCORE.SYSTEM.norm>
0

>  <SCORE.heavy>
31

>  <SCORE.norm>
0.237895

>  <RMSD>
19.447

$$$$
ligand
 OpenBabel11021811473D
libRbt.so/2013.1/901 2013/11/27
 31 33  0  0  0  0  0  0  0  0999 V2000
   11.4328   28.0708   21.0814 P   0  0  1  0  0  0  0  0  0  0  0  0
   12.1239   26.7639   21.3773 O   0  0  0  0  0  0  0  0  0  0  0  0
   10.2334   27.7965   20.2135 O   0  5  0  0  0  0  0  0  0  0  0  0
   11.0495   28.6635   22.4095 O   0  0  0  0  0  0  0  0  0  0  0  0
   13.2836   28.6692   19.3244 C   0  0  0  0  0  0  0  0  0  0  0  0
   12.3744   29.1167   20.3083 O   0  0  0  0  0  0  0  0  0  0  0  0
   12.5040   28.1459   18.1208 C   0  0  1  0  0  0  0  0  0  0  0  0
   12.4109   29.1562   17.1363 O   0  0  0  0  0  0  0  0  0  0  0  0
   13.2127   26.9402   17.5269 C   0  0  1  0  0  0  0  0  0  0  0  0
   13.3104   25.9509   18.5163 O   0  0  0  0  0  0  0  0  0  0  0  0
   12.4804   26.3642   16.3265 C   0  0  1  0  0  0  0  0  0  0  0  0
   12.5956   27.2718   15.2640 O   0  0  0  0  0  0  0  0  0  0  0  0
   13.0810   25.0309   15.9129 C   0  0  0  0  0  0  0  0  0  0  0  0
   11.9854   24.4131   13.3954 N   0  0  0  0  0  0  0  0  0  0  0  0
   11.4230   24.0420   12.1934 C   0  0  0  0  0  0  0  0  0  0  0  0
   10.2526   23.6748   12.1483 O   0  0  0  0  0  0  0  0  0  0  0  0
   12.1658   24.0766   11.0353 N   0  0  0  0  0  0  0  0  0  0  0  0
   13.4815   24.4959   11.0661 C   0  0  0  0  0  0  0  0  0  0  0  0
   14.0578   24.8716   12.2744 C   0  0  1  0  0  0  0  0  0  0  0  0
   14.1370   24.5431   10.0231 O   0  0  0  0  0  0  0  0  0  0  0  0
   15.9427   25.6646   13.5144 C   0  0  2  0  0  0  0  0  0  0  0  0
   15.3728   25.2899   12.3127 N   0  0  0  0  0  0  0  0  0  0  0  0
   17.2720   26.0871   13.5517 C   0  0  0  0  0  0  0  0  0  0  0  0
   17.8566   26.4612   14.7560 C   0  0  1  0  0  0  0  0  0  0  0  0
   19.2851   26.9053   14.7583 C   0  0  0  0  0  0  0  0  0  0  0  0
   17.1037   26.4183   15.9391 C   0  0  1  0  0  0  0  0  0  0  0  0
   17.6957   26.8233   17.2612 C   0  0  0  0  0  0  0  0  0  0  0  0
   15.7779   25.9947   15.8990 C   0  0  0  0  0  0  0  0  0  0  0  0
   15.1909   25.6147   14.6907 C   0  0  1  0  0  0  0  0  0  0  0  0
   13.3021   24.8245   13.4441 C   0  0  1  0  0  0  0  0  0  0  0  0
   13.8713   25.1903   14.6489 N   0  0  0  0  0  0  0  0  0  0  0  0
  1  2  1  1  0  0  0
  1  3  1  0  0  0  0
  1  4  2  0  0  0  0
  1  6  1  0  0  0  0
  5  6  1  0  0  0  0
  7  5  1  1  0  0  0
  7  8  1  0  0  0  0
  7  9  1  0  0  0  0
  9 10  1  1  0  0  0
  9 11  1  0  0  0  0
 11 12  1  6  0  0  0
 11 13  1  0  0  0  0
 13 31  1  0  0  0  0
 14 15  1  0  0  0  0
 15 16  2  0  0  0  0
 15 17  1  0  0  0  0
 17 18  1  0  0  0  0
 18 20  2  0  0  0  0
 19 18  1  6  0  0  0
 19 22  1  0  0  0  0
 19 30  1  0  0  0  0
 21 23  1  1  0  0  0
 21 29  1  0  0  0  0
 21 22  1  0  0  0  0
 23 24  1  0  0  0  0
 24 25  1  6  0  0  0
 24 26  1  0  0  0  0
 26 27  1  6  0  0  0
 26 28  1  0  0  0  0
 29 28  1  6  0  0  0
 29 31  1  0  0  0  0
 30 14  1  6  0  0  0
 30 31  1  0  0  0  0
M  CHG  1   3  -1
M  END
>  <CHROM.1>
67.63136248,37.39164595,96.79270694,59.06631151,69.99494982,-106.47267333
84.61130564,13.56146285,26.36823582,16.04524370,1.83562230,0.13854216,1.15712189

>  <Name>
ligand

>  <RI>
0

>  <Rbt.Current_Directory>
/home/itssahil/PROJECTS/Mol_Feturizer/New_Systems/rnas/3F2T

>  <Rbt.Executable>
rbdock ($Id: //depot/dev/client3/rdock/2013.1/src/exe/rbdock.cxx#4 $)

>  <Rbt.Library>
libRbt.so (2013.1, Build901 2013/11/27)

>  <Rbt.Parameter_File>
/export/apps/rDock/src/rDock_2013.1_src/data/scripts/dock_solv.prm

>  <Rbt.Receptor>
prm/blind_docking_40.prm

>  <SCORE>
3.43184

>  <SCORE.INTER>
-2.74851

>  <SCORE.INTER.CONST>
1

>  <SCORE.INTER.POLAR>
0

>  <SCORE.INTER.ROT>
7

>  <SCORE.INTER.SOLV>
13.3146

>  <SCORE.INTER.VDW>
-14.5372

>  <SCORE.INTER.norm>
-0.0886617

>  <SCORE.INTRA>
3.87013

>  <SCORE.INTRA.DIHEDRAL>
6.32271

>  <SCORE.INTRA.DIHEDRAL.0>
4.64198

>  <SCORE.INTRA.POLAR>
0

>  <SCORE.INTRA.POLAR.0>
0

>  <SCORE.INTRA.REPUL>
0

>  <SCORE.INTRA.REPUL.0>
0

>  <SCORE.INTRA.SOLV>
1.95801

>  <SCORE.INTRA.SOLV.lig_0>
-49.3611

>  <SCORE.INTRA.VDW>
-0.270228

>  <SCORE.INTRA.VDW.0>
-1.91858

>  <SCORE.INTRA.norm>
0.124843

>  <SCORE.RESTR>
2.31022

>  <SCORE.RESTR.CAVITY>
2.31022

>  <SCORE.RESTR.norm>
0.0745231

>  <SCORE.SYSTEM>
0

>  <SCORE.SYSTEM.CONST>
0

>  <SCORE.SYSTEM.DIHEDRAL>
0

>  <SCORE.SYSTEM.SOLV>
0

>  <SCORE.SYSTEM.norm>
0

>  <SCORE.heavy>
31

>  <SCORE.norm>
0.110704

>  <RMSD>
19.464

$$$$
ligand
 OpenBabel11021811473D
libRbt.so/2013.1/901 2013/11/27
 31 33  0  0  0  0  0  0  0  0999 V2000
   11.4230   28.4965   21.8667 P   0  0  1  0  0  0  0  0  0  0  0  0
   10.4019   29.3958   22.5162 O   0  0  0  0  0  0  0  0  0  0  0  0
   12.7237   28.6252   22.6140 O   0  5  0  0  0  0  0  0  0  0  0  0
   10.8670   27.1005   21.9301 O   0  0  0  0  0  0  0  0  0  0  0  0
   12.7506   28.2488   19.6202 C   0  0  0  0  0  0  0  0  0  0  0  0
   11.6970   28.8676   20.3287 O   0  0  0  0  0  0  0  0  0  0  0  0
   12.3055   27.9892   18.1833 C   0  0  1  0  0  0  0  0  0  0  0  0
   12.5324   29.1423   17.3975 O   0  0  0  0  0  0  0  0  0  0  0  0
   13.0917   26.8286   17.5973 C   0  0  1  0  0  0  0  0  0  0  0  0
   13.0979   25.7809   18.5298 O   0  0  0  0  0  0  0  0  0  0  0  0
   12.5008   26.3217   16.2924 C   0  0  1  0  0  0  0  0  0  0  0  0
   12.7381   27.2828   15.2995 O   0  0  0  0  0  0  0  0  0  0  0  0
   13.1430   25.0074   15.8802 C   0  0  0  0  0  0  0  0  0  0  0  0
   12.0190   24.4022   13.3722 N   0  0  0  0  0  0  0  0  0  0  0  0
   11.4438   24.0367   12.1745 C   0  0  0  0  0  0  0  0  0  0  0  0
   10.2764   23.6584   12.1420 O   0  0  0  0  0  0  0  0  0  0  0  0
   12.1702   24.0894   11.0068 N   0  0  0  0  0  0  0  0  0  0  0  0
   13.4821   24.5214   11.0235 C   0  0  0  0  0  0  0  0  0  0  0  0
   14.0712   24.8915   12.2274 C   0  0  1  0  0  0  0  0  0  0  0  0
   14.1226   24.5847    9.9722 O   0  0  0  0  0  0  0  0  0  0  0  0
   15.9652   25.6915   13.4490 C   0  0  2  0  0  0  0  0  0  0  0  0
   15.3825   25.3224   12.2516 N   0  0  0  0  0  0  0  0  0  0  0  0
   17.2907   26.1267   13.4721 C   0  0  0  0  0  0  0  0  0  0  0  0
   17.8881   26.4954   14.6717 C   0  0  1  0  0  0  0  0  0  0  0  0
   19.3121   26.9536   14.6586 C   0  0  0  0  0  0  0  0  0  0  0  0
   17.1519   26.4341   15.8646 C   0  0  1  0  0  0  0  0  0  0  0  0
   17.7580   26.8327   17.1821 C   0  0  0  0  0  0  0  0  0  0  0  0
   15.8299   25.9979   15.8385 C   0  0  0  0  0  0  0  0  0  0  0  0
   15.2301   25.6233   14.6348 C   0  0  1  0  0  0  0  0  0  0  0  0
   13.3321   24.8261   13.4068 C   0  0  1  0  0  0  0  0  0  0  0  0
   13.9142   25.1863   14.6071 N   0  0  0  0  0  0  0  0  0  0  0  0
  1  2  1  1  0  0  0
  1  3  1  0  0  0  0
  1  4  2  0  0  0  0
  1  6  1  0  0  0  0
  5  6  1  0  0  0  0
  7  5  1  1  0  0  0
  7  8  1  0  0  0  0
  7  9  1  0  0  0  0
  9 10  1  1  0  0  0
  9 11  1  0  0  0  0
 11 12  1  6  0  0  0
 11 13  1  0  0  0  0
 13 31  1  0  0  0  0
 14 15  1  0  0  0  0
 15 16  2  0  0  0  0
 15 17  1  0  0  0  0
 17 18  1  0  0  0  0
 18 20  2  0  0  0  0
 19 18  1  6  0  0  0
 19 22  1  0  0  0  0
 19 30  1  0  0  0  0
 21 23  1  1  0  0  0
 21 29  1  0  0  0  0
 21 22  1  0  0  0  0
 23 24  1  0  0  0  0
 24 25  1  6  0  0  0
 24 26  1  0  0  0  0
 26 27  1  6  0  0  0
 26 28  1  0  0  0  0
 29 28  1  6  0  0  0
 29 31  1  0  0  0  0
 30 14  1  6  0  0  0
 30 31  1  0  0  0  0
M  CHG  1   3  -1
M  END
>  <CHROM.1>
142.48687671,171.38626431,85.48801565,46.96563162,71.12096817,-114.69524728
86.29142371,13.54949963,26.43574284,16.20357675,1.83381251,0.14519115,1.15842156

>  <Name>
ligand

>  <RI>
0

>  <Rbt.Current_Directory>
/home/itssahil/PROJECTS/Mol_Feturizer/New_Systems/rnas/3F2T

>  <Rbt.Executable>
rbdock ($Id: //depot/dev/client3/rdock/2013.1/src/exe/rbdock.cxx#4 $)

>  <Rbt.Library>
libRbt.so (2013.1, Build901 2013/11/27)

>  <Rbt.Parameter_File>
/export/apps/rDock/src/rDock_2013.1_src/data/scripts/dock_solv.prm

>  <Rbt.Receptor>
prm/blind_docking_40.prm

>  <SCORE>
6.78644

>  <SCORE.INTER>
-1.11524

>  <SCORE.INTER.CONST>
1

>  <SCORE.INTER.POLAR>
0

>  <SCORE.INTER.ROT>
7

>  <SCORE.INTER.SOLV>
16.7562

>  <SCORE.INTER.VDW>
-14.5956

>  <SCORE.INTER.norm>
-0.0359754

>  <SCORE.INTRA>
5.71332

>  <SCORE.INTRA.DIHEDRAL>
10.0586

>  <SCORE.INTRA.DIHEDRAL.0>
4.64198

>  <SCORE.INTRA.POLAR>
0

>  <SCORE.INTRA.POLAR.0>
0

>  <SCORE.INTRA.REPUL>
0

>  <SCORE.INTRA.REPUL.0>
0

>  <SCORE.INTRA.SOLV>
0.202133

>  <SCORE.INTRA.SOLV.lig_0>
-49.3611

>  <SCORE.INTRA.VDW>
0.582973

>  <SCORE.INTRA.VDW.0>
-1.91858

>  <SCORE.INTRA.norm>
0.1843

>  <SCORE.RESTR>
2.18837

>  <SCORE.RESTR.CAVITY>
2.18837

>  <SCORE.RESTR.norm>
0.0705925

>  <SCORE.SYSTEM>
0

>  <SCORE.SYSTEM.CONST>
0

>  <SCORE.SYSTEM.DIHEDRAL>
0

>  <SCORE.SYSTEM.SOLV>
0

>  <SCORE.SYSTEM.norm>
0

>  <SCORE.heavy>
31

>  <SCORE.norm>
0.218918

>  <RMSD>
19.483

$$$$
ligand
 OpenBabel11021811473D
libRbt.so/2013.1/901 2013/11/27
 31 33  0  0  0  0  0  0  0  0999 V2000
   11.5600   27.6361   21.3265 P   0  0  1  0  0  0  0  0  0  0  0  0
   12.5835   28.6437   21.7850 O   0  0  0  0  0  0  0  0  0  0  0  0
   12.0385   26.2583   21.7005 O   0  5  0  0  0  0  0  0  0  0  0  0
   10.2693   27.9943   22.0104 O   0  0  0  0  0  0  0  0  0  0  0  0
   12.2063   28.3690   18.8943 C   0  0  0  0  0  0  0  0  0  0  0  0
   11.3213   27.6631   19.7389 O   0  0  0  0  0  0  0  0  0  0  0  0
   11.6486   28.3731   17.4733 C   0  0  1  0  0  0  0  0  0  0  0  0
   12.3851   29.2774   16.6741 O   0  0  0  0  0  0  0  0  0  0  0  0
   11.7523   26.9823   16.8702 C   0  0  1  0  0  0  0  0  0  0  0  0
   10.8827   26.9088   15.7721 O   0  0  0  0  0  0  0  0  0  0  0  0
   13.1602   26.6499   16.4054 C   0  0  1  0  0  0  0  0  0  0  0  0
   14.0092   26.6758   17.5210 O   0  0  0  0  0  0  0  0  0  0  0  0
   13.2105   25.2701   15.7704 C   0  0  0  0  0  0  0  0  0  0  0  0
   12.1269   24.5601   13.2721 N   0  0  0  0  0  0  0  0  0  0  0  0
   11.5660   24.1472   12.0831 C   0  0  0  0  0  0  0  0  0  0  0  0
   10.3779   23.8424   12.0356 O   0  0  0  0  0  0  0  0  0  0  0  0
   12.3299   24.0704   10.9409 N   0  0  0  0  0  0  0  0  0  0  0  0
   13.6662   24.4184   10.9740 C   0  0  0  0  0  0  0  0  0  0  0  0
   14.2411   24.8354   12.1694 C   0  0  1  0  0  0  0  0  0  0  0  0
   14.3416   24.3658    9.9441 O   0  0  0  0  0  0  0  0  0  0  0  0
   16.1451   25.5988   13.3989 C   0  0  2  0  0  0  0  0  0  0  0  0
   15.5765   25.1829   12.2101 N   0  0  0  0  0  0  0  0  0  0  0  0
   17.4949   25.9496   13.4386 C   0  0  0  0  0  0  0  0  0  0  0  0
   18.0781   26.3643   14.6302 C   0  0  1  0  0  0  0  0  0  0  0  0
   19.5289   26.7292   14.6358 C   0  0  0  0  0  0  0  0  0  0  0  0
   17.3031   26.4351   15.7977 C   0  0  1  0  0  0  0  0  0  0  0  0
   17.8933   26.8874   17.1051 C   0  0  0  0  0  0  0  0  0  0  0  0
   15.9567   26.0827   15.7552 C   0  0  0  0  0  0  0  0  0  0  0  0
   15.3709   25.6620   14.5599 C   0  0  1  0  0  0  0  0  0  0  0  0
   13.4633   24.9013   13.3237 C   0  0  1  0  0  0  0  0  0  0  0  0
   14.0307   25.3085   14.5160 N   0  0  0  0  0  0  0  0  0  0  0  0
  1  2  1  1  0  0  0
  1  3  1  0  0  0  0
  1  4  2  0  0  0  0
  1  6  1  0  0  0  0
  5  6  1  0  0  0  0
  7  5  1  1  0  0  0
  7  8  1  0  0  0  0
  7  9  1  0  0  0  0
  9 10  1  6  0  0  0
  9 11  1  0  0  0  0
 11 12  1  1  0  0  0
 11 13  1  0  0  0  0
 13 31  1  0  0  0  0
 14 15  1  0  0  0  0
 15 16  2  0  0  0  0
 15 17  1  0  0  0  0
 17 18  1  0  0  0  0
 18 20  2  0  0  0  0
 19 18  1  6  0  0  0
 19 22  1  0  0  0  0
 19 30  1  0  0  0  0
 21 23  1  1  0  0  0
 21 29  1  0  0  0  0
 21 22  1  0  0  0  0
 23 24  1  0  0  0  0
 24 25  1  6  0  0  0
 24 26  1  0  0  0  0
 26 27  1  6  0  0  0
 26 28  1  0  0  0  0
 29 28  1  6  0  0  0
 29 31  1  0  0  0  0
 30 14  1  6  0  0  0
 30 31  1  0  0  0  0
M  CHG  1   3  -1
M  END
>  <CHROM.1>
-172.96298010,12.41658301,169.16076464,161.81479261,61.94918945,136.32397089
61.31377167,13.56912018,26.30457473,15.94539655,1.88760286,0.10191591,1.20143721

>  <Name>
ligand

>  <RI>
0

>  <Rbt.Current_Directory>
/home/itssahil/PROJECTS/Mol_Feturizer/New_Systems/rnas/3F2T

>  <Rbt.Executable>
rbdock ($Id: //depot/dev/client3/rdock/2013.1/src/exe/rbdock.cxx#4 $)

>  <Rbt.Library>
libRbt.so (2013.1, Build901 2013/11/27)

>  <Rbt.Parameter_File>
/export/apps/rDock/src/rDock_2013.1_src/data/scripts/dock_solv.prm

>  <Rbt.Receptor>
prm/blind_docking_40.prm

>  <SCORE>
5.7674

>  <SCORE.INTER>
1.04092

>  <SCORE.INTER.CONST>
1

>  <SCORE.INTER.POLAR>
0

>  <SCORE.INTER.ROT>
7

>  <SCORE.INTER.SOLV>
12.2736

>  <SCORE.INTER.VDW>
-11.6639

>  <SCORE.INTER.norm>
0.0335782

>  <SCORE.INTRA>
3.37832

>  <SCORE.INTRA.DIHEDRAL>
4.90873

>  <SCORE.INTRA.DIHEDRAL.0>
4.64198

>  <SCORE.INTRA.POLAR>
0

>  <SCORE.INTRA.POLAR.0>
0

>  <SCORE.INTRA.REPUL>
0

>  <SCORE.INTRA.REPUL.0>
0

>  <SCORE.INTRA.SOLV>
-0.552657

>  <SCORE.INTRA.SOLV.lig_0>
-49.3611

>  <SCORE.INTRA.VDW>
1.20029

>  <SCORE.INTRA.VDW.0>
-1.91858

>  <SCORE.INTRA.norm>
0.108978

>  <SCORE.RESTR>
1.34815

>  <SCORE.RESTR.CAVITY>
1.34815

>  <SCORE.RESTR.norm>
0.0434888

>  <SCORE.SYSTEM>
0

>  <SCORE.SYSTEM.CONST>
0

>  <SCORE.SYSTEM.DIHEDRAL>
0

>  <SCORE.SYSTEM.SOLV>
0

>  <SCORE.SYSTEM.norm>
0

>  <SCORE.heavy>
31

>  <SCORE.norm>
0.186045

>  <RMSD>
19.554

$$$$
ligand
 OpenBabel11021811473D
libRbt.so/2013.1/901 2013/11/27
 31 33  0  0  0  0  0  0  0  0999 V2000
   16.7411   25.1593   13.5873 P   0  0  1  0  0  0  0  0  0  0  0  0
   16.6598   23.6553   13.5184 O   0  0  0  0  0  0  0  0  0  0  0  0
   18.1778   25.5552   13.8022 O   0  5  0  0  0  0  0  0  0  0  0  0
   16.1976   25.6781   12.2844 O   0  0  0  0  0  0  0  0  0  0  0  0
   15.6998   25.0623   15.9908 C   0  0  0  0  0  0  0  0  0  0  0  0
   15.8720   25.7797   14.7864 O   0  0  0  0  0  0  0  0  0  0  0  0
   14.9641   25.9416   16.9985 C   0  0  1  0  0  0  0  0  0  0  0  0
   15.7280   27.1002   17.2684 O   0  0  0  0  0  0  0  0  0  0  0  0
   13.6149   26.3583   16.4374 C   0  0  1  0  0  0  0  0  0  0  0  0
   13.1787   25.3656   15.5477 O   0  0  0  0  0  0  0  0  0  0  0  0
   12.5642   26.5452   17.5190 C   0  0  1  0  0  0  0  0  0  0  0  0
   12.8158   25.6192   18.5413 O   0  0  0  0  0  0  0  0  0  0  0  0
   12.6201   27.9513   18.0927 C   0  0  0  0  0  0  0  0  0  0  0  0
   10.5088   28.2604   16.2578 N   0  0  0  0  0  0  0  0  0  0  0  0
    9.5247   28.4530   15.3128 C   0  0  0  0  0  0  0  0  0  0  0  0
    9.7391   28.1789   14.1356 O   0  0  0  0  0  0  0  0  0  0  0  0
    8.2962   28.9551   15.6771 N   0  0  0  0  0  0  0  0  0  0  0  0
    8.0345   29.2603   16.9986 C   0  0  0  0  0  0  0  0  0  0  0  0
    9.0217   29.0700   17.9591 C   0  0  1  0  0  0  0  0  0  0  0  0
    6.9263   29.6921   17.3227 O   0  0  0  0  0  0  0  0  0  0  0  0
    9.7496   29.1830   20.2344 C   0  0  2  0  0  0  0  0  0  0  0  0
    8.7675   29.3748   19.2813 N   0  0  0  0  0  0  0  0  0  0  0  0
    9.4914   29.4916   21.5704 C   0  0  0  0  0  0  0  0  0  0  0  0
   10.4738   29.3074   22.5363 C   0  0  1  0  0  0  0  0  0  0  0  0
   10.1625   29.6524   23.9583 C   0  0  0  0  0  0  0  0  0  0  0  0
   11.7298   28.8038   22.1656 C   0  0  1  0  0  0  0  0  0  0  0  0
   12.8169   28.5812   23.1810 C   0  0  0  0  0  0  0  0  0  0  0  0
   11.9850   28.4984   20.8313 C   0  0  0  0  0  0  0  0  0  0  0  0
   11.0004   28.6869   19.8596 C   0  0  1  0  0  0  0  0  0  0  0  0
   10.2662   28.5704   17.5808 C   0  0  1  0  0  0  0  0  0  0  0  0
   11.2534   28.3855   18.5298 N   0  0  0  0  0  0  0  0  0  0  0  0
  1  2  1  1  0  0  0
  1  3  1  0  0  0  0
  1  4  2  0  0  0  0
  1  6  1  0  0  0  0
  5  6  1  0  0  0  0
  7  5  1  6  0  0  0
  7  8  1  0  0  0  0
  7  9  1  0  0  0  0
  9 10  1  6  0  0  0
  9 11  1  0  0  0  0
 11 12  1  1  0  0  0
 11 13  1  0  0  0  0
 13 31  1  0  0  0  0
 14 15  1  0  0  0  0
 15 16  2  0  0  0  0
 15 17  1  0  0  0  0
 17 18  1  0  0  0  0
 18 20  2  0  0  0  0
 19 18  1  1  0  0  0
 19 22  1  0  0  0  0
 19 30  1  0  0  0  0
 21 23  1  6  0  0  0
 21 29  1  0  0  0  0
 21 22  1  0  0  0  0
 23 24  1  0  0  0  0
 24 25  1  1  0  0  0
 24 26  1  0  0  0  0
 26 27  1  1  0  0  0
 26 28  1  0  0  0  0
 29 28  1  1  0  0  0
 29 31  1  0  0  0  0
 30 14  1  1  0  0  0
 30 31  1  0  0  0  0
M  CHG  1   3  -1
M  END
>  <CHROM.1>
174.04742385,32.15912681,-61.02983798,28.30660296,-33.54741041,148.86287407
118.13708552,12.40687870,27.42953202,17.36819001,-0.75880473,-0.39833974
1.38778995

>  <Name>
ligand

>  <RI>
0

>  <Rbt.Current_Directory>
/home/itssahil/PROJECTS/Mol_Feturizer/New_Systems/rnas/3F2T

>  <Rbt.Executable>
rbdock ($Id: //depot/dev/client3/rdock/2013.1/src/exe/rbdock.cxx#4 $)

>  <Rbt.Library>
libRbt.so (2013.1, Build901 2013/11/27)

>  <Rbt.Parameter_File>
/export/apps/rDock/src/rDock_2013.1_src/data/scripts/dock_solv.prm

>  <Rbt.Receptor>
prm/blind_docking_40.prm

>  <SCORE>
4.37216

>  <SCORE.INTER>
-2.08048

>  <SCORE.INTER.CONST>
1

>  <SCORE.INTER.POLAR>
0

>  <SCORE.INTER.ROT>
7

>  <SCORE.INTER.SOLV>
11.6045

>  <SCORE.INTER.VDW>
-13.5218

>  <SCORE.INTER.norm>
-0.0671124

>  <SCORE.INTRA>
4.85924

>  <SCORE.INTRA.DIHEDRAL>
5.80629

>  <SCORE.INTRA.DIHEDRAL.0>
4.64198

>  <SCORE.INTRA.POLAR>
0

>  <SCORE.INTRA.POLAR.0>
0

>  <SCORE.INTRA.REPUL>
0

>  <SCORE.INTRA.REPUL.0>
0

>  <SCORE.INTRA.SOLV>
-0.233306

>  <SCORE.INTRA.SOLV.lig_0>
-49.3611

>  <SCORE.INTRA.VDW>
2.07275

>  <SCORE.INTRA.VDW.0>
-1.91858

>  <SCORE.INTRA.norm>
0.15675

>  <SCORE.RESTR>
1.5934

>  <SCORE.RESTR.CAVITY>
1.5934

>  <SCORE.RESTR.norm>
0.0514001

>  <SCORE.SYSTEM>
0

>  <SCORE.SYSTEM.CONST>
0

>  <SCORE.SYSTEM.DIHEDRAL>
0

>  <SCORE.SYSTEM.SOLV>
0

>  <SCORE.SYSTEM.norm>
0

>  <SCORE.heavy>
31

>  <SCORE.norm>
0.141038

>  <RMSD>
19.580

$$$$
ligand
 OpenBabel11021811473D
libRbt.so/2013.1/901 2013/11/27
 31 33  0  0  0  0  0  0  0  0999 V2000
   11.3208   27.6786   20.3630 P   0  0  1  0  0  0  0  0  0  0  0  0
   12.3727   28.6371   20.8609 O   0  0  0  0  0  0  0  0  0  0  0  0
   11.1987   26.5439   21.3451 O   0  5  0  0  0  0  0  0  0  0  0  0
   10.0451   28.4663   20.2435 O   0  0  0  0  0  0  0  0  0  0  0  0
   12.8291   26.2630   18.7531 C   0  0  0  0  0  0  0  0  0  0  0  0
   11.6717   27.0539   18.9261 O   0  0  0  0  0  0  0  0  0  0  0  0
   13.0397   25.9996   17.2644 C   0  0  1  0  0  0  0  0  0  0  0  0
   12.9585   27.2159   16.5482 O   0  0  0  0  0  0  0  0  0  0  0  0
   14.4082   25.3807   17.0345 C   0  0  1  0  0  0  0  0  0  0  0  0
   14.5207   24.2399   17.8428 O   0  0  0  0  0  0  0  0  0  0  0  0
   14.6334   24.9809   15.5860 C   0  0  1  0  0  0  0  0  0  0  0  0
   13.5255   24.2355   15.1582 O   0  0  0  0  0  0  0  0  0  0  0  0
   14.7830   26.2075   14.7014 C   0  0  0  0  0  0  0  0  0  0  0  0
   13.0022   25.0286   12.8687 N   0  0  0  0  0  0  0  0  0  0  0  0
   12.1066   24.4023   12.0294 C   0  0  0  0  0  0  0  0  0  0  0  0
   10.9355   24.2647   12.3705 O   0  0  0  0  0  0  0  0  0  0  0  0
   12.5149   23.9241   10.8052 N   0  0  0  0  0  0  0  0  0  0  0  0
   13.8268   24.0784   10.4013 C   0  0  0  0  0  0  0  0  0  0  0  0
   14.7378   24.7084   11.2418 C   0  0  1  0  0  0  0  0  0  0  0  0
   14.1831   23.6650    9.2960 O   0  0  0  0  0  0  0  0  0  0  0  0
   16.9539   25.4924   11.6816 C   0  0  2  0  0  0  0  0  0  0  0  0
   16.0508   24.8643   10.8453 N   0  0  0  0  0  0  0  0  0  0  0  0
   18.2808   25.6493   11.2796 C   0  0  0  0  0  0  0  0  0  0  0  0
   19.1986   26.2750   12.1152 C   0  0  1  0  0  0  0  0  0  0  0  0
   20.6135   26.4222   11.6524 C   0  0  0  0  0  0  0  0  0  0  0  0
   18.7864   26.7555   13.3673 C   0  0  1  0  0  0  0  0  0  0  0  0
   19.7456   27.4464   14.2973 C   0  0  0  0  0  0  0  0  0  0  0  0
   17.4620   26.5960   13.7663 C   0  0  0  0  0  0  0  0  0  0  0  0
   16.5402   25.9641   12.9297 C   0  0  1  0  0  0  0  0  0  0  0  0
   14.3189   25.1813   12.4838 C   0  0  1  0  0  0  0  0  0  0  0  0
   15.2212   25.8022   13.3262 N   0  0  0  0  0  0  0  0  0  0  0  0
  1  2  1  1  0  0  0
  1  3  1  0  0  0  0
  1  4  2  0  0  0  0
  1  6  1  0  0  0  0
  5  6  1  0  0  0  0
  7  5  1  1  0  0  0
  7  8  1  0  0  0  0
  7  9  1  0  0  0  0
  9 10  1  1  0  0  0
  9 11  1  0  0  0  0
 11 12  1  6  0  0  0
 11 13  1  0  0  0  0
 13 31  1  0  0  0  0
 14 15  1  0  0  0  0
 15 16  2  0  0  0  0
 15 17  1  0  0  0  0
 17 18  1  0  0  0  0
 18 20  2  0  0  0  0
 19 18  1  6  0  0  0
 19 22  1  0  0  0  0
 19 30  1  0  0  0  0
 21 23  1  1  0  0  0
 21 29  1  0  0  0  0
 21 22  1  0  0  0  0
 23 24  1  0  0  0  0
 24 25  1  6  0  0  0
 24 26  1  0  0  0  0
 26 27  1  6  0  0  0
 26 28  1  0  0  0  0
 29 28  1  6  0  0  0
 29 31  1  0  0  0  0
 30 14  1  6  0  0  0
 30 31  1  0  0  0  0
M  CHG  1   3  -1
M  END
>  <CHROM.1>
-170.65470338,61.97357552,49.44372417,54.40189774,-49.45911035,170.92741454
-102.79673335,14.31871596,25.88919358,14.96368417,-2.10759894,-0.24681957
-1.94557732

>  <Name>
ligand

>  <RI>
0

>  <Rbt.Current_Directory>
/home/itssahil/PROJECTS/Mol_Feturizer/New_Systems/rnas/3F2T

>  <Rbt.Executable>
rbdock ($Id: //depot/dev/client3/rdock/2013.1/src/exe/rbdock.cxx#4 $)

>  <Rbt.Library>
libRbt.so (2013.1, Build901 2013/11/27)

>  <Rbt.Parameter_File>
/export/apps/rDock/src/rDock_2013.1_src/data/scripts/dock_solv.prm

>  <Rbt.Receptor>
prm/blind_docking_40.prm

>  <SCORE>
19.0003

>  <SCORE.INTER>
16.4928

>  <SCORE.INTER.CONST>
1

>  <SCORE.INTER.POLAR>
0

>  <SCORE.INTER.ROT>
7

>  <SCORE.INTER.SOLV>
7.54624

>  <SCORE.INTER.VDW>
0.213093

>  <SCORE.INTER.norm>
0.532025

>  <SCORE.INTRA>
0.534718

>  <SCORE.INTRA.DIHEDRAL>
-1.91162

>  <SCORE.INTRA.DIHEDRAL.0>
4.64198

>  <SCORE.INTRA.POLAR>
0

>  <SCORE.INTRA.POLAR.0>
0

>  <SCORE.INTRA.REPUL>
0

>  <SCORE.INTRA.REPUL.0>
0

>  <SCORE.INTRA.SOLV>
-0.100102

>  <SCORE.INTRA.SOLV.lig_0>
-49.3611

>  <SCORE.INTRA.VDW>
1.54058

>  <SCORE.INTRA.VDW.0>
-1.91858

>  <SCORE.INTRA.norm>
0.017249

>  <SCORE.RESTR>
1.9728

>  <SCORE.RESTR.CAVITY>
1.9728

>  <SCORE.RESTR.norm>
0.0636388

>  <SCORE.SYSTEM>
0

>  <SCORE.SYSTEM.CONST>
0

>  <SCORE.SYSTEM.DIHEDRAL>
0

>  <SCORE.SYSTEM.SOLV>
0

>  <SCORE.SYSTEM.norm>
0

>  <SCORE.heavy>
31

>  <SCORE.norm>
0.612912

>  <RMSD>
19.644

$$$$
ligand
 OpenBabel11021811473D
libRbt.so/2013.1/901 2013/11/27
 31 33  0  0  0  0  0  0  0  0999 V2000
   17.1199   25.4892   10.0085 P   0  0  1  0  0  0  0  0  0  0  0  0
   17.1851   26.5399    8.9292 O   0  0  0  0  0  0  0  0  0  0  0  0
   18.1259   24.4135    9.6959 O   0  5  0  0  0  0  0  0  0  0  0  0
   17.4202   26.1882   11.3060 O   0  0  0  0  0  0  0  0  0  0  0  0
   14.5767   25.5176   10.6426 C   0  0  0  0  0  0  0  0  0  0  0  0
   15.6754   24.7976   10.1236 O   0  0  0  0  0  0  0  0  0  0  0  0
   13.3783   24.5810   10.7724 C   0  0  1  0  0  0  0  0  0  0  0  0
   13.8029   23.3291   11.2736 O   0  0  0  0  0  0  0  0  0  0  0  0
   12.3556   25.1747   11.7264 C   0  0  1  0  0  0  0  0  0  0  0  0
   11.3619   24.2142   11.9657 O   0  0  0  0  0  0  0  0  0  0  0  0
   12.9666   25.5910   13.0538 C   0  0  1  0  0  0  0  0  0  0  0  0
   13.7167   26.7573   12.8462 O   0  0  0  0  0  0  0  0  0  0  0  0
   11.8859   25.8682   14.0856 C   0  0  0  0  0  0  0  0  0  0  0  0
   14.2274   24.4731   14.7865 N   0  0  0  0  0  0  0  0  0  0  0  0
   15.3415   23.7245   15.0981 C   0  0  0  0  0  0  0  0  0  0  0  0
   15.8866   23.0428   14.2350 O   0  0  0  0  0  0  0  0  0  0  0  0
   15.8514   23.7313   16.3764 N   0  0  0  0  0  0  0  0  0  0  0  0
   15.2562   24.4997   17.3578 C   0  0  0  0  0  0  0  0  0  0  0  0
   14.1312   25.2578   17.0529 C   0  0  1  0  0  0  0  0  0  0  0  0
   15.7280   24.5171   18.4965 O   0  0  0  0  0  0  0  0  0  0  0  0
   12.4133   26.7806   17.7234 C   0  0  2  0  0  0  0  0  0  0  0  0
   13.5302   26.0266   18.0294 N   0  0  0  0  0  0  0  0  0  0  0  0
   11.8067   27.5571   18.7113 C   0  0  0  0  0  0  0  0  0  0  0  0
   10.6799   28.3151   18.4156 C   0  0  1  0  0  0  0  0  0  0  0  0
   10.0541   29.1327   19.5010 C   0  0  0  0  0  0  0  0  0  0  0  0
   10.1533   28.3028   17.1152 C   0  0  1  0  0  0  0  0  0  0  0  0
    8.9411   29.1158   16.7517 C   0  0  0  0  0  0  0  0  0  0  0  0
   10.7598   27.5256   16.1319 C   0  0  0  0  0  0  0  0  0  0  0  0
   11.8892   26.7605   16.4288 C   0  0  1  0  0  0  0  0  0  0  0  0
   13.6151   25.2380   15.7587 C   0  0  1  0  0  0  0  0  0  0  0  0
   12.4933   25.9841   15.4514 N   0  0  0  0  0  0  0  0  0  0  0  0
  1  2  1  6  0  0  0
  1  3  1  0  0  0  0
  1  4  2  0  0  0  0
  1  6  1  0  0  0  0
  5  6  1  0  0  0  0
  7  5  1  1  0  0  0
  7  8  1  0  0  0  0
  7  9  1  0  0  0  0
  9 10  1  1  0  0  0
  9 11  1  0  0  0  0
 11 12  1  6  0  0  0
 11 13  1  0  0  0  0
 13 31  1  0  0  0  0
 14 15  1  0  0  0  0
 15 16  2  0  0  0  0
 15 17  1  0  0  0  0
 17 18  1  0  0  0  0
 18 20  2  0  0  0  0
 19 18  1  6  0  0  0
 19 22  1  0  0  0  0
 19 30  1  0  0  0  0
 21 23  1  1  0  0  0
 21 29  1  0  0  0  0
 21 22  1  0  0  0  0
 23 24  1  0  0  0  0
 24 25  1  6  0  0  0
 24 26  1  0  0  0  0
 26 27  1  6  0  0  0
 26 28  1  0  0  0  0
 29 28  1  6  0  0  0
 29 31  1  0  0  0  0
 30 14  1  6  0  0  0
 30 31  1  0  0  0  0
M  CHG  1   3  -1
M  END
>  <CHROM.1>
-174.13856635,-71.16386050,41.47870979,-171.95715562,73.51196600,167.75315044
152.24195567,13.85947529,25.70182463,14.16838372,0.91435304,0.51676145,-1.51787051

>  <Name>
ligand

>  <RI>
0

>  <Rbt.Current_Directory>
/home/itssahil/PROJECTS/Mol_Feturizer/New_Systems/rnas/3F2T

>  <Rbt.Executable>
rbdock ($Id: //depot/dev/client3/rdock/2013.1/src/exe/rbdock.cxx#4 $)

>  <Rbt.Library>
libRbt.so (2013.1, Build901 2013/11/27)

>  <Rbt.Parameter_File>
/export/apps/rDock/src/rDock_2013.1_src/data/scripts/dock_solv.prm

>  <Rbt.Receptor>
prm/blind_docking_40.prm

>  <SCORE>
7.32829

>  <SCORE.INTER>
-0.90683

>  <SCORE.INTER.CONST>
1

>  <SCORE.INTER.POLAR>
0

>  <SCORE.INTER.ROT>
7

>  <SCORE.INTER.SOLV>
8.46682

>  <SCORE.INTER.VDW>
-11.6935

>  <SCORE.INTER.norm>
-0.0292526

>  <SCORE.INTRA>
5.97346

>  <SCORE.INTRA.DIHEDRAL>
-0.631526

>  <SCORE.INTRA.DIHEDRAL.0>
4.64198

>  <SCORE.INTRA.POLAR>
0

>  <SCORE.INTRA.POLAR.0>
0

>  <SCORE.INTRA.REPUL>
0

>  <SCORE.INTRA.REPUL.0>
0

>  <SCORE.INTRA.SOLV>
0.178278

>  <SCORE.INTRA.SOLV.lig_0>
-49.3611

>  <SCORE.INTRA.VDW>
6.20008

>  <SCORE.INTRA.VDW.0>
-1.91858

>  <SCORE.INTRA.norm>
0.192692

>  <SCORE.RESTR>
2.26167

>  <SCORE.RESTR.CAVITY>
2.26167

>  <SCORE.RESTR.norm>
0.0729571

>  <SCORE.SYSTEM>
0

>  <SCORE.SYSTEM.CONST>
0

>  <SCORE.SYSTEM.DIHEDRAL>
0

>  <SCORE.SYSTEM.SOLV>
0

>  <SCORE.SYSTEM.norm>
0

>  <SCORE.heavy>
31

>  <SCORE.norm>
0.236397

>  <RMSD>
19.739

$$$$
ligand
 OpenBabel11021811473D
libRbt.so/2013.1/901 2013/11/27
 31 33  0  0  0  0  0  0  0  0999 V2000
   14.5629   25.5038   12.9403 P   0  0  1  0  0  0  0  0  0  0  0  0
   15.0162   26.3539   11.7805 O   0  0  0  0  0  0  0  0  0  0  0  0
   13.1934   25.9611   13.3671 O   0  5  0  0  0  0  0  0  0  0  0  0
   14.5607   24.0807   12.4537 O   0  0  0  0  0  0  0  0  0  0  0  0
   15.3423   24.7708   15.3331 C   0  0  0  0  0  0  0  0  0  0  0  0
   15.5379   25.6071   14.2119 O   0  0  0  0  0  0  0  0  0  0  0  0
   14.1109   25.2419   16.1025 C   0  0  1  0  0  0  0  0  0  0  0  0
   13.4668   24.1330   16.6978 O   0  0  0  0  0  0  0  0  0  0  0  0
   14.5208   26.2191   17.1915 C   0  0  1  0  0  0  0  0  0  0  0  0
   15.6433   26.9332   16.7473 O   0  0  0  0  0  0  0  0  0  0  0  0
   13.4172   27.2042   17.5388 C   0  0  1  0  0  0  0  0  0  0  0  0
   13.0157   27.8483   16.3599 O   0  0  0  0  0  0  0  0  0  0  0  0
   12.2236   26.4888   18.1495 C   0  0  0  0  0  0  0  0  0  0  0  0
   10.5433   27.4031   16.0854 N   0  0  0  0  0  0  0  0  0  0  0  0
    9.7856   27.8643   15.0309 C   0  0  0  0  0  0  0  0  0  0  0  0
    9.9556   27.4077   13.9042 O   0  0  0  0  0  0  0  0  0  0  0  0
    8.8355   28.8401   15.2287 N   0  0  0  0  0  0  0  0  0  0  0  0
    8.6245   29.3587   16.4914 C   0  0  0  0  0  0  0  0  0  0  0  0
    9.3848   28.8999   17.5614 C   0  0  1  0  0  0  0  0  0  0  0  0
    7.7593   30.2190   16.6667 O   0  0  0  0  0  0  0  0  0  0  0  0
    9.9360   28.9564   19.8879 C   0  0  2  0  0  0  0  0  0  0  0  0
    9.1805   29.4152   18.8257 N   0  0  0  0  0  0  0  0  0  0  0  0
    9.7286   29.4781   21.1653 C   0  0  0  0  0  0  0  0  0  0  0  0
   10.4866   29.0274   22.2396 C   0  0  1  0  0  0  0  0  0  0  0  0
   10.2389   29.6122   23.5941 C   0  0  0  0  0  0  0  0  0  0  0  0
   11.4618   28.0389   22.0385 C   0  0  1  0  0  0  0  0  0  0  0  0
   12.2968   27.5174   23.1757 C   0  0  0  0  0  0  0  0  0  0  0  0
   11.6675   27.5214   20.7623 C   0  0  0  0  0  0  0  0  0  0  0  0
   10.9097   27.9763   19.6817 C   0  0  1  0  0  0  0  0  0  0  0  0
   10.3516   27.9187   17.3513 C   0  0  1  0  0  0  0  0  0  0  0  0
   11.1148   27.4638   18.4095 N   0  0  0  0  0  0  0  0  0  0  0  0
  1  2  1  6  0  0  0
  1  3  1  0  0  0  0
  1  4  2  0  0  0  0
  1  6  1  0  0  0  0
  5  6  1  0  0  0  0
  7  5  1  1  0  0  0
  7  8  1  0  0  0  0
  7  9  1  0  0  0  0
  9 10  1  6  0  0  0
  9 11  1  0  0  0  0
 11 12  1  6  0  0  0
 11 13  1  0  0  0  0
 13 31  1  0  0  0  0
 14 15  1  0  0  0  0
 15 16  2  0  0  0  0
 15 17  1  0  0  0  0
 17 18  1  0  0  0  0
 18 20  2  0  0  0  0
 19 18  1  1  0  0  0
 19 22  1  0  0  0  0
 19 30  1  0  0  0  0
 21 23  1  6  0  0  0
 21 29  1  0  0  0  0
 21 22  1  0  0  0  0
 23 24  1  0  0  0  0
 24 25  1  1  0  0  0
 24 26  1  0  0  0  0
 26 27  1  1  0  0  0
 26 28  1  0  0  0  0
 29 28  1  1  0  0  0
 29 31  1  0  0  0  0
 30 14  1  1  0  0  0
 30 31  1  0  0  0  0
M  CHG  1   3  -1
M  END
>  <CHROM.1>
-73.03938211,-173.31394935,147.61941870,31.95696571,-54.81041371,-176.62622798
-99.65686105,12.04403426,27.25199702,16.99620978,0.98610679,0.52436719,-1.69270428

>  <Name>
ligand

>  <RI>
0

>  <Rbt.Current_Directory>
/home/itssahil/PROJECTS/Mol_Feturizer/New_Systems/rnas/3F2T

>  <Rbt.Executable>
rbdock ($Id: //depot/dev/client3/rdock/2013.1/src/exe/rbdock.cxx#4 $)

>  <Rbt.Library>
libRbt.so (2013.1, Build901 2013/11/27)

>  <Rbt.Parameter_File>
/export/apps/rDock/src/rDock_2013.1_src/data/scripts/dock_solv.prm

>  <Rbt.Receptor>
prm/blind_docking_40.prm

>  <SCORE>
6.33159

>  <SCORE.INTER>
0.211439

>  <SCORE.INTER.CONST>
1

>  <SCORE.INTER.POLAR>
0

>  <SCORE.INTER.ROT>
7

>  <SCORE.INTER.SOLV>
12.017

>  <SCORE.INTER.VDW>
-12.1314

>  <SCORE.INTER.norm>
0.00682062

>  <SCORE.INTRA>
4.65066

>  <SCORE.INTRA.DIHEDRAL>
2.84917

>  <SCORE.INTRA.DIHEDRAL.0>
4.64198

>  <SCORE.INTRA.POLAR>
0

>  <SCORE.INTRA.POLAR.0>
0

>  <SCORE.INTRA.REPUL>
0

>  <SCORE.INTRA.REPUL.0>
0

>  <SCORE.INTRA.SOLV>
3.69931

>  <SCORE.INTRA.SOLV.lig_0>
-49.3611

>  <SCORE.INTRA.VDW>
1.37642

>  <SCORE.INTRA.VDW.0>
-1.91858

>  <SCORE.INTRA.norm>
0.150021

>  <SCORE.RESTR>
1.4695

>  <SCORE.RESTR.CAVITY>
1.4695

>  <SCORE.RESTR.norm>
0.0474032

>  <SCORE.SYSTEM>
0

>  <SCORE.SYSTEM.CONST>
0

>  <SCORE.SYSTEM.DIHEDRAL>
0

>  <SCORE.SYSTEM.SOLV>
0

>  <SCORE.SYSTEM.norm>
0

>  <SCORE.heavy>
31

>  <SCORE.norm>
0.204245

>  <RMSD>
19.817

$$$$
ligand
 OpenBabel11021811473D
libRbt.so/2013.1/901 2013/11/27
 31 33  0  0  0  0  0  0  0  0999 V2000
   11.3916   27.3184   20.7087 P   0  0  1  0  0  0  0  0  0  0  0  0
   12.4777   28.1529   21.3391 O   0  0  0  0  0  0  0  0  0  0  0  0
   11.1087   26.1402   21.6025 O   0  5  0  0  0  0  0  0  0  0  0  0
   10.1948   28.2163   20.5564 O   0  0  0  0  0  0  0  0  0  0  0  0
   12.9261   25.9235   19.1056 C   0  0  0  0  0  0  0  0  0  0  0  0
   11.7951   26.7551   19.2602 O   0  0  0  0  0  0  0  0  0  0  0  0
   13.2306   25.7609   17.6186 C   0  0  1  0  0  0  0  0  0  0  0  0
   13.0505   26.9970   16.9565 O   0  0  0  0  0  0  0  0  0  0  0  0
   14.6669   25.3029   17.4292 C   0  0  1  0  0  0  0  0  0  0  0  0
   14.9255   24.2658   18.3375 O   0  0  0  0  0  0  0  0  0  0  0  0
   14.9402   24.8023   16.0209 C   0  0  1  0  0  0  0  0  0  0  0  0
   14.4966   23.4751   15.9320 O   0  0  0  0  0  0  0  0  0  0  0  0
   14.2045   25.6456   14.9928 C   0  0  0  0  0  0  0  0  0  0  0  0
   12.5737   24.6204   12.9411 N   0  0  0  0  0  0  0  0  0  0  0  0
   11.7485   24.0640   11.9881 C   0  0  0  0  0  0  0  0  0  0  0  0
   10.5593   23.8830   12.2329 O   0  0  0  0  0  0  0  0  0  0  0  0
   12.2477   23.7043   10.7571 N   0  0  0  0  0  0  0  0  0  0  0  0
   13.5813   23.9093   10.4612 C   0  0  0  0  0  0  0  0  0  0  0  0
   14.4217   24.4694   11.4168 C   0  0  1  0  0  0  0  0  0  0  0  0
   14.0194   23.6028    9.3505 O   0  0  0  0  0  0  0  0  0  0  0  0
   16.5888   25.2339   12.0792 C   0  0  2  0  0  0  0  0  0  0  0  0
   15.7560   24.6753   11.1285 N   0  0  0  0  0  0  0  0  0  0  0  0
   17.9372   25.4413   11.7865 C   0  0  0  0  0  0  0  0  0  0  0  0
   18.7848   25.9977   12.7373 C   0  0  1  0  0  0  0  0  0  0  0  0
   20.2254   26.2020   12.3894 C   0  0  0  0  0  0  0  0  0  0  0  0
   18.2797   26.3570   13.9960 C   0  0  1  0  0  0  0  0  0  0  0  0
   19.1611   26.9701   15.0494 C   0  0  0  0  0  0  0  0  0  0  0  0
   16.9341   26.1472   14.2857 C   0  0  0  0  0  0  0  0  0  0  0  0
   16.0827   25.5846   13.3330 C   0  0  1  0  0  0  0  0  0  0  0  0
   13.9108   24.8219   12.6644 C   0  0  1  0  0  0  0  0  0  0  0  0
   14.7427   25.3728   13.6204 N   0  0  0  0  0  0  0  0  0  0  0  0
  1  2  1  1  0  0  0
  1  3  1  0  0  0  0
  1  4  2  0  0  0  0
  1  6  1  0  0  0  0
  5  6  1  0  0  0  0
  7  5  1  1  0  0  0
  7  8  1  0  0  0  0
  7  9  1  0  0  0  0
  9 10  1  1  0  0  0
  9 11  1  0  0  0  0
 11 12  1  1  0  0  0
 11 13  1  0  0  0  0
 13 31  1  0  0  0  0
 14 15  1  0  0  0  0
 15 16  2  0  0  0  0
 15 17  1  0  0  0  0
 17 18  1  0  0  0  0
 18 20  2  0  0  0  0
 19 18  1  6  0  0  0
 19 22  1  0  0  0  0
 19 30  1  0  0  0  0
 21 23  1  1  0  0  0
 21 29  1  0  0  0  0
 21 22  1  0  0  0  0
 23 24  1  0  0  0  0
 24 25  1  6  0  0  0
 24 26  1  0  0  0  0
 26 27  1  6  0  0  0
 26 28  1  0  0  0  0
 29 28  1  6  0  0  0
 29 31  1  0  0  0  0
 30 14  1  6  0  0  0
 30 31  1  0  0  0  0
M  CHG  1   3  -1
M  END
>  <CHROM.1>
-169.11181565,59.50437652,40.42078673,45.61293870,-81.69435863,165.77332488
-58.84376874,14.18975970,25.57583752,15.30955404,2.00203692,0.18967844,1.24519169

>  <Name>
ligand

>  <RI>
0

>  <Rbt.Current_Directory>
/home/itssahil/PROJECTS/Mol_Feturizer/New_Systems/rnas/3F2T

>  <Rbt.Executable>
rbdock ($Id: //depot/dev/client3/rdock/2013.1/src/exe/rbdock.cxx#4 $)

>  <Rbt.Library>
libRbt.so (2013.1, Build901 2013/11/27)

>  <Rbt.Parameter_File>
/export/apps/rDock/src/rDock_2013.1_src/data/scripts/dock_solv.prm

>  <Rbt.Receptor>
prm/blind_docking_40.prm

>  <SCORE>
9.09392

>  <SCORE.INTER>
2.09279

>  <SCORE.INTER.CONST>
1

>  <SCORE.INTER.POLAR>
0

>  <SCORE.INTER.ROT>
7

>  <SCORE.INTER.SOLV>
8.70712

>  <SCORE.INTER.VDW>
-9.77385

>  <SCORE.INTER.norm>
0.0675094

>  <SCORE.INTRA>
4.52201

>  <SCORE.INTRA.DIHEDRAL>
1.3907

>  <SCORE.INTRA.DIHEDRAL.0>
4.64198

>  <SCORE.INTRA.POLAR>
0

>  <SCORE.INTRA.POLAR.0>
0

>  <SCORE.INTRA.REPUL>
0

>  <SCORE.INTRA.REPUL.0>
0

>  <SCORE.INTRA.SOLV>
-0.478416

>  <SCORE.INTRA.SOLV.lig_0>
-49.3611

>  <SCORE.INTRA.VDW>
4.06587

>  <SCORE.INTRA.VDW.0>
-1.91858

>  <SCORE.INTRA.norm>
0.145871

>  <SCORE.RESTR>
2.47911

>  <SCORE.RESTR.CAVITY>
2.47911

>  <SCORE.RESTR.norm>
0.0799713

>  <SCORE.SYSTEM>
0

>  <SCORE.SYSTEM.CONST>
0

>  <SCORE.SYSTEM.DIHEDRAL>
0

>  <SCORE.SYSTEM.SOLV>
0

>  <SCORE.SYSTEM.norm>
0

>  <SCORE.heavy>
31

>  <SCORE.norm>
0.293352

>  <RMSD>
19.835

$$$$
ligand
 OpenBabel11021811473D
libRbt.so/2013.1/901 2013/11/27
 31 33  0  0  0  0  0  0  0  0999 V2000
   15.9563   24.7298   13.8509 P   0  0  1  0  0  0  0  0  0  0  0  0
   15.1763   24.5278   12.5765 O   0  0  0  0  0  0  0  0  0  0  0  0
   16.2462   23.3826   14.4575 O   0  5  0  0  0  0  0  0  0  0  0  0
   17.2128   25.4647   13.4726 O   0  0  0  0  0  0  0  0  0  0  0  0
   13.8922   25.1899   15.3996 C   0  0  0  0  0  0  0  0  0  0  0  0
   15.1624   25.6026   14.9400 O   0  0  0  0  0  0  0  0  0  0  0  0
   13.2137   26.3554   16.1147 C   0  0  1  0  0  0  0  0  0  0  0  0
   11.8513   26.0506   16.3378 O   0  0  0  0  0  0  0  0  0  0  0  0
   13.8893   26.6091   17.4518 C   0  0  1  0  0  0  0  0  0  0  0  0
   15.1810   27.0994   17.2104 O   0  0  0  0  0  0  0  0  0  0  0  0
   13.1345   27.6126   18.3073 C   0  0  1  0  0  0  0  0  0  0  0  0
   12.6750   28.6428   17.4745 O   0  0  0  0  0  0  0  0  0  0  0  0
   11.9475   26.9568   18.9933 C   0  0  0  0  0  0  0  0  0  0  0  0
   12.1227   27.7290   21.6938 N   0  0  0  0  0  0  0  0  0  0  0  0
   12.2096   28.0300   23.0357 C   0  0  0  0  0  0  0  0  0  0  0  0
   13.0834   27.5151   23.7271 O   0  0  0  0  0  0  0  0  0  0  0  0
   11.3191   28.9061   23.6133 N   0  0  0  0  0  0  0  0  0  0  0  0
   10.3352   29.5018   22.8485 C   0  0  0  0  0  0  0  0  0  0  0  0
   10.2393   29.2036   21.4938 C   0  0  1  0  0  0  0  0  0  0  0  0
    9.5518   30.3002   23.3666 O   0  0  0  0  0  0  0  0  0  0  0  0
    9.1651   29.4974   19.3773 C   0  0  2  0  0  0  0  0  0  0  0  0
    9.2572   29.7939   20.7238 N   0  0  0  0  0  0  0  0  0  0  0  0
    8.1719   30.0946   18.6003 C   0  0  0  0  0  0  0  0  0  0  0  0
    8.0671   29.7995   17.2461 C   0  0  1  0  0  0  0  0  0  0  0  0
    6.9876   30.4560   16.4452 C   0  0  0  0  0  0  0  0  0  0  0  0
    8.9685   28.8999   16.6572 C   0  0  1  0  0  0  0  0  0  0  0  0
    8.8952   28.5606   15.1937 C   0  0  0  0  0  0  0  0  0  0  0  0
    9.9575   28.3043   17.4355 C   0  0  0  0  0  0  0  0  0  0  0  0
   10.0611   28.5967   18.7967 C   0  0  1  0  0  0  0  0  0  0  0  0
   11.1386   28.3081   20.9184 C   0  0  1  0  0  0  0  0  0  0  0  0
   11.0440   28.0028   19.5741 N   0  0  0  0  0  0  0  0  0  0  0  0
  1  2  1  6  0  0  0
  1  3  1  0  0  0  0
  1  4  2  0  0  0  0
  1  6  1  0  0  0  0
  5  6  1  0  0  0  0
  7  5  1  1  0  0  0
  7  8  1  0  0  0  0
  7  9  1  0  0  0  0
  9 10  1  6  0  0  0
  9 11  1  0  0  0  0
 11 12  1  6  0  0  0
 11 13  1  0  0  0  0
 13 31  1  0  0  0  0
 14 15  1  0  0  0  0
 15 16  2  0  0  0  0
 15 17  1  0  0  0  0
 17 18  1  0  0  0  0
 18 20  2  0  0  0  0
 19 18  1  6  0  0  0
 19 22  1  0  0  0  0
 19 30  1  0  0  0  0
 21 23  1  1  0  0  0
 21 29  1  0  0  0  0
 21 22  1  0  0  0  0
 23 24  1  0  0  0  0
 24 25  1  6  0  0  0
 24 26  1  0  0  0  0
 26 27  1  6  0  0  0
 26 28  1  0  0  0  0
 29 28  1  6  0  0  0
 29 31  1  0  0  0  0
 30 14  1  6  0  0  0
 30 31  1  0  0  0  0
M  CHG  1   3  -1
M  END
>  <CHROM.1>
-164.83939505,57.45169303,168.13419211,68.17982520,-40.49878234,-167.24669297
85.77294452,12.11514795,27.52670524,18.01865656,-0.87422464,-0.50629905,1.40548839

>  <Name>
ligand

>  <RI>
0

>  <Rbt.Current_Directory>
/home/itssahil/PROJECTS/Mol_Feturizer/New_Systems/rnas/3F2T

>  <Rbt.Executable>
rbdock ($Id: //depot/dev/client3/rdock/2013.1/src/exe/rbdock.cxx#4 $)

>  <Rbt.Library>
libRbt.so (2013.1, Build901 2013/11/27)

>  <Rbt.Parameter_File>
/export/apps/rDock/src/rDock_2013.1_src/data/scripts/dock_solv.prm

>  <Rbt.Receptor>
prm/blind_docking_40.prm

>  <SCORE>
4.08463

>  <SCORE.INTER>
1.06268

>  <SCORE.INTER.CONST>
1

>  <SCORE.INTER.POLAR>
0

>  <SCORE.INTER.ROT>
7

>  <SCORE.INTER.SOLV>
10.435

>  <SCORE.INTER.VDW>
-11.0365

>  <SCORE.INTER.norm>
0.0342799

>  <SCORE.INTRA>
0.699945

>  <SCORE.INTRA.DIHEDRAL>
0.374431

>  <SCORE.INTRA.DIHEDRAL.0>
4.64198

>  <SCORE.INTRA.POLAR>
0

>  <SCORE.INTRA.POLAR.0>
0

>  <SCORE.INTRA.REPUL>
0

>  <SCORE.INTRA.REPUL.0>
0

>  <SCORE.INTRA.SOLV>
0.127273

>  <SCORE.INTRA.SOLV.lig_0>
-49.3611

>  <SCORE.INTRA.VDW>
0.449093

>  <SCORE.INTRA.VDW.0>
-1.91858

>  <SCORE.INTRA.norm>
0.0225789

>  <SCORE.RESTR>
2.32201

>  <SCORE.RESTR.CAVITY>
2.32201

>  <SCORE.RESTR.norm>
0.0749034

>  <SCORE.SYSTEM>
0

>  <SCORE.SYSTEM.CONST>
0

>  <SCORE.SYSTEM.DIHEDRAL>
0

>  <SCORE.SYSTEM.SOLV>
0

>  <SCORE.SYSTEM.norm>
0

>  <SCORE.heavy>
31

>  <SCORE.norm>
0.131762

>  <RMSD>
19.944

$$$$
