@<TRIPOS>MOLECULE
3F2T_rdock.pdb
 2288 2561 0 0 0
SMALL
GASTEIGER

@<TRIPOS>ATOM
      1  P         -4.3510   32.9970   21.9510 P.3     2  G2          0.1280
      2  C5'       -5.4810   31.0970   23.3930 C.3     2  G2          0.1795
      3  O5'       -5.1040   31.5880   22.1040 O.3     2  G2         -0.3259
      4  C4'       -6.3300   29.8390   23.2860 C.3     2  G2          0.1772
      5  O4'       -7.4190   30.0580   22.3510 O.3     2  G2         -0.3307
      6  C3'       -5.6230   28.6110   22.7280 C.3     2  G2          0.1860
      7  O3'       -4.8790   27.9210   23.7200 O.3     2  G2         -0.3112
      8  C2'       -6.8030   27.7960   22.2150 C.3     2  G2          0.2309
      9  O2'       -7.5600   27.2070   23.2550 O.3     2  G2         -0.2156
     10  C1'       -7.6000   28.9060   21.5410 C.3     2  G2          0.2408
     11  N1        -7.5560   27.2680   16.7110 N.ar    2  G2         -0.1709
     12  C2        -8.1020   26.6810   17.8310 C.ar    2  G2          0.2606
     13  N2        -8.7270   25.5080   17.6530 N.pl3   2  G2         -0.0859
     14  N3        -8.0510   27.2120   19.0450 N.ar    2  G2         -0.1918
     15  C4        -7.3900   28.3970   19.0560 C.ar    2  G2          0.1723
     16  C5        -6.8060   29.0610   17.9970 C.ar    2  G2          0.1748
     17  C6        -6.8760   28.4860   16.7040 C.ar    2  G2          0.3023
     18  O6        -6.4130   28.9300   15.6440 O.2     2  G2         -0.2633
     19  N7        -6.2210   30.2470   18.4200 N.ar    2  G2         -0.2173
     20  C8        -6.4600   30.2770   19.7030 C.ar    2  G2          0.1817
     21  N9        -7.1670   29.1860   20.1630 N.ar    2  G2         -0.2693
     22  OP1       -3.4480   33.2150   23.1020 O.3     2  G2         -0.1955
     23  OP2       -3.8120   33.0980   20.5770 O.co2   2  G2         -0.7863
     24  P         -3.4780   27.2740   23.2990 P.3     3  A3          0.2141
     25  C5'       -4.5490   24.8560   23.0950 C.3     3  A3          0.1812
     26  O5'       -3.9140   25.9750   22.4670 O.3     3  A3         -0.3114
     27  C4'       -4.9310   23.7990   22.0680 C.3     3  A3          0.1773
     28  O4'       -5.9270   24.3460   21.1580 O.3     3  A3         -0.3307
     29  C3'       -3.8100   23.3410   21.1360 C.3     3  A3          0.1860
     30  O3'       -2.9640   22.3420   21.7090 O.3     3  A3         -0.3112
     31  C2'       -4.6020   22.8600   19.9240 C.3     3  A3          0.2309
     32  O2'       -5.2900   21.6440   20.1510 O.3     3  A3         -0.2156
     33  C1'       -5.5890   24.0180   19.8160 C.3     3  A3          0.2408
     34  N1        -4.1850   26.1750   15.3180 N.ar    3  A3         -0.2040
     35  C2        -4.7100   24.9760   15.6090 C.ar    3  A3          0.2016
     36  N3        -5.0520   24.4750   16.7970 N.ar    3  A3         -0.2048
     37  C4        -4.8030   25.3580   17.7820 C.ar    3  A3          0.1692
     38  C5        -4.2640   26.6280   17.6360 C.ar    3  A3          0.1518
     39  C6        -3.9450   27.0420   16.3270 C.ar    3  A3          0.1919
     40  N6        -3.4230   28.2400   16.0470 N.pl3   3  A3         -0.1054
     41  N7        -4.1480   27.2590   18.8610 N.ar    3  A3         -0.2193
     42  C8        -4.6130   26.3740   19.7090 C.ar    3  A3          0.1816
     43  N9        -5.0310   25.2000   19.1350 N.ar    3  A3         -0.2693
     44  OP1       -2.7820   26.8460   24.5300 O.3     3  A3         -0.4373
     45  OP2       -2.8100   28.2130   22.3680 O.co2   3  A3         -0.5172
     46  P         -1.3740   22.4490   21.4870 P.3     4  U4          0.2141
     47  C5'       -1.7030   20.4150   19.8260 C.3     4  U4          0.1812
     48  O5'       -1.1380   21.7050   20.0880 O.3     4  U4         -0.3114
     49  C4'       -1.7420   20.1250   18.3330 C.3     4  U4          0.1773
     50  O4'       -2.6670   21.0410   17.6810 O.3     4  U4         -0.3307
     51  C3'       -0.4250   20.3320   17.5840 C.3     4  U4          0.1860
     52  O3'        0.4490   19.2180   17.6910 O.3     4  U4         -0.3112
     53  C2'       -0.9240   20.5440   16.1600 C.3     4  U4          0.2309
     54  O2'       -1.3150   19.3450   15.5170 O.3     4  U4         -0.2156
     55  C1'       -2.1300   21.4440   16.4260 C.3     4  U4          0.2420
     56  N1        -1.7480   22.9100   16.4410 N.ar    4  U4         -0.2534
     57  C2        -1.6460   23.5870   15.2370 C.ar    4  U4          0.3546
     58  O2        -1.8780   23.0690   14.1570 O.2     4  U4         -0.2443
     59  N3        -1.2750   24.9090   15.3440 N.ar    4  U4         -0.1530
     60  C4        -0.9890   25.6080   16.5070 C.ar    4  U4          0.2846
     61  O4        -0.6720   26.7910   16.4470 O.2     4  U4         -0.2650
     62  C5        -1.1040   24.8370   17.7200 C.ar    4  U4          0.0814
     63  C6        -1.4670   23.5500   17.6400 C.ar    4  U4          0.0870
     64  OP1       -0.7000   21.6770   22.5520 O.3     4  U4         -0.4373
     65  OP2       -1.0240   23.8760   21.2990 O.co2   4  U4         -0.5172
     66  P          2.0320   19.4620   17.7320 P.3     5  C5          0.2141
     67  C5'        2.3690   18.9270   15.1690 C.3     5  C5          0.1812
     68  O5'        2.3860   19.8840   16.2290 O.3     5  C5         -0.3114
     69  C4'        2.4290   19.6170   13.8150 C.3     5  C5          0.1773
     70  O4'        1.3910   20.6340   13.7420 O.3     5  C5         -0.3307
     71  C3'        3.7140   20.3820   13.5180 C.3     5  C5          0.1860
     72  O3'        4.7510   19.5350   13.0340 O.3     5  C5         -0.3112
     73  C2'        3.2280   21.3490   12.4450 C.3     5  C5          0.2309
     74  O2'        3.0810   20.7430   11.1740 O.3     5  C5         -0.2156
     75  C1'        1.8710   21.7570   13.0140 C.3     5  C5          0.2420
     76  N1         1.9670   22.9770   13.9050 N.ar    5  C5         -0.2535
     77  C2         2.0530   24.2590   13.3290 C.ar    5  C5          0.3532
     78  O2         2.0280   24.3820   12.0970 O.2     5  C5         -0.2443
     79  N3         2.1560   25.3410   14.1440 N.ar    5  C5         -0.1739
     80  C4         2.1840   25.1840   15.4720 C.ar    5  C5          0.1759
     81  N4         2.2850   26.2790   16.2310 N.pl3   5  C5         -0.1070
     82  C5         2.1050   23.8950   16.0800 C.ar    5  C5          0.0566
     83  C6         2.0020   22.8350   15.2680 C.ar    5  C5          0.0850
     84  OP1        2.6730   18.1630   18.0310 O.2     5  C5         -0.5172
     85  OP2        2.3050   20.6360   18.5950 O.co2   5  C5         -0.4373
     86  P          6.2930   19.9550   13.2100 P.3     6  U6          0.2141
     87  C5'        6.3290   20.2330   10.5860 C.3     6  U6          0.1812
     88  O5'        6.6520   20.7590   11.8720 O.3     6  U6         -0.3114
     89  C4'        6.2310   21.3500    9.5620 C.3     6  U6          0.1773
     90  O4'        5.1930   22.2880    9.9420 O.3     6  U6         -0.3307
     91  C3'        7.4760   22.2100    9.4500 C.3     6  U6          0.1860
     92  O3'        8.4080   21.5990    8.5850 O.3     6  U6         -0.3112
     93  C2'        6.9240   23.5090    8.8740 C.3     6  U6          0.2309
     94  O2'        6.7340   23.4570    7.4730 O.3     6  U6         -0.2156
     95  C1'        5.5720   23.6070    9.5750 C.3     6  U6          0.2420
     96  N1         5.5670   24.5060   10.7890 N.ar    6  U6         -0.2534
     97  C2         5.4280   25.8780   10.6220 C.ar    6  U6          0.3546
     98  O2         5.3120   26.4220    9.5370 O.2     6  U6         -0.2443
     99  N3         5.4270   26.6050   11.7880 N.ar    6  U6         -0.1530
    100  C4         5.5530   26.1170   13.0780 C.ar    6  U6          0.2846
    101  O4         5.5400   26.8990   14.0220 O.2     6  U6         -0.2650
    102  C5         5.6930   24.6850   13.1770 C.ar    6  U6          0.0814
    103  C6         5.6950   23.9530   12.0550 C.ar    6  U6          0.0870
    104  OP1        7.0800   18.7050   13.2370 O.2     6  U6         -0.5172
    105  OP2        6.3980   20.9200   14.3290 O.co2   6  U6         -0.4373
    106  P          9.9750   21.7270    8.8890 P.3     7  U7          0.2141
    107  C5'        9.8050   22.8890    6.4980 C.3     7  U7          0.1812
    108  O5'       10.5990   22.2130    7.4920 O.3     7  U7         -0.3114
    109  C4'       10.3400   24.2870    6.2060 C.3     7  U7          0.1773
    110  O4'        9.5110   25.2740    6.8910 O.3     7  U7         -0.3307
    111  C3'       11.7750   24.5330    6.6810 C.3     7  U7          0.1860
    112  O3'       12.4620   25.4560    5.8300 O.3     7  U7         -0.3112
    113  C2'       11.5130   25.1220    8.0580 C.3     7  U7          0.2309
    114  O2'       12.6140   25.8190    8.6070 O.3     7  U7         -0.2156
    115  C1'       10.3560   26.0540    7.7120 C.3     7  U7          0.2420
    116  N1         9.6550   26.5810    8.9250 N.ar    7  U7         -0.2534
    117  C2         9.0500   27.8210    8.8800 C.ar    7  U7          0.3546
    118  O2         9.0060   28.5100    7.8760 O.2     7  U7         -0.2443
    119  N3         8.4850   28.2230   10.0680 N.ar    7  U7         -0.1530
    120  C4         8.4760   27.5280   11.2680 C.ar    7  U7          0.2846
    121  O4         7.9280   28.0100   12.2480 O.2     7  U7         -0.2650
    122  C5         9.1320   26.2510   11.2410 C.ar    7  U7          0.0814
    123  C6         9.6910   25.8430   10.0980 C.ar    7  U7          0.0870
    124  OP1       10.4820   20.3730    9.1940 O.2     7  U7         -0.5172
    125  OP2       10.1550   22.8040    9.8870 O.co2   7  U7         -0.4373
    126  P         14.0010   25.8310    6.0750 P.3     8  C8          0.2141
    127  C5'       13.3770   28.3340    5.5580 C.3     8  C8          0.1812
    128  O5'       13.9640   27.3880    6.4530 O.3     8  C8         -0.3114
    129  C4'       13.2700   29.7210    6.1750 C.3     8  C8          0.1773
    130  O4'       12.1090   29.8100    7.0520 O.3     8  C8         -0.3307
    131  C3'       14.4140   30.1570    7.0790 C.3     8  C8          0.1860
    132  O3'       15.5830   30.5210    6.3430 O.3     8  C8         -0.3112
    133  C2'       13.7600   31.3490    7.7710 C.3     8  C8          0.2309
    134  O2'       13.6840   32.4990    6.9510 O.3     8  C8         -0.2156
    135  C1'       12.3630   30.7910    8.0530 C.3     8  C8          0.2420
    136  N1        12.2410   30.1870    9.4390 N.ar    8  C8         -0.2535
    137  C2        12.1020   31.0200   10.5690 C.ar    8  C8          0.3532
    138  O2        12.0640   32.2480   10.4260 O.2     8  C8         -0.2443
    139  N3        12.0040   30.4550   11.8010 N.ar    8  C8         -0.1739
    140  C4        12.0500   29.1260   11.9340 C.ar    8  C8          0.1759
    141  N4        11.9470   28.6140   13.1640 N.pl3   8  C8         -0.1070
    142  C5        12.2040   28.2620   10.8080 C.ar    8  C8          0.0566
    143  C6        12.2950   28.8280    9.5970 C.ar    8  C8          0.0850
    144  OP1       14.7050   25.6730    4.7830 O.2     8  C8         -0.5172
    145  OP2       14.4880   25.0940    7.2640 O.co2   8  C8         -0.4373
    146  P         17.0410   30.3470    7.0030 P.3     9  G9          0.2141
    147  C5'       16.8740   32.7980    7.9280 C.3     9  G9          0.1812
    148  O5'       17.0440   31.4130    8.1930 O.3     9  G9         -0.3114
    149  C4'       16.6910   33.5400    9.2340 C.3     9  G9          0.1773
    150  O4'       15.4500   33.1470    9.8840 O.3     9  G9         -0.3307
    151  C3'       17.7540   33.2330   10.2720 C.3     9  G9          0.1860
    152  O3'       18.9160   33.9680    9.9910 O.3     9  G9         -0.3112
    153  C2'       17.0400   33.7120   11.5290 C.3     9  G9          0.2309
    154  O2'       16.9650   35.1200   11.6050 O.3     9  G9         -0.2156
    155  C1'       15.6510   33.1280   11.2910 C.3     9  G9          0.2408
    156  N1        14.4750   30.1160   15.2480 N.ar    9  G9         -0.1709
    157  C2        14.4100   31.4900   15.1520 C.ar    9  G9          0.2606
    158  N2        13.9830   32.1470   16.2420 N.pl3   9  G9         -0.0859
    159  N3        14.7430   32.1720   14.0600 N.ar    9  G9         -0.1918
    160  C4        15.1550   31.3590   13.0530 C.ar    9  G9          0.1723
    161  C5        15.2530   29.9840   13.0550 C.ar    9  G9          0.1748
    162  C6        14.9000   29.2670   14.2240 C.ar    9  G9          0.3023
    163  O6        14.9270   28.0420   14.4030 O.2     9  G9         -0.2633
    164  N7        15.7140   29.5190   11.8320 N.ar    9  G9         -0.2173
    165  C8        15.8830   30.6000   11.1240 C.ar    9  G9          0.1817
    166  N9        15.5540   31.7570   11.7940 N.ar    9  G9         -0.2693
    167  OP1       18.0480   30.7580    6.0010 O.2     9  G9         -0.5172
    168  OP2       17.1290   29.0030    7.6200 O.co2   9  G9         -0.4373
    169  P         20.3530   33.4680   10.4870 P.3    10  G10         0.2141
    170  C5'       20.9020   35.8980    9.7950 C.3    10  G10         0.1812
    171  O5'       21.0920   34.8550   10.7370 O.3    10  G10        -0.3114
    172  C4'       22.1980   36.6390    9.5610 C.3    10  G10         0.1773
    173  O4'       22.4490   37.4970   10.7040 O.3    10  G10        -0.3307
    174  C3'       23.4360   35.7580    9.4220 C.3    10  G10         0.1860
    175  O3'       24.3450   36.3830    8.5210 O.3    10  G10        -0.3112
    176  C2'       23.9760   35.7420   10.8540 C.3    10  G10         0.2309
    177  O2'       25.3540   35.4360   10.9350 O.3    10  G10        -0.2156
    178  C1'       23.7190   37.1920   11.2390 C.3    10  G10         0.2408
    179  N1        24.6130   40.7020   14.8140 N.ar   10  G10        -0.1709
    180  C2        24.6860   40.8070   13.4490 C.ar   10  G10         0.2606
    181  N2        25.0510   41.9980   12.9670 N.pl3  10  G10        -0.0859
    182  N3        24.4230   39.8140   12.6130 N.ar   10  G10        -0.1918
    183  C4        24.0720   38.6750   13.2640 C.ar   10  G10         0.1723
    184  C5        23.9690   38.4700   14.6220 C.ar   10  G10         0.1748
    185  C6        24.2540   39.5480   15.5020 C.ar   10  G10         0.3023
    186  O6        24.2260   39.5670   16.7390 O.2    10  G10        -0.2633
    187  N7        23.5780   37.1600   14.8860 N.ar   10  G10        -0.2173
    188  C8        23.4580   36.6110   13.7080 C.ar   10  G10         0.1817
    189  N9        23.7400   37.4730   12.6750 N.ar   10  G10        -0.2693
    190  OP1       21.0180   32.7770    9.3600 O.2    10  G10        -0.5172
    191  OP2       20.1950   32.7890   11.7920 O.co2  10  G10        -0.4373
    192  P         25.3810   35.5260    7.6490 P.3    11  G11         0.2141
    193  C5'       25.6310   37.7970    6.3710 C.3    11  G11         0.1812
    194  O5'       26.2670   36.6680    6.9660 O.3    11  G11        -0.3114
    195  C4'       26.4490   39.0510    6.6040 C.3    11  G11         0.1773
    196  O4'       26.1220   39.5900    7.8990 O.3    11  G11        -0.3307
    197  C3'       27.9490   38.8350    6.6380 C.3    11  G11         0.1860
    198  O3'       28.4580   38.9700    5.3280 O.3    11  G11        -0.3112
    199  C2'       28.4390   39.9610    7.5370 C.3    11  G11         0.2309
    200  O2'       28.6250   41.1630    6.8180 O.3    11  G11        -0.2156
    201  C1'       27.2760   40.1370    8.5060 C.3    11  G11         0.2408
    202  N1        27.8480   41.0340   13.4830 N.ar   11  G11        -0.1709
    203  C2        27.7440   41.9260   12.4430 C.ar   11  G11         0.2606
    204  N2        27.7910   43.2280   12.7560 N.pl3  11  G11        -0.0859
    205  N3        27.5970   41.5650   11.1780 N.ar   11  G11        -0.1918
    206  C4        27.5700   40.2170   11.0270 C.ar   11  G11         0.1723
    207  C5        27.6620   39.2490   11.9990 C.ar   11  G11         0.1748
    208  C6        27.8130   39.6470   13.3510 C.ar   11  G11         0.3023
    209  O6        27.9070   38.9310   14.3550 O.2    11  G11        -0.2633
    210  N7        27.5850   37.9830   11.4380 N.ar   11  G11        -0.2173
    211  C8        27.4490   38.2060   10.1620 C.ar   11  G11         0.1817
    212  N9        27.4420   39.5400    9.8360 N.ar   11  G11        -0.2693
    213  OP1       24.5990   34.8210    6.6040 O.2    11  G11        -0.5172
    214  OP2       26.2740   34.7730    8.5620 O.co2  11  G11        -0.4373
    215  P         29.7140   38.0940    4.8550 P.3    12  G12         0.2141
    216  C5'       31.0160   40.3390    4.5520 C.3    12  G12         0.1812
    217  O5'       30.9640   39.0530    5.1440 O.3    12  G12        -0.3114
    218  C4'       32.0100   41.1830    5.3020 C.3    12  G12         0.1773
    219  O4'       31.5290   41.3250    6.6600 O.3    12  G12        -0.3307
    220  C3'       33.3890   40.5590    5.4320 C.3    12  G12         0.1860
    221  O3'       34.2140   40.9320    4.3180 O.3    12  G12        -0.3112
    222  C2'       33.8820   41.1640    6.7440 C.3    12  G12         0.2309
    223  O2'       34.3860   42.4690    6.5460 O.3    12  G12        -0.2156
    224  C1'       32.6040   41.2290    7.5790 C.3    12  G12         0.2408
    225  N1        30.9880   39.7690   12.2010 N.ar   12  G12        -0.1709
    226  C2        31.1210   41.0370   11.6870 C.ar   12  G12         0.2606
    227  N2        30.7770   42.0520   12.4850 N.pl3  12  G12        -0.0859
    228  N3        31.5610   41.2930   10.4640 N.ar   12  G12        -0.1918
    229  C4        31.8640   40.1610    9.7740 C.ar   12  G12         0.1723
    230  C5        31.7610   38.8580   10.2020 C.ar   12  G12         0.1748
    231  C6        31.2950   38.5980   11.5110 C.ar   12  G12         0.3023
    232  O6        31.1400   37.5010   12.0580 O.2    12  G12        -0.2633
    233  N7        32.1580   37.9820    9.2100 N.ar   12  G12        -0.2173
    234  C8        32.4880   38.7570    8.2170 C.ar   12  G12         0.1817
    235  N9        32.3460   40.0970    8.4820 N.ar   12  G12        -0.2693
    236  OP1       29.5610   37.9110    3.3950 O.2    12  G12        -0.5172
    237  OP2       29.8710   36.9120    5.7390 O.co2  12  G12        -0.4373
    238  P         35.6440   40.2360    4.0350 P.3    13  C13         0.2141
    239  C5'       37.9610   40.2660    5.1800 C.3    13  C13         0.1812
    240  O5'       36.6320   40.7610    5.1700 O.3    13  C13        -0.3114
    241  C4'       38.9740   41.3890    5.2700 C.3    13  C13         0.1773
    242  O4'       38.8470   42.0420    6.5480 O.3    13  C13        -0.3307
    243  C3'       40.4130   40.9210    5.1980 C.3    13  C13         0.1860
    244  O3'       40.8470   41.0680    3.8740 O.3    13  C13        -0.3112
    245  C2'       41.1750   41.8840    6.0960 C.3    13  C13         0.2309
    246  O2'       41.8460   42.8870    5.3590 O.3    13  C13        -0.2156
    247  C1'       40.1050   42.5240    6.9670 C.3    13  C13         0.2420
    248  N1        40.2840   42.2200    8.4140 N.ar   13  C13        -0.2535
    249  C2        41.0810   43.0610    9.2040 C.ar   13  C13         0.3532
    250  O2        41.6100   44.0540    8.6910 O.2    13  C13        -0.2443
    251  N3        41.2370   42.7640   10.5210 N.ar   13  C13        -0.1739
    252  C4        40.6310   41.6900   11.0450 C.ar   13  C13         0.1759
    253  N4        40.8110   41.4420   12.3480 N.pl3  13  C13        -0.1070
    254  C5        39.8210   40.8180   10.2570 C.ar   13  C13         0.0566
    255  C6        39.6760   41.1200    8.9610 C.ar   13  C13         0.0850
    256  OP1       36.1590   40.7700    2.7600 O.2    13  C13        -0.5172
    257  OP2       35.4810   38.7810    4.2260 O.co2  13  C13        -0.4373
    258  P         41.9970   40.1400    3.2660 P.3    14  A14         0.2141
    259  C5'       40.6680   40.9150    1.1310 C.3    14  A14         0.1812
    260  O5'       41.8840   40.4470    1.6970 O.3    14  A14        -0.3114
    261  C4'       40.9000   42.0020    0.0940 C.3    14  A14         0.1773
    262  O4'       40.2810   43.2290    0.5440 O.3    14  A14        -0.3307
    263  C3'       42.3340   42.4180   -0.1990 C.3    14  A14         0.1860
    264  O3'       42.9700   41.5100   -1.0770 O.3    14  A14        -0.3112
    265  C2'       42.0890   43.7570   -0.8810 C.3    14  A14         0.2309
    266  O2'       41.6900   43.6260   -2.2320 O.3    14  A14        -0.2156
    267  C1'       40.9650   44.3290   -0.0170 C.3    14  A14         0.2408
    268  N1        42.9630   48.8720    1.3310 N.ar   14  A14        -0.2040
    269  C2        42.4660   48.4180    0.1720 C.ar   14  A14         0.2016
    270  N3        41.9520   47.2190   -0.1080 N.ar   14  A14        -0.2048
    271  C4        41.9780   46.4230    0.9720 C.ar   14  A14         0.1692
    272  C5        42.4510   46.7440    2.2300 C.ar   14  A14         0.1518
    273  C6        42.9710   48.0470    2.4000 C.ar   14  A14         0.1919
    274  N6        43.4700   48.4990    3.5560 N.pl3  14  A14        -0.1054
    275  N7        42.3090   45.6690    3.0930 N.ar   14  A14        -0.2193
    276  C8        41.7630   44.7350    2.3500 C.ar   14  A14         0.1816
    277  N9        41.5220   45.1300    1.0640 N.ar   14  A14        -0.2693
    278  OP1       41.6000   38.7340    3.5170 O.2    14  A14        -0.5172
    279  OP2       43.3260   40.6480    3.7150 O.co2  14  A14        -0.4373
    280  P         44.5690   41.4730   -1.1660 P.3    15  G15         0.2141
    281  C5'       46.0190   43.4690   -1.9740 C.3    15  G15         0.1812
    282  O5'       44.9660   43.0150   -1.1610 O.3    15  G15        -0.3114
    283  C4'       46.2130   44.9510   -1.7700 C.3    15  G15         0.1773
    284  O4'       45.0880   45.5410   -1.0590 O.3    15  G15        -0.3307
    285  C3'       47.3910   45.2690   -0.8900 C.3    15  G15         0.1860
    286  O3'       48.5460   45.1990   -1.6470 O.3    15  G15        -0.3112
    287  C2'       47.0580   46.6820   -0.4610 C.3    15  G15         0.2309
    288  O2'       47.2090   47.6110   -1.5140 O.3    15  G15        -0.2156
    289  C1'       45.5850   46.4780   -0.1090 C.3    15  G15         0.2408
    290  N1        46.2830   47.1890    4.9300 N.ar   15  G15        -0.1709
    291  C2        46.5910   48.0310    3.8860 C.ar   15  G15         0.2606
    292  N2        47.1560   49.1990    4.2090 N.pl3  15  G15        -0.0859
    293  N3        46.3660   47.7440    2.6070 N.ar   15  G15        -0.1918
    294  C4        45.7920   46.5200    2.4410 C.ar   15  G15         0.1723
    295  C5        45.4490   45.6090    3.4200 C.ar   15  G15         0.1748
    296  C6        45.6950   45.9300    4.7800 C.ar   15  G15         0.3023
    297  O6        45.4560   45.2320    5.7750 O.2    15  G15        -0.2633
    298  N7        44.8850   44.4680    2.8600 N.ar   15  G15        -0.2173
    299  C8        44.8950   44.7060    1.5790 C.ar   15  G15         0.1817
    300  N9        45.4170   45.9340    1.2430 N.ar   15  G15        -0.2693
    301  OP1       44.9770   40.8830   -2.4630 O.2    15  G15        -0.5172
    302  OP2       45.0670   40.8810    0.0910 O.co2  15  G15        -0.4373
    303  P         49.6580   44.1480   -1.2010 P.3    16  G16         0.2141
    304  C5'       50.8510   46.3860   -0.5690 C.3    16  G16         0.1812
    305  O5'       50.5780   45.0270   -0.2310 O.3    16  G16        -0.3114
    306  C4'       51.0580   47.2590    0.6590 C.3    16  G16         0.1773
    307  O4'       49.8200   47.4690    1.3900 O.3    16  G16        -0.3307
    308  C3'       51.9610   46.7200    1.7520 C.3    16  G16         0.1860
    309  O3'       53.3100   46.7240    1.3700 O.3    16  G16        -0.3112
    310  C2'       51.6800   47.7770    2.8030 C.3    16  G16         0.2309
    311  O2'       52.1940   49.0450    2.4560 O.3    16  G16        -0.2156
    312  C1'       50.1620   47.7950    2.7330 C.3    16  G16         0.2408
    313  N1        49.3880   46.6360    7.6260 N.ar   16  G16        -0.1709
    314  C2        50.0050   47.7410    7.0790 C.ar   16  G16         0.2606
    315  N2        50.4670   48.6550    7.9390 N.pl3  16  G16        -0.0859
    316  N3        50.1490   47.9380    5.7730 N.ar   16  G16        -0.1918
    317  C4        49.6170   46.9190    5.0420 C.ar   16  G16         0.1723
    318  C5        48.9890   45.7800    5.4950 C.ar   16  G16         0.1748
    319  C6        48.8380   45.5870    6.8910 C.ar   16  G16         0.3023
    320  O6        48.3170   44.6330    7.4760 O.2    16  G16        -0.2633
    321  N7        48.5930   44.9820    4.4290 N.ar   16  G16        -0.2173
    322  C8        48.9770   45.6400    3.3710 C.ar   16  G16         0.1817
    323  N9        49.5950   46.8280    3.6660 N.ar   16  G16        -0.2693
    324  OP1       50.4170   43.7620   -2.4110 O.2    16  G16        -0.5172
    325  OP2       49.0040   43.0990   -0.3860 O.co2  16  G16        -0.4373
    326  P         54.3350   45.7980    2.1700 P.3    17  G17         0.2141
    327  C5'       55.0860   47.6740    3.8500 C.3    17  G17         0.1812
    328  O5'       54.3870   46.4530    3.6270 O.3    17  G17        -0.3114
    329  C4'       55.2020   47.9440    5.3370 C.3    17  G17         0.1773
    330  O4'       53.8840   47.9990    5.9390 O.3    17  G17        -0.3307
    331  C3'       55.9170   46.8600    6.1250 C.3    17  G17         0.1860
    332  O3'       57.3240   47.0150    6.0140 O.3    17  G17        -0.3112
    333  C2'       55.4070   47.1450    7.5320 C.3    17  G17         0.2309
    334  O2'       56.0450   48.2400    8.1470 O.3    17  G17        -0.2156
    335  C1'       53.9510   47.4900    7.2600 C.3    17  G17         0.2408
    336  N1        51.8130   44.2690   10.5560 N.ar   17  G17        -0.1709
    337  C2        52.6150   45.3610   10.7900 C.ar   17  G17         0.2606
    338  N2        52.8920   45.6370   12.0690 N.pl3  17  G17        -0.0859
    339  N3        53.1100   46.1340    9.8340 N.ar   17  G17        -0.1918
    340  C4        52.7370   45.7210    8.5960 C.ar   17  G17         0.1723
    341  C5        51.9460   44.6470    8.2560 C.ar   17  G17         0.1748
    342  C6        51.4180   43.8330    9.2910 C.ar   17  G17         0.3023
    343  O6        50.6900   42.8380    9.1860 O.2    17  G17        -0.2633
    344  N7        51.8030   44.5610    6.8770 N.ar   17  G17        -0.2173
    345  C8        52.5000   45.5660    6.4190 C.ar   17  G17         0.1817
    346  N9        53.0910   46.3170    7.4070 N.ar   17  G17        -0.2693
    347  OP1       55.6650   45.9590    1.5380 O.2    17  G17        -0.5172
    348  OP2       53.7230   44.4570    2.3110 O.co2  17  G17        -0.4373
    349  P         58.2930   45.7580    6.2230 P.3    18  U18         0.2141
    350  C5'       58.8430   46.3710    8.7310 C.3    18  U18         0.1812
    351  O5'       58.2020   45.4960    7.7980 O.3    18  U18        -0.3114
    352  C4'       58.4650   45.9940   10.1510 C.3    18  U18         0.1773
    353  O4'       57.0210   45.9720   10.2980 O.3    18  U18        -0.3307
    354  C3'       58.8610   44.5880   10.5540 C.3    18  U18         0.1860
    355  O3'       60.2210   44.5200   10.8760 O.3    18  U18        -0.3112
    356  C2'       57.9620   44.3560   11.7560 C.3    18  U18         0.2309
    357  O2'       58.4030   45.0330   12.9140 O.3    18  U18        -0.2156
    358  C1'       56.6650   44.9780   11.2480 C.3    18  U18         0.2420
    359  N1        55.7670   43.9710   10.6150 N.ar   18  U18        -0.2534
    360  C2        55.1130   43.0580   11.4180 C.ar   18  U18         0.3546
    361  O2        55.2230   43.0330   12.6290 O.2    18  U18        -0.2443
    362  N3        54.3130   42.1650   10.7500 N.ar   18  U18        -0.1530
    363  C4        54.1040   42.0950    9.3850 C.ar   18  U18         0.2846
    364  O4        53.3450   41.2460    8.9290 O.2    18  U18        -0.2650
    365  C5        54.8260   43.0730    8.6120 C.ar   18  U18         0.0814
    366  C6        55.6150   43.9530    9.2410 C.ar   18  U18         0.0870
    367  OP1       59.6630   46.1970    5.8830 O.3    18  U18        -0.4373
    368  OP2       57.6970   44.5740    5.5610 O.co2  18  U18        -0.5172
    369  P         61.1170   43.4750   10.0690 P.3    19  G19         0.2141
    370  C5'       61.2140   42.0000   12.2320 C.3    19  G19         0.1812
    371  O5'       60.8900   42.1010   10.8530 O.3    19  G19        -0.3114
    372  C4'       60.3530   40.9440   12.8900 C.3    19  G19         0.1773
    373  O4'       58.9550   41.2610   12.6810 O.3    19  G19        -0.3307
    374  C3'       60.4720   39.5620   12.2830 C.3    19  G19         0.1860
    375  O3'       61.6650   38.9120   12.6890 O.3    19  G19        -0.3112
    376  C2'       59.2140   38.9200   12.8440 C.3    19  G19         0.2309
    377  O2'       59.3370   38.6190   14.2180 O.3    19  G19        -0.2156
    378  C1'       58.2110   40.0540   12.6250 C.3    19  G19         0.2408
    379  N1        54.4430   37.9550    9.8880 N.ar   19  G19        -0.1709
    380  C2        54.7280   37.7970   11.2200 C.ar   19  G19         0.2606
    381  N2        53.9220   36.9750   11.9040 N.pl3  19  G19        -0.0859
    382  N3        55.7390   38.3990   11.8350 N.ar   19  G19        -0.1918
    383  C4        56.4540   39.1910   10.9930 C.ar   19  G19         0.1723
    384  C5        56.2420   39.4110    9.6500 C.ar   19  G19         0.1748
    385  C6        55.1670   38.7600    9.0070 C.ar   19  G19         0.3023
    386  O6        54.8270   38.8450    7.8170 O.2    19  G19        -0.2633
    387  N7        57.1830   40.2890    9.1370 N.ar   19  G19        -0.2173
    388  C8        57.9410   40.5790   10.1570 C.ar   19  G19         0.1817
    389  N9        57.5570   39.9550   11.3220 N.ar   19  G19        -0.2693
    390  OP1       62.5390   43.8760   10.2050 O.3    19  G19        -0.4373
    391  OP2       60.5100   43.3260    8.7290 O.co2  19  G19        -0.5172
    392  P         62.5760   38.2130   11.5690 P.3    20  A20         0.2141
    393  C5'       62.4140   35.7790   10.5330 C.3    20  A20         0.1812
    394  O5'       61.8930   36.7660   11.4350 O.3    20  A20        -0.3114
    395  C4'       61.6250   34.4750   10.6000 C.3    20  A20         0.1773
    396  O4'       62.0050   33.7520   11.7980 O.3    20  A20        -0.3307
    397  C3'       60.1040   34.6120   10.6760 C.3    20  A20         0.1860
    398  O3'       59.5110   34.5850    9.3810 O.3    20  A20        -0.3112
    399  C2'       59.6720   33.4120   11.5160 C.3    20  A20         0.2309
    400  O2'       59.4650   32.2360   10.7600 O.3    20  A20        -0.2156
    401  C1'       60.8560   33.2330   12.4510 C.3    20  A20         0.2408
    402  N1        58.6780   33.0200   17.1190 N.ar   20  A20        -0.2040
    403  C2        58.6300   32.1810   16.0720 C.ar   20  A20         0.2016
    404  N3        59.2170   32.2990   14.8790 N.ar   20  A20        -0.2048
    405  C4        59.9350   33.4380   14.8060 C.ar   20  A20         0.1692
    406  C5        60.0790   34.3940   15.7980 C.ar   20  A20         0.1518
    407  C6        59.4070   34.1550   17.0160 C.ar   20  A20         0.1919
    408  N6        59.4540   34.9940   18.0570 N.pl3  20  A20        -0.1054
    409  N7        60.8930   35.4300   15.3670 N.ar   20  A20        -0.2193
    410  C8        61.2180   35.0870   14.1430 C.ar   20  A20         0.1816
    411  N9        60.6790   33.8960   13.7410 N.ar   20  A20        -0.2693
    412  OP1       63.9520   38.0600   12.0970 O.3    20  A20        -0.4373
    413  OP2       62.3590   38.9510   10.3060 O.co2  20  A20        -0.5172
    414  P         58.2550   35.5270    9.0900 P.3    21  A21         0.2141
    415  C5'       56.6340   33.5140    9.5990 C.3    21  A21         0.1812
    416  O5'       57.0670   34.8360    9.9090 O.3    21  A21        -0.3114
    417  C4'       55.8480   32.9150   10.7540 C.3    21  A21         0.1773
    418  O4'       56.6570   32.8820   11.9550 O.3    21  A21        -0.3307
    419  C3'       54.6120   33.6960   11.1580 C.3    21  A21         0.1860
    420  O3'       53.5100   33.2840   10.3800 O.3    21  A21        -0.3112
    421  C2'       54.4220   33.3120   12.6210 C.3    21  A21         0.2309
    422  O2'       53.6430   32.1420   12.7790 O.3    21  A21        -0.2156
    423  C1'       55.8520   33.0850   13.1000 C.3    21  A21         0.2408
    424  N1        56.1280   35.4430   17.6720 N.ar   21  A21        -0.2040
    425  C2        55.5350   34.3030   17.2920 C.ar   21  A21         0.2016
    426  N3        55.5080   33.7460   16.0820 N.ar   21  A21        -0.2048
    427  C4        56.1820   34.4930   15.1840 C.ar   21  A21         0.1692
    428  C5        56.8410   35.6880   15.4250 C.ar   21  A21         0.1518
    429  C6        56.8010   36.1740   16.7530 C.ar   21  A21         0.1919
    430  N6        57.3910   37.3090   17.1450 N.pl3  21  A21        -0.1054
    431  N7        57.4260   36.1700   14.2630 N.ar   21  A21        -0.2193
    432  C8        57.1120   35.2720   13.3590 C.ar   21  A21         0.1816
    433  N9        56.3690   34.2300   13.8460 N.ar   21  A21        -0.2693
    434  OP1       57.9430   35.4600    7.6450 O.2    21  A21        -0.5172
    435  OP2       58.5410   36.8330    9.7210 O.co2  21  A21        -0.4373
    436  P         52.5090   34.3940    9.8380 P.3    22  A22         0.2141
    437  C5'       50.9400   34.4890   11.9550 C.3    22  A22         0.1812
    438  O5'       51.9750   35.1010   11.1750 O.3    22  A22        -0.3114
    439  C4'       49.9590   35.5160   12.4990 C.3    22  A22         0.1773
    440  O4'       50.6760   36.5470   13.2020 O.3    22  A22        -0.3307
    441  C3'       49.1430   36.2400   11.4440 C.3    22  A22         0.1860
    442  O3'       47.8320   35.6880   11.4170 O.3    22  A22        -0.3112
    443  C2'       49.1270   37.7120   11.8760 C.3    22  A22         0.2309
    444  O2'       47.8190   38.1800   12.1240 O.3    22  A22        -0.2156
    445  C1'       49.9370   37.7430   13.1650 C.3    22  A22         0.2408
    446  N1        52.2350   41.1780   16.2480 N.ar   22  A22        -0.2040
    447  C2        51.2980   40.2490   16.4960 C.ar   22  A22         0.2016
    448  N3        50.7420   39.3850   15.6440 N.ar   22  A22        -0.2048
    449  C4        51.2430   39.5400   14.3960 C.ar   22  A22         0.1692
    450  C5        52.2030   40.4520   13.9940 C.ar   22  A22         0.1518
    451  C6        52.7130   41.3070   14.9890 C.ar   22  A22         0.1919
    452  N6        53.6350   42.2380   14.7450 N.pl3  22  A22        -0.1054
    453  N7        52.4690   40.3300   12.6420 N.ar   22  A22        -0.2193
    454  C8        51.6780   39.3590   12.2550 C.ar   22  A22         0.1816
    455  N9        50.8990   38.8410   13.2580 N.ar   22  A22        -0.2693
    456  OP1       51.3700   33.7070    9.1800 O.3    22  A22        -0.4373
    457  OP2       53.3330   35.3740    9.0960 O.co2  22  A22        -0.5172
    458  P         47.3150   34.8670   10.1420 P.3    23  U23         0.2141
    459  C5'       46.7440   37.1320    8.9820 C.3    23  U23         0.1812
    460  O5'       46.2810   35.8880    9.4740 O.3    23  U23        -0.3114
    461  C4'       45.5650   38.0340    8.7220 C.3    23  U23         0.1773
    462  O4'       44.6640   37.3510    7.8220 O.3    23  U23        -0.3307
    463  C3'       44.7430   38.3560    9.9650 C.3    23  U23         0.1860
    464  O3'       44.6710   39.7620   10.1570 O.3    23  U23        -0.3112
    465  C2'       43.3710   37.7780    9.6740 C.3    23  U23         0.2309
    466  O2'       42.3680   38.6490   10.1090 O.3    23  U23        -0.2156
    467  C1'       43.3520   37.7130    8.1590 C.3    23  U23         0.2420
    468  N1        42.4280   36.6670    7.6640 N.ar   23  U23        -0.2534
    469  C2        41.1840   37.0320    7.1840 C.ar   23  U23         0.3546
    470  O2        40.7980   38.1860    7.1090 O.2    23  U23        -0.2443
    471  N3        40.3970   35.9870    6.7800 N.ar   23  U23        -0.1530
    472  C4        40.7260   34.6460    6.8090 C.ar   23  U23         0.2846
    473  O4        39.9110   33.8250    6.4090 O.2    23  U23        -0.2650
    474  C5        42.0320   34.3360    7.3250 C.ar   23  U23         0.0814
    475  C6        42.8150   35.3380    7.7300 C.ar   23  U23         0.0870
    476  OP1       46.5350   33.7060   10.6350 O.3    23  U23        -0.4373
    477  OP2       48.4660   34.6620    9.2180 O.co2  23  U23        -0.5172
    478  P         45.5890   40.4270   11.2780 P.3    24  U24         0.2141
    479  C5'       43.6900   40.0190   13.0250 C.3    24  U24         0.1812
    480  O5'       44.9920   39.7050   12.5630 O.3    24  U24        -0.3114
    481  C4'       43.6880   39.9490   14.5380 C.3    24  U24         0.1773
    482  O4'       43.8350   38.5630   14.9510 O.3    24  U24        -0.3307
    483  C3'       44.8270   40.7260   15.2040 C.3    24  U24         0.1860
    484  O3'       44.3360   41.3450   16.3740 O.3    24  U24        -0.3112
    485  C2'       45.8160   39.6290   15.5490 C.3    24  U24         0.2309
    486  O2'       46.6110   39.9730   16.6570 O.3    24  U24        -0.2156
    487  C1'       44.8590   38.4960   15.9080 C.3    24  U24         0.2420
    488  N1        45.4960   37.1660   15.8700 N.ar   24  U24        -0.2534
    489  C2        45.6140   36.4520   17.0390 C.ar   24  U24         0.3546
    490  O2        45.1780   36.8450   18.1000 O.2    24  U24        -0.2443
    491  N3        46.2450   35.2360   16.9220 N.ar   24  U24        -0.1530
    492  C4        46.7830   34.6790   15.7760 C.ar   24  U24         0.2846
    493  O4        47.3320   33.5800   15.8210 O.2    24  U24        -0.2650
    494  C5        46.6280   35.4950   14.5970 C.ar   24  U24         0.0814
    495  C6        46.0060   36.6800   14.6860 C.ar   24  U24         0.0870
    496  OP1       45.3300   41.8850   11.3360 O.3    24  U24        -0.4373
    497  OP2       46.9790   39.9520   11.0950 O.co2  24  U24        -0.5172
    498  P         44.7190   42.8470   16.7710 P.3    25  C25         0.2141
    499  C5'       46.8720   43.2040   18.1870 C.3    25  C25         0.1812
    500  O5'       46.3140   42.8120   16.9470 O.3    25  C25        -0.3114
    501  C4'       48.1900   43.9330   18.0240 C.3    25  C25         0.1773
    502  O4'       49.1830   43.0300   17.4760 O.3    25  C25        -0.3307
    503  C3'       48.1880   45.1290   17.0860 C.3    25  C25         0.1860
    504  O3'       47.8330   46.3060   17.7780 O.3    25  C25        -0.3112
    505  C2'       49.6520   45.2050   16.7010 C.3    25  C25         0.2309
    506  O2'       50.3960   45.8200   17.7240 O.3    25  C25        -0.2156
    507  C1'       50.0120   43.7280   16.5630 C.3    25  C25         0.2420
    508  N1        49.7730   43.1760   15.1780 N.ar   25  C25        -0.2535
    509  C2        50.6450   43.5050   14.1240 C.ar   25  C25         0.3532
    510  O2        51.6110   44.2470   14.3470 O.2    25  C25        -0.2443
    511  N3        50.4010   42.9890   12.8850 N.ar   25  C25        -0.1739
    512  C4        49.3460   42.1850   12.6890 C.ar   25  C25         0.1759
    513  N4        49.1330   41.7000   11.4650 N.pl3  25  C25        -0.1070
    514  C5        48.4550   41.8380   13.7460 C.ar   25  C25         0.0566
    515  C6        48.7020   42.3520   14.9550 C.ar   25  C25         0.0850
    516  OP1       44.1020   43.0750   18.1020 O.3    25  C25        -0.4373
    517  OP2       44.3990   43.7550   15.6430 O.co2  25  C25        -0.5172
    518  P         47.0600   47.4710   16.9990 P.3    26  C26         0.2141
    519  C5'       49.2230   48.8050   16.4290 C.3    26  C26         0.1812
    520  O5'       48.1770   47.9740   15.9660 O.3    26  C26        -0.3114
    521  C4'       50.0430   49.3270   15.2720 C.3    26  C26         0.1773
    522  O4'       50.7590   48.2310   14.6410 O.3    26  C26        -0.3307
    523  C3'       49.2450   49.9460   14.1360 C.3    26  C26         0.1860
    524  O3'       48.8910   51.2790   14.4300 O.3    26  C26        -0.3112
    525  C2'       50.2560   49.8470   13.0000 C.3    26  C26         0.2309
    526  O2'       51.2960   50.8050   13.0800 O.3    26  C26        -0.2156
    527  C1'       50.8050   48.4420   13.2380 C.3    26  C26         0.2420
    528  N1        49.9810   47.4040   12.5540 N.ar   26  C26        -0.2535
    529  C2        50.0100   47.2920   11.1550 C.ar   26  C26         0.3532
    530  O2        50.7420   48.0350   10.4950 O.2    26  C26        -0.2443
    531  N3        49.2360   46.3530   10.5520 N.ar   26  C26        -0.1739
    532  C4        48.4590   45.5590   11.2840 C.ar   26  C26         0.1759
    533  N4        47.7190   44.6560   10.6450 N.pl3  26  C26        -0.1070
    534  C5        48.4050   45.6620   12.7060 C.ar   26  C26         0.0566
    535  C6        49.1730   46.5870   13.2900 C.ar   26  C26         0.0850
    536  OP1       46.8050   48.5810   17.9510 O.3    26  C26        -0.4373
    537  OP2       45.9290   46.8420   16.2630 O.co2  26  C26        -0.5172
    538  P         47.4600   51.8300   13.9710 P.3    27  C27         0.2141
    539  C5'       48.6670   53.0980   12.0150 C.3    27  C27         0.1812
    540  O5'       47.6770   52.1590   12.4250 O.3    27  C27        -0.3114
    541  C4'       48.5750   53.3090   10.5170 C.3    27  C27         0.1773
    542  O4'       49.1640   52.1710    9.8310 O.3    27  C27        -0.3307
    543  C3'       47.1550   53.3840    9.9700 C.3    27  C27         0.1860
    544  O3'       46.6270   54.6970   10.1030 O.3    27  C27        -0.3112
    545  C2'       47.3850   52.9930    8.5150 C.3    27  C27         0.2309
    546  O2'       47.9220   54.0490    7.7440 O.3    27  C27        -0.2156
    547  C1'       48.4090   51.8730    8.6660 C.3    27  C27         0.2420
    548  N1        47.7730   50.5140    8.7700 N.ar   27  C27        -0.2535
    549  C2        47.4520   49.8110    7.5940 C.ar   27  C27         0.3532
    550  O2        47.7180   50.3140    6.4970 O.2    27  C27        -0.2443
    551  N3        46.8660   48.5860    7.6890 N.ar   27  C27        -0.1739
    552  C4        46.5950   48.0730    8.8900 C.ar   27  C27         0.1759
    553  N4        46.0180   46.8720    8.9380 N.pl3  27  C27        -0.1070
    554  C5        46.9040   48.7720   10.0960 C.ar   27  C27         0.0566
    555  C6        47.4830   49.9740    9.9920 C.ar   27  C27         0.0850
    556  OP1       47.2170   53.1050   14.6800 O.3    27  C27        -0.4373
    557  OP2       46.4750   50.7270   14.0580 O.co2  27  C27        -0.5172
    558  P         45.0720   54.9820    9.8520 P.3    28  G28         0.2141
    559  C5'       43.9230   54.3290    7.5780 C.3    28  G28         0.1812
    560  O5'       44.7060   53.9500    8.6900 O.3    28  G28        -0.3114
    561  C4'       43.8760   53.1810    6.5910 C.3    28  G28         0.1773
    562  O4'       44.7440   52.0940    7.0240 O.3    28  G28        -0.3307
    563  C3'       42.5120   52.5330    6.4460 C.3    28  G28         0.1860
    564  O3'       41.7170   53.2740    5.5390 O.3    28  G28        -0.3112
    565  C2'       42.9190   51.1880    5.8660 C.3    28  G28         0.2309
    566  O2'       43.2910   51.2940    4.5070 O.3    28  G28        -0.2156
    567  C1'       44.1330   50.8510    6.7270 C.3    28  G28         0.2408
    568  N1        42.3490   46.5430    8.8480 N.ar   28  G28        -0.1709
    569  C2        42.6150   46.8210    7.5240 C.ar   28  G28         0.2606
    570  N2        42.3680   45.8410    6.6430 N.pl3  28  G28        -0.0859
    571  N3        43.0840   47.9830    7.0890 N.ar   28  G28        -0.1918
    572  C4        43.2760   48.8710    8.0960 C.ar   28  G28         0.1723
    573  C5        43.0450   48.6860    9.4450 C.ar   28  G28         0.1748
    574  C6        42.5420   47.4360    9.9040 C.ar   28  G28         0.3023
    575  O6        42.2780   47.0840   11.0690 O.2    28  G28        -0.2633
    576  N7        43.3710   49.8370   10.1520 N.ar   28  G28        -0.2173
    577  C8        43.7800   50.6770    9.2400 C.ar   28  G28         0.1817
    578  N9        43.7600   50.1620    7.9670 N.ar   28  G28        -0.2693
    579  OP1       44.9590   56.3700    9.3470 O.2    28  G28        -0.5172
    580  OP2       44.3010   54.5560   11.0470 O.co2  28  G28        -0.4373
    581  P         40.1200   53.1850    5.5940 P.3    29  A29         0.2141
    582  C5'       40.0720   51.2000    3.8890 C.3    29  A29         0.1812
    583  O5'       39.8200   51.6590    5.2080 O.3    29  A29        -0.3114
    584  C4'       39.5910   49.7780    3.6740 C.3    29  A29         0.1773
    585  O4'       40.3730   48.8640    4.4810 O.3    29  A29        -0.3307
    586  C3'       38.1450   49.4960    4.0540 C.3    29  A29         0.1860
    587  O3'       37.2500   49.8990    3.0310 O.3    29  A29        -0.3112
    588  C2'       38.1870   47.9830    4.2140 C.3    29  A29         0.2309
    589  O2'       38.1120   47.2800    2.9900 O.3    29  A29        -0.2156
    590  C1'       39.5490   47.7780    4.8740 C.3    29  A29         0.2408
    591  N1        37.9810   45.0750    8.9900 N.ar   29  A29        -0.2040
    592  C2        37.8960   44.8320    7.6790 C.ar   29  A29         0.2016
    593  N3        38.3280   45.5850    6.6630 N.ar   29  A29        -0.2048
    594  C4        38.9090   46.7180    7.0980 C.ar   29  A29         0.1692
    595  C5        39.0710   47.1050    8.4130 C.ar   29  A29         0.1518
    596  C6        38.5730   46.2210    9.3980 C.ar   29  A29         0.1919
    597  N6        38.6530   46.4610   10.7070 N.pl3  29  A29        -0.1054
    598  N7        39.7200   48.3290    8.4840 N.ar   29  A29        -0.2193
    599  C8        39.9260   48.6540    7.2310 C.ar   29  A29         0.1816
    600  N9        39.4680   47.7230    6.3380 N.ar   29  A29        -0.2693
    601  OP1       39.5900   54.0720    4.5370 O.2    29  A29        -0.5172
    602  OP2       39.6840   53.3920    6.9910 O.co2  29  A29        -0.4373
    603  P         35.7400   50.3240    3.3820 P.3    30  C30         0.2141
    604  C5'       34.8010   47.9280    3.0640 C.3    30  C30         0.1812
    605  O5'       35.0910   48.9800    3.9490 O.3    30  C30        -0.3114
    606  C4'       34.4560   46.6690    3.8210 C.3    30  C30         0.1773
    607  O4'       35.5050   46.3260    4.7550 O.3    30  C30        -0.3307
    608  C3'       33.2130   46.7690    4.6730 C.3    30  C30         0.1860
    609  O3'       32.1090   46.5500    3.8590 O.3    30  C30        -0.3112
    610  C2'       33.4410   45.5930    5.6070 C.3    30  C30         0.2309
    611  O2'       33.2140   44.3530    4.9660 O.3    30  C30        -0.2156
    612  C1'       34.9270   45.7490    5.9110 C.3    30  C30         0.2420
    613  N1        35.2360   46.6000    7.1260 N.ar   30  C30        -0.2535
    614  C2        35.0770   46.0630    8.4190 C.ar   30  C30         0.3532
    615  O2        34.6790   44.9020    8.5590 O.2    30  C30        -0.2443
    616  N3        35.3730   46.8360    9.4990 N.ar   30  C30        -0.1739
    617  C4        35.8110   48.0870    9.3300 C.ar   30  C30         0.1759
    618  N4        36.0910   48.7990   10.4240 N.pl3  30  C30        -0.1070
    619  C5        35.9810   48.6550    8.0260 C.ar   30  C30         0.0566
    620  C6        35.6840   47.8850    6.9690 C.ar   30  C30         0.0850
    621  OP1       35.0500   50.6710    2.1240 O.2    30  C30        -0.5172
    622  OP2       35.7590   51.3200    4.4710 O.co2  30  C30        -0.4373
    623  P         30.6830   47.1270    4.2600 P.3    31  C31         0.2141
    624  C5'       29.9730   44.8100    5.2440 C.3    31  C31         0.1812
    625  O5'       30.3100   46.1720    5.4870 O.3    31  C31        -0.3114
    626  C4'       29.5260   44.1310    6.5220 C.3    31  C31         0.1773
    627  O4'       30.6190   44.1050    7.4760 O.3    31  C31        -0.3307
    628  C3'       28.3850   44.8340    7.2390 C.3    31  C31         0.1860
    629  O3'       27.1720   44.3460    6.7470 O.3    31  C31        -0.3112
    630  C2'       28.5880   44.4060    8.6850 C.3    31  C31         0.2309
    631  O2'       28.0510   43.1220    8.9140 O.3    31  C31        -0.2156
    632  C1'       30.1070   44.3170    8.7880 C.3    31  C31         0.2420
    633  N1        30.7900   45.4950    9.4630 N.ar   31  C31        -0.2535
    634  C2        30.8670   45.5300   10.8630 C.ar   31  C31         0.3532
    635  O2        30.3570   44.6070   11.5110 O.2    31  C31        -0.2443
    636  N3        31.5010   46.5670   11.4740 N.ar   31  C31        -0.1739
    637  C4        32.0460   47.5330   10.7430 C.ar   31  C31         0.1759
    638  N4        32.6510   48.5330   11.3810 N.pl3  31  C31        -0.1070
    639  C5        31.9820   47.5160    9.3170 C.ar   31  C31         0.0566
    640  C6        31.3560   46.4920    8.7240 C.ar   31  C31         0.0850
    641  OP1       29.7260   46.8230    3.1660 O.2    31  C31        -0.5172
    642  OP2       30.8630   48.5330    4.7250 O.co2  31  C31        -0.4373
    643  P         25.9110   45.3240    6.6920 P.3    32  G32         0.2141
    644  C5'       25.2450   43.6080    8.5880 C.3    32  G32         0.1812
    645  O5'       24.9050   44.7520    7.7950 O.3    32  G32        -0.3114
    646  C4'       24.9090   43.8540   10.0500 C.3    32  G32         0.1773
    647  O4'       25.9370   44.6220   10.7390 O.3    32  G32        -0.3307
    648  C3'       23.6150   44.6070   10.2660 C.3    32  G32         0.1860
    649  O3'       22.9670   43.9370   11.3130 O.3    32  G32        -0.3112
    650  C2'       24.0720   46.0280   10.6110 C.3    32  G32         0.2309
    651  O2'       23.1600   46.6880   11.4500 O.3    32  G32        -0.2156
    652  C1'       25.3730   45.7700   11.3500 C.3    32  G32         0.2408
    653  N1        29.0460   48.2810   13.8320 N.ar   32  G32        -0.1709
    654  C2        28.1870   47.3100   14.2860 C.ar   32  G32         0.2606
    655  N2        28.3140   46.9420   15.5650 N.pl3  32  G32        -0.0859
    656  N3        27.2640   46.7320   13.5410 N.ar   32  G32        -0.1918
    657  C4        27.2520   47.2140   12.2750 C.ar   32  G32         0.1723
    658  C5        28.0640   48.1860   11.7280 C.ar   32  G32         0.1748
    659  C6        29.0580   48.7960   12.5380 C.ar   32  G32         0.3023
    660  O6        29.8710   49.6850   12.2380 O.2    32  G32        -0.2633
    661  N7        27.7310   48.3990   10.3970 N.ar   32  G32        -0.2173
    662  C8        26.7510   47.5610   10.1720 C.ar   32  G32         0.1817
    663  N9        26.3900   46.8210   11.2700 N.ar   32  G32        -0.2693
    664  OP1       25.2570   45.1410    5.3780 O.2    32  G32        -0.5172
    665  OP2       26.3460   46.6750    7.1150 O.co2  32  G32        -0.4373
    666  P         21.4280   44.1470   11.6250 P.3    33  G33         0.2141
    667  C5'       20.8590   41.5950   11.5310 C.3    33  G33         0.1812
    668  O5'       21.0710   42.7530   12.3220 O.3    33  G33        -0.3114
    669  C4'       20.3390   40.4450   12.3720 C.3    33  G33         0.1773
    670  O4'       21.2270   40.2150   13.4900 O.3    33  G33        -0.3307
    671  C3'       18.9960   40.6870   13.0250 C.3    33  G33         0.1860
    672  O3'       17.9660   40.3430   12.1340 O.3    33  G33        -0.3112
    673  C2'       19.0390   39.7400   14.2100 C.3    33  G33         0.2309
    674  O2'       18.7870   38.3990   13.8330 O.3    33  G33        -0.2156
    675  C1'       20.4840   39.9150   14.6620 C.3    33  G33         0.2408
    676  N1        19.1830   41.7970   19.2360 N.ar   33  G33        -0.1709
    677  C2        18.7150   40.6710   18.5920 C.ar   33  G33         0.2606
    678  N2        17.7930   39.9420   19.2360 N.pl3  33  G33        -0.0859
    679  N3        19.1350   40.2770   17.3980 N.ar   33  G33        -0.1918
    680  C4        20.0710   41.1140   16.8780 C.ar   33  G33         0.1723
    681  C5        20.6000   42.2600   17.4400 C.ar   33  G33         0.1748
    682  C6        20.1490   42.6640   18.7170 C.ar   33  G33         0.3023
    683  O6        20.5030   43.6560   19.3630 O.2    33  G33        -0.2633
    684  N7        21.5390   42.8450   16.6000 N.ar   33  G33        -0.2173
    685  C8        21.5560   42.0510   15.5620 C.ar   33  G33         0.1817
    686  N9        20.6910   40.9780   15.6540 N.ar   33  G33        -0.2693
    687  OP1       20.6420   44.2890   10.3730 O.2    33  G33        -0.5172
    688  OP2       21.3890   45.2420   12.6190 O.co2  33  G33        -0.4373
    689  P         16.8420   41.4370   11.8410 P.3    34  U34         0.2141
    690  C5'       15.4660   39.8100   13.4090 C.3    34  U34         0.1812
    691  O5'       15.7610   41.1550   12.9930 O.3    34  U34        -0.3114
    692  C4'       14.7070   39.7750   14.7290 C.3    34  U34         0.1773
    693  O4'       15.6380   39.8010   15.8400 O.3    34  U34        -0.3307
    694  C3'       13.7880   40.9530   15.0080 C.3    34  U34         0.1860
    695  O3'       12.5640   40.8090   14.3350 O.3    34  U34        -0.3112
    696  C2'       13.6120   40.8110   16.5080 C.3    34  U34         0.2309
    697  O2'       12.7440   39.7550   16.8400 O.3    34  U34        -0.2156
    698  C1'       15.0370   40.4730   16.9360 C.3    34  U34         0.2420
    699  N1        15.8220   41.7080   17.2890 N.ar   34  U34        -0.2534
    700  C2        15.6230   42.3100   18.5190 C.ar   34  U34         0.3546
    701  O2        14.8630   41.8800   19.3730 O.2    34  U34        -0.2443
    702  N3        16.3670   43.4430   18.7270 N.ar   34  U34        -0.1530
    703  C4        17.2660   44.0310   17.8560 C.ar   34  U34         0.2846
    704  O4        17.8680   45.0480   18.1890 O.2    34  U34        -0.2650
    705  C5        17.4120   43.3540   16.5980 C.ar   34  U34         0.0814
    706  C6        16.6970   42.2500   16.3680 C.ar   34  U34         0.0870
    707  OP1       16.2320   41.1170   10.5310 O.2    34  U34        -0.5172
    708  OP2       17.4410   42.7740   12.0860 O.co2  34  U34        -0.4373
    709  P         11.7420   42.1190   13.9180 P.3    35  G35         0.2141
    710  C5'        9.7890   42.1320   15.6630 C.3    35  G35         0.1812
    711  O5'       11.0770   42.6170   15.2830 O.3    35  G35        -0.3114
    712  C4'        9.4010   42.6750   17.0220 C.3    35  G35         0.1773
    713  O4'       10.5210   42.5240   17.9320 O.3    35  G35        -0.3307
    714  C3'        9.1300   44.1670   17.0570 C.3    35  G35         0.1860
    715  O3'        7.8380   44.4610   16.5840 O.3    35  G35        -0.3112
    716  C2'        9.2980   44.4500   18.5440 C.3    35  G35         0.2309
    717  O2'        8.2270   43.9870   19.3360 O.3    35  G35        -0.2156
    718  C1'       10.5460   43.6260   18.8280 C.3    35  G35         0.2408
    719  N1        13.3510   47.5770   20.3630 N.ar   35  G35        -0.1709
    720  C2        12.1790   47.0900   20.8890 C.ar   35  G35         0.2606
    721  N2        11.6850   47.7340   21.9520 N.pl3  35  G35        -0.0859
    722  N3        11.5320   46.0430   20.4000 N.ar   35  G35        -0.1918
    723  C4        12.1620   45.5080   19.3200 C.ar   35  G35         0.1723
    724  C5        13.3230   45.9210   18.7230 C.ar   35  G35         0.1748
    725  C6        14.0050   47.0390   19.2550 C.ar   35  G35         0.3023
    726  O6        15.0590   47.5440   18.8520 O.2    35  G35        -0.2633
    727  N7        13.6400   45.1030   17.6440 N.ar   35  G35        -0.2173
    728  C8        12.6780   44.2280   17.6010 C.ar   35  G35         0.1817
    729  N9        11.7510   44.4090   18.5960 N.ar   35  G35        -0.2693
    730  OP1       10.6580   41.7020   12.9930 O.2    35  G35        -0.5172
    731  OP2       12.7240   43.1430   13.5190 O.co2  35  G35        -0.4373
    732  P          7.5450   45.8620   15.8660 P.3    36  G36         0.2141
    733  C5'        6.7610   47.0970   18.0830 C.3    36  G36         0.1812
    734  O5'        7.7440   46.9350   17.0400 O.3    36  G36        -0.3114
    735  C4'        7.1660   48.2260   19.0160 C.3    36  G36         0.1773
    736  O4'        8.5160   48.0270   19.5230 O.3    36  G36        -0.3307
    737  C3'        7.2660   49.5700   18.3360 C.3    36  G36         0.1860
    738  O3'        5.9810   50.1040   18.1650 O.3    36  G36        -0.3112
    739  C2'        8.1210   50.3520   19.3300 C.3    36  G36         0.2309
    740  O2'        7.4020   50.8040   20.4520 O.3    36  G36        -0.2156
    741  C1'        9.1210   49.2910   19.7670 C.3    36  G36         0.2408
    742  N1        13.6420   51.6550   19.4000 N.ar   36  G36        -0.1709
    743  C2        12.6040   51.8970   20.2620 C.ar   36  G36         0.2606
    744  N2        12.8100   52.8840   21.1370 N.pl3  36  G36        -0.0859
    745  N3        11.4630   51.2160   20.2700 N.ar   36  G36        -0.1918
    746  C4        11.4400   50.2530   19.3160 C.ar   36  G36         0.1723
    747  C5        12.4290   49.9390   18.4030 C.ar   36  G36         0.1748
    748  C6        13.6430   50.6750   18.4180 C.ar   36  G36         0.3023
    749  O6        14.6360   50.5560   17.6950 O.2    36  G36        -0.2633
    750  N7        12.0300   48.8860   17.5910 N.ar   36  G36        -0.2173
    751  C8        10.8290   48.5930   18.0180 C.ar   36  G36         0.1817
    752  N9        10.4050   49.3750   19.0660 N.ar   36  G36        -0.2693
    753  OP1        6.1210   45.8580   15.4550 O.3    36  G36        -0.4373
    754  OP2        8.5990   46.1070   14.8610 O.co2  36  G36        -0.5172
    755  P          5.5010   50.6640   16.7410 P.3    37  U37         0.2141
    756  C5'        5.5160   52.7140   18.3660 C.3    37  U37         0.1812
    757  O5'        5.1040   52.1680   17.1110 O.3    37  U37        -0.3114
    758  C4'        6.6850   53.6690   18.1970 C.3    37  U37         0.1773
    759  O4'        7.9640   53.0320   18.4220 O.3    37  U37        -0.3307
    760  C3'        6.8820   54.2320   16.8060 C.3    37  U37         0.1860
    761  O3'        5.7330   55.0180   16.4500 O.3    37  U37        -0.3112
    762  C2'        8.2160   54.9490   17.0380 C.3    37  U37         0.2309
    763  O2'        8.1080   56.1150   17.8230 O.3    37  U37        -0.2156
    764  C1'        8.9560   53.8870   17.8560 C.3    37  U37         0.2420
    765  N1         9.9780   53.1110   17.0500 N.ar   37  U37        -0.2534
    766  C2        11.2910   53.5620   17.0160 C.ar   37  U37         0.3546
    767  O2        11.6830   54.5490   17.6080 O.2    37  U37        -0.2443
    768  N3        12.1520   52.8100   16.2580 N.ar   37  U37        -0.1530
    769  C4        11.8490   51.6740   15.5320 C.ar   37  U37         0.2846
    770  O4        12.7390   51.1030   14.8940 O.2    37  U37        -0.2650
    771  C5        10.4620   51.2660   15.6100 C.ar   37  U37         0.0814
    772  C6         9.6000   51.9820   16.3460 C.ar   37  U37         0.0870
    773  OP1        4.2640   49.9430   16.3670 O.3    37  U37        -0.4373
    774  OP2        6.6430   50.7020   15.8020 O.co2  37  U37        -0.5172
    775  P          5.7640   56.4320   15.6550 P.3    38  A38         0.2141
    776  C5'        6.2890   57.1280   13.2040 C.3    38  A38         0.1812
    777  O5'        6.2720   56.0720   14.1810 O.3    38  A38        -0.3114
    778  C4'        7.6290   57.3080   12.4890 C.3    38  A38         0.1773
    779  O4'        7.7490   58.6860   12.0360 O.3    38  A38        -0.3307
    780  C3'        8.9180   57.0260   13.2770 C.3    38  A38         0.1860
    781  O3'        9.7590   56.2010   12.5010 O.3    38  A38        -0.3112
    782  C2'        9.5590   58.4060   13.3990 C.3    38  A38         0.2309
    783  O2'       10.9680   58.3580   13.4330 O.3    38  A38        -0.2156
    784  C1'        9.1250   58.9740   12.0680 C.3    38  A38         0.2408
    785  N1         9.7280   62.6960    8.5780 N.ar   38  A38        -0.2040
    786  C2         9.4340   61.3950    8.4650 C.ar   38  A38         0.2016
    787  N3         9.2920   60.4840    9.4240 N.ar   38  A38        -0.2048
    788  C4         9.4820   61.0290   10.6370 C.ar   38  A38         0.1692
    789  C5         9.7880   62.3460   10.9180 C.ar   38  A38         0.1518
    790  C6         9.9170   63.2150    9.8090 C.ar   38  A38         0.1919
    791  N6        10.1990   64.5180    9.9160 N.pl3  38  A38        -0.1054
    792  N7         9.9040   62.5420   12.2860 N.ar   38  A38        -0.2193
    793  C8         9.6730   61.3540   12.7920 C.ar   38  A38         0.1816
    794  N9         9.3990   60.3960   11.8550 N.ar   38  A38        -0.2693
    795  OP1        6.7690   57.3060   16.2980 O.3    38  A38        -0.4373
    796  OP2        4.3680   56.9040   15.5390 O.co2  38  A38        -0.5172
    797  P          9.7880   54.6310   12.7130 P.3    39  U39         0.2141
    798  C5'       11.2130   52.8430   11.4050 C.3    39  U39         0.1812
    799  O5'       10.4750   54.0740   11.3770 O.3    39  U39        -0.3114
    800  C4'       12.2540   52.7650   10.2890 C.3    39  U39         0.1773
    801  O4'       11.8570   53.6040    9.1730 O.3    39  U39        -0.3307
    802  C3'       13.6620   53.2210   10.6570 C.3    39  U39         0.1860
    803  O3'       14.5940   52.3660   10.0470 O.3    39  U39        -0.3112
    804  C2'       13.7320   54.6480   10.1010 C.3    39  U39         0.2309
    805  O2'       15.0570   55.0480    9.8070 O.3    39  U39        -0.2156
    806  C1'       12.9090   54.4850    8.8290 C.3    39  U39         0.2420
    807  N1        12.2940   55.7230    8.2630 N.ar   39  U39        -0.2534
    808  C2        12.9620   56.4270    7.2820 C.ar   39  U39         0.3546
    809  O2        14.0590   56.1130    6.8700 O.2    39  U39        -0.2443
    810  N3        12.3090   57.5290    6.7990 N.ar   39  U39        -0.1530
    811  C4        11.0560   57.9830    7.1790 C.ar   39  U39         0.2846
    812  O4        10.5850   58.9940    6.6580 O.2    39  U39        -0.2650
    813  C5        10.4070   57.1860    8.1960 C.ar   39  U39         0.0814
    814  C6        11.0350   56.1040    8.6810 C.ar   39  U39         0.0870
    815  OP1        8.3740   54.1750   12.8070 O.2    39  U39        -0.5172
    816  OP2       10.7510   54.3600   13.7950 O.co2  39  U39        -0.4373
    817  P         15.2720   51.2160   10.9170 P.3    40  A40         0.2141
    818  C5'       17.2510   52.8280   11.4730 C.3    40  A40         0.1812
    819  O5'       16.1710   52.0460   11.9360 O.3    40  A40        -0.3114
    820  C4'       18.4310   52.7520   12.4340 C.3    40  A40         0.1773
    821  O4'       18.1720   53.5790   13.5920 O.3    40  A40        -0.3307
    822  C3'       18.7660   51.3860   13.0020 C.3    40  A40         0.1860
    823  O3'       20.1380   51.3730   13.3680 O.3    40  A40        -0.3112
    824  C2'       17.9050   51.3480   14.2650 C.3    40  A40         0.2309
    825  O2'       18.4200   50.4470   15.2330 O.3    40  A40        -0.2156
    826  C1'       18.0490   52.7800   14.7560 C.3    40  A40         0.2408
    827  N1        16.5420   56.1880   18.3160 N.ar   40  A40        -0.2040
    828  C2        17.7510   55.8880   17.8280 C.ar   40  A40         0.2016
    829  N3        18.0650   54.9830   16.9020 N.ar   40  A40        -0.2048
    830  C4        16.9770   54.3250   16.4580 C.ar   40  A40         0.1692
    831  C5        15.6780   54.5200   16.8660 C.ar   40  A40         0.1518
    832  C6        15.4620   55.5110   17.8490 C.ar   40  A40         0.1919
    833  N6        14.2500   55.8070   18.3360 N.pl3  40  A40        -0.1054
    834  N7        14.8230   53.6660   16.1920 N.ar   40  A40        -0.2193
    835  C8        15.6090   52.9820   15.3990 C.ar   40  A40         0.1816
    836  N9        16.9230   53.3220   15.5130 N.ar   40  A40        -0.2693
    837  OP1       16.1840   50.4170   10.0720 O.2    40  A40        -0.5172
    838  OP2       14.1950   50.5270   11.6720 O.co2  40  A40        -0.4373
    839  P         21.2850   50.7810   12.4280 P.3    41  G41         0.2141
    840  C5'       21.1290   48.6740   14.0740 C.3    41  G41         0.1812
    841  O5'       21.4770   49.2310   12.8040 O.3    41  G41        -0.3114
    842  C4'       22.3310   48.3790   14.9740 C.3    41  G41         0.1773
    843  O4'       23.5640   48.1720   14.2410 O.3    41  G41        -0.3307
    844  C3'       22.7050   49.4910   15.9330 C.3    41  G41         0.1860
    845  O3'       21.7700   49.5330   16.9990 O.3    41  G41        -0.3112
    846  C2'       24.0930   49.0280   16.3690 C.3    41  G41         0.2309
    847  O2'       24.0500   47.9200   17.2390 O.3    41  G41        -0.2156
    848  C1'       24.6780   48.5570   15.0460 C.3    41  G41         0.2408
    849  N1        28.5620   51.9270   15.1730 N.ar   41  G41        -0.1709
    850  C2        28.1130   51.1140   16.1780 C.ar   41  G41         0.2606
    851  N2        28.7770   51.2160   17.3400 N.pl3  41  G41        -0.0859
    852  N3        27.0940   50.2630   16.0460 N.ar   41  G41        -0.1918
    853  C4        26.5520   50.3000   14.8010 C.ar   41  G41         0.1723
    854  C5        26.9420   51.0910   13.7410 C.ar   41  G41         0.1748
    855  C6        28.0320   51.9750   13.8910 C.ar   41  G41         0.3023
    856  O6        28.5200   52.7510   13.0580 O.2    41  G41        -0.2633
    857  N7        26.1500   50.8590   12.6360 N.ar   41  G41        -0.2173
    858  C8        25.3070   49.9490   13.0360 C.ar   41  G41         0.1817
    859  N9        25.4810   49.5560   14.3370 N.ar   41  G41        -0.2693
    860  OP1       22.5450   51.4930   12.7610 O.3    41  G41        -0.4373
    861  OP2       20.7210   50.8380   11.0650 O.co2  41  G41        -0.5172
    862  P         20.9400   50.8700   17.3210 P.3    42  U42         0.2141
    863  C5'       22.4540   51.0190   19.4770 C.3    42  U42         0.1812
    864  O5'       21.9150   51.6500   18.3270 O.3    42  U42        -0.3114
    865  C4'       23.2790   52.0210   20.2530 C.3    42  U42         0.1773
    866  O4'       24.6070   52.0450   19.6830 O.3    42  U42        -0.3307
    867  C3'       22.7350   53.4510   20.1910 C.3    42  U42         0.1860
    868  O3'       22.0450   53.8820   21.4030 O.3    42  U42        -0.3112
    869  C2'       23.9410   54.3350   19.8900 C.3    42  U42         0.2309
    870  O2'       24.2790   55.2080   20.9550 O.3    42  U42        -0.2156
    871  C1'       25.0760   53.3650   19.5400 C.3    42  U42         0.2420
    872  N1        25.4880   53.6040   18.1300 N.ar   42  U42        -0.2534
    873  C2        26.6610   54.3050   17.8770 C.ar   42  U42         0.3546
    874  O2        27.4230   54.6940   18.7490 O.2    42  U42        -0.2443
    875  N3        26.9240   54.5230   16.5420 N.ar   42  U42        -0.1530
    876  C4        26.1360   54.1430   15.4650 C.ar   42  U42         0.2846
    877  O4        26.4970   54.4220   14.3260 O.2    42  U42        -0.2650
    878  C5        24.9250   53.4340   15.8130 C.ar   42  U42         0.0814
    879  C6        24.6470   53.2060   17.1010 C.ar   42  U42         0.0870
    880  OP1       19.7080   50.4590   18.0280 O.3    42  U42        -0.4373
    881  OP2       20.8060   51.7210   16.1220 O.co2  42  U42        -0.5172
    882  P         22.2450   53.2010   22.8560 P.3    43  C43         0.2141
    883  C5'       21.0110   55.4980   23.2710 C.3    43  C43         0.1812
    884  O5'       21.4690   54.2500   23.7900 O.3    43  C43        -0.3114
    885  C4'       19.5810   55.7980   23.6960 C.3    43  C43         0.1773
    886  O4'       18.8280   56.1460   22.5040 O.3    43  C43        -0.3307
    887  C3'       18.8050   54.6490   24.3400 C.3    43  C43         0.1860
    888  O3'       18.8820   54.6800   25.7650 O.3    43  C43        -0.3112
    889  C2'       17.3720   54.8950   23.8830 C.3    43  C43         0.2309
    890  O2'       16.6670   55.7780   24.7330 O.3    43  C43        -0.2156
    891  C1'       17.5620   55.5020   22.5010 C.3    43  C43         0.2420
    892  N1        17.4810   54.4710   21.4120 N.ar   43  C43        -0.2535
    893  C2        16.2240   54.0940   20.9270 C.ar   43  C43         0.3532
    894  O2        15.2170   54.6240   21.3860 O.2    43  C43        -0.2443
    895  N3        16.1370   53.1560   19.9520 N.ar   43  C43        -0.1739
    896  C4        17.2440   52.5950   19.4600 C.ar   43  C43         0.1759
    897  N4        17.0960   51.6780   18.5020 N.pl3  43  C43        -0.1070
    898  C5        18.5450   52.9490   19.9480 C.ar   43  C43         0.0566
    899  C6        18.6140   53.8820   20.9150 C.ar   43  C43         0.0850
    900  OP1       23.6920   53.2060   23.1970 O.3    43  C43        -0.4373
    901  OP2       21.5030   51.9100   22.8850 O.co2  43  C43        -0.5172
    902  P         18.5010   53.3590   26.6000 P.3    44  C44         0.2141
    903  C5'       15.9050   53.5390   27.1080 C.3    44  C44         0.1812
    904  O5'       16.9510   53.1240   26.2420 O.3    44  C44        -0.3114
    905  C4'       14.6010   52.8340   26.7700 C.3    44  C44         0.1773
    906  O4'       14.2520   53.0340   25.3720 O.3    44  C44        -0.3307
    907  C3'       14.6090   51.3190   26.9210 C.3    44  C44         0.1860
    908  O3'       14.4560   50.9230   28.2640 O.3    44  C44        -0.3112
    909  C2'       13.3980   50.9400   26.0740 C.3    44  C44         0.2309
    910  O2'       12.1490   51.1740   26.6930 O.3    44  C44        -0.2156
    911  C1'       13.5940   51.8700   24.8800 C.3    44  C44         0.2420
    912  N1        14.4190   51.1930   23.8170 N.ar   44  C44        -0.2535
    913  C2        13.8300   50.1980   23.0130 C.ar   44  C44         0.3532
    914  O2        12.6360   49.9110   23.1640 O.2    44  C44        -0.2443
    915  N3        14.5830   49.5820   22.0650 N.ar   44  C44        -0.1739
    916  C4        15.8630   49.9160   21.9140 C.ar   44  C44         0.1759
    917  N4        16.5560   49.2750   20.9760 N.pl3  44  C44        -0.1070
    918  C5        16.4900   50.9060   22.7320 C.ar   44  C44         0.0566
    919  C6        15.7410   51.5090   23.6610 C.ar   44  C44         0.0850
    920  OP1       18.6350   53.6730   28.0430 O.3    44  C44        -0.4373
    921  OP2       19.2680   52.2270   26.0190 O.co2  44  C44        -0.5172
    922  P         15.4320   49.8320   28.9070 P.3    45  A45         0.2141
    923  C5'       13.7260   47.8850   28.5240 C.3    45  A45         0.1812
    924  O5'       14.9870   48.4630   28.1970 O.3    45  A45        -0.3114
    925  C4'       13.2200   46.9010   27.4780 C.3    45  A45         0.1773
    926  O4'       13.1770   47.5220   26.1710 O.3    45  A45        -0.3307
    927  C3'       14.0610   45.6540   27.2400 C.3    45  A45         0.1860
    928  O3'       13.8840   44.6900   28.2600 O.3    45  A45        -0.3112
    929  C2'       13.4920   45.1780   25.9080 C.3    45  A45         0.2309
    930  O2'       12.2560   44.4990   26.0100 O.3    45  A45        -0.2156
    931  C1'       13.3260   46.5100   25.1810 C.3    45  A45         0.2408
    932  N1        15.9590   45.0190   21.0650 N.ar   45  A45        -0.2040
    933  C2        14.8020   44.6000   21.5930 C.ar   45  A45         0.2016
    934  N3        14.1690   45.0480   22.6760 N.ar   45  A45        -0.2048
    935  C4        14.8600   46.0500   23.2510 C.ar   45  A45         0.1692
    936  C5        16.0590   46.5880   22.8300 C.ar   45  A45         0.1518
    937  C6        16.6260   46.0250   21.6680 C.ar   45  A45         0.1919
    938  N6        17.7790   46.4340   21.1380 N.pl3  45  A45        -0.1054
    939  N7        16.4620   47.6060   23.6790 N.ar   45  A45        -0.2193
    940  C8        15.5100   47.6640   24.5810 C.ar   45  A45         0.1816
    941  N9        14.5080   46.7590   24.3700 N.ar   45  A45        -0.2693
    942  OP1       15.0890   49.7790   30.3480 O.3    45  A45        -0.4373
    943  OP2       16.8250   50.1370   28.5030 O.co2  45  A45        -0.5172
    944  P         15.1010   43.7220   28.6260 P.3    46  C46         0.2141
    945  C5'       14.1110   41.6910   27.2960 C.3    46  C46         0.1812
    946  O5'       15.1300   42.6750   27.4150 O.3    46  C46        -0.3114
    947  C4'       14.1500   40.9930   25.9470 C.3    46  C46         0.1773
    948  O4'       14.3140   41.9490   24.8640 O.3    46  C46        -0.3307
    949  C3'       15.3050   40.0290   25.7300 C.3    46  C46         0.1860
    950  O3'       15.1000   38.7990   26.4320 O.3    46  C46        -0.3112
    951  C2'       15.2100   39.8690   24.2160 C.3    46  C46         0.2309
    952  O2'       14.0870   39.1090   23.8120 O.3    46  C46        -0.2156
    953  C1'       15.0010   41.3190   23.7910 C.3    46  C46         0.2420
    954  N1        16.2800   42.0610   23.4760 N.ar   46  C46        -0.2535
    955  C2        17.0200   41.7560   22.3110 C.ar   46  C46         0.3532
    956  O2        16.6230   40.8760   21.5370 O.2    46  C46        -0.2443
    957  N3        18.1650   42.4380   22.0570 N.ar   46  C46        -0.1739
    958  C4        18.5740   43.3910   22.8980 C.ar   46  C46         0.1759
    959  N4        19.7030   44.0450   22.6030 N.pl3  46  C46        -0.1070
    960  C5        17.8460   43.7170   24.0820 C.ar   46  C46         0.0566
    961  C6        16.7190   43.0380   24.3270 C.ar   46  C46         0.0850
    962  OP1       14.7400   43.0120   29.8740 O.3    46  C46        -0.4373
    963  OP2       16.3460   44.5170   28.5710 O.co2  46  C46        -0.5172
    964  P         16.3620   37.9350   26.9050 P.3    47  G47         0.2141
    965  C5'       16.1900   36.2700   24.8550 C.3    47  G47         0.1812
    966  O5'       16.9000   37.3040   25.5380 O.3    47  G47        -0.3114
    967  C4'       16.9220   35.9100   23.5750 C.3    47  G47         0.1773
    968  O4'       17.0790   37.0940   22.7540 O.3    47  G47        -0.3307
    969  C3'       18.3430   35.4220   23.7950 C.3    47  G47         0.1860
    970  O3'       18.3690   34.0350   24.0630 O.3    47  G47        -0.3112
    971  C2'       19.0610   35.7970   22.4990 C.3    47  G47         0.2309
    972  O2'       18.9060   34.8380   21.4690 O.3    47  G47        -0.2156
    973  C1'       18.3560   37.0980   22.1300 C.3    47  G47         0.2408
    974  N1        21.8370   40.5900   20.8330 N.ar   47  G47        -0.1709
    975  C2        21.3990   39.4930   20.1270 C.ar   47  G47         0.2606
    976  N2        21.9430   39.2980   18.9220 N.pl3  47  G47        -0.0859
    977  N3        20.4790   38.6440   20.5700 N.ar   47  G47        -0.1918
    978  C4        20.0270   38.9830   21.8040 C.ar   47  G47         0.1723
    979  C5        20.4090   40.0510   22.5880 C.ar   47  G47         0.1748
    980  C6        21.3870   40.9490   22.1050 C.ar   47  G47         0.3023
    981  O6        21.8470   41.9530   22.6660 O.2    47  G47        -0.2633
    982  N7        19.7210   40.0490   23.7870 N.ar   47  G47        -0.2173
    983  C8        18.9440   39.0000   23.7090 C.ar   47  G47         0.1817
    984  N9        19.0780   38.3020   22.5340 N.ar   47  G47        -0.2693
    985  OP1       15.8970   36.8380   27.7830 O.3    47  G47        -0.4373
    986  OP2       17.3870   38.8860   27.3880 O.co2  47  G47        -0.5172
    987  P         19.2940   33.5250   25.2660 P.3    48  A48         0.2141
    988  C5'       20.6590   32.1940   23.4670 C.3    48  A48         0.1812
    989  O5'       20.6620   33.1000   24.5600 O.3    48  A48        -0.3114
    990  C4'       21.8740   32.4460   22.6000 C.3    48  A48         0.1773
    991  O4'       21.8930   33.8230   22.1680 O.3    48  A48        -0.3307
    992  C3'       23.1770   32.2730   23.3490 C.3    48  A48         0.1860
    993  O3'       23.5300   30.8970   23.3570 O.3    48  A48        -0.3112
    994  C2'       24.1420   33.1440   22.5540 C.3    48  A48         0.2309
    995  O2'       24.6710   32.4670   21.4320 O.3    48  A48        -0.2156
    996  C1'       23.2270   34.2780   22.1000 C.3    48  A48         0.2408
    997  N1        24.4090   39.2870   22.2900 N.ar   48  A48        -0.2040
    998  C2        24.4400   38.3900   21.2890 C.ar   48  A48         0.2016
    999  N3        24.1190   37.0910   21.3030 N.ar   48  A48        -0.2048
   1000  C4        23.7180   36.7170   22.5280 C.ar   48  A48         0.1692
   1001  C5        23.6270   37.5190   23.6530 C.ar   48  A48         0.1518
   1002  C6        23.9920   38.8750   23.5070 C.ar   48  A48         0.1919
   1003  N6        23.9520   39.7620   24.5050 N.pl3  48  A48        -0.1054
   1004  N7        23.1690   36.7870   24.7330 N.ar   48  A48        -0.2193
   1005  C8        22.9940   35.5780   24.2490 C.ar   48  A48         0.1816
   1006  N9        23.3150   35.4660   22.9270 N.ar   48  A48        -0.2693
   1007  OP1       18.6650   32.3150   25.8380 O.2    48  A48        -0.5172
   1008  OP2       19.5940   34.6980   26.1200 O.co2  48  A48        -0.4373
   1009  P         23.8030   30.1790   24.7550 P.3    49  A49         0.2141
   1010  C5'       26.4070   30.3350   24.7270 C.3    49  A49         0.1812
   1011  O5'       25.1840   30.8450   25.2280 O.3    49  A49        -0.3114
   1012  C4'       27.5420   31.2510   25.1160 C.3    49  A49         0.1773
   1013  O4'       27.0840   32.6070   25.0290 O.3    49  A49        -0.3307
   1014  C3'       27.9740   31.1520   26.5650 C.3    49  A49         0.1860
   1015  O3'       28.8410   30.0590   26.7350 O.3    49  A49        -0.3112
   1016  C2'       28.6740   32.4850   26.7980 C.3    49  A49         0.2309
   1017  O2'       30.0070   32.5020   26.3280 O.3    49  A49        -0.2156
   1018  C1'       27.8050   33.4140   25.9610 C.3    49  A49         0.2408
   1019  N1        26.8580   36.9330   29.6290 N.ar   49  A49        -0.2040
   1020  C2        28.0190   36.4450   29.1540 C.ar   49  A49         0.2016
   1021  N3        28.2080   35.5220   28.2020 N.ar   49  A49        -0.2048
   1022  C4        27.0330   35.0950   27.7140 C.ar   49  A49         0.1692
   1023  C5        25.7720   35.5050   28.1040 C.ar   49  A49         0.1518
   1024  C6        25.6920   36.4680   29.1150 C.ar   49  A49         0.1919
   1025  N6        24.5260   36.9390   29.5660 N.pl3  49  A49        -0.1054
   1026  N7        24.7900   34.8570   27.3900 N.ar   49  A49        -0.2193
   1027  C8        25.4610   34.0680   26.5920 C.ar   49  A49         0.1816
   1028  N9        26.8210   34.1660   26.7310 N.ar   49  A49        -0.2693
   1029  OP1       24.0080   28.7400   24.4820 O.2    49  A49        -0.5172
   1030  OP2       22.7390   30.6120   25.6920 O.co2  49  A49        -0.4373
   1031  P         28.4420   28.9090   27.7720 P.3    50  A50         0.2141
   1032  C5'       30.2160   29.6660   29.5070 C.3    50  A50         0.1812
   1033  O5'       28.8450   29.5850   29.1630 O.3    50  A50        -0.3114
   1034  C4'       30.4450   30.7990   30.4820 C.3    50  A50         0.1773
   1035  O4'       29.8630   32.0140   29.9560 O.3    50  A50        -0.3307
   1036  C3'       29.7440   30.6450   31.8220 C.3    50  A50         0.1860
   1037  O3'       30.4380   29.7550   32.6850 O.3    50  A50        -0.3112
   1038  C2'       29.7490   32.0860   32.3180 C.3    50  A50         0.2309
   1039  O2'       31.0230   32.5370   32.7550 O.3    50  A50        -0.2156
   1040  C1'       29.3280   32.7770   31.0270 C.3    50  A50         0.2408
   1041  N1        24.9290   34.9790   32.5580 N.ar   50  A50        -0.2040
   1042  C2        26.1990   35.1700   32.9430 C.ar   50  A50         0.2016
   1043  N3        27.3010   34.5600   32.5060 N.ar   50  A50        -0.2048
   1044  C4        27.0060   33.6500   31.5550 C.ar   50  A50         0.1692
   1045  C5        25.7510   33.3480   31.0520 C.ar   50  A50         0.1518
   1046  C6        24.6620   34.0580   31.5990 C.ar   50  A50         0.1919
   1047  N6        23.3970   33.8570   31.2160 N.pl3  50  A50        -0.1054
   1048  N7        25.8290   32.3580   30.0820 N.ar   50  A50        -0.2193
   1049  C8        27.1140   32.0910   30.0130 C.ar   50  A50         0.1816
   1050  N9        27.8790   32.8330   30.8700 N.ar   50  A50        -0.2693
   1051  OP1       29.3600   27.7740   27.5120 O.2    50  A50        -0.5172
   1052  OP2       26.9690   28.7130   27.7490 O.co2  50  A50        -0.4373
   1053  P         29.5970   28.6570   33.4960 P.3    51  G51         0.2141
   1054  C5'       29.7870   30.1820   35.6280 C.3    51  G51         0.1812
   1055  O5'       28.9380   29.5190   34.6820 O.3    51  G51        -0.3114
   1056  C4'       29.0200   31.1880   36.4670 C.3    51  G51         0.1773
   1057  O4'       28.3870   32.1730   35.6170 O.3    51  G51        -0.3307
   1058  C3'       27.8500   30.6280   37.2580 C.3    51  G51         0.1860
   1059  O3'       28.2850   29.9420   38.4200 O.3    51  G51        -0.3112
   1060  C2'       27.0800   31.9050   37.5780 C.3    51  G51         0.2309
   1061  O2'       27.6580   32.6970   38.5970 O.3    51  G51        -0.2156
   1062  C1'       27.1840   32.6060   36.2320 C.3    51  G51         0.2408
   1063  N1        22.2130   33.1770   35.5170 N.ar   51  G51        -0.1709
   1064  C2        23.0190   33.6750   36.5190 C.ar   51  G51         0.2606
   1065  N2        22.4200   34.4250   37.4530 N.pl3  51  G51        -0.0859
   1066  N3        24.3260   33.4550   36.5950 N.ar   51  G51        -0.1918
   1067  C4        24.7620   32.6720   35.5730 C.ar   51  G51         0.1723
   1068  C5        24.0440   32.1240   34.5340 C.ar   51  G51         0.1748
   1069  C6        22.6550   32.3750   34.4610 C.ar   51  G51         0.3023
   1070  O6        21.8550   31.9760   33.6050 O.2    51  G51        -0.2633
   1071  N7        24.8660   31.3810   33.6980 N.ar   51  G51        -0.2173
   1072  C8        26.0490   31.4960   34.2370 C.ar   51  G51         0.1817
   1073  N9        26.0570   32.2720   35.3740 N.ar   51  G51        -0.2693
   1074  OP1       30.5920   27.7160   34.0670 O.3    51  G51        -0.4373
   1075  OP2       28.4970   28.1550   32.6310 O.co2  51  G51        -0.5172
   1076  P         27.5720   28.5680   38.8320 P.3    52  U52         0.2141
   1077  C5'       26.0380   29.9360   40.4400 C.3    52  U52         0.1812
   1078  O5'       26.1350   29.0460   39.3430 O.3    52  U52        -0.3114
   1079  C4'       24.6310   30.4720   40.5380 C.3    52  U52         0.1773
   1080  O4'       24.2370   31.0530   39.2730 O.3    52  U52        -0.3307
   1081  C3'       23.5710   29.4150   40.7840 C.3    52  U52         0.1860
   1082  O3'       23.5530   29.0580   42.1610 O.3    52  U52        -0.3112
   1083  C2'       22.3190   30.1720   40.3530 C.3    52  U52         0.2309
   1084  O2'       21.8440   31.0630   41.3450 O.3    52  U52        -0.2156
   1085  C1'       22.8260   30.9540   39.1410 C.3    52  U52         0.2420
   1086  N1        22.4710   30.3070   37.8260 N.ar   52  U52        -0.2534
   1087  C2        21.1610   30.3780   37.3620 C.ar   52  U52         0.3546
   1088  O2        20.2600   30.9430   37.9620 O.2    52  U52        -0.2443
   1089  N3        20.9390   29.7530   36.1550 N.ar   52  U52        -0.1530
   1090  C4        21.8720   29.0800   35.3780 C.ar   52  U52         0.2846
   1091  O4        21.5260   28.5690   34.3140 O.2    52  U52        -0.2650
   1092  C5        23.2100   29.0520   35.9240 C.ar   52  U52         0.0814
   1093  C6        23.4530   29.6490   37.1000 C.ar   52  U52         0.0870
   1094  OP1       28.3350   28.0050   39.9690 O.3    52  U52        -0.4373
   1095  OP2       27.3610   27.7530   37.6120 O.co2  52  U52        -0.5172
   1096  P         22.5500   27.9330   42.7010 P.3    53  A53         0.2141
   1097  C5'       20.3610   28.6230   44.0460 C.3    53  A53         0.1812
   1098  O5'       21.1600   28.7400   42.8310 O.3    53  A53        -0.3114
   1099  C4'       18.8850   28.4240   43.7010 C.3    53  A53         0.1780
   1100  O4'       18.2560   29.7400   43.4990 O.3    53  A53        -0.3482
   1101  C3'       18.5830   27.5830   42.4230 C.3    53  A53         0.2140
   1102  O3'       17.5100   26.6440   42.6760 O.3    53  A53        -0.2176
   1103  C2'       18.2200   28.6650   41.3620 C.3    53  A53         0.2140
   1104  O2'       17.3340   28.1730   40.3390 O.3    53  A53        -0.2176
   1105  C1'       17.5370   29.7300   42.2560 C.3    53  A53         0.1777
   1106  OP1       23.0210   27.5430   44.0530 O.3    53  A53        -0.4373
   1107  OP2       22.3990   26.8950   41.6440 O.co2  53  A53        -0.5172
   1108  P         11.5800   34.2440   31.4970 P.3    57  G57         0.1280
   1109  C5'       10.9790   34.6220   34.0260 C.3    57  G57         0.1795
   1110  O5'       11.7440   33.9030   33.0560 O.3    57  G57        -0.3259
   1111  C4'       11.6560   34.6500   35.3890 C.3    57  G57         0.1772
   1112  O4'       12.1430   33.3310   35.7510 O.3    57  G57        -0.3307
   1113  C3'       12.8970   35.5180   35.5040 C.3    57  G57         0.1860
   1114  O3'       12.5690   36.9020   35.6060 O.3    57  G57        -0.3112
   1115  C2'       13.4910   34.9630   36.7940 C.3    57  G57         0.2309
   1116  O2'       12.7970   35.3820   37.9540 O.3    57  G57        -0.2156
   1117  C1'       13.2930   33.4680   36.5740 C.3    57  G57         0.2408
   1118  N1        18.0190   31.6200   37.1490 N.ar   57  G57        -0.1709
   1119  C2        17.1930   32.1960   38.0870 C.ar   57  G57         0.2606
   1120  N2        17.6830   32.2940   39.3310 N.pl3  57  G57        -0.0859
   1121  N3        15.9710   32.6470   37.8210 N.ar   57  G57        -0.1918
   1122  C4        15.6350   32.4710   36.5160 C.ar   57  G57         0.1723
   1123  C5        16.3910   31.9080   35.5090 C.ar   57  G57         0.1748
   1124  C6        17.6930   31.4300   35.8060 C.ar   57  G57         0.3023
   1125  O6        18.5090   30.8990   35.0380 O.2    57  G57        -0.2633
   1126  N7        15.6950   31.9120   34.3100 N.ar   57  G57        -0.2173
   1127  C8        14.5520   32.4650   34.6050 C.ar   57  G57         0.1817
   1128  N9        14.4400   32.8260   35.9270 N.ar   57  G57        -0.2693
   1129  OP1       10.1650   34.0410   31.0920 O.3    57  G57        -0.1955
   1130  OP2       12.2550   35.5430   31.2470 O.co2  57  G57        -0.7863
   1131  P         13.5390   37.9940   34.9410 P.3    58  C58         0.2141
   1132  C5'       14.7450   38.4100   37.2510 C.3    58  C58         0.1812
   1133  O5'       14.8330   37.9750   35.8910 O.3    58  C58        -0.3114
   1134  C4'       15.8310   37.7890   38.1170 C.3    58  C58         0.1773
   1135  O4'       15.9750   36.3710   37.8440 O.3    58  C58        -0.3307
   1136  C3'       17.2320   38.3210   37.8860 C.3    58  C58         0.1860
   1137  O3'       17.4080   39.5770   38.5180 O.3    58  C58        -0.3112
   1138  C2'       18.0710   37.2230   38.5300 C.3    58  C58         0.2309
   1139  O2'       18.1000   37.3000   39.9420 O.3    58  C58        -0.2156
   1140  C1'       17.3180   35.9720   38.0790 C.3    58  C58         0.2420
   1141  N1        17.8990   35.3570   36.8320 N.ar   58  C58        -0.2535
   1142  C2        19.1310   34.6770   36.8880 C.ar   58  C58         0.3532
   1143  O2        19.7280   34.5690   37.9660 O.2    58  C58        -0.2443
   1144  N3        19.6370   34.1410   35.7480 N.ar   58  C58        -0.1739
   1145  C4        18.9760   34.2660   34.5940 C.ar   58  C58         0.1759
   1146  N4        19.5170   33.7230   33.5010 N.pl3  58  C58        -0.1070
   1147  C5        17.7290   34.9550   34.5110 C.ar   58  C58         0.0566
   1148  C6        17.2360   35.4800   35.6400 C.ar   58  C58         0.0850
   1149  OP1       12.8790   39.3140   35.0550 O.3    58  C58        -0.4373
   1150  OP2       13.9430   37.4870   33.6060 O.co2  58  C58        -0.5172
   1151  P         18.2450   40.7090   37.7590 P.3    59  U59         0.2141
   1152  C5'       20.4150   39.9850   39.0620 C.3    59  U59         0.1812
   1153  O5'       19.7430   40.1410   37.8100 O.3    59  U59        -0.3114
   1154  C4'       21.8260   39.4520   38.8780 C.3    59  U59         0.1773
   1155  O4'       21.7970   38.0730   38.4330 O.3    59  U59        -0.3307
   1156  C3'       22.6410   40.1440   37.8040 C.3    59  U59         0.1860
   1157  O3'       23.1460   41.3740   38.2750 O.3    59  U59        -0.3112
   1158  C2'       23.7320   39.1150   37.5430 C.3    59  U59         0.2309
   1159  O2'       24.7500   39.1130   38.5250 O.3    59  U59        -0.2156
   1160  C1'       22.9250   37.8220   37.6060 C.3    59  U59         0.2420
   1161  N1        22.4670   37.3410   36.2540 N.ar   59  U59        -0.2534
   1162  C2        23.3540   36.6580   35.4330 C.ar   59  U59         0.3546
   1163  O2        24.5060   36.4070   35.7450 O.2    59  U59        -0.2443
   1164  N3        22.8320   36.2610   34.2220 N.ar   59  U59        -0.1530
   1165  C4        21.5410   36.4760   33.7530 C.ar   59  U59         0.2846
   1166  O4        21.2150   36.0660   32.6420 O.2    59  U59        -0.2650
   1167  C5        20.6810   37.2000   34.6580 C.ar   59  U59         0.0814
   1168  C6        21.1650   37.5920   35.8460 C.ar   59  U59         0.0870
   1169  OP1       18.1770   41.9510   38.5610 O.3    59  U59        -0.4373
   1170  OP2       17.7980   40.7180   36.3470 O.co2  59  U59        -0.5172
   1171  P         23.0550   42.6490   37.3190 P.3    60  U60         0.2141
   1172  C5'       25.6250   42.5240   36.8920 C.3    60  U60         0.1812
   1173  O5'       24.3090   42.4370   36.3540 O.3    60  U60        -0.3114
   1174  C4'       26.5970   41.7080   36.0640 C.3    60  U60         0.1773
   1175  O4'       26.0850   40.3630   35.8760 O.3    60  U60        -0.3307
   1176  C3'       26.7840   42.1890   34.6380 C.3    60  U60         0.1860
   1177  O3'       27.6420   43.3220   34.5630 O.3    60  U60        -0.3112
   1178  C2'       27.3820   40.9470   33.9880 C.3    60  U60         0.2309
   1179  O2'       28.7470   40.7460   34.3100 O.3    60  U60        -0.2156
   1180  C1'       26.5070   39.8700   34.6130 C.3    60  U60         0.2420
   1181  N1        25.3120   39.5510   33.7740 N.ar   60  U60        -0.2534
   1182  C2        25.4750   38.7470   32.6620 C.ar   60  U60         0.3546
   1183  O2        26.5510   38.2760   32.3240 O.2    60  U60        -0.2443
   1184  N3        24.3230   38.5120   31.9530 N.ar   60  U60        -0.1530
   1185  C4        23.0540   38.9890   32.2330 C.ar   60  U60         0.2846
   1186  O4        22.1150   38.6860   31.5040 O.2    60  U60        -0.2650
   1187  C5        22.9620   39.8200   33.4060 C.ar   60  U60         0.0814
   1188  C6        24.0710   40.0660   34.1140 C.ar   60  U60         0.0870
   1189  OP1       23.2770   43.8630   38.1380 O.3    60  U60        -0.4373
   1190  OP2       21.8250   42.5180   36.5080 O.co2  60  U60        -0.5172
   1191  P         27.3140   44.4440   33.4670 P.3    61  U61         0.2141
   1192  C5'       28.0540   42.7490   31.5150 C.3    61  U61         0.1812
   1193  O5'       27.0440   43.5800   32.1380 O.3    61  U61        -0.3114
   1194  C4'       27.6900   42.4980   30.0630 C.3    61  U61         0.1773
   1195  O4'       26.6050   41.5370   29.9880 O.3    61  U61        -0.3307
   1196  C3'       27.2040   43.7720   29.3730 C.3    61  U61         0.1860
   1197  O3'       28.1970   44.3050   28.4830 O.3    61  U61        -0.3112
   1198  C2'       25.8990   43.4030   28.6670 C.3    61  U61         0.2309
   1199  O2'       25.9330   43.6610   27.2750 O.3    61  U61        -0.2156
   1200  C1'       25.6960   41.9120   28.9700 C.3    61  U61         0.2420
   1201  N1        24.2750   41.6160   29.3890 N.ar   61  U61        -0.2534
   1202  C2        23.5990   40.5580   28.8100 C.ar   61  U61         0.3546
   1203  O2        24.1000   39.8140   27.9880 O.2    61  U61        -0.2443
   1204  N3        22.2990   40.3910   29.2380 N.ar   61  U61        -0.1530
   1205  C4        21.6120   41.1730   30.1530 C.ar   61  U61         0.2846
   1206  O4        20.4500   40.8980   30.4360 O.2    61  U61        -0.2650
   1207  C5        22.3770   42.2630   30.7070 C.ar   61  U61         0.0814
   1208  C6        23.6460   42.4420   30.3080 C.ar   61  U61         0.0870
   1209  OP1       28.5360   45.2630   33.2920 O.2    61  U61        -0.5172
   1210  OP2       26.0310   45.0970   33.8270 O.co2  61  U61        -0.4373
   1211  P         29.4890   45.0610   29.0800 P.3    62  G62         0.2141
   1212  C5'       29.3070   47.0650   27.3930 C.3    62  G62         0.1812
   1213  O5'       30.0300   45.9360   27.8520 O.3    62  G62        -0.3114
   1214  C4'       29.8040   47.4710   26.0250 C.3    62  G62         0.1773
   1215  O4'       29.4330   46.4690   25.0590 O.3    62  G62        -0.3307
   1216  C3'       29.1650   48.7330   25.5150 C.3    62  G62         0.1860
   1217  O3'       29.9250   49.8090   25.9660 O.3    62  G62        -0.3112
   1218  C2'       29.2960   48.5940   24.0170 C.3    62  G62         0.2309
   1219  O2'       30.5740   49.0180   23.5970 O.3    62  G62        -0.2156
   1220  C1'       29.1760   47.0920   23.8200 C.3    62  G62         0.2408
   1221  N1        26.5450   45.5030   19.7620 N.ar   62  G62        -0.1709
   1222  C2        27.8530   45.9150   19.8390 C.ar   62  G62         0.2606
   1223  N2        28.5500   45.8900   18.6910 N.pl3  62  G62        -0.0859
   1224  N3        28.4370   46.3220   20.9620 N.ar   62  G62        -0.1918
   1225  C4        27.5880   46.2780   22.0260 C.ar   62  G62         0.1723
   1226  C5        26.2690   45.8820   22.0480 C.ar   62  G62         0.1748
   1227  C6        25.6640   45.4550   20.8380 C.ar   62  G62         0.3023
   1228  O6        24.5030   45.0720   20.6560 O.2    62  G62        -0.2633
   1229  N7        25.7450   45.9790   23.3340 N.ar   62  G62        -0.2173
   1230  C8        26.7390   46.4230   24.0500 C.ar   62  G62         0.1817
   1231  N9        27.8850   46.6330   23.3240 N.ar   62  G62        -0.2693
   1232  OP1       30.5170   44.0320   29.3960 O.2    62  G62        -0.5172
   1233  OP2       29.0110   46.0040   30.1280 O.co2  62  G62        -0.4373
   1234  P         29.1560   51.0170   26.6630 P.3    63  A63         0.2141
   1235  C5'       30.4800   52.5570   24.9620 C.3    63  A63         0.1812
   1236  O5'       29.2400   52.1930   25.5770 O.3    63  A63        -0.3114
   1237  C4'       30.3060   52.7690   23.4680 C.3    63  A63         0.1773
   1238  O4'       29.8820   51.5220   22.8820 O.3    63  A63        -0.3307
   1239  C3'       29.2390   53.7700   23.0320 C.3    63  A63         0.1860
   1240  O3'       29.7740   55.0830   22.9580 O.3    63  A63        -0.3112
   1241  C2'       28.9190   53.2880   21.6310 C.3    63  A63         0.2309
   1242  O2'       29.8590   53.7740   20.7010 O.3    63  A63        -0.2156
   1243  C1'       29.0750   51.7800   21.7550 C.3    63  A63         0.2408
   1244  N1        25.6440   48.6420   19.5500 N.ar   63  A63        -0.2040
   1245  C2        26.8210   49.1070   19.1230 C.ar   63  A63         0.2016
   1246  N3        27.6760   49.9200   19.7490 N.ar   63  A63        -0.2048
   1247  C4        27.2060   50.2730   20.9620 C.ar   63  A63         0.1692
   1248  C5        26.0180   49.8700   21.5330 C.ar   63  A63         0.1518
   1249  C6        25.2070   49.0080   20.7720 C.ar   63  A63         0.1919
   1250  N6        24.0350   48.5390   21.2050 N.pl3  63  A63        -0.1054
   1251  N7        25.8690   50.4220   22.7900 N.ar   63  A63        -0.2193
   1252  C8        26.9500   51.1380   22.9510 C.ar   63  A63         0.1816
   1253  N9        27.8030   51.0880   21.8930 N.ar   63  A63        -0.2693
   1254  OP1       29.9480   51.3910   27.8580 O.3    63  A63        -0.4373
   1255  OP2       27.7280   50.6400   26.7970 O.co2  63  A63        -0.5172
   1256  P         29.0380   56.3110   23.6780 P.3    64  U64         0.2141
   1257  C5'       27.5590   56.7030   21.5030 C.3    64  U64         0.1812
   1258  O5'       27.6290   56.4650   22.9120 O.3    64  U64        -0.3114
   1259  C4'       27.6020   58.1840   21.1710 C.3    64  U64         0.1773
   1260  O4'       27.8710   58.3740   19.7560 O.3    64  U64        -0.3307
   1261  C3'       26.3150   58.9460   21.4300 C.3    64  U64         0.1860
   1262  O3'       26.6480   60.2940   21.7280 O.3    64  U64        -0.3112
   1263  C2'       25.6270   58.8680   20.0770 C.3    64  U64         0.2309
   1264  O2'       24.6490   59.8730   19.9140 O.3    64  U64        -0.2156
   1265  C1'       26.8330   59.1520   19.1950 C.3    64  U64         0.2420
   1266  N1        26.6720   58.8400   17.7310 N.ar   64  U64        -0.2534
   1267  C2        27.3910   59.5780   16.8030 C.ar   64  U64         0.3546
   1268  O2        28.1560   60.4780   17.1010 O.2    64  U64        -0.2443
   1269  N3        27.1820   59.2300   15.4910 N.ar   64  U64        -0.1530
   1270  C4        26.3500   58.2360   15.0110 C.ar   64  U64         0.2846
   1271  O4        26.2750   58.0400   13.8010 O.2    64  U64        -0.2650
   1272  C5        25.6300   57.5080   16.0320 C.ar   64  U64         0.0814
   1273  C6        25.8150   57.8290   17.3250 C.ar   64  U64         0.0870
   1274  OP1       29.8700   57.5170   23.4470 O.2    64  U64        -0.5172
   1275  OP2       28.7320   55.8920   25.0660 O.co2  64  U64        -0.4373
   1276  P         26.2830   60.9460   23.1420 P.3    65  U65         0.2141
   1277  C5'       25.7360   63.0590   21.6830 C.3    65  U65         0.1812
   1278  O5'       26.3900   62.5090   22.8200 O.3    65  U65        -0.3114
   1279  C4'       26.7060   63.8850   20.8610 C.3    65  U65         0.1773
   1280  O4'       27.3460   63.0370   19.8720 O.3    65  U65        -0.3307
   1281  C3'       26.0620   64.9850   20.0370 C.3    65  U65         0.1860
   1282  O3'       25.8770   66.1490   20.8030 O.3    65  U65        -0.3112
   1283  C2'       27.0920   65.1890   18.9350 C.3    65  U65         0.2309
   1284  O2'       28.2170   65.9240   19.3690 O.3    65  U65        -0.2156
   1285  C1'       27.4970   63.7490   18.6540 C.3    65  U65         0.2420
   1286  N1        26.7060   63.0660   17.5740 N.ar   65  U65        -0.2534
   1287  C2        27.0510   63.2640   16.2510 C.ar   65  U65         0.3546
   1288  O2        27.9610   63.9940   15.9000 O.2    65  U65        -0.2443
   1289  N3        26.2790   62.5810   15.3400 N.ar   65  U65        -0.1530
   1290  C4        25.2180   61.7330   15.6140 C.ar   65  U65         0.2846
   1291  O4        24.6200   61.1780   14.6960 O.2    65  U65        -0.2650
   1292  C5        24.9190   61.5780   17.0130 C.ar   65  U65         0.0814
   1293  C6        25.6570   62.2350   17.9160 C.ar   65  U65         0.0870
   1294  OP1       27.3600   60.5840   24.0880 O.3    65  U65        -0.4373
   1295  OP2       24.8710   60.6240   23.4670 O.co2  65  U65        -0.5172
   1296  P         24.6420   67.0940   20.4500 P.3    66  U66         0.2141
   1297  C5'       26.2260   68.8180   19.2510 C.3    66  U66         0.1812
   1298  O5'       25.1430   67.8890   19.1530 O.3    66  U66        -0.3114
   1299  C4'       26.7310   69.2570   17.8830 C.3    66  U66         0.1773
   1300  O4'       27.2350   68.1180   17.1310 O.3    66  U66        -0.3307
   1301  C3'       25.6950   69.8600   16.9460 C.3    66  U66         0.1860
   1302  O3'       25.3960   71.2070   17.2660 O.3    66  U66        -0.3112
   1303  C2'       26.4300   69.7380   15.6190 C.3    66  U66         0.2309
   1304  O2'       27.4840   70.6740   15.4880 O.3    66  U66        -0.2156
   1305  C1'       26.9880   68.3230   15.7460 C.3    66  U66         0.2420
   1306  N1        26.0540   67.2560   15.2150 N.ar   66  U66        -0.2534
   1307  C2        25.8140   67.1610   13.8500 C.ar   66  U66         0.3546
   1308  O2        26.3140   67.9050   13.0240 O.2    66  U66        -0.2443
   1309  N3        24.9450   66.1580   13.4800 N.ar   66  U66        -0.1530
   1310  C4        24.3100   65.2530   14.3160 C.ar   66  U66         0.2846
   1311  O4        23.5610   64.4050   13.8480 O.2    66  U66        -0.2650
   1312  C5        24.6060   65.4110   15.7150 C.ar   66  U66         0.0814
   1313  C6        25.4490   66.3810   16.1000 C.ar   66  U66         0.0870
   1314  OP1       24.4690   68.0580   21.5620 O.3    66  U66        -0.4373
   1315  OP2       23.5190   66.2200   20.0540 O.co2  66  U66        -0.5172
   1316  P         23.9130   71.7500   17.0000 P.3    67  G67         0.2141
   1317  C5'       24.5440   72.8730   14.6910 C.3    67  G67         0.1812
   1318  O5'       23.8300   71.8600   15.4030 O.3    67  G67        -0.3114
   1319  C4'       24.5480   72.5750   13.2020 C.3    67  G67         0.1773
   1320  O4'       25.0680   71.2380   12.9650 O.3    67  G67        -0.3307
   1321  C3'       23.1780   72.5220   12.5510 C.3    67  G67         0.1860
   1322  O3'       22.6770   73.8110   12.2680 O.3    67  G67        -0.3112
   1323  C2'       23.4930   71.7350   11.2860 C.3    67  G67         0.2309
   1324  O2'       24.1760   72.4990   10.3140 O.3    67  G67        -0.2156
   1325  C1'       24.4010   70.6540   11.8560 C.3    67  G67         0.2408
   1326  N1        21.6180   66.6570   10.3760 N.ar   67  G67        -0.1709
   1327  C2        22.2410   67.6180    9.6150 C.ar   67  G67         0.2606
   1328  N2        22.1080   67.5090    8.2920 N.pl3  67  G67        -0.0859
   1329  N3        22.9460   68.6190   10.1150 N.ar   67  G67        -0.1918
   1330  C4        22.9790   68.5870   11.4730 C.ar   67  G67         0.1723
   1331  C5        22.3900   67.6710   12.3200 C.ar   67  G67         0.1748
   1332  C6        21.6430   66.6050   11.7670 C.ar   67  G67         0.3023
   1333  O6        21.0430   65.7020   12.3620 O.2    67  G67        -0.2633
   1334  N7        22.6650   67.9800   13.6450 N.ar   67  G67        -0.2173
   1335  C8        23.3950   69.0640   13.5770 C.ar   67  G67         0.1817
   1336  N9        23.6360   69.4840   12.2900 N.ar   67  G67        -0.2693
   1337  OP1       23.8120   73.1110   17.5870 O.3    67  G67        -0.4373
   1338  OP2       22.9660   70.6900   17.4120 O.co2  67  G67        -0.5172
   1339  P         21.0910   74.0220   12.1820 P.3    68  G68         0.2141
   1340  C5'       21.0470   73.5640    9.5800 C.3    68  G68         0.1812
   1341  O5'       20.6690   73.1680   10.8960 O.3    68  G68        -0.3114
   1342  C4'       20.3380   72.6910    8.5670 C.3    68  G68         0.1773
   1343  O4'       20.7630   71.3120    8.7170 O.3    68  G68        -0.3307
   1344  C3'       18.8380   72.6090    8.7680 C.3    68  G68         0.1860
   1345  O3'       18.1970   73.7290    8.2060 O.3    68  G68        -0.3112
   1346  C2'       18.5060   71.3390    8.0060 C.3    68  G68         0.2309
   1347  O2'       18.4810   71.5590    6.6090 O.3    68  G68        -0.2156
   1348  C1'       19.6830   70.4480    8.3870 C.3    68  G68         0.2408
   1349  N1        17.7880   65.9410    9.9200 N.ar   68  G68        -0.1709
   1350  C2        17.8550   66.4650    8.6480 C.ar   68  G68         0.2606
   1351  N2        17.3700   65.6930    7.6600 N.pl3  68  G68        -0.0859
   1352  N3        18.3710   67.6620    8.3670 N.ar   68  G68        -0.1918
   1353  C4        18.8210   68.3060    9.4750 C.ar   68  G68         0.1723
   1354  C5        18.7890   67.8660   10.7810 C.ar   68  G68         0.1748
   1355  C6        18.2450   66.5840   11.0710 C.ar   68  G68         0.3023
   1356  O6        18.1310   66.0210   12.1730 O.2    68  G68        -0.2633
   1357  N7        19.3440   68.8160   11.6280 N.ar   68  G68        -0.2173
   1358  C8        19.6940   69.7900   10.8380 C.ar   68  G68         0.1817
   1359  N9        19.4090   69.5550    9.5160 N.ar   68  G68        -0.2693
   1360  OP1       20.8340   75.4620   11.9220 O.2    68  G68        -0.5172
   1361  OP2       20.4860   73.3510   13.3560 O.co2  68  G68        -0.4373
   1362  P         16.7770   74.1710    8.7900 P.3    69  U69         0.2141
   1363  C5'       15.4410   73.0440    6.8380 C.3    69  U69         0.1812
   1364  O5'       15.7850   73.0570    8.2150 O.3    69  U69        -0.3114
   1365  C4'       14.6320   71.8060    6.5070 C.3    69  U69         0.1773
   1366  O4'       15.3880   70.6110    6.8270 O.3    69  U69        -0.3307
   1367  C3'       13.3720   71.6330    7.3300 C.3    69  U69         0.1860
   1368  O3'       12.3510   72.4650    6.8540 O.3    69  U69        -0.3112
   1369  C2'       13.0750   70.1630    7.0910 C.3    69  U69         0.2309
   1370  O2'       12.4910   69.9270    5.8260 O.3    69  U69        -0.2156
   1371  C1'       14.4840   69.5700    7.1610 C.3    69  U69         0.2420
   1372  N1        14.8070   69.0350    8.5220 N.ar   69  U69        -0.2534
   1373  C2        14.3320   67.7880    8.8750 C.ar   69  U69         0.3546
   1374  O2        13.6730   67.0910    8.1250 O.2    69  U69        -0.2443
   1375  N3        14.6600   67.3770   10.1470 N.ar   69  U69        -0.1530
   1376  C4        15.3950   68.0800   11.0880 C.ar   69  U69         0.2846
   1377  O4        15.6100   67.5820   12.1910 O.2    69  U69        -0.2650
   1378  C5        15.8480   69.3770   10.6510 C.ar   69  U69         0.0814
   1379  C6        15.5420   69.7960    9.4140 C.ar   69  U69         0.0870
   1380  OP1       16.4330   75.4830    8.1950 O.2    69  U69        -0.5172
   1381  OP2       16.8230   74.0130   10.2610 O.co2  69  U69        -0.4373
   1382  P         11.5080   73.3000    7.9220 P.3    70  G70         0.2141
   1383  C5'        9.5340   71.5970    7.6150 C.3    70  G70         0.1812
   1384  O5'       10.4810   72.2070    8.4840 O.3    70  G70        -0.3114
   1385  C4'        9.0060   70.3120    8.2190 C.3    70  G70         0.1773
   1386  O4'       10.1180   69.4370    8.5340 O.3    70  G70        -0.3307
   1387  C3'        8.2760   70.4700    9.5430 C.3    70  G70         0.1860
   1388  O3'        6.9180   70.8130    9.3290 O.3    70  G70        -0.3112
   1389  C2'        8.4100   69.0700   10.1290 C.3    70  G70         0.2309
   1390  O2'        7.4560   68.1630    9.6060 O.3    70  G70        -0.2156
   1391  C1'        9.8250   68.6870    9.6990 C.3    70  G70         0.2408
   1392  N1        12.2300   67.1030   13.9220 N.ar   70  G70        -0.1709
   1393  C2        11.2800   66.4510   13.1710 C.ar   70  G70         0.2606
   1394  N2        10.9200   65.2310   13.5890 N.pl3  70  G70        -0.0859
   1395  N3        10.7190   66.9620   12.0800 N.ar   70  G70        -0.1918
   1396  C4        11.1910   68.2040   11.7900 C.ar   70  G70         0.1723
   1397  C5        12.1370   68.9330   12.4770 C.ar   70  G70         0.1748
   1398  C6        12.7250   68.3780   13.6380 C.ar   70  G70         0.3023
   1399  O6        13.5820   68.8870   14.3710 O.2    70  G70        -0.2633
   1400  N7        12.3560   70.1590   11.8650 N.ar   70  G70        -0.2173
   1401  C8        11.5530   70.1530   10.8380 C.ar   70  G70         0.1817
   1402  N9        10.8180   68.9980   10.7240 N.ar   70  G70        -0.2693
   1403  OP1       10.7580   74.3490    7.1960 O.2    70  G70        -0.5172
   1404  OP2       12.4220   73.6820    9.0260 O.co2  70  G70        -0.4373
   1405  P          6.1660   71.7980   10.3440 P.3    71  A71         0.2141
   1406  C5'        5.8180   71.6980   12.9330 C.3    71  A71         0.1812
   1407  O5'        6.3930   71.1090   11.7710 O.3    71  A71        -0.3114
   1408  C4'        5.2090   70.6440   13.8350 C.3    71  A71         0.1773
   1409  O4'        4.0700   70.0360   13.1830 O.3    71  A71        -0.3307
   1410  C3'        6.1330   69.4830   14.1510 C.3    71  A71         0.1860
   1411  O3'        6.9800   69.8170   15.2530 O.3    71  A71        -0.3112
   1412  C2'        5.1490   68.3590   14.4740 C.3    71  A71         0.2309
   1413  O2'        4.8250   68.2610   15.8460 O.3    71  A71        -0.2156
   1414  C1'        3.9150   68.7040   13.6340 C.3    71  A71         0.2408
   1415  N1         3.3340   63.8650   11.9310 N.ar   71  A71        -0.2040
   1416  C2         3.3910   64.3780   13.1690 C.ar   71  A71         0.2016
   1417  N3         3.5370   65.6520   13.5410 N.ar   71  A71        -0.2048
   1418  C4         3.6340   66.4630   12.4710 C.ar   71  A71         0.1692
   1419  C5         3.5950   66.0850   11.1390 C.ar   71  A71         0.1518
   1420  C6         3.4340   64.7040   10.8740 C.ar   71  A71         0.1919
   1421  N6         3.3700   64.1890    9.6420 N.pl3  71  A71        -0.1054
   1422  N7         3.7270   67.1900   10.3140 N.ar   71  A71        -0.2193
   1423  C8         3.8450   68.1960   11.1500 C.ar   71  A71         0.1816
   1424  N9         3.7900   67.8330   12.4680 N.ar   71  A71        -0.2693
   1425  OP1        4.7210   71.7650   10.0160 O.2    71  A71        -0.5172
   1426  OP2        6.8810   73.0960   10.3460 O.co2  71  A71        -0.4373
   1427  P          8.5730   69.6850   15.1390 P.3    72  A72         0.2141
   1428  C5'        8.1580   67.7100   16.8070 C.3    72  A72         0.1812
   1429  O5'        8.8210   68.1880   15.6370 O.3    72  A72        -0.3114
   1430  C4'        7.7870   66.2420   16.6820 C.3    72  A72         0.1773
   1431  O4'        6.8470   66.0610   15.5970 O.3    72  A72        -0.3307
   1432  C3'        8.9500   65.3270   16.3570 C.3    72  A72         0.1860
   1433  O3'        9.5570   64.8850   17.5580 O.3    72  A72        -0.3112
   1434  C2'        8.2990   64.1780   15.5930 C.3    72  A72         0.2309
   1435  O2'        7.9140   63.1270   16.4500 O.3    72  A72        -0.2156
   1436  C1'        7.0690   64.8190   14.9510 C.3    72  A72         0.2408
   1437  N1         6.3850   62.9220   10.1570 N.ar   72  A72        -0.2040
   1438  C2         6.1520   62.3900   11.3650 C.ar   72  A72         0.2016
   1439  N3         6.3510   62.9330   12.5710 N.ar   72  A72        -0.2048
   1440  C4         6.8570   64.1780   12.4740 C.ar   72  A72         0.1692
   1441  C5         7.1510   64.8520   11.2990 C.ar   72  A72         0.1518
   1442  C6         6.8940   64.1710   10.0870 C.ar   72  A72         0.1919
   1443  N6         7.1350   64.6960    8.8820 N.pl3  72  A72        -0.1054
   1444  N7         7.6550   66.1110   11.5740 N.ar   72  A72        -0.2193
   1445  C8         7.6550   66.1750   12.8850 C.ar   72  A72         0.1816
   1446  N9         7.1900   65.0450   13.5030 N.ar   72  A72        -0.2693
   1447  OP1        9.1890   70.6240   16.1020 O.3    72  A72        -0.4373
   1448  OP2        8.9430   69.7750   13.7120 O.co2  72  A72        -0.5172
   1449  P         11.1520   64.8460   17.6440 P.3    73  A73         0.2141
   1450  C5'       11.2850   62.3990   16.7600 C.3    73  A73         0.1812
   1451  O5'       11.5380   63.7730   16.5280 O.3    73  A73        -0.3114
   1452  C4'       12.2700   61.5620   15.9770 C.3    73  A73         0.1773
   1453  O4'       12.1590   61.8910   14.5790 O.3    73  A73        -0.3307
   1454  C3'       13.7220   61.8270   16.3300 C.3    73  A73         0.1860
   1455  O3'       14.1420   60.8560   17.2760 O.3    73  A73        -0.3112
   1456  C2'       14.4820   61.7680   14.9900 C.3    73  A73         0.2309
   1457  O2'       15.4200   60.7100   14.8870 O.3    73  A73        -0.2156
   1458  C1'       13.3820   61.5990   13.9410 C.3    73  A73         0.2408
   1459  N1        12.9690   62.1250    8.8230 N.ar   73  A73        -0.2040
   1460  C2        12.8220   61.0610    9.6200 C.ar   73  A73         0.2016
   1461  N3        12.9500   60.9880   10.9470 N.ar   73  A73        -0.2048
   1462  C4        13.2660   62.1900   11.4730 C.ar   73  A73         0.1692
   1463  C5        13.4510   63.3730   10.7790 C.ar   73  A73         0.1518
   1464  C6        13.2880   63.3140    9.3790 C.ar   73  A73         0.1919
   1465  N6        13.4390   64.3730    8.5870 N.pl3  73  A73        -0.1054
   1466  N7        13.7700   64.4110   11.6450 N.ar   73  A73        -0.2193
   1467  C8        13.7690   63.8440   12.8280 C.ar   73  A73         0.1816
   1468  N9        13.4840   62.5040   12.7990 N.ar   73  A73        -0.2693
   1469  OP1       11.5670   64.2930   18.9560 O.3    73  A73        -0.4373
   1470  OP2       11.6340   66.1740   17.2010 O.co2  73  A73        -0.5172
   1471  P         14.8970   61.3300   18.5970 P.3    74  U74         0.2141
   1472  C5'       17.1670   62.6060   18.8370 C.3    74  U74         0.1812
   1473  O5'       16.0770   62.2360   18.0150 O.3    74  U74        -0.3114
   1474  C4'       18.4910   62.0720   18.3100 C.3    74  U74         0.1773
   1475  O4'       19.3830   61.8950   19.4390 O.3    74  U74        -0.3307
   1476  C3'       18.4550   60.7280   17.5790 C.3    74  U74         0.1860
   1477  O3'       19.3890   60.7050   16.4720 O.3    74  U74        -0.3112
   1478  C2'       18.8660   59.7300   18.6620 C.3    74  U74         0.2309
   1479  O2'       19.5490   58.5980   18.1470 O.3    74  U74        -0.2156
   1480  C1'       19.8210   60.5580   19.5130 C.3    74  U74         0.2420
   1481  N1        19.8550   60.1290   20.9390 N.ar   74  U74        -0.2534
   1482  C2        21.0530   59.6930   21.4770 C.ar   74  U74         0.3546
   1483  O2        22.1000   59.6550   20.8510 O.2    74  U74        -0.2443
   1484  N3        20.9850   59.2990   22.7920 N.ar   74  U74        -0.1530
   1485  C4        19.8630   59.2990   23.6010 C.ar   74  U74         0.2846
   1486  O4        19.9590   58.9210   24.7650 O.2    74  U74        -0.2650
   1487  C5        18.6500   59.7570   22.9650 C.ar   74  U74         0.0814
   1488  C6        18.6910   60.1430   21.6840 C.ar   74  U74         0.0870
   1489  OP1       15.5010   60.1400   19.2400 O.2    74  U74        -0.5172
   1490  OP2       13.9680   62.2090   19.3480 O.co2  74  U74        -0.4373
   1491  P         18.9130   60.6360   14.9380 P.3    75  U75         0.2141
   1492  C5'       18.8870   58.0600   14.5420 C.3    75  U75         0.1812
   1493  O5'       18.1460   59.2410   14.7940 O.3    75  U75        -0.3114
   1494  C4'       18.1040   57.0780   13.6850 C.3    75  U75         0.1773
   1495  O4'       16.9380   56.5610   14.3850 O.3    75  U75        -0.3307
   1496  C3'       17.6070   57.6040   12.3390 C.3    75  U75         0.1860
   1497  O3'       17.8900   56.6010   11.3820 O.3    75  U75        -0.3112
   1498  C2'       16.1030   57.7110   12.5520 C.3    75  U75         0.2309
   1499  O2'       15.3640   57.5520   11.3560 O.3    75  U75        -0.2156
   1500  C1'       15.8610   56.5240   13.4840 C.3    75  U75         0.2420
   1501  N1        14.5630   56.6050   14.2260 N.ar   75  U75        -0.2534
   1502  C2        13.6420   55.5750   14.1190 C.ar   75  U75         0.3546
   1503  O2        13.8280   54.5580   13.4750 O.2    75  U75        -0.2443
   1504  N3        12.4800   55.7610   14.8200 N.ar   75  U75        -0.1530
   1505  C4        12.1360   56.8470   15.5950 C.ar   75  U75         0.2846
   1506  O4        11.0460   56.8640   16.1600 O.2    75  U75        -0.2650
   1507  C5        13.1310   57.8870   15.6490 C.ar   75  U75         0.0814
   1508  C6        14.2800   57.7300   14.9780 C.ar   75  U75         0.0870
   1509  OP1       20.1390   60.5190   14.1260 O.2    75  U75        -0.5172
   1510  OP2       17.9420   61.7400   14.7180 O.co2  75  U75        -0.4373
   1511  P         18.7140   56.8700   10.0360 P.3    76  C76         0.2141
   1512  C5'       16.7820   57.1690    8.3000 C.3    76  C76         0.1812
   1513  O5'       17.7110   57.7870    9.1850 O.3    76  C76        -0.3114
   1514  C4'       16.3400   58.1250    7.2130 C.3    76  C76         0.1773
   1515  O4'       15.3730   59.0450    7.7660 O.3    76  C76        -0.3307
   1516  C3'       17.4520   58.9770    6.6300 C.3    76  C76         0.1860
   1517  O3'       17.9500   58.3390    5.4660 O.3    76  C76        -0.3112
   1518  C2'       16.7540   60.2990    6.3180 C.3    76  C76         0.2309
   1519  O2'       16.1340   60.3170    5.0490 O.3    76  C76        -0.2156
   1520  C1'       15.6920   60.3780    7.4090 C.3    76  C76         0.2420
   1521  N1        16.0990   61.1660    8.6300 N.ar   76  C76        -0.2535
   1522  C2        16.3400   62.5440    8.5270 C.ar   76  C76         0.3532
   1523  O2        16.2150   63.1100    7.4360 O.2    76  C76        -0.2443
   1524  N3        16.7050   63.2330    9.6360 N.ar   76  C76        -0.1739
   1525  C4        16.8280   62.6070   10.8060 C.ar   76  C76         0.1759
   1526  N4        17.1860   63.3380   11.8620 N.pl3  76  C76        -0.1070
   1527  C5        16.5860   61.2090   10.9420 C.ar   76  C76         0.0566
   1528  C6        16.2260   60.5390    9.8400 C.ar   76  C76         0.0850
   1529  OP1       18.8390   55.5290    9.4140 O.2    76  C76        -0.5172
   1530  OP2       19.9340   57.6620   10.3130 O.co2  76  C76        -0.4373
   1531  P         19.3920   58.6890    4.8630 P.3    77  C77         0.2141
   1532  C5'       20.0460   60.7980    3.5170 C.3    77  C77         0.1812
   1533  O5'       19.3210   60.2670    4.6040 O.3    77  C77        -0.3114
   1534  C4'       19.9980   62.3060    3.4720 C.3    77  C77         0.1773
   1535  O4'       19.0560   62.8150    4.4420 O.3    77  C77        -0.3307
   1536  C3'       21.3110   62.9630    3.8380 C.3    77  C77         0.1860
   1537  O3'       22.1300   62.9980    2.7090 O.3    77  C77        -0.3112
   1538  C2'       20.8600   64.3490    4.2740 C.3    77  C77         0.2309
   1539  O2'       20.5910   65.2240    3.1940 O.3    77  C77        -0.2156
   1540  C1'       19.5770   63.9980    5.0300 C.3    77  C77         0.2420
   1541  N1        19.8150   63.7420    6.4880 N.ar   77  C77        -0.2535
   1542  C2        20.2880   64.7780    7.3130 C.ar   77  C77         0.3532
   1543  O2        20.4950   65.8980    6.8400 O.2    77  C77        -0.2443
   1544  N3        20.5010   64.5270    8.6250 N.ar   77  C77        -0.1739
   1545  C4        20.2700   63.3080    9.1170 C.ar   77  C77         0.1759
   1546  N4        20.5010   63.1220   10.4190 N.pl3  77  C77        -0.1070
   1547  C5        19.7900   62.2350    8.3000 C.ar   77  C77         0.0566
   1548  C6        19.5830   62.4930    7.0050 C.ar   77  C77         0.0850
   1549  OP1       19.4640   57.9790    3.5730 O.2    77  C77        -0.5172
   1550  OP2       20.4480   58.4510    5.8670 O.co2  77  C77        -0.4373
   1551  P         23.4010   62.0430    2.6400 P.3    78  A78         0.2141
   1552  C5'       24.5310   64.3850    2.4900 C.3    78  A78         0.1812
   1553  O5'       24.5760   63.0680    3.0050 O.3    78  A78        -0.3114
   1554  C4'       25.2620   65.3750    3.3790 C.3    78  A78         0.1773
   1555  O4'       24.3740   65.9080    4.3990 O.3    78  A78        -0.3307
   1556  C3'       26.4220   64.8200    4.1840 C.3    78  A78         0.1860
   1557  O3'       27.5750   64.6700    3.3820 O.3    78  A78        -0.3112
   1558  C2'       26.5840   65.9110    5.2350 C.3    78  A78         0.2309
   1559  O2'       27.1980   67.0740    4.7180 O.3    78  A78        -0.2156
   1560  C1'       25.1250   66.1960    5.5750 C.3    78  A78         0.2408
   1561  N1        24.9690   65.6040   10.7180 N.ar   78  A78        -0.2040
   1562  C2        25.5590   66.5250    9.9420 C.ar   78  A78         0.2016
   1563  N3        25.5590   66.6280    8.6090 N.ar   78  A78        -0.2048
   1564  C4        24.8530   65.6230    8.0470 C.ar   78  A78         0.1692
   1565  C5        24.1920   64.6050    8.7130 C.ar   78  A78         0.1518
   1566  C6        24.2640   64.6130   10.1240 C.ar   78  A78         0.1919
   1567  N6        23.6720   63.6920   10.8880 N.pl3  78  A78        -0.1054
   1568  N7        23.5670   63.7560    7.8190 N.ar   78  A78        -0.2193
   1569  C8        23.8610   64.2640    6.6480 C.ar   78  A78         0.1816
   1570  N9        24.6320   65.3940    6.7040 N.ar   78  A78        -0.2693
   1571  OP1       23.5520   61.6120    1.2390 O.2    78  A78        -0.5172
   1572  OP2       23.3020   60.9990    3.6860 O.co2  78  A78        -0.4373
   1573  P         28.6360   63.5460    3.7910 P.3    79  A79         0.2141
   1574  C5'       30.1130   65.3340    5.0230 C.3    79  A79         0.1812
   1575  O5'       29.2980   64.1780    5.1030 O.3    79  A79        -0.3114
   1576  C4'       30.5300   65.7530    6.4170 C.3    79  A79         0.1773
   1577  O4'       29.3500   65.9690    7.2350 O.3    79  A79        -0.3307
   1578  C3'       31.3120   64.7030    7.1890 C.3    79  A79         0.1860
   1579  O3'       32.6780   64.7210    6.8240 O.3    79  A79        -0.3112
   1580  C2'       31.0970   65.1830    8.6180 C.3    79  A79         0.2309
   1581  O2'       31.8920   66.3130    8.9380 O.3    79  A79        -0.2156
   1582  C1'       29.6190   65.5620    8.5700 C.3    79  A79         0.2408
   1583  N1        27.2430   63.1390   12.4810 N.ar   79  A79        -0.2040
   1584  C2        28.0740   64.1890   12.4450 C.ar   79  A79         0.2016
   1585  N3        28.6570   64.7670   11.3920 N.ar   79  A79        -0.2048
   1586  C4        28.3080   64.1540   10.2470 C.ar   79  A79         0.1692
   1587  C5        27.4580   63.0680   10.1230 C.ar   79  A79         0.1518
   1588  C6        26.9040   62.5490   11.3200 C.ar   79  A79         0.1919
   1589  N6        26.0690   61.5120   11.3670 N.pl3  79  A79        -0.1054
   1590  N7        27.3270   62.7060    8.7900 N.ar   79  A79        -0.2193
   1591  C8        28.0870   63.5660    8.1500 C.ar   79  A79         0.1816
   1592  N9        28.7120   64.4720    8.9660 N.ar   79  A79        -0.2693
   1593  OP1       29.6700   63.4640    2.7360 O.2    79  A79        -0.5172
   1594  OP2       27.8940   62.3240    4.1890 O.co2  79  A79        -0.4373
   1595  P         33.5380   63.3800    6.9420 P.3    80  A80         0.2141
   1596  C5'       34.5660   64.2490    9.2110 C.3    80  A80         0.1812
   1597  O5'       33.7830   63.2560    8.5170 O.3    80  A80        -0.3114
   1598  C4'       34.4000   64.1450   10.7220 C.3    80  A80         0.1773
   1599  O4'       33.0030   64.3170   11.0910 O.3    80  A80        -0.3307
   1600  C3'       34.7770   62.8020   11.3300 C.3    80  A80         0.1860
   1601  O3'       36.1670   62.7370   11.5660 O.3    80  A80        -0.3112
   1602  C2'       33.9940   62.8370   12.6340 C.3    80  A80         0.2309
   1603  O2'       34.6180   63.6410   13.6120 O.3    80  A80        -0.2156
   1604  C1'       32.6880   63.4720   12.1810 C.3    80  A80         0.2408
   1605  N1        28.7590   60.5240   13.6590 N.ar   80  A80        -0.2040
   1606  C2        29.4990   61.4250   14.3140 C.ar   80  A80         0.2016
   1607  N3        30.5110   62.1560   13.8620 N.ar   80  A80        -0.2048
   1608  C4        30.7550   61.8920   12.5690 C.ar   80  A80         0.1692
   1609  C5        30.0830   60.9930   11.7630 C.ar   80  A80         0.1518
   1610  C6        29.0300   60.2750   12.3630 C.ar   80  A80         0.1919
   1611  N6        28.2940   59.3690   11.7210 N.pl3  80  A80        -0.1054
   1612  N7        30.6200   60.9830   10.4870 N.ar   80  A80        -0.2193
   1613  C8        31.5830   61.8760   10.5430 C.ar   80  A80         0.1816
   1614  N9        31.7130   62.4680   11.7690 N.ar   80  A80        -0.2693
   1615  OP1       34.8370   63.6180    6.2740 O.2    80  A80        -0.5172
   1616  OP2       32.6890   62.2440    6.5230 O.co2  80  A80        -0.4373
   1617  P         36.8340   61.3520   12.0100 P.3    81  A81         0.2141
   1618  C5'       36.0520   59.9140   14.0180 C.3    81  A81         0.1812
   1619  O5'       36.3440   61.1910   13.5190 O.3    81  A81        -0.3114
   1620  C4'       35.2080   60.0530   15.2590 C.3    81  A81         0.1773
   1621  O4'       33.8520   60.4300   14.9110 O.3    81  A81        -0.3307
   1622  C3'       35.0370   58.7590   16.0160 C.3    81  A81         0.1860
   1623  O3'       36.1780   58.5100   16.8030 O.3    81  A81        -0.3112
   1624  C2'       33.8040   59.0710   16.8460 C.3    81  A81         0.2309
   1625  O2'       34.0930   59.9030   17.9480 O.3    81  A81        -0.2156
   1626  C1'       32.9480   59.8010   15.8090 C.3    81  A81         0.2408
   1627  N1        29.0670   56.4050   16.0830 N.ar   81  A81        -0.2040
   1628  C2        29.6560   57.1630   17.0120 C.ar   81  A81         0.2016
   1629  N3        30.6560   58.0340   16.8710 N.ar   81  A81        -0.2048
   1630  C4        31.0770   58.0900   15.5940 C.ar   81  A81         0.1692
   1631  C5        30.5690   57.3710   14.5310 C.ar   81  A81         0.1518
   1632  C6        29.5070   56.4850   14.8120 C.ar   81  A81         0.1919
   1633  N6        28.9250   55.7170   13.8920 N.pl3  81  A81        -0.1054
   1634  N7        31.2480   57.6850   13.3660 N.ar   81  A81        -0.2193
   1635  C8        32.1410   58.5740   13.7410 C.ar   81  A81         0.1816
   1636  N9        32.0890   58.8730   15.0720 N.ar   81  A81        -0.2693
   1637  OP1       38.3040   61.5470   12.0320 O.3    81  A81        -0.4373
   1638  OP2       36.2220   60.2650   11.2050 O.co2  81  A81        -0.5172
   1639  P         36.8580   57.0660   16.7040 P.3    82  C82         0.2141
   1640  C5'       35.3350   56.8010   18.8110 C.3    82  C82         0.1812
   1641  O5'       35.9490   56.1800   17.6850 O.3    82  C82        -0.3114
   1642  C4'       34.2580   55.9300   19.4120 C.3    82  C82         0.1773
   1643  O4'       32.9780   56.2270   18.8080 O.3    82  C82        -0.3307
   1644  C3'       34.4700   54.4540   19.2010 C.3    82  C82         0.1860
   1645  O3'       35.3460   54.0140   20.1950 O.3    82  C82        -0.3112
   1646  C2'       33.0470   53.9440   19.3800 C.3    82  C82         0.2309
   1647  O2'       32.6600   53.8170   20.7280 O.3    82  C82        -0.2156
   1648  C1'       32.2370   55.0320   18.6770 C.3    82  C82         0.2420
   1649  N1        32.0270   54.7150   17.2220 N.ar   82  C82        -0.2535
   1650  C2        30.9850   53.8510   16.8340 C.ar   82  C82         0.3532
   1651  O2        30.2150   53.3790   17.6840 O.2    82  C82        -0.2443
   1652  N3        30.8360   53.5540   15.5190 N.ar   82  C82        -0.1739
   1653  C4        31.6710   54.0610   14.6160 C.ar   82  C82         0.1759
   1654  N4        31.4640   53.7390   13.3370 N.pl3  82  C82        -0.1070
   1655  C5        32.7430   54.9270   14.9880 C.ar   82  C82         0.0566
   1656  C6        32.8860   55.2170   16.2840 C.ar   82  C82         0.0850
   1657  OP1       38.2280   57.1880   17.2490 O.3    82  C82        -0.4373
   1658  OP2       36.6560   56.5210   15.3440 O.co2  82  C82        -0.5172
   1659  P         35.7280   52.4760   20.4200 P.3    83  C83         0.2141
   1660  C5'       33.9230   51.0250   21.6240 C.3    83  C83         0.1812
   1661  O5'       34.3100   51.7250   20.4640 O.3    83  C83        -0.3114
   1662  C4'       32.6990   50.1550   21.4220 C.3    83  C83         0.1773
   1663  O4'       31.8280   50.6590   20.3880 O.3    83  C83        -0.3307
   1664  C3'       33.0270   48.7480   21.0040 C.3    83  C83         0.1860
   1665  O3'       33.2750   48.0210   22.1650 O.3    83  C83        -0.3112
   1666  C2'       31.7450   48.2860   20.3240 C.3    83  C83         0.2309
   1667  O2'       30.8150   47.6980   21.2100 O.3    83  C83        -0.2156
   1668  C1'       31.1820   49.5760   19.7400 C.3    83  C83         0.2420
   1669  N1        31.4220   49.6900   18.2660 N.ar   83  C83        -0.2535
   1670  C2        30.5730   49.0390   17.3550 C.ar   83  C83         0.3532
   1671  O2        29.6140   48.3790   17.7680 O.2    83  C83        -0.2443
   1672  N3        30.8170   49.1750   16.0290 N.ar   83  C83        -0.1739
   1673  C4        31.8500   49.9090   15.6090 C.ar   83  C83         0.1759
   1674  N4        32.0530   50.0100   14.2980 N.pl3  83  C83        -0.1070
   1675  C5        32.7240   50.5790   16.5160 C.ar   83  C83         0.0566
   1676  C6        32.4790   50.4390   17.8210 C.ar   83  C83         0.0850
   1677  OP1       36.4010   52.4010   21.7380 O.3    83  C83        -0.4373
   1678  OP2       36.4650   51.9800   19.2370 O.co2  83  C83        -0.5172
   1679  P         34.5410   47.0650   22.2480 P.3    84  G84         0.2141
   1680  C5'       32.6020   45.3540   22.3660 C.3    84  G84         0.1812
   1681  O5'       33.9010   45.6460   21.8930 O.3    84  G84        -0.3114
   1682  C4'       31.9480   44.2620   21.5490 C.3    84  G84         0.1773
   1683  O4'       31.2930   44.8240   20.3850 O.3    84  G84        -0.3307
   1684  C3'       32.8900   43.1740   21.0600 C.3    84  G84         0.1860
   1685  O3'       32.8380   42.1500   22.0170 O.3    84  G84        -0.3112
   1686  C2'       32.2620   42.7440   19.7370 C.3    84  G84         0.2309
   1687  O2'       31.3370   41.6720   19.8980 O.3    84  G84        -0.2156
   1688  C1'       31.5540   44.0170   19.2500 C.3    84  G84         0.2408
   1689  N1        31.7170   46.0910   14.5740 N.ar   84  G84        -0.1709
   1690  C2        30.8070   45.2030   15.0920 C.ar   84  G84         0.2606
   1691  N2        29.8010   44.8240   14.2800 N.pl3  84  G84        -0.0859
   1692  N3        30.8700   44.7220   16.3300 N.ar   84  G84        -0.1918
   1693  C4        31.9290   45.2050   17.0210 C.ar   84  G84         0.1723
   1694  C5        32.8830   46.0930   16.5860 C.ar   84  G84         0.1748
   1695  C6        32.8080   46.6010   15.2650 C.ar   84  G84         0.3023
   1696  O6        33.5720   47.4040   14.7090 O.2    84  G84        -0.2633
   1697  N7        33.8150   46.3430   17.5890 N.ar   84  G84        -0.2173
   1698  C8        33.4130   45.6080   18.5890 C.ar   84  G84         0.1817
   1699  N9        32.2820   44.8790   18.3160 N.ar   84  G84        -0.2693
   1700  OP1       35.0080   47.0530   23.6520 O.3    84  G84        -0.4373
   1701  OP2       35.4800   47.4390   21.1690 O.co2  84  G84        -0.5172
   1702  P         33.8150   40.8880   21.9720 P.3    85  A85         0.2141
   1703  C5'       32.3160   40.2110   23.9860 C.3    85  A85         0.1812
   1704  O5'       32.9460   39.8340   22.7890 O.3    85  A85        -0.3114
   1705  C4'       31.7920   38.9730   24.6800 C.3    85  A85         0.1773
   1706  O4'       30.7320   38.3710   23.8830 O.3    85  A85        -0.3307
   1707  C3'       32.8090   37.8600   24.8850 C.3    85  A85         0.1860
   1708  O3'       33.5560   38.1200   26.0500 O.3    85  A85        -0.3112
   1709  C2'       31.8830   36.6590   25.0590 C.3    85  A85         0.2309
   1710  O2'       31.3820   36.5280   26.3780 O.3    85  A85        -0.2156
   1711  C1'       30.7490   36.9650   24.0680 C.3    85  A85         0.2408
   1712  N1        30.6370   32.6000   21.2960 N.ar   85  A85        -0.2040
   1713  C2        30.3180   32.8490   22.5760 C.ar   85  A85         0.2016
   1714  N3        30.3620   34.0050   23.2400 N.ar   85  A85        -0.2048
   1715  C4        30.7980   35.0000   22.4430 C.ar   85  A85         0.1692
   1716  C5        31.1600   34.8940   21.1090 C.ar   85  A85         0.1518
   1717  C6        31.0650   33.6200   20.5180 C.ar   85  A85         0.1919
   1718  N6        31.3710   33.3850   19.2410 N.pl3  85  A85        -0.1054
   1719  N7        31.5480   36.1210   20.6070 N.ar   85  A85        -0.2193
   1720  C8        31.4200   36.9370   21.6280 C.ar   85  A85         0.1816
   1721  N9        30.9670   36.3310   22.7670 N.ar   85  A85        -0.2693
   1722  OP1       35.0580   41.1980   22.7130 O.3    85  A85        -0.4373
   1723  OP2       33.9070   40.3710   20.5890 O.co2  85  A85        -0.5172
   1724  P         35.0730   37.6350   26.1950 P.3    86  C86         0.2141
   1725  C5'       34.4670   35.3350   27.2680 C.3    86  C86         0.1812
   1726  O5'       34.9370   36.0440   26.1330 O.3    86  C86        -0.3114
   1727  C4'       34.2390   33.8750   26.9420 C.3    86  C86         0.1773
   1728  O4'       33.2890   33.7560   25.8580 O.3    86  C86        -0.3307
   1729  C3'       35.4550   33.1120   26.4480 C.3    86  C86         0.1860
   1730  O3'       36.2590   32.7090   27.5350 O.3    86  C86        -0.3112
   1731  C2'       34.7820   31.9180   25.7870 C.3    86  C86         0.2309
   1732  O2'       34.3940   30.9220   26.7180 O.3    86  C86        -0.2156
   1733  C1'       33.5610   32.5710   25.1370 C.3    86  C86         0.2420
   1734  N1        33.7970   32.9280   23.7130 N.ar   86  C86        -0.2535
   1735  C2        33.7710   31.9250   22.7370 C.ar   86  C86         0.3532
   1736  O2        33.5410   30.7610   23.0740 O.2    86  C86        -0.2443
   1737  N3        33.9960   32.2580   21.4400 N.ar   86  C86        -0.1739
   1738  C4        34.2450   33.5250   21.1090 C.ar   86  C86         0.1759
   1739  N4        34.4610   33.7950   19.8220 N.pl3  86  C86        -0.1070
   1740  C5        34.2760   34.5690   22.0850 C.ar   86  C86         0.0566
   1741  C6        34.0490   34.2260   23.3600 C.ar   86  C86         0.0850
   1742  OP1       35.5420   38.0250   27.5420 O.3    86  C86        -0.4373
   1743  OP2       35.8530   38.0800   25.0210 O.co2  86  C86        -0.5172
   1744  P         37.8340   32.5720   27.3310 P.3    87  A87         0.2141
   1745  C5'       37.6620   29.9810   26.9910 C.3    87  A87         0.1812
   1746  O5'       37.9850   31.2490   26.4430 O.3    87  A87        -0.3114
   1747  C4'       38.0030   28.8550   26.0340 C.3    87  A87         0.1773
   1748  O4'       36.9580   28.7390   25.0380 O.3    87  A87        -0.3307
   1749  C3'       39.2740   29.0340   25.2200 C.3    87  A87         0.1860
   1750  O3'       40.3980   28.5720   25.9220 O.3    87  A87        -0.3112
   1751  C2'       38.9790   28.1510   24.0180 C.3    87  A87         0.2309
   1752  O2'       39.0720   26.7750   24.3220 O.3    87  A87        -0.2156
   1753  C1'       37.5340   28.5310   23.7600 C.3    87  A87         0.2408
   1754  N1        37.9180   30.6040   19.0500 N.ar   87  A87        -0.2040
   1755  C2        38.1260   29.3600   19.4990 C.ar   87  A87         0.2016
   1756  N3        38.0110   28.8870   20.7410 N.ar   87  A87        -0.2048
   1757  C4        37.6330   29.8570   21.5920 C.ar   87  A87         0.1692
   1758  C5        37.3780   31.1800   21.2780 C.ar   87  A87         0.1518
   1759  C6        37.5370   31.5530   19.9280 C.ar   87  A87         0.1919
   1760  N6        37.3280   32.7910   19.4860 N.pl3  87  A87        -0.1054
   1761  N7        37.0010   31.8910   22.4050 N.ar   87  A87        -0.2193
   1762  C8        37.0350   30.9950   23.3620 C.ar   87  A87         0.1816
   1763  N9        37.4040   29.7440   22.9460 N.ar   87  A87        -0.2693
   1764  OP1       38.4660   32.3450   28.6440 O.3    87  A87        -0.4373
   1765  OP2       38.2810   33.7250   26.5240 O.co2  87  A87        -0.5172
   1766  P         41.8310   29.1750   25.5690 P.3    88  G88         0.2141
   1767  C5'       42.3290   27.2100   23.8780 C.3    88  G88         0.1812
   1768  O5'       42.1190   28.6070   24.1040 O.3    88  G88        -0.3114
   1769  C4'       42.6670   26.9510   22.4200 C.3    88  G88         0.1773
   1770  O4'       41.5880   27.4270   21.5710 O.3    88  G88        -0.3307
   1771  C3'       43.9050   27.6810   21.9320 C.3    88  G88         0.1860
   1772  O3'       45.0600   26.9010   22.1720 O.3    88  G88        -0.3112
   1773  C2'       43.6300   27.8690   20.4420 C.3    88  G88         0.2309
   1774  O2'       44.0210   26.7510   19.6690 O.3    88  G88        -0.2156
   1775  C1'       42.1130   28.0390   20.4020 C.3    88  G88         0.2408
   1776  N1        40.9880   31.9990   17.3830 N.ar   88  G88        -0.1709
   1777  C2        41.4200   30.7350   17.0430 C.ar   88  G88         0.2606
   1778  N2        41.5660   30.4820   15.7350 N.pl3  88  G88        -0.0859
   1779  N3        41.6850   29.7790   17.9240 N.ar   88  G88        -0.1918
   1780  C4        41.4840   30.1920   19.2000 C.ar   88  G88         0.1723
   1781  C5        41.0590   31.4310   19.6390 C.ar   88  G88         0.1748
   1782  C6        40.7760   32.4420   18.6880 C.ar   88  G88         0.3023
   1783  O6        40.3940   33.6030   18.8960 O.2    88  G88        -0.2633
   1784  N7        40.9850   31.4630   21.0240 N.ar   88  G88        -0.2173
   1785  C8        41.3520   30.2630   21.3860 C.ar   88  G88         0.1817
   1786  N9        41.6690   29.4340   20.3350 N.ar   88  G88        -0.2693
   1787  OP1       42.8190   28.6000   26.5080 O.3    88  G88        -0.4373
   1788  OP2       41.6930   30.6410   25.4660 O.co2  88  G88        -0.5172
   1789  P         46.3400   27.5970   22.8420 P.3    89  U89         0.2141
   1790  C5'       47.2420   27.6000   20.3720 C.3    89  U89         0.1812
   1791  O5'       47.0970   28.2870   21.6140 O.3    89  U89        -0.3114
   1792  C4'       47.2860   28.6030   19.2410 C.3    89  U89         0.1773
   1793  O4'       45.9960   29.2400   19.0860 O.3    89  U89        -0.3307
   1794  C3'       48.2320   29.7610   19.4910 C.3    89  U89         0.1860
   1795  O3'       49.5570   29.3670   19.1440 O.3    89  U89        -0.3112
   1796  C2'       47.6730   30.8380   18.5640 C.3    89  U89         0.2309
   1797  O2'       48.2860   30.8230   17.2910 O.3    89  U89        -0.2156
   1798  C1'       46.1880   30.4860   18.4450 C.3    89  U89         0.2420
   1799  N1        45.2780   31.5170   19.0510 N.ar   89  U89        -0.2534
   1800  C2        44.6020   32.3980   18.2260 C.ar   89  U89         0.3546
   1801  O2        44.7020   32.3830   17.0130 O.2    89  U89        -0.2443
   1802  N3        43.8030   33.3130   18.8740 N.ar   89  U89        -0.1530
   1803  C4        43.6090   33.4340   20.2390 C.ar   89  U89         0.2846
   1804  O4        42.8540   34.2970   20.6810 O.2    89  U89        -0.2650
   1805  C5        44.3460   32.4850   21.0340 C.ar   89  U89         0.0814
   1806  C6        45.1330   31.5860   20.4250 C.ar   89  U89         0.0870
   1807  OP1       47.2190   26.5290   23.3810 O.2    89  U89        -0.5172
   1808  OP2       45.8440   28.6780   23.7240 O.co2  89  U89        -0.4373
   1809  P         50.8210   30.3030   19.4690 P.3    90  A90         0.2141
   1810  C5'       51.8130   32.2980   18.1090 C.3    90  A90         0.1812
   1811  O5'       50.7760   31.3520   18.2630 O.3    90  A90        -0.3114
   1812  C4'       51.4390   33.6200   18.7520 C.3    90  A90         0.1773
   1813  O4'       52.4300   34.6040   18.3590 O.3    90  A90        -0.3307
   1814  C3'       50.0820   34.2040   18.3460 C.3    90  A90         0.1860
   1815  O3'       49.4930   34.9120   19.4440 O.3    90  A90        -0.3112
   1816  C2'       50.4680   35.1830   17.2430 C.3    90  A90         0.2309
   1817  O2'       49.5200   36.2210   17.1000 O.3    90  A90        -0.2156
   1818  C1'       51.7580   35.7290   17.8370 C.3    90  A90         0.2408
   1819  N1        55.2090   39.5100   17.3490 N.ar   90  A90        -0.2040
   1820  C2        54.5290   39.0500   18.4090 C.ar   90  A90         0.2016
   1821  N3        53.6460   38.0520   18.4610 N.ar   90  A90        -0.2048
   1822  C4        53.4710   37.4930   17.2440 C.ar   90  A90         0.1692
   1823  C5        54.0900   37.8610   16.0650 C.ar   90  A90         0.1518
   1824  C6        55.0070   38.9350   16.1400 C.ar   90  A90         0.1919
   1825  N6        55.6930   39.3990   15.0870 N.pl3  90  A90        -0.1054
   1826  N7        53.6600   37.0620   15.0210 N.ar   90  A90        -0.2193
   1827  C8        52.8000   36.2410   15.5760 C.ar   90  A90         0.1816
   1828  N9        52.6350   36.4470   16.9150 N.ar   90  A90        -0.2693
   1829  OP1       52.0520   29.4810   19.3480 O.2    90  A90        -0.5172
   1830  OP2       50.5490   31.0470   20.7250 O.co2  90  A90        -0.4373
   1831  P         48.1260   34.4330   20.1250 P.3    91  G91         0.2141
   1832  C5'       46.2600   35.7090   21.3280 C.3    91  G91         0.1812
   1833  O5'       47.5610   35.7620   20.7760 O.3    91  G91        -0.3114
   1834  C4'       45.8650   37.0720   21.8480 C.3    91  G91         0.1773
   1835  O4'       47.0690   37.8040   22.1690 O.3    91  G91        -0.3307
   1836  C3'       45.1210   37.9550   20.8700 C.3    91  G91         0.1860
   1837  O3'       44.2000   38.7000   21.6030 O.3    91  G91        -0.3112
   1838  C2'       46.2160   38.8370   20.2490 C.3    91  G91         0.2309
   1839  O2'       45.7100   40.0850   19.8120 O.3    91  G91        -0.2156
   1840  C1'       47.1380   39.0130   21.4430 C.3    91  G91         0.2408
   1841  N1        50.8790   42.4330   21.1740 N.ar   91  G91        -0.1709
   1842  C2        49.5260   42.6140   21.3800 C.ar   91  G91         0.2606
   1843  N2        49.0920   43.8710   21.5480 N.pl3  91  G91        -0.0859
   1844  N3        48.6370   41.6310   21.4150 N.ar   91  G91        -0.1918
   1845  C4        49.2210   40.4260   21.2300 C.ar   91  G91         0.1723
   1846  C5        50.5550   40.1310   21.0190 C.ar   91  G91         0.1748
   1847  C6        51.4940   41.1900   20.9780 C.ar   91  G91         0.3023
   1848  O6        52.7270   41.1070   20.8050 O.2    91  G91        -0.2633
   1849  N7        50.7470   38.7600   20.8840 N.ar   91  G91        -0.2173
   1850  C8        49.5400   38.2670   21.0100 C.ar   91  G91         0.1817
   1851  N9        48.5600   39.2260   21.1970 N.ar   91  G91        -0.2693
   1852  OP1       48.4680   33.4760   21.2040 O.3    91  G91        -0.4373
   1853  OP2       47.1720   34.0410   19.0730 O.co2  91  G91        -0.5172
   1854  P         42.6840   38.6100   21.1590 P.3    92  A92         0.2141
   1855  C5'       42.3330   40.2850   19.1600 C.3    92  A92         0.1812
   1856  O5'       42.8190   39.0320   19.6210 O.3    92  A92        -0.3114
   1857  C4'       41.2950   40.0780   18.0740 C.3    92  A92         0.1773
   1858  O4'       41.7980   39.0930   17.1510 O.3    92  A92        -0.3307
   1859  C3'       39.9620   39.5350   18.5480 C.3    92  A92         0.1860
   1860  O3'       38.9250   40.1440   17.8140 O.3    92  A92        -0.3112
   1861  C2'       40.0370   38.0450   18.2250 C.3    92  A92         0.2309
   1862  O2'       38.7650   37.5320   17.8970 O.3    92  A92        -0.2156
   1863  C1'       40.8520   38.0770   16.9600 C.3    92  A92         0.2408
   1864  N1        42.5220   34.8870   13.3150 N.ar   92  A92        -0.2040
   1865  C2        41.7200   35.9570   13.2610 C.ar   92  A92         0.2016
   1866  N3        41.3180   36.7410   14.2600 N.ar   92  A92        -0.2048
   1867  C4        41.8300   36.3330   15.4390 C.ar   92  A92         0.1692
   1868  C5        42.6770   35.2580   15.6490 C.ar   92  A92         0.1518
   1869  C6        43.0340   34.5020   14.5060 C.ar   92  A92         0.1919
   1870  N6        43.8330   33.4320   14.5420 N.pl3  92  A92        -0.1054
   1871  N7        43.0010   35.1500   16.9960 N.ar   92  A92        -0.2193
   1872  C8        42.3510   36.1460   17.5580 C.ar   92  A92         0.1816
   1873  N9        41.6230   36.8900   16.6810 N.ar   92  A92        -0.2693
   1874  OP1       41.9010   39.6360   21.8760 O.3    92  A92        -0.4373
   1875  OP2       42.2930   37.1840   21.2530 O.co2  92  A92        -0.5172
   1876  P         38.5560   41.6780   18.0590 P.3    93  G93         0.2141
   1877  C5'       36.1480   40.8090   18.1910 C.3    93  G93         0.1812
   1878  O5'       37.0050   41.7960   17.6880 O.3    93  G93        -0.3114
   1879  C4'       34.8780   40.7030   17.3850 C.3    93  G93         0.1773
   1880  O4'       34.2360   41.9980   17.3290 O.3    93  G93        -0.3307
   1881  C3'       35.0520   40.2460   15.9420 C.3    93  G93         0.1860
   1882  O3'       34.9360   38.8360   15.8820 O.3    93  G93        -0.3112
   1883  C2'       33.8850   40.9440   15.2410 C.3    93  G93         0.2309
   1884  O2'       32.6470   40.2720   15.3940 O.3    93  G93        -0.2156
   1885  C1'       33.8220   42.2670   16.0000 C.3    93  G93         0.2408
   1886  N1        34.9780   45.1070   11.9110 N.ar   93  G93        -0.1709
   1887  C2        34.0810   44.0740   12.0260 C.ar   93  G93         0.2606
   1888  N2        33.3940   43.7580   10.9240 N.pl3  93  G93        -0.0859
   1889  N3        33.8690   43.3950   13.1450 N.ar   93  G93        -0.1918
   1890  C4        34.6350   43.8440   14.1670 C.ar   93  G93         0.1723
   1891  C5        35.5520   44.8690   14.1560 C.ar   93  G93         0.1748
   1892  C6        35.7650   45.5820   12.9520 C.ar   93  G93         0.3023
   1893  O6        36.5420   46.5160   12.7480 O.2    93  G93        -0.2633
   1894  N7        36.1320   45.0290   15.4100 N.ar   93  G93        -0.2173
   1895  C8        35.5690   44.1080   16.1360 C.ar   93  G93         0.1817
   1896  N9        34.6460   43.3520   15.4530 N.ar   93  G93        -0.2693
   1897  OP1       39.3280   42.4670   17.0800 O.2    93  G93        -0.5172
   1898  OP2       38.7080   41.9360   19.5030 O.co2  93  G93        -0.4373
   1899  P         36.1520   37.9480   15.3490 P.3    94  U94         0.2141
   1900  C5'       34.7210   37.5460   13.2130 C.3    94  U94         0.1812
   1901  O5'       35.9200   38.0570   13.7800 O.3    94  U94        -0.3114
   1902  C4'       34.7300   37.8370   11.7330 C.3    94  U94         0.1773
   1903  O4'       34.8230   39.2690   11.5640 O.3    94  U94        -0.3307
   1904  C3'       35.9110   37.2410   10.9800 C.3    94  U94         0.1860
   1905  O3'       35.4800   36.7440    9.7140 O.3    94  U94        -0.3112
   1906  C2'       36.8740   38.4160   10.8630 C.3    94  U94         0.2309
   1907  O2'       37.7240   38.3550    9.7290 O.3    94  U94        -0.2156
   1908  C1'       35.9170   39.5860   10.7520 C.3    94  U94         0.2420
   1909  N1        36.5230   40.8150   11.2390 N.ar   94  U94        -0.2534
   1910  C2        36.5290   41.9070   10.4130 C.ar   94  U94         0.3546
   1911  O2        36.0240   41.8880    9.3210 O.2    94  U94        -0.2443
   1912  N3        37.1510   43.0270   10.9140 N.ar   94  U94        -0.1530
   1913  C4        37.7690   43.1510   12.1470 C.ar   94  U94         0.2846
   1914  O4        38.2870   44.2150   12.4590 O.2    94  U94        -0.2650
   1915  C5        37.7260   41.9620   12.9660 C.ar   94  U94         0.0814
   1916  C6        37.1200   40.8570   12.4890 C.ar   94  U94         0.0870
   1917  OP1       35.9150   36.5390   15.7500 O.3    94  U94        -0.4373
   1918  OP2       37.4580   38.5960   15.6580 O.co2  94  U94        -0.5172
   1919  P         35.1080   35.1940    9.5910 P.3    95  C95         0.2141
   1920  C5'       37.4240   34.1670    8.8170 C.3    95  C95         0.1812
   1921  O5'       36.5340   34.5000    9.8680 O.3    95  C95        -0.3114
   1922  C4'       38.5140   33.2150    9.2880 C.3    95  C95         0.1773
   1923  O4'       39.3940   33.8800   10.2360 O.3    95  C95        -0.3307
   1924  C3'       38.0520   31.9630   10.0180 C.3    95  C95         0.1860
   1925  O3'       37.6970   30.9710    9.0850 O.3    95  C95        -0.3112
   1926  C2'       39.3020   31.5830   10.8160 C.3    95  C95         0.2309
   1927  O2'       40.2460   30.8490   10.0590 O.3    95  C95        -0.2156
   1928  C1'       39.8800   32.9490   11.1900 C.3    95  C95         0.2420
   1929  N1        39.5070   33.4310   12.5670 N.ar   95  C95        -0.2535
   1930  C2        40.2440   33.0160   13.6920 C.ar   95  C95         0.3532
   1931  O2        41.2050   32.2490   13.5540 O.2    95  C95        -0.2443
   1932  N3        39.8930   33.4800   14.9190 N.ar   95  C95        -0.1739
   1933  C4        38.8560   34.3100   15.0420 C.ar   95  C95         0.1759
   1934  N4        38.5430   34.7360   16.2650 N.pl3  95  C95        -0.1070
   1935  C5        38.0910   34.7450   13.9150 C.ar   95  C95         0.0566
   1936  C6        38.4490   34.2850   12.7120 C.ar   95  C95         0.0850
   1937  OP1       34.6330   34.9250    8.2130 O.2    95  C95        -0.5172
   1938  OP2       34.1960   34.8480   10.7030 O.co2  95  C95        -0.4373
   1939  P         36.6350   29.8360    9.4610 P.3    96  U96         0.2141
   1940  C5'       38.3830   28.0860   10.3010 C.3    96  U96         0.1812
   1941  O5'       37.3940   29.0530   10.6320 O.3    96  U96        -0.3114
   1942  C4'       38.8610   27.3660   11.5430 C.3    96  U96         0.1773
   1943  O4'       39.5410   28.3130   12.4040 O.3    96  U96        -0.3307
   1944  C3'       37.7630   26.8060   12.4300 C.3    96  U96         0.1860
   1945  O3'       37.3020   25.5620   11.9540 O.3    96  U96        -0.3112
   1946  C2'       38.5070   26.6790   13.7500 C.3    96  U96         0.2309
   1947  O2'       39.4070   25.5900   13.7720 O.3    96  U96        -0.2156
   1948  C1'       39.2750   27.9970   13.7610 C.3    96  U96         0.2420
   1949  N1        38.5030   29.1160   14.4190 N.ar   96  U96        -0.2534
   1950  C2        38.5520   29.2530   15.7950 C.ar   96  U96         0.3546
   1951  O2        39.2020   28.5230   16.5220 O.2    96  U96        -0.2443
   1952  N3        37.8130   30.2900   16.3030 N.ar   96  U96        -0.1530
   1953  C4        37.0420   31.1870   15.5930 C.ar   96  U96         0.2846
   1954  O4        36.4290   32.0630   16.1890 O.2    96  U96        -0.2650
   1955  C5        37.0320   30.9830   14.1690 C.ar   96  U96         0.0814
   1956  C6        37.7450   29.9770   13.6490 C.ar   96  U96         0.0870
   1957  OP1       36.5240   28.9390    8.2890 O.2    96  U96        -0.5172
   1958  OP2       35.4140   30.4620   10.0140 O.co2  96  U96        -0.4373
   1959  P         35.7330   25.2400   12.0080 P.3    97  G97         0.2141
   1960  C5'       36.2140   24.0350   14.2850 C.3    97  G97         0.1812
   1961  O5'       35.4710   25.0210   13.5710 O.3    97  G97        -0.3114
   1962  C4'       35.8870   24.0740   15.7650 C.3    97  G97         0.1773
   1963  O4'       36.4610   25.2550   16.3670 O.3    97  G97        -0.3307
   1964  C3'       34.4090   24.1700   16.0980 C.3    97  G97         0.1860
   1965  O3'       33.8380   22.8870   16.0440 O.3    97  G97        -0.3112
   1966  C2'       34.4510   24.7240   17.5180 C.3    97  G97         0.2309
   1967  O2'       34.6800   23.7370   18.5030 O.3    97  G97        -0.2156
   1968  C1'       35.6470   25.6670   17.4470 C.3    97  G97         0.2408
   1969  N1        34.3860   30.0810   19.6350 N.ar   97  G97        -0.1709
   1970  C2        34.7140   28.8790   20.2260 C.ar   97  G97         0.2606
   1971  N2        34.7120   28.8430   21.5660 N.pl3  97  G97        -0.0859
   1972  N3        35.0260   27.7870   19.5430 N.ar   97  G97        -0.1918
   1973  C4        34.9830   27.9900   18.1980 C.ar   97  G97         0.1723
   1974  C5        34.6700   29.1460   17.5150 C.ar   97  G97         0.1748
   1975  C6        34.3400   30.3090   18.2560 C.ar   97  G97         0.3023
   1976  O6        34.0370   31.4280   17.8230 O.2    97  G97        -0.2633
   1977  N7        34.7410   28.9400   16.1410 N.ar   97  G97        -0.2173
   1978  C8        35.0920   27.6910   16.0200 C.ar   97  G97         0.1817
   1979  N9        35.2590   27.0540   17.2260 N.ar   97  G97        -0.2693
   1980  OP1       35.5130   23.9530   11.3040 O.2    97  G97        -0.5172
   1981  OP2       34.9840   26.4480   11.5870 O.co2  97  G97        -0.4373
   1982  P         32.3020   22.6900   15.6620 P.3    98  G98         0.2141
   1983  C5'       31.9040   22.0400   18.1620 C.3    98  G98         0.1812
   1984  O5'       31.5730   22.8900   17.0700 O.3    98  G98        -0.3114
   1985  C4'       31.3560   22.5960   19.4590 C.3    98  G98         0.1773
   1986  O4'       32.0330   23.8330   19.7840 O.3    98  G98        -0.3307
   1987  C3'       29.8880   22.9770   19.4150 C.3    98  G98         0.1860
   1988  O3'       29.0840   21.8350   19.6350 O.3    98  G98        -0.3112
   1989  C2'       29.8000   23.9670   20.5680 C.3    98  G98         0.2309
   1990  O2'       29.7170   23.3240   21.8230 O.3    98  G98        -0.2156
   1991  C1'       31.1340   24.7020   20.4480 C.3    98  G98         0.2408
   1992  N1        30.8770   29.7960   20.7680 N.ar   98  G98        -0.1709
   1993  C2        30.9380   28.8630   21.7750 C.ar   98  G98         0.2606
   1994  N2        30.9410   29.3410   23.0280 N.pl3  98  G98        -0.0859
   1995  N3        30.9980   27.5510   21.5670 N.ar   98  G98        -0.1918
   1996  C4        30.9940   27.2380   20.2450 C.ar   98  G98         0.1723
   1997  C5        30.9330   28.0970   19.1680 C.ar   98  G98         0.1748
   1998  C6        30.8690   29.4980   19.4050 C.ar   98  G98         0.3023
   1999  O6        30.8090   30.4210   18.5800 O.2    98  G98        -0.2633
   2000  N7        30.9480   27.3870   17.9730 N.ar   98  G98        -0.2173
   2001  C8        31.0210   26.1380   18.3440 C.ar   98  G98         0.1817
   2002  N9        31.0540   25.9680   19.7100 N.ar   98  G98        -0.2693
   2003  OP1       32.1480   21.2810   15.2340 O.3    98  G98        -0.4373
   2004  OP2       31.8690   23.7830   14.7610 O.co2  98  G98        -0.5172
   2005  P         27.6530   21.7040   18.9300 P.3    99  A99         0.2141
   2006  C5'       26.9380   21.9100   16.4080 C.3    99  A99         0.1812
   2007  O5'       27.9350   22.1430   17.4130 O.3    99  A99        -0.3114
   2008  C4'       26.8580   23.0350   15.3800 C.3    99  A99         0.1773
   2009  O4'       26.3670   24.2580   15.9900 O.3    99  A99        -0.3307
   2010  C3'       28.1640   23.4230   14.6970 C.3    99  A99         0.1860
   2011  O3'       27.8800   23.8690   13.3630 O.3    99  A99        -0.3112
   2012  C2'       28.6560   24.5590   15.5910 C.3    99  A99         0.2309
   2013  O2'       29.5750   25.4020   14.9290 O.3    99  A99        -0.2156
   2014  C1'       27.3400   25.2800   15.8840 C.3    99  A99         0.2408
   2015  N1        27.6500   29.9130   18.1500 N.ar   99  A99        -0.2040
   2016  C2        27.7400   29.5420   16.8670 C.ar   99  A99         0.2016
   2017  N3        27.6480   28.3190   16.3430 N.ar   99  A99        -0.2048
   2018  C4        27.4430   27.3970   17.2970 C.ar   99  A99         0.1692
   2019  C5        27.3310   27.6260   18.6570 C.ar   99  A99         0.1518
   2020  C6        27.4430   28.9680   19.0900 C.ar   99  A99         0.1919
   2021  N6        27.3530   29.3460   20.3690 N.pl3  99  A99        -0.1054
   2022  N7        27.1220   26.4390   19.3370 N.ar   99  A99        -0.2193
   2023  C8        27.1140   25.5320   18.3910 C.ar   99  A99         0.1816
   2024  N9        27.3090   26.0360   17.1350 N.ar   99  A99        -0.2693
   2025  OP1       26.7380   22.6830   19.5550 O.3    99  A99        -0.4373
   2026  OP2       27.2880   20.2710   18.9270 O.co2  99  A99        -0.5172
   2027  P         27.9660   22.8620   12.1160 P.3   100  U100        0.2141
   2028  C5'       25.4070   23.4130   11.8130 C.3   100  U100        0.1812
   2029  O5'       26.7000   23.2720   11.2180 O.3   100  U100       -0.3114
   2030  C4'       24.3300   22.5260   11.1880 C.3   100  U100        0.1773
   2031  O4'       24.7550   21.9280    9.9330 O.3   100  U100       -0.3307
   2032  C3'       23.8430   21.3820   12.0710 C.3   100  U100        0.1860
   2033  O3'       22.4080   21.3070   12.0480 O.3   100  U100       -0.3112
   2034  C2'       24.5110   20.1440   11.4630 C.3   100  U100        0.2309
   2035  O2'       23.7240   18.9760   11.5820 O.3   100  U100       -0.2156
   2036  C1'       24.6850   20.5130    9.9900 C.3   100  U100        0.2420
   2037  N1        25.9480   19.9610    9.3620 N.ar  100  U100       -0.2534
   2038  C2        26.0790   18.6050    9.0750 C.ar  100  U100        0.3546
   2039  O2        25.2140   17.7730    9.2970 O.2   100  U100       -0.2443
   2040  N3        27.2860   18.2510    8.5080 N.ar  100  U100       -0.1530
   2041  C4        28.3560   19.0900    8.2030 C.ar  100  U100        0.2846
   2042  O4        29.3820   18.6350    7.6950 O.2   100  U100       -0.2650
   2043  C5        28.1440   20.4780    8.5290 C.ar  100  U100        0.0814
   2044  C6        26.9800   20.8460    9.0790 C.ar  100  U100        0.0870
   2045  OP1       27.7560   21.4870   12.6180 O.3   100  U100       -0.4373
   2046  OP2       29.2070   23.1760   11.3650 O.co2 100  U100       -0.5172
   2047  P         21.4830   22.3870   12.8020 P.3   101  G101        0.2141
   2048  C5'       21.9610   21.6850   15.3150 C.3   101  G101        0.1812
   2049  O5'       22.1940   22.5950   14.2290 O.3   101  G101       -0.3114
   2050  C4'       22.2210   22.3200   16.6770 C.3   101  G101        0.1773
   2051  O4'       23.5010   23.0080   16.6930 O.3   101  G101       -0.3307
   2052  C3'       21.2210   23.3780   17.1200 C.3   101  G101        0.1860
   2053  O3'       20.0530   22.7730   17.6750 O.3   101  G101       -0.3112
   2054  C2'       22.0310   24.1120   18.1820 C.3   101  G101        0.2309
   2055  O2'       22.0380   23.4360   19.4210 O.3   101  G101       -0.2156
   2056  C1'       23.4340   24.1210   17.5740 C.3   101  G101        0.2408
   2057  N1        24.3470   29.1510   17.9000 N.ar  101  G101       -0.1709
   2058  C2        24.1170   28.2410   18.9050 C.ar  101  G101        0.2606
   2059  N2        24.1300   28.7290   20.1510 N.pl3 101  G101       -0.0859
   2060  N3        23.8960   26.9460   18.7040 N.ar  101  G101       -0.1918
   2061  C4        23.9190   26.6220   17.3850 C.ar  101  G101        0.1723
   2062  C5        24.1370   27.4590   16.3090 C.ar  101  G101        0.1748
   2063  C6        24.3750   28.8380   16.5430 C.ar  101  G101        0.3023
   2064  O6        24.5910   29.7330   15.7140 O.2   101  G101       -0.2633
   2065  N7        24.0820   26.7490   15.1170 N.ar  101  G101       -0.2173
   2066  C8        23.8290   25.5240   15.4840 C.ar  101  G101        0.1817
   2067  N9        23.7240   25.3640   16.8460 N.ar  101  G101       -0.2693
   2068  OP1       20.1540   21.7630   13.0040 O.3   101  G101       -0.4373
   2069  OP2       21.5750   23.6670   12.0660 O.co2 101  G101       -0.5172
   2070  P         18.6410   23.5400   17.6650 P.3   102  A102        0.2141
   2071  C5'       19.0280   24.3310   20.1570 C.3   102  A102        0.1812
   2072  O5'       18.8270   24.6730   18.7840 O.3   102  A102       -0.3114
   2073  C4'       19.2360   25.5790   20.9980 C.3   102  A102        0.1773
   2074  O4'       20.5140   26.1830   20.6740 O.3   102  A102       -0.3307
   2075  C3'       18.2080   26.6770   20.7640 C.3   102  A102        0.1860
   2076  O3'       17.0970   26.5050   21.6270 O.3   102  A102       -0.3112
   2077  C2'       18.9890   27.9470   21.0850 C.3   102  A102        0.2309
   2078  O2'       19.0270   28.2390   22.4670 O.3   102  A102       -0.2156
   2079  C1'       20.3800   27.5920   20.5770 C.3   102  A102        0.2408
   2080  N1        21.3200   31.5130   17.3260 N.ar  102  A102       -0.2040
   2081  C2        21.1590   31.4810   18.6560 C.ar  102  A102        0.2016
   2082  N3        20.9110   30.4290   19.4440 N.ar  102  A102       -0.2048
   2083  C4        20.8350   29.2900   18.7280 C.ar  102  A102        0.1692
   2084  C5        20.9830   29.1670   17.3590 C.ar  102  A102        0.1518
   2085  C6        21.2390   30.3490   16.6360 C.ar  102  A102        0.1919
   2086  N6        21.4010   30.3610   15.3110 N.pl3 102  A102       -0.1054
   2087  N7        20.8460   27.8490   16.9620 N.ar  102  A102       -0.2193
   2088  C8        20.6180   27.2080   18.0820 C.ar  102  A102        0.1816
   2089  N9        20.6040   28.0090   19.1910 N.ar  102  A102       -0.2693
   2090  OP1       17.6000   22.5920   18.1130 O.3   102  A102       -0.4373
   2091  OP2       18.4920   24.2200   16.3540 O.co2 102  A102       -0.5172
   2092  P         15.6570   27.0220   21.1630 P.3   103  G103        0.2141
   2093  C5'       15.8530   29.3400   22.3800 C.3   103  G103        0.1812
   2094  O5'       15.8310   28.6080   21.1630 O.3   103  G103       -0.3114
   2095  C4'       16.1250   30.7970   22.0760 C.3   103  G103        0.1773
   2096  O4'       17.3640   30.9000   21.3320 O.3   103  G103       -0.3307
   2097  C3'       15.1080   31.4290   21.1450 C.3   103  G103        0.1860
   2098  O3'       13.9930   31.8970   21.8530 O.3   103  G103       -0.3112
   2099  C2'       15.9070   32.5600   20.5160 C.3   103  G103        0.2309
   2100  O2'       16.0810   33.6510   21.3950 O.3   103  G103       -0.2156
   2101  C1'       17.2340   31.8580   20.2950 C.3   103  G103        0.2408
   2102  N1        18.5100   32.3960   15.4050 N.ar  103  G103       -0.1709
   2103  C2        18.5450   33.3160   16.4320 C.ar  103  G103        0.2606
   2104  N2        18.9740   34.5450   16.1270 N.pl3 103  G103       -0.0859
   2105  N3        18.1790   33.0510   17.6790 N.ar  103  G103       -0.1918
   2106  C4        17.7620   31.7670   17.8280 C.ar  103  G103        0.1723
   2107  C5        17.6920   30.7720   16.8740 C.ar  103  G103        0.1748
   2108  C6        18.0870   31.0690   15.5420 C.ar  103  G103        0.3023
   2109  O6        18.0920   30.3140   14.5580 O.2   103  G103       -0.2633
   2110  N7        17.2180   29.5910   17.4340 N.ar  103  G103       -0.2173
   2111  C8        17.0180   29.8910   18.6870 C.ar  103  G103        0.1817
   2112  N9        17.3290   31.1940   18.9980 N.ar  103  G103       -0.2693
   2113  OP1       14.6740   26.6540   22.2060 O.3   103  G103       -0.4373
   2114  OP2       15.4430   26.5870   19.7630 O.co2 103  G103       -0.5172
   2115  P         12.6510   32.1510   21.0280 P.3   104  A104        0.2141
   2116  C5'       12.7600   34.5310   22.1290 C.3   104  A104        0.1812
   2117  O5'       12.5980   33.7520   20.9480 O.3   104  A104       -0.3114
   2118  C4'       13.4510   35.8450   21.8250 C.3   104  A104        0.1773
   2119  O4'       14.6560   35.5890   21.0610 O.3   104  A104       -0.3307
   2120  C3'       12.6530   36.8140   20.9650 C.3   104  A104        0.1860
   2121  O3'       11.7750   37.5810   21.7680 O.3   104  A104       -0.3112
   2122  C2'       13.7610   37.6720   20.3570 C.3   104  A104        0.2309
   2123  O2'       14.1980   38.7210   21.1990 O.3   104  A104       -0.2156
   2124  C1'       14.8830   36.6520   20.1520 C.3   104  A104        0.2408
   2125  N1        17.1130   36.7840   15.5090 N.ar  104  A104       -0.2040
   2126  C2        17.4180   37.3990   16.6600 C.ar  104  A104        0.2016
   2127  N3        16.7990   37.3200   17.8380 N.ar  104  A104       -0.2048
   2128  C4        15.7450   36.4870   17.7700 C.ar  104  A104        0.1692
   2129  C5        15.3080   35.7870   16.6590 C.ar  104  A104        0.1518
   2130  C6        16.0440   35.9580   15.4730 C.ar  104  A104        0.1919
   2131  N6        15.7290   35.3380   14.3320 N.pl3 104  A104       -0.1054
   2132  N7        14.1880   35.0290   16.9550 N.ar  104  A104       -0.2193
   2133  C8        13.9700   35.2850   18.2220 C.ar  104  A104        0.1816
   2134  N9        14.8780   36.1450   18.7820 N.ar  104  A104       -0.2693
   2135  OP1       11.5070   31.6570   21.8340 O.3   104  A104       -0.4373
   2136  OP2       12.8640   31.6280   19.6560 O.co2 104  A104       -0.5172
   2137  P         10.1880   37.3760   21.6820 P.3   105  G105        0.2141
   2138  C5'        9.2940   38.0180   19.2820 C.3   105  G105        0.1812
   2139  O5'        9.9140   37.0600   20.1360 O.3   105  G105       -0.3114
   2140  C4'       10.0040   38.1170   17.9410 C.3   105  G105        0.1773
   2141  O4'       11.1280   37.1990   17.8720 O.3   105  G105       -0.3307
   2142  C3'        9.1560   37.7610   16.7350 C.3   105  G105        0.1860
   2143  O3'        8.3850   38.8680   16.3430 O.3   105  G105       -0.3112
   2144  C2'       10.2150   37.4250   15.6950 C.3   105  G105        0.2309
   2145  O2'       10.7740   38.5660   15.0700 O.3   105  G105       -0.2156
   2146  C1'       11.2560   36.7060   16.5490 C.3   105  G105        0.2408
   2147  N1        11.4600   32.4020   13.8430 N.ar  105  G105       -0.1709
   2148  C2        11.7440   33.6890   13.4540 C.ar  105  G105        0.2606
   2149  N2        12.1320   33.8610   12.1850 N.pl3 105  G105       -0.0859
   2150  N3        11.6550   34.7390   14.2570 N.ar  105  G105       -0.1918
   2151  C4        11.2470   34.3960   15.5060 C.ar  105  G105        0.1723
   2152  C5        10.9370   33.1470   15.9890 C.ar  105  G105        0.1748
   2153  C6        11.0380   32.0330   15.1200 C.ar  105  G105        0.3023
   2154  O6        10.8090   30.8430   15.3710 O.2   105  G105       -0.2633
   2155  N7        10.5600   33.2160   17.3260 N.ar  105  G105       -0.2173
   2156  C8        10.6460   34.4820   17.6200 C.ar  105  G105        0.1817
   2157  N9        11.0620   35.2580   16.5630 N.ar  105  G105       -0.2693
   2158  OP1        9.5520   38.6610   22.0550 O.2   105  G105       -0.5172
   2159  OP2        9.8620   36.1460   22.4320 O.co2 105  G105       -0.4373
   2160  P          6.9770   38.6280   15.6260 P.3   106  A106        0.2141
   2161  C5'        7.8970   39.1180   13.2250 C.3   106  A106        0.1812
   2162  O5'        7.4180   38.1570   14.1620 O.3   106  A106       -0.3114
   2163  C4'        8.3230   38.4630   11.9250 C.3   106  A106        0.1773
   2164  O4'        9.3490   37.4780   12.2010 O.3   106  A106       -0.3307
   2165  C3'        7.2400   37.6790   11.1970 C.3   106  A106        0.1860
   2166  O3'        6.4100   38.5180   10.4150 O.3   106  A106       -0.3112
   2167  C2'        8.0760   36.7270   10.3520 C.3   106  A106        0.2309
   2168  O2'        8.6400   37.3280    9.2030 O.3   106  A106       -0.2156
   2169  C1'        9.1670   36.3600   11.3500 C.3   106  A106        0.2408
   2170  N1         8.5160   31.2580   11.4740 N.ar  106  A106       -0.2040
   2171  C2         8.8960   32.0840   10.4890 C.ar  106  A106        0.2016
   2172  N3         9.0480   33.4080   10.5240 N.ar  106  A106       -0.2048
   2173  C4         8.7550   33.8960   11.7460 C.ar  106  A106        0.1692
   2174  C5         8.3500   33.1750   12.8530 C.ar  106  A106        0.1518
   2175  C6         8.2290   31.7790   12.6900 C.ar  106  A106        0.1919
   2176  N6         7.8460   30.9600   13.6750 N.pl3 106  A106       -0.1054
   2177  N7         8.1390   34.0130   13.9360 N.ar  106  A106       -0.2193
   2178  C8         8.4170   35.2050   13.4720 C.ar  106  A106        0.1816
   2179  N9         8.8000   35.2070   12.1610 N.ar  106  A106       -0.2693
   2180  OP1        6.3020   39.9420   15.5280 O.2   106  A106       -0.5172
   2181  OP2        6.2820   37.4960   16.2910 O.co2 106  A106       -0.4373
   2182  P          4.8200   38.4130   10.5920 P.3   107  A107        0.2141
   2183  C5'        3.8080   36.5980    8.9590 C.3   107  A107        0.1812
   2184  O5'        4.3240   37.9160    9.1500 O.3   107  A107       -0.3114
   2185  C4'        4.6140   35.8580    7.9040 C.3   107  A107        0.1773
   2186  O4'        5.8550   35.3890    8.4880 O.3   107  A107       -0.3307
   2187  C3'        3.9420   34.6110    7.3460 C.3   107  A107        0.1860
   2188  O3'        3.2170   34.9220    6.1720 O.3   107  A107       -0.3112
   2189  C2'        5.1130   33.6690    7.0890 C.3   107  A107        0.2309
   2190  O2'        5.8140   33.9610    5.8960 O.3   107  A107       -0.2156
   2191  C1'        5.9850   33.9930    8.2930 C.3   107  A107        0.2408
   2192  N1         5.2520   29.4490   10.6460 N.ar  107  A107       -0.2040
   2193  C2         5.6210   29.7550    9.3930 C.ar  107  A107        0.2016
   2194  N3         5.7940   30.9580    8.8440 N.ar  107  A107       -0.2048
   2195  C4         5.5380   31.9370    9.7330 C.ar  107  A107        0.1692
   2196  C5         5.1510   31.7780   11.0530 C.ar  107  A107        0.1518
   2197  C6         5.0090   30.4530   11.5180 C.ar  107  A107        0.1919
   2198  N6         4.6400   30.1480   12.7660 N.pl3 107  A107       -0.1054
   2199  N7         4.9790   33.0060   11.6690 N.ar  107  A107       -0.2193
   2200  C8         5.2650   33.8690   10.7250 C.ar  107  A107        0.1816
   2201  N9         5.6070   33.2980    9.5280 N.ar  107  A107       -0.2693
   2202  OP1        4.2960   39.7780   10.8210 O.2   107  A107       -0.5172
   2203  OP2        4.5230   37.3440   11.5770 O.co2 107  A107       -0.4373
   2204  P          1.6520   35.1850    6.3200 P.3   108  G108        0.2141
   2205  C5'        0.3680   32.9510    6.8860 C.3   108  G108        0.1812
   2206  O5'        1.2070   34.0190    7.3250 O.3   108  G108       -0.3114
   2207  C4'        1.1710   31.8350    6.2310 C.3   108  G108        0.1773
   2208  O4'        2.4260   31.6240    6.9330 O.3   108  G108       -0.3307
   2209  C3'        0.4610   30.4870    6.2180 C.3   108  G108        0.1860
   2210  O3'       -0.1900   30.3020    4.9740 O.3   108  G108       -0.3112
   2211  C2'        1.5880   29.4800    6.4170 C.3   108  G108        0.2309
   2212  O2'        2.2010   29.0980    5.2020 O.3   108  G108       -0.2156
   2213  C1'        2.5660   30.2610    7.2910 C.3   108  G108        0.2408
   2214  N1         2.0210   27.0580   11.2540 N.ar  108  G108       -0.1709
   2215  C2         2.2470   26.7620    9.9290 C.ar  108  G108        0.2606
   2216  N2         2.3450   25.4630    9.6160 N.pl3 108  G108       -0.0859
   2217  N3         2.3740   27.6800    8.9780 N.ar  108  G108       -0.1918
   2218  C4         2.2470   28.9450    9.4620 C.ar  108  G108        0.1723
   2219  C5         2.0150   29.3370   10.7640 C.ar  108  G108        0.1748
   2220  C6         1.8890   28.3480   11.7690 C.ar  108  G108        0.3023
   2221  O6         1.6840   28.5130   12.9770 O.2   108  G108       -0.2633
   2222  N7         1.9530   30.7200   10.8630 N.ar  108  G108       -0.2173
   2223  C8         2.1440   31.1340    9.6420 C.ar  108  G108        0.1817
   2224  N9         2.3310   30.1170    8.7320 N.ar  108  G108       -0.2693
   2225  OP1        1.0140   34.9670    5.0040 O.2   108  G108       -0.5172
   2226  OP2        1.4810   36.4820    7.0130 O.co2 108  G108       -0.4373
   2227  P         -1.7290   29.8750    4.9570 P.3   109  A109        0.2141
   2228  C5'       -1.1650   27.3270    4.6530 C.3   109  A109        0.1812
   2229  O5'       -1.6890   28.3630    5.4780 O.3   109  A109       -0.3114
   2230  C4'       -1.1720   26.0010    5.3910 C.3   109  A109        0.1773
   2231  O4'       -0.1770   26.0320    6.4480 O.3   109  A109       -0.3307
   2232  C3'       -2.4590   25.6730    6.1300 C.3   109  A109        0.1860
   2233  O3'       -3.4370   25.1340    5.2650 O.3   109  A109       -0.3112
   2234  C2'       -1.9650   24.6490    7.1400 C.3   109  A109        0.2309
   2235  O2'       -1.7160   23.3850    6.5550 O.3   109  A109       -0.2156
   2236  C1'       -0.6560   25.3010    7.5690 C.3   109  A109        0.2408
   2237  N1        -1.2220   25.7000   12.6870 N.ar  109  A109       -0.2040
   2238  C2        -1.1110   24.6350   11.8790 C.ar  109  A109        0.2016
   2239  N3        -0.9650   24.5990   10.5550 N.ar  109  A109       -0.2048
   2240  C4        -0.9440   25.8430   10.0410 C.ar  109  A109        0.1692
   2241  C5        -1.0510   27.0330   10.7430 C.ar  109  A109        0.1518
   2242  C6        -1.1960   26.9370   12.1440 C.ar  109  A109        0.1919
   2243  N6        -1.3100   28.0010   12.9460 N.pl3 109  A109       -0.1054
   2244  N7        -0.9790   28.1190    9.8840 N.ar  109  A109       -0.2193
   2245  C8        -0.8400   27.5730    8.6980 C.ar  109  A109        0.1816
   2246  N9        -0.8060   26.2020    8.7160 N.ar  109  A109       -0.2693
   2247  OP1       -2.1980   29.8890    3.5530 O.2   109  A109       -0.5172
   2248  OP2       -2.4340   30.6870    5.9740 O.co2 109  A109       -0.4373
   2249  P         -4.9800   25.3780    5.6100 P.3   110  U110        0.2141
   2250  C5'       -5.3940   22.9700    6.5860 C.3   110  U110        0.1812
   2251  O5'       -5.2560   24.3660    6.8200 O.3   110  U110       -0.3114
   2252  C4'       -5.4630   22.2150    7.8990 C.3   110  U110        0.1773
   2253  O4'       -4.3540   22.6210    8.7440 O.3   110  U110       -0.3307
   2254  C3'       -6.6960   22.5020    8.7430 C.3   110  U110        0.1860
   2255  O3'       -7.8150   21.7240    8.3280 O.3   110  U110       -0.3112
   2256  C2'       -6.1970   22.1050   10.1260 C.3   110  U110        0.2309
   2257  O2'       -6.1990   20.7060   10.3370 O.3   110  U110       -0.2156
   2258  C1'       -4.7730   22.6540   10.0980 C.3   110  U110        0.2420
   2259  N1        -4.6930   24.0570   10.6390 N.ar  110  U110       -0.2534
   2260  C2        -4.6850   24.2490   12.0130 C.ar  110  U110        0.3546
   2261  O2        -4.7250   23.3340   12.8230 O.2   110  U110       -0.2443
   2262  N3        -4.6250   25.5650   12.4130 N.ar  110  U110       -0.1530
   2263  C4        -4.5770   26.6860   11.5990 C.ar  110  U110        0.2846
   2264  O4        -4.5290   27.8010   12.1070 O.2   110  U110       -0.2650
   2265  C5        -4.5960   26.4120   10.1830 C.ar  110  U110        0.0814
   2266  C6        -4.6530   25.1380    9.7680 C.ar  110  U110        0.0870
   2267  OP1       -5.7790   24.9680    4.4340 O.2   110  U110       -0.5172
   2268  OP2       -5.1100   26.7510    6.1450 O.co2 110  U110       -0.4373
   2269  P         -9.3040   22.3040    8.5020 P.3   111  U111        0.2141
   2270  C5'       -9.5370   20.9670   10.7530 C.3   111  U111        0.1813
   2271  O5'       -9.5610   22.2210   10.0780 O.3   111  U111       -0.3114
   2272  C4'       -9.4200   21.1750   12.2490 C.3   111  U111        0.1801
   2273  O4'       -8.2030   21.9010   12.5610 O.3   111  U111       -0.3306
   2274  C3'      -10.5230   22.0340   12.8350 C.3   111  U111        0.2161
   2275  O3'      -11.6710   21.2520   13.0880 O.3   111  U111       -0.2175
   2276  C2'       -9.8740   22.5690   14.1060 C.3   111  U111        0.2338
   2277  O2'       -9.9070   21.6490   15.1790 O.3   111  U111       -0.2155
   2278  C1'       -8.4380   22.7940   13.6370 C.3   111  U111        0.2421
   2279  N1        -8.1820   24.2070   13.1980 N.ar  111  U111       -0.2534
   2280  C2        -7.9240   25.1660   14.1570 C.ar  111  U111        0.3546
   2281  O2        -7.8840   24.9230   15.3470 O.2   111  U111       -0.2443
   2282  N3        -7.7060   26.4320   13.6700 N.ar  111  U111       -0.1530
   2283  C4        -7.7240   26.8270   12.3440 C.ar  111  U111        0.2846
   2284  O4        -7.5060   27.9990   12.0570 O.2   111  U111       -0.2650
   2285  C5        -8.0040   25.7740   11.4000 C.ar  111  U111        0.0814
   2286  C6        -8.2190   24.5340   11.8540 C.ar  111  U111        0.0870
   2287  OP1      -10.2440   21.3820    7.8270 O.2   111  U111       -0.5172
   2288  OP2       -9.2870   23.7350    8.1220 O.co2 111  U111       -0.4373
@<TRIPOS>BOND
     1   301   280    2
     2   324   303    2
     3   266   265    1
     4   281   283    1
     5   281   282    1
     6   283   284    1
     7   283   285    1
     8   286   303    1
     9   286   285    1
    10   288   287    1
    11   303   325    1
    12   303   305    1
    13   280   282    1
    14   280   264    1
    15   280   302    1
    16   264   263    1
    17   284   289    1
    18   285   287    1
    19   265   263    1
    20   265   267    1
    21   304   305    1
    22   304   306    1
    23   287   289    1
    24   263   261    1
    25   289   300    1
    26   270   269   ar
    27   270   271   ar
    28   267   262    1
    29   267   277    1
    30   261   262    1
    31   261   259    1
    32   269   268   ar
    33   306   307    1
    34   306   308    1
    35   271   277   ar
    36   271   272   ar
    37   277   276   ar
    38   259   260    1
    39  1571  1551    2
    40   300   299   ar
    41   300   294   ar
    42   268   273   ar
    43   309   308    1
    44   309   326    1
    45   307   312    1
    46   347   326    2
    47   299   298   ar
    48   260   258    1
    49   308   310    1
    50   621   603    2
    51   326   348    1
    52   326   328    1
    53   272   273   ar
    54   272   275   ar
    55   276   275   ar
    56   273   274    1
    57   294   293   ar
    58   294   295   ar
    59   311   310    1
    60  1552  1553    1
    61  1552  1554    1
    62   293   291   ar
    63  1551  1537    1
    64  1551  1553    1
    65  1551  1572    1
    66  1537  1536    1
    67   312   310    1
    68   312   323    1
    69  1593  1573    2
    70   256   238    2
    71   298   295   ar
    72   589   588    1
    73   587   603    1
    74   587   586    1
    75   604   606    1
    76   604   605    1
    77   641   623    2
    78  1539  1538    1
    79   258   278    2
    80   258   279    1
    81   258   244    1
    82   322   323   ar
    83   322   321   ar
    84  1554  1556    1
    85  1554  1555    1
    86  1557  1573    1
    87  1557  1556    1
    88   603   605    1
    89   603   622    1
    90   236   215    2
    91   295   296   ar
    92  1534  1532    1
    93  1534  1536    1
    94  1534  1535    1
    95  1532  1533    1
    96  2247  2227    2
    97  1549  1531    2
    98   328   327    1
    99   323   317   ar
   100   584   582    1
   101   584   586    1
   102   584   585    1
   103  1573  1594    1
   104  1573  1575    1
   105   606   608    1
   106   606   607    1
   107  1536  1538    1
   108   327   329    1
   109   609   623    1
   110   609   608    1
   111   244   243    1
   112   291   292    1
   113   291   290   ar
   114   582   583    1
   115   238   257    1
   116   238   221    1
   117   238   240    1
   118   586   588    1
   119  1556  1558    1
   120   588   590    1
   121   623   642    1
   122   623   625    1
   123  1538  1540    1
   124   221   220    1
   125  1555  1560    1
   126   321   318   ar
   127  2267  2249    2
   128  1535  1540    1
   129   585   590    1
   130   566   565    1
   131   601   581    2
   132   216   217    1
   133   216   218    1
   134  1533  1531    1
   135  2228  2230    1
   136  2228  2229    1
   137   608   610    1
   138  1559  1558    1
   139   607   612    1
   140   296   290   ar
   141   296   297    2
   142   144   126    2
   143   215   217    1
   144   215   198    1
   145   215   237    1
   146  1531  1517    1
   147  1531  1550    1
   148   590   600    1
   149  2227  2210    1
   150  2227  2229    1
   151  2227  2248    1
   152   611   610    1
   153  2210  2209    1
   154  2225  2204    2
   155  1574  1575    1
   156  1574  1576    1
   157  1540  1541    1
   158   317   318   ar
   159   317   316   ar
   160  1519  1518    1
   161   240   239    1
   162   239   241    1
   163   243   241    1
   164   243   245    1
   165  2212  2211    1
   166   583   581    1
   167  1558  1560    1
   168   624   625    1
   169   624   626    1
   170  2233  2249    1
   171  2233  2232    1
   172   241   242    1
   173   218   220    1
   174   218   219    1
   175   198   197    1
   176   329   330    1
   177   329   331    1
   178   246   245    1
   179   664   643    2
   180  2230  2232    1
   181  2230  2231    1
   182   220   222    1
   183  1517  1516    1
   184   318   319   ar
   185   564   581    1
   186   564   563    1
   187   127   129    1
   188   127   128    1
   189   368   349    2
   190  1560  1570    1
   191   581   602    1
   192   610   612    1
   193  2249  2268    1
   194  2249  2251    1
   195   316   314   ar
   196  1370  1369    1
   197   112   126    1
   198   112   111    1
   199   565   563    1
   200   565   567    1
   201   367   349    1
   202  2190  2189    1
   203   612   613    1
   204   330   335    1
   205   167   146    2
   206   332   331    1
   207   332   349    1
   208   126   128    1
   209   126   145    1
   210   245   247    1
   211   331   333    1
   212  2232  2234    1
   213  2188  2204    1
   214  2188  2187    1
   215   129   130    1
   216   129   131    1
   217   109   107    1
   218   109   111    1
   219   109   110    1
   220  2209  2207    1
   221  2209  2211    1
   222   349   351    1
   223  2207  2205    1
   224  2207  2208    1
   225  1615  1595    2
   226  1518  1516    1
   227  1518  1520    1
   228  2204  2226    1
   229  2204  2206    1
   230   600   594   ar
   231   600   599   ar
   232   132   146    1
   233   132   131    1
   234   193   195    1
   235   193   194    1
   236   473   472    2
   237  1576  1578    1
   238  1576  1577    1
   239  2211  2213    1
   240   345   344   ar
   241   345   346   ar
   242   563   561    1
   243  2231  2236    1
   244  1541  1548   ar
   245  1541  1542   ar
   246   550   549    2
   247   107   108    1
   248  1365  1366    1
   249  1365  1363    1
   250  1365  1367    1
   251   626   628    1
   252   626   627    1
   253  1616  1595    1
   254   223   222    1
   255   242   247    1
   256  2235  2234    1
   257  2250  2251    1
   258  2250  2252    1
   259   561   562    1
   260   561   559    1
   261   195   197    1
   262   195   196    1
   263   213   192    2
   264  1347  1346    1
   265  1516  1514    1
   266   197   199    1
   267   570   569    1
   268  1569  1570   ar
   269  1569  1568   ar
   270   812   811    2
   271   219   224    1
   272   593   594   ar
   273   593   592   ar
   274   111   113    1
   275   643   629    1
   276   643   665    1
   277   643   645    1
   278  1570  1564   ar
   279   567   562    1
   280   567   578    1
   281   222   224    1
   282   629   628    1
   283   471   472   ar
   284   471   469   ar
   285   810   811   ar
   286   810   808   ar
   287   472   474   ar
   288   200   199    1
   289  1579  1595    1
   290  1579  1578    1
   291  1366  1371    1
   292  1363  1364    1
   293  1543  1542    2
   294  1368  1367    1
   295  1368  1382    1
   296   809   808    2
   297   344   341   ar
   298  2205  2206    1
   299   110   115    1
   300   319   320    2
   301   319   313   ar
   302  2208  2213    1
   303  1595  1597    1
   304   134   133    1
   305   194   192    1
   306   247   248    1
   307   620   613   ar
   308   620   619   ar
   309   146   168    1
   310   146   148    1
   311  1548  1547   ar
   312   130   135    1
   313   131   133    1
   314   314   313   ar
   315   314   315    1
   316   571   569   ar
   317   571   572   ar
   318  2189  2187    1
   319  2189  2191    1
   320  1369  1371    1
   321  1369  1367    1
   322   594   595   ar
   323   470   469    2
   324   613   614   ar
   325  2234  2236    1
   326  1371  1372    1
   327   811   813   ar
   328   469   468   ar
   329  1578  1580    1
   330  1403  1382    2
   331  1514  1515    1
   332  1514  1512    1
   333   599   598   ar
   334  1577  1582    1
   335   628   630    1
   336   335   346    1
   337   335   333    1
   338   808   807   ar
   339  2213  2224    1
   340  1542  1544   ar
   341   474   475   ar
   342  2187  2185    1
   343   346   340   ar
   344  1520  1515    1
   345  1520  1521    1
   346  1523  1522    2
   347    94    93    1
   348   627   632    1
   349   108   106    1
   350   569   568   ar
   351   333   334    1
   352   199   201    1
   353  2236  2246    1
   354   559   560    1
   355   224   235    1
   356   549   551   ar
   357   549   548   ar
   358  1383  1385    1
   359  1383  1384    1
   360   434   414    2
   361   192   175    1
   362   192   214    1
   363  1351  1350    1
   364   468   475   ar
   365   468   467    1
   366   592   591   ar
   367   551   552   ar
   368  2042  2041    2
   369   115   113    1
   370   115   116    1
   371   546   545    1
   372   133   135    1
   373   645   644    1
   374   351   350    1
   375   386   385    2
   376  1568  1565   ar
   377   462   467    1
   378   462   461    1
   379  2287  2269    2
   380   118   117    2
   381  2252  2254    1
   382  2252  2253    1
   383   196   201    1
   384  2185  2186    1
   385  2185  2183    1
   386  1382  1384    1
   387  1382  1404    1
   388   147   148    1
   389   147   149    1
   390   578   572   ar
   391   578   577   ar
   392  1346  1348    1
   393  1346  1344    1
   394   619   617   ar
   395  1564  1563   ar
   396  1564  1565   ar
   397   135   136    1
   398   113   114    1
   399   572   573   ar
   400  2288  2269    1
   401  1374  1373    2
   402  1591  1590   ar
   403  1591  1592   ar
   404   467   465    1
   405  1380  1362    2
   406   813   814   ar
   407  2041  2040   ar
   408  2041  2043   ar
   409  1345  1344    1
   410  1345  1362    1
   411  1937  1919    2
   412  1364  1362    1
   413   234   235   ar
   414   234   233   ar
   415  1385  1386    1
   416  1385  1387    1
   417   341   340   ar
   418   341   342   ar
   419   807   814   ar
   420   807   806    1
   421  1957  1939    2
   422  1328  1327    1
   423  2191  2186    1
   424  2191  2201    1
   425  1512  1513    1
   426  1547  1545   ar
   427  2255  2269    1
   428  2255  2254    1
   429  1352  1350   ar
   430  1352  1353   ar
   431  1348  1343    1
   432  1348  1359    1
   433   595   598   ar
   434   595   596   ar
   435   248   255   ar
   436   248   249   ar
   437   614   615    2
   438   614   616   ar
   439   786   785   ar
   440   786   787   ar
   441   235   229   ar
   442  2269  2271    1
   443   201   212    1
   444  2040  2038   ar
   445   545   547    1
   446   545   543    1
   447  1597  1596    1
   448   175   174    1
   449  1372  1373   ar
   450  1372  1379   ar
   451  1522  1521   ar
   452  1522  1524   ar
   453  2043  2044   ar
   454  1386  1391    1
   455  1342  1343    1
   456  1342  1344    1
   457  1342  1340    1
   458  1582  1580    1
   459  1582  1592    1
   460   785   790   ar
   461    92   106    1
   462    92    91    1
   463  1465  1464    1
   464   644   646    1
   465   340   339   ar
   466  1563  1562   ar
   467   365   366   ar
   468   365   363   ar
   469  1580  1581    1
   470  1544  1545   ar
   471  1521  1528   ar
   472  1350  1349   ar
   473   547   548    1
   474   547   542    1
   475   630   632    1
   476   630   631    1
   477   560   558    1
   478   250   249    2
   479  2245  2246   ar
   480  2245  2244   ar
   481  1565  1566   ar
   482  2246  2240   ar
   483   461   459    1
   484   461   463    1
   485   640   639   ar
   486   640   633   ar
   487   391   369    2
   488   350   352    1
   489  2224  2218   ar
   490  2224  2223   ar
   491  2254  2256    1
   492  2253  2258    1
   493   548   555   ar
   494   632   633    1
   495  1362  1381    1
   496  1590  1587   ar
   497  1920  1922    1
   498  1920  1921    1
   499  1459  1464   ar
   500  1459  1460   ar
   501   806   801    1
   502   806   804    1
   503  2194  2193   ar
   504  2194  2195   ar
   505   568   574   ar
   506    93    91    1
   507    93    95    1
   508  1373  1375   ar
   509   117   116   ar
   510   117   119   ar
   511  1443  1442    1
   512   106   124    2
   513   106   125    1
   514   552   553    1
   515   552   554   ar
   516   116   123   ar
   517   364   363    2
   518  2183  2184    1
   519   255   254   ar
   520  1592  1586   ar
   521  2217  2218   ar
   522  2217  2215   ar
   523   459   460    1
   524   591   596   ar
   525   385   384   ar
   526   385   379   ar
   527  2038  2039    2
   528  2038  2037   ar
   529  2044  2037   ar
   530  1925  1939    1
   531  1925  1924    1
   532   414   398    1
   533   414   435    1
   534   414   416    1
   535   457   436    2
   536  1545  1546    1
   537   387   384   ar
   538   387   388   ar
   539  2184  2182    1
   540   801   800    1
   541   456   436    1
   542  1513  1511    1
   543   343   342    2
   544  2168  2167    1
   545   249   251   ar
   546   233   230   ar
   547  1596  1598    1
   548   477   458    2
   549   149   150    1
   550   149   151    1
   551   577   576   ar
   552   366   359   ar
   553  1922  1924    1
   554  1922  1923    1
   555   342   336   ar
   556   639   637   ar
   557  1911  1910    2
   558  1388  1387    1
   559  1388  1405    1
   560   617   616   ar
   561   617   618    1
   562   579   558    2
   563   190   169    2
   564  2037  2036    1
   565  1464  1463   ar
   566   398   397    1
   567   363   362   ar
   568  2193  2192   ar
   569   596   597    1
   570  1529  1511    2
   571  1379  1378   ar
   572   174   172    1
   573   174   176    1
   574   787   788   ar
   575   136   143   ar
   576   136   137   ar
   577   573   574   ar
   578   573   576   ar
   579    91    89    1
   580  1939  1958    1
   581  1939  1941    1
   582  2218  2219   ar
   583   633   634   ar
   584   460   458    1
   585  1353  1359   ar
   586  1353  1354   ar
   587  1359  1358   ar
   588  2201  2195   ar
   589  2201  2200   ar
   590    98    97    2
   591  1387  1389    1
   592   172   170    1
   593   172   173    1
   594    89    90    1
   595    89    87    1
   596    95    90    1
   597    95    96    1
   598  1340  1341    1
   599  1919  1905    1
   600  1919  1921    1
   601  1919  1938    1
   602   143   142   ar
   603   415   416    1
   604   415   417    1
   605  1390  1389    1
   606  1327  1329   ar
   607  1327  1326   ar
   608  2216  2215    1
   609  1460  1461   ar
   610  1524  1525   ar
   611  1421  1420    1
   612  2223  2222   ar
   613   384   383   ar
   614   465   463    1
   615   465   466    1
   616  1391  1389    1
   617  1391  1402    1
   618  1905  1904    1
   619  1907  1906    1
   620  2195  2196   ar
   621  2266  2265   ar
   622  2266  2259   ar
   623   229   230   ar
   624   229   228   ar
   625   170   171    1
   626   805   804    1
   627   790   791    1
   628   790   789   ar
   629   542   541    1
   630   339   337   ar
   631   212   211   ar
   632   212   206   ar
   633   436   420    1
   634   436   438    1
   635  1528  1527   ar
   636   558   544    1
   637   558   580    1
   638  2244  2241   ar
   639   150   155    1
   640   379   380   ar
   641   574   575    2
   642  1349  1355   ar
   643  2215  2214   ar
   644  2031  2036    1
   645  2031  2030    1
   646  1562  1561   ar
   647   463   464    1
   648   543   544    1
   649   543   541    1
   650  2036  2034    1
   651   152   151    1
   652   152   169    1
   653   555   554   ar
   654  1425  1405    2
   655  1924  1926    1
   656  1511  1530    1
   657  1511  1497    1
   658  2240  2239   ar
   659  2240  2241   ar
   660   803   802    1
   661   803   817    1
   662   646   648    1
   663   646   647    1
   664  1927  1926    1
   665   119   120   ar
   666   369   390    1
   667   369   371    1
   668   369   355    1
   669   837   817    2
   670  2271  2270    1
   671  1442  1437   ar
   672  1442  1441   ar
   673  2258  2256    1
   674  2258  2259    1
   675   123   122   ar
   676   804   802    1
   677  1329  1330   ar
   678  1587  1586   ar
   679  1587  1588   ar
   680  1566  1561   ar
   681  1566  1567    1
   682  2256  2257    1
   683   458   476    1
   684   458   442    1
   685  1375  1376   ar
   686   352   353    1
   687   352   354    1
   688   388   389   ar
   689   464   478    1
   690  1437  1438   ar
   691   211   210   ar
   692   662   661   ar
   693   662   663   ar
   694  2265  2263   ar
   695   230   231   ar
   696  1923  1928    1
   697  1586  1585   ar
   698   254   252   ar
   699   648   650    1
   700   648   649    1
   701   151   153    1
   702   800   802    1
   703   800   798    1
   704   353   358    1
   705  1940  1941    1
   706  1940  1942    1
   707   413   392    2
   708  1324  1323    1
   709  1422  1419   ar
   710  1422  1423   ar
   711  1405  1426    1
   712  1405  1407    1
   713  2167  2165    1
   714  2167  2169    1
   715   687   666    2
   716  1326  1332   ar
   717   420   419    1
   718   661   658   ar
   719  1910  1912   ar
   720  1910  1909   ar
   721  2166  2182    1
   722  2166  2165    1
   723   138   137    2
   724   228   226   ar
   725   169   171    1
   726   169   191    1
   727  1612  1613   ar
   728  1612  1609   ar
   729  2171  2172   ar
   730  2171  2170   ar
   731   530   529    2
   732   541   539    1
   733   251   252   ar
   734  2172  2173   ar
   735   707   689    2
   736   393   395    1
   737   393   394    1
   738  1613  1614   ar
   739   531   529   ar
   740   531   532   ar
   741   354   355    1
   742   354   356    1
   743  2239  2238   ar
   744   336   337   ar
   745   137   139   ar
   746    87    88    1
   747  2182  2202    2
   748  2182  2203    1
   749   395   397    1
   750   395   396    1
   751   650   652    1
   752   650   651    1
   753   359   358    1
   754   359   360   ar
   755    97    96   ar
   756    97    99   ar
   757   788   789   ar
   758   788   794   ar
   759  2259  2260   ar
   760   533   532    1
   761  2192  2197   ar
   762  1378  1376   ar
   763   397   399    1
   764   173   178    1
   765  1598  1599    1
   766  1598  1600    1
   767  1402  1401   ar
   768  1402  1396   ar
   769  2200  2199   ar
   770   647   652    1
   771  2241  2242   ar
   772   637   638    1
   773   637   636   ar
   774   362   360   ar
   775  1908  1906    1
   776  1908  1909    1
   777  1908  1903    1
   778  2270  2272    1
   779   417   419    1
   780   417   418    1
   781   400   399    1
   782  2219  2222   ar
   783  2219  2220   ar
   784  1463  1462   ar
   785  1463  1466   ar
   786  1354  1355   ar
   787  1354  1357   ar
   788    96   103   ar
   789   337   338    1
   790  1525  1527   ar
   791  1525  1526    1
   792   142   140   ar
   793  1926  1928    1
   794  1401  1400   ar
   795  1358  1357   ar
   796   371   370    1
   797   176   177    1
   798   176   178    1
   799   634   636   ar
   800   634   635    2
   801  1906  1904    1
   802  1420  1419   ar
   803  1420  1415   ar
   804  1341  1339    1
   805  1912  1913   ar
   806   817   838    1
   807   817   819    1
   808   789   792   ar
   809  1888  1887    1
   810  1461  1462   ar
   811  1904  1902    1
   812   383   389   ar
   813   383   382   ar
   814   206   205   ar
   815   206   207   ar
   816   252   253    1
   817  2196  2197   ar
   818  2196  2199   ar
   819   861   839    2
   820  1355  1356    2
   821  1376  1377    2
   822  1599  1604    1
   823   497   478    2
   824   165   166   ar
   825   165   164   ar
   826  1419  1418   ar
   827  1423  1424   ar
   828   529   528   ar
   829   419   421    1
   830    74    73    1
   831   438   437    1
   832   205   203   ar
   833  2030  2028    1
   834  2030  2032    1
   835  1928  1929    1
   836  2165  2163    1
   837  1638  1617    2
   838  2029  2028    1
   839  2029  2027    1
   840   380   382   ar
   841   380   381    1
   842  1909  1916   ar
   843   178   189    1
   844   122   120   ar
   845   358   356    1
   846  2214  2220   ar
   847   120   121    2
   848   663   652    1
   849   663   657   ar
   850   478   496    1
   851   478   480    1
   852   532   534   ar
   853  1323  1325    1
   854  1323  1321    1
   855   155   153    1
   856   155   166    1
   857  1441  1444   ar
   858  1441  1440   ar
   859  1980  1959    2
   860   649   666    1
   861  1588  1589    1
   862  1588  1583   ar
   863   389   378    1
   864  1600  1601    1
   865  1600  1602    1
   866  2169  2179    1
   867  2169  2164    1
   868  1499  1498    1
   869  2046  2027    2
   870  1438  1439   ar
   871   799   798    1
   872   799   797    1
   873  1497  1496    1
   874  1585  1584   ar
   875  2285  2286   ar
   876  2285  2283   ar
   877   442   441    1
   878   360   361    2
   879   394   392    1
   880   210   207   ar
   881   441   443    1
   882   441   439    1
   883  2034  2035    1
   884  2034  2032    1
   885   513   512    1
   886  1330  1336   ar
   887  1330  1331   ar
   888   818   819    1
   889   818   820    1
   890  1462  1468   ar
   891  2170  2175   ar
   892   231   232    2
   893   231   225   ar
   894   399   401    1
   895  2197  2198    1
   896   153   154    1
   897   667   668    1
   898   667   669    1
   899  1942  1943    1
   900  1942  1944    1
   901  1903  1902    1
   902  1601  1617    1
   903   392   412    1
   904   392   375    1
   905  1444  1445   ar
   906  1981  1959    1
   907  2263  2264    2
   908  2263  2262   ar
   909   666   668    1
   910   666   688    1
   911  1466  1467   ar
   912   226   225   ar
   913   226   227    1
   914  1611  1610    1
   915   658   657   ar
   916   658   659   ar
   917  1902  1900    1
   918  2173  2179   ar
   919  2173  2174   ar
   920   356   357    1
   921  1609  1610   ar
   922  1609  1608   ar
   923  1332  1331   ar
   924  1332  1333    2
   925  2220  2221    2
   926  1614  1604    1
   927  1614  1608   ar
   928  1407  1406    1
   929    99   100   ar
   930  1396  1395   ar
   931  1396  1397   ar
   932   166   160   ar
   933   396   401    1
   934   139   140   ar
   935   164   161   ar
   936   689   708    1
   937   689   672    1
   938   689   691    1
   939  2286  2279   ar
   940   794   784    1
   941   794   793   ar
   942  1325  1336    1
   943  1325  1320    1
   944  1400  1397   ar
   945    88    86    1
   946   443   444    1
   947   443   445    1
   948  2238  2237   ar
   949  1886  1887   ar
   950  1886  1892   ar
   951  1360  1339    2
   952  2163  2164    1
   953  2163  2161    1
   954  1415  1416   ar
   955   140   141    1
   956  1945  1959    1
   957  1945  1944    1
   958   437   439    1
   959   418   423    1
   960   207   208   ar
   961  1959  1961    1
   962  1617  1637    1
   963  1617  1619    1
   964  2260  2262   ar
   965  2260  2261    2
   966   539   540    1
   967  1887  1889   ar
   968   779   784    1
   969   779   778    1
   970  2033  2032    1
   971  2033  2047    1
   972   103   102   ar
   973  2284  2283    2
   974  2069  2047    2
   975   784   782    1
   976  1395  1393   ar
   977    78    77    2
   978  2027  2045    1
   979  2027  2011    1
   980   672   671    1
   981  2242  2237   ar
   982  2242  2243    1
   983  1913  1914    2
   984  1913  1915   ar
   985  2179  2178   ar
   986  1604  1602    1
   987  1339  1322    1
   988  1339  1361    1
   989  2149  2148    1
   990   370   372    1
   991   660   659    2
   992  2272  2273    1
   993  2272  2274    1
   994   454   453   ar
   995   454   455   ar
   996  1322  1321    1
   997   657   656   ar
   998   374   375    1
   999   374   376    1
  1000   374   372    1
  1001   792   793   ar
  1002  1336  1335   ar
  1003  1331  1334   ar
  1004  1496  1498    1
  1005  1496  1494    1
  1006  2283  2282   ar
  1007  1610  1605   ar
  1008   669   671    1
  1009   669   670    1
  1010  1943  1948    1
  1011   540   538    1
  1012   839   860    1
  1013   839   841    1
  1014   839   823    1
  1015  1944  1946    1
  1016   820   822    1
  1017   820   821    1
  1018   203   204    1
  1019   203   202   ar
  1020  1584  1583   ar
  1021    73    75    1
  1022    73    71    1
  1023   401   411    1
  1024  1424  1418   ar
  1025  1424  1414    1
  1026  1418  1417   ar
  1027  1440  1439   ar
  1028  1440  1446   ar
  1029  1397  1398   ar
  1030  1916  1915   ar
  1031   778   776    1
  1032   778   780    1
  1033   439   440    1
  1034   781   797    1
  1035   781   780    1
  1036   659   653   ar
  1037  1321  1319    1
  1038  1498  1500    1
  1039   528   527    1
  1040   528   535   ar
  1041  2273  2278    1
  1042   480   479    1
  1043  1929  1936   ar
  1044  1929  1930   ar
  1045  1608  1607   ar
  1046   182   183   ar
  1047   182   180   ar
  1048   421   422    1
  1049   421   423    1
  1050   378   373    1
  1051   378   376    1
  1052  1602  1603    1
  1053   857   858   ar
  1054   857   854   ar
  1055   453   450   ar
  1056   189   183   ar
  1057   189   188   ar
  1058   373   372    1
  1059   512   511   ar
  1060   512   514   ar
  1061  2175  2174   ar
  1062  2175  2176    1
  1063   534   535   ar
  1064  1936  1935   ar
  1065   797   815    2
  1066   797   816    1
  1067  1893  1892    2
  1068  1468  1467   ar
  1069  1468  1458    1
  1070  2047  2068    1
  1071  2047  2049    1
  1072   841   840    1
  1073  2274  2275    1
  1074  2274  2276    1
  1075   376   377    1
  1076  2174  2177   ar
  1077   511   509   ar
  1078  1445  1446   ar
  1079  1406  1408    1
  1080  1892  1891   ar
  1081  1320  1319    1
  1082   181   180    1
  1083   691   690    1
  1084   730   709    2
  1085   525   526    1
  1086   525   527    1
  1087   525   523    1
  1088   822   823    1
  1089   822   824    1
  1090    75    70    1
  1091    75    76    1
  1092  1308  1307    2
  1093   479   481    1
  1094   671   673    1
  1095    72    86    1
  1096    72    71    1
  1097   858   859   ar
  1098   160   161   ar
  1099   160   159   ar
  1100   161   162   ar
  1101   856   855    2
  1102   100   102   ar
  1103   100   101    2
  1104   423   433    1
  1105  1889  1890   ar
  1106   445   440    1
  1107   445   455    1
  1108  1416  1417   ar
  1109  1393  1394    1
  1110  1393  1392   ar
  1111  1409  1414    1
  1112  1409  1408    1
  1113  2279  2278    1
  1114  2279  2280   ar
  1115  1319  1317    1
  1116   776   777    1
  1117    86   104    2
  1118    86   105    1
  1119  1900  1901    1
  1120  2161  2162    1
  1121   527   522    1
  1122   455   449   ar
  1123  1865  1864   ar
  1124  1865  1866   ar
  1125   183   184   ar
  1126   780   782    1
  1127  1864  1869   ar
  1128    77    76   ar
  1129    77    79   ar
  1130  1654  1653    1
  1131   208   202   ar
  1132   208   209    2
  1133   432   433   ar
  1134   432   431   ar
  1135  2011  2010    1
  1136  1634  1635   ar
  1137  1634  1631   ar
  1138   782   783    1
  1139   690   692    1
  1140   180   179   ar
  1141  2148  2147   ar
  1142  2148  2150   ar
  1143  2178  2177   ar
  1144  1503  1502    2
  1145  1309  1307   ar
  1146  1309  1310   ar
  1147  1500  1501    1
  1148  1500  1495    1
  1149   670   675    1
  1150  1446  1436    1
  1151    71    69    1
  1152  1619  1618    1
  1153   731   709    1
  1154   656   654   ar
  1155  1931  1930    2
  1156  1961  1960    1
  1157  1335  1334   ar
  1158   821   826    1
  1159  1414  1412    1
  1160  2278  2276    1
  1161  1398  1392   ar
  1162  1398  1399    2
  1163  1956  1955   ar
  1164  1956  1949   ar
  1165  1605  1606   ar
  1166  2282  2280   ar
  1167  1494  1495    1
  1168  1494  1492    1
  1169  1930  1932   ar
  1170   188   187   ar
  1171  1448  1427    2
  1172   854   855   ar
  1173   854   853   ar
  1174  1635  1636   ar
  1175   411   410   ar
  1176   411   405   ar
  1177    70    69    1
  1178   514   515   ar
  1179  1946  1948    1
  1180  1946  1947    1
  1181  1948  1949    1
  1182  1901  1899    1
  1183  1271  1270    2
  1184    69    67    1
  1185   653   654   ar
  1186   674   673    1
  1187  1408  1410    1
  1188  2147  2153   ar
  1189   433   427   ar
  1190  1311  1310    2
  1191  1307  1306   ar
  1192  1607  1606   ar
  1193   855   849   ar
  1194  1633  1632    1
  1195    76    83   ar
  1196  1935  1933   ar
  1197   709   695    1
  1198   709   711    1
  1199  1458  1453    1
  1200  1458  1456    1
  1201   538   557    2
  1202   538   524    1
  1203   538   556    1
  1204   450   449   ar
  1205   450   451   ar
  1206  1618  1620    1
  1207   159   157   ar
  1208   840   842    1
  1209  2276  2277    1
  1210  1502  1501   ar
  1211  1502  1504   ar
  1212   509   510    2
  1213   509   508   ar
  1214  1509  1491    2
  1215   523   524    1
  1216   523   521    1
  1217   410   409   ar
  1218    79    80   ar
  1219  1410  1412    1
  1220  1410  1411    1
  1221  1891  1890   ar
  1222  1891  1894   ar
  1223  2280  2281    2
  1224    58    57    2
  1225  2162  2160    1
  1226  1890  1896   ar
  1227  1955  1953   ar
  1228   777   775    1
  1229   673   675    1
  1230   162   163    2
  1231   162   156   ar
  1232  1501  1508   ar
  1233  2049  2048    1
  1234   843   842    1
  1235   843   848    1
  1236  2150  2151   ar
  1237  1866  1867   ar
  1238   431   428   ar
  1239   824   826    1
  1240   824   825    1
  1241  1691  1690    1
  1242  1960  1962    1
  1243   654   655    1
  1244  1674  1673    1
  1245  1310  1312   ar
  1246   877   876    2
  1247  2131  2130    1
  1248   695   694    1
  1249   859   853   ar
  1250   859   848    1
  1251   449   448   ar
  1252  1949  1950   ar
  1253  1412  1413    1
  1254  1869  1870    1
  1255  1869  1868   ar
  1256  1631  1632   ar
  1257  1631  1630   ar
  1258   481   482    1
  1259   481   483    1
  1260  1492  1493    1
  1261  2109  2108    2
  1262  1689  1690   ar
  1263  1689  1695   ar
  1264  1453  1452    1
  1265   494   495   ar
  1266   494   492   ar
  1267  1653  1655   ar
  1268  1653  1652   ar
  1269   184   187   ar
  1270   184   185   ar
  1271   522   521    1
  1272   675   686    1
  1273   495   488   ar
  1274  1317  1318    1
  1275  1291  1290    2
  1276  2010  2008    1
  1277  2010  2012    1
  1278  1696  1695    2
  1279  1510  1491    1
  1280   692   694    1
  1281   692   693    1
  1282   452   451    1
  1283   826   836    1
  1284  2004  1982    2
  1285  1493  1491    1
  1286   853   852   ar
  1287   405   404   ar
  1288   405   406   ar
  1289  1632  1627   ar
  1290   179   185   ar
  1291  1504  1505   ar
  1292   754   732    2
  1293   404   403   ar
  1294  1457  1456    1
  1295   770   769    2
  1296  1621  1620    1
  1297  1621  1626    1
  1298  1932  1933   ar
  1299  2013  2012    1
  1300  1491  1477    1
  1301   482   487    1
  1302  1436  1434    1
  1303  1436  1431    1
  1304   515   508   ar
  1305   842   844    1
  1306  1508  1507   ar
  1307  1655  1656   ar
  1308   451   446   ar
  1309  1456  1454    1
  1310   694   696    1
  1311  1270  1269   ar
  1312  1270  1272   ar
  1313  1826  1827   ar
  1314  1826  1823   ar
  1315  1933  1934    1
  1316   848   846    1
  1317  2145  2144    1
  1318  1636  1630   ar
  1319  1636  1626    1
  1320  1825  1824    1
  1321  1690  1692   ar
  1322  2065  2066   ar
  1323  2065  2062   ar
  1324  2153  2154    2
  1325  2153  2152   ar
  1326  1427  1411    1
  1327  1427  1429    1
  1328  1427  1447    1
  1329   157   156   ar
  1330   157   158    1
  1331    67    68    1
  1332   849   850   ar
  1333   508   507    1
  1334   427   428   ar
  1335   427   426   ar
  1336   483   485    1
  1337   483   484    1
  1338  1306  1305    1
  1339  1306  1313   ar
  1340  2003  1982    1
  1341    57    59   ar
  1342    57    56   ar
  1343  1883  1884    1
  1344  1883  1881    1
  1345  1883  1885    1
  1346  1620  1622    1
  1347  1695  1694   ar
  1348    83    82   ar
  1349   521   519    1
  1350   711   710    1
  1351  2086  2085    1
  1352  2048  2050    1
  1353    34    35   ar
  1354    34    39   ar
  1355  1289  1290   ar
  1356  1289  1287   ar
  1357    59    60   ar
  1358  1658  1639    2
  1359  1899  1918    2
  1360  1899  1917    1
  1361  1899  1882    1
  1362   409   406   ar
  1363  2008  2009    1
  1364  2008  2006    1
  1365   835   836   ar
  1366   835   834   ar
  1367  1318  1316    1
  1368  2102  2108   ar
  1369  2102  2103   ar
  1370  1894  1895   ar
  1371   428   429   ar
  1372  1867  1868   ar
  1373  1867  1873   ar
  1374  1896  1885    1
  1375  1896  1895   ar
  1376   753   732    1
  1377   876   878   ar
  1378   876   875   ar
  1379    80    82   ar
  1380    80    81    1
  1381  2130  2125   ar
  1382  2130  2129   ar
  1383  2066  2067   ar
  1384  1304  1303    1
  1385  1269  1267   ar
  1386   185   186    2
  1387  2151  2152   ar
  1388  2151  2157   ar
  1389  2125  2126   ar
  1390   836   830   ar
  1391    54    53    1
  1392  1652  1650   ar
  1393  2180  2160    2
  1394   769   771   ar
  1395   769   768   ar
  1396   796   775    2
  1397  2108  2107   ar
  1398   485   487    1
  1399   485   486    1
  1400   685   686   ar
  1401   685   684   ar
  1402  1827  1828   ar
  1403  2012  2014    1
  1404  1434  1432    1
  1405  1434  1435    1
  1406  1953  1954    2
  1407  1953  1952   ar
  1408  1630  1629   ar
  1409  1505  1507   ar
  1410  1505  1506    2
  1411  1431  1430    1
  1412  1673  1672   ar
  1413  1673  1675   ar
  1414    35    36   ar
  1415   771   772   ar
  1416  1290  1292   ar
  1417  1303  1305    1
  1418  1303  1301    1
  1419  2160  2181    1
  1420  2160  2143    1
  1421  1429  1428    1
  1422   517   498    2
  1423   448   447   ar
  1424    18    17    2
  1425  1868  1871   ar
  1426   686   680   ar
  1427   775   795    1
  1428   775   761    1
  1429  1982  1965    1
  1430  1982  1984    1
  1431   710   712    1
  1432  2144  2146    1
  1433  2144  2142    1
  1434  2064  2063    2
  1435  1312  1313   ar
  1436  1778  1777    1
  1437  1305  1300    1
  1438  1962  1964    1
  1439  1962  1963    1
  1440   492   493    2
  1441   492   491   ar
  1442  1950  1952   ar
  1443  1950  1951    2
  1444   406   407   ar
  1445   774   755    2
  1446  1626  1624    1
  1447   878   879   ar
  1448   693   698    1
  1449   732   715    1
  1450   732   734    1
  1451   488   487    1
  1452   488   489   ar
  1453  1882  1881    1
  1454  2014  2009    1
  1455  2014  2024    1
  1456  1288  1287    2
  1457   844   846    1
  1458   844   845    1
  1459  1881  1879    1
  1460   520   519    1
  1461   520   518    1
  1462  1452  1454    1
  1463  1452  1450    1
  1464  2152  2155   ar
  1465  1885  1880    1
  1466  1622  1623    1
  1467  1622  1624    1
  1468  1978  1977   ar
  1469  1978  1979   ar
  1470  1672  1670   ar
  1471  1272  1273   ar
  1472  1965  1964    1
  1473   852   850   ar
  1474    40    39    1
  1475  1823  1824   ar
  1476  1823  1822   ar
  1477   403   402   ar
  1478   426   425   ar
  1479  1627  1628   ar
  1480  1964  1966    1
  1481   881   862    2
  1482  2104  2103    1
  1483  1824  1819   ar
  1484  1977  1974   ar
  1485    53    55    1
  1486    53    51    1
  1487   850   851    1
  1488   834   831   ar
  1489    68    66    1
  1490   446   447   ar
  1491  1287  1286   ar
  1492   768   766   ar
  1493   537   518    2
  1494  1656  1649   ar
  1495  2062  2063   ar
  1496  2062  2061   ar
  1497    39    38   ar
  1498  1692  1693   ar
  1499  1454  1455    1
  1500  2017  2016   ar
  1501  2017  2018   ar
  1502  2143  2142    1
  1503   772   765   ar
  1504  2091  2070    2
  1505  1432  1430    1
  1506  1432  1433    1
  1507  1963  1968    1
  1508   773   755    1
  1509   706   705   ar
  1510   706   699   ar
  1511   846   847    1
  1512   484   498    1
  1513  2006  2007    1
  1514    55    56    1
  1515    55    50    1
  1516  2103  2105   ar
  1517    56    63   ar
  1518    61    60    2
  1519   761   760    1
  1520   830   831   ar
  1521   830   829   ar
  1522  1477  1476    1
  1523    60    62   ar
  1524   696   697    1
  1525   696   698    1
  1526  1675  1676   ar
  1527  1451  1450    1
  1528  1451  1449    1
  1529   875   873   ar
  1530  2063  2057   ar
  1531  2146  2157    1
  1532  2146  2141    1
  1533  2157  2156   ar
  1534   507   505    1
  1535   507   502    1
  1536   715   714    1
  1537  1694  1693   ar
  1538  1694  1697   ar
  1539   705   703   ar
  1540   684   681   ar
  1541  2085  2080   ar
  1542  2085  2084   ar
  1543  2129  2132   ar
  1544  2129  2128   ar
  1545  2126  2127   ar
  1546  2050  2051    1
  1547  2050  2052    1
  1548  1873  1863    1
  1549  1873  1872   ar
  1550  1430  1428    1
  1551  2051  2056    1
  1552   505   503    1
  1553   505   506    1
  1554  1639  1623    1
  1555  1639  1657    1
  1556  1639  1641    1
  1557    17    11   ar
  1558    17    16   ar
  1559    11    12   ar
  1560  2142  2140    1
  1561   755   757    1
  1562   755   738    1
  1563   429   430    1
  1564   429   424   ar
  1565   498   500    1
  1566   498   516    1
  1567    36    37   ar
  1568  1267  1268    2
  1569  1267  1266   ar
  1570   760   762    1
  1571   760   758    1
  1572  1650  1649   ar
  1573  1650  1651    2
  1574  1624  1625    1
  1575  2067  2061   ar
  1576  2067  2056    1
  1577   831   832   ar
  1578  2016  2015   ar
  1579  1629  1628   ar
  1580  2107  2110   ar
  1581  2107  2106   ar
  1582   680   679   ar
  1583   680   681   ar
  1584   829   828   ar
  1585  1828  1822   ar
  1586  1828  1818    1
  1587   491   489   ar
  1588   698   699    1
  1589  1301  1302    1
  1590  1301  1299    1
  1591   500   499    1
  1592  2132  2133   ar
  1593  1863  1858    1
  1594  1863  1861    1
  1595  2087  2084   ar
  1596  2087  2088   ar
  1597  1871  1872   ar
  1598   518   504    1
  1599   518   536    1
  1600   845   862    1
  1601  1316  1302    1
  1602  1316  1338    2
  1603  1316  1337    1
  1604  1801  1800    2
  1605  1292  1293   ar
  1606   407   402   ar
  1607   407   408    1
  1608   766   765   ar
  1609   766   767    2
  1610  1693  1699   ar
  1611   712   714    1
  1612   712   713    1
  1613   762   763    1
  1614   762   764    1
  1615   489   490    2
  1616   734   733    1
  1617  1777  1776   ar
  1618  1777  1779   ar
  1619   765   764    1
  1620   714   716    1
  1621  1984  1983    1
  1622  1897  1876    2
  1623   503   504    1
  1624   503   501    1
  1625  1817  1816    1
  1626   879   872   ar
  1627   757   756    1
  1628  2052  2053    1
  1629  2052  2054    1
  1630  1300  1299    1
  1631  2024  2018   ar
  1632  2024  2023   ar
  1633  1858  1857    1
  1634  1470  1449    2
  1635  1649  1648    1
  1636  1979  1968    1
  1637  1979  1973   ar
  1638  1816  1818    1
  1639  1816  1814    1
  1640  1822  1821   ar
  1641  1455  1471    1
  1642   699   700   ar
  1643  1797  1796    1
  1644   425   424   ar
  1645  2018  2019   ar
  1646   862   880    1
  1647   862   864    1
  1648  1273  1266   ar
  1649  2155  2156   ar
  1650  2080  2081   ar
  1651  1880  1879    1
  1652  1819  1820   ar
  1653  1670  1671    2
  1654  1670  1669   ar
  1655  2084  2083   ar
  1656  1776  1782   ar
  1657  2061  2060   ar
  1658  1879  1877    1
  1659   679   677   ar
  1660  2007  2005    1
  1661  2110  2111   ar
  1662   681   682   ar
  1663  1968  1966    1
  1664   502   501    1
  1665  1974  1973   ar
  1666  1974  1975   ar
  1667  1966  1967    1
  1668  1433  1449    1
  1669  2056  2054    1
  1670  1286  1293   ar
  1671  1286  1285    1
  1672  1476  1474    1
  1673  1476  1478    1
  1674    51    52    1
  1675    51    49    1
  1676  1697  1698   ar
  1677   750   751   ar
  1678   750   747   ar
  1679   728   727   ar
  1680   728   729   ar
  1681    38    37   ar
  1682    38    41   ar
  1683    63    62   ar
  1684  1449  1469    1
  1685   727   724   ar
  1686    13    12    1
  1687  2070  2053    1
  1688  2070  2090    1
  1689  2070  2072    1
  1690  2105  2106   ar
  1691    50    49    1
  1692  1641  1640    1
  1693  1878  1876    1
  1694  1878  1877    1
  1695    52    66    1
  1696   749   748    2
  1697  1266  1265    1
  1698    66    84    2
  1699    66    85    1
  1700  2128  2127   ar
  1701  2128  2134   ar
  1702    37    43   ar
  1703  1860  1876    1
  1704  1860  1859    1
  1705  1676  1669   ar
  1706  1976  1975    2
  1707  2106  2112   ar
  1708   828   827   ar
  1709    12    14   ar
  1710  1818  1813    1
  1711   832   827   ar
  1712   832   833    1
  1713   703   704    2
  1714   703   702   ar
  1715   764   759    1
  1716  2141  2140    1
  1717   873   872   ar
  1718   873   874    2
  1719  1299  1297    1
  1720  1862  1861    1
  1721  2057  2058   ar
  1722  1779  1780   ar
  1723   713   718    1
  1724  2140  2138    1
  1725  2000  2001   ar
  1726  2000  1997   ar
  1727    16    19   ar
  1728    16    15   ar
  1729  1473  1471    1
  1730  1473  1472    1
  1731   751   752   ar
  1732   501   499    1
  1733  1876  1898    1
  1734  1857  1859    1
  1735  1857  1855    1
  1736  2088  2089   ar
  1737   733   735    1
  1738  1810  1811    1
  1739  1810  1812    1
  1740   872   871    1
  1741  1479  1478    1
  1742  2015  2020   ar
  1743  1983  1985    1
  1744   738   737    1
  1745  2054  2055    1
  1746   758   756    1
  1747   758   759    1
  1748  1973  1972   ar
  1749  2133  2134   ar
  1750  1861  1859    1
  1751  1800  1802   ar
  1752  1800  1799   ar
  1753  1975  1969   ar
  1754  1811  1809    1
  1755  1669  1668    1
  1756  1474  1472    1
  1757  1474  1475    1
  1758  1699  1698   ar
  1759  1699  1688    1
  1760   864   863    1
  1761    49    47    1
  1762   737   735    1
  1763   737   739    1
  1764  2001  2002   ar
  1765  1814  1812    1
  1766  1814  1815    1
  1767  1813  1812    1
  1768  2023  2022   ar
  1769   747   748   ar
  1770   747   746   ar
  1771  1820  1821   ar
  1772   748   742   ar
  1773    19    20   ar
  1774  1798  1796    1
  1775  1798  1799    1
  1776  1798  1793    1
  1777   897   896    1
  1778   700   702   ar
  1779   700   701    2
  1780   716   718    1
  1781   716   717    1
  1782  1796  1794    1
  1783  1999  1998    2
  1784   677   678    1
  1785   677   676   ar
  1786   729   718    1
  1787   729   723   ar
  1788  1471  1489    2
  1789  1471  1490    1
  1790  1285  1283    1
  1791  1285  1280    1
  1792  2081  2082   ar
  1793  2019  2020   ar
  1794  2019  2022   ar
  1795  1478  1480    1
  1796  1648  1643    1
  1797  1648  1646    1
  1798  2111  2112   ar
  1799  1782  1783    2
  1800  1782  1781   ar
  1801  1223  1222    1
  1802  2060  2058   ar
  1803   682   676   ar
  1804   682   683    2
  1805   724   725   ar
  1806   724   723   ar
  1807  2083  2089   ar
  1808  2083  2082   ar
  1809  2134  2124    1
  1810  2072  2071    1
  1811  1643  1642    1
  1812  1640  1642    1
  1813   726   725    2
  1814    41    42   ar
  1815  1802  1803   ar
  1816  2058  2059    1
  1817   976   975    1
  1818  2026  2005    2
  1819  2005  2025    1
  1820  2005  1988    1
  1821  1283  1284    1
  1822  1283  1281    1
  1823  2112  2101    1
  1824   735   736    1
  1825    14    15   ar
  1826  1754  1755   ar
  1827  1754  1759   ar
  1828  1799  1806   ar
  1829    15    21   ar
  1830   752   746   ar
  1831   752   741    1
  1832  1853  1831    2
  1833  1793  1792    1
  1834  2020  2021    1
  1835  1245  1244   ar
  1836  1245  1246   ar
  1837    43    42   ar
  1838    43    33    1
  1839  1795  1809    1
  1840  1795  1794    1
  1841  1298  1297    1
  1842  1298  1296    1
  1843  1855  1856    1
  1844  1997  1998   ar
  1845  1997  1996   ar
  1846  2089  2079    1
  1847  1265  1260    1
  1848  1265  1263    1
  1849  1780  1781   ar
  1850  1780  1786   ar
  1851  1644  1646    1
  1852  1644  1642    1
  1853  1644  1645    1
  1854  1678  1659    2
  1855  1792  1794    1
  1856  1792  1790    1
  1857  1718  1717    1
  1858  1688  1686    1
  1859  1688  1683    1
  1860   725   719   ar
  1861  2138  2139    1
  1862   746   745   ar
  1863   723   722   ar
  1864   739   741    1
  1865   739   740    1
  1866  1829  1809    2
  1867  1646  1647    1
  1868   742   743   ar
  1869  1998  1992   ar
  1870  1987  1985    1
  1871  1987  1988    1
  1872  1987  1989    1
  1873  1475  1480    1
  1874  1815  1831    1
  1875  1985  1986    1
  1876   896   898   ar
  1877   896   895   ar
  1878  1809  1830    1
  1879   863   865    1
  1880  1760  1759    1
  1881  1755  1756   ar
  1882  1480  1481    1
  1883   736   741    1
  1884   871   866    1
  1885   871   869    1
  1886  1972  1970   ar
  1887  1244  1249   ar
  1888  1856  1854    1
  1889  1969  1970   ar
  1890  1781  1784   ar
  1891  2136  2115    2
  1892  1774  1773    1
  1893   866   865    1
  1894    20    21   ar
  1895  2002  1996   ar
  1896  2002  1991    1
  1897  1686  1687    1
  1898  1686  1684    1
  1899  1668  1666    1
  1900  1668  1663    1
  1901  1246  1247   ar
  1902  1260  1259    1
  1903  1221  1222   ar
  1904  1221  1227   ar
  1905  2114  2092    2
  1906  1986  1991    1
  1907  1839  1838    1
  1908    33    31    1
  1909    33    28    1
  1910  1739  1738    1
  1911    47    48    1
  1912  1222  1224   ar
  1913  1280  1279    1
  1914   869   867    1
  1915   869   870    1
  1916  1264  1263    1
  1917    31    32    1
  1918    31    29    1
  1919  1759  1758   ar
  1920   898   899   ar
  1921   895   893   ar
  1922  1281  1282    1
  1923  1281  1279    1
  1924  1315  1296    2
  1925  1263  1261    1
  1926    48    46    1
  1927  1831  1833    1
  1928  1831  1852    1
  1929   975   977   ar
  1930   975   974   ar
  1931  2139  2137    1
  1932  2124  2122    1
  1933  2124  2119    1
  1934  2071  2073    1
  1935    21    10    1
  1936   867   865    1
  1937   867   868    1
  1938  1645  1659    1
  1939  1970  1971    1
  1940  1803  1804    2
  1941  1803  1805   ar
  1942  1996  1995   ar
  1943  1838  1836    1
  1944  1838  1840    1
  1945   743   745   ar
  1946   743   744    1
  1947  2101  2099    1
  1948  2101  2096    1
  1949  1666  1664    1
  1950  1666  1667    1
  1951  1786  1775    1
  1952  1786  1785   ar
  1953  2122  2120    1
  1954  2122  2123    1
  1955   719   720   ar
  1956  1790  1791    1
  1957  1683  1682    1
  1958  1663  1662    1
  1959   722   720   ar
  1960  1775  1773    1
  1961  1775  1770    1
  1962  1659  1661    1
  1963  1659  1677    1
  1964  1806  1805   ar
  1965  1773  1771    1
  1966  1991  1989    1
  1967  1296  1282    1
  1968  1296  1314    1
  1969  1661  1660    1
  1970  2099  2097    1
  1971  2099  2100    1
  1972  1717  1716   ar
  1973  1717  1712   ar
  1974  1989  1990    1
  1975   977   978   ar
  1976  2079  2074    1
  1977  2079  2077    1
  1978    23     1    1
  1979  1723  1702    2
  1980  1719  1716   ar
  1981  1719  1720   ar
  1982  1228  1227    2
  1983  2074  2073    1
  1984  1242  1241    1
  1985  1756  1757   ar
  1986  2075  2073    1
  1987  2075  2077    1
  1988  2075  2076    1
  1989  1992  1993   ar
  1990  1249  1250    1
  1991  1249  1248   ar
  1992  1833  1832    1
  1993  1848  1847    2
  1994   974   980   ar
  1995  1227  1226   ar
  1996  1483  1482    2
  1997  1279  1277    1
  1998  1836  1837    1
  1999  1836  1834    1
  2000  1849  1850   ar
  2001  1849  1846   ar
  2002   720   721    1
  2003   899   892   ar
  2004   893   894    2
  2005   893   892   ar
  2006  1481  1482   ar
  2007  1481  1488   ar
  2008  2117  2115    1
  2009  2117  2116    1
  2010  1224  1225   ar
  2011  1247  1248   ar
  2012  1247  1253   ar
  2013  2120  2121    1
  2014  2120  2118    1
  2015   917   916    1
  2016  1847  1846   ar
  2017  1847  1841   ar
  2018  1664  1662    1
  2019  1664  1665    1
  2020  1850  1851   ar
  2021  1846  1845   ar
  2022  1784  1785   ar
  2023  2115  2135    1
  2024  2115  2098    1
  2025  1684  1682    1
  2026  1684  1685    1
  2027  2119  2118    1
  2028   932   933   ar
  2029   932   937   ar
  2030  2077  2078    1
  2031  1738  1737   ar
  2032  1738  1740   ar
  2033  1716  1715   ar
  2034    29    30    1
  2035    29    27    1
  2036   938   937    1
  2037  2097  2098    1
  2038  2097  2095    1
  2039    28    27    1
  2040  1854  1875    2
  2041  1854  1837    1
  2042  1854  1874    1
  2043  2094  2092    1
  2044  2094  2093    1
  2045  2092  2076    1
  2046  2092  2113    1
  2047  1701  1679    2
  2048  1259  1261    1
  2049  1259  1257    1
  2050  1841  1842   ar
  2051  1851  1845   ar
  2052  1851  1840    1
  2053  1845  1844   ar
  2054  1758  1757   ar
  2055  1758  1761   ar
  2056   998   999   ar
  2057   998   997   ar
  2058  1712  1713   ar
  2059    65    46    2
  2060   999  1000   ar
  2061  1832  1834    1
  2062  2096  2095    1
  2063  1842  1844   ar
  2064  1842  1843    1
  2065   868   882    1
  2066   892   891    1
  2067  1662  1660    1
  2068  1261  1262    1
  2069   995   994    1
  2070  1737  1735   ar
  2071  1840  1835    1
  2072   972   971    1
  2073  1482  1484   ar
  2074    46    30    1
  2075    46    64    1
  2076  1257  1258    1
  2077  1248  1251   ar
  2078   956   955    2
  2079    10     8    1
  2080    10     5    1
  2081  1682  1680    1
  2082  1995  1993   ar
  2083  1770  1769    1
  2084  1757  1763   ar
  2085   933   934   ar
  2086  1791  1789    1
  2087  1720  1721   ar
  2088  1241  1243    1
  2089  1241  1239    1
  2090   937   936   ar
  2091  2137  2121    1
  2092  2137  2158    2
  2093  2137  2159    1
  2094  1277  1278    1
  2095  1488  1487   ar
  2096  1262  1276    1
  2097  1243  1253    1
  2098  1243  1238    1
  2099  1993  1994    1
  2100   978   984   ar
  2101   978   979   ar
  2102  2118  2116    1
  2103  1834  1835    1
  2104  1681  1679    1
  2105  1681  1680    1
  2106  1253  1252   ar
  2107   916   915   ar
  2108   916   918   ar
  2109  1771  1772    1
  2110  1771  1769    1
  2111     1     3    1
  2112     1    22    1
  2113  1702  1685    1
  2114  1702  1722    1
  2115  1702  1704    1
  2116  1225  1226   ar
  2117  1225  1231   ar
  2118  1226  1229   ar
  2119   957   955   ar
  2120   957   958   ar
  2121   915   913   ar
  2122    27    25    1
  2123  2095  2093    1
  2124  1740  1741   ar
  2125   996   991    1
  2126   996   994    1
  2127   996  1006    1
  2128     3     2    1
  2129   980   979   ar
  2130   980   981    2
  2131   973   971    1
  2132   973   984    1
  2133   973   968    1
  2134  1665  1679    1
  2135   991   990    1
  2136  1772  1789    1
  2137     8     6    1
  2138     8     9    1
  2139  1679  1700    1
  2140   997  1002   ar
  2141   955   954   ar
  2142     5     4    1
  2143    45    24    2
  2144  1761  1762   ar
  2145  1769  1767    1
  2146  1715  1721   ar
  2147  1715  1714   ar
  2148    26    25    1
  2149    26    24    1
  2150   971   969    1
  2151   891   886    1
  2152   891   889    1
  2153   886   885    1
  2154  1000  1006   ar
  2155  1000  1001   ar
  2156   984   983   ar
  2157   994   992    1
  2158  1713  1714   ar
  2159   979   982   ar
  2160   990   992    1
  2161   990   988    1
  2162   959   958    1
  2163   934   935   ar
  2164     6     4    1
  2165     6     7    1
  2166   918   919   ar
  2167  1735  1736    2
  2168  1735  1734   ar
  2169   968   967    1
  2170  1721  1711    1
  2171  1704  1703    1
  2172  1251  1252   ar
  2173  1484  1485   ar
  2174  1278  1276    1
  2175   936   935   ar
  2176   936   939   ar
  2177  1789  1807    2
  2178  1789  1808    1
  2179   882   901    2
  2180   882   900    1
  2181   882   884    1
  2182  1238  1237    1
  2183   958   960   ar
  2184  1258  1256    1
  2185  1006  1005   ar
  2186  1763  1762   ar
  2187  1763  1753    1
  2188  1240  1239    1
  2189  1240  1256    1
  2190  1487  1485   ar
  2191   913   914    2
  2192   913   912   ar
  2193  1239  1237    1
  2194  1276  1295    2
  2195  1276  1294    1
  2196   935   941   ar
  2197   883   885    1
  2198   883   884    1
  2199     4     2    1
  2200    24     7    1
  2201    24    44    1
  2202  1231  1220    1
  2203  1231  1230   ar
  2204  1229  1230   ar
  2205   992   993    1
  2206   993  1009    1
  2207  1741  1734   ar
  2208  1274  1256    2
  2209   988   989    1
  2210  1237  1235    1
  2211   954   953    1
  2212   954   961   ar
  2213  1002  1001   ar
  2214  1002  1003    1
  2215   967   969    1
  2216   967   965    1
  2217  1219  1218    1
  2218  1485  1486    2
  2219  1001  1004   ar
  2220   919   912   ar
  2221  1256  1275    1
  2222   939   940   ar
  2223   885   887    1
  2224   983   982   ar
  2225  1734  1733    1
  2226  1753  1751    1
  2227  1753  1748    1
  2228   953   951    1
  2229   953   948    1
  2230   969   970    1
  2231   952   951    1
  2232   912   911    1
  2233  1220  1218    1
  2234  1220  1215    1
  2235  1767  1768    1
  2236   889   887    1
  2237   889   890    1
  2238  1706  1711    1
  2239  1706  1705    1
  2240  1703  1705    1
  2241  1218  1216    1
  2242  1751  1752    1
  2243  1751  1749    1
  2244   970   987    1
  2245  1711  1709    1
  2246   960   961   ar
  2247  1768  1766    1
  2248   951   949    1
  2249  1005  1004   ar
  2250   887   888    1
  2251   941   940   ar
  2252   941   931    1
  2253  1029  1009    2
  2254   989   987    1
  2255  1705  1707    1
  2256  1010  1012    1
  2257  1010  1011    1
  2258  1009  1011    1
  2259  1009  1030    1
  2260   965   966    1
  2261   948   947    1
  2262   911   906    1
  2263   911   909    1
  2264  1707  1709    1
  2265  1707  1708    1
  2266  1235  1236    1
  2267  1743  1724    2
  2268  1013  1012    1
  2269  1013  1018    1
  2270  1748  1747    1
  2271  1215  1214    1
  2272  1709  1710    1
  2273  1012  1014    1
  2274  1733  1731    1
  2275  1733  1728    1
  2276   931   929    1
  2277   931   926    1
  2278  1749  1750    1
  2279  1749  1747    1
  2280   987  1007    2
  2281   987  1008    1
  2282   906   905    1
  2283  1788  1766    2
  2284  1216  1217    1
  2285  1216  1214    1
  2286   966   964    1
  2287  1766  1750    1
  2288  1766  1787    1
  2289  1236  1234    1
  2290   949   947    1
  2291   949   950    1
  2292   888   902    1
  2293  1731  1729    1
  2294  1731  1732    1
  2295  1728  1727    1
  2296   929   930    1
  2297   929   927    1
  2298   947   945    1
  2299  1018  1028    1
  2300  1018  1016    1
  2301  1217  1234    1
  2302   921   902    2
  2303  1214  1212    1
  2304  1747  1745    1
  2305  1708  1724    1
  2306   909   910    1
  2307   909   907    1
  2308  1726  1724    1
  2309  1726  1725    1
  2310   926   925    1
  2311  1724  1742    1
  2312   904   902    1
  2313   904   903    1
  2314  1017  1016    1
  2315   950   964    1
  2316  1746  1745    1
  2317  1746  1744    1
  2318  1729  1727    1
  2319  1729  1730    1
  2320  1765  1744    2
  2321  1014  1015    1
  2322  1014  1016    1
  2323  1027  1028   ar
  2324  1027  1026   ar
  2325   902   920    1
  2326  1234  1255    2
  2327  1234  1254    1
  2328  1028  1022   ar
  2329  1015  1031    1
  2330   905   907    1
  2331   905   903    1
  2332   964   986    2
  2333   964   985    1
  2334   907   908    1
  2335  1727  1725    1
  2336   927   925    1
  2337   927   928    1
  2338  1199  1198    1
  2339   945   946    1
  2340  1744  1730    1
  2341  1744  1764    1
  2342  1026  1023   ar
  2343  1212  1213    1
  2344   946   944    1
  2345   925   923    1
  2346  1051  1031    2
  2347  1022  1023   ar
  2348  1022  1021   ar
  2349  1052  1031    1
  2350  1031  1033    1
  2351  1213  1211    1
  2352  1203  1202    2
  2353  1023  1024   ar
  2354   924   923    1
  2355   924   922    1
  2356  1021  1020   ar
  2357   928   944    1
  2358   908   922    1
  2359  1197  1211    1
  2360  1197  1196    1
  2361   943   922    2
  2362   963   944    2
  2363   944   962    1
  2364  1198  1200    1
  2365  1198  1196    1
  2366  1202  1204   ar
  2367  1202  1201   ar
  2368   922   942    1
  2369  1200  1201    1
  2370  1200  1195    1
  2371  1211  1232    2
  2372  1211  1233    1
  2373  1024  1025    1
  2374  1024  1019   ar
  2375  1020  1019   ar
  2376  1033  1032    1
  2377  1204  1205   ar
  2378  1196  1194    1
  2379  1201  1208   ar
  2380  1032  1034    1
  2381  1035  1034    1
  2382  1035  1040    1
  2383  1195  1194    1
  2384  1049  1048   ar
  2385  1049  1050   ar
  2386  1194  1192    1
  2387  1048  1045   ar
  2388  1205  1206    2
  2389  1205  1207   ar
  2390  1208  1207   ar
  2391  1034  1036    1
  2392  1050  1040    1
  2393  1050  1044   ar
  2394  1040  1038    1
  2395  1045  1044   ar
  2396  1045  1046   ar
  2397  1129  1108    1
  2398  1047  1046    1
  2399  1130  1108    1
  2400  1108  1110    1
  2401  1186  1185    2
  2402  1192  1193    1
  2403  1044  1043   ar
  2404  1046  1041   ar
  2405  1036  1038    1
  2406  1036  1037    1
  2407  1184  1185   ar
  2408  1184  1182   ar
  2409  1193  1191    1
  2410  1185  1187   ar
  2411  1038  1039    1
  2412  1183  1182    2
  2413  1043  1042   ar
  2414  1041  1042   ar
  2415  1075  1053    2
  2416  1166  1165    2
  2417  1182  1181   ar
  2418  1037  1053    1
  2419  1110  1109    1
  2420  1209  1191    2
  2421  1187  1188   ar
  2422  1191  1210    1
  2423  1191  1177    1
  2424  1053  1074    1
  2425  1053  1055    1
  2426  1146  1145    1
  2427  1070  1069    2
  2428  1150  1131    2
  2429  1071  1072   ar
  2430  1071  1068   ar
  2431  1165  1164   ar
  2432  1165  1167   ar
  2433  1181  1188   ar
  2434  1181  1180    1
  2435  1178  1179    1
  2436  1178  1180    1
  2437  1178  1176    1
  2438  1109  1111    1
  2439  1164  1162   ar
  2440  1072  1073   ar
  2441  1126  1127   ar
  2442  1126  1123   ar
  2443  1091  1090    2
  2444  1069  1068   ar
  2445  1069  1063   ar
  2446  1147  1145   ar
  2447  1147  1148   ar
  2448  1068  1067   ar
  2449  1177  1176    1
  2450  1145  1144   ar
  2451  1127  1128   ar
  2452  1180  1175    1
  2453  1176  1174    1
  2454  1167  1168   ar
  2455  1055  1054    1
  2456  1131  1149    1
  2457  1131  1114    1
  2458  1131  1133    1
  2459  1125  1124    2
  2460  1073  1067   ar
  2461  1073  1062    1
  2462  1090  1092   ar
  2463  1090  1089   ar
  2464  1111  1113    1
  2465  1111  1112    1
  2466  1162  1163    2
  2467  1162  1161   ar
  2468  1113  1114    1
  2469  1113  1115    1
  2470  1123  1124   ar
  2471  1123  1122   ar
  2472  1063  1064   ar
  2473  1067  1066   ar
  2474  1057  1062    1
  2475  1057  1056    1
  2476  1054  1056    1
  2477  1148  1141   ar
  2478  1144  1142   ar
  2479  1112  1117    1
  2480  1124  1118   ar
  2481  1168  1161   ar
  2482  1175  1174    1
  2483  1133  1132    1
  2484  1092  1093   ar
  2485  1128  1122   ar
  2486  1128  1117    1
  2487  1174  1172    1
  2488  1089  1087   ar
  2489  1062  1060    1
  2490  1161  1160    1
  2491  1170  1151    2
  2492  1173  1172    1
  2493  1173  1171    1
  2494  1056  1058    1
  2495  1190  1171    2
  2496  1122  1121   ar
  2497  1064  1066   ar
  2498  1064  1065    1
  2499  1117  1115    1
  2500  1115  1116    1
  2501  1141  1142   ar
  2502  1141  1140    1
  2503  1142  1143    2
  2504  1093  1086   ar
  2505  1118  1119   ar
  2506  1132  1134    1
  2507  1058  1060    1
  2508  1058  1059    1
  2509  1171  1189    1
  2510  1171  1157    1
  2511  1087  1086   ar
  2512  1087  1088    2
  2513  1158  1160    1
  2514  1158  1156    1
  2515  1158  1159    1
  2516  1060  1061    1
  2517  1160  1155    1
  2518  1095  1076    2
  2519  1151  1153    1
  2520  1151  1137    1
  2521  1151  1169    1
  2522  1156  1157    1
  2523  1156  1154    1
  2524  1153  1152    1
  2525  1121  1119   ar
  2526  1086  1085    1
  2527  1135  1140    1
  2528  1135  1134    1
  2529  1136  1134    1
  2530  1136  1137    1
  2531  1136  1138    1
  2532  1140  1138    1
  2533  1119  1120    1
  2534  1059  1076    1
  2535  1155  1154    1
  2536  1138  1139    1
  2537  1076  1078    1
  2538  1076  1094    1
  2539  1154  1152    1
  2540  1085  1080    1
  2541  1085  1083    1
  2542  1080  1079    1
  2543  1078  1077    1
  2544  1104  1103    1
  2545  1083  1081    1
  2546  1083  1084    1
  2547  1077  1079    1
  2548  1079  1081    1
  2549  1081  1082    1
  2550  1103  1105    1
  2551  1103  1101    1
  2552  1107  1096    2
  2553  1082  1096    1
  2554  1105  1100    1
  2555  1101  1102    1
  2556  1101  1099    1
  2557  1096  1098    1
  2558  1096  1106    1
  2559  1098  1097    1
  2560  1100  1099    1
  2561  1099  1097    1
