1koc cryst
 OpenBabel11021811393D
libRbt.so/2013.1/901 2013/11/27
 12 11  0  0  0  0  0  0  0  0999 V2000
    4.1385    7.9409   30.9721 N   0  3  0  0  0  0  0  0  0  0  0  0
    3.7807    6.5112   31.2186 C   0  0  2  0  0  0  0  0  0  0  0  0
    4.4011    6.0614   32.5559 C   0  0  0  0  0  0  0  0  0  0  0  0
    3.6726    6.0060   33.5353 O   0  5  0  0  0  0  0  0  0  0  0  0
    4.3100    5.6448   30.0442 C   0  0  0  0  0  0  0  0  0  0  0  0
    3.5352    4.3259   29.9389 C   0  0  0  0  0  0  0  0  0  0  0  0
    3.7398    3.5091   31.2101 C   0  0  0  0  0  0  0  0  0  0  0  0
    3.4908    2.0648   30.9307 N   0  0  0  0  0  0  0  0  0  0  0  0
    2.2948    1.5548   31.1016 C   0  0  0  0  0  0  0  0  0  0  0  0
    1.2283    2.2623   30.8224 N   0  0  0  0  0  0  0  0  0  0  0  0
    2.1653    0.3329   31.5477 N   0  3  0  0  0  0  0  0  0  0  0  0
    5.5926    5.7914   32.5819 O   0  0  0  0  0  0  0  0  0  0  0  0
  2  1  1  6  0  0  0
  2  5  1  0  0  0  0
  2  3  1  0  0  0  0
  3  4  1  0  0  0  0
  3 12  2  0  0  0  0
  5  6  1  0  0  0  0
  6  7  1  0  0  0  0
  7  8  1  0  0  0  0
  8  9  1  0  0  0  0
  9 10  1  0  0  0  0
  9 11  2  0  0  0  0
M  CHG  3   1   1   4  -1  11   1
M  END
>  <CHROM.1>
71.42592548,-157.56184924,101.43170833,-62.43227179,-157.05311590,-91.62678828
3.52552934,4.34847038,31.38436331,0.51299213,-1.13317845,-0.89145463

>  <Name>
1koc cryst

>  <RI>
0

>  <Rbt.Current_Directory>
/home/itssahil/PROJECTS/Mol_Feturizer/New_Systems/rnas/1koc

>  <Rbt.Executable>
rbdock ($Id: //depot/dev/client3/rdock/2013.1/src/exe/rbdock.cxx#4 $)

>  <Rbt.Library>
libRbt.so (2013.1, Build901 2013/11/27)

>  <Rbt.Parameter_File>
/export/apps/rDock/src/rDock_2013.1_src/data/scripts/dock_solv.prm

>  <Rbt.Receptor>
prm/pocket_docking_2.prm

>  <SCORE>
-25.7968

>  <SCORE.INTER>
-25.5803

>  <SCORE.INTER.CONST>
1

>  <SCORE.INTER.POLAR>
-5.099

>  <SCORE.INTER.ROT>
5

>  <SCORE.INTER.SOLV>
20.7345

>  <SCORE.INTER.VDW>
-13.9017

>  <SCORE.INTER.norm>
-2.13169

>  <SCORE.INTRA>
-0.216517

>  <SCORE.INTRA.DIHEDRAL>
1.07979

>  <SCORE.INTRA.DIHEDRAL.0>
6.04201

>  <SCORE.INTRA.POLAR>
0

>  <SCORE.INTRA.POLAR.0>
0

>  <SCORE.INTRA.REPUL>
0

>  <SCORE.INTRA.REPUL.0>
0

>  <SCORE.INTRA.SOLV>
0.0492738

>  <SCORE.INTRA.SOLV.lig_0>
-71.0481

>  <SCORE.INTRA.VDW>
-0.78105

>  <SCORE.INTRA.VDW.0>
0.968882

>  <SCORE.INTRA.norm>
-0.0180431

>  <SCORE.RESTR>
0

>  <SCORE.RESTR.CAVITY>
0

>  <SCORE.RESTR.norm>
0

>  <SCORE.SYSTEM>
0

>  <SCORE.SYSTEM.CONST>
0

>  <SCORE.SYSTEM.DIHEDRAL>
0

>  <SCORE.SYSTEM.SOLV>
0

>  <SCORE.SYSTEM.norm>
0

>  <SCORE.heavy>
12

>  <SCORE.norm>
-2.14974

>  <SYMMETRIC_BONDS>
11 12 2
5 6 2

>  <RMSD>
0.657

$$$$
1koc cryst
 OpenBabel11021811393D
libRbt.so/2013.1/901 2013/11/27
 12 11  0  0  0  0  0  0  0  0999 V2000
    3.6668    8.2187   31.5566 N   0  3  0  0  0  0  0  0  0  0  0  0
    3.5310    6.7310   31.5234 C   0  0  2  0  0  0  0  0  0  0  0  0
    4.6014    6.1081   32.4408 C   0  0  0  0  0  0  0  0  0  0  0  0
    4.2229    5.4812   33.4190 O   0  5  0  0  0  0  0  0  0  0  0  0
    3.7005    6.2374   30.0613 C   0  0  0  0  0  0  0  0  0  0  0  0
    2.9848    4.8989   29.8445 C   0  0  0  0  0  0  0  0  0  0  0  0
    3.5127    3.8694   30.8376 C   0  0  0  0  0  0  0  0  0  0  0  0
    3.1606    2.4942   30.3783 N   0  0  0  0  0  0  0  0  0  0  0  0
    2.2571    1.7936   31.0207 C   0  0  0  0  0  0  0  0  0  0  0  0
    1.2076    2.3831   31.5373 N   0  0  0  0  0  0  0  0  0  0  0  0
    2.4011    0.5000   31.1422 N   0  3  0  0  0  0  0  0  0  0  0  0
    5.7783    6.2767   32.1582 O   0  0  0  0  0  0  0  0  0  0  0  0
  2  1  1  6  0  0  0
  2  5  1  0  0  0  0
  2  3  1  0  0  0  0
  3  4  1  0  0  0  0
  3 12  2  0  0  0  0
  5  6  1  0  0  0  0
  6  7  1  0  0  0  0
  7  8  1  0  0  0  0
  8  9  1  0  0  0  0
  9 10  1  0  0  0  0
  9 11  2  0  0  0  0
M  CHG  3   1   1   4  -1  11   1
M  END
>  <CHROM.1>
59.36529605,-154.68178850,116.17282127,-56.76174247,-162.36129593,-109.40049004
3.41855765,4.59350199,31.34646289,0.90116984,-0.95722075,-0.42248073

>  <Name>
1koc cryst

>  <RI>
0

>  <Rbt.Current_Directory>
/home/itssahil/PROJECTS/Mol_Feturizer/New_Systems/rnas/1koc

>  <Rbt.Executable>
rbdock ($Id: //depot/dev/client3/rdock/2013.1/src/exe/rbdock.cxx#4 $)

>  <Rbt.Library>
libRbt.so (2013.1, Build901 2013/11/27)

>  <Rbt.Parameter_File>
/export/apps/rDock/src/rDock_2013.1_src/data/scripts/dock_solv.prm

>  <Rbt.Receptor>
prm/pocket_docking_2.prm

>  <SCORE>
-29.6726

>  <SCORE.INTER>
-28.7249

>  <SCORE.INTER.CONST>
1

>  <SCORE.INTER.POLAR>
-5.45386

>  <SCORE.INTER.ROT>
5

>  <SCORE.INTER.SOLV>
21.7005

>  <SCORE.INTER.VDW>
-15.1373

>  <SCORE.INTER.norm>
-2.39374

>  <SCORE.INTRA>
-0.947721

>  <SCORE.INTRA.DIHEDRAL>
0.487742

>  <SCORE.INTRA.DIHEDRAL.0>
6.04201

>  <SCORE.INTRA.POLAR>
0

>  <SCORE.INTRA.POLAR.0>
0

>  <SCORE.INTRA.REPUL>
0

>  <SCORE.INTRA.REPUL.0>
0

>  <SCORE.INTRA.SOLV>
-0.0495491

>  <SCORE.INTRA.SOLV.lig_0>
-71.0481

>  <SCORE.INTRA.VDW>
-1.16682

>  <SCORE.INTRA.VDW.0>
0.968882

>  <SCORE.INTRA.norm>
-0.0789767

>  <SCORE.RESTR>
0

>  <SCORE.RESTR.CAVITY>
0

>  <SCORE.RESTR.norm>
0

>  <SCORE.SYSTEM>
0

>  <SCORE.SYSTEM.CONST>
0

>  <SCORE.SYSTEM.DIHEDRAL>
0

>  <SCORE.SYSTEM.SOLV>
0

>  <SCORE.SYSTEM.norm>
0

>  <SCORE.heavy>
12

>  <SCORE.norm>
-2.47272

>  <SYMMETRIC_BONDS>
11 12 2
5 6 2

>  <RMSD>
0.691

$$$$
1koc cryst
 OpenBabel11021811393D
libRbt.so/2013.1/901 2013/11/27
 12 11  0  0  0  0  0  0  0  0999 V2000
    3.6543    8.2623   31.5552 N   0  3  0  0  0  0  0  0  0  0  0  0
    3.5490    6.7717   31.5533 C   0  0  2  0  0  0  0  0  0  0  0  0
    4.6737    6.1874   32.4302 C   0  0  0  0  0  0  0  0  0  0  0  0
    4.3589    5.4302   33.3361 O   0  5  0  0  0  0  0  0  0  0  0  0
    3.6615    6.2558   30.0933 C   0  0  0  0  0  0  0  0  0  0  0  0
    2.9351    4.9162   29.9242 C   0  0  0  0  0  0  0  0  0  0  0  0
    3.5656    3.8729   30.8401 C   0  0  0  0  0  0  0  0  0  0  0  0
    3.1960    2.5029   30.3788 N   0  0  0  0  0  0  0  0  0  0  0  0
    2.2913    1.8087   31.0264 C   0  0  0  0  0  0  0  0  0  0  0  0
    1.2522    2.4065   31.5545 N   0  0  0  0  0  0  0  0  0  0  0  0
    2.4237    0.5133   31.1418 N   0  3  0  0  0  0  0  0  0  0  0  0
    5.8266    6.5140   32.1904 O   0  0  0  0  0  0  0  0  0  0  0  0
  2  1  1  6  0  0  0
  2  5  1  0  0  0  0
  2  3  1  0  0  0  0
  3  4  1  0  0  0  0
  3 12  2  0  0  0  0
  5  6  1  0  0  0  0
  6  7  1  0  0  0  0
  7  8  1  0  0  0  0
  8  9  1  0  0  0  0
  9 10  1  0  0  0  0
  9 11  2  0  0  0  0
M  CHG  3   1   1   4  -1  11   1
M  END
>  <CHROM.1>
63.85449153,-153.25158603,125.30216635,-60.83218640,-161.39590589,-104.41526651
3.44895428,4.63154936,31.35418015,0.97214247,-0.88377635,-0.33338724

>  <Name>
1koc cryst

>  <RI>
0

>  <Rbt.Current_Directory>
/home/itssahil/PROJECTS/Mol_Feturizer/New_Systems/rnas/1koc

>  <Rbt.Executable>
rbdock ($Id: //depot/dev/client3/rdock/2013.1/src/exe/rbdock.cxx#4 $)

>  <Rbt.Library>
libRbt.so (2013.1, Build901 2013/11/27)

>  <Rbt.Parameter_File>
/export/apps/rDock/src/rDock_2013.1_src/data/scripts/dock_solv.prm

>  <Rbt.Receptor>
prm/pocket_docking_3.prm

>  <SCORE>
-29.5594

>  <SCORE.INTER>
-28.4668

>  <SCORE.INTER.CONST>
1

>  <SCORE.INTER.POLAR>
-5.4564

>  <SCORE.INTER.ROT>
5

>  <SCORE.INTER.SOLV>
21.4304

>  <SCORE.INTER.VDW>
-14.8667

>  <SCORE.INTER.norm>
-2.37223

>  <SCORE.INTRA>
-1.09257

>  <SCORE.INTRA.DIHEDRAL>
0.789765

>  <SCORE.INTRA.DIHEDRAL.0>
6.04201

>  <SCORE.INTRA.POLAR>
0

>  <SCORE.INTRA.POLAR.0>
0

>  <SCORE.INTRA.REPUL>
0

>  <SCORE.INTRA.REPUL.0>
0

>  <SCORE.INTRA.SOLV>
0.0136752

>  <SCORE.INTRA.SOLV.lig_0>
-71.0481

>  <SCORE.INTRA.VDW>
-1.49429

>  <SCORE.INTRA.VDW.0>
0.968882

>  <SCORE.INTRA.norm>
-0.0910478

>  <SCORE.RESTR>
0

>  <SCORE.RESTR.CAVITY>
0

>  <SCORE.RESTR.norm>
0

>  <SCORE.SYSTEM>
0

>  <SCORE.SYSTEM.CONST>
0

>  <SCORE.SYSTEM.DIHEDRAL>
0

>  <SCORE.SYSTEM.SOLV>
0

>  <SCORE.SYSTEM.norm>
0

>  <SCORE.heavy>
12

>  <SCORE.norm>
-2.46328

>  <SYMMETRIC_BONDS>
11 12 2
5 6 2

>  <RMSD>
0.732

$$$$
1koc cryst
 OpenBabel11021811393D
libRbt.so/2013.1/901 2013/11/27
 12 11  0  0  0  0  0  0  0  0999 V2000
    5.0424    7.7416   29.4608 N   0  3  0  0  0  0  0  0  0  0  0  0
    4.0487    6.8467   30.1274 C   0  0  2  0  0  0  0  0  0  0  0  0
    4.5766    6.4612   31.5231 C   0  0  0  0  0  0  0  0  0  0  0  0
    3.8406    6.6372   32.4826 O   0  5  0  0  0  0  0  0  0  0  0  0
    3.8321    5.5844   29.2499 C   0  0  0  0  0  0  0  0  0  0  0  0
    2.6133    4.7847   29.7251 C   0  0  0  0  0  0  0  0  0  0  0  0
    2.9703    4.0102   30.9890 C   0  0  0  0  0  0  0  0  0  0  0  0
    2.9772    2.5461   30.7020 N   0  0  0  0  0  0  0  0  0  0  0  0
    1.9351    1.8085   31.0016 C   0  0  0  0  0  0  0  0  0  0  0  0
    0.7243    2.2914   30.8726 N   0  0  0  0  0  0  0  0  0  0  0  0
    2.1042    0.5838   31.4262 N   0  3  0  0  0  0  0  0  0  0  0  0
    5.7081    6.0084   31.6116 O   0  0  0  0  0  0  0  0  0  0  0  0
  2  1  1  6  0  0  0
  2  5  1  0  0  0  0
  2  3  1  0  0  0  0
  3  4  1  0  0  0  0
  3 12  2  0  0  0  0
  5  6  1  0  0  0  0
  6  7  1  0  0  0  0
  7  8  1  0  0  0  0
  8  9  1  0  0  0  0
  9 10  1  0  0  0  0
  9 11  2  0  0  0  0
M  CHG  3   1   1   4  -1  11   1
M  END
>  <CHROM.1>
179.06286367,-167.73543231,127.79032837,-76.24647500,-112.17392935,-98.32090160
3.38065194,4.61294998,30.76781340,0.64000643,-0.92034218,-0.90142383

>  <Name>
1koc cryst

>  <RI>
0

>  <Rbt.Current_Directory>
/home/itssahil/PROJECTS/Mol_Feturizer/New_Systems/rnas/1koc

>  <Rbt.Executable>
rbdock ($Id: //depot/dev/client3/rdock/2013.1/src/exe/rbdock.cxx#4 $)

>  <Rbt.Library>
libRbt.so (2013.1, Build901 2013/11/27)

>  <Rbt.Parameter_File>
/export/apps/rDock/src/rDock_2013.1_src/data/scripts/dock_solv.prm

>  <Rbt.Receptor>
prm/pocket_docking_2.prm

>  <SCORE>
-19.046

>  <SCORE.INTER>
-19.5968

>  <SCORE.INTER.CONST>
1

>  <SCORE.INTER.POLAR>
-3.04763

>  <SCORE.INTER.ROT>
5

>  <SCORE.INTER.SOLV>
16.5847

>  <SCORE.INTER.VDW>
-15.3673

>  <SCORE.INTER.norm>
-1.63307

>  <SCORE.INTRA>
0.550841

>  <SCORE.INTRA.DIHEDRAL>
4.25859

>  <SCORE.INTRA.DIHEDRAL.0>
6.04201

>  <SCORE.INTRA.POLAR>
0

>  <SCORE.INTRA.POLAR.0>
0

>  <SCORE.INTRA.REPUL>
0

>  <SCORE.INTRA.REPUL.0>
0

>  <SCORE.INTRA.SOLV>
0.307523

>  <SCORE.INTRA.SOLV.lig_0>
-71.0481

>  <SCORE.INTRA.VDW>
-1.73222

>  <SCORE.INTRA.VDW.0>
0.968882

>  <SCORE.INTRA.norm>
0.0459034

>  <SCORE.RESTR>
0

>  <SCORE.RESTR.CAVITY>
0

>  <SCORE.RESTR.norm>
0

>  <SCORE.SYSTEM>
0

>  <SCORE.SYSTEM.CONST>
0

>  <SCORE.SYSTEM.DIHEDRAL>
0

>  <SCORE.SYSTEM.SOLV>
0

>  <SCORE.SYSTEM.norm>
0

>  <SCORE.heavy>
12

>  <SCORE.norm>
-1.58717

>  <SYMMETRIC_BONDS>
11 12 2
5 6 2

>  <RMSD>
0.825

$$$$
1koc cryst
 OpenBabel11021811393D
libRbt.so/2013.1/901 2013/11/27
 12 11  0  0  0  0  0  0  0  0999 V2000
    4.4054    8.0412   31.0295 N   0  3  0  0  0  0  0  0  0  0  0  0
    4.4420    6.5489   31.0978 C   0  0  2  0  0  0  0  0  0  0  0  0
    5.8045    6.1051   31.6652 C   0  0  0  0  0  0  0  0  0  0  0  0
    5.8067    5.3251   32.6057 O   0  5  0  0  0  0  0  0  0  0  0  0
    4.2201    5.9691   29.6748 C   0  0  0  0  0  0  0  0  0  0  0  0
    4.2706    4.4368   29.6895 C   0  0  0  0  0  0  0  0  0  0  0  0
    3.1644    3.8968   30.5893 C   0  0  0  0  0  0  0  0  0  0  0  0
    2.9195    2.4570   30.2841 N   0  0  0  0  0  0  0  0  0  0  0  0
    2.0905    1.7567   31.0202 C   0  0  0  0  0  0  0  0  0  0  0  0
    1.0057    2.3100   31.5028 N   0  0  0  0  0  0  0  0  0  0  0  0
    2.3445    0.4989   31.2701 N   0  3  0  0  0  0  0  0  0  0  0  0
    6.8202    6.5593   31.1596 O   0  0  0  0  0  0  0  0  0  0  0  0
  2  1  1  6  0  0  0
  2  5  1  0  0  0  0
  2  3  1  0  0  0  0
  3  4  1  0  0  0  0
  3 12  2  0  0  0  0
  5  6  1  0  0  0  0
  6  7  1  0  0  0  0
  7  8  1  0  0  0  0
  8  9  1  0  0  0  0
  9 10  1  0  0  0  0
  9 11  2  0  0  0  0
M  CHG  3   1   1   4  -1  11   1
M  END
>  <CHROM.1>
-60.01190916,179.13176363,128.50499252,61.02704561,162.09038384,173.95053243
3.94096613,4.50507285,30.98239354,0.91584577,-0.42927749,-0.27887997

>  <Name>
1koc cryst

>  <RI>
0

>  <Rbt.Current_Directory>
/home/itssahil/PROJECTS/Mol_Feturizer/New_Systems/rnas/1koc

>  <Rbt.Executable>
rbdock ($Id: //depot/dev/client3/rdock/2013.1/src/exe/rbdock.cxx#4 $)

>  <Rbt.Library>
libRbt.so (2013.1, Build901 2013/11/27)

>  <Rbt.Parameter_File>
/export/apps/rDock/src/rDock_2013.1_src/data/scripts/dock_solv.prm

>  <Rbt.Receptor>
prm/pocket_docking_3.prm

>  <SCORE>
-29.6892

>  <SCORE.INTER>
-27.4165

>  <SCORE.INTER.CONST>
1

>  <SCORE.INTER.POLAR>
-5.37887

>  <SCORE.INTER.ROT>
5

>  <SCORE.INTER.SOLV>
18.1328

>  <SCORE.INTER.VDW>
-13.3257

>  <SCORE.INTER.norm>
-2.28471

>  <SCORE.INTRA>
-2.27271

>  <SCORE.INTRA.DIHEDRAL>
-1.4589

>  <SCORE.INTRA.DIHEDRAL.0>
6.04201

>  <SCORE.INTRA.POLAR>
0

>  <SCORE.INTRA.POLAR.0>
0

>  <SCORE.INTRA.REPUL>
0

>  <SCORE.INTRA.REPUL.0>
0

>  <SCORE.INTRA.SOLV>
-0.744806

>  <SCORE.INTRA.SOLV.lig_0>
-71.0481

>  <SCORE.INTRA.VDW>
-1.17085

>  <SCORE.INTRA.VDW.0>
0.968882

>  <SCORE.INTRA.norm>
-0.189392

>  <SCORE.RESTR>
0

>  <SCORE.RESTR.CAVITY>
0

>  <SCORE.RESTR.norm>
0

>  <SCORE.SYSTEM>
0

>  <SCORE.SYSTEM.CONST>
0

>  <SCORE.SYSTEM.DIHEDRAL>
0

>  <SCORE.SYSTEM.SOLV>
0

>  <SCORE.SYSTEM.norm>
0

>  <SCORE.heavy>
12

>  <SCORE.norm>
-2.4741

>  <SYMMETRIC_BONDS>
11 12 2
5 6 2

>  <RMSD>
0.880

$$$$
1koc cryst
 OpenBabel11021811393D
libRbt.so/2013.1/901 2013/11/27
 12 11  0  0  0  0  0  0  0  0999 V2000
    3.8675    7.9198   31.4685 N   0  3  0  0  0  0  0  0  0  0  0  0
    3.5638    6.5520   31.9879 C   0  0  2  0  0  0  0  0  0  0  0  0
    4.4937    6.2490   33.1791 C   0  0  0  0  0  0  0  0  0  0  0  0
    3.9902    6.1497   34.2880 O   0  5  0  0  0  0  0  0  0  0  0  0
    3.7699    5.5180   30.8484 C   0  0  0  0  0  0  0  0  0  0  0  0
    3.4603    4.0960   31.3312 C   0  0  0  0  0  0  0  0  0  0  0  0
    3.5956    3.1196   30.1679 C   0  0  0  0  0  0  0  0  0  0  0  0
    3.2822    1.7354   30.6282 N   0  0  0  0  0  0  0  0  0  0  0  0
    2.1549    1.4844   31.2495 C   0  0  0  0  0  0  0  0  0  0  0  0
    1.0562    2.1082   30.9035 N   0  0  0  0  0  0  0  0  0  0  0  0
    2.1254    0.6041   32.2154 N   0  3  0  0  0  0  0  0  0  0  0  0
    5.6914    6.1326   32.9662 O   0  0  0  0  0  0  0  0  0  0  0  0
  2  1  1  6  0  0  0
  2  5  1  0  0  0  0
  2  3  1  0  0  0  0
  3  4  1  0  0  0  0
  3 12  2  0  0  0  0
  5  6  1  0  0  0  0
  6  7  1  0  0  0  0
  7  8  1  0  0  0  0
  8  9  1  0  0  0  0
  9 10  1  0  0  0  0
  9 11  2  0  0  0  0
M  CHG  3   1   1   4  -1  11   1
M  END
>  <CHROM.1>
-59.15636870,-179.61144291,112.58358894,176.78292985,-179.43499504,53.17880400
3.41934777,4.32450386,31.78322836,0.40594352,-1.16127202,-0.87563873

>  <Name>
1koc cryst

>  <RI>
0

>  <Rbt.Current_Directory>
/home/itssahil/PROJECTS/Mol_Feturizer/New_Systems/rnas/1koc

>  <Rbt.Executable>
rbdock ($Id: //depot/dev/client3/rdock/2013.1/src/exe/rbdock.cxx#4 $)

>  <Rbt.Library>
libRbt.so (2013.1, Build901 2013/11/27)

>  <Rbt.Parameter_File>
/export/apps/rDock/src/rDock_2013.1_src/data/scripts/dock_solv.prm

>  <Rbt.Receptor>
prm/pocket_docking_3.prm

>  <SCORE>
-30.7259

>  <SCORE.INTER>
-27.6494

>  <SCORE.INTER.CONST>
1

>  <SCORE.INTER.POLAR>
-5.46909

>  <SCORE.INTER.ROT>
5

>  <SCORE.INTER.SOLV>
21.6615

>  <SCORE.INTER.VDW>
-14.3565

>  <SCORE.INTER.norm>
-2.30412

>  <SCORE.INTRA>
-3.15824

>  <SCORE.INTRA.DIHEDRAL>
-2.55313

>  <SCORE.INTRA.DIHEDRAL.0>
6.04201

>  <SCORE.INTRA.POLAR>
0

>  <SCORE.INTRA.POLAR.0>
0

>  <SCORE.INTRA.REPUL>
0

>  <SCORE.INTRA.REPUL.0>
0

>  <SCORE.INTRA.SOLV>
-0.90548

>  <SCORE.INTRA.SOLV.lig_0>
-71.0481

>  <SCORE.INTRA.VDW>
-1.42893

>  <SCORE.INTRA.VDW.0>
0.968882

>  <SCORE.INTRA.norm>
-0.263187

>  <SCORE.RESTR>
0.0817846

>  <SCORE.RESTR.CAVITY>
0.0817846

>  <SCORE.RESTR.norm>
0.00681538

>  <SCORE.SYSTEM>
0

>  <SCORE.SYSTEM.CONST>
0

>  <SCORE.SYSTEM.DIHEDRAL>
0

>  <SCORE.SYSTEM.SOLV>
0

>  <SCORE.SYSTEM.norm>
0

>  <SCORE.heavy>
12

>  <SCORE.norm>
-2.56049

>  <SYMMETRIC_BONDS>
11 12 2
5 6 2

>  <RMSD>
1.049

$$$$
1koc cryst
 OpenBabel11021811393D
libRbt.so/2013.1/901 2013/11/27
 12 11  0  0  0  0  0  0  0  0999 V2000
    4.1160    8.2793   31.0399 N   0  3  0  0  0  0  0  0  0  0  0  0
    3.8236    6.8238   31.2102 C   0  0  2  0  0  0  0  0  0  0  0  0
    4.9803    6.1667   31.9884 C   0  0  0  0  0  0  0  0  0  0  0  0
    6.0971    6.2033   31.4939 O   0  5  0  0  0  0  0  0  0  0  0  0
    3.6571    6.1714   29.8114 C   0  0  0  0  0  0  0  0  0  0  0  0
    2.8058    4.8989   29.8940 C   0  0  0  0  0  0  0  0  0  0  0  0
    3.4900    3.8835   30.8027 C   0  0  0  0  0  0  0  0  0  0  0  0
    3.1497    2.4988   30.3631 N   0  0  0  0  0  0  0  0  0  0  0  0
    2.2559    1.7978   31.0185 C   0  0  0  0  0  0  0  0  0  0  0  0
    1.2026    2.3837   31.5317 N   0  0  0  0  0  0  0  0  0  0  0  0
    2.4133    0.5075   31.1564 N   0  3  0  0  0  0  0  0  0  0  0  0
    4.7302    5.6293   33.0571 O   0  0  0  0  0  0  0  0  0  0  0  0
  2  1  1  6  0  0  0
  2  5  1  0  0  0  0
  2  3  1  0  0  0  0
  3  4  1  0  0  0  0
  3 12  2  0  0  0  0
  5  6  1  0  0  0  0
  6  7  1  0  0  0  0
  7  8  1  0  0  0  0
  8  9  1  0  0  0  0
  9 10  1  0  0  0  0
  9 11  2  0  0  0  0
M  CHG  3   1   1   4  -1  11   1
M  END
>  <CHROM.1>
-56.74179789,-155.99561758,-60.82925271,-61.00591082,-149.95276185,-102.55236329
3.56605616,4.61423769,31.12803127,0.99658669,-0.70032064,-0.32973578

>  <Name>
1koc cryst

>  <RI>
0

>  <Rbt.Current_Directory>
/home/itssahil/PROJECTS/Mol_Feturizer/New_Systems/rnas/1koc

>  <Rbt.Executable>
rbdock ($Id: //depot/dev/client3/rdock/2013.1/src/exe/rbdock.cxx#4 $)

>  <Rbt.Library>
libRbt.so (2013.1, Build901 2013/11/27)

>  <Rbt.Parameter_File>
/export/apps/rDock/src/rDock_2013.1_src/data/scripts/dock_solv.prm

>  <Rbt.Receptor>
prm/pocket_docking_2.prm

>  <SCORE>
-28.9169

>  <SCORE.INTER>
-28.6195

>  <SCORE.INTER.CONST>
1

>  <SCORE.INTER.POLAR>
-5.43478

>  <SCORE.INTER.ROT>
5

>  <SCORE.INTER.SOLV>
20.1614

>  <SCORE.INTER.VDW>
-14.6175

>  <SCORE.INTER.norm>
-2.38496

>  <SCORE.INTRA>
-0.297403

>  <SCORE.INTRA.DIHEDRAL>
1.97895

>  <SCORE.INTRA.DIHEDRAL.0>
6.04201

>  <SCORE.INTRA.POLAR>
0

>  <SCORE.INTRA.POLAR.0>
0

>  <SCORE.INTRA.REPUL>
0

>  <SCORE.INTRA.REPUL.0>
0

>  <SCORE.INTRA.SOLV>
0.00358592

>  <SCORE.INTRA.SOLV.lig_0>
-71.0481

>  <SCORE.INTRA.VDW>
-1.28867

>  <SCORE.INTRA.VDW.0>
0.968882

>  <SCORE.INTRA.norm>
-0.0247836

>  <SCORE.RESTR>
0

>  <SCORE.RESTR.CAVITY>
0

>  <SCORE.RESTR.norm>
0

>  <SCORE.SYSTEM>
0

>  <SCORE.SYSTEM.CONST>
0

>  <SCORE.SYSTEM.DIHEDRAL>
0

>  <SCORE.SYSTEM.SOLV>
0

>  <SCORE.SYSTEM.norm>
0

>  <SCORE.heavy>
12

>  <SCORE.norm>
-2.40974

>  <SYMMETRIC_BONDS>
11 12 2
5 6 2

>  <RMSD>
1.084

$$$$
1koc cryst
 OpenBabel11021811393D
libRbt.so/2013.1/901 2013/11/27
 12 11  0  0  0  0  0  0  0  0999 V2000
    4.3238    8.3258   30.9326 N   0  3  0  0  0  0  0  0  0  0  0  0
    3.8397    6.9246   31.1204 C   0  0  2  0  0  0  0  0  0  0  0  0
    4.5935    6.2869   32.3038 C   0  0  0  0  0  0  0  0  0  0  0  0
    5.8117    6.2193   32.2373 O   0  5  0  0  0  0  0  0  0  0  0  0
    4.0828    6.1231   29.8132 C   0  0  0  0  0  0  0  0  0  0  0  0
    2.8725    5.2465   29.4705 C   0  0  0  0  0  0  0  0  0  0  0  0
    2.5625    4.3212   30.6421 C   0  0  0  0  0  0  0  0  0  0  0  0
    2.8162    2.9040   30.2504 N   0  0  0  0  0  0  0  0  0  0  0  0
    2.3817    1.9219   31.0031 C   0  0  0  0  0  0  0  0  0  0  0  0
    1.2328    2.0233   31.6242 N   0  0  0  0  0  0  0  0  0  0  0  0
    3.0955    0.8343   31.1309 N   0  3  0  0  0  0  0  0  0  0  0  0
    3.9425    5.8675   33.2491 O   0  0  0  0  0  0  0  0  0  0  0  0
  2  1  1  6  0  0  0
  2  5  1  0  0  0  0
  2  3  1  0  0  0  0
  3  4  1  0  0  0  0
  3 12  2  0  0  0  0
  5  6  1  0  0  0  0
  6  7  1  0  0  0  0
  7  8  1  0  0  0  0
  8  9  1  0  0  0  0
  9 10  1  0  0  0  0
  9 11  2  0  0  0  0
M  CHG  3   1   1   4  -1  11   1
M  END
>  <CHROM.1>
-169.84933871,-137.11225678,-58.94367079,-56.40926322,-113.50974566,-167.02422687
3.47635515,4.75649194,31.16690364,0.75081260,-1.01423922,-0.65362910

>  <Name>
1koc cryst

>  <RI>
0

>  <Rbt.Current_Directory>
/home/itssahil/PROJECTS/Mol_Feturizer/New_Systems/rnas/1koc

>  <Rbt.Executable>
rbdock ($Id: //depot/dev/client3/rdock/2013.1/src/exe/rbdock.cxx#4 $)

>  <Rbt.Library>
libRbt.so (2013.1, Build901 2013/11/27)

>  <Rbt.Parameter_File>
/export/apps/rDock/src/rDock_2013.1_src/data/scripts/dock_solv.prm

>  <Rbt.Receptor>
prm/pocket_docking_2.prm

>  <SCORE>
-25.0389

>  <SCORE.INTER>
-27.0414

>  <SCORE.INTER.CONST>
1

>  <SCORE.INTER.POLAR>
-5.14242

>  <SCORE.INTER.ROT>
5

>  <SCORE.INTER.SOLV>
20.5456

>  <SCORE.INTER.VDW>
-14.6681

>  <SCORE.INTER.norm>
-2.25345

>  <SCORE.INTRA>
2.00255

>  <SCORE.INTRA.DIHEDRAL>
7.2295

>  <SCORE.INTRA.DIHEDRAL.0>
6.04201

>  <SCORE.INTRA.POLAR>
0

>  <SCORE.INTRA.POLAR.0>
0

>  <SCORE.INTRA.REPUL>
0

>  <SCORE.INTRA.REPUL.0>
0

>  <SCORE.INTRA.SOLV>
-0.558195

>  <SCORE.INTRA.SOLV.lig_0>
-71.0481

>  <SCORE.INTRA.VDW>
-1.3331

>  <SCORE.INTRA.VDW.0>
0.968882

>  <SCORE.INTRA.norm>
0.166879

>  <SCORE.RESTR>
0

>  <SCORE.RESTR.CAVITY>
0

>  <SCORE.RESTR.norm>
0

>  <SCORE.SYSTEM>
0

>  <SCORE.SYSTEM.CONST>
0

>  <SCORE.SYSTEM.DIHEDRAL>
0

>  <SCORE.SYSTEM.SOLV>
0

>  <SCORE.SYSTEM.norm>
0

>  <SCORE.heavy>
12

>  <SCORE.norm>
-2.08657

>  <SYMMETRIC_BONDS>
11 12 2
5 6 2

>  <RMSD>
1.111

$$$$
1koc cryst
 OpenBabel11021811393D
libRbt.so/2013.1/901 2013/11/27
 12 11  0  0  0  0  0  0  0  0999 V2000
    4.2429    7.3078   30.2729 N   0  3  0  0  0  0  0  0  0  0  0  0
    3.8641    6.0550   30.9939 C   0  0  2  0  0  0  0  0  0  0  0  0
    3.7255    6.3630   32.4977 C   0  0  0  0  0  0  0  0  0  0  0  0
    2.5991    6.4571   32.9617 O   0  5  0  0  0  0  0  0  0  0  0  0
    4.9543    4.9774   30.7482 C   0  0  0  0  0  0  0  0  0  0  0  0
    4.4431    3.5807   31.1206 C   0  0  0  0  0  0  0  0  0  0  0  0
    3.3696    3.1471   30.1284 C   0  0  0  0  0  0  0  0  0  0  0  0
    2.9789    1.7311   30.3900 N   0  0  0  0  0  0  0  0  0  0  0  0
    2.0463    1.4540   31.2694 C   0  0  0  0  0  0  0  0  0  0  0  0
    1.0103    2.2440   31.4056 N   0  0  0  0  0  0  0  0  0  0  0  0
    2.1476    0.3819   32.0104 N   0  3  0  0  0  0  0  0  0  0  0  0
    4.7440    6.5106   33.1567 O   0  0  0  0  0  0  0  0  0  0  0  0
  2  1  1  6  0  0  0
  2  5  1  0  0  0  0
  2  3  1  0  0  0  0
  3  4  1  0  0  0  0
  3 12  2  0  0  0  0
  5  6  1  0  0  0  0
  6  7  1  0  0  0  0
  7  8  1  0  0  0  0
  8  9  1  0  0  0  0
  9 10  1  0  0  0  0
  9 11  2  0  0  0  0
M  CHG  3   1   1   4  -1  11   1
M  END
>  <CHROM.1>
-63.52601987,-164.04913139,103.82651157,69.01193737,173.57705935,86.67454150
3.33173745,4.20524931,31.42130686,-1.02281521,-0.84830595,-2.61445873

>  <Name>
1koc cryst

>  <RI>
0

>  <Rbt.Current_Directory>
/home/itssahil/PROJECTS/Mol_Feturizer/New_Systems/rnas/1koc

>  <Rbt.Executable>
rbdock ($Id: //depot/dev/client3/rdock/2013.1/src/exe/rbdock.cxx#4 $)

>  <Rbt.Library>
libRbt.so (2013.1, Build901 2013/11/27)

>  <Rbt.Parameter_File>
/export/apps/rDock/src/rDock_2013.1_src/data/scripts/dock_solv.prm

>  <Rbt.Receptor>
prm/pocket_docking_7.prm

>  <SCORE>
-32.1065

>  <SCORE.INTER>
-29.0937

>  <SCORE.INTER.CONST>
1

>  <SCORE.INTER.POLAR>
-5.80614

>  <SCORE.INTER.ROT>
5

>  <SCORE.INTER.SOLV>
24.0921

>  <SCORE.INTER.VDW>
-15.006

>  <SCORE.INTER.norm>
-2.42447

>  <SCORE.INTRA>
-3.01286

>  <SCORE.INTRA.DIHEDRAL>
-1.24978

>  <SCORE.INTRA.DIHEDRAL.0>
6.04201

>  <SCORE.INTRA.POLAR>
0

>  <SCORE.INTRA.POLAR.0>
0

>  <SCORE.INTRA.REPUL>
0

>  <SCORE.INTRA.REPUL.0>
0

>  <SCORE.INTRA.SOLV>
-1.24276

>  <SCORE.INTRA.SOLV.lig_0>
-71.0481

>  <SCORE.INTRA.VDW>
-1.76659

>  <SCORE.INTRA.VDW.0>
0.968882

>  <SCORE.INTRA.norm>
-0.251071

>  <SCORE.RESTR>
0

>  <SCORE.RESTR.CAVITY>
0

>  <SCORE.RESTR.norm>
0

>  <SCORE.SYSTEM>
0

>  <SCORE.SYSTEM.CONST>
0

>  <SCORE.SYSTEM.DIHEDRAL>
0

>  <SCORE.SYSTEM.SOLV>
0

>  <SCORE.SYSTEM.norm>
0

>  <SCORE.heavy>
12

>  <SCORE.norm>
-2.67554

>  <SYMMETRIC_BONDS>
11 12 2
5 6 2

>  <RMSD>
1.134

$$$$
1koc cryst
 OpenBabel11021811393D
libRbt.so/2013.1/901 2013/11/27
 12 11  0  0  0  0  0  0  0  0999 V2000
    4.4083    7.4393   29.9119 N   0  3  0  0  0  0  0  0  0  0  0  0
    4.3261    6.1196   30.6079 C   0  0  2  0  0  0  0  0  0  0  0  0
    5.0672    6.2154   31.9559 C   0  0  0  0  0  0  0  0  0  0  0  0
    5.8776    7.1183   32.1011 O   0  5  0  0  0  0  0  0  0  0  0  0
    4.9602    5.0278   29.7046 C   0  0  0  0  0  0  0  0  0  0  0  0
    4.6676    3.6241   30.2476 C   0  0  0  0  0  0  0  0  0  0  0  0
    3.1768    3.3285   30.1252 C   0  0  0  0  0  0  0  0  0  0  0  0
    2.9185    1.8897   30.4241 N   0  0  0  0  0  0  0  0  0  0  0  0
    1.9814    1.5490   31.2758 C   0  0  0  0  0  0  0  0  0  0  0  0
    0.8668    2.2342   31.3415 N   0  0  0  0  0  0  0  0  0  0  0  0
    2.1573    0.5180   32.0599 N   0  3  0  0  0  0  0  0  0  0  0  0
    4.8218    5.3811   32.8144 O   0  0  0  0  0  0  0  0  0  0  0  0
  2  1  1  6  0  0  0
  2  5  1  0  0  0  0
  2  3  1  0  0  0  0
  3  4  1  0  0  0  0
  3 12  2  0  0  0  0
  5  6  1  0  0  0  0
  6  7  1  0  0  0  0
  7  8  1  0  0  0  0
  8  9  1  0  0  0  0
  9 10  1  0  0  0  0
  9 11  2  0  0  0  0
M  CHG  3   1   1   4  -1  11   1
M  END
>  <CHROM.1>
28.26713971,-169.27757314,-19.62506084,67.44714514,170.10528270,130.31811436
3.76112882,4.22379189,31.05912058,0.28206552,-1.00999826,-1.26632404

>  <Name>
1koc cryst

>  <RI>
0

>  <Rbt.Current_Directory>
/home/itssahil/PROJECTS/Mol_Feturizer/New_Systems/rnas/1koc

>  <Rbt.Executable>
rbdock ($Id: //depot/dev/client3/rdock/2013.1/src/exe/rbdock.cxx#4 $)

>  <Rbt.Library>
libRbt.so (2013.1, Build901 2013/11/27)

>  <Rbt.Parameter_File>
/export/apps/rDock/src/rDock_2013.1_src/data/scripts/dock_solv.prm

>  <Rbt.Receptor>
prm/pocket_docking_5.prm

>  <SCORE>
-28.4542

>  <SCORE.INTER>
-27.1034

>  <SCORE.INTER.CONST>
1

>  <SCORE.INTER.POLAR>
-5.40625

>  <SCORE.INTER.ROT>
5

>  <SCORE.INTER.SOLV>
20.3074

>  <SCORE.INTER.VDW>
-13.7506

>  <SCORE.INTER.norm>
-2.25862

>  <SCORE.INTRA>
-1.35077

>  <SCORE.INTRA.DIHEDRAL>
0.342278

>  <SCORE.INTRA.DIHEDRAL.0>
6.04201

>  <SCORE.INTRA.POLAR>
0

>  <SCORE.INTRA.POLAR.0>
0

>  <SCORE.INTRA.REPUL>
0

>  <SCORE.INTRA.REPUL.0>
0

>  <SCORE.INTRA.SOLV>
-0.807316

>  <SCORE.INTRA.SOLV.lig_0>
-71.0481

>  <SCORE.INTRA.VDW>
-1.11825

>  <SCORE.INTRA.VDW.0>
0.968882

>  <SCORE.INTRA.norm>
-0.112564

>  <SCORE.RESTR>
0

>  <SCORE.RESTR.CAVITY>
0

>  <SCORE.RESTR.norm>
0

>  <SCORE.SYSTEM>
0

>  <SCORE.SYSTEM.CONST>
0

>  <SCORE.SYSTEM.DIHEDRAL>
0

>  <SCORE.SYSTEM.SOLV>
0

>  <SCORE.SYSTEM.norm>
0

>  <SCORE.heavy>
12

>  <SCORE.norm>
-2.37118

>  <SYMMETRIC_BONDS>
11 12 2
5 6 2

>  <RMSD>
1.139

$$$$
1koc cryst
 OpenBabel11021811393D
libRbt.so/2013.1/901 2013/11/27
 12 11  0  0  0  0  0  0  0  0999 V2000
    4.3849    7.5426   29.9117 N   0  3  0  0  0  0  0  0  0  0  0  0
    4.4257    6.6576   31.1150 C   0  0  2  0  0  0  0  0  0  0  0  0
    5.0298    7.4426   32.2959 C   0  0  0  0  0  0  0  0  0  0  0  0
    4.4438    7.4060   33.3675 O   0  5  0  0  0  0  0  0  0  0  0  0
    5.2778    5.4004   30.7930 C   0  0  0  0  0  0  0  0  0  0  0  0
    4.4890    4.4044   29.9347 C   0  0  0  0  0  0  0  0  0  0  0  0
    3.2944    3.8816   30.7251 C   0  0  0  0  0  0  0  0  0  0  0  0
    3.0180    2.4644   30.3487 N   0  0  0  0  0  0  0  0  0  0  0  0
    2.1635    1.7508   31.0417 C   0  0  0  0  0  0  0  0  0  0  0  0
    1.0869    2.3075   31.5386 N   0  0  0  0  0  0  0  0  0  0  0  0
    2.3837    0.4766   31.2337 N   0  3  0  0  0  0  0  0  0  0  0  0
    6.0586    8.0746   32.1077 O   0  0  0  0  0  0  0  0  0  0  0  0
  2  1  1  6  0  0  0
  2  5  1  0  0  0  0
  2  3  1  0  0  0  0
  3  4  1  0  0  0  0
  3 12  2  0  0  0  0
  5  6  1  0  0  0  0
  6  7  1  0  0  0  0
  7  8  1  0  0  0  0
  8  9  1  0  0  0  0
  9 10  1  0  0  0  0
  9 11  2  0  0  0  0
M  CHG  3   1   1   4  -1  11   1
M  END
>  <CHROM.1>
-70.10747368,-77.02752819,131.93052720,-64.34209765,-146.57454378,169.91169460
3.82754216,4.83111330,31.19669480,-0.66218911,-0.97623541,-2.20409709

>  <Name>
1koc cryst

>  <RI>
0

>  <Rbt.Current_Directory>
/home/itssahil/PROJECTS/Mol_Feturizer/New_Systems/rnas/1koc

>  <Rbt.Executable>
rbdock ($Id: //depot/dev/client3/rdock/2013.1/src/exe/rbdock.cxx#4 $)

>  <Rbt.Library>
libRbt.so (2013.1, Build901 2013/11/27)

>  <Rbt.Parameter_File>
/export/apps/rDock/src/rDock_2013.1_src/data/scripts/dock_solv.prm

>  <Rbt.Receptor>
prm/pocket_docking_3.prm

>  <SCORE>
-26.9028

>  <SCORE.INTER>
-26.0022

>  <SCORE.INTER.CONST>
1

>  <SCORE.INTER.POLAR>
-5.39265

>  <SCORE.INTER.ROT>
5

>  <SCORE.INTER.SOLV>
19.0698

>  <SCORE.INTER.VDW>
-12.6492

>  <SCORE.INTER.norm>
-2.16685

>  <SCORE.INTRA>
-0.900607

>  <SCORE.INTRA.DIHEDRAL>
1.93939

>  <SCORE.INTRA.DIHEDRAL.0>
6.04201

>  <SCORE.INTRA.POLAR>
0

>  <SCORE.INTRA.POLAR.0>
0

>  <SCORE.INTRA.REPUL>
0

>  <SCORE.INTRA.REPUL.0>
0

>  <SCORE.INTRA.SOLV>
-0.934501

>  <SCORE.INTRA.SOLV.lig_0>
-71.0481

>  <SCORE.INTRA.VDW>
-1.40305

>  <SCORE.INTRA.VDW.0>
0.968882

>  <SCORE.INTRA.norm>
-0.0750506

>  <SCORE.RESTR>
0

>  <SCORE.RESTR.CAVITY>
0

>  <SCORE.RESTR.norm>
0

>  <SCORE.SYSTEM>
0

>  <SCORE.SYSTEM.CONST>
0

>  <SCORE.SYSTEM.DIHEDRAL>
0

>  <SCORE.SYSTEM.SOLV>
0

>  <SCORE.SYSTEM.norm>
0

>  <SCORE.heavy>
12

>  <SCORE.norm>
-2.2419

>  <SYMMETRIC_BONDS>
11 12 2
5 6 2

>  <RMSD>
1.141

$$$$
1koc cryst
 OpenBabel11021811393D
libRbt.so/2013.1/901 2013/11/27
 12 11  0  0  0  0  0  0  0  0999 V2000
    4.9889    6.8548   29.8317 N   0  3  0  0  0  0  0  0  0  0  0  0
    3.5771    6.4912   30.1594 C   0  0  2  0  0  0  0  0  0  0  0  0
    3.4728    6.1907   31.6674 C   0  0  0  0  0  0  0  0  0  0  0  0
    2.5842    5.4401   32.0418 O   0  5  0  0  0  0  0  0  0  0  0  0
    3.1625    5.2535   29.3188 C   0  0  0  0  0  0  0  0  0  0  0  0
    4.2411    4.1650   29.3708 C   0  0  0  0  0  0  0  0  0  0  0  0
    4.1983    3.4662   30.7253 C   0  0  0  0  0  0  0  0  0  0  0  0
    3.4841    2.1621   30.6011 N   0  0  0  0  0  0  0  0  0  0  0  0
    2.3366    1.9762   31.2080 C   0  0  0  0  0  0  0  0  0  0  0  0
    1.4756    2.9582   31.3097 N   0  0  0  0  0  0  0  0  0  0  0  0
    2.0475    0.8042   31.7099 N   0  3  0  0  0  0  0  0  0  0  0  0
    4.2728    6.7227   32.4225 O   0  0  0  0  0  0  0  0  0  0  0  0
  2  1  1  1  0  0  0
  2  5  1  0  0  0  0
  2  3  1  0  0  0  0
  3  4  1  0  0  0  0
  3 12  2  0  0  0  0
  5  6  1  0  0  0  0
  6  7  1  0  0  0  0
  7  8  1  0  0  0  0
  8  9  1  0  0  0  0
  9 10  1  0  0  0  0
  9 11  2  0  0  0  0
M  CHG  3   1   1   4  -1  11   1
M  END
>  <CHROM.1>
-65.67614208,46.90253687,-154.05988820,74.90649506,100.85212879,-113.91667768
3.32731219,4.37639640,30.87935838,-0.89993359,-0.96140483,-2.67453407

>  <Name>
1koc cryst

>  <RI>
0

>  <Rbt.Current_Directory>
/home/itssahil/PROJECTS/Mol_Feturizer/New_Systems/rnas/1koc

>  <Rbt.Executable>
rbdock ($Id: //depot/dev/client3/rdock/2013.1/src/exe/rbdock.cxx#4 $)

>  <Rbt.Library>
libRbt.so (2013.1, Build901 2013/11/27)

>  <Rbt.Parameter_File>
/export/apps/rDock/src/rDock_2013.1_src/data/scripts/dock_solv.prm

>  <Rbt.Receptor>
prm/pocket_docking_2.prm

>  <SCORE>
-16.7289

>  <SCORE.INTER>
-18.9212

>  <SCORE.INTER.CONST>
1

>  <SCORE.INTER.POLAR>
-3.46973

>  <SCORE.INTER.ROT>
5

>  <SCORE.INTER.SOLV>
16.9735

>  <SCORE.INTER.VDW>
-13.6396

>  <SCORE.INTER.norm>
-1.57677

>  <SCORE.INTRA>
1.97598

>  <SCORE.INTRA.DIHEDRAL>
3.18299

>  <SCORE.INTRA.DIHEDRAL.0>
6.04201

>  <SCORE.INTRA.POLAR>
-0.594297

>  <SCORE.INTRA.POLAR.0>
0

>  <SCORE.INTRA.REPUL>
0

>  <SCORE.INTRA.REPUL.0>
0

>  <SCORE.INTRA.SOLV>
5.83574

>  <SCORE.INTRA.SOLV.lig_0>
-71.0481

>  <SCORE.INTRA.VDW>
-0.512769

>  <SCORE.INTRA.VDW.0>
0.968882

>  <SCORE.INTRA.norm>
0.164665

>  <SCORE.RESTR>
0.216381

>  <SCORE.RESTR.CAVITY>
0.216381

>  <SCORE.RESTR.norm>
0.0180317

>  <SCORE.SYSTEM>
0

>  <SCORE.SYSTEM.CONST>
0

>  <SCORE.SYSTEM.DIHEDRAL>
0

>  <SCORE.SYSTEM.SOLV>
0

>  <SCORE.SYSTEM.norm>
0

>  <SCORE.heavy>
12

>  <SCORE.norm>
-1.39407

>  <SYMMETRIC_BONDS>
11 12 2
5 6 2

>  <RMSD>
1.189

$$$$
1koc cryst
 OpenBabel11021811393D
libRbt.so/2013.1/901 2013/11/27
 12 11  0  0  0  0  0  0  0  0999 V2000
    4.3393    7.6574   30.7884 N   0  3  0  0  0  0  0  0  0  0  0  0
    4.2892    6.1887   31.0589 C   0  0  2  0  0  0  0  0  0  0  0  0
    5.4838    5.8013   31.9525 C   0  0  0  0  0  0  0  0  0  0  0  0
    6.4433    6.5572   31.9854 O   0  5  0  0  0  0  0  0  0  0  0  0
    4.3358    5.4213   29.7101 C   0  0  0  0  0  0  0  0  0  0  0  0
    2.9224    5.1168   29.1997 C   0  0  0  0  0  0  0  0  0  0  0  0
    2.1815    4.2631   30.2231 C   0  0  0  0  0  0  0  0  0  0  0  0
    2.6786    2.8575   30.1664 N   0  0  0  0  0  0  0  0  0  0  0  0
    2.2772    1.9778   31.0523 C   0  0  0  0  0  0  0  0  0  0  0  0
    1.0476    2.0074   31.5032 N   0  0  0  0  0  0  0  0  0  0  0  0
    3.1057    1.0636   31.4843 N   0  3  0  0  0  0  0  0  0  0  0  0
    5.4252    4.7535   32.5786 O   0  0  0  0  0  0  0  0  0  0  0  0
  2  1  1  6  0  0  0
  2  5  1  0  0  0  0
  2  3  1  0  0  0  0
  3  4  1  0  0  0  0
  3 12  2  0  0  0  0
  5  6  1  0  0  0  0
  6  7  1  0  0  0  0
  7  8  1  0  0  0  0
  8  9  1  0  0  0  0
  9 10  1  0  0  0  0
  9 11  2  0  0  0  0
M  CHG  3   1   1   4  -1  11   1
M  END
>  <CHROM.1>
67.53424257,-93.11979869,-20.48548279,-59.83247083,-75.51858014,173.09926430
3.72340257,4.48116135,30.99490819,0.77748864,-0.64880088,-0.47575456

>  <Name>
1koc cryst

>  <RI>
0

>  <Rbt.Current_Directory>
/home/itssahil/PROJECTS/Mol_Feturizer/New_Systems/rnas/1koc

>  <Rbt.Executable>
rbdock ($Id: //depot/dev/client3/rdock/2013.1/src/exe/rbdock.cxx#4 $)

>  <Rbt.Library>
libRbt.so (2013.1, Build901 2013/11/27)

>  <Rbt.Parameter_File>
/export/apps/rDock/src/rDock_2013.1_src/data/scripts/dock_solv.prm

>  <Rbt.Receptor>
prm/pocket_docking_2.prm

>  <SCORE>
-25.6774

>  <SCORE.INTER>
-25.0681

>  <SCORE.INTER.CONST>
1

>  <SCORE.INTER.POLAR>
-4.99946

>  <SCORE.INTER.ROT>
5

>  <SCORE.INTER.SOLV>
17.6293

>  <SCORE.INTER.VDW>
-12.857

>  <SCORE.INTER.norm>
-2.08901

>  <SCORE.INTRA>
-0.982742

>  <SCORE.INTRA.DIHEDRAL>
1.3786

>  <SCORE.INTRA.DIHEDRAL.0>
6.04201

>  <SCORE.INTRA.POLAR>
0

>  <SCORE.INTRA.POLAR.0>
0

>  <SCORE.INTRA.REPUL>
0

>  <SCORE.INTRA.REPUL.0>
0

>  <SCORE.INTRA.SOLV>
-0.308557

>  <SCORE.INTRA.SOLV.lig_0>
-71.0481

>  <SCORE.INTRA.VDW>
-1.51776

>  <SCORE.INTRA.VDW.0>
0.968882

>  <SCORE.INTRA.norm>
-0.0818952

>  <SCORE.RESTR>
0.373521

>  <SCORE.RESTR.CAVITY>
0.373521

>  <SCORE.RESTR.norm>
0.0311267

>  <SCORE.SYSTEM>
0

>  <SCORE.SYSTEM.CONST>
0

>  <SCORE.SYSTEM.DIHEDRAL>
0

>  <SCORE.SYSTEM.SOLV>
0

>  <SCORE.SYSTEM.norm>
0

>  <SCORE.heavy>
12

>  <SCORE.norm>
-2.13978

>  <SYMMETRIC_BONDS>
11 12 2
5 6 2

>  <RMSD>
1.213

$$$$
1koc cryst
 OpenBabel11021811393D
libRbt.so/2013.1/901 2013/11/27
 12 11  0  0  0  0  0  0  0  0999 V2000
    4.4978    7.8057   30.2298 N   0  3  0  0  0  0  0  0  0  0  0  0
    4.0988    6.3903   30.4950 C   0  0  2  0  0  0  0  0  0  0  0  0
    4.3591    6.0645   31.9788 C   0  0  0  0  0  0  0  0  0  0  0  0
    5.5191    5.9481   32.3447 O   0  5  0  0  0  0  0  0  0  0  0  0
    4.9173    5.4494   29.5704 C   0  0  0  0  0  0  0  0  0  0  0  0
    4.2340    4.0842   29.4285 C   0  0  0  0  0  0  0  0  0  0  0  0
    4.5104    3.2421   30.6693 C   0  0  0  0  0  0  0  0  0  0  0  0
    3.7014    1.9893   30.6228 N   0  0  0  0  0  0  0  0  0  0  0  0
    2.5019    1.9566   31.1518 C   0  0  0  0  0  0  0  0  0  0  0  0
    1.7201    3.0055   31.0830 N   0  0  0  0  0  0  0  0  0  0  0  0
    2.0815    0.8710   31.7465 N   0  3  0  0  0  0  0  0  0  0  0  0
    3.3978    5.9258   32.7204 O   0  0  0  0  0  0  0  0  0  0  0  0
  2  1  1  1  0  0  0
  2  5  1  0  0  0  0
  2  3  1  0  0  0  0
  3  4  1  0  0  0  0
  3 12  2  0  0  0  0
  5  6  1  0  0  0  0
  6  7  1  0  0  0  0
  7  8  1  0  0  0  0
  8  9  1  0  0  0  0
  9 10  1  0  0  0  0
  9 11  2  0  0  0  0
M  CHG  3   1   1   4  -1  11   1
M  END
>  <CHROM.1>
144.64761996,-159.94914590,-71.64980698,-78.50254038,172.38321347,-90.33672081
3.78320121,4.41613955,31.02063715,-0.76326723,-1.01110519,-2.45164740

>  <Name>
1koc cryst

>  <RI>
0

>  <Rbt.Current_Directory>
/home/itssahil/PROJECTS/Mol_Feturizer/New_Systems/rnas/1koc

>  <Rbt.Executable>
rbdock ($Id: //depot/dev/client3/rdock/2013.1/src/exe/rbdock.cxx#4 $)

>  <Rbt.Library>
libRbt.so (2013.1, Build901 2013/11/27)

>  <Rbt.Parameter_File>
/export/apps/rDock/src/rDock_2013.1_src/data/scripts/dock_solv.prm

>  <Rbt.Receptor>
prm/pocket_docking_8.prm

>  <SCORE>
-23.9272

>  <SCORE.INTER>
-24.5297

>  <SCORE.INTER.CONST>
1

>  <SCORE.INTER.POLAR>
-4.98706

>  <SCORE.INTER.ROT>
5

>  <SCORE.INTER.SOLV>
18.4774

>  <SCORE.INTER.VDW>
-12.8221

>  <SCORE.INTER.norm>
-2.04414

>  <SCORE.INTRA>
0.602503

>  <SCORE.INTRA.DIHEDRAL>
2.54031

>  <SCORE.INTRA.DIHEDRAL.0>
6.04201

>  <SCORE.INTRA.POLAR>
0

>  <SCORE.INTRA.POLAR.0>
0

>  <SCORE.INTRA.REPUL>
0

>  <SCORE.INTRA.REPUL.0>
0

>  <SCORE.INTRA.SOLV>
1.38615

>  <SCORE.INTRA.SOLV.lig_0>
-71.0481

>  <SCORE.INTRA.VDW>
-1.36073

>  <SCORE.INTRA.VDW.0>
0.968882

>  <SCORE.INTRA.norm>
0.0502085

>  <SCORE.RESTR>
0

>  <SCORE.RESTR.CAVITY>
0

>  <SCORE.RESTR.norm>
0

>  <SCORE.SYSTEM>
0

>  <SCORE.SYSTEM.CONST>
0

>  <SCORE.SYSTEM.DIHEDRAL>
0

>  <SCORE.SYSTEM.SOLV>
0

>  <SCORE.SYSTEM.norm>
0

>  <SCORE.heavy>
12

>  <SCORE.norm>
-1.99393

>  <SYMMETRIC_BONDS>
11 12 2
5 6 2

>  <RMSD>
1.230

$$$$
1koc cryst
 OpenBabel11021811393D
libRbt.so/2013.1/901 2013/11/27
 12 11  0  0  0  0  0  0  0  0999 V2000
    4.1608    7.7596   31.0605 N   0  3  0  0  0  0  0  0  0  0  0  0
    4.2173    6.3405   31.5250 C   0  0  2  0  0  0  0  0  0  0  0  0
    5.3194    6.2052   32.5939 C   0  0  0  0  0  0  0  0  0  0  0  0
    6.4708    6.4454   32.2630 O   0  5  0  0  0  0  0  0  0  0  0  0
    4.5090    5.4190   30.3101 C   0  0  0  0  0  0  0  0  0  0  0  0
    3.2433    5.1888   29.4760 C   0  0  0  0  0  0  0  0  0  0  0  0
    2.2826    4.2859   30.2420 C   0  0  0  0  0  0  0  0  0  0  0  0
    2.7532    2.8715   30.1751 N   0  0  0  0  0  0  0  0  0  0  0  0
    2.3327    1.9925   31.0527 C   0  0  0  0  0  0  0  0  0  0  0  0
    1.1028    2.0417   31.5008 N   0  0  0  0  0  0  0  0  0  0  0  0
    3.1426    1.0592   31.4793 N   0  3  0  0  0  0  0  0  0  0  0  0
    4.9973    5.8539   33.7192 O   0  0  0  0  0  0  0  0  0  0  0  0
  2  1  1  6  0  0  0
  2  5  1  0  0  0  0
  2  3  1  0  0  0  0
  3  4  1  0  0  0  0
  3 12  2  0  0  0  0
  5  6  1  0  0  0  0
  6  7  1  0  0  0  0
  7  8  1  0  0  0  0
  8  9  1  0  0  0  0
  9 10  1  0  0  0  0
  9 11  2  0  0  0  0
M  CHG  3   1   1   4  -1  11   1
M  END
>  <CHROM.1>
-54.35078132,-78.51138066,-62.30993152,-71.36602740,-76.43736358,160.11666378
3.71862586,4.63245316,31.30045469,0.64191768,-0.85097537,-0.56979158

>  <Name>
1koc cryst

>  <RI>
0

>  <Rbt.Current_Directory>
/home/itssahil/PROJECTS/Mol_Feturizer/New_Systems/rnas/1koc

>  <Rbt.Executable>
rbdock ($Id: //depot/dev/client3/rdock/2013.1/src/exe/rbdock.cxx#4 $)

>  <Rbt.Library>
libRbt.so (2013.1, Build901 2013/11/27)

>  <Rbt.Parameter_File>
/export/apps/rDock/src/rDock_2013.1_src/data/scripts/dock_solv.prm

>  <Rbt.Receptor>
prm/pocket_docking_5.prm

>  <SCORE>
-27.6062

>  <SCORE.INTER>
-25.3633

>  <SCORE.INTER.CONST>
1

>  <SCORE.INTER.POLAR>
-5.05887

>  <SCORE.INTER.ROT>
5

>  <SCORE.INTER.SOLV>
18.234

>  <SCORE.INTER.VDW>
-13.0573

>  <SCORE.INTER.norm>
-2.11361

>  <SCORE.INTRA>
-2.24291

>  <SCORE.INTRA.DIHEDRAL>
0.0865155

>  <SCORE.INTRA.DIHEDRAL.0>
6.04201

>  <SCORE.INTRA.POLAR>
0

>  <SCORE.INTRA.POLAR.0>
0

>  <SCORE.INTRA.REPUL>
0

>  <SCORE.INTRA.REPUL.0>
0

>  <SCORE.INTRA.SOLV>
-0.928019

>  <SCORE.INTRA.SOLV.lig_0>
-71.0481

>  <SCORE.INTRA.VDW>
-1.82216

>  <SCORE.INTRA.VDW.0>
0.968882

>  <SCORE.INTRA.norm>
-0.186909

>  <SCORE.RESTR>
0

>  <SCORE.RESTR.CAVITY>
0

>  <SCORE.RESTR.norm>
0

>  <SCORE.SYSTEM>
0

>  <SCORE.SYSTEM.CONST>
0

>  <SCORE.SYSTEM.DIHEDRAL>
0

>  <SCORE.SYSTEM.SOLV>
0

>  <SCORE.SYSTEM.norm>
0

>  <SCORE.heavy>
12

>  <SCORE.norm>
-2.30052

>  <SYMMETRIC_BONDS>
11 12 2
5 6 2

>  <RMSD>
1.232

$$$$
1koc cryst
 OpenBabel11021811393D
libRbt.so/2013.1/901 2013/11/27
 12 11  0  0  0  0  0  0  0  0999 V2000
    5.0021    7.5058   29.4007 N   0  3  0  0  0  0  0  0  0  0  0  0
    4.1069    6.6524   30.2392 C   0  0  2  0  0  0  0  0  0  0  0  0
    4.9013    6.1320   31.4531 C   0  0  0  0  0  0  0  0  0  0  0  0
    5.9129    5.4809   31.2392 O   0  5  0  0  0  0  0  0  0  0  0  0
    3.5758    5.4740   29.3793 C   0  0  0  0  0  0  0  0  0  0  0  0
    2.3100    4.8675   29.9964 C   0  0  0  0  0  0  0  0  0  0  0  0
    2.6770    4.0876   31.2542 C   0  0  0  0  0  0  0  0  0  0  0  0
    2.8234    2.6389   30.9283 N   0  0  0  0  0  0  0  0  0  0  0  0
    1.8212    1.8142   31.1164 C   0  0  0  0  0  0  0  0  0  0  0  0
    0.5911    2.2076   30.8970 N   0  0  0  0  0  0  0  0  0  0  0  0
    2.0502    0.5921   31.5200 N   0  3  0  0  0  0  0  0  0  0  0  0
    4.4810    6.3820   32.5730 O   0  0  0  0  0  0  0  0  0  0  0  0
  2  1  1  6  0  0  0
  2  5  1  0  0  0  0
  2  3  1  0  0  0  0
  3  4  1  0  0  0  0
  3 12  2  0  0  0  0
  5  6  1  0  0  0  0
  6  7  1  0  0  0  0
  7  8  1  0  0  0  0
  8  9  1  0  0  0  0
  9 10  1  0  0  0  0
  9 11  2  0  0  0  0
M  CHG  3   1   1   4  -1  11   1
M  END
>  <CHROM.1>
178.87384094,-160.02484874,-57.97449275,-71.98801808,-96.55111737,-95.97980561
3.37427311,4.48686266,30.83028922,0.80235410,-0.67140284,-0.65407500

>  <Name>
1koc cryst

>  <RI>
0

>  <Rbt.Current_Directory>
/home/itssahil/PROJECTS/Mol_Feturizer/New_Systems/rnas/1koc

>  <Rbt.Executable>
rbdock ($Id: //depot/dev/client3/rdock/2013.1/src/exe/rbdock.cxx#4 $)

>  <Rbt.Library>
libRbt.so (2013.1, Build901 2013/11/27)

>  <Rbt.Parameter_File>
/export/apps/rDock/src/rDock_2013.1_src/data/scripts/dock_solv.prm

>  <Rbt.Receptor>
prm/pocket_docking_2.prm

>  <SCORE>
-19.1846

>  <SCORE.INTER>
-19.0955

>  <SCORE.INTER.CONST>
1

>  <SCORE.INTER.POLAR>
-3.14902

>  <SCORE.INTER.ROT>
5

>  <SCORE.INTER.SOLV>
16.0659

>  <SCORE.INTER.VDW>
-14.5223

>  <SCORE.INTER.norm>
-1.59129

>  <SCORE.INTRA>
-0.090248

>  <SCORE.INTRA.DIHEDRAL>
2.96249

>  <SCORE.INTRA.DIHEDRAL.0>
6.04201

>  <SCORE.INTRA.POLAR>
0

>  <SCORE.INTRA.POLAR.0>
0

>  <SCORE.INTRA.REPUL>
0

>  <SCORE.INTRA.REPUL.0>
0

>  <SCORE.INTRA.SOLV>
0.483864

>  <SCORE.INTRA.SOLV.lig_0>
-71.0481

>  <SCORE.INTRA.VDW>
-1.81342

>  <SCORE.INTRA.VDW.0>
0.968882

>  <SCORE.INTRA.norm>
-0.00752067

>  <SCORE.RESTR>
0.00120093

>  <SCORE.RESTR.CAVITY>
0.00120093

>  <SCORE.RESTR.norm>
0.000100077

>  <SCORE.SYSTEM>
0

>  <SCORE.SYSTEM.CONST>
0

>  <SCORE.SYSTEM.DIHEDRAL>
0

>  <SCORE.SYSTEM.SOLV>
0

>  <SCORE.SYSTEM.norm>
0

>  <SCORE.heavy>
12

>  <SCORE.norm>
-1.59871

>  <SYMMETRIC_BONDS>
11 12 2
5 6 2

>  <RMSD>
1.235

$$$$
1koc cryst
 OpenBabel11021811393D
libRbt.so/2013.1/901 2013/11/27
 12 11  0  0  0  0  0  0  0  0999 V2000
    3.8073    8.5378   31.3718 N   0  3  0  0  0  0  0  0  0  0  0  0
    3.4014    7.0998   31.3854 C   0  0  2  0  0  0  0  0  0  0  0  0
    3.8838    6.4540   32.6991 C   0  0  0  0  0  0  0  0  0  0  0  0
    5.0157    5.9945   32.7295 O   0  5  0  0  0  0  0  0  0  0  0  0
    4.0233    6.3841   30.1562 C   0  0  0  0  0  0  0  0  0  0  0  0
    3.1147    5.2542   29.6576 C   0  0  0  0  0  0  0  0  0  0  0  0
    2.8520    4.2702   30.7923 C   0  0  0  0  0  0  0  0  0  0  0  0
    2.9929    2.8711   30.2935 N   0  0  0  0  0  0  0  0  0  0  0  0
    2.4672    1.8740   30.9636 C   0  0  0  0  0  0  0  0  0  0  0  0
    1.3215    2.0233   31.5810 N   0  0  0  0  0  0  0  0  0  0  0  0
    3.0861    0.7236   31.0123 N   0  3  0  0  0  0  0  0  0  0  0  0
    3.1130    6.4190   33.6466 O   0  0  0  0  0  0  0  0  0  0  0  0
  2  1  1  1  0  0  0
  2  5  1  0  0  0  0
  2  3  1  0  0  0  0
  3  4  1  0  0  0  0
  3 12  2  0  0  0  0
  5  6  1  0  0  0  0
  6  7  1  0  0  0  0
  7  8  1  0  0  0  0
  8  9  1  0  0  0  0
  9 10  1  0  0  0  0
  9 11  2  0  0  0  0
M  CHG  3   1   1   4  -1  11   1
M  END
>  <CHROM.1>
-46.24482351,-148.21112574,-87.09461578,-56.77878501,-135.29586125,-161.16603262
3.26179456,4.83281027,31.37851786,-0.11317290,-1.32424691,-1.51960566

>  <Name>
1koc cryst

>  <RI>
0

>  <Rbt.Current_Directory>
/home/itssahil/PROJECTS/Mol_Feturizer/New_Systems/rnas/1koc

>  <Rbt.Executable>
rbdock ($Id: //depot/dev/client3/rdock/2013.1/src/exe/rbdock.cxx#4 $)

>  <Rbt.Library>
libRbt.so (2013.1, Build901 2013/11/27)

>  <Rbt.Parameter_File>
/export/apps/rDock/src/rDock_2013.1_src/data/scripts/dock_solv.prm

>  <Rbt.Receptor>
prm/pocket_docking_2.prm

>  <SCORE>
-25.6439

>  <SCORE.INTER>
-27.4308

>  <SCORE.INTER.CONST>
1

>  <SCORE.INTER.POLAR>
-5.01606

>  <SCORE.INTER.ROT>
5

>  <SCORE.INTER.SOLV>
23.0965

>  <SCORE.INTER.VDW>
-16.1992

>  <SCORE.INTER.norm>
-2.2859

>  <SCORE.INTRA>
1.78693

>  <SCORE.INTRA.DIHEDRAL>
5.38154

>  <SCORE.INTRA.DIHEDRAL.0>
6.04201

>  <SCORE.INTRA.POLAR>
0

>  <SCORE.INTRA.POLAR.0>
0

>  <SCORE.INTRA.REPUL>
0

>  <SCORE.INTRA.REPUL.0>
0

>  <SCORE.INTRA.SOLV>
-0.525982

>  <SCORE.INTRA.SOLV.lig_0>
-71.0481

>  <SCORE.INTRA.VDW>
-0.640847

>  <SCORE.INTRA.VDW.0>
0.968882

>  <SCORE.INTRA.norm>
0.148911

>  <SCORE.RESTR>
0

>  <SCORE.RESTR.CAVITY>
0

>  <SCORE.RESTR.norm>
0

>  <SCORE.SYSTEM>
0

>  <SCORE.SYSTEM.CONST>
0

>  <SCORE.SYSTEM.DIHEDRAL>
0

>  <SCORE.SYSTEM.SOLV>
0

>  <SCORE.SYSTEM.norm>
0

>  <SCORE.heavy>
12

>  <SCORE.norm>
-2.13699

>  <SYMMETRIC_BONDS>
11 12 2
5 6 2

>  <RMSD>
1.245

$$$$
1koc cryst
 OpenBabel11021811393D
libRbt.so/2013.1/901 2013/11/27
 12 11  0  0  0  0  0  0  0  0999 V2000
    2.8223    8.1468   32.2525 N   0  3  0  0  0  0  0  0  0  0  0  0
    3.6810    6.9546   31.9799 C   0  0  2  0  0  0  0  0  0  0  0  0
    5.1132    7.2444   32.4699 C   0  0  0  0  0  0  0  0  0  0  0  0
    5.2690    7.5287   33.6480 O   0  5  0  0  0  0  0  0  0  0  0  0
    3.6674    6.6558   30.4565 C   0  0  0  0  0  0  0  0  0  0  0  0
    3.9502    5.1740   30.1825 C   0  0  0  0  0  0  0  0  0  0  0  0
    2.7867    4.3287   30.6892 C   0  0  0  0  0  0  0  0  0  0  0  0
    2.9652    2.9107   30.2605 N   0  0  0  0  0  0  0  0  0  0  0  0
    2.4574    1.9351   30.9746 C   0  0  0  0  0  0  0  0  0  0  0  0
    1.3031    2.0867   31.5750 N   0  0  0  0  0  0  0  0  0  0  0  0
    3.1030    0.8037   31.0842 N   0  3  0  0  0  0  0  0  0  0  0  0
    6.0267    7.1888   31.6601 O   0  0  0  0  0  0  0  0  0  0  0  0
  2  1  1  6  0  0  0
  2  5  1  0  0  0  0
  2  3  1  0  0  0  0
  3  4  1  0  0  0  0
  3 12  2  0  0  0  0
  5  6  1  0  0  0  0
  6  7  1  0  0  0  0
  7  8  1  0  0  0  0
  8  9  1  0  0  0  0
  9 10  1  0  0  0  0
  9 11  2  0  0  0  0
M  CHG  3   1   1   4  -1  11   1
M  END
>  <CHROM.1>
18.39056405,-153.91612495,58.11212897,67.70002257,172.23941953,152.05748768
3.58554405,5.08830277,31.45819733,1.21282625,-0.06411755,0.21100393

>  <Name>
1koc cryst

>  <RI>
0

>  <Rbt.Current_Directory>
/home/itssahil/PROJECTS/Mol_Feturizer/New_Systems/rnas/1koc

>  <Rbt.Executable>
rbdock ($Id: //depot/dev/client3/rdock/2013.1/src/exe/rbdock.cxx#4 $)

>  <Rbt.Library>
libRbt.so (2013.1, Build901 2013/11/27)

>  <Rbt.Parameter_File>
/export/apps/rDock/src/rDock_2013.1_src/data/scripts/dock_solv.prm

>  <Rbt.Receptor>
prm/pocket_docking_3.prm

>  <SCORE>
-25.8759

>  <SCORE.INTER>
-26.4892

>  <SCORE.INTER.CONST>
1

>  <SCORE.INTER.POLAR>
-5.11592

>  <SCORE.INTER.ROT>
5

>  <SCORE.INTER.SOLV>
19.6931

>  <SCORE.INTER.VDW>
-14.1041

>  <SCORE.INTER.norm>
-2.20744

>  <SCORE.INTRA>
0.613319

>  <SCORE.INTRA.DIHEDRAL>
2.74669

>  <SCORE.INTRA.DIHEDRAL.0>
6.04201

>  <SCORE.INTRA.POLAR>
0

>  <SCORE.INTRA.POLAR.0>
0

>  <SCORE.INTRA.REPUL>
0

>  <SCORE.INTRA.REPUL.0>
0

>  <SCORE.INTRA.SOLV>
-1.41268

>  <SCORE.INTRA.SOLV.lig_0>
-71.0481

>  <SCORE.INTRA.VDW>
-0.0536861

>  <SCORE.INTRA.VDW.0>
0.968882

>  <SCORE.INTRA.norm>
0.0511099

>  <SCORE.RESTR>
0

>  <SCORE.RESTR.CAVITY>
0

>  <SCORE.RESTR.norm>
0

>  <SCORE.SYSTEM>
0

>  <SCORE.SYSTEM.CONST>
0

>  <SCORE.SYSTEM.DIHEDRAL>
0

>  <SCORE.SYSTEM.SOLV>
0

>  <SCORE.SYSTEM.norm>
0

>  <SCORE.heavy>
12

>  <SCORE.norm>
-2.15633

>  <SYMMETRIC_BONDS>
11 12 2
5 6 2

>  <RMSD>
1.259

$$$$
1koc cryst
 OpenBabel11021811393D
libRbt.so/2013.1/901 2013/11/27
 12 11  0  0  0  0  0  0  0  0999 V2000
    4.3187    7.7838   30.8161 N   0  3  0  0  0  0  0  0  0  0  0  0
    4.4487    6.3836   31.3214 C   0  0  2  0  0  0  0  0  0  0  0  0
    5.6819    6.2940   32.2415 C   0  0  0  0  0  0  0  0  0  0  0  0
    6.7830    6.4725   31.7427 O   0  5  0  0  0  0  0  0  0  0  0  0
    4.5885    5.4181   30.1137 C   0  0  0  0  0  0  0  0  0  0  0  0
    3.2377    5.2017   29.4214 C   0  0  0  0  0  0  0  0  0  0  0  0
    2.3491    4.3239   30.2960 C   0  0  0  0  0  0  0  0  0  0  0  0
    2.7747    2.8984   30.1824 N   0  0  0  0  0  0  0  0  0  0  0  0
    2.3429    2.0087   31.0437 C   0  0  0  0  0  0  0  0  0  0  0  0
    1.1231    2.0828   31.5154 N   0  0  0  0  0  0  0  0  0  0  0  0
    3.1311    1.0400   31.4300 N   0  3  0  0  0  0  0  0  0  0  0  0
    5.5074    6.0380   33.4236 O   0  0  0  0  0  0  0  0  0  0  0  0
  2  1  1  6  0  0  0
  2  5  1  0  0  0  0
  2  3  1  0  0  0  0
  3  4  1  0  0  0  0
  3 12  2  0  0  0  0
  5  6  1  0  0  0  0
  6  7  1  0  0  0  0
  7  8  1  0  0  0  0
  8  9  1  0  0  0  0
  9 10  1  0  0  0  0
  9 11  2  0  0  0  0
M  CHG  3   1   1   4  -1  11   1
M  END
>  <CHROM.1>
68.43322223,-75.88695299,-65.27210551,-72.69630120,-77.20221820,165.90380688
3.86522830,4.67267616,31.14361894,0.69920438,-0.73527303,-0.52157170

>  <Name>
1koc cryst

>  <RI>
0

>  <Rbt.Current_Directory>
/home/itssahil/PROJECTS/Mol_Feturizer/New_Systems/rnas/1koc

>  <Rbt.Executable>
rbdock ($Id: //depot/dev/client3/rdock/2013.1/src/exe/rbdock.cxx#4 $)

>  <Rbt.Library>
libRbt.so (2013.1, Build901 2013/11/27)

>  <Rbt.Parameter_File>
/export/apps/rDock/src/rDock_2013.1_src/data/scripts/dock_solv.prm

>  <Rbt.Receptor>
prm/pocket_docking_8.prm

>  <SCORE>
-27.5889

>  <SCORE.INTER>
-25.4614

>  <SCORE.INTER.CONST>
1

>  <SCORE.INTER.POLAR>
-5.07786

>  <SCORE.INTER.ROT>
5

>  <SCORE.INTER.SOLV>
17.2209

>  <SCORE.INTER.VDW>
-12.7217

>  <SCORE.INTER.norm>
-2.12178

>  <SCORE.INTRA>
-2.12749

>  <SCORE.INTRA.DIHEDRAL>
0.115657

>  <SCORE.INTRA.DIHEDRAL.0>
6.04201

>  <SCORE.INTRA.POLAR>
0

>  <SCORE.INTRA.POLAR.0>
0

>  <SCORE.INTRA.REPUL>
0

>  <SCORE.INTRA.REPUL.0>
0

>  <SCORE.INTRA.SOLV>
-0.939717

>  <SCORE.INTRA.SOLV.lig_0>
-71.0481

>  <SCORE.INTRA.VDW>
-1.71546

>  <SCORE.INTRA.VDW.0>
0.968882

>  <SCORE.INTRA.norm>
-0.177291

>  <SCORE.RESTR>
0

>  <SCORE.RESTR.CAVITY>
0

>  <SCORE.RESTR.norm>
0

>  <SCORE.SYSTEM>
0

>  <SCORE.SYSTEM.CONST>
0

>  <SCORE.SYSTEM.DIHEDRAL>
0

>  <SCORE.SYSTEM.SOLV>
0

>  <SCORE.SYSTEM.norm>
0

>  <SCORE.heavy>
12

>  <SCORE.norm>
-2.29907

>  <SYMMETRIC_BONDS>
11 12 2
5 6 2

>  <RMSD>
1.283

$$$$
1koc cryst
 OpenBabel11021811393D
libRbt.so/2013.1/901 2013/11/27
 12 11  0  0  0  0  0  0  0  0999 V2000
    3.7356    7.8139   31.6176 N   0  3  0  0  0  0  0  0  0  0  0  0
    3.5351    6.4039   32.0698 C   0  0  2  0  0  0  0  0  0  0  0  0
    4.6942    6.0064   33.0047 C   0  0  0  0  0  0  0  0  0  0  0  0
    5.8215    5.9680   32.5349 O   0  5  0  0  0  0  0  0  0  0  0  0
    3.4826    5.4741   30.8277 C   0  0  0  0  0  0  0  0  0  0  0  0
    3.3461    4.0047   31.2439 C   0  0  0  0  0  0  0  0  0  0  0  0
    3.3162    3.1214   30.0014 C   0  0  0  0  0  0  0  0  0  0  0  0
    2.9778    1.7194   30.3836 N   0  0  0  0  0  0  0  0  0  0  0  0
    2.0629    1.4844   31.2932 C   0  0  0  0  0  0  0  0  0  0  0  0
    1.0009    2.2470   31.3753 N   0  0  0  0  0  0  0  0  0  0  0  0
    2.2079    0.4817   32.1192 N   0  3  0  0  0  0  0  0  0  0  0  0
    4.4357    5.7366   34.1682 O   0  0  0  0  0  0  0  0  0  0  0  0
  2  1  1  6  0  0  0
  2  5  1  0  0  0  0
  2  3  1  0  0  0  0
  3  4  1  0  0  0  0
  3 12  2  0  0  0  0
  5  6  1  0  0  0  0
  6  7  1  0  0  0  0
  7  8  1  0  0  0  0
  8  9  1  0  0  0  0
  9 10  1  0  0  0  0
  9 11  2  0  0  0  0
M  CHG  3   1   1   4  -1  11   1
M  END
>  <CHROM.1>
61.62243934,177.23759269,-64.20668857,-179.26202581,-171.48291181,40.30893419
3.38580062,4.22337765,31.73594521,0.66068598,-1.04168304,-0.59611475

>  <Name>
1koc cryst

>  <RI>
0

>  <Rbt.Current_Directory>
/home/itssahil/PROJECTS/Mol_Feturizer/New_Systems/rnas/1koc

>  <Rbt.Executable>
rbdock ($Id: //depot/dev/client3/rdock/2013.1/src/exe/rbdock.cxx#4 $)

>  <Rbt.Library>
libRbt.so (2013.1, Build901 2013/11/27)

>  <Rbt.Parameter_File>
/export/apps/rDock/src/rDock_2013.1_src/data/scripts/dock_solv.prm

>  <Rbt.Receptor>
prm/pocket_docking_2.prm

>  <SCORE>
-30.7314

>  <SCORE.INTER>
-28.695

>  <SCORE.INTER.CONST>
1

>  <SCORE.INTER.POLAR>
-5.8503

>  <SCORE.INTER.ROT>
5

>  <SCORE.INTER.SOLV>
22.5042

>  <SCORE.INTER.VDW>
-14.0638

>  <SCORE.INTER.norm>
-2.39125

>  <SCORE.INTRA>
-2.12374

>  <SCORE.INTRA.DIHEDRAL>
-2.28541

>  <SCORE.INTRA.DIHEDRAL.0>
6.04201

>  <SCORE.INTRA.POLAR>
0

>  <SCORE.INTRA.POLAR.0>
0

>  <SCORE.INTRA.REPUL>
0

>  <SCORE.INTRA.REPUL.0>
0

>  <SCORE.INTRA.SOLV>
-0.604266

>  <SCORE.INTRA.SOLV.lig_0>
-71.0481

>  <SCORE.INTRA.VDW>
-0.6789

>  <SCORE.INTRA.VDW.0>
0.968882

>  <SCORE.INTRA.norm>
-0.176978

>  <SCORE.RESTR>
0.0874211

>  <SCORE.RESTR.CAVITY>
0.0874211

>  <SCORE.RESTR.norm>
0.0072851

>  <SCORE.SYSTEM>
0

>  <SCORE.SYSTEM.CONST>
0

>  <SCORE.SYSTEM.DIHEDRAL>
0

>  <SCORE.SYSTEM.SOLV>
0

>  <SCORE.SYSTEM.norm>
0

>  <SCORE.heavy>
12

>  <SCORE.norm>
-2.56095

>  <SYMMETRIC_BONDS>
11 12 2
5 6 2

>  <RMSD>
1.333

$$$$
1koc cryst
 OpenBabel11021811393D
libRbt.so/2013.1/901 2013/11/27
 12 11  0  0  0  0  0  0  0  0999 V2000
    3.7003    7.7829   31.6226 N   0  3  0  0  0  0  0  0  0  0  0  0
    3.5589    6.3664   32.0768 C   0  0  2  0  0  0  0  0  0  0  0  0
    4.7481    6.0105   32.9904 C   0  0  0  0  0  0  0  0  0  0  0  0
    5.8744    6.0979   32.5246 O   0  5  0  0  0  0  0  0  0  0  0  0
    3.5178    5.4358   30.8348 C   0  0  0  0  0  0  0  0  0  0  0  0
    3.3332    3.9711   31.2488 C   0  0  0  0  0  0  0  0  0  0  0  0
    3.3547    3.0825   30.0100 C   0  0  0  0  0  0  0  0  0  0  0  0
    2.9820    1.6860   30.3807 N   0  0  0  0  0  0  0  0  0  0  0  0
    2.0658    1.4661   31.2928 C   0  0  0  0  0  0  0  0  0  0  0  0
    1.0244    2.2550   31.3875 N   0  0  0  0  0  0  0  0  0  0  0  0
    2.1890    0.4521   32.1086 N   0  3  0  0  0  0  0  0  0  0  0  0
    4.5142    5.6468   34.1333 O   0  0  0  0  0  0  0  0  0  0  0  0
  2  1  1  6  0  0  0
  2  5  1  0  0  0  0
  2  3  1  0  0  0  0
  3  4  1  0  0  0  0
  3 12  2  0  0  0  0
  5  6  1  0  0  0  0
  6  7  1  0  0  0  0
  7  8  1  0  0  0  0
  8  9  1  0  0  0  0
  9 10  1  0  0  0  0
  9 11  2  0  0  0  0
M  CHG  3   1   1   4  -1  11   1
M  END
>  <CHROM.1>
64.09171819,-178.39304185,-59.51129944,-177.69823389,-171.92848639,36.98148215
3.40531673,4.20661126,31.73329798,0.68656747,-1.02112486,-0.56565251

>  <Name>
1koc cryst

>  <RI>
0

>  <Rbt.Current_Directory>
/home/itssahil/PROJECTS/Mol_Feturizer/New_Systems/rnas/1koc

>  <Rbt.Executable>
rbdock ($Id: //depot/dev/client3/rdock/2013.1/src/exe/rbdock.cxx#4 $)

>  <Rbt.Library>
libRbt.so (2013.1, Build901 2013/11/27)

>  <Rbt.Parameter_File>
/export/apps/rDock/src/rDock_2013.1_src/data/scripts/dock_solv.prm

>  <Rbt.Receptor>
prm/pocket_docking_2.prm

>  <SCORE>
-30.7849

>  <SCORE.INTER>
-28.8774

>  <SCORE.INTER.CONST>
1

>  <SCORE.INTER.POLAR>
-5.8987

>  <SCORE.INTER.ROT>
5

>  <SCORE.INTER.SOLV>
22.5856

>  <SCORE.INTER.VDW>
-14.0511

>  <SCORE.INTER.norm>
-2.40645

>  <SCORE.INTRA>
-1.96267

>  <SCORE.INTRA.DIHEDRAL>
-2.27688

>  <SCORE.INTRA.DIHEDRAL.0>
6.04201

>  <SCORE.INTRA.POLAR>
0

>  <SCORE.INTRA.POLAR.0>
0

>  <SCORE.INTRA.REPUL>
0

>  <SCORE.INTRA.REPUL.0>
0

>  <SCORE.INTRA.SOLV>
-0.622054

>  <SCORE.INTRA.SOLV.lig_0>
-71.0481

>  <SCORE.INTRA.VDW>
-0.513206

>  <SCORE.INTRA.VDW.0>
0.968882

>  <SCORE.INTRA.norm>
-0.163556

>  <SCORE.RESTR>
0.0551732

>  <SCORE.RESTR.CAVITY>
0.0551732

>  <SCORE.RESTR.norm>
0.00459777

>  <SCORE.SYSTEM>
0

>  <SCORE.SYSTEM.CONST>
0

>  <SCORE.SYSTEM.DIHEDRAL>
0

>  <SCORE.SYSTEM.SOLV>
0

>  <SCORE.SYSTEM.norm>
0

>  <SCORE.heavy>
12

>  <SCORE.norm>
-2.56541

>  <SYMMETRIC_BONDS>
11 12 2
5 6 2

>  <RMSD>
1.346

$$$$
1koc cryst
 OpenBabel11021811393D
libRbt.so/2013.1/901 2013/11/27
 12 11  0  0  0  0  0  0  0  0999 V2000
    3.2865    7.9285   31.9654 N   0  3  0  0  0  0  0  0  0  0  0  0
    3.2429    6.4881   32.3604 C   0  0  2  0  0  0  0  0  0  0  0  0
    4.3493    6.2181   33.3988 C   0  0  0  0  0  0  0  0  0  0  0  0
    4.6938    5.0600   33.5808 O   0  5  0  0  0  0  0  0  0  0  0  0
    3.4432    5.6081   31.0972 C   0  0  0  0  0  0  0  0  0  0  0  0
    3.1826    4.1295   31.4081 C   0  0  0  0  0  0  0  0  0  0  0  0
    3.2252    3.3197   30.1168 C   0  0  0  0  0  0  0  0  0  0  0  0
    2.9336    1.8855   30.4074 N   0  0  0  0  0  0  0  0  0  0  0  0
    2.0031    1.5622   31.2730 C   0  0  0  0  0  0  0  0  0  0  0  0
    0.9088    2.2764   31.3653 N   0  0  0  0  0  0  0  0  0  0  0  0
    2.1651    0.5193   32.0444 N   0  3  0  0  0  0  0  0  0  0  0  0
    4.8249    7.1688   34.0015 O   0  0  0  0  0  0  0  0  0  0  0  0
  2  1  1  6  0  0  0
  2  5  1  0  0  0  0
  2  3  1  0  0  0  0
  3  4  1  0  0  0  0
  3 12  2  0  0  0  0
  5  6  1  0  0  0  0
  6  7  1  0  0  0  0
  7  8  1  0  0  0  0
  8  9  1  0  0  0  0
  9 10  1  0  0  0  0
  9 11  2  0  0  0  0
M  CHG  3   1   1   4  -1  11   1
M  END
>  <CHROM.1>
177.58144477,-170.84894001,-161.51657653,173.31612771,-178.38719645,40.29777348
3.18517409,4.36542631,31.93534843,0.86607241,-1.03320095,-0.31219607

>  <Name>
1koc cryst

>  <RI>
0

>  <Rbt.Current_Directory>
/home/itssahil/PROJECTS/Mol_Feturizer/New_Systems/rnas/1koc

>  <Rbt.Executable>
rbdock ($Id: //depot/dev/client3/rdock/2013.1/src/exe/rbdock.cxx#4 $)

>  <Rbt.Library>
libRbt.so (2013.1, Build901 2013/11/27)

>  <Rbt.Parameter_File>
/export/apps/rDock/src/rDock_2013.1_src/data/scripts/dock_solv.prm

>  <Rbt.Receptor>
prm/pocket_docking_4.prm

>  <SCORE>
-31.21

>  <SCORE.INTER>
-30.2125

>  <SCORE.INTER.CONST>
1

>  <SCORE.INTER.POLAR>
-5.5741

>  <SCORE.INTER.ROT>
5

>  <SCORE.INTER.SOLV>
22.9547

>  <SCORE.INTER.VDW>
-16.1462

>  <SCORE.INTER.norm>
-2.51771

>  <SCORE.INTRA>
-0.997493

>  <SCORE.INTRA.DIHEDRAL>
-2.10118

>  <SCORE.INTRA.DIHEDRAL.0>
6.04201

>  <SCORE.INTRA.POLAR>
0

>  <SCORE.INTRA.POLAR.0>
0

>  <SCORE.INTRA.REPUL>
0

>  <SCORE.INTRA.REPUL.0>
0

>  <SCORE.INTRA.SOLV>
-0.230462

>  <SCORE.INTRA.SOLV.lig_0>
-71.0481

>  <SCORE.INTRA.VDW>
0.168327

>  <SCORE.INTRA.VDW.0>
0.968882

>  <SCORE.INTRA.norm>
-0.0831244

>  <SCORE.RESTR>
0

>  <SCORE.RESTR.CAVITY>
0

>  <SCORE.RESTR.norm>
0

>  <SCORE.SYSTEM>
0

>  <SCORE.SYSTEM.CONST>
0

>  <SCORE.SYSTEM.DIHEDRAL>
0

>  <SCORE.SYSTEM.SOLV>
0

>  <SCORE.SYSTEM.norm>
0

>  <SCORE.heavy>
12

>  <SCORE.norm>
-2.60083

>  <SYMMETRIC_BONDS>
11 12 2
5 6 2

>  <RMSD>
1.350

$$$$
1koc cryst
 OpenBabel11021811393D
libRbt.so/2013.1/901 2013/11/27
 12 11  0  0  0  0  0  0  0  0999 V2000
    3.9472    6.5816   28.7643 N   0  3  0  0  0  0  0  0  0  0  0  0
    3.0650    6.1565   29.8929 C   0  0  2  0  0  0  0  0  0  0  0  0
    3.8417    6.2938   31.2170 C   0  0  0  0  0  0  0  0  0  0  0  0
    3.2141    6.5979   32.2203 O   0  5  0  0  0  0  0  0  0  0  0  0
    2.6180    4.6876   29.6636 C   0  0  0  0  0  0  0  0  0  0  0  0
    3.8173    3.7332   29.7053 C   0  0  0  0  0  0  0  0  0  0  0  0
    3.8493    3.0098   31.0472 C   0  0  0  0  0  0  0  0  0  0  0  0
    3.2784    1.6393   30.8985 N   0  0  0  0  0  0  0  0  0  0  0  0
    2.1516    1.3244   31.4910 C   0  0  0  0  0  0  0  0  0  0  0  0
    1.1906    2.2083   31.5966 N   0  0  0  0  0  0  0  0  0  0  0  0
    1.9838    0.1215   31.9745 N   0  3  0  0  0  0  0  0  0  0  0  0
    5.0489    6.1045   31.2047 O   0  0  0  0  0  0  0  0  0  0  0  0
  2  1  1  6  0  0  0
  2  5  1  0  0  0  0
  2  3  1  0  0  0  0
  3  4  1  0  0  0  0
  3 12  2  0  0  0  0
  5  6  1  0  0  0  0
  6  7  1  0  0  0  0
  7  8  1  0  0  0  0
  8  9  1  0  0  0  0
  9 10  1  0  0  0  0
  9 11  2  0  0  0  0
M  CHG  3   1   1   4  -1  11   1
M  END
>  <CHROM.1>
-170.46153415,64.31955636,146.93460500,102.62621914,100.11450645,-113.36341001
3.17251769,4.04438526,30.80229740,-0.50988628,-1.21562915,-2.33006986

>  <Name>
1koc cryst

>  <RI>
0

>  <Rbt.Current_Directory>
/home/itssahil/PROJECTS/Mol_Feturizer/New_Systems/rnas/1koc

>  <Rbt.Executable>
rbdock ($Id: //depot/dev/client3/rdock/2013.1/src/exe/rbdock.cxx#4 $)

>  <Rbt.Library>
libRbt.so (2013.1, Build901 2013/11/27)

>  <Rbt.Parameter_File>
/export/apps/rDock/src/rDock_2013.1_src/data/scripts/dock_solv.prm

>  <Rbt.Receptor>
prm/pocket_docking_2.prm

>  <SCORE>
-20.4864

>  <SCORE.INTER>
-23.5308

>  <SCORE.INTER.CONST>
1

>  <SCORE.INTER.POLAR>
-5.20012

>  <SCORE.INTER.ROT>
5

>  <SCORE.INTER.SOLV>
24.064

>  <SCORE.INTER.VDW>
-13.3081

>  <SCORE.INTER.norm>
-1.9609

>  <SCORE.INTRA>
2.70046

>  <SCORE.INTRA.DIHEDRAL>
6.79088

>  <SCORE.INTRA.DIHEDRAL.0>
6.04201

>  <SCORE.INTRA.POLAR>
0

>  <SCORE.INTRA.POLAR.0>
0

>  <SCORE.INTRA.REPUL>
0

>  <SCORE.INTRA.REPUL.0>
0

>  <SCORE.INTRA.SOLV>
1.95101

>  <SCORE.INTRA.SOLV.lig_0>
-71.0481

>  <SCORE.INTRA.VDW>
-1.67049

>  <SCORE.INTRA.VDW.0>
0.968882

>  <SCORE.INTRA.norm>
0.225039

>  <SCORE.RESTR>
0.343908

>  <SCORE.RESTR.CAVITY>
0.343908

>  <SCORE.RESTR.norm>
0.028659

>  <SCORE.SYSTEM>
0

>  <SCORE.SYSTEM.CONST>
0

>  <SCORE.SYSTEM.DIHEDRAL>
0

>  <SCORE.SYSTEM.SOLV>
0

>  <SCORE.SYSTEM.norm>
0

>  <SCORE.heavy>
12

>  <SCORE.norm>
-1.7072

>  <SYMMETRIC_BONDS>
11 12 2
5 6 2

>  <RMSD>
1.376

$$$$
1koc cryst
 OpenBabel11021811393D
libRbt.so/2013.1/901 2013/11/27
 12 11  0  0  0  0  0  0  0  0999 V2000
    2.1658    8.0733   32.4666 N   0  3  0  0  0  0  0  0  0  0  0  0
    2.6842    6.6793   32.3218 C   0  0  2  0  0  0  0  0  0  0  0  0
    3.9708    6.5323   33.1576 C   0  0  0  0  0  0  0  0  0  0  0  0
    3.8620    6.1563   34.3151 O   0  5  0  0  0  0  0  0  0  0  0  0
    2.9635    6.3940   30.8216 C   0  0  0  0  0  0  0  0  0  0  0  0
    2.4893    4.9896   30.4296 C   0  0  0  0  0  0  0  0  0  0  0  0
    3.4733    3.9512   30.9574 C   0  0  0  0  0  0  0  0  0  0  0  0
    3.1518    2.6110   30.3858 N   0  0  0  0  0  0  0  0  0  0  0  0
    2.2716    1.8358   30.9722 C   0  0  0  0  0  0  0  0  0  0  0  0
    1.2119    2.3525   31.5433 N   0  0  0  0  0  0  0  0  0  0  0  0
    2.4490    0.5407   30.9832 N   0  3  0  0  0  0  0  0  0  0  0  0
    5.0393    6.8078   32.6325 O   0  0  0  0  0  0  0  0  0  0  0  0
  2  1  1  6  0  0  0
  2  5  1  0  0  0  0
  2  3  1  0  0  0  0
  3  4  1  0  0  0  0
  3 12  2  0  0  0  0
  5  6  1  0  0  0  0
  6  7  1  0  0  0  0
  7  8  1  0  0  0  0
  8  9  1  0  0  0  0
  9 10  1  0  0  0  0
  9 11  2  0  0  0  0
M  CHG  3   1   1   4  -1  11   1
M  END
>  <CHROM.1>
-113.32210683,-137.90142105,90.79150181,-75.90924758,-170.29544494,-86.66344449
2.96684538,4.75469955,31.76915129,1.26823193,-0.85286437,0.10685548

>  <Name>
1koc cryst

>  <RI>
0

>  <Rbt.Current_Directory>
/home/itssahil/PROJECTS/Mol_Feturizer/New_Systems/rnas/1koc

>  <Rbt.Executable>
rbdock ($Id: //depot/dev/client3/rdock/2013.1/src/exe/rbdock.cxx#4 $)

>  <Rbt.Library>
libRbt.so (2013.1, Build901 2013/11/27)

>  <Rbt.Parameter_File>
/export/apps/rDock/src/rDock_2013.1_src/data/scripts/dock_solv.prm

>  <Rbt.Receptor>
prm/pocket_docking_4.prm

>  <SCORE>
-34.9544

>  <SCORE.INTER>
-37.6841

>  <SCORE.INTER.CONST>
1

>  <SCORE.INTER.POLAR>
-6.89355

>  <SCORE.INTER.ROT>
5

>  <SCORE.INTER.SOLV>
28.2458

>  <SCORE.INTER.VDW>
-18.4929

>  <SCORE.INTER.norm>
-3.14035

>  <SCORE.INTRA>
2.7297

>  <SCORE.INTRA.DIHEDRAL>
6.32127

>  <SCORE.INTRA.DIHEDRAL.0>
6.04201

>  <SCORE.INTRA.POLAR>
0

>  <SCORE.INTRA.POLAR.0>
0

>  <SCORE.INTRA.REPUL>
0

>  <SCORE.INTRA.REPUL.0>
0

>  <SCORE.INTRA.SOLV>
-0.336062

>  <SCORE.INTRA.SOLV.lig_0>
-71.0481

>  <SCORE.INTRA.VDW>
-0.262903

>  <SCORE.INTRA.VDW.0>
0.968882

>  <SCORE.INTRA.norm>
0.227475

>  <SCORE.RESTR>
0

>  <SCORE.RESTR.CAVITY>
0

>  <SCORE.RESTR.norm>
0

>  <SCORE.SYSTEM>
0

>  <SCORE.SYSTEM.CONST>
0

>  <SCORE.SYSTEM.DIHEDRAL>
0

>  <SCORE.SYSTEM.SOLV>
0

>  <SCORE.SYSTEM.norm>
0

>  <SCORE.heavy>
12

>  <SCORE.norm>
-2.91287

>  <SYMMETRIC_BONDS>
11 12 2
5 6 2

>  <RMSD>
1.414

$$$$
1koc cryst
 OpenBabel11021811393D
libRbt.so/2013.1/901 2013/11/27
 12 11  0  0  0  0  0  0  0  0999 V2000
    2.7462    7.0866   31.6276 N   0  3  0  0  0  0  0  0  0  0  0  0
    4.0178    6.4258   31.2045 C   0  0  2  0  0  0  0  0  0  0  0  0
    5.1861    7.4117   31.4012 C   0  0  0  0  0  0  0  0  0  0  0  0
    6.1969    6.9996   31.9502 O   0  5  0  0  0  0  0  0  0  0  0  0
    3.8986    5.9993   29.7165 C   0  0  0  0  0  0  0  0  0  0  0  0
    3.9134    4.4725   29.5774 C   0  0  0  0  0  0  0  0  0  0  0  0
    2.9063    3.8606   30.5451 C   0  0  0  0  0  0  0  0  0  0  0  0
    2.7801    2.3964   30.2874 N   0  0  0  0  0  0  0  0  0  0  0  0
    2.0301    1.6507   31.0628 C   0  0  0  0  0  0  0  0  0  0  0  0
    0.9120    2.1239   31.5546 N   0  0  0  0  0  0  0  0  0  0  0  0
    2.3967    0.4276   31.3428 N   0  3  0  0  0  0  0  0  0  0  0  0
    5.0477    8.5616   31.0116 O   0  0  0  0  0  0  0  0  0  0  0  0
  2  1  1  6  0  0  0
  2  5  1  0  0  0  0
  2  3  1  0  0  0  0
  3  4  1  0  0  0  0
  3 12  2  0  0  0  0
  5  6  1  0  0  0  0
  6  7  1  0  0  0  0
  7  8  1  0  0  0  0
  8  9  1  0  0  0  0
  9 10  1  0  0  0  0
  9 11  2  0  0  0  0
M  CHG  3   1   1   4  -1  11   1
M  END
>  <CHROM.1>
172.52512981,-113.84969473,133.33983995,49.73033044,172.34363830,175.56807857
3.48034767,4.79149876,30.96448835,1.10774054,0.24960465,0.15642490

>  <Name>
1koc cryst

>  <RI>
0

>  <Rbt.Current_Directory>
/home/itssahil/PROJECTS/Mol_Feturizer/New_Systems/rnas/1koc

>  <Rbt.Executable>
rbdock ($Id: //depot/dev/client3/rdock/2013.1/src/exe/rbdock.cxx#4 $)

>  <Rbt.Library>
libRbt.so (2013.1, Build901 2013/11/27)

>  <Rbt.Parameter_File>
/export/apps/rDock/src/rDock_2013.1_src/data/scripts/dock_solv.prm

>  <Rbt.Receptor>
prm/pocket_docking_2.prm

>  <SCORE>
-26.4013

>  <SCORE.INTER>
-27.3225

>  <SCORE.INTER.CONST>
1

>  <SCORE.INTER.POLAR>
-5.35474

>  <SCORE.INTER.ROT>
5

>  <SCORE.INTER.SOLV>
21.3498

>  <SCORE.INTER.VDW>
-14.4158

>  <SCORE.INTER.norm>
-2.27688

>  <SCORE.INTRA>
0.32476

>  <SCORE.INTRA.DIHEDRAL>
3.19394

>  <SCORE.INTRA.DIHEDRAL.0>
6.04201

>  <SCORE.INTRA.POLAR>
0

>  <SCORE.INTRA.POLAR.0>
0

>  <SCORE.INTRA.REPUL>
0

>  <SCORE.INTRA.REPUL.0>
0

>  <SCORE.INTRA.SOLV>
-0.853815

>  <SCORE.INTRA.SOLV.lig_0>
-71.0481

>  <SCORE.INTRA.VDW>
-0.845303

>  <SCORE.INTRA.VDW.0>
0.968882

>  <SCORE.INTRA.norm>
0.0270634

>  <SCORE.RESTR>
0.596464

>  <SCORE.RESTR.CAVITY>
0.596464

>  <SCORE.RESTR.norm>
0.0497053

>  <SCORE.SYSTEM>
0

>  <SCORE.SYSTEM.CONST>
0

>  <SCORE.SYSTEM.DIHEDRAL>
0

>  <SCORE.SYSTEM.SOLV>
0

>  <SCORE.SYSTEM.norm>
0

>  <SCORE.heavy>
12

>  <SCORE.norm>
-2.20011

>  <SYMMETRIC_BONDS>
11 12 2
5 6 2

>  <RMSD>
1.422

$$$$
1koc cryst
 OpenBabel11021811393D
libRbt.so/2013.1/901 2013/11/27
 12 11  0  0  0  0  0  0  0  0999 V2000
    4.3346    7.3829   30.1931 N   0  3  0  0  0  0  0  0  0  0  0  0
    3.8138    6.1781   30.9074 C   0  0  2  0  0  0  0  0  0  0  0  0
    3.5266    6.5494   32.3754 C   0  0  0  0  0  0  0  0  0  0  0  0
    4.4603    6.9381   33.0611 O   0  5  0  0  0  0  0  0  0  0  0  0
    4.8668    5.0406   30.8204 C   0  0  0  0  0  0  0  0  0  0  0  0
    4.2592    3.6940   31.2306 C   0  0  0  0  0  0  0  0  0  0  0  0
    3.3831    3.1626   30.1015 C   0  0  0  0  0  0  0  0  0  0  0  0
    2.9822    1.7546   30.3899 N   0  0  0  0  0  0  0  0  0  0  0  0
    2.0567    1.5004   31.2834 C   0  0  0  0  0  0  0  0  0  0  0  0
    1.0296    2.3022   31.4180 N   0  0  0  0  0  0  0  0  0  0  0  0
    2.1561    0.4393   32.0405 N   0  3  0  0  0  0  0  0  0  0  0  0
    2.3842    6.4289   32.7923 O   0  0  0  0  0  0  0  0  0  0  0  0
  2  1  1  6  0  0  0
  2  5  1  0  0  0  0
  2  3  1  0  0  0  0
  3  4  1  0  0  0  0
  3 12  2  0  0  0  0
  5  6  1  0  0  0  0
  6  7  1  0  0  0  0
  7  8  1  0  0  0  0
  8  9  1  0  0  0  0
  9 10  1  0  0  0  0
  9 11  2  0  0  0  0
M  CHG  3   1   1   4  -1  11   1
M  END
>  <CHROM.1>
179.06736516,-166.23927924,-60.80432560,75.92913051,170.16328094,75.52665105
3.26116645,4.30191764,31.39192400,-1.07739718,-0.82798903,-2.68819565

>  <Name>
1koc cryst

>  <RI>
0

>  <Rbt.Current_Directory>
/home/itssahil/PROJECTS/Mol_Feturizer/New_Systems/rnas/1koc

>  <Rbt.Executable>
rbdock ($Id: //depot/dev/client3/rdock/2013.1/src/exe/rbdock.cxx#4 $)

>  <Rbt.Library>
libRbt.so (2013.1, Build901 2013/11/27)

>  <Rbt.Parameter_File>
/export/apps/rDock/src/rDock_2013.1_src/data/scripts/dock_solv.prm

>  <Rbt.Receptor>
prm/pocket_docking_2.prm

>  <SCORE>
-31.8853

>  <SCORE.INTER>
-29.2562

>  <SCORE.INTER.CONST>
1

>  <SCORE.INTER.POLAR>
-5.83417

>  <SCORE.INTER.ROT>
5

>  <SCORE.INTER.SOLV>
23.8996

>  <SCORE.INTER.VDW>
-14.9567

>  <SCORE.INTER.norm>
-2.43802

>  <SCORE.INTRA>
-2.89277

>  <SCORE.INTRA.DIHEDRAL>
-0.602421

>  <SCORE.INTRA.DIHEDRAL.0>
6.04201

>  <SCORE.INTRA.POLAR>
0

>  <SCORE.INTRA.POLAR.0>
0

>  <SCORE.INTRA.REPUL>
0

>  <SCORE.INTRA.REPUL.0>
0

>  <SCORE.INTRA.SOLV>
-1.12055

>  <SCORE.INTRA.SOLV.lig_0>
-71.0481

>  <SCORE.INTRA.VDW>
-2.03129

>  <SCORE.INTRA.VDW.0>
0.968882

>  <SCORE.INTRA.norm>
-0.241064

>  <SCORE.RESTR>
0.263624

>  <SCORE.RESTR.CAVITY>
0.263624

>  <SCORE.RESTR.norm>
0.0219687

>  <SCORE.SYSTEM>
0

>  <SCORE.SYSTEM.CONST>
0

>  <SCORE.SYSTEM.DIHEDRAL>
0

>  <SCORE.SYSTEM.SOLV>
0

>  <SCORE.SYSTEM.norm>
0

>  <SCORE.heavy>
12

>  <SCORE.norm>
-2.65711

>  <SYMMETRIC_BONDS>
11 12 2
5 6 2

>  <RMSD>
1.436

$$$$
1koc cryst
 OpenBabel11021811393D
libRbt.so/2013.1/901 2013/11/27
 12 11  0  0  0  0  0  0  0  0999 V2000
    2.1712    7.5175   32.1165 N   0  3  0  0  0  0  0  0  0  0  0  0
    3.1090    6.3692   32.3027 C   0  0  2  0  0  0  0  0  0  0  0  0
    4.5525    6.9051   32.3697 C   0  0  0  0  0  0  0  0  0  0  0  0
    5.0367    7.1100   33.4727 O   0  5  0  0  0  0  0  0  0  0  0  0
    2.9411    5.3785   31.1193 C   0  0  0  0  0  0  0  0  0  0  0  0
    3.6523    4.0508   31.4063 C   0  0  0  0  0  0  0  0  0  0  0  0
    3.5305    3.1326   30.1950 C   0  0  0  0  0  0  0  0  0  0  0  0
    3.2612    1.7350   30.6428 N   0  0  0  0  0  0  0  0  0  0  0  0
    2.1436    1.4433   31.2636 C   0  0  0  0  0  0  0  0  0  0  0  0
    1.0253    2.0358   30.9254 N   0  0  0  0  0  0  0  0  0  0  0  0
    2.1434    0.5534   32.2212 N   0  3  0  0  0  0  0  0  0  0  0  0
    5.1446    7.1120   31.3210 O   0  0  0  0  0  0  0  0  0  0  0  0
  2  1  1  6  0  0  0
  2  5  1  0  0  0  0
  2  3  1  0  0  0  0
  3  4  1  0  0  0  0
  3 12  2  0  0  0  0
  5  6  1  0  0  0  0
  6  7  1  0  0  0  0
  7  8  1  0  0  0  0
  8  9  1  0  0  0  0
  9 10  1  0  0  0  0
  9 11  2  0  0  0  0
M  CHG  3   1   1   4  -1  11   1
M  END
>  <CHROM.1>
177.89035253,-167.91894006,95.46503172,-176.96755420,-139.08486464,64.82148124
3.20573035,4.46515064,31.62530238,1.25444209,0.02313796,0.19425427

>  <Name>
1koc cryst

>  <RI>
0

>  <Rbt.Current_Directory>
/home/itssahil/PROJECTS/Mol_Feturizer/New_Systems/rnas/1koc

>  <Rbt.Executable>
rbdock ($Id: //depot/dev/client3/rdock/2013.1/src/exe/rbdock.cxx#4 $)

>  <Rbt.Library>
libRbt.so (2013.1, Build901 2013/11/27)

>  <Rbt.Parameter_File>
/export/apps/rDock/src/rDock_2013.1_src/data/scripts/dock_solv.prm

>  <Rbt.Receptor>
prm/pocket_docking_4.prm

>  <SCORE>
-31.5735

>  <SCORE.INTER>
-30.4908

>  <SCORE.INTER.CONST>
1

>  <SCORE.INTER.POLAR>
-5.42812

>  <SCORE.INTER.ROT>
5

>  <SCORE.INTER.SOLV>
23.4186

>  <SCORE.INTER.VDW>
-16.973

>  <SCORE.INTER.norm>
-2.5409

>  <SCORE.INTRA>
-1.187

>  <SCORE.INTRA.DIHEDRAL>
2.18926

>  <SCORE.INTRA.DIHEDRAL.0>
6.04201

>  <SCORE.INTRA.POLAR>
0

>  <SCORE.INTRA.POLAR.0>
0

>  <SCORE.INTRA.REPUL>
0

>  <SCORE.INTRA.REPUL.0>
0

>  <SCORE.INTRA.SOLV>
-0.934568

>  <SCORE.INTRA.SOLV.lig_0>
-71.0481

>  <SCORE.INTRA.VDW>
-1.81435

>  <SCORE.INTRA.VDW.0>
0.968882

>  <SCORE.INTRA.norm>
-0.0989167

>  <SCORE.RESTR>
0.104351

>  <SCORE.RESTR.CAVITY>
0.104351

>  <SCORE.RESTR.norm>
0.00869591

>  <SCORE.SYSTEM>
0

>  <SCORE.SYSTEM.CONST>
0

>  <SCORE.SYSTEM.DIHEDRAL>
0

>  <SCORE.SYSTEM.SOLV>
0

>  <SCORE.SYSTEM.norm>
0

>  <SCORE.heavy>
12

>  <SCORE.norm>
-2.63112

>  <SYMMETRIC_BONDS>
11 12 2
5 6 2

>  <RMSD>
1.443

$$$$
1koc cryst
 OpenBabel11021811393D
libRbt.so/2013.1/901 2013/11/27
 12 11  0  0  0  0  0  0  0  0999 V2000
    5.0598    8.2303   30.1369 N   0  3  0  0  0  0  0  0  0  0  0  0
    4.0527    7.1795   30.4749 C   0  0  2  0  0  0  0  0  0  0  0  0
    4.3194    6.6692   31.9046 C   0  0  0  0  0  0  0  0  0  0  0  0
    5.3791    6.1010   32.1216 O   0  5  0  0  0  0  0  0  0  0  0  0
    4.1601    6.0222   29.4456 C   0  0  0  0  0  0  0  0  0  0  0  0
    3.0126    5.0204   29.6202 C   0  0  0  0  0  0  0  0  0  0  0  0
    3.4001    3.9744   30.6598 C   0  0  0  0  0  0  0  0  0  0  0  0
    2.1829    3.2498   31.1287 N   0  0  0  0  0  0  0  0  0  0  0  0
    2.1396    1.9396   31.0957 C   0  0  0  0  0  0  0  0  0  0  0  0
    3.2144    1.2358   31.3515 N   0  0  0  0  0  0  0  0  0  0  0  0
    1.0177    1.3319   30.8113 N   0  3  0  0  0  0  0  0  0  0  0  0
    3.4583    6.8440   32.7539 O   0  0  0  0  0  0  0  0  0  0  0  0
  2  1  1  6  0  0  0
  2  5  1  0  0  0  0
  2  3  1  0  0  0  0
  3  4  1  0  0  0  0
  3 12  2  0  0  0  0
  5  6  1  0  0  0  0
  6  7  1  0  0  0  0
  7  8  1  0  0  0  0
  8  9  1  0  0  0  0
  9 10  1  0  0  0  0
  9 11  2  0  0  0  0
M  CHG  3   1   1   4  -1  11   1
M  END
>  <CHROM.1>
57.57372014,-171.47903529,-63.68447103,-87.14087079,163.51655095,126.97042787
3.46248407,4.82238089,30.97253594,0.39523558,-1.10158351,-1.13785733

>  <Name>
1koc cryst

>  <RI>
0

>  <Rbt.Current_Directory>
/home/itssahil/PROJECTS/Mol_Feturizer/New_Systems/rnas/1koc

>  <Rbt.Executable>
rbdock ($Id: //depot/dev/client3/rdock/2013.1/src/exe/rbdock.cxx#4 $)

>  <Rbt.Library>
libRbt.so (2013.1, Build901 2013/11/27)

>  <Rbt.Parameter_File>
/export/apps/rDock/src/rDock_2013.1_src/data/scripts/dock_solv.prm

>  <Rbt.Receptor>
prm/pocket_docking_2.prm

>  <SCORE>
-19.1054

>  <SCORE.INTER>
-17.7357

>  <SCORE.INTER.CONST>
1

>  <SCORE.INTER.POLAR>
-3.84793

>  <SCORE.INTER.ROT>
5

>  <SCORE.INTER.SOLV>
16.2869

>  <SCORE.INTER.VDW>
-11.3597

>  <SCORE.INTER.norm>
-1.47798

>  <SCORE.INTRA>
-1.45051

>  <SCORE.INTRA.DIHEDRAL>
1.24013

>  <SCORE.INTRA.DIHEDRAL.0>
6.04201

>  <SCORE.INTRA.POLAR>
0

>  <SCORE.INTRA.POLAR.0>
0

>  <SCORE.INTRA.REPUL>
0

>  <SCORE.INTRA.REPUL.0>
0

>  <SCORE.INTRA.SOLV>
-0.081624

>  <SCORE.INTRA.SOLV.lig_0>
-71.0481

>  <SCORE.INTRA.VDW>
-2.02976

>  <SCORE.INTRA.VDW.0>
0.968882

>  <SCORE.INTRA.norm>
-0.120876

>  <SCORE.RESTR>
0.0807823

>  <SCORE.RESTR.CAVITY>
0.0807823

>  <SCORE.RESTR.norm>
0.00673186

>  <SCORE.SYSTEM>
0

>  <SCORE.SYSTEM.CONST>
0

>  <SCORE.SYSTEM.DIHEDRAL>
0

>  <SCORE.SYSTEM.SOLV>
0

>  <SCORE.SYSTEM.norm>
0

>  <SCORE.heavy>
12

>  <SCORE.norm>
-1.59212

>  <SYMMETRIC_BONDS>
11 12 2
5 6 2

>  <RMSD>
1.448

$$$$
1koc cryst
 OpenBabel11021811393D
libRbt.so/2013.1/901 2013/11/27
 12 11  0  0  0  0  0  0  0  0999 V2000
    2.1979    7.4921   32.0962 N   0  3  0  0  0  0  0  0  0  0  0  0
    3.1362    6.3426   32.2727 C   0  0  2  0  0  0  0  0  0  0  0  0
    4.5837    6.8717   32.2775 C   0  0  0  0  0  0  0  0  0  0  0  0
    5.2815    6.6222   33.2491 O   0  5  0  0  0  0  0  0  0  0  0  0
    2.9217    5.3290   31.1165 C   0  0  0  0  0  0  0  0  0  0  0  0
    3.6976    4.0310   31.3698 C   0  0  0  0  0  0  0  0  0  0  0  0
    3.5435    3.1005   30.1717 C   0  0  0  0  0  0  0  0  0  0  0  0
    3.2572    1.7131   30.6404 N   0  0  0  0  0  0  0  0  0  0  0  0
    2.1392    1.4458   31.2714 C   0  0  0  0  0  0  0  0  0  0  0  0
    1.0274    2.0493   30.9313 N   0  0  0  0  0  0  0  0  0  0  0  0
    2.1321    0.5693   32.2413 N   0  3  0  0  0  0  0  0  0  0  0  0
    4.9666    7.5252   31.3185 O   0  0  0  0  0  0  0  0  0  0  0  0
  2  1  1  6  0  0  0
  2  5  1  0  0  0  0
  2  3  1  0  0  0  0
  3  4  1  0  0  0  0
  3 12  2  0  0  0  0
  5  6  1  0  0  0  0
  6  7  1  0  0  0  0
  7  8  1  0  0  0  0
  8  9  1  0  0  0  0
  9 10  1  0  0  0  0
  9 11  2  0  0  0  0
M  CHG  3   1   1   4  -1  11   1
M  END
>  <CHROM.1>
-64.76159572,-170.96716282,123.15621257,-176.03349496,-135.12613961,65.32905986
3.22013644,4.44451358,31.59194458,1.24708348,-0.07191700,0.13735094

>  <Name>
1koc cryst

>  <RI>
0

>  <Rbt.Current_Directory>
/home/itssahil/PROJECTS/Mol_Feturizer/New_Systems/rnas/1koc

>  <Rbt.Executable>
rbdock ($Id: //depot/dev/client3/rdock/2013.1/src/exe/rbdock.cxx#4 $)

>  <Rbt.Library>
libRbt.so (2013.1, Build901 2013/11/27)

>  <Rbt.Parameter_File>
/export/apps/rDock/src/rDock_2013.1_src/data/scripts/dock_solv.prm

>  <Rbt.Receptor>
prm/pocket_docking_6.prm

>  <SCORE>
-31.8505

>  <SCORE.INTER>
-30.5842

>  <SCORE.INTER.CONST>
1

>  <SCORE.INTER.POLAR>
-5.46939

>  <SCORE.INTER.ROT>
5

>  <SCORE.INTER.SOLV>
23.4177

>  <SCORE.INTER.VDW>
-16.8975

>  <SCORE.INTER.norm>
-2.54869

>  <SCORE.INTRA>
-1.3829

>  <SCORE.INTRA.DIHEDRAL>
2.50171

>  <SCORE.INTRA.DIHEDRAL.0>
6.04201

>  <SCORE.INTRA.POLAR>
0

>  <SCORE.INTRA.POLAR.0>
0

>  <SCORE.INTRA.REPUL>
0

>  <SCORE.INTRA.REPUL.0>
0

>  <SCORE.INTRA.SOLV>
-0.889643

>  <SCORE.INTRA.SOLV.lig_0>
-71.0481

>  <SCORE.INTRA.VDW>
-2.18893

>  <SCORE.INTRA.VDW.0>
0.968882

>  <SCORE.INTRA.norm>
-0.115242

>  <SCORE.RESTR>
0.116667

>  <SCORE.RESTR.CAVITY>
0.116667

>  <SCORE.RESTR.norm>
0.00972226

>  <SCORE.SYSTEM>
0

>  <SCORE.SYSTEM.CONST>
0

>  <SCORE.SYSTEM.DIHEDRAL>
0

>  <SCORE.SYSTEM.SOLV>
0

>  <SCORE.SYSTEM.norm>
0

>  <SCORE.heavy>
12

>  <SCORE.norm>
-2.65421

>  <SYMMETRIC_BONDS>
11 12 2
5 6 2

>  <RMSD>
1.456

$$$$
1koc cryst
 OpenBabel11021811393D
libRbt.so/2013.1/901 2013/11/27
 12 11  0  0  0  0  0  0  0  0999 V2000
    3.7432    8.4367   31.5365 N   0  3  0  0  0  0  0  0  0  0  0  0
    3.5846    6.9594   31.3772 C   0  0  2  0  0  0  0  0  0  0  0  0
    4.3973    6.2455   32.4751 C   0  0  0  0  0  0  0  0  0  0  0  0
    5.6117    6.1979   32.3492 O   0  5  0  0  0  0  0  0  0  0  0  0
    4.0785    6.5442   29.9651 C   0  0  0  0  0  0  0  0  0  0  0  0
    3.8687    5.0443   29.7264 C   0  0  0  0  0  0  0  0  0  0  0  0
    2.3760    4.7395   29.6658 C   0  0  0  0  0  0  0  0  0  0  0  0
    1.9752    3.9281   30.8521 N   0  0  0  0  0  0  0  0  0  0  0  0
    1.9945    2.6182   30.7945 C   0  0  0  0  0  0  0  0  0  0  0  0
    2.9287    1.9999   30.1154 N   0  0  0  0  0  0  0  0  0  0  0  0
    1.0806    1.9250   31.4214 N   0  3  0  0  0  0  0  0  0  0  0  0
    3.7938    5.7498   33.4149 O   0  0  0  0  0  0  0  0  0  0  0  0
  2  1  1  1  0  0  0
  2  5  1  0  0  0  0
  2  3  1  0  0  0  0
  3  4  1  0  0  0  0
  3 12  2  0  0  0  0
  5  6  1  0  0  0  0
  6  7  1  0  0  0  0
  7  8  1  0  0  0  0
  8  9  1  0  0  0  0
  9 10  1  0  0  0  0
  9 11  2  0  0  0  0
M  CHG  3   1   1   4  -1  11   1
M  END
>  <CHROM.1>
60.89883877,-177.08376971,-75.51769542,67.05752993,-111.92256141,-91.09458608
3.28868144,5.04099940,31.16943198,0.14780293,-1.11067875,-1.16250197

>  <Name>
1koc cryst

>  <RI>
0

>  <Rbt.Current_Directory>
/home/itssahil/PROJECTS/Mol_Feturizer/New_Systems/rnas/1koc

>  <Rbt.Executable>
rbdock ($Id: //depot/dev/client3/rdock/2013.1/src/exe/rbdock.cxx#4 $)

>  <Rbt.Library>
libRbt.so (2013.1, Build901 2013/11/27)

>  <Rbt.Parameter_File>
/export/apps/rDock/src/rDock_2013.1_src/data/scripts/dock_solv.prm

>  <Rbt.Receptor>
prm/pocket_docking_2.prm

>  <SCORE>
-24.0427

>  <SCORE.INTER>
-24.4175

>  <SCORE.INTER.CONST>
1

>  <SCORE.INTER.POLAR>
-4.16383

>  <SCORE.INTER.ROT>
5

>  <SCORE.INTER.SOLV>
19.9681

>  <SCORE.INTER.VDW>
-15.9883

>  <SCORE.INTER.norm>
-2.03479

>  <SCORE.INTRA>
0.374814

>  <SCORE.INTRA.DIHEDRAL>
2.93021

>  <SCORE.INTRA.DIHEDRAL.0>
6.04201

>  <SCORE.INTRA.POLAR>
0

>  <SCORE.INTRA.POLAR.0>
0

>  <SCORE.INTRA.REPUL>
0

>  <SCORE.INTRA.REPUL.0>
0

>  <SCORE.INTRA.SOLV>
0.930782

>  <SCORE.INTRA.SOLV.lig_0>
-71.0481

>  <SCORE.INTRA.VDW>
-1.55568

>  <SCORE.INTRA.VDW.0>
0.968882

>  <SCORE.INTRA.norm>
0.0312345

>  <SCORE.RESTR>
0

>  <SCORE.RESTR.CAVITY>
0

>  <SCORE.RESTR.norm>
0

>  <SCORE.SYSTEM>
0

>  <SCORE.SYSTEM.CONST>
0

>  <SCORE.SYSTEM.DIHEDRAL>
0

>  <SCORE.SYSTEM.SOLV>
0

>  <SCORE.SYSTEM.norm>
0

>  <SCORE.heavy>
12

>  <SCORE.norm>
-2.00356

>  <SYMMETRIC_BONDS>
11 12 2
5 6 2

>  <RMSD>
1.463

$$$$
1koc cryst
 OpenBabel11021811393D
libRbt.so/2013.1/901 2013/11/27
 12 11  0  0  0  0  0  0  0  0999 V2000
    4.3130    8.2619   31.0476 N   0  3  0  0  0  0  0  0  0  0  0  0
    3.5330    7.1628   31.6928 C   0  0  2  0  0  0  0  0  0  0  0  0
    4.3574    6.5775   32.8561 C   0  0  0  0  0  0  0  0  0  0  0  0
    3.8966    6.6631   33.9845 O   0  5  0  0  0  0  0  0  0  0  0  0
    3.2195    6.0720   30.6334 C   0  0  0  0  0  0  0  0  0  0  0  0
    1.9159    5.3372   30.9675 C   0  0  0  0  0  0  0  0  0  0  0  0
    1.8337    4.0473   30.1585 C   0  0  0  0  0  0  0  0  0  0  0  0
    1.6507    2.8843   31.0751 N   0  0  0  0  0  0  0  0  0  0  0  0
    2.5481    1.9291   31.1189 C   0  0  0  0  0  0  0  0  0  0  0  0
    3.8209    2.2114   30.9911 N   0  0  0  0  0  0  0  0  0  0  0  0
    2.1722    0.6897   31.2958 N   0  3  0  0  0  0  0  0  0  0  0  0
    5.4375    6.0652   32.6026 O   0  0  0  0  0  0  0  0  0  0  0  0
  2  1  1  6  0  0  0
  2  5  1  0  0  0  0
  2  3  1  0  0  0  0
  3  4  1  0  0  0  0
  3 12  2  0  0  0  0
  5  6  1  0  0  0  0
  6  7  1  0  0  0  0
  7  8  1  0  0  0  0
  8  9  1  0  0  0  0
  9 10  1  0  0  0  0
  9 11  2  0  0  0  0
M  CHG  3   1   1   4  -1  11   1
M  END
>  <CHROM.1>
65.21419391,-151.20386290,117.94443657,-164.38692245,124.17101477,-118.71193050
3.25736520,4.83033573,31.54474100,1.07056511,-0.80988276,-0.16303984

>  <Name>
1koc cryst

>  <RI>
0

>  <Rbt.Current_Directory>
/home/itssahil/PROJECTS/Mol_Feturizer/New_Systems/rnas/1koc

>  <Rbt.Executable>
rbdock ($Id: //depot/dev/client3/rdock/2013.1/src/exe/rbdock.cxx#4 $)

>  <Rbt.Library>
libRbt.so (2013.1, Build901 2013/11/27)

>  <Rbt.Parameter_File>
/export/apps/rDock/src/rDock_2013.1_src/data/scripts/dock_solv.prm

>  <Rbt.Receptor>
prm/pocket_docking_2.prm

>  <SCORE>
-32.7614

>  <SCORE.INTER>
-33.1677

>  <SCORE.INTER.CONST>
1

>  <SCORE.INTER.POLAR>
-6.06536

>  <SCORE.INTER.ROT>
5

>  <SCORE.INTER.SOLV>
18.469

>  <SCORE.INTER.VDW>
-14.9836

>  <SCORE.INTER.norm>
-2.76398

>  <SCORE.INTRA>
0.18537

>  <SCORE.INTRA.DIHEDRAL>
6.29366

>  <SCORE.INTRA.DIHEDRAL.0>
6.04201

>  <SCORE.INTRA.POLAR>
0

>  <SCORE.INTRA.POLAR.0>
0

>  <SCORE.INTRA.REPUL>
0

>  <SCORE.INTRA.REPUL.0>
0

>  <SCORE.INTRA.SOLV>
-0.868483

>  <SCORE.INTRA.SOLV.lig_0>
-71.0481

>  <SCORE.INTRA.VDW>
-2.52722

>  <SCORE.INTRA.VDW.0>
0.968882

>  <SCORE.INTRA.norm>
0.0154475

>  <SCORE.RESTR>
0.220925

>  <SCORE.RESTR.CAVITY>
0.220925

>  <SCORE.RESTR.norm>
0.0184104

>  <SCORE.SYSTEM>
0

>  <SCORE.SYSTEM.CONST>
0

>  <SCORE.SYSTEM.DIHEDRAL>
0

>  <SCORE.SYSTEM.SOLV>
0

>  <SCORE.SYSTEM.norm>
0

>  <SCORE.heavy>
12

>  <SCORE.norm>
-2.73012

>  <SYMMETRIC_BONDS>
11 12 2
5 6 2

>  <RMSD>
1.479

$$$$
1koc cryst
 OpenBabel11021811393D
libRbt.so/2013.1/901 2013/11/27
 12 11  0  0  0  0  0  0  0  0999 V2000
    5.0139    8.1837   29.7625 N   0  3  0  0  0  0  0  0  0  0  0  0
    4.1530    7.0733   30.2711 C   0  0  2  0  0  0  0  0  0  0  0  0
    4.7351    6.5550   31.6008 C   0  0  0  0  0  0  0  0  0  0  0  0
    5.8784    6.1237   31.5961 O   0  5  0  0  0  0  0  0  0  0  0  0
    4.1039    5.9410   29.2102 C   0  0  0  0  0  0  0  0  0  0  0  0
    2.9565    4.9654   29.4973 C   0  0  0  0  0  0  0  0  0  0  0  0
    3.3598    4.0174   30.6214 C   0  0  0  0  0  0  0  0  0  0  0  0
    2.1629    3.2736   31.1119 N   0  0  0  0  0  0  0  0  0  0  0  0
    2.1442    1.9626   31.0895 C   0  0  0  0  0  0  0  0  0  0  0  0
    3.2355    1.2814   31.3365 N   0  0  0  0  0  0  0  0  0  0  0  0
    1.0304    1.3315   30.8246 N   0  3  0  0  0  0  0  0  0  0  0  0
    4.0273    6.5868   32.5964 O   0  0  0  0  0  0  0  0  0  0  0  0
  2  1  1  6  0  0  0
  2  5  1  0  0  0  0
  2  3  1  0  0  0  0
  3  4  1  0  0  0  0
  3 12  2  0  0  0  0
  5  6  1  0  0  0  0
  6  7  1  0  0  0  0
  7  8  1  0  0  0  0
  8  9  1  0  0  0  0
  9 10  1  0  0  0  0
  9 11  2  0  0  0  0
M  CHG  3   1   1   4  -1  11   1
M  END
>  <CHROM.1>
60.53063780,-164.59324876,-58.93558939,-78.21564844,167.52115135,122.28302165
3.58050706,4.78116356,30.80342524,0.71945428,-0.91371935,-0.79733468

>  <Name>
1koc cryst

>  <RI>
0

>  <Rbt.Current_Directory>
/home/itssahil/PROJECTS/Mol_Feturizer/New_Systems/rnas/1koc

>  <Rbt.Executable>
rbdock ($Id: //depot/dev/client3/rdock/2013.1/src/exe/rbdock.cxx#4 $)

>  <Rbt.Library>
libRbt.so (2013.1, Build901 2013/11/27)

>  <Rbt.Parameter_File>
/export/apps/rDock/src/rDock_2013.1_src/data/scripts/dock_solv.prm

>  <Rbt.Receptor>
prm/pocket_docking_2.prm

>  <SCORE>
-19.6052

>  <SCORE.INTER>
-17.7347

>  <SCORE.INTER.CONST>
1

>  <SCORE.INTER.POLAR>
-3.76451

>  <SCORE.INTER.ROT>
5

>  <SCORE.INTER.SOLV>
16.1166

>  <SCORE.INTER.VDW>
-11.5803

>  <SCORE.INTER.norm>
-1.4779

>  <SCORE.INTRA>
-1.97229

>  <SCORE.INTRA.DIHEDRAL>
0.0507807

>  <SCORE.INTRA.DIHEDRAL.0>
6.04201

>  <SCORE.INTRA.POLAR>
0

>  <SCORE.INTRA.POLAR.0>
0

>  <SCORE.INTRA.REPUL>
0

>  <SCORE.INTRA.REPUL.0>
0

>  <SCORE.INTRA.SOLV>
-0.125954

>  <SCORE.INTRA.SOLV.lig_0>
-71.0481

>  <SCORE.INTRA.VDW>
-1.93471

>  <SCORE.INTRA.VDW.0>
0.968882

>  <SCORE.INTRA.norm>
-0.164358

>  <SCORE.RESTR>
0.101804

>  <SCORE.RESTR.CAVITY>
0.101804

>  <SCORE.RESTR.norm>
0.00848366

>  <SCORE.SYSTEM>
0

>  <SCORE.SYSTEM.CONST>
0

>  <SCORE.SYSTEM.DIHEDRAL>
0

>  <SCORE.SYSTEM.SOLV>
0

>  <SCORE.SYSTEM.norm>
0

>  <SCORE.heavy>
12

>  <SCORE.norm>
-1.63377

>  <SYMMETRIC_BONDS>
11 12 2
5 6 2

>  <RMSD>
1.481

$$$$
1koc cryst
 OpenBabel11021811393D
libRbt.so/2013.1/901 2013/11/27
 12 11  0  0  0  0  0  0  0  0999 V2000
    4.0573    7.5153   30.9618 N   0  3  0  0  0  0  0  0  0  0  0  0
    3.5016    6.7202   32.0983 C   0  0  2  0  0  0  0  0  0  0  0  0
    4.6082    5.8069   32.6611 C   0  0  0  0  0  0  0  0  0  0  0  0
    4.5263    5.4617   33.8304 O   0  5  0  0  0  0  0  0  0  0  0  0
    2.2972    5.8819   31.5915 C   0  0  0  0  0  0  0  0  0  0  0  0
    2.6776    5.0629   30.3524 C   0  0  0  0  0  0  0  0  0  0  0  0
    1.6403    3.9690   30.1236 C   0  0  0  0  0  0  0  0  0  0  0  0
    1.6780    2.9906   31.2495 N   0  0  0  0  0  0  0  0  0  0  0  0
    2.4439    1.9286   31.1773 C   0  0  0  0  0  0  0  0  0  0  0  0
    3.6151    1.9964   30.5945 N   0  0  0  0  0  0  0  0  0  0  0  0
    2.0397    0.7976   31.6936 N   0  3  0  0  0  0  0  0  0  0  0  0
    5.5224    5.4776   31.9202 O   0  0  0  0  0  0  0  0  0  0  0  0
  2  1  1  6  0  0  0
  2  5  1  0  0  0  0
  2  3  1  0  0  0  0
  3  4  1  0  0  0  0
  3 12  2  0  0  0  0
  5  6  1  0  0  0  0
  6  7  1  0  0  0  0
  7  8  1  0  0  0  0
  8  9  1  0  0  0  0
  9 10  1  0  0  0  0
  9 11  2  0  0  0  0
M  CHG  3   1   1   4  -1  11   1
M  END
>  <CHROM.1>
58.54241117,52.17593370,153.95424320,163.65109594,-65.49164190,-91.44577054
3.24848182,4.46402163,31.51938941,1.03583264,-0.70572695,-0.17002876

>  <Name>
1koc cryst

>  <RI>
0

>  <Rbt.Current_Directory>
/home/itssahil/PROJECTS/Mol_Feturizer/New_Systems/rnas/1koc

>  <Rbt.Executable>
rbdock ($Id: //depot/dev/client3/rdock/2013.1/src/exe/rbdock.cxx#4 $)

>  <Rbt.Library>
libRbt.so (2013.1, Build901 2013/11/27)

>  <Rbt.Parameter_File>
/export/apps/rDock/src/rDock_2013.1_src/data/scripts/dock_solv.prm

>  <Rbt.Receptor>
prm/pocket_docking_2.prm

>  <SCORE>
-34.5285

>  <SCORE.INTER>
-33.4117

>  <SCORE.INTER.CONST>
1

>  <SCORE.INTER.POLAR>
-6.29928

>  <SCORE.INTER.ROT>
5

>  <SCORE.INTER.SOLV>
20.0453

>  <SCORE.INTER.VDW>
-14.892

>  <SCORE.INTER.norm>
-2.78431

>  <SCORE.INTRA>
-1.23787

>  <SCORE.INTRA.DIHEDRAL>
-1.19821

>  <SCORE.INTRA.DIHEDRAL.0>
6.04201

>  <SCORE.INTRA.POLAR>
0

>  <SCORE.INTRA.POLAR.0>
0

>  <SCORE.INTRA.REPUL>
0

>  <SCORE.INTRA.REPUL.0>
0

>  <SCORE.INTRA.SOLV>
1.46818

>  <SCORE.INTRA.SOLV.lig_0>
-71.0481

>  <SCORE.INTRA.VDW>
-1.37286

>  <SCORE.INTRA.VDW.0>
0.968882

>  <SCORE.INTRA.norm>
-0.103156

>  <SCORE.RESTR>
0.121046

>  <SCORE.RESTR.CAVITY>
0.121046

>  <SCORE.RESTR.norm>
0.0100871

>  <SCORE.SYSTEM>
0

>  <SCORE.SYSTEM.CONST>
0

>  <SCORE.SYSTEM.DIHEDRAL>
0

>  <SCORE.SYSTEM.SOLV>
0

>  <SCORE.SYSTEM.norm>
0

>  <SCORE.heavy>
12

>  <SCORE.norm>
-2.87737

>  <SYMMETRIC_BONDS>
11 12 2
5 6 2

>  <RMSD>
1.492

$$$$
1koc cryst
 OpenBabel11021811393D
libRbt.so/2013.1/901 2013/11/27
 12 11  0  0  0  0  0  0  0  0999 V2000
    2.8790    7.1455   31.6426 N   0  3  0  0  0  0  0  0  0  0  0  0
    4.0306    6.4582   30.9836 C   0  0  2  0  0  0  0  0  0  0  0  0
    5.2179    7.4373   30.8980 C   0  0  0  0  0  0  0  0  0  0  0  0
    4.9805    8.6022   30.6157 O   0  5  0  0  0  0  0  0  0  0  0  0
    3.5995    5.9867   29.5687 C   0  0  0  0  0  0  0  0  0  0  0  0
    3.7258    4.4648   29.4322 C   0  0  0  0  0  0  0  0  0  0  0  0
    3.0399    3.7863   30.6129 C   0  0  0  0  0  0  0  0  0  0  0  0
    2.8309    2.3392   30.3152 N   0  0  0  0  0  0  0  0  0  0  0  0
    2.0410    1.6158   31.0718 C   0  0  0  0  0  0  0  0  0  0  0  0
    0.9520    2.1375   31.5796 N   0  0  0  0  0  0  0  0  0  0  0  0
    2.3383    0.3667   31.3169 N   0  3  0  0  0  0  0  0  0  0  0  0
    6.3426    7.0061   31.1041 O   0  0  0  0  0  0  0  0  0  0  0  0
  2  1  1  6  0  0  0
  2  5  1  0  0  0  0
  2  3  1  0  0  0  0
  3  4  1  0  0  0  0
  3 12  2  0  0  0  0
  5  6  1  0  0  0  0
  6  7  1  0  0  0  0
  7  8  1  0  0  0  0
  8  9  1  0  0  0  0
  9 10  1  0  0  0  0
  9 11  2  0  0  0  0
M  CHG  3   1   1   4  -1  11   1
M  END
>  <CHROM.1>
-67.65213482,-120.05131066,-40.05768923,49.87513927,164.77068038,-167.14020736
3.47882635,4.78666377,30.78727044,1.09273120,0.37457793,0.14760510

>  <Name>
1koc cryst

>  <RI>
0

>  <Rbt.Current_Directory>
/home/itssahil/PROJECTS/Mol_Feturizer/New_Systems/rnas/1koc

>  <Rbt.Executable>
rbdock ($Id: //depot/dev/client3/rdock/2013.1/src/exe/rbdock.cxx#4 $)

>  <Rbt.Library>
libRbt.so (2013.1, Build901 2013/11/27)

>  <Rbt.Parameter_File>
/export/apps/rDock/src/rDock_2013.1_src/data/scripts/dock_solv.prm

>  <Rbt.Receptor>
prm/pocket_docking_2.prm

>  <SCORE>
-26.3756

>  <SCORE.INTER>
-27.6006

>  <SCORE.INTER.CONST>
1

>  <SCORE.INTER.POLAR>
-5.57308

>  <SCORE.INTER.ROT>
5

>  <SCORE.INTER.SOLV>
21.5297

>  <SCORE.INTER.VDW>
-13.9333

>  <SCORE.INTER.norm>
-2.30005

>  <SCORE.INTRA>
0.59744

>  <SCORE.INTRA.DIHEDRAL>
3.91356

>  <SCORE.INTRA.DIHEDRAL.0>
6.04201

>  <SCORE.INTRA.POLAR>
0

>  <SCORE.INTRA.POLAR.0>
0

>  <SCORE.INTRA.REPUL>
0

>  <SCORE.INTRA.REPUL.0>
0

>  <SCORE.INTRA.SOLV>
-0.887712

>  <SCORE.INTRA.SOLV.lig_0>
-71.0481

>  <SCORE.INTRA.VDW>
-0.915483

>  <SCORE.INTRA.VDW.0>
0.968882

>  <SCORE.INTRA.norm>
0.0497867

>  <SCORE.RESTR>
0.62754

>  <SCORE.RESTR.CAVITY>
0.62754

>  <SCORE.RESTR.norm>
0.052295

>  <SCORE.SYSTEM>
0

>  <SCORE.SYSTEM.CONST>
0

>  <SCORE.SYSTEM.DIHEDRAL>
0

>  <SCORE.SYSTEM.SOLV>
0

>  <SCORE.SYSTEM.norm>
0

>  <SCORE.heavy>
12

>  <SCORE.norm>
-2.19797

>  <SYMMETRIC_BONDS>
11 12 2
5 6 2

>  <RMSD>
1.494

$$$$
1koc cryst
 OpenBabel11021811393D
libRbt.so/2013.1/901 2013/11/27
 12 11  0  0  0  0  0  0  0  0999 V2000
    2.2364    8.1564   32.4669 N   0  3  0  0  0  0  0  0  0  0  0  0
    2.7359    6.7588   32.6404 C   0  0  2  0  0  0  0  0  0  0  0  0
    4.1851    6.8045   33.1633 C   0  0  0  0  0  0  0  0  0  0  0  0
    4.4307    6.2423   34.2200 O   0  5  0  0  0  0  0  0  0  0  0  0
    2.6629    6.0197   31.2771 C   0  0  0  0  0  0  0  0  0  0  0  0
    2.9247    4.5187   31.4487 C   0  0  0  0  0  0  0  0  0  0  0  0
    2.7925    3.8188   30.1005 C   0  0  0  0  0  0  0  0  0  0  0  0
    2.6793    2.3448   30.3030 N   0  0  0  0  0  0  0  0  0  0  0  0
    1.8290    1.8606   31.1761 C   0  0  0  0  0  0  0  0  0  0  0  0
    0.6650    2.4347   31.3540 N   0  0  0  0  0  0  0  0  0  0  0  0
    2.1414    0.7972   31.8691 N   0  3  0  0  0  0  0  0  0  0  0  0
    5.0207    7.4081   32.5071 O   0  0  0  0  0  0  0  0  0  0  0  0
  2  1  1  6  0  0  0
  2  5  1  0  0  0  0
  2  3  1  0  0  0  0
  3  4  1  0  0  0  0
  3 12  2  0  0  0  0
  5  6  1  0  0  0  0
  6  7  1  0  0  0  0
  7  8  1  0  0  0  0
  8  9  1  0  0  0  0
  9 10  1  0  0  0  0
  9 11  2  0  0  0  0
M  CHG  3   1   1   4  -1  11   1
M  END
>  <CHROM.1>
99.04899873,-169.86611949,122.20678016,177.84979573,-164.86751393,48.84769810
2.85066059,4.78113410,31.89489353,1.16378061,-0.68356799,0.05364950

>  <Name>
1koc cryst

>  <RI>
0

>  <Rbt.Current_Directory>
/home/itssahil/PROJECTS/Mol_Feturizer/New_Systems/rnas/1koc

>  <Rbt.Executable>
rbdock ($Id: //depot/dev/client3/rdock/2013.1/src/exe/rbdock.cxx#4 $)

>  <Rbt.Library>
libRbt.so (2013.1, Build901 2013/11/27)

>  <Rbt.Parameter_File>
/export/apps/rDock/src/rDock_2013.1_src/data/scripts/dock_solv.prm

>  <Rbt.Receptor>
prm/pocket_docking_7.prm

>  <SCORE>
-39.1894

>  <SCORE.INTER>
-38.3589

>  <SCORE.INTER.CONST>
1

>  <SCORE.INTER.POLAR>
-6.57429

>  <SCORE.INTER.ROT>
5

>  <SCORE.INTER.SOLV>
26.2405

>  <SCORE.INTER.VDW>
-19.3385

>  <SCORE.INTER.norm>
-3.19658

>  <SCORE.INTRA>
-0.830476

>  <SCORE.INTRA.DIHEDRAL>
1.21957

>  <SCORE.INTRA.DIHEDRAL.0>
6.04201

>  <SCORE.INTRA.POLAR>
0

>  <SCORE.INTRA.POLAR.0>
0

>  <SCORE.INTRA.REPUL>
0

>  <SCORE.INTRA.REPUL.0>
0

>  <SCORE.INTRA.SOLV>
-0.962746

>  <SCORE.INTRA.SOLV.lig_0>
-71.0481

>  <SCORE.INTRA.VDW>
-0.958888

>  <SCORE.INTRA.VDW.0>
0.968882

>  <SCORE.INTRA.norm>
-0.0692063

>  <SCORE.RESTR>
0

>  <SCORE.RESTR.CAVITY>
0

>  <SCORE.RESTR.norm>
0

>  <SCORE.SYSTEM>
0

>  <SCORE.SYSTEM.CONST>
0

>  <SCORE.SYSTEM.DIHEDRAL>
0

>  <SCORE.SYSTEM.SOLV>
0

>  <SCORE.SYSTEM.norm>
0

>  <SCORE.heavy>
12

>  <SCORE.norm>
-3.26579

>  <SYMMETRIC_BONDS>
11 12 2
5 6 2

>  <RMSD>
1.494

$$$$
1koc cryst
 OpenBabel11021811393D
libRbt.so/2013.1/901 2013/11/27
 12 11  0  0  0  0  0  0  0  0999 V2000
    2.2437    8.1775   32.4758 N   0  3  0  0  0  0  0  0  0  0  0  0
    2.8456    6.8143   32.5854 C   0  0  2  0  0  0  0  0  0  0  0  0
    4.3613    6.9523   32.8284 C   0  0  0  0  0  0  0  0  0  0  0  0
    4.8950    6.1551   33.5852 O   0  5  0  0  0  0  0  0  0  0  0  0
    2.5647    6.0275   31.2769 C   0  0  0  0  0  0  0  0  0  0  0  0
    2.8803    4.5372   31.4507 C   0  0  0  0  0  0  0  0  0  0  0  0
    2.7732    3.8309   30.1036 C   0  0  0  0  0  0  0  0  0  0  0  0
    2.6740    2.3565   30.3103 N   0  0  0  0  0  0  0  0  0  0  0  0
    1.8256    1.8666   31.1820 C   0  0  0  0  0  0  0  0  0  0  0  0
    0.6554    2.4296   31.3542 N   0  0  0  0  0  0  0  0  0  0  0  0
    2.1463    0.8083   31.8793 N   0  3  0  0  0  0  0  0  0  0  0  0
    4.9600    7.8564   32.2650 O   0  0  0  0  0  0  0  0  0  0  0  0
  2  1  1  6  0  0  0
  2  5  1  0  0  0  0
  2  3  1  0  0  0  0
  3  4  1  0  0  0  0
  3 12  2  0  0  0  0
  5  6  1  0  0  0  0
  6  7  1  0  0  0  0
  7  8  1  0  0  0  0
  8  9  1  0  0  0  0
  9 10  1  0  0  0  0
  9 11  2  0  0  0  0
M  CHG  3   1   1   4  -1  11   1
M  END
>  <CHROM.1>
-30.86420361,-167.34932478,142.64431759,-172.47264501,-163.26437259,48.29718980
2.89404040,4.83532384,31.79127898,1.21241333,-0.38505092,0.12414699

>  <Name>
1koc cryst

>  <RI>
0

>  <Rbt.Current_Directory>
/home/itssahil/PROJECTS/Mol_Feturizer/New_Systems/rnas/1koc

>  <Rbt.Executable>
rbdock ($Id: //depot/dev/client3/rdock/2013.1/src/exe/rbdock.cxx#4 $)

>  <Rbt.Library>
libRbt.so (2013.1, Build901 2013/11/27)

>  <Rbt.Parameter_File>
/export/apps/rDock/src/rDock_2013.1_src/data/scripts/dock_solv.prm

>  <Rbt.Receptor>
prm/pocket_docking_7.prm

>  <SCORE>
-39.1636

>  <SCORE.INTER>
-38.0338

>  <SCORE.INTER.CONST>
1

>  <SCORE.INTER.POLAR>
-6.52242

>  <SCORE.INTER.ROT>
5

>  <SCORE.INTER.SOLV>
24.4085

>  <SCORE.INTER.VDW>
-18.684

>  <SCORE.INTER.norm>
-3.16948

>  <SCORE.INTRA>
-1.12976

>  <SCORE.INTRA.DIHEDRAL>
0.902351

>  <SCORE.INTRA.DIHEDRAL.0>
6.04201

>  <SCORE.INTRA.POLAR>
0

>  <SCORE.INTRA.POLAR.0>
0

>  <SCORE.INTRA.REPUL>
0

>  <SCORE.INTRA.REPUL.0>
0

>  <SCORE.INTRA.SOLV>
-0.765386

>  <SCORE.INTRA.SOLV.lig_0>
-71.0481

>  <SCORE.INTRA.VDW>
-1.19824

>  <SCORE.INTRA.VDW.0>
0.968882

>  <SCORE.INTRA.norm>
-0.0941463

>  <SCORE.RESTR>
0

>  <SCORE.RESTR.CAVITY>
0

>  <SCORE.RESTR.norm>
0

>  <SCORE.SYSTEM>
0

>  <SCORE.SYSTEM.CONST>
0

>  <SCORE.SYSTEM.DIHEDRAL>
0

>  <SCORE.SYSTEM.SOLV>
0

>  <SCORE.SYSTEM.norm>
0

>  <SCORE.heavy>
12

>  <SCORE.norm>
-3.26363

>  <SYMMETRIC_BONDS>
11 12 2
5 6 2

>  <RMSD>
1.504

$$$$
1koc cryst
 OpenBabel11021811393D
libRbt.so/2013.1/901 2013/11/27
 12 11  0  0  0  0  0  0  0  0999 V2000
    2.2640    8.1547   32.4613 N   0  3  0  0  0  0  0  0  0  0  0  0
    2.7258    6.7449   32.6409 C   0  0  2  0  0  0  0  0  0  0  0  0
    4.1866    6.7534   33.1323 C   0  0  0  0  0  0  0  0  0  0  0  0
    4.5931    5.7725   33.7370 O   0  5  0  0  0  0  0  0  0  0  0  0
    2.6016    5.9929   31.2884 C   0  0  0  0  0  0  0  0  0  0  0  0
    2.9231    4.5030   31.4541 C   0  0  0  0  0  0  0  0  0  0  0  0
    2.8345    3.8066   30.1005 C   0  0  0  0  0  0  0  0  0  0  0  0
    2.6969    2.3337   30.2957 N   0  0  0  0  0  0  0  0  0  0  0  0
    1.8472    1.8597   31.1750 C   0  0  0  0  0  0  0  0  0  0  0  0
    0.6958    2.4536   31.3686 N   0  0  0  0  0  0  0  0  0  0  0  0
    2.1477    0.7866   31.8584 N   0  3  0  0  0  0  0  0  0  0  0  0
    4.8696    7.7413   32.9069 O   0  0  0  0  0  0  0  0  0  0  0  0
  2  1  1  6  0  0  0
  2  5  1  0  0  0  0
  2  3  1  0  0  0  0
  3  4  1  0  0  0  0
  3 12  2  0  0  0  0
  5  6  1  0  0  0  0
  6  7  1  0  0  0  0
  7  8  1  0  0  0  0
  8  9  1  0  0  0  0
  9 10  1  0  0  0  0
  9 11  2  0  0  0  0
M  CHG  3   1   1   4  -1  11   1
M  END
>  <CHROM.1>
-20.96100613,-174.00655934,156.66692268,-178.20988279,-161.46541776,46.01632955
2.85825701,4.75938337,31.88561387,1.20330268,-0.58899923,0.09872321

>  <Name>
1koc cryst

>  <RI>
0

>  <Rbt.Current_Directory>
/home/itssahil/PROJECTS/Mol_Feturizer/New_Systems/rnas/1koc

>  <Rbt.Executable>
rbdock ($Id: //depot/dev/client3/rdock/2013.1/src/exe/rbdock.cxx#4 $)

>  <Rbt.Library>
libRbt.so (2013.1, Build901 2013/11/27)

>  <Rbt.Parameter_File>
/export/apps/rDock/src/rDock_2013.1_src/data/scripts/dock_solv.prm

>  <Rbt.Receptor>
prm/pocket_docking_3.prm

>  <SCORE>
-38.8606

>  <SCORE.INTER>
-38.8315

>  <SCORE.INTER.CONST>
1

>  <SCORE.INTER.POLAR>
-6.65077

>  <SCORE.INTER.ROT>
5

>  <SCORE.INTER.SOLV>
25.7809

>  <SCORE.INTER.VDW>
-19.2454

>  <SCORE.INTER.norm>
-3.23596

>  <SCORE.INTRA>
-0.152421

>  <SCORE.INTRA.DIHEDRAL>
1.3721

>  <SCORE.INTRA.DIHEDRAL.0>
6.04201

>  <SCORE.INTRA.POLAR>
0

>  <SCORE.INTRA.POLAR.0>
0

>  <SCORE.INTRA.REPUL>
0

>  <SCORE.INTRA.REPUL.0>
0

>  <SCORE.INTRA.SOLV>
-0.475255

>  <SCORE.INTRA.SOLV.lig_0>
-71.0481

>  <SCORE.INTRA.VDW>
-0.600845

>  <SCORE.INTRA.VDW.0>
0.968882

>  <SCORE.INTRA.norm>
-0.0127018

>  <SCORE.RESTR>
0.123368

>  <SCORE.RESTR.CAVITY>
0.123368

>  <SCORE.RESTR.norm>
0.0102806

>  <SCORE.SYSTEM>
0

>  <SCORE.SYSTEM.CONST>
0

>  <SCORE.SYSTEM.DIHEDRAL>
0

>  <SCORE.SYSTEM.SOLV>
0

>  <SCORE.SYSTEM.norm>
0

>  <SCORE.heavy>
12

>  <SCORE.norm>
-3.23838

>  <SYMMETRIC_BONDS>
11 12 2
5 6 2

>  <RMSD>
1.517

$$$$
1koc cryst
 OpenBabel11021811393D
libRbt.so/2013.1/901 2013/11/27
 12 11  0  0  0  0  0  0  0  0999 V2000
    2.7866    7.3988   31.8349 N   0  3  0  0  0  0  0  0  0  0  0  0
    3.7612    6.3868   31.3260 C   0  0  2  0  0  0  0  0  0  0  0  0
    5.0876    7.0937   30.9850 C   0  0  0  0  0  0  0  0  0  0  0  0
    6.1191    6.4429   31.0594 O   0  5  0  0  0  0  0  0  0  0  0  0
    3.1655    5.6934   30.0712 C   0  0  0  0  0  0  0  0  0  0  0  0
    3.6565    4.2454   29.9558 C   0  0  0  0  0  0  0  0  0  0  0  0
    3.4458    3.5262   31.2837 C   0  0  0  0  0  0  0  0  0  0  0  0
    3.3448    2.0554   31.0537 N   0  0  0  0  0  0  0  0  0  0  0  0
    2.1889    1.4464   31.1659 C   0  0  0  0  0  0  0  0  0  0  0  0
    1.0873    2.0431   30.7834 N   0  0  0  0  0  0  0  0  0  0  0  0
    2.1353    0.2361   31.6571 N   0  3  0  0  0  0  0  0  0  0  0  0
    5.0524    8.2732   30.6671 O   0  0  0  0  0  0  0  0  0  0  0  0
  2  1  1  6  0  0  0
  2  5  1  0  0  0  0
  2  3  1  0  0  0  0
  3  4  1  0  0  0  0
  3 12  2  0  0  0  0
  5  6  1  0  0  0  0
  6  7  1  0  0  0  0
  7  8  1  0  0  0  0
  8  9  1  0  0  0  0
  9 10  1  0  0  0  0
  9 11  2  0  0  0  0
M  CHG  3   1   1   4  -1  11   1
M  END
>  <CHROM.1>
49.86197249,-149.06533197,152.05635245,50.34143393,155.58915027,-107.48201837
3.46832998,4.58376791,31.00147436,1.17365701,0.08602961,0.00648315

>  <Name>
1koc cryst

>  <RI>
0

>  <Rbt.Current_Directory>
/home/itssahil/PROJECTS/Mol_Feturizer/New_Systems/rnas/1koc

>  <Rbt.Executable>
rbdock ($Id: //depot/dev/client3/rdock/2013.1/src/exe/rbdock.cxx#4 $)

>  <Rbt.Library>
libRbt.so (2013.1, Build901 2013/11/27)

>  <Rbt.Parameter_File>
/export/apps/rDock/src/rDock_2013.1_src/data/scripts/dock_solv.prm

>  <Rbt.Receptor>
prm/pocket_docking_2.prm

>  <SCORE>
-26.2782

>  <SCORE.INTER>
-26.4975

>  <SCORE.INTER.CONST>
1

>  <SCORE.INTER.POLAR>
-5.37642

>  <SCORE.INTER.ROT>
5

>  <SCORE.INTER.SOLV>
20.078

>  <SCORE.INTER.VDW>
-13.3696

>  <SCORE.INTER.norm>
-2.20813

>  <SCORE.INTRA>
-0.0991799

>  <SCORE.INTRA.DIHEDRAL>
2.70011

>  <SCORE.INTRA.DIHEDRAL.0>
6.04201

>  <SCORE.INTRA.POLAR>
0

>  <SCORE.INTRA.POLAR.0>
0

>  <SCORE.INTRA.REPUL>
0

>  <SCORE.INTRA.REPUL.0>
0

>  <SCORE.INTRA.SOLV>
-0.387106

>  <SCORE.INTRA.SOLV.lig_0>
-71.0481

>  <SCORE.INTRA.VDW>
-1.25568

>  <SCORE.INTRA.VDW.0>
0.968882

>  <SCORE.INTRA.norm>
-0.008265

>  <SCORE.RESTR>
0.318555

>  <SCORE.RESTR.CAVITY>
0.318555

>  <SCORE.RESTR.norm>
0.0265462

>  <SCORE.SYSTEM>
0

>  <SCORE.SYSTEM.CONST>
0

>  <SCORE.SYSTEM.DIHEDRAL>
0

>  <SCORE.SYSTEM.SOLV>
0

>  <SCORE.SYSTEM.norm>
0

>  <SCORE.heavy>
12

>  <SCORE.norm>
-2.18985

>  <SYMMETRIC_BONDS>
11 12 2
5 6 2

>  <RMSD>
1.520

$$$$
1koc cryst
 OpenBabel11021811393D
libRbt.so/2013.1/901 2013/11/27
 12 11  0  0  0  0  0  0  0  0999 V2000
    4.0840    7.2341   28.7218 N   0  3  0  0  0  0  0  0  0  0  0  0
    4.2609    6.1470   29.7316 C   0  0  2  0  0  0  0  0  0  0  0  0
    5.2530    6.6210   30.8117 C   0  0  0  0  0  0  0  0  0  0  0  0
    6.3363    6.0600   30.8802 O   0  5  0  0  0  0  0  0  0  0  0  0
    4.7867    4.8718   29.0191 C   0  0  0  0  0  0  0  0  0  0  0  0
    4.6059    3.6320   29.9028 C   0  0  0  0  0  0  0  0  0  0  0  0
    3.1206    3.3919   30.1501 C   0  0  0  0  0  0  0  0  0  0  0  0
    2.8769    1.9426   30.4080 N   0  0  0  0  0  0  0  0  0  0  0  0
    1.9503    1.5687   31.2573 C   0  0  0  0  0  0  0  0  0  0  0  0
    0.8308    2.2421   31.3532 N   0  0  0  0  0  0  0  0  0  0  0  0
    2.1417    0.5161   32.0085 N   0  3  0  0  0  0  0  0  0  0  0  0
    4.9107    7.5264   31.5577 O   0  0  0  0  0  0  0  0  0  0  0  0
  2  1  1  6  0  0  0
  2  5  1  0  0  0  0
  2  3  1  0  0  0  0
  3  4  1  0  0  0  0
  3 12  2  0  0  0  0
  5  6  1  0  0  0  0
  6  7  1  0  0  0  0
  7  8  1  0  0  0  0
  8  9  1  0  0  0  0
  9 10  1  0  0  0  0
  9 11  2  0  0  0  0
M  CHG  3   1   1   4  -1  11   1
M  END
>  <CHROM.1>
-176.45057630,-163.67062548,-112.83702193,63.23862417,153.12295074,145.19016985
3.75280587,4.33164836,30.48549302,0.81762602,-0.75632264,-0.78023476

>  <Name>
1koc cryst

>  <RI>
0

>  <Rbt.Current_Directory>
/home/itssahil/PROJECTS/Mol_Feturizer/New_Systems/rnas/1koc

>  <Rbt.Executable>
rbdock ($Id: //depot/dev/client3/rdock/2013.1/src/exe/rbdock.cxx#4 $)

>  <Rbt.Library>
libRbt.so (2013.1, Build901 2013/11/27)

>  <Rbt.Parameter_File>
/export/apps/rDock/src/rDock_2013.1_src/data/scripts/dock_solv.prm

>  <Rbt.Receptor>
prm/pocket_docking_6.prm

>  <SCORE>
-31.6442

>  <SCORE.INTER>
-30.8393

>  <SCORE.INTER.CONST>
1

>  <SCORE.INTER.POLAR>
-5.92389

>  <SCORE.INTER.ROT>
5

>  <SCORE.INTER.SOLV>
22.6754

>  <SCORE.INTER.VDW>
-15.305

>  <SCORE.INTER.norm>
-2.56994

>  <SCORE.INTRA>
-0.804928

>  <SCORE.INTRA.DIHEDRAL>
0.680183

>  <SCORE.INTRA.DIHEDRAL.0>
6.04201

>  <SCORE.INTRA.POLAR>
0

>  <SCORE.INTRA.POLAR.0>
0

>  <SCORE.INTRA.REPUL>
0

>  <SCORE.INTRA.REPUL.0>
0

>  <SCORE.INTRA.SOLV>
-1.20312

>  <SCORE.INTRA.SOLV.lig_0>
-71.0481

>  <SCORE.INTRA.VDW>
-0.54346

>  <SCORE.INTRA.VDW.0>
0.968882

>  <SCORE.INTRA.norm>
-0.0670773

>  <SCORE.RESTR>
0

>  <SCORE.RESTR.CAVITY>
0

>  <SCORE.RESTR.norm>
0

>  <SCORE.SYSTEM>
0

>  <SCORE.SYSTEM.CONST>
0

>  <SCORE.SYSTEM.DIHEDRAL>
0

>  <SCORE.SYSTEM.SOLV>
0

>  <SCORE.SYSTEM.norm>
0

>  <SCORE.heavy>
12

>  <SCORE.norm>
-2.63702

>  <SYMMETRIC_BONDS>
11 12 2
5 6 2

>  <RMSD>
1.525

$$$$
1koc cryst
 OpenBabel11021811393D
libRbt.so/2013.1/901 2013/11/27
 12 11  0  0  0  0  0  0  0  0999 V2000
    5.7071    6.1230   31.8884 N   0  3  0  0  0  0  0  0  0  0  0  0
    4.2530    6.4547   31.7960 C   0  0  2  0  0  0  0  0  0  0  0  0
    3.6225    6.3450   33.1980 C   0  0  0  0  0  0  0  0  0  0  0  0
    2.5598    6.9153   33.3944 O   0  5  0  0  0  0  0  0  0  0  0  0
    3.5700    5.4749   30.8041 C   0  0  0  0  0  0  0  0  0  0  0  0
    3.6584    4.0294   31.3078 C   0  0  0  0  0  0  0  0  0  0  0  0
    3.4928    3.0681   30.1359 C   0  0  0  0  0  0  0  0  0  0  0  0
    3.2070    1.6942   30.6431 N   0  0  0  0  0  0  0  0  0  0  0  0
    2.0875    1.4434   31.2782 C   0  0  0  0  0  0  0  0  0  0  0  0
    0.9759    2.0353   30.9178 N   0  0  0  0  0  0  0  0  0  0  0  0
    2.0788    0.5949   32.2727 N   0  3  0  0  0  0  0  0  0  0  0  0
    4.2155    5.7044   34.0532 O   0  0  0  0  0  0  0  0  0  0  0  0
  2  1  1  1  0  0  0
  2  5  1  0  0  0  0
  2  3  1  0  0  0  0
  3  4  1  0  0  0  0
  3 12  2  0  0  0  0
  5  6  1  0  0  0  0
  6  7  1  0  0  0  0
  7  8  1  0  0  0  0
  8  9  1  0  0  0  0
  9 10  1  0  0  0  0
  9 11  2  0  0  0  0
M  CHG  3   1   1   4  -1  11   1
M  END
>  <CHROM.1>
174.67605484,62.75792498,160.48644885,-158.17776487,-164.71566491,65.99263206
3.29778470,4.14668237,31.83310822,-1.05547534,-0.74488847,-2.47215144

>  <Name>
1koc cryst

>  <RI>
0

>  <Rbt.Current_Directory>
/home/itssahil/PROJECTS/Mol_Feturizer/New_Systems/rnas/1koc

>  <Rbt.Executable>
rbdock ($Id: //depot/dev/client3/rdock/2013.1/src/exe/rbdock.cxx#4 $)

>  <Rbt.Library>
libRbt.so (2013.1, Build901 2013/11/27)

>  <Rbt.Parameter_File>
/export/apps/rDock/src/rDock_2013.1_src/data/scripts/dock_solv.prm

>  <Rbt.Receptor>
prm/pocket_docking_2.prm

>  <SCORE>
-23.0563

>  <SCORE.INTER>
-21.9864

>  <SCORE.INTER.CONST>
1

>  <SCORE.INTER.POLAR>
-4.46267

>  <SCORE.INTER.ROT>
5

>  <SCORE.INTER.SOLV>
23.5914

>  <SCORE.INTER.VDW>
-14.5792

>  <SCORE.INTER.norm>
-1.8322

>  <SCORE.INTRA>
-1.22563

>  <SCORE.INTRA.DIHEDRAL>
0.128568

>  <SCORE.INTRA.DIHEDRAL.0>
6.04201

>  <SCORE.INTRA.POLAR>
0

>  <SCORE.INTRA.POLAR.0>
0

>  <SCORE.INTRA.REPUL>
0

>  <SCORE.INTRA.REPUL.0>
0

>  <SCORE.INTRA.SOLV>
0.526512

>  <SCORE.INTRA.SOLV.lig_0>
-71.0481

>  <SCORE.INTRA.VDW>
-1.55317

>  <SCORE.INTRA.VDW.0>
0.968882

>  <SCORE.INTRA.norm>
-0.102136

>  <SCORE.RESTR>
0.155679

>  <SCORE.RESTR.CAVITY>
0.155679

>  <SCORE.RESTR.norm>
0.0129733

>  <SCORE.SYSTEM>
0

>  <SCORE.SYSTEM.CONST>
0

>  <SCORE.SYSTEM.DIHEDRAL>
0

>  <SCORE.SYSTEM.SOLV>
0

>  <SCORE.SYSTEM.norm>
0

>  <SCORE.heavy>
12

>  <SCORE.norm>
-1.92136

>  <SYMMETRIC_BONDS>
11 12 2
5 6 2

>  <RMSD>
1.526

$$$$
1koc cryst
 OpenBabel11021811393D
libRbt.so/2013.1/901 2013/11/27
 12 11  0  0  0  0  0  0  0  0999 V2000
    2.2030    8.1328   32.4895 N   0  3  0  0  0  0  0  0  0  0  0  0
    2.8763    6.8006   32.5570 C   0  0  2  0  0  0  0  0  0  0  0  0
    4.4019    7.0039   32.4753 C   0  0  0  0  0  0  0  0  0  0  0  0
    5.1091    6.3356   33.2144 O   0  5  0  0  0  0  0  0  0  0  0  0
    2.3726    5.9162   31.3846 C   0  0  0  0  0  0  0  0  0  0  0  0
    2.9914    4.5147   31.4456 C   0  0  0  0  0  0  0  0  0  0  0  0
    2.8143    3.8181   30.1008 C   0  0  0  0  0  0  0  0  0  0  0  0
    2.6901    2.3452   30.3048 N   0  0  0  0  0  0  0  0  0  0  0  0
    1.8444    1.8687   31.1865 C   0  0  0  0  0  0  0  0  0  0  0  0
    0.6874    2.4531   31.3760 N   0  0  0  0  0  0  0  0  0  0  0  0
    2.1544    0.8026   31.8765 N   0  3  0  0  0  0  0  0  0  0  0  0
    4.8365    7.8295   31.6862 O   0  0  0  0  0  0  0  0  0  0  0  0
  2  1  1  6  0  0  0
  2  5  1  0  0  0  0
  2  3  1  0  0  0  0
  3  4  1  0  0  0  0
  3 12  2  0  0  0  0
  5  6  1  0  0  0  0
  6  7  1  0  0  0  0
  7  8  1  0  0  0  0
  8  9  1  0  0  0  0
  9 10  1  0  0  0  0
  9 11  2  0  0  0  0
M  CHG  3   1   1   4  -1  11   1
M  END
>  <CHROM.1>
79.29655036,-177.57957252,138.24313047,-163.59906856,-149.08740640,49.85612673
2.90618723,4.83647318,31.68929704,1.23761949,-0.11691862,0.17721891

>  <Name>
1koc cryst

>  <RI>
0

>  <Rbt.Current_Directory>
/home/itssahil/PROJECTS/Mol_Feturizer/New_Systems/rnas/1koc

>  <Rbt.Executable>
rbdock ($Id: //depot/dev/client3/rdock/2013.1/src/exe/rbdock.cxx#4 $)

>  <Rbt.Library>
libRbt.so (2013.1, Build901 2013/11/27)

>  <Rbt.Parameter_File>
/export/apps/rDock/src/rDock_2013.1_src/data/scripts/dock_solv.prm

>  <Rbt.Receptor>
prm/pocket_docking_5.prm

>  <SCORE>
-39.0386

>  <SCORE.INTER>
-38.428

>  <SCORE.INTER.CONST>
1

>  <SCORE.INTER.POLAR>
-6.58058

>  <SCORE.INTER.ROT>
5

>  <SCORE.INTER.SOLV>
23.9861

>  <SCORE.INTER.VDW>
-18.6121

>  <SCORE.INTER.norm>
-3.20233

>  <SCORE.INTRA>
-0.610565

>  <SCORE.INTRA.DIHEDRAL>
2.22824

>  <SCORE.INTRA.DIHEDRAL.0>
6.04201

>  <SCORE.INTRA.POLAR>
0

>  <SCORE.INTRA.POLAR.0>
0

>  <SCORE.INTRA.REPUL>
0

>  <SCORE.INTRA.REPUL.0>
0

>  <SCORE.INTRA.SOLV>
-0.55105

>  <SCORE.INTRA.SOLV.lig_0>
-71.0481

>  <SCORE.INTRA.VDW>
-1.44916

>  <SCORE.INTRA.VDW.0>
0.968882

>  <SCORE.INTRA.norm>
-0.0508804

>  <SCORE.RESTR>
0

>  <SCORE.RESTR.CAVITY>
0

>  <SCORE.RESTR.norm>
0

>  <SCORE.SYSTEM>
0

>  <SCORE.SYSTEM.CONST>
0

>  <SCORE.SYSTEM.DIHEDRAL>
0

>  <SCORE.SYSTEM.SOLV>
0

>  <SCORE.SYSTEM.norm>
0

>  <SCORE.heavy>
12

>  <SCORE.norm>
-3.25321

>  <SYMMETRIC_BONDS>
11 12 2
5 6 2

>  <RMSD>
1.533

$$$$
1koc cryst
 OpenBabel11021811393D
libRbt.so/2013.1/901 2013/11/27
 12 11  0  0  0  0  0  0  0  0999 V2000
    2.1832    8.1134   32.4909 N   0  3  0  0  0  0  0  0  0  0  0  0
    2.8522    6.7790   32.5589 C   0  0  2  0  0  0  0  0  0  0  0  0
    4.3798    6.9805   32.5251 C   0  0  0  0  0  0  0  0  0  0  0  0
    5.0814    6.1315   33.0545 O   0  5  0  0  0  0  0  0  0  0  0  0
    2.3819    5.9126   31.3597 C   0  0  0  0  0  0  0  0  0  0  0  0
    2.9787    4.5020   31.4306 C   0  0  0  0  0  0  0  0  0  0  0  0
    2.7988    3.8020   30.0880 C   0  0  0  0  0  0  0  0  0  0  0  0
    2.6738    2.3298   30.2961 N   0  0  0  0  0  0  0  0  0  0  0  0
    1.8389    1.8568   31.1899 C   0  0  0  0  0  0  0  0  0  0  0  0
    0.6860    2.4444   31.3940 N   0  0  0  0  0  0  0  0  0  0  0  0
    2.1555    0.7911   31.8775 N   0  3  0  0  0  0  0  0  0  0  0  0
    4.8219    7.9822   31.9825 O   0  0  0  0  0  0  0  0  0  0  0  0
  2  1  1  6  0  0  0
  2  5  1  0  0  0  0
  2  3  1  0  0  0  0
  3  4  1  0  0  0  0
  3 12  2  0  0  0  0
  5  6  1  0  0  0  0
  6  7  1  0  0  0  0
  7  8  1  0  0  0  0
  8  9  1  0  0  0  0
  9 10  1  0  0  0  0
  9 11  2  0  0  0  0
M  CHG  3   1   1   4  -1  11   1
M  END
>  <CHROM.1>
-37.47241736,-176.67667932,153.05162849,-165.62784989,-150.02998906,49.17301669
2.89379120,4.82012735,31.70246287,1.24297803,-0.13371227,0.17754124

>  <Name>
1koc cryst

>  <RI>
0

>  <Rbt.Current_Directory>
/home/itssahil/PROJECTS/Mol_Feturizer/New_Systems/rnas/1koc

>  <Rbt.Executable>
rbdock ($Id: //depot/dev/client3/rdock/2013.1/src/exe/rbdock.cxx#4 $)

>  <Rbt.Library>
libRbt.so (2013.1, Build901 2013/11/27)

>  <Rbt.Parameter_File>
/export/apps/rDock/src/rDock_2013.1_src/data/scripts/dock_solv.prm

>  <Rbt.Receptor>
prm/pocket_docking_8.prm

>  <SCORE>
-38.8684

>  <SCORE.INTER>
-38.517

>  <SCORE.INTER.CONST>
1

>  <SCORE.INTER.POLAR>
-6.61243

>  <SCORE.INTER.ROT>
5

>  <SCORE.INTER.SOLV>
24.0559

>  <SCORE.INTER.VDW>
-18.5885

>  <SCORE.INTER.norm>
-3.20975

>  <SCORE.INTRA>
-0.351357

>  <SCORE.INTRA.DIHEDRAL>
2.14774

>  <SCORE.INTRA.DIHEDRAL.0>
6.04201

>  <SCORE.INTRA.POLAR>
0

>  <SCORE.INTRA.POLAR.0>
0

>  <SCORE.INTRA.REPUL>
0

>  <SCORE.INTRA.REPUL.0>
0

>  <SCORE.INTRA.SOLV>
-0.380589

>  <SCORE.INTRA.SOLV.lig_0>
-71.0481

>  <SCORE.INTRA.VDW>
-1.23493

>  <SCORE.INTRA.VDW.0>
0.968882

>  <SCORE.INTRA.norm>
-0.0292798

>  <SCORE.RESTR>
0

>  <SCORE.RESTR.CAVITY>
0

>  <SCORE.RESTR.norm>
0

>  <SCORE.SYSTEM>
0

>  <SCORE.SYSTEM.CONST>
0

>  <SCORE.SYSTEM.DIHEDRAL>
0

>  <SCORE.SYSTEM.SOLV>
0

>  <SCORE.SYSTEM.norm>
0

>  <SCORE.heavy>
12

>  <SCORE.norm>
-3.23903

>  <SYMMETRIC_BONDS>
11 12 2
5 6 2

>  <RMSD>
1.540

$$$$
1koc cryst
 OpenBabel11021811393D
libRbt.so/2013.1/901 2013/11/27
 12 11  0  0  0  0  0  0  0  0999 V2000
    2.2118    7.8903   32.2922 N   0  3  0  0  0  0  0  0  0  0  0  0
    3.3393    6.9214   32.1412 C   0  0  2  0  0  0  0  0  0  0  0  0
    4.5923    7.4974   32.8294 C   0  0  0  0  0  0  0  0  0  0  0  0
    5.4330    6.7112   33.2394 O   0  5  0  0  0  0  0  0  0  0  0  0
    3.6010    6.6770   30.6306 C   0  0  0  0  0  0  0  0  0  0  0  0
    3.8979    5.1983   30.3544 C   0  0  0  0  0  0  0  0  0  0  0  0
    2.6408    4.3700   30.5964 C   0  0  0  0  0  0  0  0  0  0  0  0
    2.8944    2.9451   30.2336 N   0  0  0  0  0  0  0  0  0  0  0  0
    2.4170    1.9777   30.9792 C   0  0  0  0  0  0  0  0  0  0  0  0
    1.2439    2.0999   31.5494 N   0  0  0  0  0  0  0  0  0  0  0  0
    3.1119    0.8839   31.1509 N   0  3  0  0  0  0  0  0  0  0  0  0
    4.6857    8.7103   32.9451 O   0  0  0  0  0  0  0  0  0  0  0  0
  2  1  1  6  0  0  0
  2  5  1  0  0  0  0
  2  3  1  0  0  0  0
  3  4  1  0  0  0  0
  3 12  2  0  0  0  0
  5  6  1  0  0  0  0
  6  7  1  0  0  0  0
  7  8  1  0  0  0  0
  8  9  1  0  0  0  0
  9 10  1  0  0  0  0
  9 11  2  0  0  0  0
M  CHG  3   1   1   4  -1  11   1
M  END
>  <CHROM.1>
85.52009849,-139.64218341,153.85517359,68.03976728,175.86811574,139.73507331
3.32225236,5.16299807,31.60054401,1.27658800,-0.36171188,0.16573531

>  <Name>
1koc cryst

>  <RI>
0

>  <Rbt.Current_Directory>
/home/itssahil/PROJECTS/Mol_Feturizer/New_Systems/rnas/1koc

>  <Rbt.Executable>
rbdock ($Id: //depot/dev/client3/rdock/2013.1/src/exe/rbdock.cxx#4 $)

>  <Rbt.Library>
libRbt.so (2013.1, Build901 2013/11/27)

>  <Rbt.Parameter_File>
/export/apps/rDock/src/rDock_2013.1_src/data/scripts/dock_solv.prm

>  <Rbt.Receptor>
prm/pocket_docking_7.prm

>  <SCORE>
-28.8941

>  <SCORE.INTER>
-28.2971

>  <SCORE.INTER.CONST>
1

>  <SCORE.INTER.POLAR>
-5.10139

>  <SCORE.INTER.ROT>
5

>  <SCORE.INTER.SOLV>
22.851

>  <SCORE.INTER.VDW>
-16.4104

>  <SCORE.INTER.norm>
-2.35809

>  <SCORE.INTRA>
-0.597047

>  <SCORE.INTRA.DIHEDRAL>
3.01976

>  <SCORE.INTRA.DIHEDRAL.0>
6.04201

>  <SCORE.INTRA.POLAR>
0

>  <SCORE.INTRA.POLAR.0>
0

>  <SCORE.INTRA.REPUL>
0

>  <SCORE.INTRA.REPUL.0>
0

>  <SCORE.INTRA.SOLV>
-1.16762

>  <SCORE.INTRA.SOLV.lig_0>
-71.0481

>  <SCORE.INTRA.VDW>
-1.52312

>  <SCORE.INTRA.VDW.0>
0.968882

>  <SCORE.INTRA.norm>
-0.0497539

>  <SCORE.RESTR>
0

>  <SCORE.RESTR.CAVITY>
0

>  <SCORE.RESTR.norm>
0

>  <SCORE.SYSTEM>
0

>  <SCORE.SYSTEM.CONST>
0

>  <SCORE.SYSTEM.DIHEDRAL>
0

>  <SCORE.SYSTEM.SOLV>
0

>  <SCORE.SYSTEM.norm>
0

>  <SCORE.heavy>
12

>  <SCORE.norm>
-2.40784

>  <SYMMETRIC_BONDS>
11 12 2
5 6 2

>  <RMSD>
1.548

$$$$
1koc cryst
 OpenBabel11021811393D
libRbt.so/2013.1/901 2013/11/27
 12 11  0  0  0  0  0  0  0  0999 V2000
    2.2476    8.1601   32.4807 N   0  3  0  0  0  0  0  0  0  0  0  0
    2.8239    6.7878   32.6134 C   0  0  2  0  0  0  0  0  0  0  0  0
    4.3094    6.9027   33.0080 C   0  0  0  0  0  0  0  0  0  0  0  0
    4.9578    5.8716   33.1042 O   0  5  0  0  0  0  0  0  0  0  0  0
    2.6667    6.0375   31.2635 C   0  0  0  0  0  0  0  0  0  0  0  0
    2.8943    4.5315   31.4397 C   0  0  0  0  0  0  0  0  0  0  0  0
    2.7594    3.8322   30.0914 C   0  0  0  0  0  0  0  0  0  0  0  0
    2.6561    2.3574   30.2928 N   0  0  0  0  0  0  0  0  0  0  0  0
    1.8095    1.8669   31.1660 C   0  0  0  0  0  0  0  0  0  0  0  0
    0.6418    2.4332   31.3450 N   0  0  0  0  0  0  0  0  0  0  0  0
    2.1293    0.8050   31.8579 N   0  3  0  0  0  0  0  0  0  0  0  0
    4.7704    8.0148   33.2179 O   0  0  0  0  0  0  0  0  0  0  0  0
  2  1  1  6  0  0  0
  2  5  1  0  0  0  0
  2  3  1  0  0  0  0
  3  4  1  0  0  0  0
  3 12  2  0  0  0  0
  5  6  1  0  0  0  0
  6  7  1  0  0  0  0
  7  8  1  0  0  0  0
  8  9  1  0  0  0  0
  9 10  1  0  0  0  0
  9 11  2  0  0  0  0
M  CHG  3   1   1   4  -1  11   1
M  END
>  <CHROM.1>
-143.56051889,-165.02739559,-176.89688073,-178.88793807,-166.65784023,49.11260778
2.88049576,4.81743796,31.84079604,1.22184881,-0.40396696,0.15979749

>  <Name>
1koc cryst

>  <RI>
0

>  <Rbt.Current_Directory>
/home/itssahil/PROJECTS/Mol_Feturizer/New_Systems/rnas/1koc

>  <Rbt.Executable>
rbdock ($Id: //depot/dev/client3/rdock/2013.1/src/exe/rbdock.cxx#4 $)

>  <Rbt.Library>
libRbt.so (2013.1, Build901 2013/11/27)

>  <Rbt.Parameter_File>
/export/apps/rDock/src/rDock_2013.1_src/data/scripts/dock_solv.prm

>  <Rbt.Receptor>
prm/pocket_docking_3.prm

>  <SCORE>
-38.183

>  <SCORE.INTER>
-38.2082

>  <SCORE.INTER.CONST>
1

>  <SCORE.INTER.POLAR>
-6.53965

>  <SCORE.INTER.ROT>
5

>  <SCORE.INTER.SOLV>
24.2166

>  <SCORE.INTER.VDW>
-18.6788

>  <SCORE.INTER.norm>
-3.18402

>  <SCORE.INTRA>
-0.120563

>  <SCORE.INTRA.DIHEDRAL>
1.19807

>  <SCORE.INTRA.DIHEDRAL.0>
6.04201

>  <SCORE.INTRA.POLAR>
0

>  <SCORE.INTRA.POLAR.0>
0

>  <SCORE.INTRA.REPUL>
0

>  <SCORE.INTRA.REPUL.0>
0

>  <SCORE.INTRA.SOLV>
-0.39988

>  <SCORE.INTRA.SOLV.lig_0>
-71.0481

>  <SCORE.INTRA.VDW>
-0.519659

>  <SCORE.INTRA.VDW.0>
0.968882

>  <SCORE.INTRA.norm>
-0.0100469

>  <SCORE.RESTR>
0.145786

>  <SCORE.RESTR.CAVITY>
0.145786

>  <SCORE.RESTR.norm>
0.0121489

>  <SCORE.SYSTEM>
0

>  <SCORE.SYSTEM.CONST>
0

>  <SCORE.SYSTEM.DIHEDRAL>
0

>  <SCORE.SYSTEM.SOLV>
0

>  <SCORE.SYSTEM.norm>
0

>  <SCORE.heavy>
12

>  <SCORE.norm>
-3.18191

>  <SYMMETRIC_BONDS>
11 12 2
5 6 2

>  <RMSD>
1.558

$$$$
1koc cryst
 OpenBabel11021811393D
libRbt.so/2013.1/901 2013/11/27
 12 11  0  0  0  0  0  0  0  0999 V2000
    3.6847    8.6771   31.6139 N   0  3  0  0  0  0  0  0  0  0  0  0
    3.3155    7.2762   31.9800 C   0  0  2  0  0  0  0  0  0  0  0  0
    3.3583    7.1297   33.5136 C   0  0  0  0  0  0  0  0  0  0  0  0
    2.3272    7.3321   34.1373 O   0  5  0  0  0  0  0  0  0  0  0  0
    4.3095    6.2947   31.3026 C   0  0  0  0  0  0  0  0  0  0  0  0
    3.9247    4.8377   31.5849 C   0  0  0  0  0  0  0  0  0  0  0  0
    2.8405    4.3962   30.6079 C   0  0  0  0  0  0  0  0  0  0  0  0
    3.0301    2.9590   30.2549 N   0  0  0  0  0  0  0  0  0  0  0  0
    2.5052    2.0192   31.0039 C   0  0  0  0  0  0  0  0  0  0  0  0
    1.3362    2.1986   31.5672 N   0  0  0  0  0  0  0  0  0  0  0  0
    3.1484    0.8958   31.1857 N   0  3  0  0  0  0  0  0  0  0  0  0
    4.4200    6.8298   34.0392 O   0  0  0  0  0  0  0  0  0  0  0  0
  2  1  1  1  0  0  0
  2  5  1  0  0  0  0
  2  3  1  0  0  0  0
  3  4  1  0  0  0  0
  3 12  2  0  0  0  0
  5  6  1  0  0  0  0
  6  7  1  0  0  0  0
  7  8  1  0  0  0  0
  8  9  1  0  0  0  0
  9 10  1  0  0  0  0
  9 11  2  0  0  0  0
M  CHG  3   1   1   4  -1  11   1
M  END
>  <CHROM.1>
80.96324890,-176.81904150,91.74983046,82.57854270,145.01835873,86.80359720
3.18105011,5.08400508,31.91103589,-1.17353798,-1.14475595,-2.45387348

>  <Name>
1koc cryst

>  <RI>
0

>  <Rbt.Current_Directory>
/home/itssahil/PROJECTS/Mol_Feturizer/New_Systems/rnas/1koc

>  <Rbt.Executable>
rbdock ($Id: //depot/dev/client3/rdock/2013.1/src/exe/rbdock.cxx#4 $)

>  <Rbt.Library>
libRbt.so (2013.1, Build901 2013/11/27)

>  <Rbt.Parameter_File>
/export/apps/rDock/src/rDock_2013.1_src/data/scripts/dock_solv.prm

>  <Rbt.Receptor>
prm/pocket_docking_4.prm

>  <SCORE>
-26.4147

>  <SCORE.INTER>
-26.4108

>  <SCORE.INTER.CONST>
1

>  <SCORE.INTER.POLAR>
-5.19948

>  <SCORE.INTER.ROT>
5

>  <SCORE.INTER.SOLV>
25.6128

>  <SCORE.INTER.VDW>
-15.7465

>  <SCORE.INTER.norm>
-2.2009

>  <SCORE.INTRA>
-0.00383813

>  <SCORE.INTRA.DIHEDRAL>
3.77149

>  <SCORE.INTRA.DIHEDRAL.0>
6.04201

>  <SCORE.INTRA.POLAR>
0

>  <SCORE.INTRA.POLAR.0>
0

>  <SCORE.INTRA.REPUL>
0

>  <SCORE.INTRA.REPUL.0>
0

>  <SCORE.INTRA.SOLV>
-1.16397

>  <SCORE.INTRA.SOLV.lig_0>
-71.0481

>  <SCORE.INTRA.VDW>
-1.3076

>  <SCORE.INTRA.VDW.0>
0.968882

>  <SCORE.INTRA.norm>
-0.000319844

>  <SCORE.RESTR>
0

>  <SCORE.RESTR.CAVITY>
0

>  <SCORE.RESTR.norm>
0

>  <SCORE.SYSTEM>
0

>  <SCORE.SYSTEM.CONST>
0

>  <SCORE.SYSTEM.DIHEDRAL>
0

>  <SCORE.SYSTEM.SOLV>
0

>  <SCORE.SYSTEM.norm>
0

>  <SCORE.heavy>
12

>  <SCORE.norm>
-2.20122

>  <SYMMETRIC_BONDS>
11 12 2
5 6 2

>  <RMSD>
1.564

$$$$
1koc cryst
 OpenBabel11021811393D
libRbt.so/2013.1/901 2013/11/27
 12 11  0  0  0  0  0  0  0  0999 V2000
    4.7040    8.7852   30.4998 N   0  3  0  0  0  0  0  0  0  0  0  0
    4.7759    7.3923   31.0358 C   0  0  2  0  0  0  0  0  0  0  0  0
    6.1620    6.8006   30.7130 C   0  0  0  0  0  0  0  0  0  0  0  0
    6.8263    6.3597   31.6389 O   0  5  0  0  0  0  0  0  0  0  0  0
    3.6478    6.5411   30.3929 C   0  0  0  0  0  0  0  0  0  0  0  0
    3.7140    5.0860   30.8714 C   0  0  0  0  0  0  0  0  0  0  0  0
    2.5210    4.3117   30.3217 C   0  0  0  0  0  0  0  0  0  0  0  0
    2.8735    2.8686   30.1817 N   0  0  0  0  0  0  0  0  0  0  0  0
    2.3938    1.9859   31.0245 C   0  0  0  0  0  0  0  0  0  0  0  0
    1.1777    2.1133   31.4945 N   0  0  0  0  0  0  0  0  0  0  0  0
    3.1301    0.9709   31.3941 N   0  3  0  0  0  0  0  0  0  0  0  0
    6.5405    6.8079   29.5511 O   0  0  0  0  0  0  0  0  0  0  0  0
  2  1  1  6  0  0  0
  2  5  1  0  0  0  0
  2  3  1  0  0  0  0
  3  4  1  0  0  0  0
  3 12  2  0  0  0  0
  5  6  1  0  0  0  0
  6  7  1  0  0  0  0
  7  8  1  0  0  0  0
  8  9  1  0  0  0  0
  9 10  1  0  0  0  0
  9 11  2  0  0  0  0
M  CHG  3   1   1   4  -1  11   1
M  END
>  <CHROM.1>
-75.21476313,177.78911776,125.21191652,174.90003147,152.34866631,106.07364174
4.05158899,5.01163225,30.75746607,1.01733053,-0.06273773,-0.12992803

>  <Name>
1koc cryst

>  <RI>
0

>  <Rbt.Current_Directory>
/home/itssahil/PROJECTS/Mol_Feturizer/New_Systems/rnas/1koc

>  <Rbt.Executable>
rbdock ($Id: //depot/dev/client3/rdock/2013.1/src/exe/rbdock.cxx#4 $)

>  <Rbt.Library>
libRbt.so (2013.1, Build901 2013/11/27)

>  <Rbt.Parameter_File>
/export/apps/rDock/src/rDock_2013.1_src/data/scripts/dock_solv.prm

>  <Rbt.Receptor>
prm/pocket_docking_3.prm

>  <SCORE>
-26.2491

>  <SCORE.INTER>
-24.0153

>  <SCORE.INTER.CONST>
1

>  <SCORE.INTER.POLAR>
-5.06002

>  <SCORE.INTER.ROT>
5

>  <SCORE.INTER.SOLV>
16.8492

>  <SCORE.INTER.VDW>
-11.6932

>  <SCORE.INTER.norm>
-2.00127

>  <SCORE.INTRA>
-2.23794

>  <SCORE.INTRA.DIHEDRAL>
0.484535

>  <SCORE.INTRA.DIHEDRAL.0>
6.04201

>  <SCORE.INTRA.POLAR>
0

>  <SCORE.INTRA.POLAR.0>
0

>  <SCORE.INTRA.REPUL>
0

>  <SCORE.INTRA.REPUL.0>
0

>  <SCORE.INTRA.SOLV>
-1.30661

>  <SCORE.INTRA.SOLV.lig_0>
-71.0481

>  <SCORE.INTRA.VDW>
-1.8269

>  <SCORE.INTRA.VDW.0>
0.968882

>  <SCORE.INTRA.norm>
-0.186495

>  <SCORE.RESTR>
0.0041091

>  <SCORE.RESTR.CAVITY>
0.0041091

>  <SCORE.RESTR.norm>
0.000342425

>  <SCORE.SYSTEM>
0

>  <SCORE.SYSTEM.CONST>
0

>  <SCORE.SYSTEM.DIHEDRAL>
0

>  <SCORE.SYSTEM.SOLV>
0

>  <SCORE.SYSTEM.norm>
0

>  <SCORE.heavy>
12

>  <SCORE.norm>
-2.18743

>  <SYMMETRIC_BONDS>
11 12 2
5 6 2

>  <RMSD>
1.580

$$$$
1koc cryst
 OpenBabel11021811393D
libRbt.so/2013.1/901 2013/11/27
 12 11  0  0  0  0  0  0  0  0999 V2000
    2.1977    8.2403   32.4297 N   0  3  0  0  0  0  0  0  0  0  0  0
    2.7262    6.8468   32.3218 C   0  0  2  0  0  0  0  0  0  0  0  0
    3.7535    6.6107   33.4462 C   0  0  0  0  0  0  0  0  0  0  0  0
    4.1458    7.5811   34.0768 O   0  5  0  0  0  0  0  0  0  0  0  0
    3.3800    6.6574   30.9266 C   0  0  0  0  0  0  0  0  0  0  0  0
    3.7302    5.1858   30.6767 C   0  0  0  0  0  0  0  0  0  0  0  0
    2.4525    4.3891   30.4366 C   0  0  0  0  0  0  0  0  0  0  0  0
    2.7853    2.9524   30.2101 N   0  0  0  0  0  0  0  0  0  0  0  0
    2.3557    2.0349   31.0428 C   0  0  0  0  0  0  0  0  0  0  0  0
    1.1738    2.1460   31.5968 N   0  0  0  0  0  0  0  0  0  0  0  0
    3.1076    1.0016   31.3181 N   0  3  0  0  0  0  0  0  0  0  0  0
    4.1389    5.4692   33.6507 O   0  0  0  0  0  0  0  0  0  0  0  0
  2  1  1  6  0  0  0
  2  5  1  0  0  0  0
  2  3  1  0  0  0  0
  3  4  1  0  0  0  0
  3 12  2  0  0  0  0
  5  6  1  0  0  0  0
  6  7  1  0  0  0  0
  7  8  1  0  0  0  0
  8  9  1  0  0  0  0
  9 10  1  0  0  0  0
  9 11  2  0  0  0  0
M  CHG  3   1   1   4  -1  11   1
M  END
>  <CHROM.1>
30.53884998,-170.63584524,-11.90282797,72.21856804,-179.27603015,116.99346173
2.98643363,4.93423839,31.86955881,1.16642754,-1.14498054,-0.01381675

>  <Name>
1koc cryst

>  <RI>
0

>  <Rbt.Current_Directory>
/home/itssahil/PROJECTS/Mol_Feturizer/New_Systems/rnas/1koc

>  <Rbt.Executable>
rbdock ($Id: //depot/dev/client3/rdock/2013.1/src/exe/rbdock.cxx#4 $)

>  <Rbt.Library>
libRbt.so (2013.1, Build901 2013/11/27)

>  <Rbt.Parameter_File>
/export/apps/rDock/src/rDock_2013.1_src/data/scripts/dock_solv.prm

>  <Rbt.Receptor>
prm/pocket_docking_8.prm

>  <SCORE>
-38.0824

>  <SCORE.INTER>
-36.4637

>  <SCORE.INTER.CONST>
1

>  <SCORE.INTER.POLAR>
-6.64597

>  <SCORE.INTER.ROT>
5

>  <SCORE.INTER.SOLV>
28.3842

>  <SCORE.INTER.VDW>
-18.5506

>  <SCORE.INTER.norm>
-3.03864

>  <SCORE.INTRA>
-1.61878

>  <SCORE.INTRA.DIHEDRAL>
0.0494438

>  <SCORE.INTRA.DIHEDRAL.0>
6.04201

>  <SCORE.INTRA.POLAR>
0

>  <SCORE.INTRA.POLAR.0>
0

>  <SCORE.INTRA.REPUL>
0

>  <SCORE.INTRA.REPUL.0>
0

>  <SCORE.INTRA.SOLV>
-0.765321

>  <SCORE.INTRA.SOLV.lig_0>
-71.0481

>  <SCORE.INTRA.VDW>
-1.26085

>  <SCORE.INTRA.VDW.0>
0.968882

>  <SCORE.INTRA.norm>
-0.134899

>  <SCORE.RESTR>
0

>  <SCORE.RESTR.CAVITY>
0

>  <SCORE.RESTR.norm>
0

>  <SCORE.SYSTEM>
0

>  <SCORE.SYSTEM.CONST>
0

>  <SCORE.SYSTEM.DIHEDRAL>
0

>  <SCORE.SYSTEM.SOLV>
0

>  <SCORE.SYSTEM.norm>
0

>  <SCORE.heavy>
12

>  <SCORE.norm>
-3.17354

>  <SYMMETRIC_BONDS>
11 12 2
5 6 2

>  <RMSD>
1.581

$$$$
1koc cryst
 OpenBabel11021811393D
libRbt.so/2013.1/901 2013/11/27
 12 11  0  0  0  0  0  0  0  0999 V2000
    4.0602    7.7844   31.1957 N   0  3  0  0  0  0  0  0  0  0  0  0
    3.5410    6.5194   31.7983 C   0  0  2  0  0  0  0  0  0  0  0  0
    3.0691    6.8053   33.2375 C   0  0  0  0  0  0  0  0  0  0  0  0
    1.9470    7.2636   33.3919 O   0  5  0  0  0  0  0  0  0  0  0  0
    4.6674    5.4511   31.7876 C   0  0  0  0  0  0  0  0  0  0  0  0
    4.0834    4.0342   31.7430 C   0  0  0  0  0  0  0  0  0  0  0  0
    3.1634    3.8976   30.5348 C   0  0  0  0  0  0  0  0  0  0  0  0
    2.9179    2.4547   30.2445 N   0  0  0  0  0  0  0  0  0  0  0  0
    2.0948    1.7604   30.9929 C   0  0  0  0  0  0  0  0  0  0  0  0
    1.0128    2.3171   31.4780 N   0  0  0  0  0  0  0  0  0  0  0  0
    2.3519    0.5052   31.2526 N   0  3  0  0  0  0  0  0  0  0  0  0
    3.8384    6.5730   34.1581 O   0  0  0  0  0  0  0  0  0  0  0  0
  2  1  1  1  0  0  0
  2  5  1  0  0  0  0
  2  3  1  0  0  0  0
  3  4  1  0  0  0  0
  3 12  2  0  0  0  0
  5  6  1  0  0  0  0
  6  7  1  0  0  0  0
  7  8  1  0  0  0  0
  8  9  1  0  0  0  0
  9 10  1  0  0  0  0
  9 11  2  0  0  0  0
M  CHG  3   1   1   4  -1  11   1
M  END
>  <CHROM.1>
-75.32583323,-152.94423747,83.10641561,56.00572743,163.15677066,75.92025562
3.05258879,4.63091840,31.82199703,-1.27601511,-0.74669304,-2.63195737

>  <Name>
1koc cryst

>  <RI>
0

>  <Rbt.Current_Directory>
/home/itssahil/PROJECTS/Mol_Feturizer/New_Systems/rnas/1koc

>  <Rbt.Executable>
rbdock ($Id: //depot/dev/client3/rdock/2013.1/src/exe/rbdock.cxx#4 $)

>  <Rbt.Library>
libRbt.so (2013.1, Build901 2013/11/27)

>  <Rbt.Parameter_File>
/export/apps/rDock/src/rDock_2013.1_src/data/scripts/dock_solv.prm

>  <Rbt.Receptor>
prm/pocket_docking_3.prm

>  <SCORE>
-28.2508

>  <SCORE.INTER>
-27.5224

>  <SCORE.INTER.CONST>
1

>  <SCORE.INTER.POLAR>
-5.33536

>  <SCORE.INTER.ROT>
5

>  <SCORE.INTER.SOLV>
27.6165

>  <SCORE.INTER.VDW>
-16.7026

>  <SCORE.INTER.norm>
-2.29353

>  <SCORE.INTRA>
-0.728438

>  <SCORE.INTRA.DIHEDRAL>
1.17878

>  <SCORE.INTRA.DIHEDRAL.0>
6.04201

>  <SCORE.INTRA.POLAR>
0

>  <SCORE.INTRA.POLAR.0>
0

>  <SCORE.INTRA.REPUL>
0

>  <SCORE.INTRA.REPUL.0>
0

>  <SCORE.INTRA.SOLV>
-1.15024

>  <SCORE.INTRA.SOLV.lig_0>
-71.0481

>  <SCORE.INTRA.VDW>
-0.742711

>  <SCORE.INTRA.VDW.0>
0.968882

>  <SCORE.INTRA.norm>
-0.0607032

>  <SCORE.RESTR>
0

>  <SCORE.RESTR.CAVITY>
0

>  <SCORE.RESTR.norm>
0

>  <SCORE.SYSTEM>
0

>  <SCORE.SYSTEM.CONST>
0

>  <SCORE.SYSTEM.DIHEDRAL>
0

>  <SCORE.SYSTEM.SOLV>
0

>  <SCORE.SYSTEM.norm>
0

>  <SCORE.heavy>
12

>  <SCORE.norm>
-2.35424

>  <SYMMETRIC_BONDS>
11 12 2
5 6 2

>  <RMSD>
1.589

$$$$
1koc cryst
 OpenBabel11021811393D
libRbt.so/2013.1/901 2013/11/27
 12 11  0  0  0  0  0  0  0  0999 V2000
    2.2544    8.3698   32.5035 N   0  3  0  0  0  0  0  0  0  0  0  0
    2.9427    7.0437   32.4810 C   0  0  2  0  0  0  0  0  0  0  0  0
    4.3044    7.1722   33.1913 C   0  0  0  0  0  0  0  0  0  0  0  0
    4.8527    8.2642   33.1854 O   0  5  0  0  0  0  0  0  0  0  0  0
    3.1280    6.5918   31.0073 C   0  0  0  0  0  0  0  0  0  0  0  0
    3.5265    5.1133   30.9296 C   0  0  0  0  0  0  0  0  0  0  0  0
    2.3338    4.2413   31.3064 C   0  0  0  0  0  0  0  0  0  0  0  0
    2.6372    2.8109   31.0095 N   0  0  0  0  0  0  0  0  0  0  0  0
    1.7030    1.8983   31.1284 C   0  0  0  0  0  0  0  0  0  0  0  0
    0.4632    2.1758   30.8094 N   0  0  0  0  0  0  0  0  0  0  0  0
    2.0104    0.7041   31.5625 N   0  3  0  0  0  0  0  0  0  0  0  0
    4.7810    6.1779   33.7181 O   0  0  0  0  0  0  0  0  0  0  0  0
  2  1  1  6  0  0  0
  2  5  1  0  0  0  0
  2  3  1  0  0  0  0
  3  4  1  0  0  0  0
  3 12  2  0  0  0  0
  5  6  1  0  0  0  0
  6  7  1  0  0  0  0
  7  8  1  0  0  0  0
  8  9  1  0  0  0  0
  9 10  1  0  0  0  0
  9 11  2  0  0  0  0
M  CHG  3   1   1   4  -1  11   1
M  END
>  <CHROM.1>
-135.92113044,-166.84389467,-27.72694665,71.26702019,170.32254816,-173.07136476
2.89946541,5.05795077,31.91622927,1.15746896,-0.54255658,0.06765625

>  <Name>
1koc cryst

>  <RI>
0

>  <Rbt.Current_Directory>
/home/itssahil/PROJECTS/Mol_Feturizer/New_Systems/rnas/1koc

>  <Rbt.Executable>
rbdock ($Id: //depot/dev/client3/rdock/2013.1/src/exe/rbdock.cxx#4 $)

>  <Rbt.Library>
libRbt.so (2013.1, Build901 2013/11/27)

>  <Rbt.Parameter_File>
/export/apps/rDock/src/rDock_2013.1_src/data/scripts/dock_solv.prm

>  <Rbt.Receptor>
prm/pocket_docking_6.prm

>  <SCORE>
-30.2492

>  <SCORE.INTER>
-29.7777

>  <SCORE.INTER.CONST>
1

>  <SCORE.INTER.POLAR>
-5.50395

>  <SCORE.INTER.ROT>
5

>  <SCORE.INTER.SOLV>
23.8798

>  <SCORE.INTER.VDW>
-16.3986

>  <SCORE.INTER.norm>
-2.48148

>  <SCORE.INTRA>
-0.4715

>  <SCORE.INTRA.DIHEDRAL>
1.84543

>  <SCORE.INTRA.DIHEDRAL.0>
6.04201

>  <SCORE.INTRA.POLAR>
0

>  <SCORE.INTRA.POLAR.0>
0

>  <SCORE.INTRA.REPUL>
0

>  <SCORE.INTRA.REPUL.0>
0

>  <SCORE.INTRA.SOLV>
-1.00466

>  <SCORE.INTRA.SOLV.lig_0>
-71.0481

>  <SCORE.INTRA.VDW>
-0.891889

>  <SCORE.INTRA.VDW.0>
0.968882

>  <SCORE.INTRA.norm>
-0.0392917

>  <SCORE.RESTR>
0

>  <SCORE.RESTR.CAVITY>
0

>  <SCORE.RESTR.norm>
0

>  <SCORE.SYSTEM>
0

>  <SCORE.SYSTEM.CONST>
0

>  <SCORE.SYSTEM.DIHEDRAL>
0

>  <SCORE.SYSTEM.SOLV>
0

>  <SCORE.SYSTEM.norm>
0

>  <SCORE.heavy>
12

>  <SCORE.norm>
-2.52077

>  <SYMMETRIC_BONDS>
11 12 2
5 6 2

>  <RMSD>
1.598

$$$$
1koc cryst
 OpenBabel11021811393D
libRbt.so/2013.1/901 2013/11/27
 12 11  0  0  0  0  0  0  0  0999 V2000
    2.5046    7.0820   32.8235 N   0  3  0  0  0  0  0  0  0  0  0  0
    3.4836    5.9779   32.5877 C   0  0  2  0  0  0  0  0  0  0  0  0
    4.8524    6.5884   32.2281 C   0  0  0  0  0  0  0  0  0  0  0  0
    4.8653    7.6171   31.5688 O   0  5  0  0  0  0  0  0  0  0  0  0
    2.9626    5.0730   31.4389 C   0  0  0  0  0  0  0  0  0  0  0  0
    3.7852    3.7831   31.3365 C   0  0  0  0  0  0  0  0  0  0  0  0
    3.4055    3.0336   30.0641 C   0  0  0  0  0  0  0  0  0  0  0  0
    2.9927    1.6397   30.4003 N   0  0  0  0  0  0  0  0  0  0  0  0
    2.0593    1.4243   31.2958 C   0  0  0  0  0  0  0  0  0  0  0  0
    1.0370    2.2375   31.3941 N   0  0  0  0  0  0  0  0  0  0  0  0
    2.1459    0.3906   32.0913 N   0  3  0  0  0  0  0  0  0  0  0  0
    5.8622    6.0137   32.6065 O   0  0  0  0  0  0  0  0  0  0  0  0
  2  1  1  6  0  0  0
  2  5  1  0  0  0  0
  2  3  1  0  0  0  0
  3  4  1  0  0  0  0
  3 12  2  0  0  0  0
  5  6  1  0  0  0  0
  6  7  1  0  0  0  0
  7  8  1  0  0  0  0
  8  9  1  0  0  0  0
  9 10  1  0  0  0  0
  9 11  2  0  0  0  0
M  CHG  3   1   1   4  -1  11   1
M  END
>  <CHROM.1>
56.17370581,-169.12473592,-35.15524793,-170.49599201,-125.01047838,53.46692343
3.31056749,4.25818396,31.67219223,1.17468290,0.25821064,0.29146935

>  <Name>
1koc cryst

>  <RI>
0

>  <Rbt.Current_Directory>
/home/itssahil/PROJECTS/Mol_Feturizer/New_Systems/rnas/1koc

>  <Rbt.Executable>
rbdock ($Id: //depot/dev/client3/rdock/2013.1/src/exe/rbdock.cxx#4 $)

>  <Rbt.Library>
libRbt.so (2013.1, Build901 2013/11/27)

>  <Rbt.Parameter_File>
/export/apps/rDock/src/rDock_2013.1_src/data/scripts/dock_solv.prm

>  <Rbt.Receptor>
prm/pocket_docking_2.prm

>  <SCORE>
-27.4611

>  <SCORE.INTER>
-27.1545

>  <SCORE.INTER.CONST>
1

>  <SCORE.INTER.POLAR>
-4.84606

>  <SCORE.INTER.ROT>
5

>  <SCORE.INTER.SOLV>
23.3577

>  <SCORE.INTER.VDW>
-16.6687

>  <SCORE.INTER.norm>
-2.26288

>  <SCORE.INTRA>
-0.321692

>  <SCORE.INTRA.DIHEDRAL>
3.63232

>  <SCORE.INTRA.DIHEDRAL.0>
6.04201

>  <SCORE.INTRA.POLAR>
0

>  <SCORE.INTRA.POLAR.0>
0

>  <SCORE.INTRA.REPUL>
0

>  <SCORE.INTRA.REPUL.0>
0

>  <SCORE.INTRA.SOLV>
-0.360385

>  <SCORE.INTRA.SOLV.lig_0>
-71.0481

>  <SCORE.INTRA.VDW>
-1.95766

>  <SCORE.INTRA.VDW.0>
0.968882

>  <SCORE.INTRA.norm>
-0.0268076

>  <SCORE.RESTR>
0.0151288

>  <SCORE.RESTR.CAVITY>
0.0151288

>  <SCORE.RESTR.norm>
0.00126073

>  <SCORE.SYSTEM>
0

>  <SCORE.SYSTEM.CONST>
0

>  <SCORE.SYSTEM.DIHEDRAL>
0

>  <SCORE.SYSTEM.SOLV>
0

>  <SCORE.SYSTEM.norm>
0

>  <SCORE.heavy>
12

>  <SCORE.norm>
-2.28843

>  <SYMMETRIC_BONDS>
11 12 2
5 6 2

>  <RMSD>
1.599

$$$$
1koc cryst
 OpenBabel11021811393D
libRbt.so/2013.1/901 2013/11/27
 12 11  0  0  0  0  0  0  0  0999 V2000
    6.1179    5.9575   29.0960 N   0  3  0  0  0  0  0  0  0  0  0  0
    5.3661    6.4628   30.2844 C   0  0  2  0  0  0  0  0  0  0  0  0
    5.5950    5.5036   31.4689 C   0  0  0  0  0  0  0  0  0  0  0  0
    6.2241    4.4769   31.2611 O   0  5  0  0  0  0  0  0  0  0  0  0
    3.8573    6.5543   29.9305 C   0  0  0  0  0  0  0  0  0  0  0  0
    3.3257    5.2067   29.4284 C   0  0  0  0  0  0  0  0  0  0  0  0
    2.9649    4.3236   30.6179 C   0  0  0  0  0  0  0  0  0  0  0  0
    3.0736    2.8859   30.2339 N   0  0  0  0  0  0  0  0  0  0  0  0
    2.5151    1.9594   30.9751 C   0  0  0  0  0  0  0  0  0  0  0  0
    1.3678    2.1869   31.5648 N   0  0  0  0  0  0  0  0  0  0  0  0
    3.1029    0.8011   31.1228 N   0  3  0  0  0  0  0  0  0  0  0  0
    5.1297    5.8041   32.5581 O   0  0  0  0  0  0  0  0  0  0  0  0
  2  1  1  6  0  0  0
  2  5  1  0  0  0  0
  2  3  1  0  0  0  0
  3  4  1  0  0  0  0
  3 12  2  0  0  0  0
  5  6  1  0  0  0  0
  6  7  1  0  0  0  0
  7  8  1  0  0  0  0
  8  9  1  0  0  0  0
  9 10  1  0  0  0  0
  9 11  2  0  0  0  0
M  CHG  3   1   1   4  -1  11   1
M  END
>  <CHROM.1>
55.16324023,55.36032462,-5.50734963,83.28338969,-153.35772153,-163.69195740
4.07402829,4.31036383,30.70749416,0.82258986,-0.51020411,-0.58311269

>  <Name>
1koc cryst

>  <RI>
0

>  <Rbt.Current_Directory>
/home/itssahil/PROJECTS/Mol_Feturizer/New_Systems/rnas/1koc

>  <Rbt.Executable>
rbdock ($Id: //depot/dev/client3/rdock/2013.1/src/exe/rbdock.cxx#4 $)

>  <Rbt.Library>
libRbt.so (2013.1, Build901 2013/11/27)

>  <Rbt.Parameter_File>
/export/apps/rDock/src/rDock_2013.1_src/data/scripts/dock_solv.prm

>  <Rbt.Receptor>
prm/pocket_docking_8.prm

>  <SCORE>
-19.9142

>  <SCORE.INTER>
-20.8855

>  <SCORE.INTER.CONST>
1

>  <SCORE.INTER.POLAR>
-4.03678

>  <SCORE.INTER.ROT>
5

>  <SCORE.INTER.SOLV>
15.5149

>  <SCORE.INTER.VDW>
-12.5727

>  <SCORE.INTER.norm>
-1.74046

>  <SCORE.INTRA>
0.971258

>  <SCORE.INTRA.DIHEDRAL>
1.80737

>  <SCORE.INTRA.DIHEDRAL.0>
6.04201

>  <SCORE.INTRA.POLAR>
0

>  <SCORE.INTRA.POLAR.0>
0

>  <SCORE.INTRA.REPUL>
0

>  <SCORE.INTRA.REPUL.0>
0

>  <SCORE.INTRA.SOLV>
2.48329

>  <SCORE.INTRA.SOLV.lig_0>
-71.0481

>  <SCORE.INTRA.VDW>
-1.17407

>  <SCORE.INTRA.VDW.0>
0.968882

>  <SCORE.INTRA.norm>
0.0809382

>  <SCORE.RESTR>
0

>  <SCORE.RESTR.CAVITY>
0

>  <SCORE.RESTR.norm>
0

>  <SCORE.SYSTEM>
0

>  <SCORE.SYSTEM.CONST>
0

>  <SCORE.SYSTEM.DIHEDRAL>
0

>  <SCORE.SYSTEM.SOLV>
0

>  <SCORE.SYSTEM.norm>
0

>  <SCORE.heavy>
12

>  <SCORE.norm>
-1.65952

>  <SYMMETRIC_BONDS>
11 12 2
5 6 2

>  <RMSD>
1.616

$$$$
1koc cryst
 OpenBabel11021811393D
libRbt.so/2013.1/901 2013/11/27
 12 11  0  0  0  0  0  0  0  0999 V2000
    2.8336    8.1584   32.2680 N   0  3  0  0  0  0  0  0  0  0  0  0
    3.2160    6.7213   32.1225 C   0  0  2  0  0  0  0  0  0  0  0  0
    4.2902    6.3783   33.1732 C   0  0  0  0  0  0  0  0  0  0  0  0
    4.9972    7.2851   33.5866 O   0  5  0  0  0  0  0  0  0  0  0  0
    3.7515    6.4806   30.6853 C   0  0  0  0  0  0  0  0  0  0  0  0
    3.0147    5.3180   30.0096 C   0  0  0  0  0  0  0  0  0  0  0  0
    3.4201    4.0037   30.6676 C   0  0  0  0  0  0  0  0  0  0  0  0
    2.2061    3.2797   31.1453 N   0  0  0  0  0  0  0  0  0  0  0  0
    2.1711    1.9688   31.1353 C   0  0  0  0  0  0  0  0  0  0  0  0
    3.2496    1.2765   31.4067 N   0  0  0  0  0  0  0  0  0  0  0  0
    1.0540    1.3490   30.8581 N   0  3  0  0  0  0  0  0  0  0  0  0
    4.3960    5.2169   33.5381 O   0  0  0  0  0  0  0  0  0  0  0  0
  2  1  1  6  0  0  0
  2  5  1  0  0  0  0
  2  3  1  0  0  0  0
  3  4  1  0  0  0  0
  3 12  2  0  0  0  0
  5  6  1  0  0  0  0
  6  7  1  0  0  0  0
  7  8  1  0  0  0  0
  8  9  1  0  0  0  0
  9 10  1  0  0  0  0
  9 11  2  0  0  0  0
M  CHG  3   1   1   4  -1  11   1
M  END
>  <CHROM.1>
51.42217714,-127.06257329,-25.86689055,-70.39656626,124.65196754,146.83587832
3.20702535,4.79517594,31.74085503,1.02921800,-0.93540330,-0.14645379

>  <Name>
1koc cryst

>  <RI>
0

>  <Rbt.Current_Directory>
/home/itssahil/PROJECTS/Mol_Feturizer/New_Systems/rnas/1koc

>  <Rbt.Executable>
rbdock ($Id: //depot/dev/client3/rdock/2013.1/src/exe/rbdock.cxx#4 $)

>  <Rbt.Library>
libRbt.so (2013.1, Build901 2013/11/27)

>  <Rbt.Parameter_File>
/export/apps/rDock/src/rDock_2013.1_src/data/scripts/dock_solv.prm

>  <Rbt.Receptor>
prm/pocket_docking_8.prm

>  <SCORE>
-22.166

>  <SCORE.INTER>
-24.2588

>  <SCORE.INTER.CONST>
1

>  <SCORE.INTER.POLAR>
-4.89591

>  <SCORE.INTER.ROT>
5

>  <SCORE.INTER.SOLV>
21.2508

>  <SCORE.INTER.VDW>
-13.8698

>  <SCORE.INTER.norm>
-2.02156

>  <SCORE.INTRA>
2.09281

>  <SCORE.INTRA.DIHEDRAL>
8.41694

>  <SCORE.INTRA.DIHEDRAL.0>
6.04201

>  <SCORE.INTRA.POLAR>
0

>  <SCORE.INTRA.POLAR.0>
0

>  <SCORE.INTRA.REPUL>
0

>  <SCORE.INTRA.REPUL.0>
0

>  <SCORE.INTRA.SOLV>
-0.050139

>  <SCORE.INTRA.SOLV.lig_0>
-71.0481

>  <SCORE.INTRA.VDW>
-2.09059

>  <SCORE.INTRA.VDW.0>
0.968882

>  <SCORE.INTRA.norm>
0.174401

>  <SCORE.RESTR>
0

>  <SCORE.RESTR.CAVITY>
0

>  <SCORE.RESTR.norm>
0

>  <SCORE.SYSTEM>
0

>  <SCORE.SYSTEM.CONST>
0

>  <SCORE.SYSTEM.DIHEDRAL>
0

>  <SCORE.SYSTEM.SOLV>
0

>  <SCORE.SYSTEM.norm>
0

>  <SCORE.heavy>
12

>  <SCORE.norm>
-1.84716

>  <SYMMETRIC_BONDS>
11 12 2
5 6 2

>  <RMSD>
1.630

$$$$
1koc cryst
 OpenBabel11021811393D
libRbt.so/2013.1/901 2013/11/27
 12 11  0  0  0  0  0  0  0  0999 V2000
    2.6928    7.0836   32.9271 N   0  3  0  0  0  0  0  0  0  0  0  0
    3.6541    5.9816   32.6200 C   0  0  2  0  0  0  0  0  0  0  0  0
    4.9876    6.5947   32.1496 C   0  0  0  0  0  0  0  0  0  0  0  0
    6.0232    6.0400   32.4856 O   0  5  0  0  0  0  0  0  0  0  0  0
    3.0469    5.0686   31.5211 C   0  0  0  0  0  0  0  0  0  0  0  0
    3.8770    3.7917   31.3441 C   0  0  0  0  0  0  0  0  0  0  0  0
    3.4472    3.0743   30.0691 C   0  0  0  0  0  0  0  0  0  0  0  0
    3.0267    1.6790   30.3891 N   0  0  0  0  0  0  0  0  0  0  0  0
    2.1086    1.4572   31.2989 C   0  0  0  0  0  0  0  0  0  0  0  0
    1.0968    2.2786   31.4312 N   0  0  0  0  0  0  0  0  0  0  0  0
    2.2000    0.4089   32.0745 N   0  3  0  0  0  0  0  0  0  0  0  0
    4.9528    7.6117   31.4729 O   0  0  0  0  0  0  0  0  0  0  0  0
  2  1  1  6  0  0  0
  2  5  1  0  0  0  0
  2  3  1  0  0  0  0
  3  4  1  0  0  0  0
  3 12  2  0  0  0  0
  5  6  1  0  0  0  0
  6  7  1  0  0  0  0
  7  8  1  0  0  0  0
  8  9  1  0  0  0  0
  9 10  1  0  0  0  0
  9 11  2  0  0  0  0
M  CHG  3   1   1   4  -1  11   1
M  END
>  <CHROM.1>
173.56014686,-170.06626176,143.43488738,-167.51319722,-123.37872681,54.23170937
3.40767987,4.27558257,31.66840606,1.14864704,0.31414609,0.31689749

>  <Name>
1koc cryst

>  <RI>
0

>  <Rbt.Current_Directory>
/home/itssahil/PROJECTS/Mol_Feturizer/New_Systems/rnas/1koc

>  <Rbt.Executable>
rbdock ($Id: //depot/dev/client3/rdock/2013.1/src/exe/rbdock.cxx#4 $)

>  <Rbt.Library>
libRbt.so (2013.1, Build901 2013/11/27)

>  <Rbt.Parameter_File>
/export/apps/rDock/src/rDock_2013.1_src/data/scripts/dock_solv.prm

>  <Rbt.Receptor>
prm/pocket_docking_2.prm

>  <SCORE>
-26.9549

>  <SCORE.INTER>
-26.789

>  <SCORE.INTER.CONST>
1

>  <SCORE.INTER.POLAR>
-4.92368

>  <SCORE.INTER.ROT>
5

>  <SCORE.INTER.SOLV>
22.5371

>  <SCORE.INTER.VDW>
-15.8928

>  <SCORE.INTER.norm>
-2.23242

>  <SCORE.INTRA>
-0.174022

>  <SCORE.INTRA.DIHEDRAL>
3.95987

>  <SCORE.INTRA.DIHEDRAL.0>
6.04201

>  <SCORE.INTRA.POLAR>
0

>  <SCORE.INTRA.POLAR.0>
0

>  <SCORE.INTRA.REPUL>
0

>  <SCORE.INTRA.REPUL.0>
0

>  <SCORE.INTRA.SOLV>
-0.352073

>  <SCORE.INTRA.SOLV.lig_0>
-71.0481

>  <SCORE.INTRA.VDW>
-1.97792

>  <SCORE.INTRA.VDW.0>
0.968882

>  <SCORE.INTRA.norm>
-0.0145018

>  <SCORE.RESTR>
0.00811684

>  <SCORE.RESTR.CAVITY>
0.00811684

>  <SCORE.RESTR.norm>
0.000676403

>  <SCORE.SYSTEM>
0

>  <SCORE.SYSTEM.CONST>
0

>  <SCORE.SYSTEM.DIHEDRAL>
0

>  <SCORE.SYSTEM.SOLV>
0

>  <SCORE.SYSTEM.norm>
0

>  <SCORE.heavy>
12

>  <SCORE.norm>
-2.24624

>  <SYMMETRIC_BONDS>
11 12 2
5 6 2

>  <RMSD>
1.632

$$$$
1koc cryst
 OpenBabel11021811393D
libRbt.so/2013.1/901 2013/11/27
 12 11  0  0  0  0  0  0  0  0999 V2000
    2.2348    8.1409   32.4617 N   0  3  0  0  0  0  0  0  0  0  0  0
    2.7169    6.7360   32.6253 C   0  0  2  0  0  0  0  0  0  0  0  0
    4.2097    6.7585   33.0080 C   0  0  0  0  0  0  0  0  0  0  0  0
    4.9651    7.4371   32.3283 O   0  5  0  0  0  0  0  0  0  0  0  0
    2.4984    5.9653   31.2955 C   0  0  0  0  0  0  0  0  0  0  0  0
    2.9387    4.5025   31.4270 C   0  0  0  0  0  0  0  0  0  0  0  0
    2.7798    3.7975   30.0843 C   0  0  0  0  0  0  0  0  0  0  0  0
    2.6702    2.3244   30.2946 N   0  0  0  0  0  0  0  0  0  0  0  0
    1.8235    1.8430   31.1727 C   0  0  0  0  0  0  0  0  0  0  0  0
    0.6590    2.4156   31.3513 N   0  0  0  0  0  0  0  0  0  0  0  0
    2.1402    0.7836   31.8701 N   0  3  0  0  0  0  0  0  0  0  0  0
    4.5745    6.0904   33.9639 O   0  0  0  0  0  0  0  0  0  0  0  0
  2  1  1  6  0  0  0
  2  5  1  0  0  0  0
  2  3  1  0  0  0  0
  3  4  1  0  0  0  0
  3 12  2  0  0  0  0
  5  6  1  0  0  0  0
  6  7  1  0  0  0  0
  7  8  1  0  0  0  0
  8  9  1  0  0  0  0
  9 10  1  0  0  0  0
  9 11  2  0  0  0  0
M  CHG  3   1   1   4  -1  11   1
M  END
>  <CHROM.1>
-27.32325797,-178.23551963,-50.03494410,-176.99709260,-157.55341921,49.81041038
2.84404301,4.75029574,31.84030286,1.20045120,-0.54850351,0.09607971

>  <Name>
1koc cryst

>  <RI>
0

>  <Rbt.Current_Directory>
/home/itssahil/PROJECTS/Mol_Feturizer/New_Systems/rnas/1koc

>  <Rbt.Executable>
rbdock ($Id: //depot/dev/client3/rdock/2013.1/src/exe/rbdock.cxx#4 $)

>  <Rbt.Library>
libRbt.so (2013.1, Build901 2013/11/27)

>  <Rbt.Parameter_File>
/export/apps/rDock/src/rDock_2013.1_src/data/scripts/dock_solv.prm

>  <Rbt.Receptor>
prm/pocket_docking_8.prm

>  <SCORE>
-39.3651

>  <SCORE.INTER>
-38.4802

>  <SCORE.INTER.CONST>
1

>  <SCORE.INTER.POLAR>
-6.59353

>  <SCORE.INTER.ROT>
5

>  <SCORE.INTER.SOLV>
25.8868

>  <SCORE.INTER.VDW>
-19.2373

>  <SCORE.INTER.norm>
-3.20669

>  <SCORE.INTRA>
-0.884851

>  <SCORE.INTRA.DIHEDRAL>
1.19542

>  <SCORE.INTRA.DIHEDRAL.0>
6.04201

>  <SCORE.INTRA.POLAR>
0

>  <SCORE.INTRA.POLAR.0>
0

>  <SCORE.INTRA.REPUL>
0

>  <SCORE.INTRA.REPUL.0>
0

>  <SCORE.INTRA.SOLV>
-0.82074

>  <SCORE.INTRA.SOLV.lig_0>
-71.0481

>  <SCORE.INTRA.VDW>
-1.07219

>  <SCORE.INTRA.VDW.0>
0.968882

>  <SCORE.INTRA.norm>
-0.0737375

>  <SCORE.RESTR>
0

>  <SCORE.RESTR.CAVITY>
0

>  <SCORE.RESTR.norm>
0

>  <SCORE.SYSTEM>
0

>  <SCORE.SYSTEM.CONST>
0

>  <SCORE.SYSTEM.DIHEDRAL>
0

>  <SCORE.SYSTEM.SOLV>
0

>  <SCORE.SYSTEM.norm>
0

>  <SCORE.heavy>
12

>  <SCORE.norm>
-3.28042

>  <SYMMETRIC_BONDS>
11 12 2
5 6 2

>  <RMSD>
1.633

$$$$
1koc cryst
 OpenBabel11021811393D
libRbt.so/2013.1/901 2013/11/27
 12 11  0  0  0  0  0  0  0  0999 V2000
    3.8723    8.0697   31.2848 N   0  3  0  0  0  0  0  0  0  0  0  0
    3.3556    6.8673   32.0059 C   0  0  2  0  0  0  0  0  0  0  0  0
    3.5918    7.0483   33.5181 C   0  0  0  0  0  0  0  0  0  0  0  0
    4.7213    6.8664   33.9472 O   0  5  0  0  0  0  0  0  0  0  0  0
    4.0886    5.6043   31.4789 C   0  0  0  0  0  0  0  0  0  0  0  0
    3.5753    5.2080   30.0895 C   0  0  0  0  0  0  0  0  0  0  0  0
    2.3673    4.2887   30.2332 C   0  0  0  0  0  0  0  0  0  0  0  0
    2.8032    2.8634   30.1628 N   0  0  0  0  0  0  0  0  0  0  0  0
    2.3635    1.9934   31.0399 C   0  0  0  0  0  0  0  0  0  0  0  0
    1.1362    2.0717   31.4909 N   0  0  0  0  0  0  0  0  0  0  0  0
    3.1515    1.0399   31.4630 N   0  3  0  0  0  0  0  0  0  0  0  0
    2.6408    7.3536   34.2222 O   0  0  0  0  0  0  0  0  0  0  0  0
  2  1  1  6  0  0  0
  2  5  1  0  0  0  0
  2  3  1  0  0  0  0
  3  4  1  0  0  0  0
  3 12  2  0  0  0  0
  5  6  1  0  0  0  0
  6  7  1  0  0  0  0
  7  8  1  0  0  0  0
  8  9  1  0  0  0  0
  9 10  1  0  0  0  0
  9 11  2  0  0  0  0
M  CHG  3   1   1   4  -1  11   1
M  END
>  <CHROM.1>
132.09981588,-74.78244943,-77.32813300,-87.63260000,-95.03113091,133.32348152
3.14525232,4.95096935,31.75769983,-0.65950562,-1.27265809,-1.88968161

>  <Name>
1koc cryst

>  <RI>
0

>  <Rbt.Current_Directory>
/home/itssahil/PROJECTS/Mol_Feturizer/New_Systems/rnas/1koc

>  <Rbt.Executable>
rbdock ($Id: //depot/dev/client3/rdock/2013.1/src/exe/rbdock.cxx#4 $)

>  <Rbt.Library>
libRbt.so (2013.1, Build901 2013/11/27)

>  <Rbt.Parameter_File>
/export/apps/rDock/src/rDock_2013.1_src/data/scripts/dock_solv.prm

>  <Rbt.Receptor>
prm/pocket_docking_5.prm

>  <SCORE>
-24.4642

>  <SCORE.INTER>
-26.4847

>  <SCORE.INTER.CONST>
1

>  <SCORE.INTER.POLAR>
-5.09714

>  <SCORE.INTER.ROT>
5

>  <SCORE.INTER.SOLV>
23.8955

>  <SCORE.INTER.VDW>
-15.5645

>  <SCORE.INTER.norm>
-2.20706

>  <SCORE.INTRA>
2.02046

>  <SCORE.INTRA.DIHEDRAL>
7.54858

>  <SCORE.INTRA.DIHEDRAL.0>
6.04201

>  <SCORE.INTRA.POLAR>
0

>  <SCORE.INTRA.POLAR.0>
0

>  <SCORE.INTRA.REPUL>
0

>  <SCORE.INTRA.REPUL.0>
0

>  <SCORE.INTRA.SOLV>
-1.22913

>  <SCORE.INTRA.SOLV.lig_0>
-71.0481

>  <SCORE.INTRA.VDW>
-1.13926

>  <SCORE.INTRA.VDW.0>
0.968882

>  <SCORE.INTRA.norm>
0.168372

>  <SCORE.RESTR>
0

>  <SCORE.RESTR.CAVITY>
0

>  <SCORE.RESTR.norm>
0

>  <SCORE.SYSTEM>
0

>  <SCORE.SYSTEM.CONST>
0

>  <SCORE.SYSTEM.DIHEDRAL>
0

>  <SCORE.SYSTEM.SOLV>
0

>  <SCORE.SYSTEM.norm>
0

>  <SCORE.heavy>
12

>  <SCORE.norm>
-2.03869

>  <SYMMETRIC_BONDS>
11 12 2
5 6 2

>  <RMSD>
1.634

$$$$
1koc cryst
 OpenBabel11021811393D
libRbt.so/2013.1/901 2013/11/27
 12 11  0  0  0  0  0  0  0  0999 V2000
    2.3953    8.6499   32.5247 N   0  3  0  0  0  0  0  0  0  0  0  0
    2.8584    7.2322   32.6172 C   0  0  2  0  0  0  0  0  0  0  0  0
    4.3964    7.1988   32.5226 C   0  0  0  0  0  0  0  0  0  0  0  0
    5.0074    6.5454   33.3550 O   0  5  0  0  0  0  0  0  0  0  0  0
    2.2156    6.4111   31.4671 C   0  0  0  0  0  0  0  0  0  0  0  0
    2.8165    5.0025   31.3922 C   0  0  0  0  0  0  0  0  0  0  0  0
    2.2577    4.2716   30.1763 C   0  0  0  0  0  0  0  0  0  0  0  0
    2.7528    2.8641   30.1586 N   0  0  0  0  0  0  0  0  0  0  0  0
    2.3134    1.9974   31.0392 C   0  0  0  0  0  0  0  0  0  0  0  0
    1.0667    2.0359   31.4396 N   0  0  0  0  0  0  0  0  0  0  0  0
    3.1212    1.0872   31.5165 N   0  3  0  0  0  0  0  0  0  0  0  0
    4.9375    7.8338   31.6297 O   0  0  0  0  0  0  0  0  0  0  0  0
  2  1  1  6  0  0  0
  2  5  1  0  0  0  0
  2  3  1  0  0  0  0
  3  4  1  0  0  0  0
  3 12  2  0  0  0  0
  5  6  1  0  0  0  0
  6  7  1  0  0  0  0
  7  8  1  0  0  0  0
  8  9  1  0  0  0  0
  9 10  1  0  0  0  0
  9 11  2  0  0  0  0
M  CHG  3   1   1   4  -1  11   1
M  END
>  <CHROM.1>
73.69651392,171.64402139,131.34615140,-174.79016452,-175.45836134,70.77635677
3.01582176,5.10839700,31.66579843,1.31096412,-0.31479674,0.15878923

>  <Name>
1koc cryst

>  <RI>
0

>  <Rbt.Current_Directory>
/home/itssahil/PROJECTS/Mol_Feturizer/New_Systems/rnas/1koc

>  <Rbt.Executable>
rbdock ($Id: //depot/dev/client3/rdock/2013.1/src/exe/rbdock.cxx#4 $)

>  <Rbt.Library>
libRbt.so (2013.1, Build901 2013/11/27)

>  <Rbt.Parameter_File>
/export/apps/rDock/src/rDock_2013.1_src/data/scripts/dock_solv.prm

>  <Rbt.Receptor>
prm/pocket_docking_3.prm

>  <SCORE>
-39.4948

>  <SCORE.INTER>
-36.5066

>  <SCORE.INTER.CONST>
1

>  <SCORE.INTER.POLAR>
-6.42592

>  <SCORE.INTER.ROT>
5

>  <SCORE.INTER.SOLV>
23.3796

>  <SCORE.INTER.VDW>
-17.6446

>  <SCORE.INTER.norm>
-3.04222

>  <SCORE.INTRA>
-3.00008

>  <SCORE.INTRA.DIHEDRAL>
-1.72288

>  <SCORE.INTRA.DIHEDRAL.0>
6.04201

>  <SCORE.INTRA.POLAR>
0

>  <SCORE.INTRA.POLAR.0>
0

>  <SCORE.INTRA.REPUL>
0

>  <SCORE.INTRA.REPUL.0>
0

>  <SCORE.INTRA.SOLV>
-0.99523

>  <SCORE.INTRA.SOLV.lig_0>
-71.0481

>  <SCORE.INTRA.VDW>
-1.64102

>  <SCORE.INTRA.VDW.0>
0.968882

>  <SCORE.INTRA.norm>
-0.250006

>  <SCORE.RESTR>
0.0119295

>  <SCORE.RESTR.CAVITY>
0.0119295

>  <SCORE.RESTR.norm>
0.000994129

>  <SCORE.SYSTEM>
0

>  <SCORE.SYSTEM.CONST>
0

>  <SCORE.SYSTEM.DIHEDRAL>
0

>  <SCORE.SYSTEM.SOLV>
0

>  <SCORE.SYSTEM.norm>
0

>  <SCORE.heavy>
12

>  <SCORE.norm>
-3.29123

>  <SYMMETRIC_BONDS>
11 12 2
5 6 2

>  <RMSD>
1.639

$$$$
1koc cryst
 OpenBabel11021811393D
libRbt.so/2013.1/901 2013/11/27
 12 11  0  0  0  0  0  0  0  0999 V2000
    3.2465    7.0962   33.1784 N   0  3  0  0  0  0  0  0  0  0  0  0
    3.9503    5.7901   33.0007 C   0  0  2  0  0  0  0  0  0  0  0  0
    5.4718    6.0253   33.0722 C   0  0  0  0  0  0  0  0  0  0  0  0
    6.1356    5.2728   33.7694 O   0  5  0  0  0  0  0  0  0  0  0  0
    3.5490    5.1782   31.6315 C   0  0  0  0  0  0  0  0  0  0  0  0
    3.9975    3.7157   31.5281 C   0  0  0  0  0  0  0  0  0  0  0  0
    3.4927    3.1168   30.2199 C   0  0  0  0  0  0  0  0  0  0  0  0
    3.0660    1.7041   30.4399 N   0  0  0  0  0  0  0  0  0  0  0  0
    2.1049    1.4280   31.2884 C   0  0  0  0  0  0  0  0  0  0  0  0
    1.0823    2.2368   31.4150 N   0  0  0  0  0  0  0  0  0  0  0  0
    2.1643    0.3383   32.0080 N   0  3  0  0  0  0  0  0  0  0  0  0
    5.9459    6.9575   32.4402 O   0  0  0  0  0  0  0  0  0  0  0  0
  2  1  1  6  0  0  0
  2  5  1  0  0  0  0
  2  3  1  0  0  0  0
  3  4  1  0  0  0  0
  3 12  2  0  0  0  0
  5  6  1  0  0  0  0
  6  7  1  0  0  0  0
  7  8  1  0  0  0  0
  8  9  1  0  0  0  0
  9 10  1  0  0  0  0
  9 11  2  0  0  0  0
M  CHG  3   1   1   4  -1  11   1
M  END
>  <CHROM.1>
-62.97263836,-167.82080108,133.37805081,175.59829556,-141.72353663,60.38960614
3.67063089,4.09044540,32.02075049,1.07196793,-0.09605614,0.29369768

>  <Name>
1koc cryst

>  <RI>
0

>  <Rbt.Current_Directory>
/home/itssahil/PROJECTS/Mol_Feturizer/New_Systems/rnas/1koc

>  <Rbt.Executable>
rbdock ($Id: //depot/dev/client3/rdock/2013.1/src/exe/rbdock.cxx#4 $)

>  <Rbt.Library>
libRbt.so (2013.1, Build901 2013/11/27)

>  <Rbt.Parameter_File>
/export/apps/rDock/src/rDock_2013.1_src/data/scripts/dock_solv.prm

>  <Rbt.Receptor>
prm/pocket_docking_3.prm

>  <SCORE>
-28.1417

>  <SCORE.INTER>
-26.5596

>  <SCORE.INTER.CONST>
1

>  <SCORE.INTER.POLAR>
-4.75269

>  <SCORE.INTER.ROT>
5

>  <SCORE.INTER.SOLV>
22.0602

>  <SCORE.INTER.VDW>
-16.1508

>  <SCORE.INTER.norm>
-2.2133

>  <SCORE.INTRA>
-1.58212

>  <SCORE.INTRA.DIHEDRAL>
1.93247

>  <SCORE.INTRA.DIHEDRAL.0>
6.04201

>  <SCORE.INTRA.POLAR>
0

>  <SCORE.INTRA.POLAR.0>
0

>  <SCORE.INTRA.REPUL>
0

>  <SCORE.INTRA.REPUL.0>
0

>  <SCORE.INTRA.SOLV>
-0.831008

>  <SCORE.INTRA.SOLV.lig_0>
-71.0481

>  <SCORE.INTRA.VDW>
-2.13285

>  <SCORE.INTRA.VDW.0>
0.968882

>  <SCORE.INTRA.norm>
-0.131843

>  <SCORE.RESTR>
0

>  <SCORE.RESTR.CAVITY>
0

>  <SCORE.RESTR.norm>
0

>  <SCORE.SYSTEM>
0

>  <SCORE.SYSTEM.CONST>
0

>  <SCORE.SYSTEM.DIHEDRAL>
0

>  <SCORE.SYSTEM.SOLV>
0

>  <SCORE.SYSTEM.norm>
0

>  <SCORE.heavy>
12

>  <SCORE.norm>
-2.34514

>  <SYMMETRIC_BONDS>
11 12 2
5 6 2

>  <RMSD>
1.658

$$$$
1koc cryst
 OpenBabel11021811393D
libRbt.so/2013.1/901 2013/11/27
 12 11  0  0  0  0  0  0  0  0999 V2000
    2.2170    8.5826   32.5520 N   0  3  0  0  0  0  0  0  0  0  0  0
    2.7585    7.1910   32.6068 C   0  0  2  0  0  0  0  0  0  0  0  0
    4.2963    7.2532   32.6898 C   0  0  0  0  0  0  0  0  0  0  0  0
    4.8526    6.5658   33.5331 O   0  5  0  0  0  0  0  0  0  0  0  0
    2.3038    6.4180   31.3395 C   0  0  0  0  0  0  0  0  0  0  0  0
    2.8172    4.9735   31.3607 C   0  0  0  0  0  0  0  0  0  0  0  0
    2.2641    4.2161   30.1585 C   0  0  0  0  0  0  0  0  0  0  0  0
    2.7741    2.8138   30.1637 N   0  0  0  0  0  0  0  0  0  0  0  0
    2.3465    1.9580   31.0606 C   0  0  0  0  0  0  0  0  0  0  0  0
    1.1006    1.9902   31.4640 N   0  0  0  0  0  0  0  0  0  0  0  0
    3.1653    1.0649   31.5512 N   0  3  0  0  0  0  0  0  0  0  0  0
    4.8903    7.9927   31.9194 O   0  0  0  0  0  0  0  0  0  0  0  0
  2  1  1  6  0  0  0
  2  5  1  0  0  0  0
  2  3  1  0  0  0  0
  3  4  1  0  0  0  0
  3 12  2  0  0  0  0
  5  6  1  0  0  0  0
  6  7  1  0  0  0  0
  7  8  1  0  0  0  0
  8  9  1  0  0  0  0
  9 10  1  0  0  0  0
  9 11  2  0  0  0  0
M  CHG  3   1   1   4  -1  11   1
M  END
>  <CHROM.1>
79.51480607,-179.07792104,132.24012558,175.68126288,179.28492568,70.71000618
2.98437583,5.09937751,31.71524730,1.32516441,-0.40918243,0.15619947

>  <Name>
1koc cryst

>  <RI>
0

>  <Rbt.Current_Directory>
/home/itssahil/PROJECTS/Mol_Feturizer/New_Systems/rnas/1koc

>  <Rbt.Executable>
rbdock ($Id: //depot/dev/client3/rdock/2013.1/src/exe/rbdock.cxx#4 $)

>  <Rbt.Library>
libRbt.so (2013.1, Build901 2013/11/27)

>  <Rbt.Parameter_File>
/export/apps/rDock/src/rDock_2013.1_src/data/scripts/dock_solv.prm

>  <Rbt.Receptor>
prm/pocket_docking_5.prm

>  <SCORE>
-39.2924

>  <SCORE.INTER>
-36.0859

>  <SCORE.INTER.CONST>
1

>  <SCORE.INTER.POLAR>
-6.50094

>  <SCORE.INTER.ROT>
5

>  <SCORE.INTER.SOLV>
24.4256

>  <SCORE.INTER.VDW>
-17.4627

>  <SCORE.INTER.norm>
-3.00716

>  <SCORE.INTRA>
-3.20653

>  <SCORE.INTRA.DIHEDRAL>
-1.65473

>  <SCORE.INTRA.DIHEDRAL.0>
6.04201

>  <SCORE.INTRA.POLAR>
0

>  <SCORE.INTRA.POLAR.0>
0

>  <SCORE.INTRA.REPUL>
0

>  <SCORE.INTRA.REPUL.0>
0

>  <SCORE.INTRA.SOLV>
-1.18642

>  <SCORE.INTRA.SOLV.lig_0>
-71.0481

>  <SCORE.INTRA.VDW>
-1.78596

>  <SCORE.INTRA.VDW.0>
0.968882

>  <SCORE.INTRA.norm>
-0.267211

>  <SCORE.RESTR>
0

>  <SCORE.RESTR.CAVITY>
0

>  <SCORE.RESTR.norm>
0

>  <SCORE.SYSTEM>
0

>  <SCORE.SYSTEM.CONST>
0

>  <SCORE.SYSTEM.DIHEDRAL>
0

>  <SCORE.SYSTEM.SOLV>
0

>  <SCORE.SYSTEM.norm>
0

>  <SCORE.heavy>
12

>  <SCORE.norm>
-3.27437

>  <SYMMETRIC_BONDS>
11 12 2
5 6 2

>  <RMSD>
1.660

$$$$
1koc cryst
 OpenBabel11021811393D
libRbt.so/2013.1/901 2013/11/27
 12 11  0  0  0  0  0  0  0  0999 V2000
    4.1001    7.3900   28.6375 N   0  3  0  0  0  0  0  0  0  0  0  0
    3.4940    6.4174   29.5964 C   0  0  2  0  0  0  0  0  0  0  0  0
    3.7207    6.9225   31.0349 C   0  0  0  0  0  0  0  0  0  0  0  0
    4.8452    7.2879   31.3430 O   0  5  0  0  0  0  0  0  0  0  0  0
    4.1480    5.0247   29.3897 C   0  0  0  0  0  0  0  0  0  0  0  0
    3.1935    3.8997   29.8068 C   0  0  0  0  0  0  0  0  0  0  0  0
    3.9427    2.8835   30.6618 C   0  0  0  0  0  0  0  0  0  0  0  0
    3.2442    1.5659   30.6128 N   0  0  0  0  0  0  0  0  0  0  0  0
    2.1969    1.3441   31.3702 C   0  0  0  0  0  0  0  0  0  0  0  0
    1.3393    2.3047   31.6106 N   0  0  0  0  0  0  0  0  0  0  0  0
    2.0043    0.1577   31.8843 N   0  3  0  0  0  0  0  0  0  0  0  0
    2.7726    6.9252   31.8058 O   0  0  0  0  0  0  0  0  0  0  0  0
  2  1  1  6  0  0  0
  2  5  1  0  0  0  0
  2  3  1  0  0  0  0
  3  4  1  0  0  0  0
  3 12  2  0  0  0  0
  5  6  1  0  0  0  0
  6  7  1  0  0  0  0
  7  8  1  0  0  0  0
  8  9  1  0  0  0  0
  9 10  1  0  0  0  0
  9 11  2  0  0  0  0
M  CHG  3   1   1   4  -1  11   1
M  END
>  <CHROM.1>
95.58719473,-153.19472351,-47.99237163,-133.90099467,-157.14680139,-80.98563324
3.24614836,4.36309942,30.64691059,-0.98668376,-1.05063082,-2.81940960

>  <Name>
1koc cryst

>  <RI>
0

>  <Rbt.Current_Directory>
/home/itssahil/PROJECTS/Mol_Feturizer/New_Systems/rnas/1koc

>  <Rbt.Executable>
rbdock ($Id: //depot/dev/client3/rdock/2013.1/src/exe/rbdock.cxx#4 $)

>  <Rbt.Library>
libRbt.so (2013.1, Build901 2013/11/27)

>  <Rbt.Parameter_File>
/export/apps/rDock/src/rDock_2013.1_src/data/scripts/dock_solv.prm

>  <Rbt.Receptor>
prm/pocket_docking_2.prm

>  <SCORE>
-22.7789

>  <SCORE.INTER>
-27.225

>  <SCORE.INTER.CONST>
1

>  <SCORE.INTER.POLAR>
-5.66779

>  <SCORE.INTER.ROT>
5

>  <SCORE.INTER.SOLV>
26.1461

>  <SCORE.INTER.VDW>
-14.9061

>  <SCORE.INTER.norm>
-2.26875

>  <SCORE.INTRA>
3.8652

>  <SCORE.INTRA.DIHEDRAL>
8.95488

>  <SCORE.INTRA.DIHEDRAL.0>
6.04201

>  <SCORE.INTRA.POLAR>
0

>  <SCORE.INTRA.POLAR.0>
0

>  <SCORE.INTRA.REPUL>
0

>  <SCORE.INTRA.REPUL.0>
0

>  <SCORE.INTRA.SOLV>
-0.682942

>  <SCORE.INTRA.SOLV.lig_0>
-71.0481

>  <SCORE.INTRA.VDW>
-0.270774

>  <SCORE.INTRA.VDW.0>
0.968882

>  <SCORE.INTRA.norm>
0.3221

>  <SCORE.RESTR>
0.580942

>  <SCORE.RESTR.CAVITY>
0.580942

>  <SCORE.RESTR.norm>
0.0484118

>  <SCORE.SYSTEM>
0

>  <SCORE.SYSTEM.CONST>
0

>  <SCORE.SYSTEM.DIHEDRAL>
0

>  <SCORE.SYSTEM.SOLV>
0

>  <SCORE.SYSTEM.norm>
0

>  <SCORE.heavy>
12

>  <SCORE.norm>
-1.89824

>  <SYMMETRIC_BONDS>
11 12 2
5 6 2

>  <RMSD>
1.667

$$$$
1koc cryst
 OpenBabel11021811393D
libRbt.so/2013.1/901 2013/11/27
 12 11  0  0  0  0  0  0  0  0999 V2000
    5.0823    7.1528   29.5448 N   0  3  0  0  0  0  0  0  0  0  0  0
    3.9348    6.7807   30.4267 C   0  0  2  0  0  0  0  0  0  0  0  0
    4.4581    6.5344   31.8553 C   0  0  0  0  0  0  0  0  0  0  0  0
    5.5546    6.0101   31.9811 O   0  5  0  0  0  0  0  0  0  0  0  0
    3.2508    5.5070   29.8610 C   0  0  0  0  0  0  0  0  0  0  0  0
    1.9109    5.2444   30.5585 C   0  0  0  0  0  0  0  0  0  0  0  0
    1.3704    3.8836   30.1331 C   0  0  0  0  0  0  0  0  0  0  0  0
    1.5049    2.9105   31.2563 N   0  0  0  0  0  0  0  0  0  0  0  0
    2.3375    1.9018   31.1611 C   0  0  0  0  0  0  0  0  0  0  0  0
    3.4847    2.0471   30.5456 N   0  0  0  0  0  0  0  0  0  0  0  0
    2.0242    0.7468   31.6872 N   0  3  0  0  0  0  0  0  0  0  0  0
    3.7521    6.8623   32.7972 O   0  0  0  0  0  0  0  0  0  0  0  0
  2  1  1  6  0  0  0
  2  5  1  0  0  0  0
  2  3  1  0  0  0  0
  3  4  1  0  0  0  0
  3 12  2  0  0  0  0
  5  6  1  0  0  0  0
  6  7  1  0  0  0  0
  7  8  1  0  0  0  0
  8  9  1  0  0  0  0
  9 10  1  0  0  0  0
  9 11  2  0  0  0  0
M  CHG  3   1   1   4  -1  11   1
M  END
>  <CHROM.1>
-177.86488289,-168.66861522,-36.14590312,-171.51376454,107.14964207,-112.45990034
3.26282616,4.62704788,30.98752629,0.91387241,-0.73649537,-0.49534226

>  <Name>
1koc cryst

>  <RI>
0

>  <Rbt.Current_Directory>
/home/itssahil/PROJECTS/Mol_Feturizer/New_Systems/rnas/1koc

>  <Rbt.Executable>
rbdock ($Id: //depot/dev/client3/rdock/2013.1/src/exe/rbdock.cxx#4 $)

>  <Rbt.Library>
libRbt.so (2013.1, Build901 2013/11/27)

>  <Rbt.Parameter_File>
/export/apps/rDock/src/rDock_2013.1_src/data/scripts/dock_solv.prm

>  <Rbt.Receptor>
prm/pocket_docking_2.prm

>  <SCORE>
-28.6099

>  <SCORE.INTER>
-27.5309

>  <SCORE.INTER.CONST>
1

>  <SCORE.INTER.POLAR>
-5.17096

>  <SCORE.INTER.ROT>
5

>  <SCORE.INTER.SOLV>
16.2182

>  <SCORE.INTER.VDW>
-13.4568

>  <SCORE.INTER.norm>
-2.29424

>  <SCORE.INTRA>
-1.07905

>  <SCORE.INTRA.DIHEDRAL>
3.06107

>  <SCORE.INTRA.DIHEDRAL.0>
6.04201

>  <SCORE.INTRA.POLAR>
0

>  <SCORE.INTRA.POLAR.0>
0

>  <SCORE.INTRA.REPUL>
0

>  <SCORE.INTRA.REPUL.0>
0

>  <SCORE.INTRA.SOLV>
-0.41554

>  <SCORE.INTRA.SOLV.lig_0>
-71.0481

>  <SCORE.INTRA.VDW>
-2.40181

>  <SCORE.INTRA.VDW.0>
0.968882

>  <SCORE.INTRA.norm>
-0.0899209

>  <SCORE.RESTR>
0

>  <SCORE.RESTR.CAVITY>
0

>  <SCORE.RESTR.norm>
0

>  <SCORE.SYSTEM>
0

>  <SCORE.SYSTEM.CONST>
0

>  <SCORE.SYSTEM.DIHEDRAL>
0

>  <SCORE.SYSTEM.SOLV>
0

>  <SCORE.SYSTEM.norm>
0

>  <SCORE.heavy>
12

>  <SCORE.norm>
-2.38416

>  <SYMMETRIC_BONDS>
11 12 2
5 6 2

>  <RMSD>
1.667

$$$$
1koc cryst
 OpenBabel11021811393D
libRbt.so/2013.1/901 2013/11/27
 12 11  0  0  0  0  0  0  0  0999 V2000
    4.1857    8.3764   31.0700 N   0  3  0  0  0  0  0  0  0  0  0  0
    3.2313    7.3859   31.6541 C   0  0  2  0  0  0  0  0  0  0  0  0
    3.6829    7.0370   33.0858 C   0  0  0  0  0  0  0  0  0  0  0  0
    2.8190    6.8568   33.9309 O   0  5  0  0  0  0  0  0  0  0  0  0
    3.2029    6.1180   30.7586 C   0  0  0  0  0  0  0  0  0  0  0  0
    1.8739    5.3678   30.9067 C   0  0  0  0  0  0  0  0  0  0  0  0
    1.9361    4.0581   30.1286 C   0  0  0  0  0  0  0  0  0  0  0  0
    1.7199    2.9075   31.0536 N   0  0  0  0  0  0  0  0  0  0  0  0
    2.5945    1.9321   31.1115 C   0  0  0  0  0  0  0  0  0  0  0  0
    3.8744    2.1836   30.9900 N   0  0  0  0  0  0  0  0  0  0  0  0
    2.1887    0.7033   31.2962 N   0  3  0  0  0  0  0  0  0  0  0  0
    4.8809    6.9670   33.3162 O   0  0  0  0  0  0  0  0  0  0  0  0
  2  1  1  6  0  0  0
  2  5  1  0  0  0  0
  2  3  1  0  0  0  0
  3  4  1  0  0  0  0
  3 12  2  0  0  0  0
  5  6  1  0  0  0  0
  6  7  1  0  0  0  0
  7  8  1  0  0  0  0
  8  9  1  0  0  0  0
  9 10  1  0  0  0  0
  9 11  2  0  0  0  0
M  CHG  3   1   1   4  -1  11   1
M  END
>  <CHROM.1>
-162.76058907,-154.81842373,142.98860923,-174.18990489,120.42555877,-125.54589677
3.04665137,4.99708226,31.62069546,0.98572969,-1.13083445,-0.30127452

>  <Name>
1koc cryst

>  <RI>
0

>  <Rbt.Current_Directory>
/home/itssahil/PROJECTS/Mol_Feturizer/New_Systems/rnas/1koc

>  <Rbt.Executable>
rbdock ($Id: //depot/dev/client3/rdock/2013.1/src/exe/rbdock.cxx#4 $)

>  <Rbt.Library>
libRbt.so (2013.1, Build901 2013/11/27)

>  <Rbt.Parameter_File>
/export/apps/rDock/src/rDock_2013.1_src/data/scripts/dock_solv.prm

>  <Rbt.Receptor>
prm/pocket_docking_2.prm

>  <SCORE>
-32.4439

>  <SCORE.INTER>
-33.068

>  <SCORE.INTER.CONST>
1

>  <SCORE.INTER.POLAR>
-5.92165

>  <SCORE.INTER.ROT>
5

>  <SCORE.INTER.SOLV>
20.9824

>  <SCORE.INTER.VDW>
-16.234

>  <SCORE.INTER.norm>
-2.75567

>  <SCORE.INTRA>
0.0124639

>  <SCORE.INTRA.DIHEDRAL>
5.67777

>  <SCORE.INTRA.DIHEDRAL.0>
6.04201

>  <SCORE.INTRA.POLAR>
0

>  <SCORE.INTRA.POLAR.0>
0

>  <SCORE.INTRA.REPUL>
0

>  <SCORE.INTRA.REPUL.0>
0

>  <SCORE.INTRA.SOLV>
-1.02967

>  <SCORE.INTRA.SOLV.lig_0>
-71.0481

>  <SCORE.INTRA.VDW>
-2.31159

>  <SCORE.INTRA.VDW.0>
0.968882

>  <SCORE.INTRA.norm>
0.00103866

>  <SCORE.RESTR>
0.611617

>  <SCORE.RESTR.CAVITY>
0.611617

>  <SCORE.RESTR.norm>
0.0509681

>  <SCORE.SYSTEM>
0

>  <SCORE.SYSTEM.CONST>
0

>  <SCORE.SYSTEM.DIHEDRAL>
0

>  <SCORE.SYSTEM.SOLV>
0

>  <SCORE.SYSTEM.norm>
0

>  <SCORE.heavy>
12

>  <SCORE.norm>
-2.70366

>  <SYMMETRIC_BONDS>
11 12 2
5 6 2

>  <RMSD>
1.668

$$$$
1koc cryst
 OpenBabel11021811393D
libRbt.so/2013.1/901 2013/11/27
 12 11  0  0  0  0  0  0  0  0999 V2000
    4.4037    7.4717   30.2660 N   0  3  0  0  0  0  0  0  0  0  0  0
    3.7421    6.1889   30.6527 C   0  0  2  0  0  0  0  0  0  0  0  0
    2.7965    6.4496   31.8415 C   0  0  0  0  0  0  0  0  0  0  0  0
    3.2583    6.9979   32.8311 O   0  5  0  0  0  0  0  0  0  0  0  0
    4.8309    5.1485   31.0299 C   0  0  0  0  0  0  0  0  0  0  0  0
    4.1985    3.8221   31.4675 C   0  0  0  0  0  0  0  0  0  0  0  0
    3.7029    3.0624   30.2419 C   0  0  0  0  0  0  0  0  0  0  0  0
    3.3027    1.6785   30.6303 N   0  0  0  0  0  0  0  0  0  0  0  0
    2.1679    1.4684   31.2530 C   0  0  0  0  0  0  0  0  0  0  0  0
    1.1096    2.1817   30.9574 N   0  0  0  0  0  0  0  0  0  0  0  0
    2.0900    0.5397   32.1697 N   0  3  0  0  0  0  0  0  0  0  0  0
    1.6329    6.0882   31.7485 O   0  0  0  0  0  0  0  0  0  0  0  0
  2  1  1  1  0  0  0
  2  5  1  0  0  0  0
  2  3  1  0  0  0  0
  3  4  1  0  0  0  0
  3 12  2  0  0  0  0
  5  6  1  0  0  0  0
  6  7  1  0  0  0  0
  7  8  1  0  0  0  0
  8  9  1  0  0  0  0
  9 10  1  0  0  0  0
  9 11  2  0  0  0  0
M  CHG  3   1   1   4  -1  11   1
M  END
>  <CHROM.1>
-50.52397821,178.63652744,-53.57791642,76.16726831,170.30219568,76.31774721
3.08888477,4.27957383,31.26397644,-1.29467845,-0.48940797,-3.00473797

>  <Name>
1koc cryst

>  <RI>
0

>  <Rbt.Current_Directory>
/home/itssahil/PROJECTS/Mol_Feturizer/New_Systems/rnas/1koc

>  <Rbt.Executable>
rbdock ($Id: //depot/dev/client3/rdock/2013.1/src/exe/rbdock.cxx#4 $)

>  <Rbt.Library>
libRbt.so (2013.1, Build901 2013/11/27)

>  <Rbt.Parameter_File>
/export/apps/rDock/src/rDock_2013.1_src/data/scripts/dock_solv.prm

>  <Rbt.Receptor>
prm/pocket_docking_5.prm

>  <SCORE>
-30.9495

>  <SCORE.INTER>
-28.4007

>  <SCORE.INTER.CONST>
1

>  <SCORE.INTER.POLAR>
-5.36188

>  <SCORE.INTER.ROT>
5

>  <SCORE.INTER.SOLV>
24.4794

>  <SCORE.INTER.VDW>
-16.154

>  <SCORE.INTER.norm>
-2.36673

>  <SCORE.INTRA>
-2.60739

>  <SCORE.INTRA.DIHEDRAL>
-1.00395

>  <SCORE.INTRA.DIHEDRAL.0>
6.04201

>  <SCORE.INTRA.POLAR>
0

>  <SCORE.INTRA.POLAR.0>
0

>  <SCORE.INTRA.REPUL>
0

>  <SCORE.INTRA.REPUL.0>
0

>  <SCORE.INTRA.SOLV>
-0.328494

>  <SCORE.INTRA.SOLV.lig_0>
-71.0481

>  <SCORE.INTRA.VDW>
-1.94117

>  <SCORE.INTRA.VDW.0>
0.968882

>  <SCORE.INTRA.norm>
-0.217283

>  <SCORE.RESTR>
0.0585979

>  <SCORE.RESTR.CAVITY>
0.0585979

>  <SCORE.RESTR.norm>
0.00488316

>  <SCORE.SYSTEM>
0

>  <SCORE.SYSTEM.CONST>
0

>  <SCORE.SYSTEM.DIHEDRAL>
0

>  <SCORE.SYSTEM.SOLV>
0

>  <SCORE.SYSTEM.norm>
0

>  <SCORE.heavy>
12

>  <SCORE.norm>
-2.57913

>  <SYMMETRIC_BONDS>
11 12 2
5 6 2

>  <RMSD>
1.673

$$$$
1koc cryst
 OpenBabel11021811393D
libRbt.so/2013.1/901 2013/11/27
 12 11  0  0  0  0  0  0  0  0999 V2000
    6.2353    6.2014   29.4386 N   0  3  0  0  0  0  0  0  0  0  0  0
    5.2375    6.6858   30.4398 C   0  0  2  0  0  0  0  0  0  0  0  0
    5.9852    7.2083   31.6822 C   0  0  0  0  0  0  0  0  0  0  0  0
    6.5418    6.3919   32.4010 O   0  5  0  0  0  0  0  0  0  0  0  0
    4.2871    5.5176   30.8169 C   0  0  0  0  0  0  0  0  0  0  0  0
    3.3108    5.2103   29.6754 C   0  0  0  0  0  0  0  0  0  0  0  0
    2.2214    4.2669   30.1736 C   0  0  0  0  0  0  0  0  0  0  0  0
    2.7200    2.8608   30.1543 N   0  0  0  0  0  0  0  0  0  0  0  0
    2.2945    1.9960   31.0436 C   0  0  0  0  0  0  0  0  0  0  0  0
    1.0531    2.0325   31.4601 N   0  0  0  0  0  0  0  0  0  0  0  0
    3.1110    1.0897   31.5136 N   0  3  0  0  0  0  0  0  0  0  0  0
    5.9798    8.4106   31.9005 O   0  0  0  0  0  0  0  0  0  0  0  0
  2  1  1  6  0  0  0
  2  5  1  0  0  0  0
  2  3  1  0  0  0  0
  3  4  1  0  0  0  0
  3 12  2  0  0  0  0
  5  6  1  0  0  0  0
  6  7  1  0  0  0  0
  7  8  1  0  0  0  0
  8  9  1  0  0  0  0
  9 10  1  0  0  0  0
  9 11  2  0  0  0  0
M  CHG  3   1   1   4  -1  11   1
M  END
>  <CHROM.1>
-56.49696687,-73.08785678,-70.44992636,-168.59065478,-81.66025405,148.16222737
4.11195589,4.80600862,30.89236131,0.54067538,-0.78014440,-0.81441839

>  <Name>
1koc cryst

>  <RI>
0

>  <Rbt.Current_Directory>
/home/itssahil/PROJECTS/Mol_Feturizer/New_Systems/rnas/1koc

>  <Rbt.Executable>
rbdock ($Id: //depot/dev/client3/rdock/2013.1/src/exe/rbdock.cxx#4 $)

>  <Rbt.Library>
libRbt.so (2013.1, Build901 2013/11/27)

>  <Rbt.Parameter_File>
/export/apps/rDock/src/rDock_2013.1_src/data/scripts/dock_solv.prm

>  <Rbt.Receptor>
prm/pocket_docking_3.prm

>  <SCORE>
-21.5344

>  <SCORE.INTER>
-19.051

>  <SCORE.INTER.CONST>
1

>  <SCORE.INTER.POLAR>
-3.92092

>  <SCORE.INTER.ROT>
5

>  <SCORE.INTER.SOLV>
14.1896

>  <SCORE.INTER.VDW>
-11.2942

>  <SCORE.INTER.norm>
-1.58758

>  <SCORE.INTRA>
-2.48343

>  <SCORE.INTRA.DIHEDRAL>
0.144673

>  <SCORE.INTRA.DIHEDRAL.0>
6.04201

>  <SCORE.INTRA.POLAR>
0

>  <SCORE.INTRA.POLAR.0>
0

>  <SCORE.INTRA.REPUL>
0

>  <SCORE.INTRA.REPUL.0>
0

>  <SCORE.INTRA.SOLV>
-1.28432

>  <SCORE.INTRA.SOLV.lig_0>
-71.0481

>  <SCORE.INTRA.VDW>
-1.9136

>  <SCORE.INTRA.VDW.0>
0.968882

>  <SCORE.INTRA.norm>
-0.206952

>  <SCORE.RESTR>
0

>  <SCORE.RESTR.CAVITY>
0

>  <SCORE.RESTR.norm>
0

>  <SCORE.SYSTEM>
0

>  <SCORE.SYSTEM.CONST>
0

>  <SCORE.SYSTEM.DIHEDRAL>
0

>  <SCORE.SYSTEM.SOLV>
0

>  <SCORE.SYSTEM.norm>
0

>  <SCORE.heavy>
12

>  <SCORE.norm>
-1.79454

>  <SYMMETRIC_BONDS>
11 12 2
5 6 2

>  <RMSD>
1.683

$$$$
1koc cryst
 OpenBabel11021811393D
libRbt.so/2013.1/901 2013/11/27
 12 11  0  0  0  0  0  0  0  0999 V2000
    3.7157    6.8507   30.4395 N   0  3  0  0  0  0  0  0  0  0  0  0
    3.2862    6.0491   31.6252 C   0  0  2  0  0  0  0  0  0  0  0  0
    4.4674    5.9340   32.6086 C   0  0  0  0  0  0  0  0  0  0  0  0
    4.2203    5.9514   33.8051 O   0  5  0  0  0  0  0  0  0  0  0  0
    2.8238    4.6454   31.1496 C   0  0  0  0  0  0  0  0  0  0  0  0
    1.3837    4.6876   30.6249 C   0  0  0  0  0  0  0  0  0  0  0  0
    0.8912    3.2678   30.3671 C   0  0  0  0  0  0  0  0  0  0  0  0
    1.2554    2.3879   31.5157 N   0  0  0  0  0  0  0  0  0  0  0  0
    2.1346    1.4274   31.3601 C   0  0  0  0  0  0  0  0  0  0  0  0
    3.1673    1.5975   30.5723 N   0  0  0  0  0  0  0  0  0  0  0  0
    1.9833    0.2962   31.9977 N   0  3  0  0  0  0  0  0  0  0  0  0
    5.5970    5.8422   32.1515 O   0  0  0  0  0  0  0  0  0  0  0  0
  2  1  1  6  0  0  0
  2  5  1  0  0  0  0
  2  3  1  0  0  0  0
  3  4  1  0  0  0  0
  3 12  2  0  0  0  0
  5  6  1  0  0  0  0
  6  7  1  0  0  0  0
  7  8  1  0  0  0  0
  8  9  1  0  0  0  0
  9 10  1  0  0  0  0
  9 11  2  0  0  0  0
M  CHG  3   1   1   4  -1  11   1
M  END
>  <CHROM.1>
-111.37214386,-81.24347359,143.89579272,-171.44996524,45.29622878,-112.75063575
2.94434581,4.08319406,31.51562058,0.93813523,-0.68535188,-0.26889484

>  <Name>
1koc cryst

>  <RI>
0

>  <Rbt.Current_Directory>
/home/itssahil/PROJECTS/Mol_Feturizer/New_Systems/rnas/1koc

>  <Rbt.Executable>
rbdock ($Id: //depot/dev/client3/rdock/2013.1/src/exe/rbdock.cxx#4 $)

>  <Rbt.Library>
libRbt.so (2013.1, Build901 2013/11/27)

>  <Rbt.Parameter_File>
/export/apps/rDock/src/rDock_2013.1_src/data/scripts/dock_solv.prm

>  <Rbt.Receptor>
prm/pocket_docking_2.prm

>  <SCORE>
-29.8332

>  <SCORE.INTER>
-31.3084

>  <SCORE.INTER.CONST>
1

>  <SCORE.INTER.POLAR>
-6.4899

>  <SCORE.INTER.ROT>
5

>  <SCORE.INTER.SOLV>
23.275

>  <SCORE.INTER.VDW>
-13.931

>  <SCORE.INTER.norm>
-2.60903

>  <SCORE.INTRA>
1.19885

>  <SCORE.INTRA.DIHEDRAL>
3.33533

>  <SCORE.INTRA.DIHEDRAL.0>
6.04201

>  <SCORE.INTRA.POLAR>
0

>  <SCORE.INTRA.POLAR.0>
0

>  <SCORE.INTRA.REPUL>
0

>  <SCORE.INTRA.REPUL.0>
0

>  <SCORE.INTRA.SOLV>
0.0105184

>  <SCORE.INTRA.SOLV.lig_0>
-71.0481

>  <SCORE.INTRA.VDW>
-0.474078

>  <SCORE.INTRA.VDW.0>
0.968882

>  <SCORE.INTRA.norm>
0.0999038

>  <SCORE.RESTR>
0.276314

>  <SCORE.RESTR.CAVITY>
0.276314

>  <SCORE.RESTR.norm>
0.0230261

>  <SCORE.SYSTEM>
0

>  <SCORE.SYSTEM.CONST>
0

>  <SCORE.SYSTEM.DIHEDRAL>
0

>  <SCORE.SYSTEM.SOLV>
0

>  <SCORE.SYSTEM.norm>
0

>  <SCORE.heavy>
12

>  <SCORE.norm>
-2.4861

>  <SYMMETRIC_BONDS>
11 12 2
5 6 2

>  <RMSD>
1.688

$$$$
1koc cryst
 OpenBabel11021811393D
libRbt.so/2013.1/901 2013/11/27
 12 11  0  0  0  0  0  0  0  0999 V2000
    3.2077    7.0060   33.2648 N   0  3  0  0  0  0  0  0  0  0  0  0
    4.0894    5.9393   32.7012 C   0  0  2  0  0  0  0  0  0  0  0  0
    5.2869    6.6005   31.9911 C   0  0  0  0  0  0  0  0  0  0  0  0
    6.4008    6.4223   32.4606 O   0  5  0  0  0  0  0  0  0  0  0  0
    3.2681    5.0722   31.7094 C   0  0  0  0  0  0  0  0  0  0  0  0
    4.0379    3.8060   31.3156 C   0  0  0  0  0  0  0  0  0  0  0  0
    3.3907    3.1747   30.0877 C   0  0  0  0  0  0  0  0  0  0  0  0
    3.0081    1.7634   30.3849 N   0  0  0  0  0  0  0  0  0  0  0  0
    2.0872    1.5027   31.2814 C   0  0  0  0  0  0  0  0  0  0  0  0
    1.0502    2.2923   31.4129 N   0  0  0  0  0  0  0  0  0  0  0  0
    2.2011    0.4474   32.0444 N   0  3  0  0  0  0  0  0  0  0  0  0
    5.0708    7.2812   30.9995 O   0  0  0  0  0  0  0  0  0  0  0  0
  2  1  1  6  0  0  0
  2  5  1  0  0  0  0
  2  3  1  0  0  0  0
  3  4  1  0  0  0  0
  3 12  2  0  0  0  0
  5  6  1  0  0  0  0
  6  7  1  0  0  0  0
  7  8  1  0  0  0  0
  8  9  1  0  0  0  0
  9 10  1  0  0  0  0
  9 11  2  0  0  0  0
M  CHG  3   1   1   4  -1  11   1
M  END
>  <CHROM.1>
60.36822780,-168.79877777,114.34789072,-165.13377888,-123.35260011,65.12488799
3.57515089,4.29442623,31.66008976,1.02328864,0.49619502,0.46142454

>  <Name>
1koc cryst

>  <RI>
0

>  <Rbt.Current_Directory>
/home/itssahil/PROJECTS/Mol_Feturizer/New_Systems/rnas/1koc

>  <Rbt.Executable>
rbdock ($Id: //depot/dev/client3/rdock/2013.1/src/exe/rbdock.cxx#4 $)

>  <Rbt.Library>
libRbt.so (2013.1, Build901 2013/11/27)

>  <Rbt.Parameter_File>
/export/apps/rDock/src/rDock_2013.1_src/data/scripts/dock_solv.prm

>  <Rbt.Receptor>
prm/pocket_docking_3.prm

>  <SCORE>
-26.3824

>  <SCORE.INTER>
-25.867

>  <SCORE.INTER.CONST>
1

>  <SCORE.INTER.POLAR>
-4.79346

>  <SCORE.INTER.ROT>
5

>  <SCORE.INTER.SOLV>
20.8672

>  <SCORE.INTER.VDW>
-15.1555

>  <SCORE.INTER.norm>
-2.15558

>  <SCORE.INTRA>
-0.515373

>  <SCORE.INTRA.DIHEDRAL>
4.18436

>  <SCORE.INTRA.DIHEDRAL.0>
6.04201

>  <SCORE.INTRA.POLAR>
0

>  <SCORE.INTRA.POLAR.0>
0

>  <SCORE.INTRA.REPUL>
0

>  <SCORE.INTRA.REPUL.0>
0

>  <SCORE.INTRA.SOLV>
-0.764426

>  <SCORE.INTRA.SOLV.lig_0>
-71.0481

>  <SCORE.INTRA.VDW>
-2.22534

>  <SCORE.INTRA.VDW.0>
0.968882

>  <SCORE.INTRA.norm>
-0.0429478

>  <SCORE.RESTR>
0

>  <SCORE.RESTR.CAVITY>
0

>  <SCORE.RESTR.norm>
0

>  <SCORE.SYSTEM>
0

>  <SCORE.SYSTEM.CONST>
0

>  <SCORE.SYSTEM.DIHEDRAL>
0

>  <SCORE.SYSTEM.SOLV>
0

>  <SCORE.SYSTEM.norm>
0

>  <SCORE.heavy>
12

>  <SCORE.norm>
-2.19853

>  <SYMMETRIC_BONDS>
11 12 2
5 6 2

>  <RMSD>
1.695

$$$$
1koc cryst
 OpenBabel11021811393D
libRbt.so/2013.1/901 2013/11/27
 12 11  0  0  0  0  0  0  0  0999 V2000
    2.1741    8.5569   32.5592 N   0  3  0  0  0  0  0  0  0  0  0  0
    2.6793    7.1539   32.6554 C   0  0  2  0  0  0  0  0  0  0  0  0
    4.2194    7.1694   32.5986 C   0  0  0  0  0  0  0  0  0  0  0  0
    4.8308    6.5769   33.4751 O   0  5  0  0  0  0  0  0  0  0  0  0
    2.0911    6.3202   31.4852 C   0  0  0  0  0  0  0  0  0  0  0  0
    2.7345    4.9300   31.4204 C   0  0  0  0  0  0  0  0  0  0  0  0
    2.2791    4.2138   30.1537 C   0  0  0  0  0  0  0  0  0  0  0  0
    2.7816    2.8088   30.1567 N   0  0  0  0  0  0  0  0  0  0  0  0
    2.3552    1.9559   31.0569 C   0  0  0  0  0  0  0  0  0  0  0  0
    1.1121    1.9951   31.4683 N   0  0  0  0  0  0  0  0  0  0  0  0
    3.1723    1.0587   31.5429 N   0  3  0  0  0  0  0  0  0  0  0  0
    4.7612    7.7806   31.6897 O   0  0  0  0  0  0  0  0  0  0  0  0
  2  1  1  6  0  0  0
  2  5  1  0  0  0  0
  2  3  1  0  0  0  0
  3  4  1  0  0  0  0
  3 12  2  0  0  0  0
  5  6  1  0  0  0  0
  6  7  1  0  0  0  0
  7  8  1  0  0  0  0
  8  9  1  0  0  0  0
  9 10  1  0  0  0  0
  9 11  2  0  0  0  0
M  CHG  3   1   1   4  -1  11   1
M  END
>  <CHROM.1>
-166.39918129,171.83278994,128.32131736,-172.20968545,-173.90407118,65.31754233
2.93585896,5.05786618,31.70170753,1.35100146,-0.33678337,0.17736707

>  <Name>
1koc cryst

>  <RI>
0

>  <Rbt.Current_Directory>
/home/itssahil/PROJECTS/Mol_Feturizer/New_Systems/rnas/1koc

>  <Rbt.Executable>
rbdock ($Id: //depot/dev/client3/rdock/2013.1/src/exe/rbdock.cxx#4 $)

>  <Rbt.Library>
libRbt.so (2013.1, Build901 2013/11/27)

>  <Rbt.Parameter_File>
/export/apps/rDock/src/rDock_2013.1_src/data/scripts/dock_solv.prm

>  <Rbt.Receptor>
prm/pocket_docking_4.prm

>  <SCORE>
-39.8727

>  <SCORE.INTER>
-37.0694

>  <SCORE.INTER.CONST>
1

>  <SCORE.INTER.POLAR>
-6.52413

>  <SCORE.INTER.ROT>
5

>  <SCORE.INTER.SOLV>
24.7199

>  <SCORE.INTER.VDW>
-18.1392

>  <SCORE.INTER.norm>
-3.08912

>  <SCORE.INTRA>
-2.80324

>  <SCORE.INTRA.DIHEDRAL>
-1.53894

>  <SCORE.INTRA.DIHEDRAL.0>
6.04201

>  <SCORE.INTRA.POLAR>
0

>  <SCORE.INTRA.POLAR.0>
0

>  <SCORE.INTRA.REPUL>
0

>  <SCORE.INTRA.REPUL.0>
0

>  <SCORE.INTRA.SOLV>
-0.906917

>  <SCORE.INTRA.SOLV.lig_0>
-71.0481

>  <SCORE.INTRA.VDW>
-1.58031

>  <SCORE.INTRA.VDW.0>
0.968882

>  <SCORE.INTRA.norm>
-0.233604

>  <SCORE.RESTR>
0

>  <SCORE.RESTR.CAVITY>
0

>  <SCORE.RESTR.norm>
0

>  <SCORE.SYSTEM>
0

>  <SCORE.SYSTEM.CONST>
0

>  <SCORE.SYSTEM.DIHEDRAL>
0

>  <SCORE.SYSTEM.SOLV>
0

>  <SCORE.SYSTEM.norm>
0

>  <SCORE.heavy>
12

>  <SCORE.norm>
-3.32272

>  <SYMMETRIC_BONDS>
11 12 2
5 6 2

>  <RMSD>
1.695

$$$$
1koc cryst
 OpenBabel11021811393D
libRbt.so/2013.1/901 2013/11/27
 12 11  0  0  0  0  0  0  0  0999 V2000
    3.2882    7.0538   33.2086 N   0  3  0  0  0  0  0  0  0  0  0  0
    4.0176    5.7701   32.9787 C   0  0  2  0  0  0  0  0  0  0  0  0
    5.5330    6.0503   32.9562 C   0  0  0  0  0  0  0  0  0  0  0  0
    5.9007    7.1939   32.7327 O   0  5  0  0  0  0  0  0  0  0  0  0
    3.5492    5.1529   31.6334 C   0  0  0  0  0  0  0  0  0  0  0  0
    4.0226    3.7008   31.4982 C   0  0  0  0  0  0  0  0  0  0  0  0
    3.4908    3.1080   30.1979 C   0  0  0  0  0  0  0  0  0  0  0  0
    3.0488    1.7012   30.4251 N   0  0  0  0  0  0  0  0  0  0  0  0
    2.0940    1.4386   31.2849 C   0  0  0  0  0  0  0  0  0  0  0  0
    1.0833    2.2605   31.4220 N   0  0  0  0  0  0  0  0  0  0  0  0
    2.1478    0.3493   32.0055 N   0  3  0  0  0  0  0  0  0  0  0  0
    6.2991    5.1184   33.1508 O   0  0  0  0  0  0  0  0  0  0  0  0
  2  1  1  6  0  0  0
  2  5  1  0  0  0  0
  2  3  1  0  0  0  0
  3  4  1  0  0  0  0
  3 12  2  0  0  0  0
  5  6  1  0  0  0  0
  6  7  1  0  0  0  0
  7  8  1  0  0  0  0
  8  9  1  0  0  0  0
  9 10  1  0  0  0  0
  9 11  2  0  0  0  0
M  CHG  3   1   1   4  -1  11   1
M  END
>  <CHROM.1>
-61.33812362,-167.30961625,-20.57442230,177.38788141,-139.53529914,60.58378718
3.69275517,4.09368993,31.97944795,1.06882288,0.00741935,0.33475860

>  <Name>
1koc cryst

>  <RI>
0

>  <Rbt.Current_Directory>
/home/itssahil/PROJECTS/Mol_Feturizer/New_Systems/rnas/1koc

>  <Rbt.Executable>
rbdock ($Id: //depot/dev/client3/rdock/2013.1/src/exe/rbdock.cxx#4 $)

>  <Rbt.Library>
libRbt.so (2013.1, Build901 2013/11/27)

>  <Rbt.Parameter_File>
/export/apps/rDock/src/rDock_2013.1_src/data/scripts/dock_solv.prm

>  <Rbt.Receptor>
prm/pocket_docking_3.prm

>  <SCORE>
-27.844

>  <SCORE.INTER>
-26.6991

>  <SCORE.INTER.CONST>
1

>  <SCORE.INTER.POLAR>
-4.77998

>  <SCORE.INTER.ROT>
5

>  <SCORE.INTER.SOLV>
21.4847

>  <SCORE.INTER.VDW>
-15.9611

>  <SCORE.INTER.norm>
-2.22493

>  <SCORE.INTRA>
-1.14483

>  <SCORE.INTRA.DIHEDRAL>
2.16962

>  <SCORE.INTRA.DIHEDRAL.0>
6.04201

>  <SCORE.INTRA.POLAR>
0

>  <SCORE.INTRA.POLAR.0>
0

>  <SCORE.INTRA.REPUL>
0

>  <SCORE.INTRA.REPUL.0>
0

>  <SCORE.INTRA.SOLV>
-0.539453

>  <SCORE.INTRA.SOLV.lig_0>
-71.0481

>  <SCORE.INTRA.VDW>
-1.95991

>  <SCORE.INTRA.VDW.0>
0.968882

>  <SCORE.INTRA.norm>
-0.0954023

>  <SCORE.RESTR>
0

>  <SCORE.RESTR.CAVITY>
0

>  <SCORE.RESTR.norm>
0

>  <SCORE.SYSTEM>
0

>  <SCORE.SYSTEM.CONST>
0

>  <SCORE.SYSTEM.DIHEDRAL>
0

>  <SCORE.SYSTEM.SOLV>
0

>  <SCORE.SYSTEM.norm>
0

>  <SCORE.heavy>
12

>  <SCORE.norm>
-2.32033

>  <SYMMETRIC_BONDS>
11 12 2
5 6 2

>  <RMSD>
1.705

$$$$
1koc cryst
 OpenBabel11021811393D
libRbt.so/2013.1/901 2013/11/27
 12 11  0  0  0  0  0  0  0  0999 V2000
    5.0045    7.7161   31.1493 N   0  3  0  0  0  0  0  0  0  0  0  0
    3.6377    7.1914   31.4484 C   0  0  2  0  0  0  0  0  0  0  0  0
    3.4986    6.9903   32.9701 C   0  0  0  0  0  0  0  0  0  0  0  0
    2.3754    7.0146   33.4507 O   0  5  0  0  0  0  0  0  0  0  0  0
    3.4306    5.8515   30.6922 C   0  0  0  0  0  0  0  0  0  0  0  0
    1.9867    5.3557   30.8338 C   0  0  0  0  0  0  0  0  0  0  0  0
    1.8166    4.0490   30.0665 C   0  0  0  0  0  0  0  0  0  0  0  0
    1.6953    2.9107   31.0235 N   0  0  0  0  0  0  0  0  0  0  0  0
    2.6057    1.9673   31.0478 C   0  0  0  0  0  0  0  0  0  0  0  0
    3.8667    2.2599   30.8470 N   0  0  0  0  0  0  0  0  0  0  0  0
    2.2550    0.7293   31.2784 N   0  3  0  0  0  0  0  0  0  0  0  0
    4.5142    6.8273   33.6298 O   0  0  0  0  0  0  0  0  0  0  0  0
  2  1  1  1  0  0  0
  2  5  1  0  0  0  0
  2  3  1  0  0  0  0
  3  4  1  0  0  0  0
  3 12  2  0  0  0  0
  5  6  1  0  0  0  0
  6  7  1  0  0  0  0
  7  8  1  0  0  0  0
  8  9  1  0  0  0  0
  9 10  1  0  0  0  0
  9 11  2  0  0  0  0
M  CHG  3   1   1   4  -1  11   1
M  END
>  <CHROM.1>
178.71404084,-173.32538962,155.47290461,179.33940886,107.63675945,-116.18078963
3.09349367,4.90414769,31.55340485,-0.90729189,-1.12893216,-2.26253549

>  <Name>
1koc cryst

>  <RI>
0

>  <Rbt.Current_Directory>
/home/itssahil/PROJECTS/Mol_Feturizer/New_Systems/rnas/1koc

>  <Rbt.Executable>
rbdock ($Id: //depot/dev/client3/rdock/2013.1/src/exe/rbdock.cxx#4 $)

>  <Rbt.Library>
libRbt.so (2013.1, Build901 2013/11/27)

>  <Rbt.Parameter_File>
/export/apps/rDock/src/rDock_2013.1_src/data/scripts/dock_solv.prm

>  <Rbt.Receptor>
prm/pocket_docking_2.prm

>  <SCORE>
-29.6656

>  <SCORE.INTER>
-28.8228

>  <SCORE.INTER.CONST>
1

>  <SCORE.INTER.POLAR>
-4.99586

>  <SCORE.INTER.ROT>
5

>  <SCORE.INTER.SOLV>
19.0915

>  <SCORE.INTER.VDW>
-15.8595

>  <SCORE.INTER.norm>
-2.4019

>  <SCORE.INTRA>
-1.14651

>  <SCORE.INTRA.DIHEDRAL>
2.53345

>  <SCORE.INTRA.DIHEDRAL.0>
6.04201

>  <SCORE.INTRA.POLAR>
0

>  <SCORE.INTRA.POLAR.0>
0

>  <SCORE.INTRA.REPUL>
0

>  <SCORE.INTRA.REPUL.0>
0

>  <SCORE.INTRA.SOLV>
-0.406516

>  <SCORE.INTRA.SOLV.lig_0>
-71.0481

>  <SCORE.INTRA.VDW>
-2.20998

>  <SCORE.INTRA.VDW.0>
0.968882

>  <SCORE.INTRA.norm>
-0.0955426

>  <SCORE.RESTR>
0.303713

>  <SCORE.RESTR.CAVITY>
0.303713

>  <SCORE.RESTR.norm>
0.0253095

>  <SCORE.SYSTEM>
0

>  <SCORE.SYSTEM.CONST>
0

>  <SCORE.SYSTEM.DIHEDRAL>
0

>  <SCORE.SYSTEM.SOLV>
0

>  <SCORE.SYSTEM.norm>
0

>  <SCORE.heavy>
12

>  <SCORE.norm>
-2.47214

>  <SYMMETRIC_BONDS>
11 12 2
5 6 2

>  <RMSD>
1.707

$$$$
1koc cryst
 OpenBabel11021811393D
libRbt.so/2013.1/901 2013/11/27
 12 11  0  0  0  0  0  0  0  0999 V2000
    5.4354    6.6306   31.2897 N   0  3  0  0  0  0  0  0  0  0  0  0
    3.9654    6.4711   31.5053 C   0  0  2  0  0  0  0  0  0  0  0  0
    3.6965    6.2751   33.0102 C   0  0  0  0  0  0  0  0  0  0  0  0
    2.7952    6.9236   33.5202 O   0  5  0  0  0  0  0  0  0  0  0  0
    3.4614    5.2500   30.6898 C   0  0  0  0  0  0  0  0  0  0  0  0
    1.9328    5.2594   30.5702 C   0  0  0  0  0  0  0  0  0  0  0  0
    1.4465    3.8876   30.1158 C   0  0  0  0  0  0  0  0  0  0  0  0
    1.5476    2.9146   31.2424 N   0  0  0  0  0  0  0  0  0  0  0  0
    2.3581    1.8871   31.1581 C   0  0  0  0  0  0  0  0  0  0  0  0
    3.5144    2.0049   30.5540 N   0  0  0  0  0  0  0  0  0  0  0  0
    2.0135    0.7407   31.6835 N   0  3  0  0  0  0  0  0  0  0  0  0
    4.4008    5.4912   33.6289 O   0  0  0  0  0  0  0  0  0  0  0  0
  2  1  1  1  0  0  0
  2  5  1  0  0  0  0
  2  3  1  0  0  0  0
  3  4  1  0  0  0  0
  3 12  2  0  0  0  0
  5  6  1  0  0  0  0
  6  7  1  0  0  0  0
  7  8  1  0  0  0  0
  8  9  1  0  0  0  0
  9 10  1  0  0  0  0
  9 11  2  0  0  0  0
M  CHG  3   1   1   4  -1  11   1
M  END
>  <CHROM.1>
59.29463198,-164.86730304,133.64612313,-164.51428243,73.97155349,-115.95947429
3.08709932,4.46874825,31.60047525,0.29204260,-1.17059298,-0.96169642

>  <Name>
1koc cryst

>  <RI>
0

>  <Rbt.Current_Directory>
/home/itssahil/PROJECTS/Mol_Feturizer/New_Systems/rnas/1koc

>  <Rbt.Executable>
rbdock ($Id: //depot/dev/client3/rdock/2013.1/src/exe/rbdock.cxx#4 $)

>  <Rbt.Library>
libRbt.so (2013.1, Build901 2013/11/27)

>  <Rbt.Parameter_File>
/export/apps/rDock/src/rDock_2013.1_src/data/scripts/dock_solv.prm

>  <Rbt.Receptor>
prm/pocket_docking_2.prm

>  <SCORE>
-29.2705

>  <SCORE.INTER>
-27.0114

>  <SCORE.INTER.CONST>
1

>  <SCORE.INTER.POLAR>
-5.22062

>  <SCORE.INTER.ROT>
5

>  <SCORE.INTER.SOLV>
21.64

>  <SCORE.INTER.VDW>
-14.7522

>  <SCORE.INTER.norm>
-2.25095

>  <SCORE.INTRA>
-2.2729

>  <SCORE.INTRA.DIHEDRAL>
-0.167721

>  <SCORE.INTRA.DIHEDRAL.0>
6.04201

>  <SCORE.INTRA.POLAR>
0

>  <SCORE.INTRA.POLAR.0>
0

>  <SCORE.INTRA.REPUL>
0

>  <SCORE.INTRA.REPUL.0>
0

>  <SCORE.INTRA.SOLV>
-0.338069

>  <SCORE.INTRA.SOLV.lig_0>
-71.0481

>  <SCORE.INTRA.VDW>
-2.02

>  <SCORE.INTRA.VDW.0>
0.968882

>  <SCORE.INTRA.norm>
-0.189408

>  <SCORE.RESTR>
0.0137469

>  <SCORE.RESTR.CAVITY>
0.0137469

>  <SCORE.RESTR.norm>
0.00114557

>  <SCORE.SYSTEM>
0

>  <SCORE.SYSTEM.CONST>
0

>  <SCORE.SYSTEM.DIHEDRAL>
0

>  <SCORE.SYSTEM.SOLV>
0

>  <SCORE.SYSTEM.norm>
0

>  <SCORE.heavy>
12

>  <SCORE.norm>
-2.43921

>  <SYMMETRIC_BONDS>
11 12 2
5 6 2

>  <RMSD>
1.708

$$$$
1koc cryst
 OpenBabel11021811393D
libRbt.so/2013.1/901 2013/11/27
 12 11  0  0  0  0  0  0  0  0999 V2000
    4.4300    6.4808   27.9366 N   0  3  0  0  0  0  0  0  0  0  0  0
    4.3272    5.6675   29.1860 C   0  0  2  0  0  0  0  0  0  0  0  0
    4.7395    6.5392   30.3883 C   0  0  0  0  0  0  0  0  0  0  0  0
    4.0337    6.5105   31.3854 O   0  5  0  0  0  0  0  0  0  0  0  0
    5.2496    4.4251   29.0614 C   0  0  0  0  0  0  0  0  0  0  0  0
    4.9601    3.4094   30.1729 C   0  0  0  0  0  0  0  0  0  0  0  0
    3.4631    3.1249   30.2290 C   0  0  0  0  0  0  0  0  0  0  0  0
    3.2301    1.7180   30.6679 N   0  0  0  0  0  0  0  0  0  0  0  0
    2.1142    1.3906   31.2739 C   0  0  0  0  0  0  0  0  0  0  0  0
    0.9830    1.9512   30.9246 N   0  0  0  0  0  0  0  0  0  0  0  0
    2.1290    0.4970   32.2279 N   0  3  0  0  0  0  0  0  0  0  0  0
    5.7442    7.2277   30.2893 O   0  0  0  0  0  0  0  0  0  0  0  0
  2  1  1  6  0  0  0
  2  5  1  0  0  0  0
  2  3  1  0  0  0  0
  3  4  1  0  0  0  0
  3 12  2  0  0  0  0
  5  6  1  0  0  0  0
  6  7  1  0  0  0  0
  7  8  1  0  0  0  0
  8  9  1  0  0  0  0
  9 10  1  0  0  0  0
  9 11  2  0  0  0  0
M  CHG  3   1   1   4  -1  11   1
M  END
>  <CHROM.1>
-90.58527693,-167.84046185,134.18215036,50.60838796,148.24071869,153.61853750
3.77020908,4.09539688,30.30525692,-0.45345521,-1.03925522,-2.41328767

>  <Name>
1koc cryst

>  <RI>
0

>  <Rbt.Current_Directory>
/home/itssahil/PROJECTS/Mol_Feturizer/New_Systems/rnas/1koc

>  <Rbt.Executable>
rbdock ($Id: //depot/dev/client3/rdock/2013.1/src/exe/rbdock.cxx#4 $)

>  <Rbt.Library>
libRbt.so (2013.1, Build901 2013/11/27)

>  <Rbt.Parameter_File>
/export/apps/rDock/src/rDock_2013.1_src/data/scripts/dock_solv.prm

>  <Rbt.Receptor>
prm/pocket_docking_3.prm

>  <SCORE>
-34.4576

>  <SCORE.INTER>
-35.2579

>  <SCORE.INTER.CONST>
1

>  <SCORE.INTER.POLAR>
-6.72669

>  <SCORE.INTER.ROT>
5

>  <SCORE.INTER.SOLV>
23.4965

>  <SCORE.INTER.VDW>
-15.8485

>  <SCORE.INTER.norm>
-2.93816

>  <SCORE.INTRA>
0.661132

>  <SCORE.INTRA.DIHEDRAL>
3.14537

>  <SCORE.INTRA.DIHEDRAL.0>
6.04201

>  <SCORE.INTRA.POLAR>
0

>  <SCORE.INTRA.POLAR.0>
0

>  <SCORE.INTRA.REPUL>
0

>  <SCORE.INTRA.REPUL.0>
0

>  <SCORE.INTRA.SOLV>
-0.817919

>  <SCORE.INTRA.SOLV.lig_0>
-71.0481

>  <SCORE.INTRA.VDW>
-0.502594

>  <SCORE.INTRA.VDW.0>
0.968882

>  <SCORE.INTRA.norm>
0.0550943

>  <SCORE.RESTR>
0.139136

>  <SCORE.RESTR.CAVITY>
0.139136

>  <SCORE.RESTR.norm>
0.0115946

>  <SCORE.SYSTEM>
0

>  <SCORE.SYSTEM.CONST>
0

>  <SCORE.SYSTEM.DIHEDRAL>
0

>  <SCORE.SYSTEM.SOLV>
0

>  <SCORE.SYSTEM.norm>
0

>  <SCORE.heavy>
12

>  <SCORE.norm>
-2.87147

>  <SYMMETRIC_BONDS>
11 12 2
5 6 2

>  <RMSD>
1.720

$$$$
1koc cryst
 OpenBabel11021811393D
libRbt.so/2013.1/901 2013/11/27
 12 11  0  0  0  0  0  0  0  0999 V2000
    2.7466    6.6651   32.0342 N   0  3  0  0  0  0  0  0  0  0  0  0
    3.9043    6.6542   31.0895 C   0  0  2  0  0  0  0  0  0  0  0  0
    4.4482    8.0890   30.9447 C   0  0  0  0  0  0  0  0  0  0  0  0
    4.2497    8.8720   31.8615 O   0  5  0  0  0  0  0  0  0  0  0  0
    3.4358    6.0992   29.7174 C   0  0  0  0  0  0  0  0  0  0  0  0
    3.7839    4.6127   29.5757 C   0  0  0  0  0  0  0  0  0  0  0  0
    3.1989    3.8358   30.7501 C   0  0  0  0  0  0  0  0  0  0  0  0
    2.9715    2.4149   30.3557 N   0  0  0  0  0  0  0  0  0  0  0  0
    2.1363    1.6657   31.0345 C   0  0  0  0  0  0  0  0  0  0  0  0
    1.0388    2.1811   31.5303 N   0  0  0  0  0  0  0  0  0  0  0  0
    2.3968    0.3973   31.2135 N   0  3  0  0  0  0  0  0  0  0  0  0
    5.0425    8.3842   29.9186 O   0  0  0  0  0  0  0  0  0  0  0  0
  2  1  1  1  0  0  0
  2  5  1  0  0  0  0
  2  3  1  0  0  0  0
  3  4  1  0  0  0  0
  3 12  2  0  0  0  0
  5  6  1  0  0  0  0
  6  7  1  0  0  0  0
  7  8  1  0  0  0  0
  8  9  1  0  0  0  0
  9 10  1  0  0  0  0
  9 11  2  0  0  0  0
M  CHG  3   1   1   4  -1  11   1
M  END
>  <CHROM.1>
-56.11089191,-98.05829792,24.85474829,55.04467739,154.40901171,-159.90688466
3.25443261,4.98866120,30.86397556,1.06107808,0.88366626,0.39397677

>  <Name>
1koc cryst

>  <RI>
0

>  <Rbt.Current_Directory>
/home/itssahil/PROJECTS/Mol_Feturizer/New_Systems/rnas/1koc

>  <Rbt.Executable>
rbdock ($Id: //depot/dev/client3/rdock/2013.1/src/exe/rbdock.cxx#4 $)

>  <Rbt.Library>
libRbt.so (2013.1, Build901 2013/11/27)

>  <Rbt.Parameter_File>
/export/apps/rDock/src/rDock_2013.1_src/data/scripts/dock_solv.prm

>  <Rbt.Receptor>
prm/pocket_docking_2.prm

>  <SCORE>
-22.3451

>  <SCORE.INTER>
-24.3393

>  <SCORE.INTER.CONST>
1

>  <SCORE.INTER.POLAR>
-4.41844

>  <SCORE.INTER.ROT>
5

>  <SCORE.INTER.SOLV>
22.3416

>  <SCORE.INTER.VDW>
-15.8786

>  <SCORE.INTER.norm>
-2.02828

>  <SCORE.INTRA>
1.51629

>  <SCORE.INTRA.DIHEDRAL>
3.28649

>  <SCORE.INTRA.DIHEDRAL.0>
6.04201

>  <SCORE.INTRA.POLAR>
0

>  <SCORE.INTRA.POLAR.0>
0

>  <SCORE.INTRA.REPUL>
0

>  <SCORE.INTRA.REPUL.0>
0

>  <SCORE.INTRA.SOLV>
0.186365

>  <SCORE.INTRA.SOLV.lig_0>
-71.0481

>  <SCORE.INTRA.VDW>
-0.220141

>  <SCORE.INTRA.VDW.0>
0.968882

>  <SCORE.INTRA.norm>
0.126357

>  <SCORE.RESTR>
0.477923

>  <SCORE.RESTR.CAVITY>
0.477923

>  <SCORE.RESTR.norm>
0.0398269

>  <SCORE.SYSTEM>
0

>  <SCORE.SYSTEM.CONST>
0

>  <SCORE.SYSTEM.DIHEDRAL>
0

>  <SCORE.SYSTEM.SOLV>
0

>  <SCORE.SYSTEM.norm>
0

>  <SCORE.heavy>
12

>  <SCORE.norm>
-1.86209

>  <SYMMETRIC_BONDS>
11 12 2
5 6 2

>  <RMSD>
1.721

$$$$
1koc cryst
 OpenBabel11021811393D
libRbt.so/2013.1/901 2013/11/27
 12 11  0  0  0  0  0  0  0  0999 V2000
    2.1841    8.5694   32.5609 N   0  3  0  0  0  0  0  0  0  0  0  0
    2.8211    7.2177   32.5549 C   0  0  2  0  0  0  0  0  0  0  0  0
    4.3258    7.3727   32.2593 C   0  0  0  0  0  0  0  0  0  0  0  0
    5.1090    6.6888   32.9011 O   0  5  0  0  0  0  0  0  0  0  0  0
    2.1337    6.3363   31.4775 C   0  0  0  0  0  0  0  0  0  0  0  0
    2.8473    4.9872   31.3310 C   0  0  0  0  0  0  0  0  0  0  0  0
    2.2488    4.2161   30.1596 C   0  0  0  0  0  0  0  0  0  0  0  0
    2.7576    2.8134   30.1626 N   0  0  0  0  0  0  0  0  0  0  0  0
    2.3373    1.9595   31.0646 C   0  0  0  0  0  0  0  0  0  0  0  0
    1.0951    1.9934   31.4793 N   0  0  0  0  0  0  0  0  0  0  0  0
    3.1597    1.0664   31.5493 N   0  3  0  0  0  0  0  0  0  0  0  0
    4.6705    8.1779   31.4071 O   0  0  0  0  0  0  0  0  0  0  0  0
  2  1  1  6  0  0  0
  2  5  1  0  0  0  0
  2  3  1  0  0  0  0
  3  4  1  0  0  0  0
  3 12  2  0  0  0  0
  5  6  1  0  0  0  0
  6  7  1  0  0  0  0
  7  8  1  0  0  0  0
  8  9  1  0  0  0  0
  9 10  1  0  0  0  0
  9 11  2  0  0  0  0
M  CHG  3   1   1   4  -1  11   1
M  END
>  <CHROM.1>
-172.74915397,174.10243903,138.41453035,-173.51977902,-169.69302213,72.45297760
2.97532599,5.13131364,31.58864927,1.34459121,-0.14148595,0.16871729

>  <Name>
1koc cryst

>  <RI>
0

>  <Rbt.Current_Directory>
/home/itssahil/PROJECTS/Mol_Feturizer/New_Systems/rnas/1koc

>  <Rbt.Executable>
rbdock ($Id: //depot/dev/client3/rdock/2013.1/src/exe/rbdock.cxx#4 $)

>  <Rbt.Library>
libRbt.so (2013.1, Build901 2013/11/27)

>  <Rbt.Parameter_File>
/export/apps/rDock/src/rDock_2013.1_src/data/scripts/dock_solv.prm

>  <Rbt.Receptor>
prm/pocket_docking_7.prm

>  <SCORE>
-39.9881

>  <SCORE.INTER>
-36.8392

>  <SCORE.INTER.CONST>
1

>  <SCORE.INTER.POLAR>
-6.51664

>  <SCORE.INTER.ROT>
5

>  <SCORE.INTER.SOLV>
24.5441

>  <SCORE.INTER.VDW>
-17.9521

>  <SCORE.INTER.norm>
-3.06994

>  <SCORE.INTRA>
-3.14888

>  <SCORE.INTRA.DIHEDRAL>
-1.78061

>  <SCORE.INTRA.DIHEDRAL.0>
6.04201

>  <SCORE.INTRA.POLAR>
0

>  <SCORE.INTRA.POLAR.0>
0

>  <SCORE.INTRA.REPUL>
0

>  <SCORE.INTRA.REPUL.0>
0

>  <SCORE.INTRA.SOLV>
-0.938651

>  <SCORE.INTRA.SOLV.lig_0>
-71.0481

>  <SCORE.INTRA.VDW>
-1.78925

>  <SCORE.INTRA.VDW.0>
0.968882

>  <SCORE.INTRA.norm>
-0.262407

>  <SCORE.RESTR>
0

>  <SCORE.RESTR.CAVITY>
0

>  <SCORE.RESTR.norm>
0

>  <SCORE.SYSTEM>
0

>  <SCORE.SYSTEM.CONST>
0

>  <SCORE.SYSTEM.DIHEDRAL>
0

>  <SCORE.SYSTEM.SOLV>
0

>  <SCORE.SYSTEM.norm>
0

>  <SCORE.heavy>
12

>  <SCORE.norm>
-3.33234

>  <SYMMETRIC_BONDS>
11 12 2
5 6 2

>  <RMSD>
1.731

$$$$
1koc cryst
 OpenBabel11021811393D
libRbt.so/2013.1/901 2013/11/27
 12 11  0  0  0  0  0  0  0  0999 V2000
    2.2233    8.2747   32.4874 N   0  3  0  0  0  0  0  0  0  0  0  0
    2.7637    6.9041   32.2379 C   0  0  2  0  0  0  0  0  0  0  0  0
    3.6663    6.4972   33.4191 C   0  0  0  0  0  0  0  0  0  0  0  0
    4.0937    5.3528   33.4456 O   0  5  0  0  0  0  0  0  0  0  0  0
    3.5627    6.9070   30.9068 C   0  0  0  0  0  0  0  0  0  0  0  0
    3.8008    5.4785   30.4033 C   0  0  0  0  0  0  0  0  0  0  0  0
    2.5084    4.9200   29.8179 C   0  0  0  0  0  0  0  0  0  0  0  0
    2.4139    3.4578   30.0997 N   0  0  0  0  0  0  0  0  0  0  0  0
    1.3532    2.9660   30.6937 C   0  0  0  0  0  0  0  0  0  0  0  0
    0.1659    3.4579   30.4402 N   0  0  0  0  0  0  0  0  0  0  0  0
    1.4798    1.9770   31.5390 N   0  3  0  0  0  0  0  0  0  0  0  0
    3.9056    7.3296   34.2811 O   0  0  0  0  0  0  0  0  0  0  0  0
  2  1  1  1  0  0  0
  2  5  1  0  0  0  0
  2  3  1  0  0  0  0
  3  4  1  0  0  0  0
  3 12  2  0  0  0  0
  5  6  1  0  0  0  0
  6  7  1  0  0  0  0
  7  8  1  0  0  0  0
  8  9  1  0  0  0  0
  9 10  1  0  0  0  0
  9 11  2  0  0  0  0
M  CHG  3   1   1   4  -1  11   1
M  END
>  <CHROM.1>
-87.39006327,-164.07353031,173.16316765,74.93311267,-145.15271398,126.02295797
2.64111379,5.30254986,31.67749814,0.34050556,-1.15329585,-0.66384202

>  <Name>
1koc cryst

>  <RI>
0

>  <Rbt.Current_Directory>
/home/itssahil/PROJECTS/Mol_Feturizer/New_Systems/rnas/1koc

>  <Rbt.Executable>
rbdock ($Id: //depot/dev/client3/rdock/2013.1/src/exe/rbdock.cxx#4 $)

>  <Rbt.Library>
libRbt.so (2013.1, Build901 2013/11/27)

>  <Rbt.Parameter_File>
/export/apps/rDock/src/rDock_2013.1_src/data/scripts/dock_solv.prm

>  <Rbt.Receptor>
prm/pocket_docking_2.prm

>  <SCORE>
-29.6919

>  <SCORE.INTER>
-31.432

>  <SCORE.INTER.CONST>
1

>  <SCORE.INTER.POLAR>
-5.18757

>  <SCORE.INTER.ROT>
5

>  <SCORE.INTER.SOLV>
28.191

>  <SCORE.INTER.VDW>
-19.9931

>  <SCORE.INTER.norm>
-2.61933

>  <SCORE.INTRA>
0.207116

>  <SCORE.INTRA.DIHEDRAL>
4.14133

>  <SCORE.INTRA.DIHEDRAL.0>
6.04201

>  <SCORE.INTRA.POLAR>
0

>  <SCORE.INTRA.POLAR.0>
0

>  <SCORE.INTRA.REPUL>
0

>  <SCORE.INTRA.REPUL.0>
0

>  <SCORE.INTRA.SOLV>
-0.718441

>  <SCORE.INTRA.SOLV.lig_0>
-71.0481

>  <SCORE.INTRA.VDW>
-1.50433

>  <SCORE.INTRA.VDW.0>
0.968882

>  <SCORE.INTRA.norm>
0.0172596

>  <SCORE.RESTR>
1.53304

>  <SCORE.RESTR.CAVITY>
1.53304

>  <SCORE.RESTR.norm>
0.127753

>  <SCORE.SYSTEM>
0

>  <SCORE.SYSTEM.CONST>
0

>  <SCORE.SYSTEM.DIHEDRAL>
0

>  <SCORE.SYSTEM.SOLV>
0

>  <SCORE.SYSTEM.norm>
0

>  <SCORE.heavy>
12

>  <SCORE.norm>
-2.47432

>  <SYMMETRIC_BONDS>
11 12 2
5 6 2

>  <RMSD>
1.732

$$$$
1koc cryst
 OpenBabel11021811393D
libRbt.so/2013.1/901 2013/11/27
 12 11  0  0  0  0  0  0  0  0999 V2000
    4.0056    7.9448   31.3545 N   0  3  0  0  0  0  0  0  0  0  0  0
    4.5210    6.6740   30.7609 C   0  0  2  0  0  0  0  0  0  0  0  0
    5.8746    6.9512   30.0780 C   0  0  0  0  0  0  0  0  0  0  0  0
    5.9902    7.9825   29.4330 O   0  5  0  0  0  0  0  0  0  0  0  0
    3.4857    6.1340   29.7378 C   0  0  0  0  0  0  0  0  0  0  0  0
    3.6907    4.6359   29.4840 C   0  0  0  0  0  0  0  0  0  0  0  0
    3.2874    3.8467   30.7248 C   0  0  0  0  0  0  0  0  0  0  0  0
    3.0142    2.4269   30.3565 N   0  0  0  0  0  0  0  0  0  0  0  0
    2.1664    1.7132   31.0576 C   0  0  0  0  0  0  0  0  0  0  0  0
    1.0905    2.2682   31.5581 N   0  0  0  0  0  0  0  0  0  0  0  0
    2.3924    0.4408   31.2542 N   0  3  0  0  0  0  0  0  0  0  0  0
    6.7672    6.1256   30.2009 O   0  0  0  0  0  0  0  0  0  0  0  0
  2  1  1  6  0  0  0
  2  5  1  0  0  0  0
  2  3  1  0  0  0  0
  3  4  1  0  0  0  0
  3 12  2  0  0  0  0
  5  6  1  0  0  0  0
  6  7  1  0  0  0  0
  7  8  1  0  0  0  0
  8  9  1  0  0  0  0
  9 10  1  0  0  0  0
  9 11  2  0  0  0  0
M  CHG  3   1   1   4  -1  11   1
M  END
>  <CHROM.1>
78.43801214,-159.35810131,-41.20696859,69.99681514,159.92699860,-151.87868535
3.85281751,4.77569236,30.51700551,1.00549854,0.37432273,0.06969368

>  <Name>
1koc cryst

>  <RI>
0

>  <Rbt.Current_Directory>
/home/itssahil/PROJECTS/Mol_Feturizer/New_Systems/rnas/1koc

>  <Rbt.Executable>
rbdock ($Id: //depot/dev/client3/rdock/2013.1/src/exe/rbdock.cxx#4 $)

>  <Rbt.Library>
libRbt.so (2013.1, Build901 2013/11/27)

>  <Rbt.Parameter_File>
/export/apps/rDock/src/rDock_2013.1_src/data/scripts/dock_solv.prm

>  <Rbt.Receptor>
prm/pocket_docking_4.prm

>  <SCORE>
-29.1619

>  <SCORE.INTER>
-27.6086

>  <SCORE.INTER.CONST>
1

>  <SCORE.INTER.POLAR>
-5.44965

>  <SCORE.INTER.ROT>
5

>  <SCORE.INTER.SOLV>
18.3864

>  <SCORE.INTER.VDW>
-13.3024

>  <SCORE.INTER.norm>
-2.30072

>  <SCORE.INTRA>
-1.55335

>  <SCORE.INTRA.DIHEDRAL>
1.31896

>  <SCORE.INTRA.DIHEDRAL.0>
6.04201

>  <SCORE.INTRA.POLAR>
0

>  <SCORE.INTRA.POLAR.0>
0

>  <SCORE.INTRA.REPUL>
0

>  <SCORE.INTRA.REPUL.0>
0

>  <SCORE.INTRA.SOLV>
-1.08695

>  <SCORE.INTRA.SOLV.lig_0>
-71.0481

>  <SCORE.INTRA.VDW>
-1.66935

>  <SCORE.INTRA.VDW.0>
0.968882

>  <SCORE.INTRA.norm>
-0.129445

>  <SCORE.RESTR>
0

>  <SCORE.RESTR.CAVITY>
0

>  <SCORE.RESTR.norm>
0

>  <SCORE.SYSTEM>
0

>  <SCORE.SYSTEM.CONST>
0

>  <SCORE.SYSTEM.DIHEDRAL>
0

>  <SCORE.SYSTEM.SOLV>
0

>  <SCORE.SYSTEM.norm>
0

>  <SCORE.heavy>
12

>  <SCORE.norm>
-2.43016

>  <SYMMETRIC_BONDS>
11 12 2
5 6 2

>  <RMSD>
1.740

$$$$
1koc cryst
 OpenBabel11021811393D
libRbt.so/2013.1/901 2013/11/27
 12 11  0  0  0  0  0  0  0  0999 V2000
    2.1198    8.2252   32.4934 N   0  3  0  0  0  0  0  0  0  0  0  0
    2.6621    6.8332   32.4616 C   0  0  2  0  0  0  0  0  0  0  0  0
    3.5931    6.6288   33.6728 C   0  0  0  0  0  0  0  0  0  0  0  0
    4.2591    5.6054   33.7170 O   0  5  0  0  0  0  0  0  0  0  0  0
    3.4310    6.6173   31.1303 C   0  0  0  0  0  0  0  0  0  0  0  0
    3.7604    5.1350   30.9177 C   0  0  0  0  0  0  0  0  0  0  0  0
    2.5121    4.3954   30.4490 C   0  0  0  0  0  0  0  0  0  0  0  0
    2.8309    2.9557   30.2209 N   0  0  0  0  0  0  0  0  0  0  0  0
    2.3889    2.0411   31.0503 C   0  0  0  0  0  0  0  0  0  0  0  0
    1.2063    2.1633   31.6003 N   0  0  0  0  0  0  0  0  0  0  0  0
    3.1292    0.9996   31.3262 N   0  3  0  0  0  0  0  0  0  0  0  0
    3.6169    7.4903   34.5392 O   0  0  0  0  0  0  0  0  0  0  0  0
  2  1  1  6  0  0  0
  2  5  1  0  0  0  0
  2  3  1  0  0  0  0
  3  4  1  0  0  0  0
  3 12  2  0  0  0  0
  5  6  1  0  0  0  0
  6  7  1  0  0  0  0
  7  8  1  0  0  0  0
  8  9  1  0  0  0  0
  9 10  1  0  0  0  0
  9 11  2  0  0  0  0
M  CHG  3   1   1   4  -1  11   1
M  END
>  <CHROM.1>
-84.63439727,-168.43714969,-170.88702559,77.17105126,179.17420277,107.80203940
2.94807472,4.93248223,31.98875171,1.19534762,-1.22446991,0.04792886

>  <Name>
1koc cryst

>  <RI>
0

>  <Rbt.Current_Directory>
/home/itssahil/PROJECTS/Mol_Feturizer/New_Systems/rnas/1koc

>  <Rbt.Executable>
rbdock ($Id: //depot/dev/client3/rdock/2013.1/src/exe/rbdock.cxx#4 $)

>  <Rbt.Library>
libRbt.so (2013.1, Build901 2013/11/27)

>  <Rbt.Parameter_File>
/export/apps/rDock/src/rDock_2013.1_src/data/scripts/dock_solv.prm

>  <Rbt.Receptor>
prm/pocket_docking_7.prm

>  <SCORE>
-38.2543

>  <SCORE.INTER>
-36.9674

>  <SCORE.INTER.CONST>
1

>  <SCORE.INTER.POLAR>
-6.68827

>  <SCORE.INTER.ROT>
5

>  <SCORE.INTER.SOLV>
30.4243

>  <SCORE.INTER.VDW>
-19.4255

>  <SCORE.INTER.norm>
-3.08062

>  <SCORE.INTRA>
-1.28688

>  <SCORE.INTRA.DIHEDRAL>
0.304265

>  <SCORE.INTRA.DIHEDRAL.0>
6.04201

>  <SCORE.INTRA.POLAR>
0

>  <SCORE.INTRA.POLAR.0>
0

>  <SCORE.INTRA.REPUL>
0

>  <SCORE.INTRA.REPUL.0>
0

>  <SCORE.INTRA.SOLV>
-0.813387

>  <SCORE.INTRA.SOLV.lig_0>
-71.0481

>  <SCORE.INTRA.VDW>
-1.03231

>  <SCORE.INTRA.VDW.0>
0.968882

>  <SCORE.INTRA.norm>
-0.10724

>  <SCORE.RESTR>
0

>  <SCORE.RESTR.CAVITY>
0

>  <SCORE.RESTR.norm>
0

>  <SCORE.SYSTEM>
0

>  <SCORE.SYSTEM.CONST>
0

>  <SCORE.SYSTEM.DIHEDRAL>
0

>  <SCORE.SYSTEM.SOLV>
0

>  <SCORE.SYSTEM.norm>
0

>  <SCORE.heavy>
12

>  <SCORE.norm>
-3.18786

>  <SYMMETRIC_BONDS>
11 12 2
5 6 2

>  <RMSD>
1.741

$$$$
1koc cryst
 OpenBabel11021811393D
libRbt.so/2013.1/901 2013/11/27
 12 11  0  0  0  0  0  0  0  0999 V2000
    2.2887    8.5916   32.5498 N   0  3  0  0  0  0  0  0  0  0  0  0
    2.7803    7.1831   32.6350 C   0  0  2  0  0  0  0  0  0  0  0  0
    4.3194    7.1823   32.5545 C   0  0  0  0  0  0  0  0  0  0  0  0
    4.8505    7.9182   31.7362 O   0  5  0  0  0  0  0  0  0  0  0  0
    2.1652    6.3586   31.4722 C   0  0  0  0  0  0  0  0  0  0  0  0
    2.7863    4.9586   31.3999 C   0  0  0  0  0  0  0  0  0  0  0  0
    2.2373    4.2172   30.1859 C   0  0  0  0  0  0  0  0  0  0  0  0
    2.7446    2.8141   30.1761 N   0  0  0  0  0  0  0  0  0  0  0  0
    2.3336    1.9560   31.0786 C   0  0  0  0  0  0  0  0  0  0  0  0
    1.0962    1.9892   31.5074 N   0  0  0  0  0  0  0  0  0  0  0  0
    3.1604    1.0597   31.5496 N   0  3  0  0  0  0  0  0  0  0  0  0
    4.9399    6.4405   33.3015 O   0  0  0  0  0  0  0  0  0  0  0  0
  2  1  1  6  0  0  0
  2  5  1  0  0  0  0
  2  3  1  0  0  0  0
  3  4  1  0  0  0  0
  3 12  2  0  0  0  0
  5  6  1  0  0  0  0
  6  7  1  0  0  0  0
  7  8  1  0  0  0  0
  8  9  1  0  0  0  0
  9 10  1  0  0  0  0
  9 11  2  0  0  0  0
M  CHG  3   1   1   4  -1  11   1
M  END
>  <CHROM.1>
-164.89125541,172.19512976,-42.50281745,-175.72303179,-175.04749086,69.18871515
2.97909298,5.07008550,31.69189062,1.33131376,-0.31145207,0.16167664

>  <Name>
1koc cryst

>  <RI>
0

>  <Rbt.Current_Directory>
/home/itssahil/PROJECTS/Mol_Feturizer/New_Systems/rnas/1koc

>  <Rbt.Executable>
rbdock ($Id: //depot/dev/client3/rdock/2013.1/src/exe/rbdock.cxx#4 $)

>  <Rbt.Library>
libRbt.so (2013.1, Build901 2013/11/27)

>  <Rbt.Parameter_File>
/export/apps/rDock/src/rDock_2013.1_src/data/scripts/dock_solv.prm

>  <Rbt.Receptor>
prm/pocket_docking_5.prm

>  <SCORE>
-39.7898

>  <SCORE.INTER>
-36.8753

>  <SCORE.INTER.CONST>
1

>  <SCORE.INTER.POLAR>
-6.54463

>  <SCORE.INTER.ROT>
5

>  <SCORE.INTER.SOLV>
24.0769

>  <SCORE.INTER.VDW>
-17.7271

>  <SCORE.INTER.norm>
-3.07294

>  <SCORE.INTRA>
-2.91444

>  <SCORE.INTRA.DIHEDRAL>
-1.69599

>  <SCORE.INTRA.DIHEDRAL.0>
6.04201

>  <SCORE.INTRA.POLAR>
0

>  <SCORE.INTRA.POLAR.0>
0

>  <SCORE.INTRA.REPUL>
0

>  <SCORE.INTRA.REPUL.0>
0

>  <SCORE.INTRA.SOLV>
-0.926866

>  <SCORE.INTRA.SOLV.lig_0>
-71.0481

>  <SCORE.INTRA.VDW>
-1.60301

>  <SCORE.INTRA.VDW.0>
0.968882

>  <SCORE.INTRA.norm>
-0.24287

>  <SCORE.RESTR>
0

>  <SCORE.RESTR.CAVITY>
0

>  <SCORE.RESTR.norm>
0

>  <SCORE.SYSTEM>
0

>  <SCORE.SYSTEM.CONST>
0

>  <SCORE.SYSTEM.DIHEDRAL>
0

>  <SCORE.SYSTEM.SOLV>
0

>  <SCORE.SYSTEM.norm>
0

>  <SCORE.heavy>
12

>  <SCORE.norm>
-3.31581

>  <SYMMETRIC_BONDS>
11 12 2
5 6 2

>  <RMSD>
1.758

$$$$
1koc cryst
 OpenBabel11021811393D
libRbt.so/2013.1/901 2013/11/27
 12 11  0  0  0  0  0  0  0  0999 V2000
    2.3812    8.6436   32.5122 N   0  3  0  0  0  0  0  0  0  0  0  0
    2.9743    7.2721   32.5164 C   0  0  2  0  0  0  0  0  0  0  0  0
    4.4515    7.3622   32.0859 C   0  0  0  0  0  0  0  0  0  0  0  0
    4.7220    8.0388   31.1051 O   0  5  0  0  0  0  0  0  0  0  0  0
    2.1694    6.3669   31.5453 C   0  0  0  0  0  0  0  0  0  0  0  0
    2.8210    4.9856   31.4109 C   0  0  0  0  0  0  0  0  0  0  0  0
    2.2410    4.2616   30.2007 C   0  0  0  0  0  0  0  0  0  0  0  0
    2.7331    2.8534   30.1680 N   0  0  0  0  0  0  0  0  0  0  0  0
    2.3105    1.9845   31.0547 C   0  0  0  0  0  0  0  0  0  0  0  0
    1.0725    2.0237   31.4810 N   0  0  0  0  0  0  0  0  0  0  0  0
    3.1264    1.0713   31.5121 N   0  3  0  0  0  0  0  0  0  0  0  0
    5.2842    6.7464   32.7345 O   0  0  0  0  0  0  0  0  0  0  0  0
  2  1  1  6  0  0  0
  2  5  1  0  0  0  0
  2  3  1  0  0  0  0
  3  4  1  0  0  0  0
  3 12  2  0  0  0  0
  5  6  1  0  0  0  0
  6  7  1  0  0  0  0
  7  8  1  0  0  0  0
  8  9  1  0  0  0  0
  9 10  1  0  0  0  0
  9 11  2  0  0  0  0
M  CHG  3   1   1   4  -1  11   1
M  END
>  <CHROM.1>
-57.25627363,174.51497457,-46.44250399,-165.19204862,-172.49052319,70.51299315
3.02637104,5.14875940,31.53784769,1.31929363,-0.06683498,0.16367520

>  <Name>
1koc cryst

>  <RI>
0

>  <Rbt.Current_Directory>
/home/itssahil/PROJECTS/Mol_Feturizer/New_Systems/rnas/1koc

>  <Rbt.Executable>
rbdock ($Id: //depot/dev/client3/rdock/2013.1/src/exe/rbdock.cxx#4 $)

>  <Rbt.Library>
libRbt.so (2013.1, Build901 2013/11/27)

>  <Rbt.Parameter_File>
/export/apps/rDock/src/rDock_2013.1_src/data/scripts/dock_solv.prm

>  <Rbt.Receptor>
prm/pocket_docking_3.prm

>  <SCORE>
-39.6988

>  <SCORE.INTER>
-36.7778

>  <SCORE.INTER.CONST>
1

>  <SCORE.INTER.POLAR>
-6.49121

>  <SCORE.INTER.ROT>
5

>  <SCORE.INTER.SOLV>
23.7625

>  <SCORE.INTER.VDW>
-17.7354

>  <SCORE.INTER.norm>
-3.06482

>  <SCORE.INTRA>
-2.95163

>  <SCORE.INTRA.DIHEDRAL>
-1.40078

>  <SCORE.INTRA.DIHEDRAL.0>
6.04201

>  <SCORE.INTRA.POLAR>
0

>  <SCORE.INTRA.POLAR.0>
0

>  <SCORE.INTRA.REPUL>
0

>  <SCORE.INTRA.REPUL.0>
0

>  <SCORE.INTRA.SOLV>
-0.870763

>  <SCORE.INTRA.SOLV.lig_0>
-71.0481

>  <SCORE.INTRA.VDW>
-1.81587

>  <SCORE.INTRA.VDW.0>
0.968882

>  <SCORE.INTRA.norm>
-0.24597

>  <SCORE.RESTR>
0.0307019

>  <SCORE.RESTR.CAVITY>
0.0307019

>  <SCORE.RESTR.norm>
0.00255849

>  <SCORE.SYSTEM>
0

>  <SCORE.SYSTEM.CONST>
0

>  <SCORE.SYSTEM.DIHEDRAL>
0

>  <SCORE.SYSTEM.SOLV>
0

>  <SCORE.SYSTEM.norm>
0

>  <SCORE.heavy>
12

>  <SCORE.norm>
-3.30823

>  <SYMMETRIC_BONDS>
11 12 2
5 6 2

>  <RMSD>
1.766

$$$$
1koc cryst
 OpenBabel11021811393D
libRbt.so/2013.1/901 2013/11/27
 12 11  0  0  0  0  0  0  0  0999 V2000
    3.7075    7.7152   31.5199 N   0  3  0  0  0  0  0  0  0  0  0  0
    4.4894    6.6824   30.7749 C   0  0  2  0  0  0  0  0  0  0  0  0
    5.7903    7.3197   30.2489 C   0  0  0  0  0  0  0  0  0  0  0  0
    6.2234    6.9331   29.1737 O   0  5  0  0  0  0  0  0  0  0  0  0
    3.6272    6.1384   29.6041 C   0  0  0  0  0  0  0  0  0  0  0  0
    3.8088    4.6245   29.4423 C   0  0  0  0  0  0  0  0  0  0  0  0
    3.2298    3.9069   30.6567 C   0  0  0  0  0  0  0  0  0  0  0  0
    2.9668    2.4766   30.3232 N   0  0  0  0  0  0  0  0  0  0  0  0
    2.1248    1.7739   31.0422 C   0  0  0  0  0  0  0  0  0  0  0  0
    1.0452    2.3329   31.5301 N   0  0  0  0  0  0  0  0  0  0  0  0
    2.3604    0.5083   31.2694 N   0  3  0  0  0  0  0  0  0  0  0  0
    6.3370    8.1727   30.9321 O   0  0  0  0  0  0  0  0  0  0  0  0
  2  1  1  6  0  0  0
  2  5  1  0  0  0  0
  2  3  1  0  0  0  0
  3  4  1  0  0  0  0
  3 12  2  0  0  0  0
  5  6  1  0  0  0  0
  6  7  1  0  0  0  0
  7  8  1  0  0  0  0
  8  9  1  0  0  0  0
  9 10  1  0  0  0  0
  9 11  2  0  0  0  0
M  CHG  3   1   1   4  -1  11   1
M  END
>  <CHROM.1>
-172.23359410,-140.38819224,-145.71078516,66.84302587,160.50493930,-159.60546941
3.79889989,4.89417018,30.56508889,0.91217037,0.62016076,0.30817984

>  <Name>
1koc cryst

>  <RI>
0

>  <Rbt.Current_Directory>
/home/itssahil/PROJECTS/Mol_Feturizer/New_Systems/rnas/1koc

>  <Rbt.Executable>
rbdock ($Id: //depot/dev/client3/rdock/2013.1/src/exe/rbdock.cxx#4 $)

>  <Rbt.Library>
libRbt.so (2013.1, Build901 2013/11/27)

>  <Rbt.Parameter_File>
/export/apps/rDock/src/rDock_2013.1_src/data/scripts/dock_solv.prm

>  <Rbt.Receptor>
prm/pocket_docking_8.prm

>  <SCORE>
-28.0565

>  <SCORE.INTER>
-28.0527

>  <SCORE.INTER.CONST>
1

>  <SCORE.INTER.POLAR>
-5.39792

>  <SCORE.INTER.ROT>
5

>  <SCORE.INTER.SOLV>
18.2915

>  <SCORE.INTER.VDW>
-13.7392

>  <SCORE.INTER.norm>
-2.33772

>  <SCORE.INTRA>
-0.00379239

>  <SCORE.INTRA.DIHEDRAL>
2.84804

>  <SCORE.INTRA.DIHEDRAL.0>
6.04201

>  <SCORE.INTRA.POLAR>
0

>  <SCORE.INTRA.POLAR.0>
0

>  <SCORE.INTRA.REPUL>
0

>  <SCORE.INTRA.REPUL.0>
0

>  <SCORE.INTRA.SOLV>
-1.00314

>  <SCORE.INTRA.SOLV.lig_0>
-71.0481

>  <SCORE.INTRA.VDW>
-0.926241

>  <SCORE.INTRA.VDW.0>
0.968882

>  <SCORE.INTRA.norm>
-0.000316033

>  <SCORE.RESTR>
0

>  <SCORE.RESTR.CAVITY>
0

>  <SCORE.RESTR.norm>
0

>  <SCORE.SYSTEM>
0

>  <SCORE.SYSTEM.CONST>
0

>  <SCORE.SYSTEM.DIHEDRAL>
0

>  <SCORE.SYSTEM.SOLV>
0

>  <SCORE.SYSTEM.norm>
0

>  <SCORE.heavy>
12

>  <SCORE.norm>
-2.33804

>  <SYMMETRIC_BONDS>
11 12 2
5 6 2

>  <RMSD>
1.766

$$$$
1koc cryst
 OpenBabel11021811393D
libRbt.so/2013.1/901 2013/11/27
 12 11  0  0  0  0  0  0  0  0999 V2000
    4.3871    7.6554   30.5638 N   0  3  0  0  0  0  0  0  0  0  0  0
    3.7750    6.2961   30.6658 C   0  0  2  0  0  0  0  0  0  0  0  0
    2.4544    6.3976   31.4540 C   0  0  0  0  0  0  0  0  0  0  0  0
    1.5740    5.5884   31.2031 O   0  5  0  0  0  0  0  0  0  0  0  0
    4.7716    5.3416   31.3770 C   0  0  0  0  0  0  0  0  0  0  0  0
    4.1840    3.9319   31.5126 C   0  0  0  0  0  0  0  0  0  0  0  0
    3.8457    3.3833   30.1307 C   0  0  0  0  0  0  0  0  0  0  0  0
    3.2420    2.0248   30.2579 N   0  0  0  0  0  0  0  0  0  0  0  0
    2.1885    1.8377   31.0161 C   0  0  0  0  0  0  0  0  0  0  0  0
    1.2591    2.7575   31.0954 N   0  0  0  0  0  0  0  0  0  0  0  0
    2.0617    0.7262   31.6925 N   0  3  0  0  0  0  0  0  0  0  0  0
    2.3406    7.2865   32.2848 O   0  0  0  0  0  0  0  0  0  0  0  0
  2  1  1  1  0  0  0
  2  5  1  0  0  0  0
  2  3  1  0  0  0  0
  3  4  1  0  0  0  0
  3 12  2  0  0  0  0
  5  6  1  0  0  0  0
  6  7  1  0  0  0  0
  7  8  1  0  0  0  0
  8  9  1  0  0  0  0
  9 10  1  0  0  0  0
  9 11  2  0  0  0  0
M  CHG  3   1   1   4  -1  11   1
M  END
>  <CHROM.1>
-56.60296658,179.69794458,151.06486098,58.65691859,-178.60373260,54.99007659
2.98894564,4.45758097,31.11110566,-1.35224112,-0.31204282,-3.04339070

>  <Name>
1koc cryst

>  <RI>
0

>  <Rbt.Current_Directory>
/home/itssahil/PROJECTS/Mol_Feturizer/New_Systems/rnas/1koc

>  <Rbt.Executable>
rbdock ($Id: //depot/dev/client3/rdock/2013.1/src/exe/rbdock.cxx#4 $)

>  <Rbt.Library>
libRbt.so (2013.1, Build901 2013/11/27)

>  <Rbt.Parameter_File>
/export/apps/rDock/src/rDock_2013.1_src/data/scripts/dock_solv.prm

>  <Rbt.Receptor>
prm/pocket_docking_3.prm

>  <SCORE>
-30.7895

>  <SCORE.INTER>
-26.846

>  <SCORE.INTER.CONST>
1

>  <SCORE.INTER.POLAR>
-4.78615

>  <SCORE.INTER.ROT>
5

>  <SCORE.INTER.SOLV>
24.2288

>  <SCORE.INTER.VDW>
-16.9531

>  <SCORE.INTER.norm>
-2.23717

>  <SCORE.INTRA>
-3.94348

>  <SCORE.INTRA.DIHEDRAL>
-2.54469

>  <SCORE.INTRA.DIHEDRAL.0>
6.04201

>  <SCORE.INTRA.POLAR>
-0.841146

>  <SCORE.INTRA.POLAR.0>
0

>  <SCORE.INTRA.REPUL>
0

>  <SCORE.INTRA.REPUL.0>
0

>  <SCORE.INTRA.SOLV>
2.97861

>  <SCORE.INTRA.SOLV.lig_0>
-71.0481

>  <SCORE.INTRA.VDW>
-1.30055

>  <SCORE.INTRA.VDW.0>
0.968882

>  <SCORE.INTRA.norm>
-0.328623

>  <SCORE.RESTR>
0

>  <SCORE.RESTR.CAVITY>
0

>  <SCORE.RESTR.norm>
0

>  <SCORE.SYSTEM>
0

>  <SCORE.SYSTEM.CONST>
0

>  <SCORE.SYSTEM.DIHEDRAL>
0

>  <SCORE.SYSTEM.SOLV>
0

>  <SCORE.SYSTEM.norm>
0

>  <SCORE.heavy>
12

>  <SCORE.norm>
-2.56579

>  <SYMMETRIC_BONDS>
11 12 2
5 6 2

>  <RMSD>
1.774

$$$$
1koc cryst
 OpenBabel11021811393D
libRbt.so/2013.1/901 2013/11/27
 12 11  0  0  0  0  0  0  0  0999 V2000
    2.1145    8.2034   32.4874 N   0  3  0  0  0  0  0  0  0  0  0  0
    2.6552    6.8104   32.4753 C   0  0  2  0  0  0  0  0  0  0  0  0
    3.5356    6.6023   33.7231 C   0  0  0  0  0  0  0  0  0  0  0  0
    4.2801    5.6336   33.7437 O   0  5  0  0  0  0  0  0  0  0  0  0
    3.4775    6.5953   31.1761 C   0  0  0  0  0  0  0  0  0  0  0  0
    3.7844    5.1092   30.9573 C   0  0  0  0  0  0  0  0  0  0  0  0
    2.5210    4.3873   30.5014 C   0  0  0  0  0  0  0  0  0  0  0  0
    2.8257    2.9515   30.2336 N   0  0  0  0  0  0  0  0  0  0  0  0
    2.3834    2.0195   31.0432 C   0  0  0  0  0  0  0  0  0  0  0  0
    1.2068    2.1372   31.6069 N   0  0  0  0  0  0  0  0  0  0  0  0
    3.1172    0.9652   31.2856 N   0  3  0  0  0  0  0  0  0  0  0  0
    3.4435    7.4053   34.6396 O   0  0  0  0  0  0  0  0  0  0  0  0
  2  1  1  6  0  0  0
  2  5  1  0  0  0  0
  2  3  1  0  0  0  0
  3  4  1  0  0  0  0
  3 12  2  0  0  0  0
  5  6  1  0  0  0  0
  6  7  1  0  0  0  0
  7  8  1  0  0  0  0
  8  9  1  0  0  0  0
  9 10  1  0  0  0  0
  9 11  2  0  0  0  0
M  CHG  3   1   1   4  -1  11   1
M  END
>  <CHROM.1>
38.01189919,-167.10525600,-164.97511628,73.89250851,177.72899138,108.66145703
2.93362752,4.90981248,32.01253169,1.16461355,-1.27136660,0.02145695

>  <Name>
1koc cryst

>  <RI>
0

>  <Rbt.Current_Directory>
/home/itssahil/PROJECTS/Mol_Feturizer/New_Systems/rnas/1koc

>  <Rbt.Executable>
rbdock ($Id: //depot/dev/client3/rdock/2013.1/src/exe/rbdock.cxx#4 $)

>  <Rbt.Library>
libRbt.so (2013.1, Build901 2013/11/27)

>  <Rbt.Parameter_File>
/export/apps/rDock/src/rDock_2013.1_src/data/scripts/dock_solv.prm

>  <Rbt.Receptor>
prm/pocket_docking_7.prm

>  <SCORE>
-38.336

>  <SCORE.INTER>
-36.8849

>  <SCORE.INTER.CONST>
1

>  <SCORE.INTER.POLAR>
-6.67908

>  <SCORE.INTER.ROT>
5

>  <SCORE.INTER.SOLV>
31.1136

>  <SCORE.INTER.VDW>
-19.6308

>  <SCORE.INTER.norm>
-3.07374

>  <SCORE.INTRA>
-1.45112

>  <SCORE.INTRA.DIHEDRAL>
-0.188655

>  <SCORE.INTRA.DIHEDRAL.0>
6.04201

>  <SCORE.INTRA.POLAR>
0

>  <SCORE.INTRA.POLAR.0>
0

>  <SCORE.INTRA.REPUL>
0

>  <SCORE.INTRA.REPUL.0>
0

>  <SCORE.INTRA.SOLV>
-0.817535

>  <SCORE.INTRA.SOLV.lig_0>
-71.0481

>  <SCORE.INTRA.VDW>
-0.948023

>  <SCORE.INTRA.VDW.0>
0.968882

>  <SCORE.INTRA.norm>
-0.120927

>  <SCORE.RESTR>
0

>  <SCORE.RESTR.CAVITY>
0

>  <SCORE.RESTR.norm>
0

>  <SCORE.SYSTEM>
0

>  <SCORE.SYSTEM.CONST>
0

>  <SCORE.SYSTEM.DIHEDRAL>
0

>  <SCORE.SYSTEM.SOLV>
0

>  <SCORE.SYSTEM.norm>
0

>  <SCORE.heavy>
12

>  <SCORE.norm>
-3.19466

>  <SYMMETRIC_BONDS>
11 12 2
5 6 2

>  <RMSD>
1.776

$$$$
1koc cryst
 OpenBabel11021811393D
libRbt.so/2013.1/901 2013/11/27
 12 11  0  0  0  0  0  0  0  0999 V2000
    3.6486    6.6984   33.5924 N   0  3  0  0  0  0  0  0  0  0  0  0
    4.4687    5.6637   32.8926 C   0  0  2  0  0  0  0  0  0  0  0  0
    5.6793    6.3474   32.2275 C   0  0  0  0  0  0  0  0  0  0  0  0
    5.4720    7.3336   31.5366 O   0  5  0  0  0  0  0  0  0  0  0  0
    3.5878    4.9470   31.8340 C   0  0  0  0  0  0  0  0  0  0  0  0
    4.2532    3.6546   31.3463 C   0  0  0  0  0  0  0  0  0  0  0  0
    3.4924    3.1102   30.1422 C   0  0  0  0  0  0  0  0  0  0  0  0
    3.0453    1.7129   30.4140 N   0  0  0  0  0  0  0  0  0  0  0  0
    2.1151    1.4783   31.3081 C   0  0  0  0  0  0  0  0  0  0  0  0
    1.1162    2.3125   31.4575 N   0  0  0  0  0  0  0  0  0  0  0  0
    2.1813    0.4047   32.0509 N   0  3  0  0  0  0  0  0  0  0  0  0
    6.7890    5.8691   32.4096 O   0  0  0  0  0  0  0  0  0  0  0  0
  2  1  1  6  0  0  0
  2  5  1  0  0  0  0
  2  3  1  0  0  0  0
  3  4  1  0  0  0  0
  3 12  2  0  0  0  0
  5  6  1  0  0  0  0
  6  7  1  0  0  0  0
  7  8  1  0  0  0  0
  8  9  1  0  0  0  0
  9 10  1  0  0  0  0
  9 11  2  0  0  0  0
M  CHG  3   1   1   4  -1  11   1
M  END
>  <CHROM.1>
59.48437723,-165.36395756,-49.70481992,-170.02165508,-123.36637113,68.91700324
3.80546319,4.14552965,31.79299298,0.95646786,0.45729443,0.52729805

>  <Name>
1koc cryst

>  <RI>
0

>  <Rbt.Current_Directory>
/home/itssahil/PROJECTS/Mol_Feturizer/New_Systems/rnas/1koc

>  <Rbt.Executable>
rbdock ($Id: //depot/dev/client3/rdock/2013.1/src/exe/rbdock.cxx#4 $)

>  <Rbt.Library>
libRbt.so (2013.1, Build901 2013/11/27)

>  <Rbt.Parameter_File>
/export/apps/rDock/src/rDock_2013.1_src/data/scripts/dock_solv.prm

>  <Rbt.Receptor>
prm/pocket_docking_3.prm

>  <SCORE>
-26.5594

>  <SCORE.INTER>
-25.7242

>  <SCORE.INTER.CONST>
1

>  <SCORE.INTER.POLAR>
-4.8894

>  <SCORE.INTER.ROT>
5

>  <SCORE.INTER.SOLV>
20.9085

>  <SCORE.INTER.VDW>
-14.7543

>  <SCORE.INTER.norm>
-2.14369

>  <SCORE.INTRA>
-0.835147

>  <SCORE.INTRA.DIHEDRAL>
3.99636

>  <SCORE.INTRA.DIHEDRAL.0>
6.04201

>  <SCORE.INTRA.POLAR>
0

>  <SCORE.INTRA.POLAR.0>
0

>  <SCORE.INTRA.REPUL>
0

>  <SCORE.INTRA.REPUL.0>
0

>  <SCORE.INTRA.SOLV>
-0.873248

>  <SCORE.INTRA.SOLV.lig_0>
-71.0481

>  <SCORE.INTRA.VDW>
-2.3967

>  <SCORE.INTRA.VDW.0>
0.968882

>  <SCORE.INTRA.norm>
-0.0695956

>  <SCORE.RESTR>
0

>  <SCORE.RESTR.CAVITY>
0

>  <SCORE.RESTR.norm>
0

>  <SCORE.SYSTEM>
0

>  <SCORE.SYSTEM.CONST>
0

>  <SCORE.SYSTEM.DIHEDRAL>
0

>  <SCORE.SYSTEM.SOLV>
0

>  <SCORE.SYSTEM.norm>
0

>  <SCORE.heavy>
12

>  <SCORE.norm>
-2.21328

>  <SYMMETRIC_BONDS>
11 12 2
5 6 2

>  <RMSD>
1.777

$$$$
1koc cryst
 OpenBabel11021811393D
libRbt.so/2013.1/901 2013/11/27
 12 11  0  0  0  0  0  0  0  0999 V2000
    3.1966    6.6688   31.9191 N   0  3  0  0  0  0  0  0  0  0  0  0
    4.2618    6.7129   30.8721 C   0  0  2  0  0  0  0  0  0  0  0  0
    4.6472    8.1818   30.6090 C   0  0  0  0  0  0  0  0  0  0  0  0
    4.2278    9.0311   31.3810 O   0  5  0  0  0  0  0  0  0  0  0  0
    3.7308    6.0401   29.5777 C   0  0  0  0  0  0  0  0  0  0  0  0
    4.0020    4.5311   29.5893 C   0  0  0  0  0  0  0  0  0  0  0  0
    3.1572    3.8675   30.6714 C   0  0  0  0  0  0  0  0  0  0  0  0
    2.9317    2.4325   30.3303 N   0  0  0  0  0  0  0  0  0  0  0  0
    2.1027    1.7063   31.0410 C   0  0  0  0  0  0  0  0  0  0  0  0
    1.0066    2.2365   31.5243 N   0  0  0  0  0  0  0  0  0  0  0  0
    2.3679    0.4459   31.2645 N   0  3  0  0  0  0  0  0  0  0  0  0
    5.3435    8.4346   29.6372 O   0  0  0  0  0  0  0  0  0  0  0  0
  2  1  1  1  0  0  0
  2  5  1  0  0  0  0
  2  3  1  0  0  0  0
  3  4  1  0  0  0  0
  3 12  2  0  0  0  0
  5  6  1  0  0  0  0
  6  7  1  0  0  0  0
  7  8  1  0  0  0  0
  8  9  1  0  0  0  0
  9 10  1  0  0  0  0
  9 11  2  0  0  0  0
M  CHG  3   1   1   4  -1  11   1
M  END
>  <CHROM.1>
-47.07458322,-88.30445475,11.03539702,67.63918112,155.16215046,-172.09222992
3.39063541,5.02370285,30.73064131,1.02254697,0.85428819,0.36518038

>  <Name>
1koc cryst

>  <RI>
0

>  <Rbt.Current_Directory>
/home/itssahil/PROJECTS/Mol_Feturizer/New_Systems/rnas/1koc

>  <Rbt.Executable>
rbdock ($Id: //depot/dev/client3/rdock/2013.1/src/exe/rbdock.cxx#4 $)

>  <Rbt.Library>
libRbt.so (2013.1, Build901 2013/11/27)

>  <Rbt.Parameter_File>
/export/apps/rDock/src/rDock_2013.1_src/data/scripts/dock_solv.prm

>  <Rbt.Receptor>
prm/pocket_docking_5.prm

>  <SCORE>
-23.3043

>  <SCORE.INTER>
-24.085

>  <SCORE.INTER.CONST>
1

>  <SCORE.INTER.POLAR>
-4.37576

>  <SCORE.INTER.ROT>
5

>  <SCORE.INTER.SOLV>
20.9302

>  <SCORE.INTER.VDW>
-15.3809

>  <SCORE.INTER.norm>
-2.00708

>  <SCORE.INTRA>
0.78068

>  <SCORE.INTRA.DIHEDRAL>
2.4014

>  <SCORE.INTRA.DIHEDRAL.0>
6.04201

>  <SCORE.INTRA.POLAR>
0

>  <SCORE.INTRA.POLAR.0>
0

>  <SCORE.INTRA.REPUL>
0

>  <SCORE.INTRA.REPUL.0>
0

>  <SCORE.INTRA.SOLV>
0.154378

>  <SCORE.INTRA.SOLV.lig_0>
-71.0481

>  <SCORE.INTRA.VDW>
-0.497209

>  <SCORE.INTRA.VDW.0>
0.968882

>  <SCORE.INTRA.norm>
0.0650567

>  <SCORE.RESTR>
0

>  <SCORE.RESTR.CAVITY>
0

>  <SCORE.RESTR.norm>
0

>  <SCORE.SYSTEM>
0

>  <SCORE.SYSTEM.CONST>
0

>  <SCORE.SYSTEM.DIHEDRAL>
0

>  <SCORE.SYSTEM.SOLV>
0

>  <SCORE.SYSTEM.norm>
0

>  <SCORE.heavy>
12

>  <SCORE.norm>
-1.94203

>  <SYMMETRIC_BONDS>
11 12 2
5 6 2

>  <RMSD>
1.787

$$$$
1koc cryst
 OpenBabel11021811393D
libRbt.so/2013.1/901 2013/11/27
 12 11  0  0  0  0  0  0  0  0999 V2000
    1.6587    7.4726   32.1114 N   0  3  0  0  0  0  0  0  0  0  0  0
    2.8299    6.6945   32.6170 C   0  0  2  0  0  0  0  0  0  0  0  0
    3.8185    7.6607   33.2988 C   0  0  0  0  0  0  0  0  0  0  0  0
    3.8582    7.6720   34.5200 O   0  5  0  0  0  0  0  0  0  0  0  0
    3.5052    5.9610   31.4270 C   0  0  0  0  0  0  0  0  0  0  0  0
    3.4152    4.4395   31.5941 C   0  0  0  0  0  0  0  0  0  0  0  0
    2.9085    3.8116   30.3003 C   0  0  0  0  0  0  0  0  0  0  0  0
    2.7419    2.3400   30.4818 N   0  0  0  0  0  0  0  0  0  0  0  0
    1.7857    1.8722   31.2476 C   0  0  0  0  0  0  0  0  0  0  0  0
    0.6211    2.4703   31.2910 N   0  0  0  0  0  0  0  0  0  0  0  0
    1.9931    0.8010   31.9675 N   0  3  0  0  0  0  0  0  0  0  0  0
    4.5094    8.3792   32.5920 O   0  0  0  0  0  0  0  0  0  0  0  0
  2  1  1  6  0  0  0
  2  5  1  0  0  0  0
  2  3  1  0  0  0  0
  3  4  1  0  0  0  0
  3 12  2  0  0  0  0
  5  6  1  0  0  0  0
  6  7  1  0  0  0  0
  7  8  1  0  0  0  0
  8  9  1  0  0  0  0
  9 10  1  0  0  0  0
  9 11  2  0  0  0  0
M  CHG  3   1   1   4  -1  11   1
M  END
>  <CHROM.1>
-58.62368733,-116.23291334,104.28119324,131.26568575,-176.68284962,69.99836728
2.77537532,4.97779310,31.96474332,1.28401586,0.35102603,0.41189984

>  <Name>
1koc cryst

>  <RI>
0

>  <Rbt.Current_Directory>
/home/itssahil/PROJECTS/Mol_Feturizer/New_Systems/rnas/1koc

>  <Rbt.Executable>
rbdock ($Id: //depot/dev/client3/rdock/2013.1/src/exe/rbdock.cxx#4 $)

>  <Rbt.Library>
libRbt.so (2013.1, Build901 2013/11/27)

>  <Rbt.Parameter_File>
/export/apps/rDock/src/rDock_2013.1_src/data/scripts/dock_solv.prm

>  <Rbt.Receptor>
prm/pocket_docking_8.prm

>  <SCORE>
-31.585

>  <SCORE.INTER>
-32.8674

>  <SCORE.INTER.CONST>
1

>  <SCORE.INTER.POLAR>
-5.97455

>  <SCORE.INTER.ROT>
5

>  <SCORE.INTER.SOLV>
29.009

>  <SCORE.INTER.VDW>
-18.5994

>  <SCORE.INTER.norm>
-2.73895

>  <SCORE.INTRA>
1.28235

>  <SCORE.INTRA.DIHEDRAL>
8.12128

>  <SCORE.INTRA.DIHEDRAL.0>
6.04201

>  <SCORE.INTRA.POLAR>
0

>  <SCORE.INTRA.POLAR.0>
0

>  <SCORE.INTRA.REPUL>
0

>  <SCORE.INTRA.REPUL.0>
0

>  <SCORE.INTRA.SOLV>
-1.39932

>  <SCORE.INTRA.SOLV.lig_0>
-71.0481

>  <SCORE.INTRA.VDW>
-2.07863

>  <SCORE.INTRA.VDW.0>
0.968882

>  <SCORE.INTRA.norm>
0.106863

>  <SCORE.RESTR>
0

>  <SCORE.RESTR.CAVITY>
0

>  <SCORE.RESTR.norm>
0

>  <SCORE.SYSTEM>
0

>  <SCORE.SYSTEM.CONST>
0

>  <SCORE.SYSTEM.DIHEDRAL>
0

>  <SCORE.SYSTEM.SOLV>
0

>  <SCORE.SYSTEM.norm>
0

>  <SCORE.heavy>
12

>  <SCORE.norm>
-2.63208

>  <SYMMETRIC_BONDS>
11 12 2
5 6 2

>  <RMSD>
1.789

$$$$
1koc cryst
 OpenBabel11021811393D
libRbt.so/2013.1/901 2013/11/27
 12 11  0  0  0  0  0  0  0  0999 V2000
    5.4051    6.4386   28.1000 N   0  3  0  0  0  0  0  0  0  0  0  0
    4.9832    5.6800   29.3163 C   0  0  2  0  0  0  0  0  0  0  0  0
    5.5487    6.3811   30.5670 C   0  0  0  0  0  0  0  0  0  0  0  0
    5.4842    5.7890   31.6339 O   0  5  0  0  0  0  0  0  0  0  0  0
    5.5084    4.2226   29.2143 C   0  0  0  0  0  0  0  0  0  0  0  0
    4.9092    3.3419   30.3170 C   0  0  0  0  0  0  0  0  0  0  0  0
    3.4178    3.1497   30.0647 C   0  0  0  0  0  0  0  0  0  0  0  0
    3.0275    1.7437   30.3764 N   0  0  0  0  0  0  0  0  0  0  0  0
    2.1130    1.4968   31.2833 C   0  0  0  0  0  0  0  0  0  0  0  0
    1.0832    2.2951   31.4182 N   0  0  0  0  0  0  0  0  0  0  0  0
    2.2261    0.4466   32.0534 N   0  3  0  0  0  0  0  0  0  0  0  0
    6.0250    7.4993   30.4407 O   0  0  0  0  0  0  0  0  0  0  0  0
  2  1  1  6  0  0  0
  2  5  1  0  0  0  0
  2  3  1  0  0  0  0
  3  4  1  0  0  0  0
  3 12  2  0  0  0  0
  5  6  1  0  0  0  0
  6  7  1  0  0  0  0
  7  8  1  0  0  0  0
  8  9  1  0  0  0  0
  9 10  1  0  0  0  0
  9 11  2  0  0  0  0
M  CHG  3   1   1   4  -1  11   1
M  END
>  <CHROM.1>
-70.37053590,-170.52737591,-168.67584121,68.47668061,140.10350782,121.13663540
4.14157643,4.05678789,30.39473247,-0.04260228,-0.98169163,-1.92879607

>  <Name>
1koc cryst

>  <RI>
0

>  <Rbt.Current_Directory>
/home/itssahil/PROJECTS/Mol_Feturizer/New_Systems/rnas/1koc

>  <Rbt.Executable>
rbdock ($Id: //depot/dev/client3/rdock/2013.1/src/exe/rbdock.cxx#4 $)

>  <Rbt.Library>
libRbt.so (2013.1, Build901 2013/11/27)

>  <Rbt.Parameter_File>
/export/apps/rDock/src/rDock_2013.1_src/data/scripts/dock_solv.prm

>  <Rbt.Receptor>
prm/pocket_docking_5.prm

>  <SCORE>
-29.4251

>  <SCORE.INTER>
-29.4575

>  <SCORE.INTER.CONST>
1

>  <SCORE.INTER.POLAR>
-5.89749

>  <SCORE.INTER.ROT>
5

>  <SCORE.INTER.SOLV>
19.9611

>  <SCORE.INTER.VDW>
-13.5671

>  <SCORE.INTER.norm>
-2.45479

>  <SCORE.INTRA>
0.0324131

>  <SCORE.INTRA.DIHEDRAL>
2.38687

>  <SCORE.INTRA.DIHEDRAL.0>
6.04201

>  <SCORE.INTRA.POLAR>
0

>  <SCORE.INTRA.POLAR.0>
0

>  <SCORE.INTRA.REPUL>
0

>  <SCORE.INTRA.REPUL.0>
0

>  <SCORE.INTRA.SOLV>
-0.65312

>  <SCORE.INTRA.SOLV.lig_0>
-71.0481

>  <SCORE.INTRA.VDW>
-0.834464

>  <SCORE.INTRA.VDW.0>
0.968882

>  <SCORE.INTRA.norm>
0.00270109

>  <SCORE.RESTR>
0

>  <SCORE.RESTR.CAVITY>
0

>  <SCORE.RESTR.norm>
0

>  <SCORE.SYSTEM>
0

>  <SCORE.SYSTEM.CONST>
0

>  <SCORE.SYSTEM.DIHEDRAL>
0

>  <SCORE.SYSTEM.SOLV>
0

>  <SCORE.SYSTEM.norm>
0

>  <SCORE.heavy>
12

>  <SCORE.norm>
-2.45209

>  <SYMMETRIC_BONDS>
11 12 2
5 6 2

>  <RMSD>
1.810

$$$$
1koc cryst
 OpenBabel11021811393D
libRbt.so/2013.1/901 2013/11/27
 12 11  0  0  0  0  0  0  0  0999 V2000
    2.1598    8.5625   32.5699 N   0  3  0  0  0  0  0  0  0  0  0  0
    2.8319    7.2283   32.5406 C   0  0  2  0  0  0  0  0  0  0  0  0
    4.3004    7.4146   32.1114 C   0  0  0  0  0  0  0  0  0  0  0  0
    4.5261    8.0975   31.1236 O   0  5  0  0  0  0  0  0  0  0  0  0
    2.0791    6.3013   31.5486 C   0  0  0  0  0  0  0  0  0  0  0  0
    2.7924    4.9516   31.4052 C   0  0  0  0  0  0  0  0  0  0  0  0
    2.2630    4.2210   30.1761 C   0  0  0  0  0  0  0  0  0  0  0  0
    2.7606    2.8143   30.1685 N   0  0  0  0  0  0  0  0  0  0  0  0
    2.3442    1.9607   31.0728 C   0  0  0  0  0  0  0  0  0  0  0  0
    1.1074    2.0032   31.5023 N   0  0  0  0  0  0  0  0  0  0  0  0
    3.1652    1.0596   31.5449 N   0  3  0  0  0  0  0  0  0  0  0  0
    5.1719    6.8644   32.7680 O   0  0  0  0  0  0  0  0  0  0  0  0
  2  1  1  6  0  0  0
  2  5  1  0  0  0  0
  2  3  1  0  0  0  0
  3  4  1  0  0  0  0
  3 12  2  0  0  0  0
  5  6  1  0  0  0  0
  6  7  1  0  0  0  0
  7  8  1  0  0  0  0
  8  9  1  0  0  0  0
  9 10  1  0  0  0  0
  9 11  2  0  0  0  0
M  CHG  3   1   1   4  -1  11   1
M  END
>  <CHROM.1>
-176.99997111,175.81707352,-48.53842893,-164.97182780,-169.60568088,67.92377228
2.95912039,5.13808867,31.55604494,1.35268634,-0.04504398,0.17362887

>  <Name>
1koc cryst

>  <RI>
0

>  <Rbt.Current_Directory>
/home/itssahil/PROJECTS/Mol_Feturizer/New_Systems/rnas/1koc

>  <Rbt.Executable>
rbdock ($Id: //depot/dev/client3/rdock/2013.1/src/exe/rbdock.cxx#4 $)

>  <Rbt.Library>
libRbt.so (2013.1, Build901 2013/11/27)

>  <Rbt.Parameter_File>
/export/apps/rDock/src/rDock_2013.1_src/data/scripts/dock_solv.prm

>  <Rbt.Receptor>
prm/pocket_docking_8.prm

>  <SCORE>
-39.9688

>  <SCORE.INTER>
-37.0945

>  <SCORE.INTER.CONST>
1

>  <SCORE.INTER.POLAR>
-6.54932

>  <SCORE.INTER.ROT>
5

>  <SCORE.INTER.SOLV>
24.9766

>  <SCORE.INTER.VDW>
-18.1574

>  <SCORE.INTER.norm>
-3.09121

>  <SCORE.INTRA>
-2.87438

>  <SCORE.INTRA.DIHEDRAL>
-1.22616

>  <SCORE.INTRA.DIHEDRAL.0>
6.04201

>  <SCORE.INTRA.POLAR>
0

>  <SCORE.INTRA.POLAR.0>
0

>  <SCORE.INTRA.REPUL>
0

>  <SCORE.INTRA.REPUL.0>
0

>  <SCORE.INTRA.SOLV>
-0.852587

>  <SCORE.INTRA.SOLV.lig_0>
-71.0481

>  <SCORE.INTRA.VDW>
-1.835

>  <SCORE.INTRA.VDW.0>
0.968882

>  <SCORE.INTRA.norm>
-0.239532

>  <SCORE.RESTR>
0

>  <SCORE.RESTR.CAVITY>
0

>  <SCORE.RESTR.norm>
0

>  <SCORE.SYSTEM>
0

>  <SCORE.SYSTEM.CONST>
0

>  <SCORE.SYSTEM.DIHEDRAL>
0

>  <SCORE.SYSTEM.SOLV>
0

>  <SCORE.SYSTEM.norm>
0

>  <SCORE.heavy>
12

>  <SCORE.norm>
-3.33074

>  <SYMMETRIC_BONDS>
11 12 2
5 6 2

>  <RMSD>
1.818

$$$$
1koc cryst
 OpenBabel11021811393D
libRbt.so/2013.1/901 2013/11/27
 12 11  0  0  0  0  0  0  0  0999 V2000
    4.4119    6.6012   27.8968 N   0  3  0  0  0  0  0  0  0  0  0  0
    4.1973    5.7938   29.1358 C   0  0  2  0  0  0  0  0  0  0  0  0
    4.4583    6.6837   30.3668 C   0  0  0  0  0  0  0  0  0  0  0  0
    4.4313    7.8957   30.2135 O   0  5  0  0  0  0  0  0  0  0  0  0
    5.1582    4.5745   29.1210 C   0  0  0  0  0  0  0  0  0  0  0  0
    4.7662    3.5503   30.1925 C   0  0  0  0  0  0  0  0  0  0  0  0
    3.2627    3.3024   30.1379 C   0  0  0  0  0  0  0  0  0  0  0  0
    2.9741    1.8678   30.4293 N   0  0  0  0  0  0  0  0  0  0  0  0
    2.0379    1.5428   31.2881 C   0  0  0  0  0  0  0  0  0  0  0  0
    0.9403    2.2531   31.3700 N   0  0  0  0  0  0  0  0  0  0  0  0
    2.1975    0.5023   32.0631 N   0  3  0  0  0  0  0  0  0  0  0  0
    4.6912    6.1414   31.4368 O   0  0  0  0  0  0  0  0  0  0  0  0
  2  1  1  6  0  0  0
  2  5  1  0  0  0  0
  2  3  1  0  0  0  0
  3  4  1  0  0  0  0
  3 12  2  0  0  0  0
  5  6  1  0  0  0  0
  6  7  1  0  0  0  0
  7  8  1  0  0  0  0
  8  9  1  0  0  0  0
  9 10  1  0  0  0  0
  9 11  2  0  0  0  0
M  CHG  3   1   1   4  -1  11   1
M  END
>  <CHROM.1>
-83.74536559,-167.07407148,19.00740755,46.67823306,143.71564660,132.56491489
3.61621661,4.24237800,30.29871016,-0.68312279,-1.01575808,-2.66977677

>  <Name>
1koc cryst

>  <RI>
0

>  <Rbt.Current_Directory>
/home/itssahil/PROJECTS/Mol_Feturizer/New_Systems/rnas/1koc

>  <Rbt.Executable>
rbdock ($Id: //depot/dev/client3/rdock/2013.1/src/exe/rbdock.cxx#4 $)

>  <Rbt.Library>
libRbt.so (2013.1, Build901 2013/11/27)

>  <Rbt.Parameter_File>
/export/apps/rDock/src/rDock_2013.1_src/data/scripts/dock_solv.prm

>  <Rbt.Receptor>
prm/pocket_docking_7.prm

>  <SCORE>
-35.4255

>  <SCORE.INTER>
-37.3869

>  <SCORE.INTER.CONST>
1

>  <SCORE.INTER.POLAR>
-6.94132

>  <SCORE.INTER.ROT>
5

>  <SCORE.INTER.SOLV>
25.1203

>  <SCORE.INTER.VDW>
-17.0936

>  <SCORE.INTER.norm>
-3.11557

>  <SCORE.INTRA>
1.96134

>  <SCORE.INTRA.DIHEDRAL>
3.56366

>  <SCORE.INTRA.DIHEDRAL.0>
6.04201

>  <SCORE.INTRA.POLAR>
0

>  <SCORE.INTRA.POLAR.0>
0

>  <SCORE.INTRA.REPUL>
0

>  <SCORE.INTRA.REPUL.0>
0

>  <SCORE.INTRA.SOLV>
-0.541621

>  <SCORE.INTRA.SOLV.lig_0>
-71.0481

>  <SCORE.INTRA.VDW>
0.450321

>  <SCORE.INTRA.VDW.0>
0.968882

>  <SCORE.INTRA.norm>
0.163445

>  <SCORE.RESTR>
0

>  <SCORE.RESTR.CAVITY>
0

>  <SCORE.RESTR.norm>
0

>  <SCORE.SYSTEM>
0

>  <SCORE.SYSTEM.CONST>
0

>  <SCORE.SYSTEM.DIHEDRAL>
0

>  <SCORE.SYSTEM.SOLV>
0

>  <SCORE.SYSTEM.norm>
0

>  <SCORE.heavy>
12

>  <SCORE.norm>
-2.95213

>  <SYMMETRIC_BONDS>
11 12 2
5 6 2

>  <RMSD>
1.820

$$$$
1koc cryst
 OpenBabel11021811393D
libRbt.so/2013.1/901 2013/11/27
 12 11  0  0  0  0  0  0  0  0999 V2000
    1.8244    7.1079   32.3650 N   0  3  0  0  0  0  0  0  0  0  0  0
    3.2864    6.7999   32.3374 C   0  0  2  0  0  0  0  0  0  0  0  0
    4.0548    7.9489   33.0192 C   0  0  0  0  0  0  0  0  0  0  0  0
    4.6326    7.7080   34.0686 O   0  5  0  0  0  0  0  0  0  0  0  0
    3.7421    6.6279   30.8633 C   0  0  0  0  0  0  0  0  0  0  0  0
    3.9997    5.1527   30.5342 C   0  0  0  0  0  0  0  0  0  0  0  0
    2.6831    4.3841   30.5644 C   0  0  0  0  0  0  0  0  0  0  0  0
    2.9262    2.9484   30.2391 N   0  0  0  0  0  0  0  0  0  0  0  0
    2.4415    2.0045   31.0098 C   0  0  0  0  0  0  0  0  0  0  0  0
    1.2694    2.1502   31.5762 N   0  0  0  0  0  0  0  0  0  0  0  0
    3.1284    0.9105   31.2103 N   0  3  0  0  0  0  0  0  0  0  0  0
    4.0441    9.0499   32.4892 O   0  0  0  0  0  0  0  0  0  0  0  0
  2  1  1  6  0  0  0
  2  5  1  0  0  0  0
  2  3  1  0  0  0  0
  3  4  1  0  0  0  0
  3 12  2  0  0  0  0
  5  6  1  0  0  0  0
  6  7  1  0  0  0  0
  7  8  1  0  0  0  0
  8  9  1  0  0  0  0
  9 10  1  0  0  0  0
  9 11  2  0  0  0  0
M  CHG  3   1   1   4  -1  11   1
M  END
>  <CHROM.1>
57.12372101,-106.39025139,113.61834618,67.43963525,179.76231226,130.00918656
3.14186831,5.23099874,31.70990332,1.26559638,0.80489862,0.51923334

>  <Name>
1koc cryst

>  <RI>
0

>  <Rbt.Current_Directory>
/home/itssahil/PROJECTS/Mol_Feturizer/New_Systems/rnas/1koc

>  <Rbt.Executable>
rbdock ($Id: //depot/dev/client3/rdock/2013.1/src/exe/rbdock.cxx#4 $)

>  <Rbt.Library>
libRbt.so (2013.1, Build901 2013/11/27)

>  <Rbt.Parameter_File>
/export/apps/rDock/src/rDock_2013.1_src/data/scripts/dock_solv.prm

>  <Rbt.Receptor>
prm/pocket_docking_6.prm

>  <SCORE>
-25.2408

>  <SCORE.INTER>
-24.107

>  <SCORE.INTER.CONST>
1

>  <SCORE.INTER.POLAR>
-4.14459

>  <SCORE.INTER.ROT>
5

>  <SCORE.INTER.SOLV>
26.0005

>  <SCORE.INTER.VDW>
-17.8562

>  <SCORE.INTER.norm>
-2.00891

>  <SCORE.INTRA>
-1.1338

>  <SCORE.INTRA.DIHEDRAL>
2.15809

>  <SCORE.INTRA.DIHEDRAL.0>
6.04201

>  <SCORE.INTRA.POLAR>
0

>  <SCORE.INTRA.POLAR.0>
0

>  <SCORE.INTRA.REPUL>
0

>  <SCORE.INTRA.REPUL.0>
0

>  <SCORE.INTRA.SOLV>
-0.843608

>  <SCORE.INTRA.SOLV.lig_0>
-71.0481

>  <SCORE.INTRA.VDW>
-1.79104

>  <SCORE.INTRA.VDW.0>
0.968882

>  <SCORE.INTRA.norm>
-0.0944835

>  <SCORE.RESTR>
0

>  <SCORE.RESTR.CAVITY>
0

>  <SCORE.RESTR.norm>
0

>  <SCORE.SYSTEM>
0

>  <SCORE.SYSTEM.CONST>
0

>  <SCORE.SYSTEM.DIHEDRAL>
0

>  <SCORE.SYSTEM.SOLV>
0

>  <SCORE.SYSTEM.norm>
0

>  <SCORE.heavy>
12

>  <SCORE.norm>
-2.1034

>  <SYMMETRIC_BONDS>
11 12 2
5 6 2

>  <RMSD>
1.832

$$$$
1koc cryst
 OpenBabel11021811393D
libRbt.so/2013.1/901 2013/11/27
 12 11  0  0  0  0  0  0  0  0999 V2000
    4.4612    6.6784   27.8731 N   0  3  0  0  0  0  0  0  0  0  0  0
    4.1701    5.9202   29.1274 C   0  0  2  0  0  0  0  0  0  0  0  0
    3.8747    6.9205   30.2621 C   0  0  0  0  0  0  0  0  0  0  0  0
    3.0484    6.6033   31.1046 O   0  5  0  0  0  0  0  0  0  0  0  0
    5.3926    5.0301   29.4790 C   0  0  0  0  0  0  0  0  0  0  0  0
    4.9840    3.5581   29.6088 C   0  0  0  0  0  0  0  0  0  0  0  0
    3.8720    3.4249   30.6436 C   0  0  0  0  0  0  0  0  0  0  0  0
    3.4742    1.9932   30.7795 N   0  0  0  0  0  0  0  0  0  0  0  0
    2.2743    1.6777   31.2042 C   0  0  0  0  0  0  0  0  0  0  0  0
    1.2401    2.4067   30.8652 N   0  0  0  0  0  0  0  0  0  0  0  0
    2.1077    0.6281   31.9654 N   0  3  0  0  0  0  0  0  0  0  0  0
    4.4688    7.9883   30.2645 O   0  0  0  0  0  0  0  0  0  0  0  0
  2  1  1  6  0  0  0
  2  5  1  0  0  0  0
  2  3  1  0  0  0  0
  3  4  1  0  0  0  0
  3 12  2  0  0  0  0
  5  6  1  0  0  0  0
  6  7  1  0  0  0  0
  7  8  1  0  0  0  0
  8  9  1  0  0  0  0
  9 10  1  0  0  0  0
  9 11  2  0  0  0  0
M  CHG  3   1   1   4  -1  11   1
M  END
>  <CHROM.1>
-66.59201263,-123.94961236,145.63545165,-56.01553317,-179.72630862,-155.10020936
3.59549995,4.41841221,30.25378612,-1.12037464,-0.68833632,3.11345065

>  <Name>
1koc cryst

>  <RI>
0

>  <Rbt.Current_Directory>
/home/itssahil/PROJECTS/Mol_Feturizer/New_Systems/rnas/1koc

>  <Rbt.Executable>
rbdock ($Id: //depot/dev/client3/rdock/2013.1/src/exe/rbdock.cxx#4 $)

>  <Rbt.Library>
libRbt.so (2013.1, Build901 2013/11/27)

>  <Rbt.Parameter_File>
/export/apps/rDock/src/rDock_2013.1_src/data/scripts/dock_solv.prm

>  <Rbt.Receptor>
prm/pocket_docking_5.prm

>  <SCORE>
-33.1292

>  <SCORE.INTER>
-32.7213

>  <SCORE.INTER.CONST>
1

>  <SCORE.INTER.POLAR>
-6.2501

>  <SCORE.INTER.ROT>
5

>  <SCORE.INTER.SOLV>
25.0574

>  <SCORE.INTER.VDW>
-16.2663

>  <SCORE.INTER.norm>
-2.72677

>  <SCORE.INTRA>
-0.407859

>  <SCORE.INTRA.DIHEDRAL>
2.65126

>  <SCORE.INTRA.DIHEDRAL.0>
6.04201

>  <SCORE.INTRA.POLAR>
0

>  <SCORE.INTRA.POLAR.0>
0

>  <SCORE.INTRA.REPUL>
0

>  <SCORE.INTRA.REPUL.0>
0

>  <SCORE.INTRA.SOLV>
-0.621227

>  <SCORE.INTRA.SOLV.lig_0>
-71.0481

>  <SCORE.INTRA.VDW>
-1.42287

>  <SCORE.INTRA.VDW.0>
0.968882

>  <SCORE.INTRA.norm>
-0.0339883

>  <SCORE.RESTR>
0

>  <SCORE.RESTR.CAVITY>
0

>  <SCORE.RESTR.norm>
0

>  <SCORE.SYSTEM>
0

>  <SCORE.SYSTEM.CONST>
0

>  <SCORE.SYSTEM.DIHEDRAL>
0

>  <SCORE.SYSTEM.SOLV>
0

>  <SCORE.SYSTEM.norm>
0

>  <SCORE.heavy>
12

>  <SCORE.norm>
-2.76076

>  <SYMMETRIC_BONDS>
11 12 2
5 6 2

>  <RMSD>
1.838

$$$$
1koc cryst
 OpenBabel11021811393D
libRbt.so/2013.1/901 2013/11/27
 12 11  0  0  0  0  0  0  0  0999 V2000
    5.0799    6.2243   28.3217 N   0  3  0  0  0  0  0  0  0  0  0  0
    3.9706    6.2751   29.3215 C   0  0  2  0  0  0  0  0  0  0  0  0
    4.5653    6.5369   30.7190 C   0  0  0  0  0  0  0  0  0  0  0  0
    3.7922    6.7712   31.6358 O   0  5  0  0  0  0  0  0  0  0  0  0
    3.1979    4.9288   29.2925 C   0  0  0  0  0  0  0  0  0  0  0  0
    2.0230    4.9459   30.2774 C   0  0  0  0  0  0  0  0  0  0  0  0
    1.2080    3.6663   30.1242 C   0  0  0  0  0  0  0  0  0  0  0  0
    1.4322    2.7779   31.3019 N   0  0  0  0  0  0  0  0  0  0  0  0
    2.2524    1.7585   31.2145 C   0  0  0  0  0  0  0  0  0  0  0  0
    3.3457    1.8489   30.4986 N   0  0  0  0  0  0  0  0  0  0  0  0
    1.9812    0.6480   31.8486 N   0  3  0  0  0  0  0  0  0  0  0  0
    5.7802    6.5103   30.8477 O   0  0  0  0  0  0  0  0  0  0  0  0
  2  1  1  6  0  0  0
  2  5  1  0  0  0  0
  2  3  1  0  0  0  0
  3  4  1  0  0  0  0
  3 12  2  0  0  0  0
  5  6  1  0  0  0  0
  6  7  1  0  0  0  0
  7  8  1  0  0  0  0
  8  9  1  0  0  0  0
  9 10  1  0  0  0  0
  9 11  2  0  0  0  0
M  CHG  3   1   1   4  -1  11   1
M  END
>  <CHROM.1>
-61.68284972,-178.46476534,171.28190828,174.47335932,107.81823818,-100.88325462
3.26009968,4.39949441,30.44812720,-0.46890985,-0.99089185,-2.37458469

>  <Name>
1koc cryst

>  <RI>
0

>  <Rbt.Current_Directory>
/home/itssahil/PROJECTS/Mol_Feturizer/New_Systems/rnas/1koc

>  <Rbt.Executable>
rbdock ($Id: //depot/dev/client3/rdock/2013.1/src/exe/rbdock.cxx#4 $)

>  <Rbt.Library>
libRbt.so (2013.1, Build901 2013/11/27)

>  <Rbt.Parameter_File>
/export/apps/rDock/src/rDock_2013.1_src/data/scripts/dock_solv.prm

>  <Rbt.Receptor>
prm/pocket_docking_2.prm

>  <SCORE>
-27.0472

>  <SCORE.INTER>
-28.0386

>  <SCORE.INTER.CONST>
1

>  <SCORE.INTER.POLAR>
-5.47669

>  <SCORE.INTER.ROT>
5

>  <SCORE.INTER.SOLV>
20.235

>  <SCORE.INTER.VDW>
-14.1151

>  <SCORE.INTER.norm>
-2.33655

>  <SCORE.INTRA>
0.68259

>  <SCORE.INTRA.DIHEDRAL>
2.53076

>  <SCORE.INTRA.DIHEDRAL.0>
6.04201

>  <SCORE.INTRA.POLAR>
0

>  <SCORE.INTRA.POLAR.0>
0

>  <SCORE.INTRA.REPUL>
0

>  <SCORE.INTRA.REPUL.0>
0

>  <SCORE.INTRA.SOLV>
0.155737

>  <SCORE.INTRA.SOLV.lig_0>
-71.0481

>  <SCORE.INTRA.VDW>
-0.660656

>  <SCORE.INTRA.VDW.0>
0.968882

>  <SCORE.INTRA.norm>
0.0568825

>  <SCORE.RESTR>
0.308752

>  <SCORE.RESTR.CAVITY>
0.308752

>  <SCORE.RESTR.norm>
0.0257293

>  <SCORE.SYSTEM>
0

>  <SCORE.SYSTEM.CONST>
0

>  <SCORE.SYSTEM.DIHEDRAL>
0

>  <SCORE.SYSTEM.SOLV>
0

>  <SCORE.SYSTEM.norm>
0

>  <SCORE.heavy>
12

>  <SCORE.norm>
-2.25393

>  <SYMMETRIC_BONDS>
11 12 2
5 6 2

>  <RMSD>
1.839

$$$$
1koc cryst
 OpenBabel11021811393D
libRbt.so/2013.1/901 2013/11/27
 12 11  0  0  0  0  0  0  0  0999 V2000
    2.1357    8.5791   32.5625 N   0  3  0  0  0  0  0  0  0  0  0  0
    2.8888    7.2942   32.4411 C   0  0  2  0  0  0  0  0  0  0  0  0
    4.2765    7.5805   31.8345 C   0  0  0  0  0  0  0  0  0  0  0  0
    5.2588    7.1630   32.4294 O   0  5  0  0  0  0  0  0  0  0  0  0
    2.0840    6.3158   31.5437 C   0  0  0  0  0  0  0  0  0  0  0  0
    2.8597    5.0134   31.3138 C   0  0  0  0  0  0  0  0  0  0  0  0
    2.2358    4.2439   30.1547 C   0  0  0  0  0  0  0  0  0  0  0  0
    2.7398    2.8396   30.1482 N   0  0  0  0  0  0  0  0  0  0  0  0
    2.3095    1.9785   31.0388 C   0  0  0  0  0  0  0  0  0  0  0  0
    1.0643    2.0128   31.4440 N   0  0  0  0  0  0  0  0  0  0  0  0
    3.1251    1.0780   31.5214 N   0  3  0  0  0  0  0  0  0  0  0  0
    4.3353    8.2199   30.7948 O   0  0  0  0  0  0  0  0  0  0  0  0
  2  1  1  6  0  0  0
  2  5  1  0  0  0  0
  2  3  1  0  0  0  0
  3  4  1  0  0  0  0
  3 12  2  0  0  0  0
  5  6  1  0  0  0  0
  6  7  1  0  0  0  0
  7  8  1  0  0  0  0
  8  9  1  0  0  0  0
  9 10  1  0  0  0  0
  9 11  2  0  0  0  0
M  CHG  3   1   1   4  -1  11   1
M  END
>  <CHROM.1>
60.98401404,176.30546366,127.34642958,-164.96155376,-165.31566319,74.12516224
2.94143093,5.20811504,31.44739758,1.34740737,0.08781385,0.17415267

>  <Name>
1koc cryst

>  <RI>
0

>  <Rbt.Current_Directory>
/home/itssahil/PROJECTS/Mol_Feturizer/New_Systems/rnas/1koc

>  <Rbt.Executable>
rbdock ($Id: //depot/dev/client3/rdock/2013.1/src/exe/rbdock.cxx#4 $)

>  <Rbt.Library>
libRbt.so (2013.1, Build901 2013/11/27)

>  <Rbt.Parameter_File>
/export/apps/rDock/src/rDock_2013.1_src/data/scripts/dock_solv.prm

>  <Rbt.Receptor>
prm/pocket_docking_6.prm

>  <SCORE>
-39.7593

>  <SCORE.INTER>
-36.9201

>  <SCORE.INTER.CONST>
1

>  <SCORE.INTER.POLAR>
-6.45649

>  <SCORE.INTER.ROT>
5

>  <SCORE.INTER.SOLV>
25.5592

>  <SCORE.INTER.VDW>
-18.5448

>  <SCORE.INTER.norm>
-3.07668

>  <SCORE.INTRA>
-2.84558

>  <SCORE.INTRA.DIHEDRAL>
-0.874242

>  <SCORE.INTRA.DIHEDRAL.0>
6.04201

>  <SCORE.INTRA.POLAR>
0

>  <SCORE.INTRA.POLAR.0>
0

>  <SCORE.INTRA.REPUL>
0

>  <SCORE.INTRA.REPUL.0>
0

>  <SCORE.INTRA.SOLV>
-0.961907

>  <SCORE.INTRA.SOLV.lig_0>
-71.0481

>  <SCORE.INTRA.VDW>
-1.92751

>  <SCORE.INTRA.VDW.0>
0.968882

>  <SCORE.INTRA.norm>
-0.237132

>  <SCORE.RESTR>
0.006421

>  <SCORE.RESTR.CAVITY>
0.006421

>  <SCORE.RESTR.norm>
0.000535083

>  <SCORE.SYSTEM>
0

>  <SCORE.SYSTEM.CONST>
0

>  <SCORE.SYSTEM.DIHEDRAL>
0

>  <SCORE.SYSTEM.SOLV>
0

>  <SCORE.SYSTEM.norm>
0

>  <SCORE.heavy>
12

>  <SCORE.norm>
-3.31327

>  <SYMMETRIC_BONDS>
11 12 2
5 6 2

>  <RMSD>
1.843

$$$$
1koc cryst
 OpenBabel11021811393D
libRbt.so/2013.1/901 2013/11/27
 12 11  0  0  0  0  0  0  0  0999 V2000
    2.3308    8.6139   32.5362 N   0  3  0  0  0  0  0  0  0  0  0  0
    3.0522    7.3155   32.3730 C   0  0  2  0  0  0  0  0  0  0  0  0
    4.3795    7.5678   31.6315 C   0  0  0  0  0  0  0  0  0  0  0  0
    5.3918    7.0476   32.0760 O   0  5  0  0  0  0  0  0  0  0  0  0
    2.1531    6.3306   31.5782 C   0  0  0  0  0  0  0  0  0  0  0  0
    2.8437    4.9731   31.4016 C   0  0  0  0  0  0  0  0  0  0  0  0
    2.2633    4.2578   30.1865 C   0  0  0  0  0  0  0  0  0  0  0  0
    2.7454    2.8462   30.1506 N   0  0  0  0  0  0  0  0  0  0  0  0
    2.3181    1.9787   31.0364 C   0  0  0  0  0  0  0  0  0  0  0  0
    1.0810    2.0260   31.4647 N   0  0  0  0  0  0  0  0  0  0  0  0
    3.1282    1.0590   31.4909 N   0  3  0  0  0  0  0  0  0  0  0  0
    4.3648    8.2836   30.6412 O   0  0  0  0  0  0  0  0  0  0  0  0
  2  1  1  6  0  0  0
  2  5  1  0  0  0  0
  2  3  1  0  0  0  0
  3  4  1  0  0  0  0
  3 12  2  0  0  0  0
  5  6  1  0  0  0  0
  6  7  1  0  0  0  0
  7  8  1  0  0  0  0
  8  9  1  0  0  0  0
  9 10  1  0  0  0  0
  9 11  2  0  0  0  0
M  CHG  3   1   1   4  -1  11   1
M  END
>  <CHROM.1>
55.04771969,-179.19575545,133.73905494,-156.38392114,-169.76768072,70.17856798
3.00379933,5.20663762,31.39109428,1.32850607,0.17961391,0.17092298

>  <Name>
1koc cryst

>  <RI>
0

>  <Rbt.Current_Directory>
/home/itssahil/PROJECTS/Mol_Feturizer/New_Systems/rnas/1koc

>  <Rbt.Executable>
rbdock ($Id: //depot/dev/client3/rdock/2013.1/src/exe/rbdock.cxx#4 $)

>  <Rbt.Library>
libRbt.so (2013.1, Build901 2013/11/27)

>  <Rbt.Parameter_File>
/export/apps/rDock/src/rDock_2013.1_src/data/scripts/dock_solv.prm

>  <Rbt.Receptor>
prm/pocket_docking_3.prm

>  <SCORE>
-39.3219

>  <SCORE.INTER>
-36.9401

>  <SCORE.INTER.CONST>
1

>  <SCORE.INTER.POLAR>
-6.50213

>  <SCORE.INTER.ROT>
5

>  <SCORE.INTER.SOLV>
24.7659

>  <SCORE.INTER.VDW>
-18.1416

>  <SCORE.INTER.norm>
-3.07834

>  <SCORE.INTRA>
-2.46858

>  <SCORE.INTRA.DIHEDRAL>
-0.0926582

>  <SCORE.INTRA.DIHEDRAL.0>
6.04201

>  <SCORE.INTRA.POLAR>
0

>  <SCORE.INTRA.POLAR.0>
0

>  <SCORE.INTRA.REPUL>
0

>  <SCORE.INTRA.REPUL.0>
0

>  <SCORE.INTRA.SOLV>
-0.847769

>  <SCORE.INTRA.SOLV.lig_0>
-71.0481

>  <SCORE.INTRA.VDW>
-1.99836

>  <SCORE.INTRA.VDW.0>
0.968882

>  <SCORE.INTRA.norm>
-0.205715

>  <SCORE.RESTR>
0.0867894

>  <SCORE.RESTR.CAVITY>
0.0867894

>  <SCORE.RESTR.norm>
0.00723245

>  <SCORE.SYSTEM>
0

>  <SCORE.SYSTEM.CONST>
0

>  <SCORE.SYSTEM.DIHEDRAL>
0

>  <SCORE.SYSTEM.SOLV>
0

>  <SCORE.SYSTEM.norm>
0

>  <SCORE.heavy>
12

>  <SCORE.norm>
-3.27683

>  <SYMMETRIC_BONDS>
11 12 2
5 6 2

>  <RMSD>
1.845

$$$$
1koc cryst
 OpenBabel11021811393D
libRbt.so/2013.1/901 2013/11/27
 12 11  0  0  0  0  0  0  0  0999 V2000
    2.1394    7.5637   33.7845 N   0  3  0  0  0  0  0  0  0  0  0  0
    2.7073    6.4112   33.0217 C   0  0  2  0  0  0  0  0  0  0  0  0
    4.2006    6.2629   33.3730 C   0  0  0  0  0  0  0  0  0  0  0  0
    4.6412    5.1351   33.5368 O   0  5  0  0  0  0  0  0  0  0  0  0
    2.5193    6.6653   31.5017 C   0  0  0  0  0  0  0  0  0  0  0  0
    3.0886    5.5069   30.6742 C   0  0  0  0  0  0  0  0  0  0  0  0
    2.1703    4.2952   30.7904 C   0  0  0  0  0  0  0  0  0  0  0  0
    2.8802    3.0728   30.3127 N   0  0  0  0  0  0  0  0  0  0  0  0
    2.4916    1.8849   30.7094 C   0  0  0  0  0  0  0  0  0  0  0  0
    1.2190    1.6309   30.8879 N   0  0  0  0  0  0  0  0  0  0  0  0
    3.3773    0.9474   30.9232 N   0  3  0  0  0  0  0  0  0  0  0  0
    4.8748    7.2761   33.4835 O   0  0  0  0  0  0  0  0  0  0  0  0
  2  1  1  1  0  0  0
  2  5  1  0  0  0  0
  2  3  1  0  0  0  0
  3  4  1  0  0  0  0
  3 12  2  0  0  0  0
  5  6  1  0  0  0  0
  6  7  1  0  0  0  0
  7  8  1  0  0  0  0
  8  9  1  0  0  0  0
  9 10  1  0  0  0  0
  9 11  2  0  0  0  0
M  CHG  3   1   1   4  -1  11   1
M  END
>  <CHROM.1>
50.24403171,179.97237277,138.74060981,73.30229464,-164.65599962,157.43890310
3.02711918,4.72056098,31.94435686,1.34918281,-0.53121250,0.35907822

>  <Name>
1koc cryst

>  <RI>
0

>  <Rbt.Current_Directory>
/home/itssahil/PROJECTS/Mol_Feturizer/New_Systems/rnas/1koc

>  <Rbt.Executable>
rbdock ($Id: //depot/dev/client3/rdock/2013.1/src/exe/rbdock.cxx#4 $)

>  <Rbt.Library>
libRbt.so (2013.1, Build901 2013/11/27)

>  <Rbt.Parameter_File>
/export/apps/rDock/src/rDock_2013.1_src/data/scripts/dock_solv.prm

>  <Rbt.Receptor>
prm/pocket_docking_3.prm

>  <SCORE>
-28.5433

>  <SCORE.INTER>
-26.1408

>  <SCORE.INTER.CONST>
1

>  <SCORE.INTER.POLAR>
-4.71058

>  <SCORE.INTER.ROT>
5

>  <SCORE.INTER.SOLV>
28.0001

>  <SCORE.INTER.VDW>
-17.992

>  <SCORE.INTER.norm>
-2.1784

>  <SCORE.INTRA>
-2.40244

>  <SCORE.INTRA.DIHEDRAL>
-0.799358

>  <SCORE.INTRA.DIHEDRAL.0>
6.04201

>  <SCORE.INTRA.POLAR>
0

>  <SCORE.INTRA.POLAR.0>
0

>  <SCORE.INTRA.REPUL>
0

>  <SCORE.INTRA.REPUL.0>
0

>  <SCORE.INTRA.SOLV>
-0.765648

>  <SCORE.INTRA.SOLV.lig_0>
-71.0481

>  <SCORE.INTRA.VDW>
-1.61994

>  <SCORE.INTRA.VDW.0>
0.968882

>  <SCORE.INTRA.norm>
-0.200203

>  <SCORE.RESTR>
0

>  <SCORE.RESTR.CAVITY>
0

>  <SCORE.RESTR.norm>
0

>  <SCORE.SYSTEM>
0

>  <SCORE.SYSTEM.CONST>
0

>  <SCORE.SYSTEM.DIHEDRAL>
0

>  <SCORE.SYSTEM.SOLV>
0

>  <SCORE.SYSTEM.norm>
0

>  <SCORE.heavy>
12

>  <SCORE.norm>
-2.37861

>  <SYMMETRIC_BONDS>
11 12 2
5 6 2

>  <RMSD>
1.848

$$$$
1koc cryst
 OpenBabel11021811393D
libRbt.so/2013.1/901 2013/11/27
 12 11  0  0  0  0  0  0  0  0999 V2000
    2.5121    7.3563   32.8538 N   0  3  0  0  0  0  0  0  0  0  0  0
    3.0961    6.3872   31.8778 C   0  0  2  0  0  0  0  0  0  0  0  0
    4.0872    7.1320   30.9621 C   0  0  0  0  0  0  0  0  0  0  0  0
    5.0716    7.6407   31.4772 O   0  5  0  0  0  0  0  0  0  0  0  0
    1.9501    5.7479   31.0483 C   0  0  0  0  0  0  0  0  0  0  0  0
    2.4977    4.7178   30.0533 C   0  0  0  0  0  0  0  0  0  0  0  0
    3.4137    3.7399   30.7810 C   0  0  0  0  0  0  0  0  0  0  0  0
    3.0902    2.3418   30.3725 N   0  0  0  0  0  0  0  0  0  0  0  0
    2.2321    1.6322   31.0653 C   0  0  0  0  0  0  0  0  0  0  0  0
    1.1825    2.2035   31.6019 N   0  0  0  0  0  0  0  0  0  0  0  0
    2.4215    0.3478   31.2173 N   0  3  0  0  0  0  0  0  0  0  0  0
    3.8414    7.1914   29.7666 O   0  0  0  0  0  0  0  0  0  0  0  0
  2  1  1  1  0  0  0
  2  5  1  0  0  0  0
  2  3  1  0  0  0  0
  3  4  1  0  0  0  0
  3 12  2  0  0  0  0
  5  6  1  0  0  0  0
  6  7  1  0  0  0  0
  7  8  1  0  0  0  0
  8  9  1  0  0  0  0
  9 10  1  0  0  0  0
  9 11  2  0  0  0  0
M  CHG  3   1   1   4  -1  11   1
M  END
>  <CHROM.1>
57.78790369,-178.61189291,62.67622745,50.83387092,134.02029807,-92.43908853
2.94149628,4.71443350,31.11221392,1.22070722,0.74738792,0.29358870

>  <Name>
1koc cryst

>  <RI>
0

>  <Rbt.Current_Directory>
/home/itssahil/PROJECTS/Mol_Feturizer/New_Systems/rnas/1koc

>  <Rbt.Executable>
rbdock ($Id: //depot/dev/client3/rdock/2013.1/src/exe/rbdock.cxx#4 $)

>  <Rbt.Library>
libRbt.so (2013.1, Build901 2013/11/27)

>  <Rbt.Parameter_File>
/export/apps/rDock/src/rDock_2013.1_src/data/scripts/dock_solv.prm

>  <Rbt.Receptor>
prm/pocket_docking_2.prm

>  <SCORE>
-23.9577

>  <SCORE.INTER>
-26.2869

>  <SCORE.INTER.CONST>
1

>  <SCORE.INTER.POLAR>
-4.48743

>  <SCORE.INTER.ROT>
5

>  <SCORE.INTER.SOLV>
25.5398

>  <SCORE.INTER.VDW>
-18.0131

>  <SCORE.INTER.norm>
-2.19057

>  <SCORE.INTRA>
2.07287

>  <SCORE.INTRA.DIHEDRAL>
2.58052

>  <SCORE.INTRA.DIHEDRAL.0>
6.04201

>  <SCORE.INTRA.POLAR>
0

>  <SCORE.INTRA.POLAR.0>
0

>  <SCORE.INTRA.REPUL>
0

>  <SCORE.INTRA.REPUL.0>
0

>  <SCORE.INTRA.SOLV>
0.313106

>  <SCORE.INTRA.SOLV.lig_0>
-71.0481

>  <SCORE.INTRA.VDW>
0.626059

>  <SCORE.INTRA.VDW.0>
0.968882

>  <SCORE.INTRA.norm>
0.172739

>  <SCORE.RESTR>
0.256341

>  <SCORE.RESTR.CAVITY>
0.256341

>  <SCORE.RESTR.norm>
0.0213617

>  <SCORE.SYSTEM>
0

>  <SCORE.SYSTEM.CONST>
0

>  <SCORE.SYSTEM.DIHEDRAL>
0

>  <SCORE.SYSTEM.SOLV>
0

>  <SCORE.SYSTEM.norm>
0

>  <SCORE.heavy>
12

>  <SCORE.norm>
-1.99647

>  <SYMMETRIC_BONDS>
11 12 2
5 6 2

>  <RMSD>
1.857

$$$$
1koc cryst
 OpenBabel11021811393D
libRbt.so/2013.1/901 2013/11/27
 12 11  0  0  0  0  0  0  0  0999 V2000
    2.2495    8.8332   32.5772 N   0  3  0  0  0  0  0  0  0  0  0  0
    2.7970    7.4471   32.6858 C   0  0  2  0  0  0  0  0  0  0  0  0
    4.2947    7.4686   32.3227 C   0  0  0  0  0  0  0  0  0  0  0  0
    5.0722    6.8863   33.0640 O   0  5  0  0  0  0  0  0  0  0  0  0
    2.0092    6.5127   31.7284 C   0  0  0  0  0  0  0  0  0  0  0  0
    2.7083    5.1558   31.5830 C   0  0  0  0  0  0  0  0  0  0  0  0
    1.9306    4.2816   30.6054 C   0  0  0  0  0  0  0  0  0  0  0  0
    2.7340    3.0741   30.2548 N   0  0  0  0  0  0  0  0  0  0  0  0
    2.3832    1.8931   30.7041 C   0  0  0  0  0  0  0  0  0  0  0  0
    1.1167    1.5789   30.8193 N   0  0  0  0  0  0  0  0  0  0  0  0
    3.3010    1.0228   31.0343 N   0  3  0  0  0  0  0  0  0  0  0  0
    4.6407    8.0743   31.3193 O   0  0  0  0  0  0  0  0  0  0  0  0
  2  1  1  6  0  0  0
  2  5  1  0  0  0  0
  2  3  1  0  0  0  0
  3  4  1  0  0  0  0
  3 12  2  0  0  0  0
  5  6  1  0  0  0  0
  6  7  1  0  0  0  0
  7  8  1  0  0  0  0
  8  9  1  0  0  0  0
  9 10  1  0  0  0  0
  9 11  2  0  0  0  0
M  CHG  3   1   1   4  -1  11   1
M  END
>  <CHROM.1>
63.30540169,168.28949715,132.71344555,-178.31437523,169.06680990,108.79200553
2.94260878,5.19875409,31.56100568,1.36225087,-0.14451760,0.22746833

>  <Name>
1koc cryst

>  <RI>
0

>  <Rbt.Current_Directory>
/home/itssahil/PROJECTS/Mol_Feturizer/New_Systems/rnas/1koc

>  <Rbt.Executable>
rbdock ($Id: //depot/dev/client3/rdock/2013.1/src/exe/rbdock.cxx#4 $)

>  <Rbt.Library>
libRbt.so (2013.1, Build901 2013/11/27)

>  <Rbt.Parameter_File>
/export/apps/rDock/src/rDock_2013.1_src/data/scripts/dock_solv.prm

>  <Rbt.Receptor>
prm/pocket_docking_4.prm

>  <SCORE>
-34.9765

>  <SCORE.INTER>
-31.877

>  <SCORE.INTER.CONST>
1

>  <SCORE.INTER.POLAR>
-5.57507

>  <SCORE.INTER.ROT>
5

>  <SCORE.INTER.SOLV>
24.768

>  <SCORE.INTER.VDW>
-17.8571

>  <SCORE.INTER.norm>
-2.65641

>  <SCORE.INTRA>
-3.09956

>  <SCORE.INTRA.DIHEDRAL>
-1.65243

>  <SCORE.INTRA.DIHEDRAL.0>
6.04201

>  <SCORE.INTRA.POLAR>
0

>  <SCORE.INTRA.POLAR.0>
0

>  <SCORE.INTRA.REPUL>
0

>  <SCORE.INTRA.REPUL.0>
0

>  <SCORE.INTRA.SOLV>
-1.18795

>  <SCORE.INTRA.SOLV.lig_0>
-71.0481

>  <SCORE.INTRA.VDW>
-1.67937

>  <SCORE.INTRA.VDW.0>
0.968882

>  <SCORE.INTRA.norm>
-0.258297

>  <SCORE.RESTR>
0

>  <SCORE.RESTR.CAVITY>
0

>  <SCORE.RESTR.norm>
0

>  <SCORE.SYSTEM>
0

>  <SCORE.SYSTEM.CONST>
0

>  <SCORE.SYSTEM.DIHEDRAL>
0

>  <SCORE.SYSTEM.SOLV>
0

>  <SCORE.SYSTEM.norm>
0

>  <SCORE.heavy>
12

>  <SCORE.norm>
-2.91471

>  <SYMMETRIC_BONDS>
11 12 2
5 6 2

>  <RMSD>
1.867

$$$$
1koc cryst
 OpenBabel11021811393D
libRbt.so/2013.1/901 2013/11/27
 12 11  0  0  0  0  0  0  0  0999 V2000
    5.2032    5.4256   31.5532 N   0  3  0  0  0  0  0  0  0  0  0  0
    5.1781    6.1179   30.2292 C   0  0  2  0  0  0  0  0  0  0  0  0
    4.4585    7.4721   30.3838 C   0  0  0  0  0  0  0  0  0  0  0  0
    3.7167    7.6202   31.3435 O   0  5  0  0  0  0  0  0  0  0  0  0
    4.4462    5.2172   29.1981 C   0  0  0  0  0  0  0  0  0  0  0  0
    2.9289    5.2492   29.4167 C   0  0  0  0  0  0  0  0  0  0  0  0
    2.5619    4.3487   30.5911 C   0  0  0  0  0  0  0  0  0  0  0  0
    2.8236    2.9227   30.2384 N   0  0  0  0  0  0  0  0  0  0  0  0
    2.3776    1.9586   31.0073 C   0  0  0  0  0  0  0  0  0  0  0  0
    1.2182    2.0734   31.6062 N   0  0  0  0  0  0  0  0  0  0  0  0
    3.0903    0.8754   31.1736 N   0  3  0  0  0  0  0  0  0  0  0  0
    4.6508    8.3322   29.5373 O   0  0  0  0  0  0  0  0  0  0  0  0
  2  1  1  1  0  0  0
  2  5  1  0  0  0  0
  2  3  1  0  0  0  0
  3  4  1  0  0  0  0
  3 12  2  0  0  0  0
  5  6  1  0  0  0  0
  6  7  1  0  0  0  0
  7  8  1  0  0  0  0
  8  9  1  0  0  0  0
  9 10  1  0  0  0  0
  9 11  2  0  0  0  0
M  CHG  3   1   1   4  -1  11   1
M  END
>  <CHROM.1>
166.30896583,75.69383347,-20.47420659,-78.43799784,-67.33015067,-168.65788356
3.55575418,4.78308201,30.55873176,-1.19204646,-0.03632065,3.00779155

>  <Name>
1koc cryst

>  <RI>
0

>  <Rbt.Current_Directory>
/home/itssahil/PROJECTS/Mol_Feturizer/New_Systems/rnas/1koc

>  <Rbt.Executable>
rbdock ($Id: //depot/dev/client3/rdock/2013.1/src/exe/rbdock.cxx#4 $)

>  <Rbt.Library>
libRbt.so (2013.1, Build901 2013/11/27)

>  <Rbt.Parameter_File>
/export/apps/rDock/src/rDock_2013.1_src/data/scripts/dock_solv.prm

>  <Rbt.Receptor>
prm/pocket_docking_2.prm

>  <SCORE>
-21.2022

>  <SCORE.INTER>
-22.076

>  <SCORE.INTER.CONST>
1

>  <SCORE.INTER.POLAR>
-4.09822

>  <SCORE.INTER.ROT>
5

>  <SCORE.INTER.SOLV>
18.507

>  <SCORE.INTER.VDW>
-14.159

>  <SCORE.INTER.norm>
-1.83967

>  <SCORE.INTRA>
0.873811

>  <SCORE.INTRA.DIHEDRAL>
0.168614

>  <SCORE.INTRA.DIHEDRAL.0>
6.04201

>  <SCORE.INTRA.POLAR>
0

>  <SCORE.INTRA.POLAR.0>
0

>  <SCORE.INTRA.REPUL>
0

>  <SCORE.INTRA.REPUL.0>
0

>  <SCORE.INTRA.SOLV>
2.80535

>  <SCORE.INTRA.SOLV.lig_0>
-71.0481

>  <SCORE.INTRA.VDW>
-0.613169

>  <SCORE.INTRA.VDW.0>
0.968882

>  <SCORE.INTRA.norm>
0.0728176

>  <SCORE.RESTR>
0

>  <SCORE.RESTR.CAVITY>
0

>  <SCORE.RESTR.norm>
0

>  <SCORE.SYSTEM>
0

>  <SCORE.SYSTEM.CONST>
0

>  <SCORE.SYSTEM.DIHEDRAL>
0

>  <SCORE.SYSTEM.SOLV>
0

>  <SCORE.SYSTEM.norm>
0

>  <SCORE.heavy>
12

>  <SCORE.norm>
-1.76685

>  <SYMMETRIC_BONDS>
11 12 2
5 6 2

>  <RMSD>
1.870

$$$$
1koc cryst
 OpenBabel11021811393D
libRbt.so/2013.1/901 2013/11/27
 12 11  0  0  0  0  0  0  0  0999 V2000
    4.4775    6.6402   32.3572 N   0  3  0  0  0  0  0  0  0  0  0  0
    4.4745    5.1461   32.3768 C   0  0  2  0  0  0  0  0  0  0  0  0
    5.0877    4.6598   33.7046 C   0  0  0  0  0  0  0  0  0  0  0  0
    5.2275    3.4564   33.8642 O   0  5  0  0  0  0  0  0  0  0  0  0
    5.2904    4.6199   31.1654 C   0  0  0  0  0  0  0  0  0  0  0  0
    4.9867    3.1414   30.8961 C   0  0  0  0  0  0  0  0  0  0  0  0
    3.6108    3.0106   30.2520 C   0  0  0  0  0  0  0  0  0  0  0  0
    3.0798    1.6325   30.4650 N   0  0  0  0  0  0  0  0  0  0  0  0
    2.1192    1.4207   31.3323 C   0  0  0  0  0  0  0  0  0  0  0  0
    1.1662    2.3050   31.4924 N   0  0  0  0  0  0  0  0  0  0  0  0
    2.1091    0.3199   32.0372 N   0  3  0  0  0  0  0  0  0  0  0  0
    5.3961    5.4944   34.5422 O   0  0  0  0  0  0  0  0  0  0  0  0
  2  1  1  1  0  0  0
  2  5  1  0  0  0  0
  2  3  1  0  0  0  0
  3  4  1  0  0  0  0
  3 12  2  0  0  0  0
  5  6  1  0  0  0  0
  6  7  1  0  0  0  0
  7  8  1  0  0  0  0
  8  9  1  0  0  0  0
  9 10  1  0  0  0  0
  9 11  2  0  0  0  0
M  CHG  3   1   1   4  -1  11   1
M  END
>  <CHROM.1>
179.09245685,-163.32178789,-176.36993490,74.40713323,-158.09616105,106.00976940
3.90497857,3.50480147,32.06729919,-0.18608246,-0.99544811,-1.33118730

>  <Name>
1koc cryst

>  <RI>
0

>  <Rbt.Current_Directory>
/home/itssahil/PROJECTS/Mol_Feturizer/New_Systems/rnas/1koc

>  <Rbt.Executable>
rbdock ($Id: //depot/dev/client3/rdock/2013.1/src/exe/rbdock.cxx#4 $)

>  <Rbt.Library>
libRbt.so (2013.1, Build901 2013/11/27)

>  <Rbt.Parameter_File>
/export/apps/rDock/src/rDock_2013.1_src/data/scripts/dock_solv.prm

>  <Rbt.Receptor>
prm/pocket_docking_7.prm

>  <SCORE>
-26.9632

>  <SCORE.INTER>
-25.2634

>  <SCORE.INTER.CONST>
1

>  <SCORE.INTER.POLAR>
-4.91662

>  <SCORE.INTER.ROT>
5

>  <SCORE.INTER.SOLV>
25.0623

>  <SCORE.INTER.VDW>
-15.741

>  <SCORE.INTER.norm>
-2.10528

>  <SCORE.INTRA>
-1.69976

>  <SCORE.INTRA.DIHEDRAL>
0.768763

>  <SCORE.INTRA.DIHEDRAL.0>
6.04201

>  <SCORE.INTRA.POLAR>
0

>  <SCORE.INTRA.POLAR.0>
0

>  <SCORE.INTRA.REPUL>
0

>  <SCORE.INTRA.REPUL.0>
0

>  <SCORE.INTRA.SOLV>
-0.662228

>  <SCORE.INTRA.SOLV.lig_0>
-71.0481

>  <SCORE.INTRA.VDW>
-1.75303

>  <SCORE.INTRA.VDW.0>
0.968882

>  <SCORE.INTRA.norm>
-0.141647

>  <SCORE.RESTR>
0

>  <SCORE.RESTR.CAVITY>
0

>  <SCORE.RESTR.norm>
0

>  <SCORE.SYSTEM>
0

>  <SCORE.SYSTEM.CONST>
0

>  <SCORE.SYSTEM.DIHEDRAL>
0

>  <SCORE.SYSTEM.SOLV>
0

>  <SCORE.SYSTEM.norm>
0

>  <SCORE.heavy>
12

>  <SCORE.norm>
-2.24693

>  <SYMMETRIC_BONDS>
11 12 2
5 6 2

>  <RMSD>
1.878

$$$$
1koc cryst
 OpenBabel11021811393D
libRbt.so/2013.1/901 2013/11/27
 12 11  0  0  0  0  0  0  0  0999 V2000
    2.1466    7.5915   33.7249 N   0  3  0  0  0  0  0  0  0  0  0  0
    2.7008    6.3912   33.0285 C   0  0  2  0  0  0  0  0  0  0  0  0
    4.0739    6.0462   33.6376 C   0  0  0  0  0  0  0  0  0  0  0  0
    4.6546    6.9155   34.2702 O   0  5  0  0  0  0  0  0  0  0  0  0
    2.8297    6.6975   31.5120 C   0  0  0  0  0  0  0  0  0  0  0  0
    3.2421    5.4451   30.7294 C   0  0  0  0  0  0  0  0  0  0  0  0
    2.0715    4.4698   30.6706 C   0  0  0  0  0  0  0  0  0  0  0  0
    2.5634    3.1080   30.3100 N   0  0  0  0  0  0  0  0  0  0  0  0
    2.2858    2.0805   31.0760 C   0  0  0  0  0  0  0  0  0  0  0  0
    1.1261    1.9999   31.6797 N   0  0  0  0  0  0  0  0  0  0  0  0
    3.1681    1.1290   31.2344 N   0  3  0  0  0  0  0  0  0  0  0  0
    4.5264    4.9262   33.4531 O   0  0  0  0  0  0  0  0  0  0  0  0
  2  1  1  1  0  0  0
  2  5  1  0  0  0  0
  2  3  1  0  0  0  0
  3  4  1  0  0  0  0
  3 12  2  0  0  0  0
  5  6  1  0  0  0  0
  6  7  1  0  0  0  0
  7  8  1  0  0  0  0
  8  9  1  0  0  0  0
  9 10  1  0  0  0  0
  9 11  2  0  0  0  0
M  CHG  3   1   1   4  -1  11   1
M  END
>  <CHROM.1>
-56.85245642,-173.49153732,-19.05663573,71.90245901,-162.17064388,125.33408252
2.94765508,4.73296739,32.14305924,1.25246600,-0.81215406,0.25152414

>  <Name>
1koc cryst

>  <RI>
0

>  <Rbt.Current_Directory>
/home/itssahil/PROJECTS/Mol_Feturizer/New_Systems/rnas/1koc

>  <Rbt.Executable>
rbdock ($Id: //depot/dev/client3/rdock/2013.1/src/exe/rbdock.cxx#4 $)

>  <Rbt.Library>
libRbt.so (2013.1, Build901 2013/11/27)

>  <Rbt.Parameter_File>
/export/apps/rDock/src/rDock_2013.1_src/data/scripts/dock_solv.prm

>  <Rbt.Receptor>
prm/pocket_docking_3.prm

>  <SCORE>
-31.2107

>  <SCORE.INTER>
-28.7636

>  <SCORE.INTER.CONST>
1

>  <SCORE.INTER.POLAR>
-5.06815

>  <SCORE.INTER.ROT>
5

>  <SCORE.INTER.SOLV>
29.8151

>  <SCORE.INTER.VDW>
-19.1536

>  <SCORE.INTER.norm>
-2.39696

>  <SCORE.INTRA>
-2.44708

>  <SCORE.INTRA.DIHEDRAL>
-0.739257

>  <SCORE.INTRA.DIHEDRAL.0>
6.04201

>  <SCORE.INTRA.POLAR>
0

>  <SCORE.INTRA.POLAR.0>
0

>  <SCORE.INTRA.REPUL>
0

>  <SCORE.INTRA.REPUL.0>
0

>  <SCORE.INTRA.SOLV>
-0.504697

>  <SCORE.INTRA.SOLV.lig_0>
-71.0481

>  <SCORE.INTRA.VDW>
-1.8251

>  <SCORE.INTRA.VDW.0>
0.968882

>  <SCORE.INTRA.norm>
-0.203923

>  <SCORE.RESTR>
0

>  <SCORE.RESTR.CAVITY>
0

>  <SCORE.RESTR.norm>
0

>  <SCORE.SYSTEM>
0

>  <SCORE.SYSTEM.CONST>
0

>  <SCORE.SYSTEM.DIHEDRAL>
0

>  <SCORE.SYSTEM.SOLV>
0

>  <SCORE.SYSTEM.norm>
0

>  <SCORE.heavy>
12

>  <SCORE.norm>
-2.60089

>  <SYMMETRIC_BONDS>
11 12 2
5 6 2

>  <RMSD>
1.881

$$$$
1koc cryst
 OpenBabel11021811393D
libRbt.so/2013.1/901 2013/11/27
 12 11  0  0  0  0  0  0  0  0999 V2000
    4.4168    7.7728   30.0929 N   0  3  0  0  0  0  0  0  0  0  0  0
    4.2170    6.3912   30.6259 C   0  0  2  0  0  0  0  0  0  0  0  0
    5.5636    5.6421   30.5973 C   0  0  0  0  0  0  0  0  0  0  0  0
    6.0391    5.3600   29.5076 O   0  5  0  0  0  0  0  0  0  0  0  0
    3.1583    5.6593   29.7577 C   0  0  0  0  0  0  0  0  0  0  0  0
    1.9278    5.2812   30.5906 C   0  0  0  0  0  0  0  0  0  0  0  0
    1.4049    3.9208   30.1426 C   0  0  0  0  0  0  0  0  0  0  0  0
    1.5182    2.9401   31.2613 N   0  0  0  0  0  0  0  0  0  0  0  0
    2.3462    1.9271   31.1714 C   0  0  0  0  0  0  0  0  0  0  0  0
    3.5027    2.0696   30.5728 N   0  0  0  0  0  0  0  0  0  0  0  0
    2.0191    0.7707   31.6858 N   0  3  0  0  0  0  0  0  0  0  0  0
    6.0906    5.3534   31.6614 O   0  0  0  0  0  0  0  0  0  0  0  0
  2  1  1  6  0  0  0
  2  5  1  0  0  0  0
  2  3  1  0  0  0  0
  3  4  1  0  0  0  0
  3 12  2  0  0  0  0
  5  6  1  0  0  0  0
  6  7  1  0  0  0  0
  7  8  1  0  0  0  0
  8  9  1  0  0  0  0
  9 10  1  0  0  0  0
  9 11  2  0  0  0  0
M  CHG  3   1   1   4  -1  11   1
M  END
>  <CHROM.1>
64.35849710,-117.80569100,-68.24912208,-142.58334995,116.43072081,-113.30246279
3.54853584,4.43055607,30.63966556,0.97990311,-0.06651569,-0.23062312

>  <Name>
1koc cryst

>  <RI>
0

>  <Rbt.Current_Directory>
/home/itssahil/PROJECTS/Mol_Feturizer/New_Systems/rnas/1koc

>  <Rbt.Executable>
rbdock ($Id: //depot/dev/client3/rdock/2013.1/src/exe/rbdock.cxx#4 $)

>  <Rbt.Library>
libRbt.so (2013.1, Build901 2013/11/27)

>  <Rbt.Parameter_File>
/export/apps/rDock/src/rDock_2013.1_src/data/scripts/dock_solv.prm

>  <Rbt.Receptor>
prm/pocket_docking_2.prm

>  <SCORE>
-28.1462

>  <SCORE.INTER>
-32.0834

>  <SCORE.INTER.CONST>
1

>  <SCORE.INTER.POLAR>
-6.24763

>  <SCORE.INTER.ROT>
5

>  <SCORE.INTER.SOLV>
17.7314

>  <SCORE.INTER.VDW>
-13.4073

>  <SCORE.INTER.norm>
-2.67361

>  <SCORE.INTRA>
3.44324

>  <SCORE.INTRA.DIHEDRAL>
12.2593

>  <SCORE.INTRA.DIHEDRAL.0>
6.04201

>  <SCORE.INTRA.POLAR>
0

>  <SCORE.INTRA.POLAR.0>
0

>  <SCORE.INTRA.REPUL>
0

>  <SCORE.INTRA.REPUL.0>
0

>  <SCORE.INTRA.SOLV>
-0.0213198

>  <SCORE.INTRA.SOLV.lig_0>
-71.0481

>  <SCORE.INTRA.VDW>
-2.67573

>  <SCORE.INTRA.VDW.0>
0.968882

>  <SCORE.INTRA.norm>
0.286936

>  <SCORE.RESTR>
0.493914

>  <SCORE.RESTR.CAVITY>
0.493914

>  <SCORE.RESTR.norm>
0.0411595

>  <SCORE.SYSTEM>
0

>  <SCORE.SYSTEM.CONST>
0

>  <SCORE.SYSTEM.DIHEDRAL>
0

>  <SCORE.SYSTEM.SOLV>
0

>  <SCORE.SYSTEM.norm>
0

>  <SCORE.heavy>
12

>  <SCORE.norm>
-2.34552

>  <SYMMETRIC_BONDS>
11 12 2
5 6 2

>  <RMSD>
1.888

$$$$
1koc cryst
 OpenBabel11021811393D
libRbt.so/2013.1/901 2013/11/27
 12 11  0  0  0  0  0  0  0  0999 V2000
    4.5959    7.4013   31.2879 N   0  3  0  0  0  0  0  0  0  0  0  0
    3.2552    6.8933   31.7090 C   0  0  2  0  0  0  0  0  0  0  0  0
    3.1994    6.8386   33.2483 C   0  0  0  0  0  0  0  0  0  0  0  0
    2.3721    7.5355   33.8165 O   0  5  0  0  0  0  0  0  0  0  0  0
    3.0300    5.4844   31.0970 C   0  0  0  0  0  0  0  0  0  0  0  0
    1.5781    5.3088   30.6364 C   0  0  0  0  0  0  0  0  0  0  0  0
    1.3722    3.8876   30.1238 C   0  0  0  0  0  0  0  0  0  0  0  0
    1.5056    2.9178   31.2498 N   0  0  0  0  0  0  0  0  0  0  0  0
    2.3383    1.9089   31.1584 C   0  0  0  0  0  0  0  0  0  0  0  0
    3.4861    2.0525   30.5437 N   0  0  0  0  0  0  0  0  0  0  0  0
    2.0246    0.7553   31.6873 N   0  3  0  0  0  0  0  0  0  0  0  0
    3.9893    6.1123   33.8328 O   0  0  0  0  0  0  0  0  0  0  0  0
  2  1  1  1  0  0  0
  2  5  1  0  0  0  0
  2  3  1  0  0  0  0
  3  4  1  0  0  0  0
  3 12  2  0  0  0  0
  5  6  1  0  0  0  0
  6  7  1  0  0  0  0
  7  8  1  0  0  0  0
  8  9  1  0  0  0  0
  9 10  1  0  0  0  0
  9 11  2  0  0  0  0
M  CHG  3   1   1   4  -1  11   1
M  END
>  <CHROM.1>
56.30853751,-141.09065292,117.98691765,-176.42986688,66.64984379,-126.51743698
2.76666000,4.75779430,31.71522860,0.09884588,-1.34052452,-1.15605003

>  <Name>
1koc cryst

>  <RI>
0

>  <Rbt.Current_Directory>
/home/itssahil/PROJECTS/Mol_Feturizer/New_Systems/rnas/1koc

>  <Rbt.Executable>
rbdock ($Id: //depot/dev/client3/rdock/2013.1/src/exe/rbdock.cxx#4 $)

>  <Rbt.Library>
libRbt.so (2013.1, Build901 2013/11/27)

>  <Rbt.Parameter_File>
/export/apps/rDock/src/rDock_2013.1_src/data/scripts/dock_solv.prm

>  <Rbt.Receptor>
prm/pocket_docking_6.prm

>  <SCORE>
-30.4038

>  <SCORE.INTER>
-28.253

>  <SCORE.INTER.CONST>
1

>  <SCORE.INTER.POLAR>
-5.19521

>  <SCORE.INTER.ROT>
5

>  <SCORE.INTER.SOLV>
23.765

>  <SCORE.INTER.VDW>
-16.373

>  <SCORE.INTER.norm>
-2.35441

>  <SCORE.INTRA>
-2.1508

>  <SCORE.INTRA.DIHEDRAL>
1.37004

>  <SCORE.INTRA.DIHEDRAL.0>
6.04201

>  <SCORE.INTRA.POLAR>
0

>  <SCORE.INTRA.POLAR.0>
0

>  <SCORE.INTRA.REPUL>
0

>  <SCORE.INTRA.REPUL.0>
0

>  <SCORE.INTRA.SOLV>
-0.883796

>  <SCORE.INTRA.SOLV.lig_0>
-71.0481

>  <SCORE.INTRA.VDW>
-2.39392

>  <SCORE.INTRA.VDW.0>
0.968882

>  <SCORE.INTRA.norm>
-0.179233

>  <SCORE.RESTR>
0

>  <SCORE.RESTR.CAVITY>
0

>  <SCORE.RESTR.norm>
0

>  <SCORE.SYSTEM>
0

>  <SCORE.SYSTEM.CONST>
0

>  <SCORE.SYSTEM.DIHEDRAL>
0

>  <SCORE.SYSTEM.SOLV>
0

>  <SCORE.SYSTEM.norm>
0

>  <SCORE.heavy>
12

>  <SCORE.norm>
-2.53365

>  <SYMMETRIC_BONDS>
11 12 2
5 6 2

>  <RMSD>
1.895

$$$$
1koc cryst
 OpenBabel11021811393D
libRbt.so/2013.1/901 2013/11/27
 12 11  0  0  0  0  0  0  0  0999 V2000
    4.0825    6.4038   28.4479 N   0  3  0  0  0  0  0  0  0  0  0  0
    3.2418    6.1625   29.6595 C   0  0  2  0  0  0  0  0  0  0  0  0
    4.1006    6.3858   30.9196 C   0  0  0  0  0  0  0  0  0  0  0  0
    3.5425    6.3539   32.0062 O   0  5  0  0  0  0  0  0  0  0  0  0
    2.6909    4.7118   29.6155 C   0  0  0  0  0  0  0  0  0  0  0  0
    1.6143    4.4978   30.6861 C   0  0  0  0  0  0  0  0  0  0  0  0
    0.9307    3.1533   30.4630 C   0  0  0  0  0  0  0  0  0  0  0  0
    1.2866    2.2139   31.5663 N   0  0  0  0  0  0  0  0  0  0  0  0
    2.1714    1.2663   31.3684 C   0  0  0  0  0  0  0  0  0  0  0  0
    3.2115    1.4825   30.6020 N   0  0  0  0  0  0  0  0  0  0  0  0
    2.0181    0.1018   31.9423 N   0  3  0  0  0  0  0  0  0  0  0  0
    5.2962    6.5955   30.7782 O   0  0  0  0  0  0  0  0  0  0  0  0
  2  1  1  6  0  0  0
  2  5  1  0  0  0  0
  2  3  1  0  0  0  0
  3  4  1  0  0  0  0
  3 12  2  0  0  0  0
  5  6  1  0  0  0  0
  6  7  1  0  0  0  0
  7  8  1  0  0  0  0
  8  9  1  0  0  0  0
  9 10  1  0  0  0  0
  9 11  2  0  0  0  0
M  CHG  3   1   1   4  -1  11   1
M  END
>  <CHROM.1>
-38.55019609,-169.16360515,173.27914095,170.37109145,111.34903880,-103.18912682
2.88716267,4.10899491,30.66253570,0.98767404,-0.80723883,-0.68130058

>  <Name>
1koc cryst

>  <RI>
0

>  <Rbt.Current_Directory>
/home/itssahil/PROJECTS/Mol_Feturizer/New_Systems/rnas/1koc

>  <Rbt.Executable>
rbdock ($Id: //depot/dev/client3/rdock/2013.1/src/exe/rbdock.cxx#4 $)

>  <Rbt.Library>
libRbt.so (2013.1, Build901 2013/11/27)

>  <Rbt.Parameter_File>
/export/apps/rDock/src/rDock_2013.1_src/data/scripts/dock_solv.prm

>  <Rbt.Receptor>
prm/pocket_docking_2.prm

>  <SCORE>
-33.2828

>  <SCORE.INTER>
-34.2914

>  <SCORE.INTER.CONST>
1

>  <SCORE.INTER.POLAR>
-6.80263

>  <SCORE.INTER.ROT>
5

>  <SCORE.INTER.SOLV>
25.1067

>  <SCORE.INTER.VDW>
-15.4877

>  <SCORE.INTER.norm>
-2.85762

>  <SCORE.INTRA>
0.855706

>  <SCORE.INTRA.DIHEDRAL>
4.45519

>  <SCORE.INTRA.DIHEDRAL.0>
6.04201

>  <SCORE.INTRA.POLAR>
0

>  <SCORE.INTRA.POLAR.0>
0

>  <SCORE.INTRA.REPUL>
0

>  <SCORE.INTRA.REPUL.0>
0

>  <SCORE.INTRA.SOLV>
-0.130592

>  <SCORE.INTRA.SOLV.lig_0>
-71.0481

>  <SCORE.INTRA.VDW>
-1.30659

>  <SCORE.INTRA.VDW.0>
0.968882

>  <SCORE.INTRA.norm>
0.0713088

>  <SCORE.RESTR>
0.152881

>  <SCORE.RESTR.CAVITY>
0.152881

>  <SCORE.RESTR.norm>
0.0127401

>  <SCORE.SYSTEM>
0

>  <SCORE.SYSTEM.CONST>
0

>  <SCORE.SYSTEM.DIHEDRAL>
0

>  <SCORE.SYSTEM.SOLV>
0

>  <SCORE.SYSTEM.norm>
0

>  <SCORE.heavy>
12

>  <SCORE.norm>
-2.77357

>  <SYMMETRIC_BONDS>
11 12 2
5 6 2

>  <RMSD>
1.901

$$$$
1koc cryst
 OpenBabel11021811393D
libRbt.so/2013.1/901 2013/11/27
 12 11  0  0  0  0  0  0  0  0999 V2000
    2.2469    8.7528   32.5775 N   0  3  0  0  0  0  0  0  0  0  0  0
    2.8655    7.3927   32.5925 C   0  0  2  0  0  0  0  0  0  0  0  0
    4.3233    7.4984   32.1036 C   0  0  0  0  0  0  0  0  0  0  0  0
    4.5397    8.1281   31.0791 O   0  5  0  0  0  0  0  0  0  0  0  0
    2.0416    6.4491   31.6754 C   0  0  0  0  0  0  0  0  0  0  0  0
    2.7599    5.1095   31.4747 C   0  0  0  0  0  0  0  0  0  0  0  0
    1.9991    4.2684   30.4555 C   0  0  0  0  0  0  0  0  0  0  0  0
    2.7794    3.0395   30.1280 N   0  0  0  0  0  0  0  0  0  0  0  0
    2.4314    1.8809   30.6341 C   0  0  0  0  0  0  0  0  0  0  0  0
    1.1662    1.5852   30.8006 N   0  0  0  0  0  0  0  0  0  0  0  0
    3.3507    1.0141   30.9697 N   0  3  0  0  0  0  0  0  0  0  0  0
    5.1956    6.9406   32.7527 O   0  0  0  0  0  0  0  0  0  0  0  0
  2  1  1  6  0  0  0
  2  5  1  0  0  0  0
  2  3  1  0  0  0  0
  3  4  1  0  0  0  0
  3 12  2  0  0  0  0
  5  6  1  0  0  0  0
  6  7  1  0  0  0  0
  7  8  1  0  0  0  0
  8  9  1  0  0  0  0
  9 10  1  0  0  0  0
  9 11  2  0  0  0  0
M  CHG  3   1   1   4  -1  11   1
M  END
>  <CHROM.1>
-56.04230203,170.73957665,-48.16015213,-174.02468542,172.97209708,103.54851070
2.97956017,5.18475280,31.44098727,1.36791769,-0.06673419,0.23113170

>  <Name>
1koc cryst

>  <RI>
0

>  <Rbt.Current_Directory>
/home/itssahil/PROJECTS/Mol_Feturizer/New_Systems/rnas/1koc

>  <Rbt.Executable>
rbdock ($Id: //depot/dev/client3/rdock/2013.1/src/exe/rbdock.cxx#4 $)

>  <Rbt.Library>
libRbt.so (2013.1, Build901 2013/11/27)

>  <Rbt.Parameter_File>
/export/apps/rDock/src/rDock_2013.1_src/data/scripts/dock_solv.prm

>  <Rbt.Receptor>
prm/pocket_docking_4.prm

>  <SCORE>
-35.4114

>  <SCORE.INTER>
-32.0678

>  <SCORE.INTER.CONST>
1

>  <SCORE.INTER.POLAR>
-5.7582

>  <SCORE.INTER.ROT>
5

>  <SCORE.INTER.SOLV>
24.9947

>  <SCORE.INTER.VDW>
-17.4494

>  <SCORE.INTER.norm>
-2.67232

>  <SCORE.INTRA>
-3.34365

>  <SCORE.INTRA.DIHEDRAL>
-1.94344

>  <SCORE.INTRA.DIHEDRAL.0>
6.04201

>  <SCORE.INTRA.POLAR>
0

>  <SCORE.INTRA.POLAR.0>
0

>  <SCORE.INTRA.REPUL>
0

>  <SCORE.INTRA.REPUL.0>
0

>  <SCORE.INTRA.SOLV>
-1.17651

>  <SCORE.INTRA.SOLV.lig_0>
-71.0481

>  <SCORE.INTRA.VDW>
-1.78367

>  <SCORE.INTRA.VDW.0>
0.968882

>  <SCORE.INTRA.norm>
-0.278637

>  <SCORE.RESTR>
0

>  <SCORE.RESTR.CAVITY>
0

>  <SCORE.RESTR.norm>
0

>  <SCORE.SYSTEM>
0

>  <SCORE.SYSTEM.CONST>
0

>  <SCORE.SYSTEM.DIHEDRAL>
0

>  <SCORE.SYSTEM.SOLV>
0

>  <SCORE.SYSTEM.norm>
0

>  <SCORE.heavy>
12

>  <SCORE.norm>
-2.95095

>  <SYMMETRIC_BONDS>
11 12 2
5 6 2

>  <RMSD>
1.906

$$$$
1koc cryst
 OpenBabel11021811393D
libRbt.so/2013.1/901 2013/11/27
 12 11  0  0  0  0  0  0  0  0999 V2000
    2.2705    6.0945   31.6883 N   0  3  0  0  0  0  0  0  0  0  0  0
    3.7436    6.1648   31.9286 C   0  0  2  0  0  0  0  0  0  0  0  0
    4.2438    7.5786   31.5732 C   0  0  0  0  0  0  0  0  0  0  0  0
    5.4387    7.7281   31.3659 O   0  5  0  0  0  0  0  0  0  0  0  0
    4.4526    5.0923   31.0584 C   0  0  0  0  0  0  0  0  0  0  0  0
    3.9421    3.6856   31.3922 C   0  0  0  0  0  0  0  0  0  0  0  0
    3.4613    2.9999   30.1180 C   0  0  0  0  0  0  0  0  0  0  0  0
    3.0025    1.6146   30.4294 N   0  0  0  0  0  0  0  0  0  0  0  0
    2.0577    1.4147   31.3166 C   0  0  0  0  0  0  0  0  0  0  0  0
    1.0612    2.2584   31.4228 N   0  0  0  0  0  0  0  0  0  0  0  0
    2.1069    0.3662   32.0956 N   0  3  0  0  0  0  0  0  0  0  0  0
    3.4291    8.4882   31.5253 O   0  0  0  0  0  0  0  0  0  0  0  0
  2  1  1  6  0  0  0
  2  5  1  0  0  0  0
  2  3  1  0  0  0  0
  3  4  1  0  0  0  0
  3 12  2  0  0  0  0
  5  6  1  0  0  0  0
  6  7  1  0  0  0  0
  7  8  1  0  0  0  0
  8  9  1  0  0  0  0
  9 10  1  0  0  0  0
  9 11  2  0  0  0  0
M  CHG  3   1   1   4  -1  11   1
M  END
>  <CHROM.1>
-171.19444796,-58.98775592,-161.02349843,125.81528187,178.25160325,57.10228324
3.22919221,4.46344360,31.33403852,1.25324945,0.30087933,0.13158816

>  <Name>
1koc cryst

>  <RI>
0

>  <Rbt.Current_Directory>
/home/itssahil/PROJECTS/Mol_Feturizer/New_Systems/rnas/1koc

>  <Rbt.Executable>
rbdock ($Id: //depot/dev/client3/rdock/2013.1/src/exe/rbdock.cxx#4 $)

>  <Rbt.Library>
libRbt.so (2013.1, Build901 2013/11/27)

>  <Rbt.Parameter_File>
/export/apps/rDock/src/rDock_2013.1_src/data/scripts/dock_solv.prm

>  <Rbt.Receptor>
prm/pocket_docking_2.prm

>  <SCORE>
-23.8525

>  <SCORE.INTER>
-25.5277

>  <SCORE.INTER.CONST>
1

>  <SCORE.INTER.POLAR>
-5.02979

>  <SCORE.INTER.ROT>
5

>  <SCORE.INTER.SOLV>
24.8773

>  <SCORE.INTER.VDW>
-15.4783

>  <SCORE.INTER.norm>
-2.12731

>  <SCORE.INTRA>
1.08892

>  <SCORE.INTRA.DIHEDRAL>
3.57692

>  <SCORE.INTRA.DIHEDRAL.0>
6.04201

>  <SCORE.INTRA.POLAR>
0

>  <SCORE.INTRA.POLAR.0>
0

>  <SCORE.INTRA.REPUL>
0

>  <SCORE.INTRA.REPUL.0>
0

>  <SCORE.INTRA.SOLV>
1.42151

>  <SCORE.INTRA.SOLV.lig_0>
-71.0481

>  <SCORE.INTRA.VDW>
-1.4103

>  <SCORE.INTRA.VDW.0>
0.968882

>  <SCORE.INTRA.norm>
0.090743

>  <SCORE.RESTR>
0.586318

>  <SCORE.RESTR.CAVITY>
0.586318

>  <SCORE.RESTR.norm>
0.0488598

>  <SCORE.SYSTEM>
0

>  <SCORE.SYSTEM.CONST>
0

>  <SCORE.SYSTEM.DIHEDRAL>
0

>  <SCORE.SYSTEM.SOLV>
0

>  <SCORE.SYSTEM.norm>
0

>  <SCORE.heavy>
12

>  <SCORE.norm>
-1.9877

>  <SYMMETRIC_BONDS>
11 12 2
5 6 2

>  <RMSD>
1.907

$$$$
1koc cryst
 OpenBabel11021811393D
libRbt.so/2013.1/901 2013/11/27
 12 11  0  0  0  0  0  0  0  0999 V2000
    2.7387    8.1133   33.5442 N   0  3  0  0  0  0  0  0  0  0  0  0
    3.5668    7.1090   32.8105 C   0  0  2  0  0  0  0  0  0  0  0  0
    4.7204    7.8368   32.0929 C   0  0  0  0  0  0  0  0  0  0  0  0
    4.6365    9.0482   31.9566 O   0  5  0  0  0  0  0  0  0  0  0  0
    2.6692    6.3562   31.7918 C   0  0  0  0  0  0  0  0  0  0  0  0
    3.2572    4.9826   31.4481 C   0  0  0  0  0  0  0  0  0  0  0  0
    2.4282    4.3323   30.3458 C   0  0  0  0  0  0  0  0  0  0  0  0
    2.8142    2.8984   30.1996 N   0  0  0  0  0  0  0  0  0  0  0  0
    2.3712    2.0043   31.0505 C   0  0  0  0  0  0  0  0  0  0  0  0
    1.1606    2.1015   31.5413 N   0  0  0  0  0  0  0  0  0  0  0  0
    3.1388    1.0081   31.4072 N   0  3  0  0  0  0  0  0  0  0  0  0
    5.6605    7.1726   31.6826 O   0  0  0  0  0  0  0  0  0  0  0  0
  2  1  1  6  0  0  0
  2  5  1  0  0  0  0
  2  3  1  0  0  0  0
  3  4  1  0  0  0  0
  3 12  2  0  0  0  0
  5  6  1  0  0  0  0
  6  7  1  0  0  0  0
  7  8  1  0  0  0  0
  8  9  1  0  0  0  0
  9 10  1  0  0  0  0
  9 11  2  0  0  0  0
M  CHG  3   1   1   4  -1  11   1
M  END
>  <CHROM.1>
-62.84952129,-156.25866809,-16.07606396,-174.39809815,-168.47374565,78.20148608
3.25901288,5.25832503,31.67729558,1.24950414,0.43717932,0.35830296

>  <Name>
1koc cryst

>  <RI>
0

>  <Rbt.Current_Directory>
/home/itssahil/PROJECTS/Mol_Feturizer/New_Systems/rnas/1koc

>  <Rbt.Executable>
rbdock ($Id: //depot/dev/client3/rdock/2013.1/src/exe/rbdock.cxx#4 $)

>  <Rbt.Library>
libRbt.so (2013.1, Build901 2013/11/27)

>  <Rbt.Parameter_File>
/export/apps/rDock/src/rDock_2013.1_src/data/scripts/dock_solv.prm

>  <Rbt.Receptor>
prm/pocket_docking_8.prm

>  <SCORE>
-26.3434

>  <SCORE.INTER>
-23.6109

>  <SCORE.INTER.CONST>
1

>  <SCORE.INTER.POLAR>
-4.07963

>  <SCORE.INTER.ROT>
5

>  <SCORE.INTER.SOLV>
22.3366

>  <SCORE.INTER.VDW>
-16.5207

>  <SCORE.INTER.norm>
-1.96758

>  <SCORE.INTRA>
-2.73245

>  <SCORE.INTRA.DIHEDRAL>
-0.233509

>  <SCORE.INTRA.DIHEDRAL.0>
6.04201

>  <SCORE.INTRA.POLAR>
0

>  <SCORE.INTRA.POLAR.0>
0

>  <SCORE.INTRA.REPUL>
0

>  <SCORE.INTRA.REPUL.0>
0

>  <SCORE.INTRA.SOLV>
-1.02463

>  <SCORE.INTRA.SOLV.lig_0>
-71.0481

>  <SCORE.INTRA.VDW>
-2.10338

>  <SCORE.INTRA.VDW.0>
0.968882

>  <SCORE.INTRA.norm>
-0.227704

>  <SCORE.RESTR>
0

>  <SCORE.RESTR.CAVITY>
0

>  <SCORE.RESTR.norm>
0

>  <SCORE.SYSTEM>
0

>  <SCORE.SYSTEM.CONST>
0

>  <SCORE.SYSTEM.DIHEDRAL>
0

>  <SCORE.SYSTEM.SOLV>
0

>  <SCORE.SYSTEM.norm>
0

>  <SCORE.heavy>
12

>  <SCORE.norm>
-2.19528

>  <SYMMETRIC_BONDS>
11 12 2
5 6 2

>  <RMSD>
1.913

$$$$
1koc cryst
 OpenBabel11021811393D
libRbt.so/2013.1/901 2013/11/27
 12 11  0  0  0  0  0  0  0  0999 V2000
    4.7354    8.3670   29.7782 N   0  3  0  0  0  0  0  0  0  0  0  0
    4.7014    7.0384   30.4612 C   0  0  2  0  0  0  0  0  0  0  0  0
    6.0634    6.3419   30.2733 C   0  0  0  0  0  0  0  0  0  0  0  0
    6.6733    5.9971   31.2744 O   0  5  0  0  0  0  0  0  0  0  0  0
    3.5552    6.1843   29.8554 C   0  0  0  0  0  0  0  0  0  0  0  0
    3.0155    5.1793   30.8798 C   0  0  0  0  0  0  0  0  0  0  0  0
    2.1681    4.1294   30.1694 C   0  0  0  0  0  0  0  0  0  0  0  0
    1.9151    2.9779   31.0840 N   0  0  0  0  0  0  0  0  0  0  0  0
    2.7377    1.9568   31.1047 C   0  0  0  0  0  0  0  0  0  0  0  0
    4.0255    2.1420   30.9523 N   0  0  0  0  0  0  0  0  0  0  0  0
    2.2719    0.7485   31.2833 N   0  3  0  0  0  0  0  0  0  0  0  0
    6.4786    6.1750   29.1362 O   0  0  0  0  0  0  0  0  0  0  0  0
  2  1  1  6  0  0  0
  2  5  1  0  0  0  0
  2  3  1  0  0  0  0
  3  4  1  0  0  0  0
  3 12  2  0  0  0  0
  5  6  1  0  0  0  0
  6  7  1  0  0  0  0
  7  8  1  0  0  0  0
  8  9  1  0  0  0  0
  9 10  1  0  0  0  0
  9 11  2  0  0  0  0
M  CHG  3   1   1   4  -1  11   1
M  END
>  <CHROM.1>
-177.32376267,-151.99904545,123.52096603,-165.29746017,166.37853614,-90.61282467
4.05278528,4.77714867,30.51528553,1.04331682,-0.02777403,-0.21487728

>  <Name>
1koc cryst

>  <RI>
0

>  <Rbt.Current_Directory>
/home/itssahil/PROJECTS/Mol_Feturizer/New_Systems/rnas/1koc

>  <Rbt.Executable>
rbdock ($Id: //depot/dev/client3/rdock/2013.1/src/exe/rbdock.cxx#4 $)

>  <Rbt.Library>
libRbt.so (2013.1, Build901 2013/11/27)

>  <Rbt.Parameter_File>
/export/apps/rDock/src/rDock_2013.1_src/data/scripts/dock_solv.prm

>  <Rbt.Receptor>
prm/pocket_docking_3.prm

>  <SCORE>
-33.433

>  <SCORE.INTER>
-31.6525

>  <SCORE.INTER.CONST>
1

>  <SCORE.INTER.POLAR>
-6.15535

>  <SCORE.INTER.ROT>
5

>  <SCORE.INTER.SOLV>
15.9521

>  <SCORE.INTER.VDW>
-12.8346

>  <SCORE.INTER.norm>
-2.63771

>  <SCORE.INTRA>
-1.78042

>  <SCORE.INTRA.DIHEDRAL>
1.26234

>  <SCORE.INTRA.DIHEDRAL.0>
6.04201

>  <SCORE.INTRA.POLAR>
0

>  <SCORE.INTRA.POLAR.0>
0

>  <SCORE.INTRA.REPUL>
0

>  <SCORE.INTRA.REPUL.0>
0

>  <SCORE.INTRA.SOLV>
-0.738912

>  <SCORE.INTRA.SOLV.lig_0>
-71.0481

>  <SCORE.INTRA.VDW>
-2.04213

>  <SCORE.INTRA.VDW.0>
0.968882

>  <SCORE.INTRA.norm>
-0.148368

>  <SCORE.RESTR>
0

>  <SCORE.RESTR.CAVITY>
0

>  <SCORE.RESTR.norm>
0

>  <SCORE.SYSTEM>
0

>  <SCORE.SYSTEM.CONST>
0

>  <SCORE.SYSTEM.DIHEDRAL>
0

>  <SCORE.SYSTEM.SOLV>
0

>  <SCORE.SYSTEM.norm>
0

>  <SCORE.heavy>
12

>  <SCORE.norm>
-2.78608

>  <SYMMETRIC_BONDS>
11 12 2
5 6 2

>  <RMSD>
1.937

$$$$
1koc cryst
 OpenBabel11021811393D
libRbt.so/2013.1/901 2013/11/27
 12 11  0  0  0  0  0  0  0  0999 V2000
    3.4546    6.6435   33.2935 N   0  3  0  0  0  0  0  0  0  0  0  0
    4.0804    5.9900   32.1043 C   0  0  2  0  0  0  0  0  0  0  0  0
    5.5085    6.5402   31.9221 C   0  0  0  0  0  0  0  0  0  0  0  0
    5.7363    7.6790   32.3019 O   0  5  0  0  0  0  0  0  0  0  0  0
    3.2123    6.2784   30.8500 C   0  0  0  0  0  0  0  0  0  0  0  0
    1.9145    5.4624   30.8778 C   0  0  0  0  0  0  0  0  0  0  0  0
    2.1201    4.1484   30.1321 C   0  0  0  0  0  0  0  0  0  0  0  0
    1.9063    2.9996   31.0599 N   0  0  0  0  0  0  0  0  0  0  0  0
    2.7547    1.9999   31.0810 C   0  0  0  0  0  0  0  0  0  0  0  0
    4.0357    2.2161   30.9126 N   0  0  0  0  0  0  0  0  0  0  0  0
    2.3216    0.7820   31.2759 N   0  3  0  0  0  0  0  0  0  0  0  0
    6.3456    5.8211   31.3973 O   0  0  0  0  0  0  0  0  0  0  0  0
  2  1  1  1  0  0  0
  2  5  1  0  0  0  0
  2  3  1  0  0  0  0
  3  4  1  0  0  0  0
  3 12  2  0  0  0  0
  5  6  1  0  0  0  0
  6  7  1  0  0  0  0
  7  8  1  0  0  0  0
  8  9  1  0  0  0  0
  9 10  1  0  0  0  0
  9 11  2  0  0  0  0
M  CHG  3   1   1   4  -1  11   1
M  END
>  <CHROM.1>
-63.78612326,-73.25433417,-29.09403579,-92.53526096,118.90005229,-134.07387500
3.63043782,4.71035848,31.46819689,1.08771527,-0.10963724,0.17730427

>  <Name>
1koc cryst

>  <RI>
0

>  <Rbt.Current_Directory>
/home/itssahil/PROJECTS/Mol_Feturizer/New_Systems/rnas/1koc

>  <Rbt.Executable>
rbdock ($Id: //depot/dev/client3/rdock/2013.1/src/exe/rbdock.cxx#4 $)

>  <Rbt.Library>
libRbt.so (2013.1, Build901 2013/11/27)

>  <Rbt.Parameter_File>
/export/apps/rDock/src/rDock_2013.1_src/data/scripts/dock_solv.prm

>  <Rbt.Receptor>
prm/pocket_docking_3.prm

>  <SCORE>
-27.5928

>  <SCORE.INTER>
-28.7691

>  <SCORE.INTER.CONST>
1

>  <SCORE.INTER.POLAR>
-5.0873

>  <SCORE.INTER.ROT>
5

>  <SCORE.INTER.SOLV>
17.0321

>  <SCORE.INTER.VDW>
-14.8325

>  <SCORE.INTER.norm>
-2.39743

>  <SCORE.INTRA>
1.17635

>  <SCORE.INTRA.DIHEDRAL>
6.9945

>  <SCORE.INTRA.DIHEDRAL.0>
6.04201

>  <SCORE.INTRA.POLAR>
0

>  <SCORE.INTRA.POLAR.0>
0

>  <SCORE.INTRA.REPUL>
0

>  <SCORE.INTRA.REPUL.0>
0

>  <SCORE.INTRA.SOLV>
0.344559

>  <SCORE.INTRA.SOLV.lig_0>
-71.0481

>  <SCORE.INTRA.VDW>
-2.49318

>  <SCORE.INTRA.VDW.0>
0.968882

>  <SCORE.INTRA.norm>
0.098029

>  <SCORE.RESTR>
0

>  <SCORE.RESTR.CAVITY>
0

>  <SCORE.RESTR.norm>
0

>  <SCORE.SYSTEM>
0

>  <SCORE.SYSTEM.CONST>
0

>  <SCORE.SYSTEM.DIHEDRAL>
0

>  <SCORE.SYSTEM.SOLV>
0

>  <SCORE.SYSTEM.norm>
0

>  <SCORE.heavy>
12

>  <SCORE.norm>
-2.2994

>  <SYMMETRIC_BONDS>
11 12 2
5 6 2

>  <RMSD>
1.937

$$$$
1koc cryst
 OpenBabel11021811393D
libRbt.so/2013.1/901 2013/11/27
 12 11  0  0  0  0  0  0  0  0999 V2000
    4.7698    8.3373   29.8135 N   0  3  0  0  0  0  0  0  0  0  0  0
    4.7247    6.9900   30.4582 C   0  0  2  0  0  0  0  0  0  0  0  0
    6.0869    6.2952   30.2658 C   0  0  0  0  0  0  0  0  0  0  0  0
    6.6740    5.8999   31.2619 O   0  5  0  0  0  0  0  0  0  0  0  0
    3.5832    6.1568   29.8157 C   0  0  0  0  0  0  0  0  0  0  0  0
    2.9418    5.2159   30.8425 C   0  0  0  0  0  0  0  0  0  0  0  0
    2.1354    4.1426   30.1196 C   0  0  0  0  0  0  0  0  0  0  0  0
    1.8713    2.9994   31.0414 N   0  0  0  0  0  0  0  0  0  0  0  0
    2.7068    1.9903   31.0996 C   0  0  0  0  0  0  0  0  0  0  0  0
    3.9959    2.1915   30.9826 N   0  0  0  0  0  0  0  0  0  0  0  0
    2.2523    0.7780   31.2803 N   0  3  0  0  0  0  0  0  0  0  0  0
    6.5251    6.1798   29.1310 O   0  0  0  0  0  0  0  0  0  0  0  0
  2  1  1  6  0  0  0
  2  5  1  0  0  0  0
  2  3  1  0  0  0  0
  3  4  1  0  0  0  0
  3 12  2  0  0  0  0
  5  6  1  0  0  0  0
  6  7  1  0  0  0  0
  7  8  1  0  0  0  0
  8  9  1  0  0  0  0
  9 10  1  0  0  0  0
  9 11  2  0  0  0  0
M  CHG  3   1   1   4  -1  11   1
M  END
>  <CHROM.1>
-59.68329666,-146.71842770,124.75157189,-163.36900876,162.26952393,-90.86127473
4.04712566,4.77228588,30.50490312,1.02570452,-0.03386954,-0.22111810

>  <Name>
1koc cryst

>  <RI>
0

>  <Rbt.Current_Directory>
/home/itssahil/PROJECTS/Mol_Feturizer/New_Systems/rnas/1koc

>  <Rbt.Executable>
rbdock ($Id: //depot/dev/client3/rdock/2013.1/src/exe/rbdock.cxx#4 $)

>  <Rbt.Library>
libRbt.so (2013.1, Build901 2013/11/27)

>  <Rbt.Parameter_File>
/export/apps/rDock/src/rDock_2013.1_src/data/scripts/dock_solv.prm

>  <Rbt.Receptor>
prm/pocket_docking_3.prm

>  <SCORE>
-33.2008

>  <SCORE.INTER>
-32.0609

>  <SCORE.INTER.CONST>
1

>  <SCORE.INTER.POLAR>
-6.17812

>  <SCORE.INTER.ROT>
5

>  <SCORE.INTER.SOLV>
15.6103

>  <SCORE.INTER.VDW>
-12.917

>  <SCORE.INTER.norm>
-2.67174

>  <SCORE.INTRA>
-1.13995

>  <SCORE.INTRA.DIHEDRAL>
2.61168

>  <SCORE.INTRA.DIHEDRAL.0>
6.04201

>  <SCORE.INTRA.POLAR>
0

>  <SCORE.INTRA.POLAR.0>
0

>  <SCORE.INTRA.REPUL>
0

>  <SCORE.INTRA.REPUL.0>
0

>  <SCORE.INTRA.SOLV>
-0.660282

>  <SCORE.INTRA.SOLV.lig_0>
-71.0481

>  <SCORE.INTRA.VDW>
-2.11565

>  <SCORE.INTRA.VDW.0>
0.968882

>  <SCORE.INTRA.norm>
-0.0949962

>  <SCORE.RESTR>
0

>  <SCORE.RESTR.CAVITY>
0

>  <SCORE.RESTR.norm>
0

>  <SCORE.SYSTEM>
0

>  <SCORE.SYSTEM.CONST>
0

>  <SCORE.SYSTEM.DIHEDRAL>
0

>  <SCORE.SYSTEM.SOLV>
0

>  <SCORE.SYSTEM.norm>
0

>  <SCORE.heavy>
12

>  <SCORE.norm>
-2.76674

>  <SYMMETRIC_BONDS>
11 12 2
5 6 2

>  <RMSD>
1.940

$$$$
1koc cryst
 OpenBabel11021811393D
libRbt.so/2013.1/901 2013/11/27
 12 11  0  0  0  0  0  0  0  0999 V2000
    4.5054    7.1950   27.5005 N   0  3  0  0  0  0  0  0  0  0  0  0
    4.1761    6.7987   28.9031 C   0  0  2  0  0  0  0  0  0  0  0  0
    5.3925    7.0854   29.8050 C   0  0  0  0  0  0  0  0  0  0  0  0
    5.1846    7.5425   30.9189 O   0  5  0  0  0  0  0  0  0  0  0  0
    3.8089    5.2905   28.9326 C   0  0  0  0  0  0  0  0  0  0  0  0
    2.8726    4.9736   30.1046 C   0  0  0  0  0  0  0  0  0  0  0  0
    3.4916    3.8848   30.9743 C   0  0  0  0  0  0  0  0  0  0  0  0
    3.1786    2.5416   30.4051 N   0  0  0  0  0  0  0  0  0  0  0  0
    2.2893    1.7697   30.9822 C   0  0  0  0  0  0  0  0  0  0  0  0
    1.2212    2.2898   31.5342 N   0  0  0  0  0  0  0  0  0  0  0  0
    2.4660    0.4747   31.0028 N   0  3  0  0  0  0  0  0  0  0  0  0
    6.5091    6.8549   29.3651 O   0  0  0  0  0  0  0  0  0  0  0  0
  2  1  1  6  0  0  0
  2  5  1  0  0  0  0
  2  3  1  0  0  0  0
  3  4  1  0  0  0  0
  3 12  2  0  0  0  0
  5  6  1  0  0  0  0
  6  7  1  0  0  0  0
  7  8  1  0  0  0  0
  8  9  1  0  0  0  0
  9 10  1  0  0  0  0
  9 11  2  0  0  0  0
M  CHG  3   1   1   4  -1  11   1
M  END
>  <CHROM.1>
-161.37781001,-153.52333592,140.16063414,-123.70456498,-84.06889196,-106.04632265
3.76662870,4.72591450,30.01549805,0.67683666,-0.94013993,-1.12659238

>  <Name>
1koc cryst

>  <RI>
0

>  <Rbt.Current_Directory>
/home/itssahil/PROJECTS/Mol_Feturizer/New_Systems/rnas/1koc

>  <Rbt.Executable>
rbdock ($Id: //depot/dev/client3/rdock/2013.1/src/exe/rbdock.cxx#4 $)

>  <Rbt.Library>
libRbt.so (2013.1, Build901 2013/11/27)

>  <Rbt.Parameter_File>
/export/apps/rDock/src/rDock_2013.1_src/data/scripts/dock_solv.prm

>  <Rbt.Receptor>
prm/pocket_docking_3.prm

>  <SCORE>
-34.1052

>  <SCORE.INTER>
-35.6803

>  <SCORE.INTER.CONST>
1

>  <SCORE.INTER.POLAR>
-6.54636

>  <SCORE.INTER.ROT>
5

>  <SCORE.INTER.SOLV>
23.9354

>  <SCORE.INTER.VDW>
-16.8775

>  <SCORE.INTER.norm>
-2.97336

>  <SCORE.INTRA>
1.47635

>  <SCORE.INTRA.DIHEDRAL>
8.27904

>  <SCORE.INTRA.DIHEDRAL.0>
6.04201

>  <SCORE.INTRA.POLAR>
0

>  <SCORE.INTRA.POLAR.0>
0

>  <SCORE.INTRA.REPUL>
0

>  <SCORE.INTRA.REPUL.0>
0

>  <SCORE.INTRA.SOLV>
-0.585727

>  <SCORE.INTRA.SOLV.lig_0>
-71.0481

>  <SCORE.INTRA.VDW>
-2.3703

>  <SCORE.INTRA.VDW.0>
0.968882

>  <SCORE.INTRA.norm>
0.123029

>  <SCORE.RESTR>
0.0987519

>  <SCORE.RESTR.CAVITY>
0.0987519

>  <SCORE.RESTR.norm>
0.00822933

>  <SCORE.SYSTEM>
0

>  <SCORE.SYSTEM.CONST>
0

>  <SCORE.SYSTEM.DIHEDRAL>
0

>  <SCORE.SYSTEM.SOLV>
0

>  <SCORE.SYSTEM.norm>
0

>  <SCORE.heavy>
12

>  <SCORE.norm>
-2.8421

>  <SYMMETRIC_BONDS>
11 12 2
5 6 2

>  <RMSD>
1.952

$$$$
1koc cryst
 OpenBabel11021811393D
libRbt.so/2013.1/901 2013/11/27
 12 11  0  0  0  0  0  0  0  0999 V2000
    4.2608    6.6027   28.1753 N   0  3  0  0  0  0  0  0  0  0  0  0
    4.2208    6.5543   29.6682 C   0  0  2  0  0  0  0  0  0  0  0  0
    4.9080    7.8142   30.2304 C   0  0  0  0  0  0  0  0  0  0  0  0
    4.3246    8.8822   30.1203 O   0  5  0  0  0  0  0  0  0  0  0  0
    4.9408    5.2679   30.1548 C   0  0  0  0  0  0  0  0  0  0  0  0
    4.1222    4.0162   29.8170 C   0  0  0  0  0  0  0  0  0  0  0  0
    3.6686    3.3382   31.1052 C   0  0  0  0  0  0  0  0  0  0  0  0
    3.4222    1.8879   30.8557 N   0  0  0  0  0  0  0  0  0  0  0  0
    2.2434    1.3663   31.0969 C   0  0  0  0  0  0  0  0  0  0  0  0
    1.1549    2.0584   30.8684 N   0  0  0  0  0  0  0  0  0  0  0  0
    2.1530    0.1483   31.5628 N   0  3  0  0  0  0  0  0  0  0  0  0
    6.0075    7.6934   30.7498 O   0  0  0  0  0  0  0  0  0  0  0  0
  2  1  1  6  0  0  0
  2  5  1  0  0  0  0
  2  3  1  0  0  0  0
  3  4  1  0  0  0  0
  3 12  2  0  0  0  0
  5  6  1  0  0  0  0
  6  7  1  0  0  0  0
  7  8  1  0  0  0  0
  8  9  1  0  0  0  0
  9 10  1  0  0  0  0
  9 11  2  0  0  0  0
M  CHG  3   1   1   4  -1  11   1
M  END
>  <CHROM.1>
-85.95744724,-70.29250251,71.98495335,-115.22572759,-155.22827471,-121.82206555
3.77560395,4.64042433,30.34355499,1.11877316,-0.55858136,-0.44796727

>  <Name>
1koc cryst

>  <RI>
0

>  <Rbt.Current_Directory>
/home/itssahil/PROJECTS/Mol_Feturizer/New_Systems/rnas/1koc

>  <Rbt.Executable>
rbdock ($Id: //depot/dev/client3/rdock/2013.1/src/exe/rbdock.cxx#4 $)

>  <Rbt.Library>
libRbt.so (2013.1, Build901 2013/11/27)

>  <Rbt.Parameter_File>
/export/apps/rDock/src/rDock_2013.1_src/data/scripts/dock_solv.prm

>  <Rbt.Receptor>
prm/pocket_docking_2.prm

>  <SCORE>
-22.5333

>  <SCORE.INTER>
-25.8763

>  <SCORE.INTER.CONST>
1

>  <SCORE.INTER.POLAR>
-5.44955

>  <SCORE.INTER.ROT>
5

>  <SCORE.INTER.SOLV>
24.5958

>  <SCORE.INTER.VDW>
-14.2177

>  <SCORE.INTER.norm>
-2.15636

>  <SCORE.INTRA>
2.20589

>  <SCORE.INTRA.DIHEDRAL>
7.21483

>  <SCORE.INTRA.DIHEDRAL.0>
6.04201

>  <SCORE.INTRA.POLAR>
0

>  <SCORE.INTRA.POLAR.0>
0

>  <SCORE.INTRA.REPUL>
0

>  <SCORE.INTRA.REPUL.0>
0

>  <SCORE.INTRA.SOLV>
-1.08264

>  <SCORE.INTRA.SOLV.lig_0>
-71.0481

>  <SCORE.INTRA.VDW>
-0.860211

>  <SCORE.INTRA.VDW.0>
0.968882

>  <SCORE.INTRA.norm>
0.183824

>  <SCORE.RESTR>
1.13714

>  <SCORE.RESTR.CAVITY>
1.13714

>  <SCORE.RESTR.norm>
0.0947617

>  <SCORE.SYSTEM>
0

>  <SCORE.SYSTEM.CONST>
0

>  <SCORE.SYSTEM.DIHEDRAL>
0

>  <SCORE.SYSTEM.SOLV>
0

>  <SCORE.SYSTEM.norm>
0

>  <SCORE.heavy>
12

>  <SCORE.norm>
-1.87778

>  <SYMMETRIC_BONDS>
11 12 2
5 6 2

>  <RMSD>
1.955

$$$$
1koc cryst
 OpenBabel11021811393D
libRbt.so/2013.1/901 2013/11/27
 12 11  0  0  0  0  0  0  0  0999 V2000
    2.6172    6.9527   33.0729 N   0  3  0  0  0  0  0  0  0  0  0  0
    3.3050    5.7216   32.5788 C   0  0  2  0  0  0  0  0  0  0  0  0
    4.7894    5.7761   32.9899 C   0  0  0  0  0  0  0  0  0  0  0  0
    5.4166    6.7940   32.7376 O   0  5  0  0  0  0  0  0  0  0  0  0
    3.1612    5.6434   31.0350 C   0  0  0  0  0  0  0  0  0  0  0  0
    1.7091    5.3638   30.6298 C   0  0  0  0  0  0  0  0  0  0  0  0
    1.5906    3.9384   30.1014 C   0  0  0  0  0  0  0  0  0  0  0  0
    1.6544    2.9702   31.2349 N   0  0  0  0  0  0  0  0  0  0  0  0
    2.4301    1.9154   31.1606 C   0  0  0  0  0  0  0  0  0  0  0  0
    3.5920    1.9900   30.5605 N   0  0  0  0  0  0  0  0  0  0  0  0
    2.0449    0.7849   31.6922 N   0  3  0  0  0  0  0  0  0  0  0  0
    5.2767    4.7988   33.5382 O   0  0  0  0  0  0  0  0  0  0  0  0
  2  1  1  6  0  0  0
  2  5  1  0  0  0  0
  2  3  1  0  0  0  0
  3  4  1  0  0  0  0
  3 12  2  0  0  0  0
  5  6  1  0  0  0  0
  6  7  1  0  0  0  0
  7  8  1  0  0  0  0
  8  9  1  0  0  0  0
  9 10  1  0  0  0  0
  9 11  2  0  0  0  0
M  CHG  3   1   1   4  -1  11   1
M  END
>  <CHROM.1>
63.42149065,-68.98387532,-50.19694668,-108.44406399,74.47551778,-133.02381238
3.14351303,4.39258369,31.80738073,1.07552877,-0.55530352,0.12678547

>  <Name>
1koc cryst

>  <RI>
0

>  <Rbt.Current_Directory>
/home/itssahil/PROJECTS/Mol_Feturizer/New_Systems/rnas/1koc

>  <Rbt.Executable>
rbdock ($Id: //depot/dev/client3/rdock/2013.1/src/exe/rbdock.cxx#4 $)

>  <Rbt.Library>
libRbt.so (2013.1, Build901 2013/11/27)

>  <Rbt.Parameter_File>
/export/apps/rDock/src/rDock_2013.1_src/data/scripts/dock_solv.prm

>  <Rbt.Receptor>
prm/pocket_docking_3.prm

>  <SCORE>
-30.146

>  <SCORE.INTER>
-29.4894

>  <SCORE.INTER.CONST>
1

>  <SCORE.INTER.POLAR>
-5.25871

>  <SCORE.INTER.ROT>
5

>  <SCORE.INTER.SOLV>
23.403

>  <SCORE.INTER.VDW>
-16.8649

>  <SCORE.INTER.norm>
-2.45745

>  <SCORE.INTRA>
-0.656584

>  <SCORE.INTRA.DIHEDRAL>
4.03053

>  <SCORE.INTRA.DIHEDRAL.0>
6.04201

>  <SCORE.INTRA.POLAR>
0

>  <SCORE.INTRA.POLAR.0>
0

>  <SCORE.INTRA.REPUL>
0

>  <SCORE.INTRA.REPUL.0>
0

>  <SCORE.INTRA.SOLV>
-0.0413842

>  <SCORE.INTRA.SOLV.lig_0>
-71.0481

>  <SCORE.INTRA.VDW>
-2.65116

>  <SCORE.INTRA.VDW.0>
0.968882

>  <SCORE.INTRA.norm>
-0.0547153

>  <SCORE.RESTR>
0

>  <SCORE.RESTR.CAVITY>
0

>  <SCORE.RESTR.norm>
0

>  <SCORE.SYSTEM>
0

>  <SCORE.SYSTEM.CONST>
0

>  <SCORE.SYSTEM.DIHEDRAL>
0

>  <SCORE.SYSTEM.SOLV>
0

>  <SCORE.SYSTEM.norm>
0

>  <SCORE.heavy>
12

>  <SCORE.norm>
-2.51216

>  <SYMMETRIC_BONDS>
11 12 2
5 6 2

>  <RMSD>
1.955

$$$$
1koc cryst
 OpenBabel11021811393D
libRbt.so/2013.1/901 2013/11/27
 12 11  0  0  0  0  0  0  0  0999 V2000
    3.3841    6.2107   33.0875 N   0  3  0  0  0  0  0  0  0  0  0  0
    3.7987    5.0730   32.2118 C   0  0  2  0  0  0  0  0  0  0  0  0
    5.3204    4.8666   32.3430 C   0  0  0  0  0  0  0  0  0  0  0  0
    5.7202    3.7728   32.7128 O   0  5  0  0  0  0  0  0  0  0  0  0
    3.4085    5.3930   30.7436 C   0  0  0  0  0  0  0  0  0  0  0  0
    1.8893    5.3235   30.5489 C   0  0  0  0  0  0  0  0  0  0  0  0
    1.4963    3.9256   30.0838 C   0  0  0  0  0  0  0  0  0  0  0  0
    1.5952    2.9657   31.2219 N   0  0  0  0  0  0  0  0  0  0  0  0
    2.3917    1.9269   31.1434 C   0  0  0  0  0  0  0  0  0  0  0  0
    3.5439    2.0221   30.5275 N   0  0  0  0  0  0  0  0  0  0  0  0
    2.0373    0.7918   31.6865 N   0  3  0  0  0  0  0  0  0  0  0  0
    6.0585    5.8053   32.0836 O   0  0  0  0  0  0  0  0  0  0  0  0
  2  1  1  1  0  0  0
  2  5  1  0  0  0  0
  2  3  1  0  0  0  0
  3  4  1  0  0  0  0
  3 12  2  0  0  0  0
  5  6  1  0  0  0  0
  6  7  1  0  0  0  0
  7  8  1  0  0  0  0
  8  9  1  0  0  0  0
  9 10  1  0  0  0  0
  9 11  2  0  0  0  0
M  CHG  3   1   1   4  -1  11   1
M  END
>  <CHROM.1>
177.90348160,-71.21768943,121.96683816,-92.83778431,73.77213598,-120.85508553
3.40533504,4.00528060,31.56654970,0.82885328,-0.40772589,0.03387394

>  <Name>
1koc cryst

>  <RI>
0

>  <Rbt.Current_Directory>
/home/itssahil/PROJECTS/Mol_Feturizer/New_Systems/rnas/1koc

>  <Rbt.Executable>
rbdock ($Id: //depot/dev/client3/rdock/2013.1/src/exe/rbdock.cxx#4 $)

>  <Rbt.Library>
libRbt.so (2013.1, Build901 2013/11/27)

>  <Rbt.Parameter_File>
/export/apps/rDock/src/rDock_2013.1_src/data/scripts/dock_solv.prm

>  <Rbt.Receptor>
prm/pocket_docking_3.prm

>  <SCORE>
-29.2446

>  <SCORE.INTER>
-28.3919

>  <SCORE.INTER.CONST>
1

>  <SCORE.INTER.POLAR>
-5.26989

>  <SCORE.INTER.ROT>
5

>  <SCORE.INTER.SOLV>
21.121

>  <SCORE.INTER.VDW>
-15.3353

>  <SCORE.INTER.norm>
-2.36599

>  <SCORE.INTRA>
-0.852696

>  <SCORE.INTRA.DIHEDRAL>
2.04132

>  <SCORE.INTRA.DIHEDRAL.0>
6.04201

>  <SCORE.INTRA.POLAR>
0

>  <SCORE.INTRA.POLAR.0>
0

>  <SCORE.INTRA.REPUL>
0

>  <SCORE.INTRA.REPUL.0>
0

>  <SCORE.INTRA.SOLV>
2.03763

>  <SCORE.INTRA.SOLV.lig_0>
-71.0481

>  <SCORE.INTRA.VDW>
-2.89217

>  <SCORE.INTRA.VDW.0>
0.968882

>  <SCORE.INTRA.norm>
-0.071058

>  <SCORE.RESTR>
0

>  <SCORE.RESTR.CAVITY>
0

>  <SCORE.RESTR.norm>
0

>  <SCORE.SYSTEM>
0

>  <SCORE.SYSTEM.CONST>
0

>  <SCORE.SYSTEM.DIHEDRAL>
0

>  <SCORE.SYSTEM.SOLV>
0

>  <SCORE.SYSTEM.norm>
0

>  <SCORE.heavy>
12

>  <SCORE.norm>
-2.43705

>  <SYMMETRIC_BONDS>
11 12 2
5 6 2

>  <RMSD>
1.956

$$$$
1koc cryst
 OpenBabel11021811393D
libRbt.so/2013.1/901 2013/11/27
 12 11  0  0  0  0  0  0  0  0999 V2000
    4.0762    6.2905   28.4286 N   0  3  0  0  0  0  0  0  0  0  0  0
    3.3018    6.0016   29.6735 C   0  0  2  0  0  0  0  0  0  0  0  0
    4.2834    5.8486   30.8518 C   0  0  0  0  0  0  0  0  0  0  0  0
    3.9472    6.2942   31.9388 O   0  5  0  0  0  0  0  0  0  0  0  0
    2.4765    4.7026   29.4690 C   0  0  0  0  0  0  0  0  0  0  0  0
    1.4729    4.5012   30.6105 C   0  0  0  0  0  0  0  0  0  0  0  0
    0.7786    3.1533   30.4498 C   0  0  0  0  0  0  0  0  0  0  0  0
    1.1728    2.2433   31.5646 N   0  0  0  0  0  0  0  0  0  0  0  0
    2.0971    1.3318   31.3788 C   0  0  0  0  0  0  0  0  0  0  0  0
    3.1280    1.5827   30.6105 N   0  0  0  0  0  0  0  0  0  0  0  0
    1.9928    0.1689   31.9667 N   0  3  0  0  0  0  0  0  0  0  0  0
    5.3562    5.3007   30.6469 O   0  0  0  0  0  0  0  0  0  0  0  0
  2  1  1  6  0  0  0
  2  5  1  0  0  0  0
  2  3  1  0  0  0  0
  3  4  1  0  0  0  0
  3 12  2  0  0  0  0
  5  6  1  0  0  0  0
  6  7  1  0  0  0  0
  7  8  1  0  0  0  0
  8  9  1  0  0  0  0
  9 10  1  0  0  0  0
  9 11  2  0  0  0  0
M  CHG  3   1   1   4  -1  11   1
M  END
>  <CHROM.1>
-176.68172375,-169.58139385,142.25378154,-174.50501970,113.22624582,-99.70407972
2.88041291,3.94766753,30.62357585,1.09694019,-0.37046146,-0.47097195

>  <Name>
1koc cryst

>  <RI>
0

>  <Rbt.Current_Directory>
/home/itssahil/PROJECTS/Mol_Feturizer/New_Systems/rnas/1koc

>  <Rbt.Executable>
rbdock ($Id: //depot/dev/client3/rdock/2013.1/src/exe/rbdock.cxx#4 $)

>  <Rbt.Library>
libRbt.so (2013.1, Build901 2013/11/27)

>  <Rbt.Parameter_File>
/export/apps/rDock/src/rDock_2013.1_src/data/scripts/dock_solv.prm

>  <Rbt.Receptor>
prm/pocket_docking_2.prm

>  <SCORE>
-36.4643

>  <SCORE.INTER>
-36.3055

>  <SCORE.INTER.CONST>
1

>  <SCORE.INTER.POLAR>
-7.01376

>  <SCORE.INTER.ROT>
5

>  <SCORE.INTER.SOLV>
24.5087

>  <SCORE.INTER.VDW>
-15.9273

>  <SCORE.INTER.norm>
-3.02546

>  <SCORE.INTRA>
-0.198247

>  <SCORE.INTRA.DIHEDRAL>
3.28986

>  <SCORE.INTRA.DIHEDRAL.0>
6.04201

>  <SCORE.INTRA.POLAR>
0

>  <SCORE.INTRA.POLAR.0>
0

>  <SCORE.INTRA.REPUL>
0

>  <SCORE.INTRA.REPUL.0>
0

>  <SCORE.INTRA.SOLV>
0.102319

>  <SCORE.INTRA.SOLV.lig_0>
-71.0481

>  <SCORE.INTRA.VDW>
-1.89434

>  <SCORE.INTRA.VDW.0>
0.968882

>  <SCORE.INTRA.norm>
-0.0165206

>  <SCORE.RESTR>
0.0394015

>  <SCORE.RESTR.CAVITY>
0.0394015

>  <SCORE.RESTR.norm>
0.00328346

>  <SCORE.SYSTEM>
0

>  <SCORE.SYSTEM.CONST>
0

>  <SCORE.SYSTEM.DIHEDRAL>
0

>  <SCORE.SYSTEM.SOLV>
0

>  <SCORE.SYSTEM.norm>
0

>  <SCORE.heavy>
12

>  <SCORE.norm>
-3.03869

>  <SYMMETRIC_BONDS>
11 12 2
5 6 2

>  <RMSD>
1.959

$$$$
1koc cryst
 OpenBabel11021811393D
libRbt.so/2013.1/901 2013/11/27
 12 11  0  0  0  0  0  0  0  0999 V2000
    4.4956    7.0981   27.6761 N   0  3  0  0  0  0  0  0  0  0  0  0
    4.2159    6.5035   29.0181 C   0  0  2  0  0  0  0  0  0  0  0  0
    5.5257    5.9357   29.5990 C   0  0  0  0  0  0  0  0  0  0  0  0
    5.6364    5.8799   30.8146 O   0  5  0  0  0  0  0  0  0  0  0  0
    3.1480    5.3869   28.8671 C   0  0  0  0  0  0  0  0  0  0  0  0
    2.5242    5.0332   30.2223 C   0  0  0  0  0  0  0  0  0  0  0  0
    3.3872    3.9922   30.9269 C   0  0  0  0  0  0  0  0  0  0  0  0
    3.0935    2.6354   30.3799 N   0  0  0  0  0  0  0  0  0  0  0  0
    2.2258    1.8549   30.9780 C   0  0  0  0  0  0  0  0  0  0  0  0
    1.1544    2.3621   31.5353 N   0  0  0  0  0  0  0  0  0  0  0  0
    2.4277    0.5638   31.0143 N   0  3  0  0  0  0  0  0  0  0  0  0
    6.3985    5.5775   28.8222 O   0  0  0  0  0  0  0  0  0  0  0  0
  2  1  1  6  0  0  0
  2  5  1  0  0  0  0
  2  3  1  0  0  0  0
  3  4  1  0  0  0  0
  3 12  2  0  0  0  0
  5  6  1  0  0  0  0
  6  7  1  0  0  0  0
  7  8  1  0  0  0  0
  8  9  1  0  0  0  0
  9 10  1  0  0  0  0
  9 11  2  0  0  0  0
M  CHG  3   1   1   4  -1  11   1
M  END
>  <CHROM.1>
177.88821349,-163.20198286,152.67288607,-85.82723023,-80.35943525,-95.02818523
3.69838578,4.39773389,29.96729906,1.02934381,-0.11010319,-0.51994121

>  <Name>
1koc cryst

>  <RI>
0

>  <Rbt.Current_Directory>
/home/itssahil/PROJECTS/Mol_Feturizer/New_Systems/rnas/1koc

>  <Rbt.Executable>
rbdock ($Id: //depot/dev/client3/rdock/2013.1/src/exe/rbdock.cxx#4 $)

>  <Rbt.Library>
libRbt.so (2013.1, Build901 2013/11/27)

>  <Rbt.Parameter_File>
/export/apps/rDock/src/rDock_2013.1_src/data/scripts/dock_solv.prm

>  <Rbt.Receptor>
prm/pocket_docking_3.prm

>  <SCORE>
-38.2399

>  <SCORE.INTER>
-37.8082

>  <SCORE.INTER.CONST>
1

>  <SCORE.INTER.POLAR>
-6.7003

>  <SCORE.INTER.ROT>
5

>  <SCORE.INTER.SOLV>
23.7937

>  <SCORE.INTER.VDW>
-17.7357

>  <SCORE.INTER.norm>
-3.15068

>  <SCORE.INTRA>
-0.452097

>  <SCORE.INTRA.DIHEDRAL>
2.18064

>  <SCORE.INTRA.DIHEDRAL.0>
6.04201

>  <SCORE.INTRA.POLAR>
0

>  <SCORE.INTRA.POLAR.0>
0

>  <SCORE.INTRA.REPUL>
0

>  <SCORE.INTRA.REPUL.0>
0

>  <SCORE.INTRA.SOLV>
0.67612

>  <SCORE.INTRA.SOLV.lig_0>
-71.0481

>  <SCORE.INTRA.VDW>
-1.88048

>  <SCORE.INTRA.VDW.0>
0.968882

>  <SCORE.INTRA.norm>
-0.0376747

>  <SCORE.RESTR>
0.0203519

>  <SCORE.RESTR.CAVITY>
0.0203519

>  <SCORE.RESTR.norm>
0.00169599

>  <SCORE.SYSTEM>
0

>  <SCORE.SYSTEM.CONST>
0

>  <SCORE.SYSTEM.DIHEDRAL>
0

>  <SCORE.SYSTEM.SOLV>
0

>  <SCORE.SYSTEM.norm>
0

>  <SCORE.heavy>
12

>  <SCORE.norm>
-3.18666

>  <SYMMETRIC_BONDS>
11 12 2
5 6 2

>  <RMSD>
1.987

$$$$
1koc cryst
 OpenBabel11021811393D
libRbt.so/2013.1/901 2013/11/27
 12 11  0  0  0  0  0  0  0  0999 V2000
    2.9062    9.4021   32.2143 N   0  3  0  0  0  0  0  0  0  0  0  0
    2.8055    7.9499   32.5515 C   0  0  2  0  0  0  0  0  0  0  0  0
    3.7932    7.6288   33.6903 C   0  0  0  0  0  0  0  0  0  0  0  0
    3.5129    6.7144   34.4507 O   0  5  0  0  0  0  0  0  0  0  0  0
    3.1286    7.1104   31.2861 C   0  0  0  0  0  0  0  0  0  0  0  0
    2.6264    5.6696   31.4370 C   0  0  0  0  0  0  0  0  0  0  0  0
    2.6042    4.9898   30.0723 C   0  0  0  0  0  0  0  0  0  0  0  0
    2.4625    3.5143   30.2427 N   0  0  0  0  0  0  0  0  0  0  0  0
    1.3745    3.0115   30.7748 C   0  0  0  0  0  0  0  0  0  0  0  0
    0.2077    3.5553   30.5323 N   0  0  0  0  0  0  0  0  0  0  0  0
    1.4530    1.9597   31.5470 N   0  3  0  0  0  0  0  0  0  0  0  0
    4.8047    8.3072   33.7905 O   0  0  0  0  0  0  0  0  0  0  0  0
  2  1  1  6  0  0  0
  2  5  1  0  0  0  0
  2  3  1  0  0  0  0
  3  4  1  0  0  0  0
  3 12  2  0  0  0  0
  5  6  1  0  0  0  0
  6  7  1  0  0  0  0
  7  8  1  0  0  0  0
  8  9  1  0  0  0  0
  9 10  1  0  0  0  0
  9 11  2  0  0  0  0
M  CHG  3   1   1   4  -1  11   1
M  END
>  <CHROM.1>
-69.19529604,-162.26845702,151.00552969,164.45202937,165.46038926,64.34243202
2.63656316,5.83374314,31.89757010,0.61637477,-1.10217882,-0.45477312

>  <Name>
1koc cryst

>  <RI>
0

>  <Rbt.Current_Directory>
/home/itssahil/PROJECTS/Mol_Feturizer/New_Systems/rnas/1koc

>  <Rbt.Executable>
rbdock ($Id: //depot/dev/client3/rdock/2013.1/src/exe/rbdock.cxx#4 $)

>  <Rbt.Library>
libRbt.so (2013.1, Build901 2013/11/27)

>  <Rbt.Parameter_File>
/export/apps/rDock/src/rDock_2013.1_src/data/scripts/dock_solv.prm

>  <Rbt.Receptor>
prm/pocket_docking_8.prm

>  <SCORE>
-26.6146

>  <SCORE.INTER>
-24.2998

>  <SCORE.INTER.CONST>
1

>  <SCORE.INTER.POLAR>
-3.65254

>  <SCORE.INTER.ROT>
5

>  <SCORE.INTER.SOLV>
26.5203

>  <SCORE.INTER.VDW>
-19.7982

>  <SCORE.INTER.norm>
-2.02499

>  <SCORE.INTRA>
-2.31479

>  <SCORE.INTRA.DIHEDRAL>
0.361973

>  <SCORE.INTRA.DIHEDRAL.0>
6.04201

>  <SCORE.INTRA.POLAR>
0

>  <SCORE.INTRA.POLAR.0>
0

>  <SCORE.INTRA.REPUL>
0

>  <SCORE.INTRA.REPUL.0>
0

>  <SCORE.INTRA.SOLV>
-1.10834

>  <SCORE.INTRA.SOLV.lig_0>
-71.0481

>  <SCORE.INTRA.VDW>
-1.94161

>  <SCORE.INTRA.VDW.0>
0.968882

>  <SCORE.INTRA.norm>
-0.1929

>  <SCORE.RESTR>
0

>  <SCORE.RESTR.CAVITY>
0

>  <SCORE.RESTR.norm>
0

>  <SCORE.SYSTEM>
0

>  <SCORE.SYSTEM.CONST>
0

>  <SCORE.SYSTEM.DIHEDRAL>
0

>  <SCORE.SYSTEM.SOLV>
0

>  <SCORE.SYSTEM.norm>
0

>  <SCORE.heavy>
12

>  <SCORE.norm>
-2.21789

>  <SYMMETRIC_BONDS>
11 12 2
5 6 2

>  <RMSD>
1.989

$$$$
1koc cryst
 OpenBabel11021811393D
libRbt.so/2013.1/901 2013/11/27
 12 11  0  0  0  0  0  0  0  0999 V2000
    4.0073    6.5261   27.4392 N   0  3  0  0  0  0  0  0  0  0  0  0
    3.9062    6.0240   28.8430 C   0  0  2  0  0  0  0  0  0  0  0  0
    4.3499    7.1401   29.8089 C   0  0  0  0  0  0  0  0  0  0  0  0
    3.9860    7.0681   30.9732 O   0  5  0  0  0  0  0  0  0  0  0  0
    4.8045    4.7675   28.9996 C   0  0  0  0  0  0  0  0  0  0  0  0
    4.7054    4.1919   30.4172 C   0  0  0  0  0  0  0  0  0  0  0  0
    3.2551    3.8349   30.7244 C   0  0  0  0  0  0  0  0  0  0  0  0
    2.9926    2.4140   30.3524 N   0  0  0  0  0  0  0  0  0  0  0  0
    2.1471    1.6933   31.0492 C   0  0  0  0  0  0  0  0  0  0  0  0
    1.0659    2.2402   31.5471 N   0  0  0  0  0  0  0  0  0  0  0  0
    2.3810    0.4220   31.2442 N   0  3  0  0  0  0  0  0  0  0  0  0
    5.0344    8.0515   29.3684 O   0  0  0  0  0  0  0  0  0  0  0  0
  2  1  1  6  0  0  0
  2  5  1  0  0  0  0
  2  3  1  0  0  0  0
  3  4  1  0  0  0  0
  3 12  2  0  0  0  0
  5  6  1  0  0  0  0
  6  7  1  0  0  0  0
  7  8  1  0  0  0  0
  8  9  1  0  0  0  0
  9 10  1  0  0  0  0
  9 11  2  0  0  0  0
M  CHG  3   1   1   4  -1  11   1
M  END
>  <CHROM.1>
-17.43340575,-178.48794886,159.50760012,58.34563269,91.56958581,146.53253848
3.54172771,4.53918232,30.04509268,-0.55268675,-1.12287061,-2.52205717

>  <Name>
1koc cryst

>  <RI>
0

>  <Rbt.Current_Directory>
/home/itssahil/PROJECTS/Mol_Feturizer/New_Systems/rnas/1koc

>  <Rbt.Executable>
rbdock ($Id: //depot/dev/client3/rdock/2013.1/src/exe/rbdock.cxx#4 $)

>  <Rbt.Library>
libRbt.so (2013.1, Build901 2013/11/27)

>  <Rbt.Parameter_File>
/export/apps/rDock/src/rDock_2013.1_src/data/scripts/dock_solv.prm

>  <Rbt.Receptor>
prm/pocket_docking_3.prm

>  <SCORE>
-35.4056

>  <SCORE.INTER>
-36.5645

>  <SCORE.INTER.CONST>
1

>  <SCORE.INTER.POLAR>
-6.87668

>  <SCORE.INTER.ROT>
5

>  <SCORE.INTER.SOLV>
29.3435

>  <SCORE.INTER.VDW>
-18.1685

>  <SCORE.INTER.norm>
-3.04704

>  <SCORE.INTRA>
1.12724

>  <SCORE.INTRA.DIHEDRAL>
3.32004

>  <SCORE.INTRA.DIHEDRAL.0>
6.04201

>  <SCORE.INTRA.POLAR>
0

>  <SCORE.INTRA.POLAR.0>
0

>  <SCORE.INTRA.REPUL>
0

>  <SCORE.INTRA.REPUL.0>
0

>  <SCORE.INTRA.SOLV>
-0.302957

>  <SCORE.INTRA.SOLV.lig_0>
-71.0481

>  <SCORE.INTRA.VDW>
-0.3813

>  <SCORE.INTRA.VDW.0>
0.968882

>  <SCORE.INTRA.norm>
0.0939369

>  <SCORE.RESTR>
0.0315734

>  <SCORE.RESTR.CAVITY>
0.0315734

>  <SCORE.RESTR.norm>
0.00263112

>  <SCORE.SYSTEM>
0

>  <SCORE.SYSTEM.CONST>
0

>  <SCORE.SYSTEM.DIHEDRAL>
0

>  <SCORE.SYSTEM.SOLV>
0

>  <SCORE.SYSTEM.norm>
0

>  <SCORE.heavy>
12

>  <SCORE.norm>
-2.95047

>  <SYMMETRIC_BONDS>
11 12 2
5 6 2

>  <RMSD>
1.990

$$$$
1koc cryst
 OpenBabel11021811393D
libRbt.so/2013.1/901 2013/11/27
 12 11  0  0  0  0  0  0  0  0999 V2000
    4.5183    6.0893   33.9053 N   0  3  0  0  0  0  0  0  0  0  0  0
    4.7243    5.8351   32.4473 C   0  0  2  0  0  0  0  0  0  0  0  0
    4.1922    7.0400   31.6471 C   0  0  0  0  0  0  0  0  0  0  0  0
    4.9990    7.7190   31.0297 O   0  5  0  0  0  0  0  0  0  0  0  0
    3.9791    4.5331   32.0478 C   0  0  0  0  0  0  0  0  0  0  0  0
    4.1652    4.2263   30.5571 C   0  0  0  0  0  0  0  0  0  0  0  0
    2.8473    3.7366   29.9669 C   0  0  0  0  0  0  0  0  0  0  0  0
    2.6877    2.2756   30.2248 N   0  0  0  0  0  0  0  0  0  0  0  0
    1.8680    1.8545   31.1578 C   0  0  0  0  0  0  0  0  0  0  0  0
    0.7389    2.4811   31.3780 N   0  0  0  0  0  0  0  0  0  0  0  0
    2.1758    0.8015   31.8686 N   0  3  0  0  0  0  0  0  0  0  0  0
    2.9924    7.2706   31.6733 O   0  0  0  0  0  0  0  0  0  0  0  0
  2  1  1  1  0  0  0
  2  5  1  0  0  0  0
  2  3  1  0  0  0  0
  3  4  1  0  0  0  0
  3 12  2  0  0  0  0
  5  6  1  0  0  0  0
  6  7  1  0  0  0  0
  7  8  1  0  0  0  0
  8  9  1  0  0  0  0
  9 10  1  0  0  0  0
  9 11  2  0  0  0  0
M  CHG  3   1   1   4  -1  11   1
M  END
>  <CHROM.1>
61.48064047,-179.80224671,113.77694277,-138.97867867,-83.57000232,104.00339316
3.31069486,4.49492520,31.52933266,-0.19324832,1.11948398,1.96286103

>  <Name>
1koc cryst

>  <RI>
0

>  <Rbt.Current_Directory>
/home/itssahil/PROJECTS/Mol_Feturizer/New_Systems/rnas/1koc

>  <Rbt.Executable>
rbdock ($Id: //depot/dev/client3/rdock/2013.1/src/exe/rbdock.cxx#4 $)

>  <Rbt.Library>
libRbt.so (2013.1, Build901 2013/11/27)

>  <Rbt.Parameter_File>
/export/apps/rDock/src/rDock_2013.1_src/data/scripts/dock_solv.prm

>  <Rbt.Receptor>
prm/pocket_docking_2.prm

>  <SCORE>
-21.4899

>  <SCORE.INTER>
-20.8769

>  <SCORE.INTER.CONST>
1

>  <SCORE.INTER.POLAR>
-4.32876

>  <SCORE.INTER.ROT>
5

>  <SCORE.INTER.SOLV>
21.9415

>  <SCORE.INTER.VDW>
-13.7359

>  <SCORE.INTER.norm>
-1.73974

>  <SCORE.INTRA>
-0.613043

>  <SCORE.INTRA.DIHEDRAL>
3.97518

>  <SCORE.INTRA.DIHEDRAL.0>
6.04201

>  <SCORE.INTRA.POLAR>
0

>  <SCORE.INTRA.POLAR.0>
0

>  <SCORE.INTRA.REPUL>
0

>  <SCORE.INTRA.REPUL.0>
0

>  <SCORE.INTRA.SOLV>
-0.61121

>  <SCORE.INTRA.SOLV.lig_0>
-71.0481

>  <SCORE.INTRA.VDW>
-2.29503

>  <SCORE.INTRA.VDW.0>
0.968882

>  <SCORE.INTRA.norm>
-0.051087

>  <SCORE.RESTR>
0

>  <SCORE.RESTR.CAVITY>
0

>  <SCORE.RESTR.norm>
0

>  <SCORE.SYSTEM>
0

>  <SCORE.SYSTEM.CONST>
0

>  <SCORE.SYSTEM.DIHEDRAL>
0

>  <SCORE.SYSTEM.SOLV>
0

>  <SCORE.SYSTEM.norm>
0

>  <SCORE.heavy>
12

>  <SCORE.norm>
-1.79083

>  <SYMMETRIC_BONDS>
11 12 2
5 6 2

>  <RMSD>
1.992

$$$$
1koc cryst
 OpenBabel11021811393D
libRbt.so/2013.1/901 2013/11/27
 12 11  0  0  0  0  0  0  0  0999 V2000
    4.2276    6.7881   27.6915 N   0  3  0  0  0  0  0  0  0  0  0  0
    3.9172    6.1157   28.9894 C   0  0  2  0  0  0  0  0  0  0  0  0
    4.0946    7.1303   30.1360 C   0  0  0  0  0  0  0  0  0  0  0  0
    4.9027    8.0337   29.9814 O   0  5  0  0  0  0  0  0  0  0  0  0
    4.8673    4.9017   29.1732 C   0  0  0  0  0  0  0  0  0  0  0  0
    4.6936    4.2702   30.5595 C   0  0  0  0  0  0  0  0  0  0  0  0
    3.2326    3.8868   30.7678 C   0  0  0  0  0  0  0  0  0  0  0  0
    3.0157    2.4701   30.3530 N   0  0  0  0  0  0  0  0  0  0  0  0
    2.1651    1.7133   31.0038 C   0  0  0  0  0  0  0  0  0  0  0  0
    1.0558    2.2228   31.4789 N   0  0  0  0  0  0  0  0  0  0  0  0
    2.4222    0.4431   31.1754 N   0  3  0  0  0  0  0  0  0  0  0  0
    3.4306    6.9819   31.1510 O   0  0  0  0  0  0  0  0  0  0  0  0
  2  1  1  6  0  0  0
  2  5  1  0  0  0  0
  2  3  1  0  0  0  0
  3  4  1  0  0  0  0
  3 12  2  0  0  0  0
  5  6  1  0  0  0  0
  6  7  1  0  0  0  0
  7  8  1  0  0  0  0
  8  9  1  0  0  0  0
  9 10  1  0  0  0  0
  9 11  2  0  0  0  0
M  CHG  3   1   1   4  -1  11   1
M  END
>  <CHROM.1>
-85.98094789,173.75789072,-28.66475745,55.77385391,92.71736042,144.71535499
3.49302927,4.58964485,30.18852290,-0.87225927,-0.98215385,-2.82847653

>  <Name>
1koc cryst

>  <RI>
0

>  <Rbt.Current_Directory>
/home/itssahil/PROJECTS/Mol_Feturizer/New_Systems/rnas/1koc

>  <Rbt.Executable>
rbdock ($Id: //depot/dev/client3/rdock/2013.1/src/exe/rbdock.cxx#4 $)

>  <Rbt.Library>
libRbt.so (2013.1, Build901 2013/11/27)

>  <Rbt.Parameter_File>
/export/apps/rDock/src/rDock_2013.1_src/data/scripts/dock_solv.prm

>  <Rbt.Receptor>
prm/pocket_docking_2.prm

>  <SCORE>
-34.5871

>  <SCORE.INTER>
-36.1342

>  <SCORE.INTER.CONST>
1

>  <SCORE.INTER.POLAR>
-6.72984

>  <SCORE.INTER.ROT>
5

>  <SCORE.INTER.SOLV>
27.1914

>  <SCORE.INTER.VDW>
-17.6538

>  <SCORE.INTER.norm>
-3.01119

>  <SCORE.INTRA>
0.621205

>  <SCORE.INTRA.DIHEDRAL>
2.18139

>  <SCORE.INTRA.DIHEDRAL.0>
6.04201

>  <SCORE.INTRA.POLAR>
0

>  <SCORE.INTRA.POLAR.0>
0

>  <SCORE.INTRA.REPUL>
0

>  <SCORE.INTRA.REPUL.0>
0

>  <SCORE.INTRA.SOLV>
0.000459297

>  <SCORE.INTRA.SOLV.lig_0>
-71.0481

>  <SCORE.INTRA.VDW>
-0.469718

>  <SCORE.INTRA.VDW.0>
0.968882

>  <SCORE.INTRA.norm>
0.0517671

>  <SCORE.RESTR>
0.925932

>  <SCORE.RESTR.CAVITY>
0.925932

>  <SCORE.RESTR.norm>
0.077161

>  <SCORE.SYSTEM>
0

>  <SCORE.SYSTEM.CONST>
0

>  <SCORE.SYSTEM.DIHEDRAL>
0

>  <SCORE.SYSTEM.SOLV>
0

>  <SCORE.SYSTEM.norm>
0

>  <SCORE.heavy>
12

>  <SCORE.norm>
-2.88226

>  <SYMMETRIC_BONDS>
11 12 2
5 6 2

>  <RMSD>
1.998

$$$$
1koc cryst
 OpenBabel11021811393D
libRbt.so/2013.1/901 2013/11/27
 12 11  0  0  0  0  0  0  0  0999 V2000
    4.7926    5.8450   33.7921 N   0  3  0  0  0  0  0  0  0  0  0  0
    4.6688    5.8072   32.3034 C   0  0  2  0  0  0  0  0  0  0  0  0
    3.4037    6.5816   31.8846 C   0  0  0  0  0  0  0  0  0  0  0  0
    3.4733    7.3031   30.9009 O   0  5  0  0  0  0  0  0  0  0  0  0
    4.5919    4.3285   31.8369 C   0  0  0  0  0  0  0  0  0  0  0  0
    4.2703    4.2382   30.3405 C   0  0  0  0  0  0  0  0  0  0  0  0
    2.8145    3.8250   30.1538 C   0  0  0  0  0  0  0  0  0  0  0  0
    2.6802    2.3488   30.3241 N   0  0  0  0  0  0  0  0  0  0  0  0
    1.8194    1.8578   31.1829 C   0  0  0  0  0  0  0  0  0  0  0  0
    0.6626    2.4439   31.3682 N   0  0  0  0  0  0  0  0  0  0  0  0
    2.1141    0.7754   31.8542 N   0  3  0  0  0  0  0  0  0  0  0  0
    2.3926    6.4503   32.5581 O   0  0  0  0  0  0  0  0  0  0  0  0
  2  1  1  1  0  0  0
  2  5  1  0  0  0  0
  2  3  1  0  0  0  0
  3  4  1  0  0  0  0
  3 12  2  0  0  0  0
  5  6  1  0  0  0  0
  6  7  1  0  0  0  0
  7  8  1  0  0  0  0
  8  9  1  0  0  0  0
  9 10  1  0  0  0  0
  9 11  2  0  0  0  0
M  CHG  3   1   1   4  -1  11   1
M  END
>  <CHROM.1>
-177.53674520,172.16526024,138.92638809,-104.59320718,-80.35532235,125.93179734
3.12472755,4.31624430,31.58147393,-0.99551736,0.74456212,2.96103581

>  <Name>
1koc cryst

>  <RI>
0

>  <Rbt.Current_Directory>
/home/itssahil/PROJECTS/Mol_Feturizer/New_Systems/rnas/1koc

>  <Rbt.Executable>
rbdock ($Id: //depot/dev/client3/rdock/2013.1/src/exe/rbdock.cxx#4 $)

>  <Rbt.Library>
libRbt.so (2013.1, Build901 2013/11/27)

>  <Rbt.Parameter_File>
/export/apps/rDock/src/rDock_2013.1_src/data/scripts/dock_solv.prm

>  <Rbt.Receptor>
prm/pocket_docking_2.prm

>  <SCORE>
-20.8887

>  <SCORE.INTER>
-21.1563

>  <SCORE.INTER.CONST>
1

>  <SCORE.INTER.POLAR>
-4.05955

>  <SCORE.INTER.ROT>
5

>  <SCORE.INTER.SOLV>
24.8009

>  <SCORE.INTER.VDW>
-15.7727

>  <SCORE.INTER.norm>
-1.76303

>  <SCORE.INTRA>
-0.0339263

>  <SCORE.INTRA.DIHEDRAL>
4.23988

>  <SCORE.INTRA.DIHEDRAL.0>
6.04201

>  <SCORE.INTRA.POLAR>
0

>  <SCORE.INTRA.POLAR.0>
0

>  <SCORE.INTRA.REPUL>
0

>  <SCORE.INTRA.REPUL.0>
0

>  <SCORE.INTRA.SOLV>
0.0308011

>  <SCORE.INTRA.SOLV.lig_0>
-71.0481

>  <SCORE.INTRA.VDW>
-2.16927

>  <SCORE.INTRA.VDW.0>
0.968882

>  <SCORE.INTRA.norm>
-0.00282719

>  <SCORE.RESTR>
0.301551

>  <SCORE.RESTR.CAVITY>
0.301551

>  <SCORE.RESTR.norm>
0.0251292

>  <SCORE.SYSTEM>
0

>  <SCORE.SYSTEM.CONST>
0

>  <SCORE.SYSTEM.DIHEDRAL>
0

>  <SCORE.SYSTEM.SOLV>
0

>  <SCORE.SYSTEM.norm>
0

>  <SCORE.heavy>
12

>  <SCORE.norm>
-1.74073

>  <SYMMETRIC_BONDS>
11 12 2
5 6 2

>  <RMSD>
2.004

$$$$
1koc cryst
 OpenBabel11021811393D
libRbt.so/2013.1/901 2013/11/27
 12 11  0  0  0  0  0  0  0  0999 V2000
    4.3012    6.9030   27.6667 N   0  3  0  0  0  0  0  0  0  0  0  0
    4.1925    6.2990   29.0291 C   0  0  2  0  0  0  0  0  0  0  0  0
    4.8497    7.2458   30.0524 C   0  0  0  0  0  0  0  0  0  0  0  0
    5.6077    8.1068   29.6316 O   0  5  0  0  0  0  0  0  0  0  0  0
    4.8927    4.9134   29.0284 C   0  0  0  0  0  0  0  0  0  0  0  0
    4.7831    4.2393   30.4012 C   0  0  0  0  0  0  0  0  0  0  0  0
    3.3228    3.9150   30.6970 C   0  0  0  0  0  0  0  0  0  0  0  0
    3.0330    2.4984   30.3287 N   0  0  0  0  0  0  0  0  0  0  0  0
    2.1654    1.7996   31.0206 C   0  0  0  0  0  0  0  0  0  0  0  0
    1.0917    2.3721   31.5057 N   0  0  0  0  0  0  0  0  0  0  0  0
    2.3696    0.5244   31.2233 N   0  3  0  0  0  0  0  0  0  0  0  0
    4.5944    7.0884   31.2370 O   0  0  0  0  0  0  0  0  0  0  0  0
  2  1  1  6  0  0  0
  2  5  1  0  0  0  0
  2  3  1  0  0  0  0
  3  4  1  0  0  0  0
  3 12  2  0  0  0  0
  5  6  1  0  0  0  0
  6  7  1  0  0  0  0
  7  8  1  0  0  0  0
  8  9  1  0  0  0  0
  9 10  1  0  0  0  0
  9 11  2  0  0  0  0
M  CHG  3   1   1   4  -1  11   1
M  END
>  <CHROM.1>
19.11451715,-178.85388892,-17.42005132,65.60673599,96.23286867,146.57529328
3.75837462,4.66864890,30.13516110,-0.14944924,-1.12339392,-2.04205756

>  <Name>
1koc cryst

>  <RI>
0

>  <Rbt.Current_Directory>
/home/itssahil/PROJECTS/Mol_Feturizer/New_Systems/rnas/1koc

>  <Rbt.Executable>
rbdock ($Id: //depot/dev/client3/rdock/2013.1/src/exe/rbdock.cxx#4 $)

>  <Rbt.Library>
libRbt.so (2013.1, Build901 2013/11/27)

>  <Rbt.Parameter_File>
/export/apps/rDock/src/rDock_2013.1_src/data/scripts/dock_solv.prm

>  <Rbt.Receptor>
prm/pocket_docking_3.prm

>  <SCORE>
-34.7719

>  <SCORE.INTER>
-36.0373

>  <SCORE.INTER.CONST>
1

>  <SCORE.INTER.POLAR>
-6.69496

>  <SCORE.INTER.ROT>
5

>  <SCORE.INTER.SOLV>
25.0034

>  <SCORE.INTER.VDW>
-16.9761

>  <SCORE.INTER.norm>
-3.00311

>  <SCORE.INTRA>
1.25087

>  <SCORE.INTRA.DIHEDRAL>
3.948

>  <SCORE.INTRA.DIHEDRAL.0>
6.04201

>  <SCORE.INTRA.POLAR>
0

>  <SCORE.INTRA.POLAR.0>
0

>  <SCORE.INTRA.REPUL>
0

>  <SCORE.INTRA.REPUL.0>
0

>  <SCORE.INTRA.SOLV>
-0.353437

>  <SCORE.INTRA.SOLV.lig_0>
-71.0481

>  <SCORE.INTRA.VDW>
-0.546414

>  <SCORE.INTRA.VDW.0>
0.968882

>  <SCORE.INTRA.norm>
0.104239

>  <SCORE.RESTR>
0.0145667

>  <SCORE.RESTR.CAVITY>
0.0145667

>  <SCORE.RESTR.norm>
0.00121389

>  <SCORE.SYSTEM>
0

>  <SCORE.SYSTEM.CONST>
0

>  <SCORE.SYSTEM.DIHEDRAL>
0

>  <SCORE.SYSTEM.SOLV>
0

>  <SCORE.SYSTEM.norm>
0

>  <SCORE.heavy>
12

>  <SCORE.norm>
-2.89766

>  <SYMMETRIC_BONDS>
11 12 2
5 6 2

>  <RMSD>
2.009

$$$$
1koc cryst
 OpenBabel11021811393D
libRbt.so/2013.1/901 2013/11/27
 12 11  0  0  0  0  0  0  0  0999 V2000
    3.5221    7.9545   31.8292 N   0  3  0  0  0  0  0  0  0  0  0  0
    3.0055    6.8583   32.7034 C   0  0  2  0  0  0  0  0  0  0  0  0
    3.8667    6.7851   33.9795 C   0  0  0  0  0  0  0  0  0  0  0  0
    3.4260    7.2965   34.9980 O   0  5  0  0  0  0  0  0  0  0  0  0
    3.0586    5.5174   31.9227 C   0  0  0  0  0  0  0  0  0  0  0  0
    1.9559    5.4542   30.8592 C   0  0  0  0  0  0  0  0  0  0  0  0
    2.0529    4.1360   30.0991 C   0  0  0  0  0  0  0  0  0  0  0  0
    1.8425    2.9936   31.0355 N   0  0  0  0  0  0  0  0  0  0  0  0
    2.7132    2.0146   31.0904 C   0  0  0  0  0  0  0  0  0  0  0  0
    3.9927    2.2591   30.9517 N   0  0  0  0  0  0  0  0  0  0  0  0
    2.3039    0.7892   31.2895 N   0  3  0  0  0  0  0  0  0  0  0  0
    4.9540    6.2311   33.9156 O   0  0  0  0  0  0  0  0  0  0  0  0
  2  1  1  6  0  0  0
  2  5  1  0  0  0  0
  2  3  1  0  0  0  0
  3  4  1  0  0  0  0
  3 12  2  0  0  0  0
  5  6  1  0  0  0  0
  6  7  1  0  0  0  0
  7  8  1  0  0  0  0
  8  9  1  0  0  0  0
  9 10  1  0  0  0  0
  9 11  2  0  0  0  0
M  CHG  3   1   1   4  -1  11   1
M  END
>  <CHROM.1>
59.77930922,-73.88074519,100.52269597,179.09049680,61.95361258,-127.58379172
3.08276881,4.86585203,32.06470610,1.17037282,-1.02652195,0.12429895

>  <Name>
1koc cryst

>  <RI>
0

>  <Rbt.Current_Directory>
/home/itssahil/PROJECTS/Mol_Feturizer/New_Systems/rnas/1koc

>  <Rbt.Executable>
rbdock ($Id: //depot/dev/client3/rdock/2013.1/src/exe/rbdock.cxx#4 $)

>  <Rbt.Library>
libRbt.so (2013.1, Build901 2013/11/27)

>  <Rbt.Parameter_File>
/export/apps/rDock/src/rDock_2013.1_src/data/scripts/dock_solv.prm

>  <Rbt.Receptor>
prm/pocket_docking_8.prm

>  <SCORE>
-39.27

>  <SCORE.INTER>
-36.0637

>  <SCORE.INTER.CONST>
1

>  <SCORE.INTER.POLAR>
-6.18843

>  <SCORE.INTER.ROT>
5

>  <SCORE.INTER.SOLV>
22.262

>  <SCORE.INTER.VDW>
-17.7683

>  <SCORE.INTER.norm>
-3.00531

>  <SCORE.INTRA>
-3.20634

>  <SCORE.INTRA.DIHEDRAL>
-1.94441

>  <SCORE.INTRA.DIHEDRAL.0>
6.04201

>  <SCORE.INTRA.POLAR>
0

>  <SCORE.INTRA.POLAR.0>
0

>  <SCORE.INTRA.REPUL>
0

>  <SCORE.INTRA.REPUL.0>
0

>  <SCORE.INTRA.SOLV>
-0.53757

>  <SCORE.INTRA.SOLV.lig_0>
-71.0481

>  <SCORE.INTRA.VDW>
-1.96536

>  <SCORE.INTRA.VDW.0>
0.968882

>  <SCORE.INTRA.norm>
-0.267195

>  <SCORE.RESTR>
0

>  <SCORE.RESTR.CAVITY>
0

>  <SCORE.RESTR.norm>
0

>  <SCORE.SYSTEM>
0

>  <SCORE.SYSTEM.CONST>
0

>  <SCORE.SYSTEM.DIHEDRAL>
0

>  <SCORE.SYSTEM.SOLV>
0

>  <SCORE.SYSTEM.norm>
0

>  <SCORE.heavy>
12

>  <SCORE.norm>
-3.2725

>  <SYMMETRIC_BONDS>
11 12 2
5 6 2

>  <RMSD>
2.011

$$$$
1koc cryst
 OpenBabel11021811393D
libRbt.so/2013.1/901 2013/11/27
 12 11  0  0  0  0  0  0  0  0999 V2000
    4.0189    6.5078   27.4359 N   0  3  0  0  0  0  0  0  0  0  0  0
    4.1166    6.0224   28.8457 C   0  0  2  0  0  0  0  0  0  0  0  0
    4.7835    7.1125   29.7074 C   0  0  0  0  0  0  0  0  0  0  0  0
    4.1208    7.6239   30.5976 O   0  5  0  0  0  0  0  0  0  0  0  0
    4.9454    4.7099   28.8754 C   0  0  0  0  0  0  0  0  0  0  0  0
    4.5575    3.8397   30.0767 C   0  0  0  0  0  0  0  0  0  0  0  0
    3.0605    3.5526   30.0387 C   0  0  0  0  0  0  0  0  0  0  0  0
    2.8155    2.1022   30.2888 N   0  0  0  0  0  0  0  0  0  0  0  0
    1.9538    1.7251   31.2026 C   0  0  0  0  0  0  0  0  0  0  0  0
    0.8562    2.4123   31.4000 N   0  0  0  0  0  0  0  0  0  0  0  0
    2.1880    0.6556   31.9169 N   0  3  0  0  0  0  0  0  0  0  0  0
    5.9379    7.4254   29.4572 O   0  0  0  0  0  0  0  0  0  0  0  0
  2  1  1  6  0  0  0
  2  5  1  0  0  0  0
  2  3  1  0  0  0  0
  3  4  1  0  0  0  0
  3 12  2  0  0  0  0
  5  6  1  0  0  0  0
  6  7  1  0  0  0  0
  7  8  1  0  0  0  0
  8  9  1  0  0  0  0
  9 10  1  0  0  0  0
  9 11  2  0  0  0  0
M  CHG  3   1   1   4  -1  11   1
M  END
>  <CHROM.1>
-143.71857522,-153.54147680,115.77373861,56.41663669,133.56153066,128.94061927
3.60091328,4.48599523,29.97523563,-0.62465602,-0.99271034,-2.66863395

>  <Name>
1koc cryst

>  <RI>
0

>  <Rbt.Current_Directory>
/home/itssahil/PROJECTS/Mol_Feturizer/New_Systems/rnas/1koc

>  <Rbt.Executable>
rbdock ($Id: //depot/dev/client3/rdock/2013.1/src/exe/rbdock.cxx#4 $)

>  <Rbt.Library>
libRbt.so (2013.1, Build901 2013/11/27)

>  <Rbt.Parameter_File>
/export/apps/rDock/src/rDock_2013.1_src/data/scripts/dock_solv.prm

>  <Rbt.Receptor>
prm/pocket_docking_6.prm

>  <SCORE>
-34.662

>  <SCORE.INTER>
-36.5746

>  <SCORE.INTER.CONST>
1

>  <SCORE.INTER.POLAR>
-6.93671

>  <SCORE.INTER.ROT>
5

>  <SCORE.INTER.SOLV>
28.4795

>  <SCORE.INTER.VDW>
-17.6872

>  <SCORE.INTER.norm>
-3.04788

>  <SCORE.INTRA>
1.91263

>  <SCORE.INTRA.DIHEDRAL>
6.78208

>  <SCORE.INTRA.DIHEDRAL.0>
6.04201

>  <SCORE.INTRA.POLAR>
0

>  <SCORE.INTRA.POLAR.0>
0

>  <SCORE.INTRA.REPUL>
0

>  <SCORE.INTRA.REPUL.0>
0

>  <SCORE.INTRA.SOLV>
-1.25903

>  <SCORE.INTRA.SOLV.lig_0>
-71.0481

>  <SCORE.INTRA.VDW>
-0.848895

>  <SCORE.INTRA.VDW.0>
0.968882

>  <SCORE.INTRA.norm>
0.159386

>  <SCORE.RESTR>
0

>  <SCORE.RESTR.CAVITY>
0

>  <SCORE.RESTR.norm>
0

>  <SCORE.SYSTEM>
0

>  <SCORE.SYSTEM.CONST>
0

>  <SCORE.SYSTEM.DIHEDRAL>
0

>  <SCORE.SYSTEM.SOLV>
0

>  <SCORE.SYSTEM.norm>
0

>  <SCORE.heavy>
12

>  <SCORE.norm>
-2.8885

>  <SYMMETRIC_BONDS>
11 12 2
5 6 2

>  <RMSD>
2.015

$$$$
1koc cryst
 OpenBabel11021811393D
libRbt.so/2013.1/901 2013/11/27
 12 11  0  0  0  0  0  0  0  0999 V2000
    4.1224    6.4653   27.8243 N   0  3  0  0  0  0  0  0  0  0  0  0
    4.2804    5.9681   29.2245 C   0  0  2  0  0  0  0  0  0  0  0  0
    5.0937    6.9969   30.0342 C   0  0  0  0  0  0  0  0  0  0  0  0
    4.9808    8.1771   29.7384 O   0  5  0  0  0  0  0  0  0  0  0  0
    4.9992    4.5924   29.1976 C   0  0  0  0  0  0  0  0  0  0  0  0
    5.2119    4.0533   30.6171 C   0  0  0  0  0  0  0  0  0  0  0  0
    3.8686    3.6591   31.2215 C   0  0  0  0  0  0  0  0  0  0  0  0
    3.5856    2.2223   30.9356 N   0  0  0  0  0  0  0  0  0  0  0  0
    2.3623    1.7586   31.0260 C   0  0  0  0  0  0  0  0  0  0  0  0
    1.3451    2.5024   30.6681 N   0  0  0  0  0  0  0  0  0  0  0  0
    2.1563    0.5467   31.4706 N   0  3  0  0  0  0  0  0  0  0  0  0
    5.8224    6.5890   30.9264 O   0  0  0  0  0  0  0  0  0  0  0  0
  2  1  1  6  0  0  0
  2  5  1  0  0  0  0
  2  3  1  0  0  0  0
  3  4  1  0  0  0  0
  3 12  2  0  0  0  0
  5  6  1  0  0  0  0
  6  7  1  0  0  0  0
  7  8  1  0  0  0  0
  8  9  1  0  0  0  0
  9 10  1  0  0  0  0
  9 11  2  0  0  0  0
M  CHG  3   1   1   4  -1  11   1
M  END
>  <CHROM.1>
-11.25738876,178.78686468,31.65812563,69.59281976,91.33814060,-161.26485224
3.96918909,4.47120941,30.21645324,1.01288987,-0.64142347,-0.64874310

>  <Name>
1koc cryst

>  <RI>
0

>  <Rbt.Current_Directory>
/home/itssahil/PROJECTS/Mol_Feturizer/New_Systems/rnas/1koc

>  <Rbt.Executable>
rbdock ($Id: //depot/dev/client3/rdock/2013.1/src/exe/rbdock.cxx#4 $)

>  <Rbt.Library>
libRbt.so (2013.1, Build901 2013/11/27)

>  <Rbt.Parameter_File>
/export/apps/rDock/src/rDock_2013.1_src/data/scripts/dock_solv.prm

>  <Rbt.Receptor>
prm/pocket_docking_2.prm

>  <SCORE>
-27.75

>  <SCORE.INTER>
-32.2288

>  <SCORE.INTER.CONST>
1

>  <SCORE.INTER.POLAR>
-6.25104

>  <SCORE.INTER.ROT>
5

>  <SCORE.INTER.SOLV>
23.938

>  <SCORE.INTER.VDW>
-15.5617

>  <SCORE.INTER.norm>
-2.68573

>  <SCORE.INTRA>
3.5197

>  <SCORE.INTRA.DIHEDRAL>
4.03158

>  <SCORE.INTRA.DIHEDRAL.0>
6.04201

>  <SCORE.INTRA.POLAR>
0

>  <SCORE.INTRA.POLAR.0>
0

>  <SCORE.INTRA.REPUL>
0

>  <SCORE.INTRA.REPUL.0>
0

>  <SCORE.INTRA.SOLV>
-0.111127

>  <SCORE.INTRA.SOLV.lig_0>
-71.0481

>  <SCORE.INTRA.VDW>
1.55947

>  <SCORE.INTRA.VDW.0>
0.968882

>  <SCORE.INTRA.norm>
0.293308

>  <SCORE.RESTR>
0.959092

>  <SCORE.RESTR.CAVITY>
0.959092

>  <SCORE.RESTR.norm>
0.0799243

>  <SCORE.SYSTEM>
0

>  <SCORE.SYSTEM.CONST>
0

>  <SCORE.SYSTEM.DIHEDRAL>
0

>  <SCORE.SYSTEM.SOLV>
0

>  <SCORE.SYSTEM.norm>
0

>  <SCORE.heavy>
12

>  <SCORE.norm>
-2.3125

>  <SYMMETRIC_BONDS>
11 12 2
5 6 2

>  <RMSD>
2.017

$$$$
1koc cryst
 OpenBabel11021811393D
libRbt.so/2013.1/901 2013/11/27
 12 11  0  0  0  0  0  0  0  0999 V2000
    2.3024    8.5424   32.4249 N   0  3  0  0  0  0  0  0  0  0  0  0
    2.5966    7.1684   32.9331 C   0  0  2  0  0  0  0  0  0  0  0  0
    4.1204    7.0106   33.1020 C   0  0  0  0  0  0  0  0  0  0  0  0
    4.8404    7.8909   32.6551 O   0  5  0  0  0  0  0  0  0  0  0  0
    2.0405    6.1243   31.9277 C   0  0  0  0  0  0  0  0  0  0  0  0
    2.9821    5.9567   30.7293 C   0  0  0  0  0  0  0  0  0  0  0  0
    2.3217    5.0695   29.6796 C   0  0  0  0  0  0  0  0  0  0  0  0
    2.3599    3.6452   30.1224 N   0  0  0  0  0  0  0  0  0  0  0  0
    1.3019    3.0930   30.6659 C   0  0  0  0  0  0  0  0  0  0  0  0
    0.1021    3.4057   30.2432 N   0  0  0  0  0  0  0  0  0  0  0  0
    1.4443    2.2225   31.6307 N   0  3  0  0  0  0  0  0  0  0  0  0
    4.5423    6.0105   33.6633 O   0  0  0  0  0  0  0  0  0  0  0  0
  2  1  1  6  0  0  0
  2  5  1  0  0  0  0
  2  3  1  0  0  0  0
  3  4  1  0  0  0  0
  3 12  2  0  0  0  0
  5  6  1  0  0  0  0
  6  7  1  0  0  0  0
  7  8  1  0  0  0  0
  8  9  1  0  0  0  0
  9 10  1  0  0  0  0
  9 11  2  0  0  0  0
M  CHG  3   1   1   4  -1  11   1
M  END
>  <CHROM.1>
-162.16828393,79.39182397,-9.45967953,-172.55104466,-75.21947036,99.75818138
2.57572479,5.52490173,31.65757282,0.91581745,-0.71962321,0.01806225

>  <Name>
1koc cryst

>  <RI>
0

>  <Rbt.Current_Directory>
/home/itssahil/PROJECTS/Mol_Feturizer/New_Systems/rnas/1koc

>  <Rbt.Executable>
rbdock ($Id: //depot/dev/client3/rdock/2013.1/src/exe/rbdock.cxx#4 $)

>  <Rbt.Library>
libRbt.so (2013.1, Build901 2013/11/27)

>  <Rbt.Parameter_File>
/export/apps/rDock/src/rDock_2013.1_src/data/scripts/dock_solv.prm

>  <Rbt.Receptor>
prm/pocket_docking_5.prm

>  <SCORE>
-32.9697

>  <SCORE.INTER>
-32.1973

>  <SCORE.INTER.CONST>
1

>  <SCORE.INTER.POLAR>
-5.25154

>  <SCORE.INTER.ROT>
5

>  <SCORE.INTER.SOLV>
24.2917

>  <SCORE.INTER.VDW>
-18.9903

>  <SCORE.INTER.norm>
-2.68311

>  <SCORE.INTRA>
-0.772384

>  <SCORE.INTRA.DIHEDRAL>
0.393195

>  <SCORE.INTRA.DIHEDRAL.0>
6.04201

>  <SCORE.INTRA.POLAR>
0

>  <SCORE.INTRA.POLAR.0>
0

>  <SCORE.INTRA.REPUL>
0

>  <SCORE.INTRA.REPUL.0>
0

>  <SCORE.INTRA.SOLV>
0.614141

>  <SCORE.INTRA.SOLV.lig_0>
-71.0481

>  <SCORE.INTRA.VDW>
-1.27605

>  <SCORE.INTRA.VDW.0>
0.968882

>  <SCORE.INTRA.norm>
-0.0643653

>  <SCORE.RESTR>
0

>  <SCORE.RESTR.CAVITY>
0

>  <SCORE.RESTR.norm>
0

>  <SCORE.SYSTEM>
0

>  <SCORE.SYSTEM.CONST>
0

>  <SCORE.SYSTEM.DIHEDRAL>
0

>  <SCORE.SYSTEM.SOLV>
0

>  <SCORE.SYSTEM.norm>
0

>  <SCORE.heavy>
12

>  <SCORE.norm>
-2.74747

>  <SYMMETRIC_BONDS>
11 12 2
5 6 2

>  <RMSD>
2.018

$$$$
1koc cryst
 OpenBabel11021811393D
libRbt.so/2013.1/901 2013/11/27
 12 11  0  0  0  0  0  0  0  0999 V2000
    4.2871    6.2067   33.3036 N   0  3  0  0  0  0  0  0  0  0  0  0
    4.4198    6.2154   31.8153 C   0  0  2  0  0  0  0  0  0  0  0  0
    4.2244    7.6555   31.3019 C   0  0  0  0  0  0  0  0  0  0  0  0
    5.1017    8.1377   30.6013 O   0  5  0  0  0  0  0  0  0  0  0  0
    3.3582    5.2616   31.2044 C   0  0  0  0  0  0  0  0  0  0  0  0
    3.7975    3.7976   31.3249 C   0  0  0  0  0  0  0  0  0  0  0  0
    3.4173    3.0430   30.0556 C   0  0  0  0  0  0  0  0  0  0  0  0
    3.0167    1.6466   30.3963 N   0  0  0  0  0  0  0  0  0  0  0  0
    2.0866    1.4259   31.2940 C   0  0  0  0  0  0  0  0  0  0  0  0
    1.0577    2.2307   31.3918 N   0  0  0  0  0  0  0  0  0  0  0  0
    2.1832    0.3951   32.0921 N   0  3  0  0  0  0  0  0  0  0  0  0
    3.2099    8.2550   31.6255 O   0  0  0  0  0  0  0  0  0  0  0  0
  2  1  1  1  0  0  0
  2  5  1  0  0  0  0
  2  3  1  0  0  0  0
  3  4  1  0  0  0  0
  3 12  2  0  0  0  0
  5  6  1  0  0  0  0
  6  7  1  0  0  0  0
  7  8  1  0  0  0  0
  8  9  1  0  0  0  0
  9 10  1  0  0  0  0
  9 11  2  0  0  0  0
M  CHG  3   1   1   4  -1  11   1
M  END
>  <CHROM.1>
-54.67227937,-78.46443414,125.45637612,-140.82908859,-144.41724274,53.66756911
3.33589601,4.52928003,31.40393269,0.83261236,1.08933111,0.72272272

>  <Name>
1koc cryst

>  <RI>
0

>  <Rbt.Current_Directory>
/home/itssahil/PROJECTS/Mol_Feturizer/New_Systems/rnas/1koc

>  <Rbt.Executable>
rbdock ($Id: //depot/dev/client3/rdock/2013.1/src/exe/rbdock.cxx#4 $)

>  <Rbt.Library>
libRbt.so (2013.1, Build901 2013/11/27)

>  <Rbt.Parameter_File>
/export/apps/rDock/src/rDock_2013.1_src/data/scripts/dock_solv.prm

>  <Rbt.Receptor>
prm/pocket_docking_2.prm

>  <SCORE>
-23.2333

>  <SCORE.INTER>
-24.4364

>  <SCORE.INTER.CONST>
1

>  <SCORE.INTER.POLAR>
-4.86997

>  <SCORE.INTER.ROT>
5

>  <SCORE.INTER.SOLV>
22.3482

>  <SCORE.INTER.VDW>
-14.4404

>  <SCORE.INTER.norm>
-2.03636

>  <SCORE.INTRA>
1.04975

>  <SCORE.INTRA.DIHEDRAL>
6.6123

>  <SCORE.INTRA.DIHEDRAL.0>
6.04201

>  <SCORE.INTRA.POLAR>
0

>  <SCORE.INTRA.POLAR.0>
0

>  <SCORE.INTRA.REPUL>
0

>  <SCORE.INTRA.REPUL.0>
0

>  <SCORE.INTRA.SOLV>
-0.734532

>  <SCORE.INTRA.SOLV.lig_0>
-71.0481

>  <SCORE.INTRA.VDW>
-1.88913

>  <SCORE.INTRA.VDW.0>
0.968882

>  <SCORE.INTRA.norm>
0.0874796

>  <SCORE.RESTR>
0.153342

>  <SCORE.RESTR.CAVITY>
0.153342

>  <SCORE.RESTR.norm>
0.0127785

>  <SCORE.SYSTEM>
0

>  <SCORE.SYSTEM.CONST>
0

>  <SCORE.SYSTEM.DIHEDRAL>
0

>  <SCORE.SYSTEM.SOLV>
0

>  <SCORE.SYSTEM.norm>
0

>  <SCORE.heavy>
12

>  <SCORE.norm>
-1.93611

>  <SYMMETRIC_BONDS>
11 12 2
5 6 2

>  <RMSD>
2.023

$$$$
1koc cryst
 OpenBabel11021811393D
libRbt.so/2013.1/901 2013/11/27
 12 11  0  0  0  0  0  0  0  0999 V2000
    3.6614    5.9245   28.7578 N   0  3  0  0  0  0  0  0  0  0  0  0
    3.4458    5.9615   30.2360 C   0  0  2  0  0  0  0  0  0  0  0  0
    4.7943    6.2260   30.9340 C   0  0  0  0  0  0  0  0  0  0  0  0
    5.3246    5.2978   31.5258 O   0  5  0  0  0  0  0  0  0  0  0  0
    2.8412    4.6075   30.6958 C   0  0  0  0  0  0  0  0  0  0  0  0
    1.3169    4.5997   30.5309 C   0  0  0  0  0  0  0  0  0  0  0  0
    0.8298    3.1671   30.3431 C   0  0  0  0  0  0  0  0  0  0  0  0
    1.2438    2.3334   31.5092 N   0  0  0  0  0  0  0  0  0  0  0  0
    2.1312    1.3797   31.3584 C   0  0  0  0  0  0  0  0  0  0  0  0
    3.1352    1.5355   30.5315 N   0  0  0  0  0  0  0  0  0  0  0  0
    2.0170    0.2699   32.0397 N   0  3  0  0  0  0  0  0  0  0  0  0
    5.2679    7.3510   30.8755 O   0  0  0  0  0  0  0  0  0  0  0  0
  2  1  1  6  0  0  0
  2  5  1  0  0  0  0
  2  3  1  0  0  0  0
  3  4  1  0  0  0  0
  3 12  2  0  0  0  0
  5  6  1  0  0  0  0
  6  7  1  0  0  0  0
  7  8  1  0  0  0  0
  8  9  1  0  0  0  0
  9 10  1  0  0  0  0
  9 11  2  0  0  0  0
M  CHG  3   1   1   4  -1  11   1
M  END
>  <CHROM.1>
-160.04715174,-84.73146969,-107.05508580,153.50215298,57.86219543,-112.42369947
3.03352702,4.04753873,30.76206340,1.02640853,-0.37668039,-0.39653651

>  <Name>
1koc cryst

>  <RI>
0

>  <Rbt.Current_Directory>
/home/itssahil/PROJECTS/Mol_Feturizer/New_Systems/rnas/1koc

>  <Rbt.Executable>
rbdock ($Id: //depot/dev/client3/rdock/2013.1/src/exe/rbdock.cxx#4 $)

>  <Rbt.Library>
libRbt.so (2013.1, Build901 2013/11/27)

>  <Rbt.Parameter_File>
/export/apps/rDock/src/rDock_2013.1_src/data/scripts/dock_solv.prm

>  <Rbt.Receptor>
prm/pocket_docking_3.prm

>  <SCORE>
-33.2394

>  <SCORE.INTER>
-34.5581

>  <SCORE.INTER.CONST>
1

>  <SCORE.INTER.POLAR>
-6.89906

>  <SCORE.INTER.ROT>
5

>  <SCORE.INTER.SOLV>
24.1043

>  <SCORE.INTER.VDW>
-15.0099

>  <SCORE.INTER.norm>
-2.87984

>  <SCORE.INTRA>
1.31868

>  <SCORE.INTRA.DIHEDRAL>
2.69071

>  <SCORE.INTRA.DIHEDRAL.0>
6.04201

>  <SCORE.INTRA.POLAR>
0

>  <SCORE.INTRA.POLAR.0>
0

>  <SCORE.INTRA.REPUL>
0

>  <SCORE.INTRA.REPUL.0>
0

>  <SCORE.INTRA.SOLV>
0.293066

>  <SCORE.INTRA.SOLV.lig_0>
-71.0481

>  <SCORE.INTRA.VDW>
-0.173206

>  <SCORE.INTRA.VDW.0>
0.968882

>  <SCORE.INTRA.norm>
0.10989

>  <SCORE.RESTR>
0

>  <SCORE.RESTR.CAVITY>
0

>  <SCORE.RESTR.norm>
0

>  <SCORE.SYSTEM>
0

>  <SCORE.SYSTEM.CONST>
0

>  <SCORE.SYSTEM.DIHEDRAL>
0

>  <SCORE.SYSTEM.SOLV>
0

>  <SCORE.SYSTEM.norm>
0

>  <SCORE.heavy>
12

>  <SCORE.norm>
-2.76995

>  <SYMMETRIC_BONDS>
11 12 2
5 6 2

>  <RMSD>
2.026

$$$$
1koc cryst
 OpenBabel11021811393D
libRbt.so/2013.1/901 2013/11/27
 12 11  0  0  0  0  0  0  0  0999 V2000
    1.6977    7.4977   32.1322 N   0  3  0  0  0  0  0  0  0  0  0  0
    2.9590    6.8714   32.6320 C   0  0  2  0  0  0  0  0  0  0  0  0
    3.6764    7.8640   33.5678 C   0  0  0  0  0  0  0  0  0  0  0  0
    4.4649    7.4130   34.3851 O   0  5  0  0  0  0  0  0  0  0  0  0
    3.8587    6.5038   31.4213 C   0  0  0  0  0  0  0  0  0  0  0  0
    4.0015    4.9836   31.2817 C   0  0  0  0  0  0  0  0  0  0  0  0
    2.7144    4.3990   30.7102 C   0  0  0  0  0  0  0  0  0  0  0  0
    2.9435    2.9876   30.2841 N   0  0  0  0  0  0  0  0  0  0  0  0
    2.4427    1.9966   30.9818 C   0  0  0  0  0  0  0  0  0  0  0  0
    1.2682    2.1151   31.5497 N   0  0  0  0  0  0  0  0  0  0  0  0
    3.1156    0.8829   31.1075 N   0  3  0  0  0  0  0  0  0  0  0  0
    3.4185    9.0536   33.4605 O   0  0  0  0  0  0  0  0  0  0  0  0
  2  1  1  6  0  0  0
  2  5  1  0  0  0  0
  2  3  1  0  0  0  0
  3  4  1  0  0  0  0
  3 12  2  0  0  0  0
  5  6  1  0  0  0  0
  6  7  1  0  0  0  0
  7  8  1  0  0  0  0
  8  9  1  0  0  0  0
  9 10  1  0  0  0  0
  9 11  2  0  0  0  0
M  CHG  3   1   1   4  -1  11   1
M  END
>  <CHROM.1>
72.60091080,-113.09644749,157.27764777,75.03866104,167.27239551,107.28435181
3.01983049,5.21789110,31.96819977,1.41272755,-0.45923715,0.29923745

>  <Name>
1koc cryst

>  <RI>
0

>  <Rbt.Current_Directory>
/home/itssahil/PROJECTS/Mol_Feturizer/New_Systems/rnas/1koc

>  <Rbt.Executable>
rbdock ($Id: //depot/dev/client3/rdock/2013.1/src/exe/rbdock.cxx#4 $)

>  <Rbt.Library>
libRbt.so (2013.1, Build901 2013/11/27)

>  <Rbt.Parameter_File>
/export/apps/rDock/src/rDock_2013.1_src/data/scripts/dock_solv.prm

>  <Rbt.Receptor>
prm/pocket_docking_7.prm

>  <SCORE>
-33.8878

>  <SCORE.INTER>
-33.4953

>  <SCORE.INTER.CONST>
1

>  <SCORE.INTER.POLAR>
-6.09774

>  <SCORE.INTER.ROT>
5

>  <SCORE.INTER.SOLV>
30.2196

>  <SCORE.INTER.VDW>
-19.0109

>  <SCORE.INTER.norm>
-2.79128

>  <SCORE.INTRA>
-0.392451

>  <SCORE.INTRA.DIHEDRAL>
4.23887

>  <SCORE.INTRA.DIHEDRAL.0>
6.04201

>  <SCORE.INTRA.POLAR>
0

>  <SCORE.INTRA.POLAR.0>
0

>  <SCORE.INTRA.REPUL>
0

>  <SCORE.INTRA.REPUL.0>
0

>  <SCORE.INTRA.SOLV>
-0.829342

>  <SCORE.INTRA.SOLV.lig_0>
-71.0481

>  <SCORE.INTRA.VDW>
-2.09721

>  <SCORE.INTRA.VDW.0>
0.968882

>  <SCORE.INTRA.norm>
-0.0327042

>  <SCORE.RESTR>
0

>  <SCORE.RESTR.CAVITY>
0

>  <SCORE.RESTR.norm>
0

>  <SCORE.SYSTEM>
0

>  <SCORE.SYSTEM.CONST>
0

>  <SCORE.SYSTEM.DIHEDRAL>
0

>  <SCORE.SYSTEM.SOLV>
0

>  <SCORE.SYSTEM.norm>
0

>  <SCORE.heavy>
12

>  <SCORE.norm>
-2.82398

>  <SYMMETRIC_BONDS>
11 12 2
5 6 2

>  <RMSD>
2.026

$$$$
1koc cryst
 OpenBabel11021811393D
libRbt.so/2013.1/901 2013/11/27
 12 11  0  0  0  0  0  0  0  0999 V2000
    4.6294    7.8697   30.0686 N   0  3  0  0  0  0  0  0  0  0  0  0
    4.8320    6.3959   30.2090 C   0  0  2  0  0  0  0  0  0  0  0  0
    6.3423    6.0906   30.1709 C   0  0  0  0  0  0  0  0  0  0  0  0
    6.7047    4.9574   30.4497 O   0  5  0  0  0  0  0  0  0  0  0  0
    4.0913    5.6685   29.0548 C   0  0  0  0  0  0  0  0  0  0  0  0
    2.7412    5.1165   29.5272 C   0  0  0  0  0  0  0  0  0  0  0  0
    2.9675    3.8806   30.3912 C   0  0  0  0  0  0  0  0  0  0  0  0
    1.7185    3.5467   31.1361 N   0  0  0  0  0  0  0  0  0  0  0  0
    1.1208    2.3956   30.9425 C   0  0  0  0  0  0  0  0  0  0  0  0
    1.8257    1.3125   30.7280 N   0  0  0  0  0  0  0  0  0  0  0  0
   -0.1843    2.3268   30.9687 N   0  3  0  0  0  0  0  0  0  0  0  0
    7.1104    6.9940   29.8757 O   0  0  0  0  0  0  0  0  0  0  0  0
  2  1  1  6  0  0  0
  2  5  1  0  0  0  0
  2  3  1  0  0  0  0
  3  4  1  0  0  0  0
  3 12  2  0  0  0  0
  5  6  1  0  0  0  0
  6  7  1  0  0  0  0
  7  8  1  0  0  0  0
  8  9  1  0  0  0  0
  9 10  1  0  0  0  0
  9 11  2  0  0  0  0
M  CHG  3   1   1   4  -1  11   1
M  END
>  <CHROM.1>
64.82382187,-99.58120514,170.44369359,-74.62393658,165.43118211,118.59585849
3.65846826,4.72841622,30.30085853,0.71697576,-0.00023136,-0.19653433

>  <Name>
1koc cryst

>  <RI>
0

>  <Rbt.Current_Directory>
/home/itssahil/PROJECTS/Mol_Feturizer/New_Systems/rnas/1koc

>  <Rbt.Executable>
rbdock ($Id: //depot/dev/client3/rdock/2013.1/src/exe/rbdock.cxx#4 $)

>  <Rbt.Library>
libRbt.so (2013.1, Build901 2013/11/27)

>  <Rbt.Parameter_File>
/export/apps/rDock/src/rDock_2013.1_src/data/scripts/dock_solv.prm

>  <Rbt.Receptor>
prm/pocket_docking_8.prm

>  <SCORE>
-25.8421

>  <SCORE.INTER>
-24.8674

>  <SCORE.INTER.CONST>
1

>  <SCORE.INTER.POLAR>
-4.65124

>  <SCORE.INTER.ROT>
5

>  <SCORE.INTER.SOLV>
16.4835

>  <SCORE.INTER.VDW>
-13.502

>  <SCORE.INTER.norm>
-2.07229

>  <SCORE.INTRA>
-0.974709

>  <SCORE.INTRA.DIHEDRAL>
2.8794

>  <SCORE.INTRA.DIHEDRAL.0>
6.04201

>  <SCORE.INTRA.POLAR>
0

>  <SCORE.INTRA.POLAR.0>
0

>  <SCORE.INTRA.REPUL>
0

>  <SCORE.INTRA.REPUL.0>
0

>  <SCORE.INTRA.SOLV>
-0.957664

>  <SCORE.INTRA.SOLV.lig_0>
-71.0481

>  <SCORE.INTRA.VDW>
-1.93558

>  <SCORE.INTRA.VDW.0>
0.968882

>  <SCORE.INTRA.norm>
-0.0812258

>  <SCORE.RESTR>
0

>  <SCORE.RESTR.CAVITY>
0

>  <SCORE.RESTR.norm>
0

>  <SCORE.SYSTEM>
0

>  <SCORE.SYSTEM.CONST>
0

>  <SCORE.SYSTEM.DIHEDRAL>
0

>  <SCORE.SYSTEM.SOLV>
0

>  <SCORE.SYSTEM.norm>
0

>  <SCORE.heavy>
12

>  <SCORE.norm>
-2.15351

>  <SYMMETRIC_BONDS>
11 12 2
5 6 2

>  <RMSD>
2.026

$$$$
1koc cryst
 OpenBabel11021811393D
libRbt.so/2013.1/901 2013/11/27
 12 11  0  0  0  0  0  0  0  0999 V2000
    2.9602    9.1433   32.3375 N   0  3  0  0  0  0  0  0  0  0  0  0
    3.2849    7.7104   32.6099 C   0  0  2  0  0  0  0  0  0  0  0  0
    4.6994    7.6221   33.2156 C   0  0  0  0  0  0  0  0  0  0  0  0
    5.5774    8.3150   32.7237 O   0  5  0  0  0  0  0  0  0  0  0  0
    3.2003    6.9087   31.2831 C   0  0  0  0  0  0  0  0  0  0  0  0
    3.7275    5.4807   31.4670 C   0  0  0  0  0  0  0  0  0  0  0  0
    3.0681    4.5566   30.4491 C   0  0  0  0  0  0  0  0  0  0  0  0
    1.9937    3.7589   31.1092 N   0  0  0  0  0  0  0  0  0  0  0  0
    2.0134    2.4489   31.0529 C   0  0  0  0  0  0  0  0  0  0  0  0
    3.1518    1.8022   31.0965 N   0  0  0  0  0  0  0  0  0  0  0  0
    0.8919    1.7840   30.9579 N   0  3  0  0  0  0  0  0  0  0  0  0
    4.8842    6.8575   34.1507 O   0  0  0  0  0  0  0  0  0  0  0  0
  2  1  1  6  0  0  0
  2  5  1  0  0  0  0
  2  3  1  0  0  0  0
  3  4  1  0  0  0  0
  3 12  2  0  0  0  0
  5  6  1  0  0  0  0
  6  7  1  0  0  0  0
  7  8  1  0  0  0  0
  8  9  1  0  0  0  0
  9 10  1  0  0  0  0
  9 11  2  0  0  0  0
M  CHG  3   1   1   4  -1  11   1
M  END
>  <CHROM.1>
32.35240338,171.46749167,-42.67952163,153.46047559,-102.33231591,-124.17234573
3.28280738,5.54661596,31.88199369,1.14312830,-0.54945802,0.08480928

>  <Name>
1koc cryst

>  <RI>
0

>  <Rbt.Current_Directory>
/home/itssahil/PROJECTS/Mol_Feturizer/New_Systems/rnas/1koc

>  <Rbt.Executable>
rbdock ($Id: //depot/dev/client3/rdock/2013.1/src/exe/rbdock.cxx#4 $)

>  <Rbt.Library>
libRbt.so (2013.1, Build901 2013/11/27)

>  <Rbt.Parameter_File>
/export/apps/rDock/src/rDock_2013.1_src/data/scripts/dock_solv.prm

>  <Rbt.Receptor>
prm/pocket_docking_4.prm

>  <SCORE>
-20.6769

>  <SCORE.INTER>
-21.8796

>  <SCORE.INTER.CONST>
1

>  <SCORE.INTER.POLAR>
-3.8464

>  <SCORE.INTER.ROT>
5

>  <SCORE.INTER.SOLV>
19.6457

>  <SCORE.INTER.VDW>
-15.247

>  <SCORE.INTER.norm>
-1.8233

>  <SCORE.INTRA>
1.19978

>  <SCORE.INTRA.DIHEDRAL>
6.14787

>  <SCORE.INTRA.DIHEDRAL.0>
6.04201

>  <SCORE.INTRA.POLAR>
0

>  <SCORE.INTRA.POLAR.0>
0

>  <SCORE.INTRA.REPUL>
0

>  <SCORE.INTRA.REPUL.0>
0

>  <SCORE.INTRA.SOLV>
-0.803386

>  <SCORE.INTRA.SOLV.lig_0>
-71.0481

>  <SCORE.INTRA.VDW>
-1.47246

>  <SCORE.INTRA.VDW.0>
0.968882

>  <SCORE.INTRA.norm>
0.0999815

>  <SCORE.RESTR>
0.00292535

>  <SCORE.RESTR.CAVITY>
0.00292535

>  <SCORE.RESTR.norm>
0.000243779

>  <SCORE.SYSTEM>
0

>  <SCORE.SYSTEM.CONST>
0

>  <SCORE.SYSTEM.DIHEDRAL>
0

>  <SCORE.SYSTEM.SOLV>
0

>  <SCORE.SYSTEM.norm>
0

>  <SCORE.heavy>
12

>  <SCORE.norm>
-1.72307

>  <SYMMETRIC_BONDS>
11 12 2
5 6 2

>  <RMSD>
2.027

$$$$
1koc cryst
 OpenBabel11021811393D
libRbt.so/2013.1/901 2013/11/27
 12 11  0  0  0  0  0  0  0  0999 V2000
    2.2587    8.4197   32.4499 N   0  3  0  0  0  0  0  0  0  0  0  0
    2.5939    7.0013   32.7795 C   0  0  2  0  0  0  0  0  0  0  0  0
    4.1241    6.8230   32.7338 C   0  0  0  0  0  0  0  0  0  0  0  0
    4.7686    7.5841   32.0278 O   0  5  0  0  0  0  0  0  0  0  0  0
    1.8970    6.0633   31.7575 C   0  0  0  0  0  0  0  0  0  0  0  0
    2.9221    5.3959   30.8331 C   0  0  0  0  0  0  0  0  0  0  0  0
    2.2608    4.2462   30.0809 C   0  0  0  0  0  0  0  0  0  0  0  0
    1.9957    3.1140   31.0159 N   0  0  0  0  0  0  0  0  0  0  0  0
    2.8336    2.1081   31.0907 C   0  0  0  0  0  0  0  0  0  0  0  0
    4.1227    2.3115   30.9770 N   0  0  0  0  0  0  0  0  0  0  0  0
    2.3817    0.8969   31.2848 N   0  3  0  0  0  0  0  0  0  0  0  0
    4.6243    5.9245   33.3939 O   0  0  0  0  0  0  0  0  0  0  0  0
  2  1  1  6  0  0  0
  2  5  1  0  0  0  0
  2  3  1  0  0  0  0
  3  4  1  0  0  0  0
  3 12  2  0  0  0  0
  5  6  1  0  0  0  0
  6  7  1  0  0  0  0
  7  8  1  0  0  0  0
  8  9  1  0  0  0  0
  9 10  1  0  0  0  0
  9 11  2  0  0  0  0
M  CHG  3   1   1   4  -1  11   1
M  END
>  <CHROM.1>
67.26866837,110.74704828,-25.58041985,166.40743562,-71.53988500,-97.19070960
3.07736968,5.00306187,31.71202351,1.44795256,-0.38703207,0.22247707

>  <Name>
1koc cryst

>  <RI>
0

>  <Rbt.Current_Directory>
/home/itssahil/PROJECTS/Mol_Feturizer/New_Systems/rnas/1koc

>  <Rbt.Executable>
rbdock ($Id: //depot/dev/client3/rdock/2013.1/src/exe/rbdock.cxx#4 $)

>  <Rbt.Library>
libRbt.so (2013.1, Build901 2013/11/27)

>  <Rbt.Parameter_File>
/export/apps/rDock/src/rDock_2013.1_src/data/scripts/dock_solv.prm

>  <Rbt.Receptor>
prm/pocket_docking_5.prm

>  <SCORE>
-42.2093

>  <SCORE.INTER>
-44.7458

>  <SCORE.INTER.CONST>
1

>  <SCORE.INTER.POLAR>
-7.58307

>  <SCORE.INTER.ROT>
5

>  <SCORE.INTER.SOLV>
22.3128

>  <SCORE.INTER.VDW>
-18.9246

>  <SCORE.INTER.norm>
-3.72882

>  <SCORE.INTRA>
2.53653

>  <SCORE.INTRA.DIHEDRAL>
3.59689

>  <SCORE.INTRA.DIHEDRAL.0>
6.04201

>  <SCORE.INTRA.POLAR>
0

>  <SCORE.INTRA.POLAR.0>
0

>  <SCORE.INTRA.REPUL>
0

>  <SCORE.INTRA.REPUL.0>
0

>  <SCORE.INTRA.SOLV>
0.708288

>  <SCORE.INTRA.SOLV.lig_0>
-71.0481

>  <SCORE.INTRA.VDW>
0.383942

>  <SCORE.INTRA.VDW.0>
0.968882

>  <SCORE.INTRA.norm>
0.211378

>  <SCORE.RESTR>
0

>  <SCORE.RESTR.CAVITY>
0

>  <SCORE.RESTR.norm>
0

>  <SCORE.SYSTEM>
0

>  <SCORE.SYSTEM.CONST>
0

>  <SCORE.SYSTEM.DIHEDRAL>
0

>  <SCORE.SYSTEM.SOLV>
0

>  <SCORE.SYSTEM.norm>
0

>  <SCORE.heavy>
12

>  <SCORE.norm>
-3.51744

>  <SYMMETRIC_BONDS>
11 12 2
5 6 2

>  <RMSD>
2.028

$$$$
1koc cryst
 OpenBabel11021811393D
libRbt.so/2013.1/901 2013/11/27
 12 11  0  0  0  0  0  0  0  0999 V2000
    3.7022    5.8924   33.0174 N   0  3  0  0  0  0  0  0  0  0  0  0
    4.0484    5.0718   31.8176 C   0  0  2  0  0  0  0  0  0  0  0  0
    5.5763    5.0950   31.6168 C   0  0  0  0  0  0  0  0  0  0  0  0
    6.0780    4.2127   30.9364 O   0  5  0  0  0  0  0  0  0  0  0  0
    3.3186    5.6526   30.5765 C   0  0  0  0  0  0  0  0  0  0  0  0
    1.8169    5.3471   30.6265 C   0  0  0  0  0  0  0  0  0  0  0  0
    1.5644    3.9351   30.1094 C   0  0  0  0  0  0  0  0  0  0  0  0
    1.6328    2.9616   31.2381 N   0  0  0  0  0  0  0  0  0  0  0  0
    2.4116    1.9096   31.1577 C   0  0  0  0  0  0  0  0  0  0  0  0
    3.5725    1.9908   30.5562 N   0  0  0  0  0  0  0  0  0  0  0  0
    2.0308    0.7754   31.6843 N   0  3  0  0  0  0  0  0  0  0  0  0
    6.2194    5.9846   32.1538 O   0  0  0  0  0  0  0  0  0  0  0  0
  2  1  1  1  0  0  0
  2  5  1  0  0  0  0
  2  3  1  0  0  0  0
  3  4  1  0  0  0  0
  3 12  2  0  0  0  0
  5  6  1  0  0  0  0
  6  7  1  0  0  0  0
  7  8  1  0  0  0  0
  8  9  1  0  0  0  0
  9 10  1  0  0  0  0
  9 11  2  0  0  0  0
M  CHG  3   1   1   4  -1  11   1
M  END
>  <CHROM.1>
177.89245612,-72.74179421,160.24821491,-82.27073452,89.71586930,-127.45130833
3.51893303,4.06270574,31.32576399,0.83370140,-0.15443320,0.08540787

>  <Name>
1koc cryst

>  <RI>
0

>  <Rbt.Current_Directory>
/home/itssahil/PROJECTS/Mol_Feturizer/New_Systems/rnas/1koc

>  <Rbt.Executable>
rbdock ($Id: //depot/dev/client3/rdock/2013.1/src/exe/rbdock.cxx#4 $)

>  <Rbt.Library>
libRbt.so (2013.1, Build901 2013/11/27)

>  <Rbt.Parameter_File>
/export/apps/rDock/src/rDock_2013.1_src/data/scripts/dock_solv.prm

>  <Rbt.Receptor>
prm/pocket_docking_4.prm

>  <SCORE>
-27.9556

>  <SCORE.INTER>
-27.6342

>  <SCORE.INTER.CONST>
1

>  <SCORE.INTER.POLAR>
-5.24513

>  <SCORE.INTER.ROT>
5

>  <SCORE.INTER.SOLV>
18.8685

>  <SCORE.INTER.VDW>
-14.1619

>  <SCORE.INTER.norm>
-2.30285

>  <SCORE.INTRA>
-0.321355

>  <SCORE.INTRA.DIHEDRAL>
2.53951

>  <SCORE.INTRA.DIHEDRAL.0>
6.04201

>  <SCORE.INTRA.POLAR>
0

>  <SCORE.INTRA.POLAR.0>
0

>  <SCORE.INTRA.REPUL>
0

>  <SCORE.INTRA.REPUL.0>
0

>  <SCORE.INTRA.SOLV>
2.76837

>  <SCORE.INTRA.SOLV.lig_0>
-71.0481

>  <SCORE.INTRA.VDW>
-2.97529

>  <SCORE.INTRA.VDW.0>
0.968882

>  <SCORE.INTRA.norm>
-0.0267796

>  <SCORE.RESTR>
0

>  <SCORE.RESTR.CAVITY>
0

>  <SCORE.RESTR.norm>
0

>  <SCORE.SYSTEM>
0

>  <SCORE.SYSTEM.CONST>
0

>  <SCORE.SYSTEM.DIHEDRAL>
0

>  <SCORE.SYSTEM.SOLV>
0

>  <SCORE.SYSTEM.norm>
0

>  <SCORE.heavy>
12

>  <SCORE.norm>
-2.32963

>  <SYMMETRIC_BONDS>
11 12 2
5 6 2

>  <RMSD>
2.041

$$$$
1koc cryst
 OpenBabel11021811393D
libRbt.so/2013.1/901 2013/11/27
 12 11  0  0  0  0  0  0  0  0999 V2000
    4.2820    6.6521   28.1554 N   0  3  0  0  0  0  0  0  0  0  0  0
    4.3192    6.6066   29.6485 C   0  0  2  0  0  0  0  0  0  0  0  0
    4.6013    8.0227   30.1875 C   0  0  0  0  0  0  0  0  0  0  0  0
    4.1009    8.3390   31.2564 O   0  5  0  0  0  0  0  0  0  0  0  0
    5.4233    5.6130   30.0997 C   0  0  0  0  0  0  0  0  0  0  0  0
    4.9987    4.1624   29.8422 C   0  0  0  0  0  0  0  0  0  0  0  0
    4.1029    3.6819   30.9786 C   0  0  0  0  0  0  0  0  0  0  0  0
    3.7471    2.2475   30.7726 N   0  0  0  0  0  0  0  0  0  0  0  0
    2.5067    1.8468   30.9153 C   0  0  0  0  0  0  0  0  0  0  0  0
    1.5156    2.6189   30.5443 N   0  0  0  0  0  0  0  0  0  0  0  0
    2.2571    0.6693   31.4254 N   0  3  0  0  0  0  0  0  0  0  0  0
    5.3013    8.7696   29.5201 O   0  0  0  0  0  0  0  0  0  0  0  0
  2  1  1  6  0  0  0
  2  5  1  0  0  0  0
  2  3  1  0  0  0  0
  3  4  1  0  0  0  0
  3 12  2  0  0  0  0
  5  6  1  0  0  0  0
  6  7  1  0  0  0  0
  7  8  1  0  0  0  0
  8  9  1  0  0  0  0
  9 10  1  0  0  0  0
  9 11  2  0  0  0  0
M  CHG  3   1   1   4  -1  11   1
M  END
>  <CHROM.1>
50.19636624,-72.58985282,147.36256323,-82.13123869,-176.90370164,-133.76030934
3.91027377,4.94164180,30.25452216,-1.14463531,-0.66217328,-3.05923720

>  <Name>
1koc cryst

>  <RI>
0

>  <Rbt.Current_Directory>
/home/itssahil/PROJECTS/Mol_Feturizer/New_Systems/rnas/1koc

>  <Rbt.Executable>
rbdock ($Id: //depot/dev/client3/rdock/2013.1/src/exe/rbdock.cxx#4 $)

>  <Rbt.Library>
libRbt.so (2013.1, Build901 2013/11/27)

>  <Rbt.Parameter_File>
/export/apps/rDock/src/rDock_2013.1_src/data/scripts/dock_solv.prm

>  <Rbt.Receptor>
prm/pocket_docking_7.prm

>  <SCORE>
-28.4788

>  <SCORE.INTER>
-26.1618

>  <SCORE.INTER.CONST>
1

>  <SCORE.INTER.POLAR>
-5.18929

>  <SCORE.INTER.ROT>
5

>  <SCORE.INTER.SOLV>
22.5333

>  <SCORE.INTER.VDW>
-14.588

>  <SCORE.INTER.norm>
-2.18015

>  <SCORE.INTRA>
-2.31703

>  <SCORE.INTRA.DIHEDRAL>
0.0429304

>  <SCORE.INTRA.DIHEDRAL.0>
6.04201

>  <SCORE.INTRA.POLAR>
0

>  <SCORE.INTRA.POLAR.0>
0

>  <SCORE.INTRA.REPUL>
0

>  <SCORE.INTRA.REPUL.0>
0

>  <SCORE.INTRA.SOLV>
-0.771347

>  <SCORE.INTRA.SOLV.lig_0>
-71.0481

>  <SCORE.INTRA.VDW>
-1.95282

>  <SCORE.INTRA.VDW.0>
0.968882

>  <SCORE.INTRA.norm>
-0.193086

>  <SCORE.RESTR>
0

>  <SCORE.RESTR.CAVITY>
0

>  <SCORE.RESTR.norm>
0

>  <SCORE.SYSTEM>
0

>  <SCORE.SYSTEM.CONST>
0

>  <SCORE.SYSTEM.DIHEDRAL>
0

>  <SCORE.SYSTEM.SOLV>
0

>  <SCORE.SYSTEM.norm>
0

>  <SCORE.heavy>
12

>  <SCORE.norm>
-2.37323

>  <SYMMETRIC_BONDS>
11 12 2
5 6 2

>  <RMSD>
2.041

$$$$
1koc cryst
 OpenBabel11021811393D
libRbt.so/2013.1/901 2013/11/27
 12 11  0  0  0  0  0  0  0  0999 V2000
    3.6011    7.0735   33.5277 N   0  3  0  0  0  0  0  0  0  0  0  0
    3.9060    6.6066   32.1413 C   0  0  2  0  0  0  0  0  0  0  0  0
    4.6482    7.7265   31.3859 C   0  0  0  0  0  0  0  0  0  0  0  0
    4.3828    8.8842   31.6727 O   0  5  0  0  0  0  0  0  0  0  0  0
    2.5785    6.2415   31.4241 C   0  0  0  0  0  0  0  0  0  0  0  0
    2.8461    5.4589   30.1331 C   0  0  0  0  0  0  0  0  0  0  0  0
    3.2758    4.0368   30.4763 C   0  0  0  0  0  0  0  0  0  0  0  0
    2.1204    3.2801   31.0411 N   0  0  0  0  0  0  0  0  0  0  0  0
    2.1356    1.9690   31.0625 C   0  0  0  0  0  0  0  0  0  0  0  0
    3.2540    1.3242   31.2852 N   0  0  0  0  0  0  0  0  0  0  0  0
    1.0290    1.3014   30.8658 N   0  3  0  0  0  0  0  0  0  0  0  0
    5.4589    7.4100   30.5280 O   0  0  0  0  0  0  0  0  0  0  0  0
  2  1  1  1  0  0  0
  2  5  1  0  0  0  0
  2  3  1  0  0  0  0
  3  4  1  0  0  0  0
  3 12  2  0  0  0  0
  5  6  1  0  0  0  0
  6  7  1  0  0  0  0
  7  8  1  0  0  0  0
  8  9  1  0  0  0  0
  9 10  1  0  0  0  0
  9 11  2  0  0  0  0
M  CHG  3   1   1   4  -1  11   1
M  END
>  <CHROM.1>
-62.30869080,-166.84793073,-31.64634189,73.72417827,69.57029921,161.02764980
3.26831667,5.11084619,31.32710630,0.94744766,0.91183332,0.64365491

>  <Name>
1koc cryst

>  <RI>
0

>  <Rbt.Current_Directory>
/home/itssahil/PROJECTS/Mol_Feturizer/New_Systems/rnas/1koc

>  <Rbt.Executable>
rbdock ($Id: //depot/dev/client3/rdock/2013.1/src/exe/rbdock.cxx#4 $)

>  <Rbt.Library>
libRbt.so (2013.1, Build901 2013/11/27)

>  <Rbt.Parameter_File>
/export/apps/rDock/src/rDock_2013.1_src/data/scripts/dock_solv.prm

>  <Rbt.Receptor>
prm/pocket_docking_2.prm

>  <SCORE>
-19.9069

>  <SCORE.INTER>
-17.9977

>  <SCORE.INTER.CONST>
1

>  <SCORE.INTER.POLAR>
-3.64694

>  <SCORE.INTER.ROT>
5

>  <SCORE.INTER.SOLV>
17.9729

>  <SCORE.INTER.VDW>
-12.7663

>  <SCORE.INTER.norm>
-1.49981

>  <SCORE.INTRA>
-2.40759

>  <SCORE.INTRA.DIHEDRAL>
-0.907472

>  <SCORE.INTRA.DIHEDRAL.0>
6.04201

>  <SCORE.INTRA.POLAR>
0

>  <SCORE.INTRA.POLAR.0>
0

>  <SCORE.INTRA.REPUL>
0

>  <SCORE.INTRA.REPUL.0>
0

>  <SCORE.INTRA.SOLV>
-0.570504

>  <SCORE.INTRA.SOLV.lig_0>
-71.0481

>  <SCORE.INTRA.VDW>
-1.6686

>  <SCORE.INTRA.VDW.0>
0.968882

>  <SCORE.INTRA.norm>
-0.200632

>  <SCORE.RESTR>
0.498431

>  <SCORE.RESTR.CAVITY>
0.498431

>  <SCORE.RESTR.norm>
0.0415359

>  <SCORE.SYSTEM>
0

>  <SCORE.SYSTEM.CONST>
0

>  <SCORE.SYSTEM.DIHEDRAL>
0

>  <SCORE.SYSTEM.SOLV>
0

>  <SCORE.SYSTEM.norm>
0

>  <SCORE.heavy>
12

>  <SCORE.norm>
-1.65891

>  <SYMMETRIC_BONDS>
11 12 2
5 6 2

>  <RMSD>
2.046

$$$$
1koc cryst
 OpenBabel11021811393D
libRbt.so/2013.1/901 2013/11/27
 12 11  0  0  0  0  0  0  0  0999 V2000
    4.0853    6.4671   28.4512 N   0  3  0  0  0  0  0  0  0  0  0  0
    4.1116    6.5862   29.9405 C   0  0  2  0  0  0  0  0  0  0  0  0
    5.5660    6.8048   30.4015 C   0  0  0  0  0  0  0  0  0  0  0  0
    5.7910    7.7297   31.1677 O   0  5  0  0  0  0  0  0  0  0  0  0
    3.5221    5.2927   30.5646 C   0  0  0  0  0  0  0  0  0  0  0  0
    1.9909    5.2901   30.4851 C   0  0  0  0  0  0  0  0  0  0  0  0
    1.5024    3.9075   30.0670 C   0  0  0  0  0  0  0  0  0  0  0  0
    1.6220    2.9592   31.2127 N   0  0  0  0  0  0  0  0  0  0  0  0
    2.4106    1.9150   31.1273 C   0  0  0  0  0  0  0  0  0  0  0  0
    3.5490    1.9970   30.4843 N   0  0  0  0  0  0  0  0  0  0  0  0
    2.0624    0.7878   31.6904 N   0  3  0  0  0  0  0  0  0  0  0  0
    6.4301    6.0539   29.9739 O   0  0  0  0  0  0  0  0  0  0  0  0
  2  1  1  6  0  0  0
  2  5  1  0  0  0  0
  2  3  1  0  0  0  0
  3  4  1  0  0  0  0
  3 12  2  0  0  0  0
  5  6  1  0  0  0  0
  6  7  1  0  0  0  0
  7  8  1  0  0  0  0
  8  9  1  0  0  0  0
  9 10  1  0  0  0  0
  9 11  2  0  0  0  0
M  CHG  3   1   1   4  -1  11   1
M  END
>  <CHROM.1>
66.96764314,-77.73769143,129.90266667,137.32045514,74.75629909,-117.55988324
3.57961794,4.63852186,30.44488123,0.99358586,-0.17326398,-0.31763374

>  <Name>
1koc cryst

>  <RI>
0

>  <Rbt.Current_Directory>
/home/itssahil/PROJECTS/Mol_Feturizer/New_Systems/rnas/1koc

>  <Rbt.Executable>
rbdock ($Id: //depot/dev/client3/rdock/2013.1/src/exe/rbdock.cxx#4 $)

>  <Rbt.Library>
libRbt.so (2013.1, Build901 2013/11/27)

>  <Rbt.Parameter_File>
/export/apps/rDock/src/rDock_2013.1_src/data/scripts/dock_solv.prm

>  <Rbt.Receptor>
prm/pocket_docking_4.prm

>  <SCORE>
-34.1773

>  <SCORE.INTER>
-34.1996

>  <SCORE.INTER.CONST>
1

>  <SCORE.INTER.POLAR>
-6.59602

>  <SCORE.INTER.ROT>
5

>  <SCORE.INTER.SOLV>
20.5806

>  <SCORE.INTER.VDW>
-14.6065

>  <SCORE.INTER.norm>
-2.84996

>  <SCORE.INTRA>
0.0222884

>  <SCORE.INTRA.DIHEDRAL>
4.28253

>  <SCORE.INTRA.DIHEDRAL.0>
6.04201

>  <SCORE.INTRA.POLAR>
0

>  <SCORE.INTRA.POLAR.0>
0

>  <SCORE.INTRA.REPUL>
0

>  <SCORE.INTRA.REPUL.0>
0

>  <SCORE.INTRA.SOLV>
0.154705

>  <SCORE.INTRA.SOLV.lig_0>
-71.0481

>  <SCORE.INTRA.VDW>
-2.19633

>  <SCORE.INTRA.VDW.0>
0.968882

>  <SCORE.INTRA.norm>
0.00185737

>  <SCORE.RESTR>
0

>  <SCORE.RESTR.CAVITY>
0

>  <SCORE.RESTR.norm>
0

>  <SCORE.SYSTEM>
0

>  <SCORE.SYSTEM.CONST>
0

>  <SCORE.SYSTEM.DIHEDRAL>
0

>  <SCORE.SYSTEM.SOLV>
0

>  <SCORE.SYSTEM.norm>
0

>  <SCORE.heavy>
12

>  <SCORE.norm>
-2.84811

>  <SYMMETRIC_BONDS>
11 12 2
5 6 2

>  <RMSD>
2.046

$$$$
1koc cryst
 OpenBabel11021811393D
libRbt.so/2013.1/901 2013/11/27
 12 11  0  0  0  0  0  0  0  0999 V2000
    6.0889    6.2951   27.8029 N   0  3  0  0  0  0  0  0  0  0  0  0
    5.1553    6.4637   28.9573 C   0  0  2  0  0  0  0  0  0  0  0  0
    5.9785    6.6076   30.2524 C   0  0  0  0  0  0  0  0  0  0  0  0
    6.8863    5.8128   30.4453 O   0  5  0  0  0  0  0  0  0  0  0  0
    4.2140    5.2316   29.0343 C   0  0  0  0  0  0  0  0  0  0  0  0
    3.3909    5.2462   30.3278 C   0  0  0  0  0  0  0  0  0  0  0  0
    2.2168    4.2819   30.1983 C   0  0  0  0  0  0  0  0  0  0  0  0
    2.7167    2.8767   30.1558 N   0  0  0  0  0  0  0  0  0  0  0  0
    2.3014    2.0002   31.0384 C   0  0  0  0  0  0  0  0  0  0  0  0
    1.0644    2.0299   31.4683 N   0  0  0  0  0  0  0  0  0  0  0  0
    3.1237    1.0889   31.4882 N   0  3  0  0  0  0  0  0  0  0  0  0
    5.6821    7.4997   31.0331 O   0  0  0  0  0  0  0  0  0  0  0  0
  2  1  1  6  0  0  0
  2  5  1  0  0  0  0
  2  3  1  0  0  0  0
  3  4  1  0  0  0  0
  3 12  2  0  0  0  0
  5  6  1  0  0  0  0
  6  7  1  0  0  0  0
  7  8  1  0  0  0  0
  8  9  1  0  0  0  0
  9 10  1  0  0  0  0
  9 11  2  0  0  0  0
M  CHG  3   1   1   4  -1  11   1
M  END
>  <CHROM.1>
-60.32012731,170.88388940,-47.10306491,163.75231453,68.33671928,122.63244750
4.09776842,4.60510900,30.17639128,0.65802144,-0.65573400,-0.99831451

>  <Name>
1koc cryst

>  <RI>
0

>  <Rbt.Current_Directory>
/home/itssahil/PROJECTS/Mol_Feturizer/New_Systems/rnas/1koc

>  <Rbt.Executable>
rbdock ($Id: //depot/dev/client3/rdock/2013.1/src/exe/rbdock.cxx#4 $)

>  <Rbt.Library>
libRbt.so (2013.1, Build901 2013/11/27)

>  <Rbt.Parameter_File>
/export/apps/rDock/src/rDock_2013.1_src/data/scripts/dock_solv.prm

>  <Rbt.Receptor>
prm/pocket_docking_3.prm

>  <SCORE>
-28.7474

>  <SCORE.INTER>
-26.1296

>  <SCORE.INTER.CONST>
1

>  <SCORE.INTER.POLAR>
-4.97711

>  <SCORE.INTER.ROT>
5

>  <SCORE.INTER.SOLV>
17.8876

>  <SCORE.INTER.VDW>
-13.7252

>  <SCORE.INTER.norm>
-2.17747

>  <SCORE.INTRA>
-2.61776

>  <SCORE.INTRA.DIHEDRAL>
-1.01663

>  <SCORE.INTRA.DIHEDRAL.0>
6.04201

>  <SCORE.INTRA.POLAR>
0

>  <SCORE.INTRA.POLAR.0>
0

>  <SCORE.INTRA.REPUL>
0

>  <SCORE.INTRA.REPUL.0>
0

>  <SCORE.INTRA.SOLV>
-0.934673

>  <SCORE.INTRA.SOLV.lig_0>
-71.0481

>  <SCORE.INTRA.VDW>
-1.64211

>  <SCORE.INTRA.VDW.0>
0.968882

>  <SCORE.INTRA.norm>
-0.218146

>  <SCORE.RESTR>
0

>  <SCORE.RESTR.CAVITY>
0

>  <SCORE.RESTR.norm>
0

>  <SCORE.SYSTEM>
0

>  <SCORE.SYSTEM.CONST>
0

>  <SCORE.SYSTEM.DIHEDRAL>
0

>  <SCORE.SYSTEM.SOLV>
0

>  <SCORE.SYSTEM.norm>
0

>  <SCORE.heavy>
12

>  <SCORE.norm>
-2.39561

>  <SYMMETRIC_BONDS>
11 12 2
5 6 2

>  <RMSD>
2.055

$$$$
1koc cryst
 OpenBabel11021811393D
libRbt.so/2013.1/901 2013/11/27
 12 11  0  0  0  0  0  0  0  0999 V2000
    2.2316    8.4385   32.4481 N   0  3  0  0  0  0  0  0  0  0  0  0
    3.0009    7.1694   32.2737 C   0  0  2  0  0  0  0  0  0  0  0  0
    4.2812    7.4646   31.4681 C   0  0  0  0  0  0  0  0  0  0  0  0
    5.2158    6.6843   31.5717 O   0  5  0  0  0  0  0  0  0  0  0  0
    2.1108    6.1323   31.5372 C   0  0  0  0  0  0  0  0  0  0  0  0
    2.9667    5.0938   30.8025 C   0  0  0  0  0  0  0  0  0  0  0  0
    2.0614    4.0644   30.1348 C   0  0  0  0  0  0  0  0  0  0  0  0
    1.8264    2.9187   31.0613 N   0  0  0  0  0  0  0  0  0  0  0  0
    2.6624    1.9087   31.0895 C   0  0  0  0  0  0  0  0  0  0  0  0
    3.9472    2.1094   30.9313 N   0  0  0  0  0  0  0  0  0  0  0  0
    2.2130    0.6962   31.2813 N   0  3  0  0  0  0  0  0  0  0  0  0
    4.3110    8.4684   30.7717 O   0  0  0  0  0  0  0  0  0  0  0  0
  2  1  1  6  0  0  0
  2  5  1  0  0  0  0
  2  3  1  0  0  0  0
  3  4  1  0  0  0  0
  3 12  2  0  0  0  0
  5  6  1  0  0  0  0
  6  7  1  0  0  0  0
  7  8  1  0  0  0  0
  8  9  1  0  0  0  0
  9 10  1  0  0  0  0
  9 11  2  0  0  0  0
M  CHG  3   1   1   4  -1  11   1
M  END
>  <CHROM.1>
51.67986968,155.27160999,157.84121453,177.93542560,-91.32273600,-87.21392802
3.07341156,5.11042830,31.29185492,1.40089507,0.17216233,0.13603712

>  <Name>
1koc cryst

>  <RI>
0

>  <Rbt.Current_Directory>
/home/itssahil/PROJECTS/Mol_Feturizer/New_Systems/rnas/1koc

>  <Rbt.Executable>
rbdock ($Id: //depot/dev/client3/rdock/2013.1/src/exe/rbdock.cxx#4 $)

>  <Rbt.Library>
libRbt.so (2013.1, Build901 2013/11/27)

>  <Rbt.Parameter_File>
/export/apps/rDock/src/rDock_2013.1_src/data/scripts/dock_solv.prm

>  <Rbt.Receptor>
prm/pocket_docking_2.prm

>  <SCORE>
-40.8828

>  <SCORE.INTER>
-44.1752

>  <SCORE.INTER.CONST>
1

>  <SCORE.INTER.POLAR>
-7.58807

>  <SCORE.INTER.ROT>
5

>  <SCORE.INTER.SOLV>
23.4812

>  <SCORE.INTER.VDW>
-18.917

>  <SCORE.INTER.norm>
-3.68127

>  <SCORE.INTRA>
1.38248

>  <SCORE.INTRA.DIHEDRAL>
2.41834

>  <SCORE.INTRA.DIHEDRAL.0>
6.04201

>  <SCORE.INTRA.POLAR>
0

>  <SCORE.INTRA.POLAR.0>
0

>  <SCORE.INTRA.REPUL>
0

>  <SCORE.INTRA.REPUL.0>
0

>  <SCORE.INTRA.SOLV>
0.162263

>  <SCORE.INTRA.SOLV.lig_0>
-71.0481

>  <SCORE.INTRA.VDW>
0.0921799

>  <SCORE.INTRA.VDW.0>
0.968882

>  <SCORE.INTRA.norm>
0.115207

>  <SCORE.RESTR>
1.90995

>  <SCORE.RESTR.CAVITY>
1.90995

>  <SCORE.RESTR.norm>
0.159162

>  <SCORE.SYSTEM>
0

>  <SCORE.SYSTEM.CONST>
0

>  <SCORE.SYSTEM.DIHEDRAL>
0

>  <SCORE.SYSTEM.SOLV>
0

>  <SCORE.SYSTEM.norm>
0

>  <SCORE.heavy>
12

>  <SCORE.norm>
-3.4069

>  <SYMMETRIC_BONDS>
11 12 2
5 6 2

>  <RMSD>
2.056

$$$$
1koc cryst
 OpenBabel11021811393D
libRbt.so/2013.1/901 2013/11/27
 12 11  0  0  0  0  0  0  0  0999 V2000
    2.2534    8.4853   32.4518 N   0  3  0  0  0  0  0  0  0  0  0  0
    3.1110    7.2661   32.5563 C   0  0  2  0  0  0  0  0  0  0  0  0
    4.5737    7.6541   32.2640 C   0  0  0  0  0  0  0  0  0  0  0  0
    4.7899    8.4092   31.3280 O   0  5  0  0  0  0  0  0  0  0  0  0
    2.6081    6.2022   31.5437 C   0  0  0  0  0  0  0  0  0  0  0  0
    3.4713    4.9362   31.5994 C   0  0  0  0  0  0  0  0  0  0  0  0
    2.8688    3.8658   30.6961 C   0  0  0  0  0  0  0  0  0  0  0  0
    1.5034    3.5051   31.1777 N   0  0  0  0  0  0  0  0  0  0  0  0
    1.0075    2.3166   30.9306 C   0  0  0  0  0  0  0  0  0  0  0  0
    1.7845    1.2619   30.9351 N   0  0  0  0  0  0  0  0  0  0  0  0
   -0.2691    2.1818   30.6834 N   0  3  0  0  0  0  0  0  0  0  0  0
    5.4521    7.1830   32.9709 O   0  0  0  0  0  0  0  0  0  0  0  0
  2  1  1  6  0  0  0
  2  5  1  0  0  0  0
  2  3  1  0  0  0  0
  3  4  1  0  0  0  0
  3 12  2  0  0  0  0
  5  6  1  0  0  0  0
  6  7  1  0  0  0  0
  7  8  1  0  0  0  0
  8  9  1  0  0  0  0
  9 10  1  0  0  0  0
  9 11  2  0  0  0  0
M  CHG  3   1   1   4  -1  11   1
M  END
>  <CHROM.1>
-51.00729343,179.19745628,-43.17006092,174.43899071,-61.84004511,-153.36738135
2.74324220,5.29170992,31.59753077,1.08079299,-0.07478200,0.19965662

>  <Name>
1koc cryst

>  <RI>
0

>  <Rbt.Current_Directory>
/home/itssahil/PROJECTS/Mol_Feturizer/New_Systems/rnas/1koc

>  <Rbt.Executable>
rbdock ($Id: //depot/dev/client3/rdock/2013.1/src/exe/rbdock.cxx#4 $)

>  <Rbt.Library>
libRbt.so (2013.1, Build901 2013/11/27)

>  <Rbt.Parameter_File>
/export/apps/rDock/src/rDock_2013.1_src/data/scripts/dock_solv.prm

>  <Rbt.Receptor>
prm/pocket_docking_5.prm

>  <SCORE>
-36.2835

>  <SCORE.INTER>
-33.2886

>  <SCORE.INTER.CONST>
1

>  <SCORE.INTER.POLAR>
-5.95118

>  <SCORE.INTER.ROT>
5

>  <SCORE.INTER.SOLV>
22.974

>  <SCORE.INTER.VDW>
-16.9464

>  <SCORE.INTER.norm>
-2.77405

>  <SCORE.INTRA>
-2.99495

>  <SCORE.INTRA.DIHEDRAL>
-2.27419

>  <SCORE.INTRA.DIHEDRAL.0>
6.04201

>  <SCORE.INTRA.POLAR>
0

>  <SCORE.INTRA.POLAR.0>
0

>  <SCORE.INTRA.REPUL>
0

>  <SCORE.INTRA.REPUL.0>
0

>  <SCORE.INTRA.SOLV>
-0.839161

>  <SCORE.INTRA.SOLV.lig_0>
-71.0481

>  <SCORE.INTRA.VDW>
-1.43827

>  <SCORE.INTRA.VDW.0>
0.968882

>  <SCORE.INTRA.norm>
-0.249579

>  <SCORE.RESTR>
0

>  <SCORE.RESTR.CAVITY>
0

>  <SCORE.RESTR.norm>
0

>  <SCORE.SYSTEM>
0

>  <SCORE.SYSTEM.CONST>
0

>  <SCORE.SYSTEM.DIHEDRAL>
0

>  <SCORE.SYSTEM.SOLV>
0

>  <SCORE.SYSTEM.norm>
0

>  <SCORE.heavy>
12

>  <SCORE.norm>
-3.02363

>  <SYMMETRIC_BONDS>
11 12 2
5 6 2

>  <RMSD>
2.066

$$$$
1koc cryst
 OpenBabel11021811393D
libRbt.so/2013.1/901 2013/11/27
 12 11  0  0  0  0  0  0  0  0999 V2000
    2.0380    8.4821   32.5471 N   0  3  0  0  0  0  0  0  0  0  0  0
    2.8026    7.2019   32.4505 C   0  0  2  0  0  0  0  0  0  0  0  0
    4.2011    7.4943   31.8723 C   0  0  0  0  0  0  0  0  0  0  0  0
    5.1666    6.9903   32.4262 O   0  5  0  0  0  0  0  0  0  0  0  0
    2.0245    6.2122   31.5421 C   0  0  0  0  0  0  0  0  0  0  0  0
    2.9787    5.2312   30.8508 C   0  0  0  0  0  0  0  0  0  0  0  0
    2.1734    4.1539   30.1325 C   0  0  0  0  0  0  0  0  0  0  0  0
    1.9202    3.0094   31.0557 N   0  0  0  0  0  0  0  0  0  0  0  0
    2.7556    1.9996   31.1016 C   0  0  0  0  0  0  0  0  0  0  0  0
    4.0432    2.2001   30.9685 N   0  0  0  0  0  0  0  0  0  0  0  0
    2.3026    0.7873   31.2862 N   0  3  0  0  0  0  0  0  0  0  0  0
    4.2850    8.2239   30.8956 O   0  0  0  0  0  0  0  0  0  0  0  0
  2  1  1  6  0  0  0
  2  5  1  0  0  0  0
  2  3  1  0  0  0  0
  3  4  1  0  0  0  0
  3 12  2  0  0  0  0
  5  6  1  0  0  0  0
  6  7  1  0  0  0  0
  7  8  1  0  0  0  0
  8  9  1  0  0  0  0
  9 10  1  0  0  0  0
  9 11  2  0  0  0  0
M  CHG  3   1   1   4  -1  11   1
M  END
>  <CHROM.1>
-178.36985190,151.93835774,133.57092092,171.83362738,-89.48586164,-91.38314665
3.06186277,5.17996866,31.43962308,1.43485947,0.00788876,0.16013182

>  <Name>
1koc cryst

>  <RI>
0

>  <Rbt.Current_Directory>
/home/itssahil/PROJECTS/Mol_Feturizer/New_Systems/rnas/1koc

>  <Rbt.Executable>
rbdock ($Id: //depot/dev/client3/rdock/2013.1/src/exe/rbdock.cxx#4 $)

>  <Rbt.Library>
libRbt.so (2013.1, Build901 2013/11/27)

>  <Rbt.Parameter_File>
/export/apps/rDock/src/rDock_2013.1_src/data/scripts/dock_solv.prm

>  <Rbt.Receptor>
prm/pocket_docking_6.prm

>  <SCORE>
-44.0181

>  <SCORE.INTER>
-44.6487

>  <SCORE.INTER.CONST>
1

>  <SCORE.INTER.POLAR>
-7.64562

>  <SCORE.INTER.ROT>
5

>  <SCORE.INTER.SOLV>
24.0102

>  <SCORE.INTER.VDW>
-19.2171

>  <SCORE.INTER.norm>
-3.72073

>  <SCORE.INTRA>
0.630612

>  <SCORE.INTRA.DIHEDRAL>
2.68715

>  <SCORE.INTRA.DIHEDRAL.0>
6.04201

>  <SCORE.INTRA.POLAR>
0

>  <SCORE.INTRA.POLAR.0>
0

>  <SCORE.INTRA.REPUL>
0

>  <SCORE.INTRA.REPUL.0>
0

>  <SCORE.INTRA.SOLV>
-0.261289

>  <SCORE.INTRA.SOLV.lig_0>
-71.0481

>  <SCORE.INTRA.VDW>
-0.582317

>  <SCORE.INTRA.VDW.0>
0.968882

>  <SCORE.INTRA.norm>
0.052551

>  <SCORE.RESTR>
0

>  <SCORE.RESTR.CAVITY>
0

>  <SCORE.RESTR.norm>
0

>  <SCORE.SYSTEM>
0

>  <SCORE.SYSTEM.CONST>
0

>  <SCORE.SYSTEM.DIHEDRAL>
0

>  <SCORE.SYSTEM.SOLV>
0

>  <SCORE.SYSTEM.norm>
0

>  <SCORE.heavy>
12

>  <SCORE.norm>
-3.66818

>  <SYMMETRIC_BONDS>
11 12 2
5 6 2

>  <RMSD>
2.066

$$$$
1koc cryst
 OpenBabel11021811393D
libRbt.so/2013.1/901 2013/11/27
 12 11  0  0  0  0  0  0  0  0999 V2000
    4.0520    6.4096   28.5673 N   0  3  0  0  0  0  0  0  0  0  0  0
    3.3309    6.0210   29.8171 C   0  0  2  0  0  0  0  0  0  0  0  0
    4.3615    5.7796   30.9374 C   0  0  0  0  0  0  0  0  0  0  0  0
    5.4172    5.2420   30.6384 O   0  5  0  0  0  0  0  0  0  0  0  0
    2.4981    4.7391   29.5461 C   0  0  0  0  0  0  0  0  0  0  0  0
    1.4562    4.5150   30.6483 C   0  0  0  0  0  0  0  0  0  0  0  0
    0.7920    3.1560   30.4561 C   0  0  0  0  0  0  0  0  0  0  0  0
    1.1865    2.2372   31.5636 N   0  0  0  0  0  0  0  0  0  0  0  0
    2.1179    1.3339   31.3733 C   0  0  0  0  0  0  0  0  0  0  0  0
    3.1511    1.5994   30.6130 N   0  0  0  0  0  0  0  0  0  0  0  0
    2.0183    0.1643   31.9487 N   0  3  0  0  0  0  0  0  0  0  0  0
    4.0753    6.1245   32.0743 O   0  0  0  0  0  0  0  0  0  0  0  0
  2  1  1  6  0  0  0
  2  5  1  0  0  0  0
  2  3  1  0  0  0  0
  3  4  1  0  0  0  0
  3 12  2  0  0  0  0
  5  6  1  0  0  0  0
  6  7  1  0  0  0  0
  7  8  1  0  0  0  0
  8  9  1  0  0  0  0
  9 10  1  0  0  0  0
  9 11  2  0  0  0  0
M  CHG  3   1   1   4  -1  11   1
M  END
>  <CHROM.1>
-178.86278033,-164.46639380,-37.77990056,-172.22499753,111.85576954,-100.74394967
2.91116449,3.94040777,30.67295700,1.09057542,-0.35794763,-0.45178118

>  <Name>
1koc cryst

>  <RI>
0

>  <Rbt.Current_Directory>
/home/itssahil/PROJECTS/Mol_Feturizer/New_Systems/rnas/1koc

>  <Rbt.Executable>
rbdock ($Id: //depot/dev/client3/rdock/2013.1/src/exe/rbdock.cxx#4 $)

>  <Rbt.Library>
libRbt.so (2013.1, Build901 2013/11/27)

>  <Rbt.Parameter_File>
/export/apps/rDock/src/rDock_2013.1_src/data/scripts/dock_solv.prm

>  <Rbt.Receptor>
prm/pocket_docking_6.prm

>  <SCORE>
-36.6109

>  <SCORE.INTER>
-36.5832

>  <SCORE.INTER.CONST>
1

>  <SCORE.INTER.POLAR>
-6.99398

>  <SCORE.INTER.ROT>
5

>  <SCORE.INTER.SOLV>
23.976

>  <SCORE.INTER.VDW>
-16.0009

>  <SCORE.INTER.norm>
-3.0486

>  <SCORE.INTRA>
-0.027738

>  <SCORE.INTRA.DIHEDRAL>
3.72877

>  <SCORE.INTRA.DIHEDRAL.0>
6.04201

>  <SCORE.INTRA.POLAR>
0

>  <SCORE.INTRA.POLAR.0>
0

>  <SCORE.INTRA.REPUL>
0

>  <SCORE.INTRA.REPUL.0>
0

>  <SCORE.INTRA.SOLV>
0.132907

>  <SCORE.INTRA.SOLV.lig_0>
-71.0481

>  <SCORE.INTRA.VDW>
-1.95858

>  <SCORE.INTRA.VDW.0>
0.968882

>  <SCORE.INTRA.norm>
-0.0023115

>  <SCORE.RESTR>
0

>  <SCORE.RESTR.CAVITY>
0

>  <SCORE.RESTR.norm>
0

>  <SCORE.SYSTEM>
0

>  <SCORE.SYSTEM.CONST>
0

>  <SCORE.SYSTEM.DIHEDRAL>
0

>  <SCORE.SYSTEM.SOLV>
0

>  <SCORE.SYSTEM.norm>
0

>  <SCORE.heavy>
12

>  <SCORE.norm>
-3.05091

>  <SYMMETRIC_BONDS>
11 12 2
5 6 2

>  <RMSD>
2.068

$$$$
1koc cryst
 OpenBabel11021811393D
libRbt.so/2013.1/901 2013/11/27
 12 11  0  0  0  0  0  0  0  0999 V2000
    2.2400    8.5683   32.5104 N   0  3  0  0  0  0  0  0  0  0  0  0
    3.1442    7.3933   32.6966 C   0  0  2  0  0  0  0  0  0  0  0  0
    4.5953    7.8253   32.4077 C   0  0  0  0  0  0  0  0  0  0  0  0
    4.8099    8.4675   31.3906 O   0  5  0  0  0  0  0  0  0  0  0  0
    2.7042    6.2557   31.7363 C   0  0  0  0  0  0  0  0  0  0  0  0
    3.7135    5.1016   31.7493 C   0  0  0  0  0  0  0  0  0  0  0  0
    3.3299    4.0741   30.6900 C   0  0  0  0  0  0  0  0  0  0  0  0
    2.1292    3.3091   31.1365 N   0  0  0  0  0  0  0  0  0  0  0  0
    2.1423    1.9978   31.1347 C   0  0  0  0  0  0  0  0  0  0  0  0
    3.2366    1.3471   31.4431 N   0  0  0  0  0  0  0  0  0  0  0  0
    1.0574    1.3359   30.8288 N   0  3  0  0  0  0  0  0  0  0  0  0
    5.4672    7.4986   33.1991 O   0  0  0  0  0  0  0  0  0  0  0  0
  2  1  1  6  0  0  0
  2  5  1  0  0  0  0
  2  3  1  0  0  0  0
  3  4  1  0  0  0  0
  3 12  2  0  0  0  0
  5  6  1  0  0  0  0
  6  7  1  0  0  0  0
  7  8  1  0  0  0  0
  8  9  1  0  0  0  0
  9 10  1  0  0  0  0
  9 11  2  0  0  0  0
M  CHG  3   1   1   4  -1  11   1
M  END
>  <CHROM.1>
68.92367814,172.20999178,-47.56054140,-173.99786162,-73.24341907,-128.06864788
3.19910236,5.27934152,31.74678942,1.27353033,-0.12231315,0.17200500

>  <Name>
1koc cryst

>  <RI>
0

>  <Rbt.Current_Directory>
/home/itssahil/PROJECTS/Mol_Feturizer/New_Systems/rnas/1koc

>  <Rbt.Executable>
rbdock ($Id: //depot/dev/client3/rdock/2013.1/src/exe/rbdock.cxx#4 $)

>  <Rbt.Library>
libRbt.so (2013.1, Build901 2013/11/27)

>  <Rbt.Parameter_File>
/export/apps/rDock/src/rDock_2013.1_src/data/scripts/dock_solv.prm

>  <Rbt.Receptor>
prm/pocket_docking_4.prm

>  <SCORE>
-34.6069

>  <SCORE.INTER>
-31.7721

>  <SCORE.INTER.CONST>
1

>  <SCORE.INTER.POLAR>
-6.25773

>  <SCORE.INTER.ROT>
5

>  <SCORE.INTER.SOLV>
23.1328

>  <SCORE.INTER.VDW>
-14.9666

>  <SCORE.INTER.norm>
-2.64768

>  <SCORE.INTRA>
-2.83471

>  <SCORE.INTRA.DIHEDRAL>
-1.41762

>  <SCORE.INTRA.DIHEDRAL.0>
6.04201

>  <SCORE.INTRA.POLAR>
0

>  <SCORE.INTRA.POLAR.0>
0

>  <SCORE.INTRA.REPUL>
0

>  <SCORE.INTRA.REPUL.0>
0

>  <SCORE.INTRA.SOLV>
-0.768949

>  <SCORE.INTRA.SOLV.lig_0>
-71.0481

>  <SCORE.INTRA.VDW>
-1.74143

>  <SCORE.INTRA.VDW.0>
0.968882

>  <SCORE.INTRA.norm>
-0.236226

>  <SCORE.RESTR>
0

>  <SCORE.RESTR.CAVITY>
0

>  <SCORE.RESTR.norm>
0

>  <SCORE.SYSTEM>
0

>  <SCORE.SYSTEM.CONST>
0

>  <SCORE.SYSTEM.DIHEDRAL>
0

>  <SCORE.SYSTEM.SOLV>
0

>  <SCORE.SYSTEM.norm>
0

>  <SCORE.heavy>
12

>  <SCORE.norm>
-2.8839

>  <SYMMETRIC_BONDS>
11 12 2
5 6 2

>  <RMSD>
2.071

$$$$
1koc cryst
 OpenBabel11021811393D
libRbt.so/2013.1/901 2013/11/27
 12 11  0  0  0  0  0  0  0  0999 V2000
    2.1054    8.5003   32.5611 N   0  3  0  0  0  0  0  0  0  0  0  0
    2.8766    7.2250   32.4527 C   0  0  2  0  0  0  0  0  0  0  0  0
    4.2521    7.5215   31.8239 C   0  0  0  0  0  0  0  0  0  0  0  0
    5.2416    7.0458   32.3604 O   0  5  0  0  0  0  0  0  0  0  0  0
    2.0760    6.2189   31.5826 C   0  0  0  0  0  0  0  0  0  0  0  0
    3.0134    5.2309   30.8784 C   0  0  0  0  0  0  0  0  0  0  0  0
    2.1903    4.1593   30.1719 C   0  0  0  0  0  0  0  0  0  0  0  0
    1.9655    3.0047   31.0900 N   0  0  0  0  0  0  0  0  0  0  0  0
    2.7944    1.9886   31.0898 C   0  0  0  0  0  0  0  0  0  0  0  0
    4.0772    2.1818   30.9079 N   0  0  0  0  0  0  0  0  0  0  0  0
    2.3400    0.7772   31.2769 N   0  3  0  0  0  0  0  0  0  0  0  0
    4.2952    8.2261   30.8265 O   0  0  0  0  0  0  0  0  0  0  0  0
  2  1  1  6  0  0  0
  2  5  1  0  0  0  0
  2  3  1  0  0  0  0
  3  4  1  0  0  0  0
  3 12  2  0  0  0  0
  5  6  1  0  0  0  0
  6  7  1  0  0  0  0
  7  8  1  0  0  0  0
  8  9  1  0  0  0  0
  9 10  1  0  0  0  0
  9 11  2  0  0  0  0
M  CHG  3   1   1   4  -1  11   1
M  END
>  <CHROM.1>
58.58804769,152.35937003,132.62545548,173.20381219,-90.63235947,-92.25587478
3.10659052,5.18771824,31.42986452,1.43258053,0.04870293,0.16252058

>  <Name>
1koc cryst

>  <RI>
0

>  <Rbt.Current_Directory>
/home/itssahil/PROJECTS/Mol_Feturizer/New_Systems/rnas/1koc

>  <Rbt.Executable>
rbdock ($Id: //depot/dev/client3/rdock/2013.1/src/exe/rbdock.cxx#4 $)

>  <Rbt.Library>
libRbt.so (2013.1, Build901 2013/11/27)

>  <Rbt.Parameter_File>
/export/apps/rDock/src/rDock_2013.1_src/data/scripts/dock_solv.prm

>  <Rbt.Receptor>
prm/pocket_docking_5.prm

>  <SCORE>
-44.0329

>  <SCORE.INTER>
-44.5888

>  <SCORE.INTER.CONST>
1

>  <SCORE.INTER.POLAR>
-7.59257

>  <SCORE.INTER.ROT>
5

>  <SCORE.INTER.SOLV>
23.8045

>  <SCORE.INTER.VDW>
-19.2855

>  <SCORE.INTER.norm>
-3.71573

>  <SCORE.INTRA>
0.555903

>  <SCORE.INTRA.DIHEDRAL>
2.71058

>  <SCORE.INTRA.DIHEDRAL.0>
6.04201

>  <SCORE.INTRA.POLAR>
0

>  <SCORE.INTRA.POLAR.0>
0

>  <SCORE.INTRA.REPUL>
0

>  <SCORE.INTRA.REPUL.0>
0

>  <SCORE.INTRA.SOLV>
-0.285725

>  <SCORE.INTRA.SOLV.lig_0>
-71.0481

>  <SCORE.INTRA.VDW>
-0.656525

>  <SCORE.INTRA.VDW.0>
0.968882

>  <SCORE.INTRA.norm>
0.0463252

>  <SCORE.RESTR>
0

>  <SCORE.RESTR.CAVITY>
0

>  <SCORE.RESTR.norm>
0

>  <SCORE.SYSTEM>
0

>  <SCORE.SYSTEM.CONST>
0

>  <SCORE.SYSTEM.DIHEDRAL>
0

>  <SCORE.SYSTEM.SOLV>
0

>  <SCORE.SYSTEM.norm>
0

>  <SCORE.heavy>
12

>  <SCORE.norm>
-3.66941

>  <SYMMETRIC_BONDS>
11 12 2
5 6 2

>  <RMSD>
2.074

$$$$
1koc cryst
 OpenBabel11021811393D
libRbt.so/2013.1/901 2013/11/27
 12 11  0  0  0  0  0  0  0  0999 V2000
    4.7451    8.0540   29.8482 N   0  3  0  0  0  0  0  0  0  0  0  0
    4.5324    6.7086   30.4626 C   0  0  2  0  0  0  0  0  0  0  0  0
    5.6831    5.7750   30.0385 C   0  0  0  0  0  0  0  0  0  0  0  0
    6.5875    6.2490   29.3673 O   0  5  0  0  0  0  0  0  0  0  0  0
    3.1631    6.1465   29.9946 C   0  0  0  0  0  0  0  0  0  0  0  0
    2.6102    5.1313   31.0019 C   0  0  0  0  0  0  0  0  0  0  0  0
    1.8761    4.0206   30.2587 C   0  0  0  0  0  0  0  0  0  0  0  0
    1.7208    2.8321   31.1472 N   0  0  0  0  0  0  0  0  0  0  0  0
    2.6041    1.8633   31.1162 C   0  0  0  0  0  0  0  0  0  0  0  0
    3.8732    2.1313   30.9329 N   0  0  0  0  0  0  0  0  0  0  0  0
    2.2179    0.6244   31.2738 N   0  3  0  0  0  0  0  0  0  0  0  0
    5.6363    4.6029   30.3807 O   0  0  0  0  0  0  0  0  0  0  0  0
  2  1  1  6  0  0  0
  2  5  1  0  0  0  0
  2  3  1  0  0  0  0
  3  4  1  0  0  0  0
  3 12  2  0  0  0  0
  5  6  1  0  0  0  0
  6  7  1  0  0  0  0
  7  8  1  0  0  0  0
  8  9  1  0  0  0  0
  9 10  1  0  0  0  0
  9 11  2  0  0  0  0
M  CHG  3   1   1   4  -1  11   1
M  END
>  <CHROM.1>
170.75387969,-155.11775622,3.77471716,-144.39565228,161.90378958,-93.80644626
3.79952270,4.51594115,30.47737961,1.04766371,0.15031658,-0.15551966

>  <Name>
1koc cryst

>  <RI>
0

>  <Rbt.Current_Directory>
/home/itssahil/PROJECTS/Mol_Feturizer/New_Systems/rnas/1koc

>  <Rbt.Executable>
rbdock ($Id: //depot/dev/client3/rdock/2013.1/src/exe/rbdock.cxx#4 $)

>  <Rbt.Library>
libRbt.so (2013.1, Build901 2013/11/27)

>  <Rbt.Parameter_File>
/export/apps/rDock/src/rDock_2013.1_src/data/scripts/dock_solv.prm

>  <Rbt.Receptor>
prm/pocket_docking_3.prm

>  <SCORE>
-33.181

>  <SCORE.INTER>
-29.8363

>  <SCORE.INTER.CONST>
1

>  <SCORE.INTER.POLAR>
-5.96997

>  <SCORE.INTER.ROT>
5

>  <SCORE.INTER.SOLV>
15.9808

>  <SCORE.INTER.VDW>
-12.2512

>  <SCORE.INTER.norm>
-2.48636

>  <SCORE.INTRA>
-3.34472

>  <SCORE.INTRA.DIHEDRAL>
4.59763

>  <SCORE.INTRA.DIHEDRAL.0>
6.04201

>  <SCORE.INTRA.POLAR>
-1.35244

>  <SCORE.INTRA.POLAR.0>
0

>  <SCORE.INTRA.REPUL>
0

>  <SCORE.INTRA.REPUL.0>
0

>  <SCORE.INTRA.SOLV>
2.07334

>  <SCORE.INTRA.SOLV.lig_0>
-71.0481

>  <SCORE.INTRA.VDW>
-2.08192

>  <SCORE.INTRA.VDW.0>
0.968882

>  <SCORE.INTRA.norm>
-0.278726

>  <SCORE.RESTR>
0

>  <SCORE.RESTR.CAVITY>
0

>  <SCORE.RESTR.norm>
0

>  <SCORE.SYSTEM>
0

>  <SCORE.SYSTEM.CONST>
0

>  <SCORE.SYSTEM.DIHEDRAL>
0

>  <SCORE.SYSTEM.SOLV>
0

>  <SCORE.SYSTEM.norm>
0

>  <SCORE.heavy>
12

>  <SCORE.norm>
-2.76509

>  <SYMMETRIC_BONDS>
11 12 2
5 6 2

>  <RMSD>
2.084

$$$$
1koc cryst
 OpenBabel11021811393D
libRbt.so/2013.1/901 2013/11/27
 12 11  0  0  0  0  0  0  0  0999 V2000
    4.3722    6.8624   27.7915 N   0  3  0  0  0  0  0  0  0  0  0  0
    4.7265    6.2052   29.0859 C   0  0  2  0  0  0  0  0  0  0  0  0
    5.9957    6.8687   29.6555 C   0  0  0  0  0  0  0  0  0  0  0  0
    6.1996    6.7778   30.8569 O   0  5  0  0  0  0  0  0  0  0  0  0
    4.9572    4.6897   28.8405 C   0  0  0  0  0  0  0  0  0  0  0  0
    4.5928    3.8680   30.0825 C   0  0  0  0  0  0  0  0  0  0  0  0
    3.0857    3.6403   30.1216 C   0  0  0  0  0  0  0  0  0  0  0  0
    2.7964    2.1868   30.2949 N   0  0  0  0  0  0  0  0  0  0  0  0
    1.9313    1.7876   31.1960 C   0  0  0  0  0  0  0  0  0  0  0  0
    0.8582    2.4973   31.4424 N   0  0  0  0  0  0  0  0  0  0  0  0
    2.1374    0.6737   31.8484 N   0  3  0  0  0  0  0  0  0  0  0  0
    6.7350    7.4644   28.8862 O   0  0  0  0  0  0  0  0  0  0  0  0
  2  1  1  6  0  0  0
  2  5  1  0  0  0  0
  2  3  1  0  0  0  0
  3  4  1  0  0  0  0
  3 12  2  0  0  0  0
  5  6  1  0  0  0  0
  6  7  1  0  0  0  0
  7  8  1  0  0  0  0
  8  9  1  0  0  0  0
  9 10  1  0  0  0  0
  9 11  2  0  0  0  0
M  CHG  3   1   1   4  -1  11   1
M  END
>  <CHROM.1>
77.00970357,-149.97622908,157.42547221,81.75984527,128.22528020,132.02160042
4.02327773,4.47290590,29.99776479,0.82319921,-0.57613821,-0.86204425

>  <Name>
1koc cryst

>  <RI>
0

>  <Rbt.Current_Directory>
/home/itssahil/PROJECTS/Mol_Feturizer/New_Systems/rnas/1koc

>  <Rbt.Executable>
rbdock ($Id: //depot/dev/client3/rdock/2013.1/src/exe/rbdock.cxx#4 $)

>  <Rbt.Library>
libRbt.so (2013.1, Build901 2013/11/27)

>  <Rbt.Parameter_File>
/export/apps/rDock/src/rDock_2013.1_src/data/scripts/dock_solv.prm

>  <Rbt.Receptor>
prm/pocket_docking_5.prm

>  <SCORE>
-33.5792

>  <SCORE.INTER>
-34.9407

>  <SCORE.INTER.CONST>
1

>  <SCORE.INTER.POLAR>
-6.77305

>  <SCORE.INTER.ROT>
5

>  <SCORE.INTER.SOLV>
23.536

>  <SCORE.INTER.VDW>
-15.4956

>  <SCORE.INTER.norm>
-2.91173

>  <SCORE.INTRA>
1.36157

>  <SCORE.INTRA.DIHEDRAL>
7.69988

>  <SCORE.INTRA.DIHEDRAL.0>
6.04201

>  <SCORE.INTRA.POLAR>
0

>  <SCORE.INTRA.POLAR.0>
0

>  <SCORE.INTRA.REPUL>
0

>  <SCORE.INTRA.REPUL.0>
0

>  <SCORE.INTRA.SOLV>
-1.11037

>  <SCORE.INTRA.SOLV.lig_0>
-71.0481

>  <SCORE.INTRA.VDW>
-1.93318

>  <SCORE.INTRA.VDW.0>
0.968882

>  <SCORE.INTRA.norm>
0.113464

>  <SCORE.RESTR>
0

>  <SCORE.RESTR.CAVITY>
0

>  <SCORE.RESTR.norm>
0

>  <SCORE.SYSTEM>
0

>  <SCORE.SYSTEM.CONST>
0

>  <SCORE.SYSTEM.DIHEDRAL>
0

>  <SCORE.SYSTEM.SOLV>
0

>  <SCORE.SYSTEM.norm>
0

>  <SCORE.heavy>
12

>  <SCORE.norm>
-2.79826

>  <SYMMETRIC_BONDS>
11 12 2
5 6 2

>  <RMSD>
2.088

$$$$
1koc cryst
 OpenBabel11021811393D
libRbt.so/2013.1/901 2013/11/27
 12 11  0  0  0  0  0  0  0  0999 V2000
    2.2289    8.0749   32.3673 N   0  3  0  0  0  0  0  0  0  0  0  0
    2.5796    6.7007   32.8377 C   0  0  2  0  0  0  0  0  0  0  0  0
    3.7629    6.7929   33.8210 C   0  0  0  0  0  0  0  0  0  0  0  0
    3.5887    7.3909   34.8723 O   0  5  0  0  0  0  0  0  0  0  0  0
    2.9465    5.8216   31.6118 C   0  0  0  0  0  0  0  0  0  0  0  0
    1.6938    5.4302   30.8190 C   0  0  0  0  0  0  0  0  0  0  0  0
    1.9415    4.1161   30.0865 C   0  0  0  0  0  0  0  0  0  0  0  0
    1.7661    2.9705   31.0262 N   0  0  0  0  0  0  0  0  0  0  0  0
    2.6669    2.0193   31.0848 C   0  0  0  0  0  0  0  0  0  0  0  0
    3.9382    2.3032   30.9464 N   0  0  0  0  0  0  0  0  0  0  0  0
    2.2959    0.7823   31.2872 N   0  3  0  0  0  0  0  0  0  0  0  0
    4.8237    6.2760   33.5036 O   0  0  0  0  0  0  0  0  0  0  0  0
  2  1  1  6  0  0  0
  2  5  1  0  0  0  0
  2  3  1  0  0  0  0
  3  4  1  0  0  0  0
  3 12  2  0  0  0  0
  5  6  1  0  0  0  0
  6  7  1  0  0  0  0
  7  8  1  0  0  0  0
  8  9  1  0  0  0  0
  9 10  1  0  0  0  0
  9 11  2  0  0  0  0
M  CHG  3   1   1   4  -1  11   1
M  END
>  <CHROM.1>
-113.98466063,-74.35938008,64.04478772,-153.27164624,80.39929396,-132.03953122
2.86371631,4.90275766,32.03763128,1.37145111,-0.79892296,0.31560148

>  <Name>
1koc cryst

>  <RI>
0

>  <Rbt.Current_Directory>
/home/itssahil/PROJECTS/Mol_Feturizer/New_Systems/rnas/1koc

>  <Rbt.Executable>
rbdock ($Id: //depot/dev/client3/rdock/2013.1/src/exe/rbdock.cxx#4 $)

>  <Rbt.Library>
libRbt.so (2013.1, Build901 2013/11/27)

>  <Rbt.Parameter_File>
/export/apps/rDock/src/rDock_2013.1_src/data/scripts/dock_solv.prm

>  <Rbt.Receptor>
prm/pocket_docking_3.prm

>  <SCORE>
-42.9868

>  <SCORE.INTER>
-45.2399

>  <SCORE.INTER.CONST>
1

>  <SCORE.INTER.POLAR>
-7.59131

>  <SCORE.INTER.ROT>
5

>  <SCORE.INTER.SOLV>
26.2159

>  <SCORE.INTER.VDW>
-20.5276

>  <SCORE.INTER.norm>
-3.76999

>  <SCORE.INTRA>
1.83187

>  <SCORE.INTRA.DIHEDRAL>
5.55972

>  <SCORE.INTRA.DIHEDRAL.0>
6.04201

>  <SCORE.INTRA.POLAR>
0

>  <SCORE.INTRA.POLAR.0>
0

>  <SCORE.INTRA.REPUL>
0

>  <SCORE.INTRA.REPUL.0>
0

>  <SCORE.INTRA.SOLV>
-0.580536

>  <SCORE.INTRA.SOLV.lig_0>
-71.0481

>  <SCORE.INTRA.VDW>
-0.657724

>  <SCORE.INTRA.VDW.0>
0.968882

>  <SCORE.INTRA.norm>
0.152656

>  <SCORE.RESTR>
0.421292

>  <SCORE.RESTR.CAVITY>
0.421292

>  <SCORE.RESTR.norm>
0.0351076

>  <SCORE.SYSTEM>
0

>  <SCORE.SYSTEM.CONST>
0

>  <SCORE.SYSTEM.DIHEDRAL>
0

>  <SCORE.SYSTEM.SOLV>
0

>  <SCORE.SYSTEM.norm>
0

>  <SCORE.heavy>
12

>  <SCORE.norm>
-3.58223

>  <SYMMETRIC_BONDS>
11 12 2
5 6 2

>  <RMSD>
2.101

$$$$
1koc cryst
 OpenBabel11021811393D
libRbt.so/2013.1/901 2013/11/27
 12 11  0  0  0  0  0  0  0  0999 V2000
    6.1262    5.6184   28.0097 N   0  3  0  0  0  0  0  0  0  0  0  0
    5.6763    6.3482   29.2335 C   0  0  2  0  0  0  0  0  0  0  0  0
    6.7107    6.1331   30.3556 C   0  0  0  0  0  0  0  0  0  0  0  0
    7.1258    4.9991   30.5423 O   0  5  0  0  0  0  0  0  0  0  0  0
    4.2808    5.8168   29.6583 C   0  0  0  0  0  0  0  0  0  0  0  0
    4.3307    4.3139   29.9579 C   0  0  0  0  0  0  0  0  0  0  0  0
    2.9787    3.8532   30.4916 C   0  0  0  0  0  0  0  0  0  0  0  0
    2.8061    2.3922   30.2427 N   0  0  0  0  0  0  0  0  0  0  0  0
    2.0327    1.6754   31.0224 C   0  0  0  0  0  0  0  0  0  0  0  0
    0.9301    2.1869   31.5109 N   0  0  0  0  0  0  0  0  0  0  0  0
    2.3603    0.4430   31.3099 N   0  3  0  0  0  0  0  0  0  0  0  0
    7.0616    7.0999   31.0154 O   0  0  0  0  0  0  0  0  0  0  0  0
  2  1  1  6  0  0  0
  2  5  1  0  0  0  0
  2  3  1  0  0  0  0
  3  4  1  0  0  0  0
  3 12  2  0  0  0  0
  5  6  1  0  0  0  0
  6  7  1  0  0  0  0
  7  8  1  0  0  0  0
  8  9  1  0  0  0  0
  9 10  1  0  0  0  0
  9 11  2  0  0  0  0
M  CHG  3   1   1   4  -1  11   1
M  END
>  <CHROM.1>
67.49807492,59.57901877,-45.69740800,174.90795014,156.00503082,153.16904373
4.38240543,4.21444741,30.26803257,0.62514831,-0.53334124,-0.88590104

>  <Name>
1koc cryst

>  <RI>
0

>  <Rbt.Current_Directory>
/home/itssahil/PROJECTS/Mol_Feturizer/New_Systems/rnas/1koc

>  <Rbt.Executable>
rbdock ($Id: //depot/dev/client3/rdock/2013.1/src/exe/rbdock.cxx#4 $)

>  <Rbt.Library>
libRbt.so (2013.1, Build901 2013/11/27)

>  <Rbt.Parameter_File>
/export/apps/rDock/src/rDock_2013.1_src/data/scripts/dock_solv.prm

>  <Rbt.Receptor>
prm/pocket_docking_3.prm

>  <SCORE>
-27.2565

>  <SCORE.INTER>
-26.0453

>  <SCORE.INTER.CONST>
1

>  <SCORE.INTER.POLAR>
-5.14074

>  <SCORE.INTER.ROT>
5

>  <SCORE.INTER.SOLV>
20.1931

>  <SCORE.INTER.VDW>
-13.892

>  <SCORE.INTER.norm>
-2.17044

>  <SCORE.INTRA>
-1.2528

>  <SCORE.INTRA.DIHEDRAL>
-0.44545

>  <SCORE.INTRA.DIHEDRAL.0>
6.04201

>  <SCORE.INTRA.POLAR>
0

>  <SCORE.INTRA.POLAR.0>
0

>  <SCORE.INTRA.REPUL>
0

>  <SCORE.INTRA.REPUL.0>
0

>  <SCORE.INTRA.SOLV>
0.026724

>  <SCORE.INTRA.SOLV.lig_0>
-71.0481

>  <SCORE.INTRA.VDW>
-1.04343

>  <SCORE.INTRA.VDW.0>
0.968882

>  <SCORE.INTRA.norm>
-0.1044

>  <SCORE.RESTR>
0.0415813

>  <SCORE.RESTR.CAVITY>
0.0415813

>  <SCORE.RESTR.norm>
0.00346511

>  <SCORE.SYSTEM>
0

>  <SCORE.SYSTEM.CONST>
0

>  <SCORE.SYSTEM.DIHEDRAL>
0

>  <SCORE.SYSTEM.SOLV>
0

>  <SCORE.SYSTEM.norm>
0

>  <SCORE.heavy>
12

>  <SCORE.norm>
-2.27137

>  <SYMMETRIC_BONDS>
11 12 2
5 6 2

>  <RMSD>
2.110

$$$$
1koc cryst
 OpenBabel11021811393D
libRbt.so/2013.1/901 2013/11/27
 12 11  0  0  0  0  0  0  0  0999 V2000
    4.0451    6.3395   28.5275 N   0  3  0  0  0  0  0  0  0  0  0  0
    4.0504    6.5807   30.0022 C   0  0  2  0  0  0  0  0  0  0  0  0
    5.5006    6.8172   30.4674 C   0  0  0  0  0  0  0  0  0  0  0  0
    6.3669    6.0653   30.0466 O   0  5  0  0  0  0  0  0  0  0  0  0
    3.4325    5.3511   30.7208 C   0  0  0  0  0  0  0  0  0  0  0  0
    1.9130    5.3023   30.5225 C   0  0  0  0  0  0  0  0  0  0  0  0
    1.5000    3.9047   30.0739 C   0  0  0  0  0  0  0  0  0  0  0  0
    1.6043    2.9530   31.2184 N   0  0  0  0  0  0  0  0  0  0  0  0
    2.3959    1.9103   31.1413 C   0  0  0  0  0  0  0  0  0  0  0  0
    3.5434    1.9962   30.5153 N   0  0  0  0  0  0  0  0  0  0  0  0
    2.0414    0.7809   31.6958 N   0  3  0  0  0  0  0  0  0  0  0  0
    5.7193    7.7358   31.2430 O   0  0  0  0  0  0  0  0  0  0  0  0
  2  1  1  6  0  0  0
  2  5  1  0  0  0  0
  2  3  1  0  0  0  0
  3  4  1  0  0  0  0
  3 12  2  0  0  0  0
  5  6  1  0  0  0  0
  6  7  1  0  0  0  0
  7  8  1  0  0  0  0
  8  9  1  0  0  0  0
  9 10  1  0  0  0  0
  9 11  2  0  0  0  0
M  CHG  3   1   1   4  -1  11   1
M  END
>  <CHROM.1>
-48.71253793,-73.24345922,-45.09369939,131.01867919,72.77004244,-120.41036700
3.53583879,4.63154206,30.49577909,0.99862445,-0.16277813,-0.29369108

>  <Name>
1koc cryst

>  <RI>
0

>  <Rbt.Current_Directory>
/home/itssahil/PROJECTS/Mol_Feturizer/New_Systems/rnas/1koc

>  <Rbt.Executable>
rbdock ($Id: //depot/dev/client3/rdock/2013.1/src/exe/rbdock.cxx#4 $)

>  <Rbt.Library>
libRbt.so (2013.1, Build901 2013/11/27)

>  <Rbt.Parameter_File>
/export/apps/rDock/src/rDock_2013.1_src/data/scripts/dock_solv.prm

>  <Rbt.Receptor>
prm/pocket_docking_7.prm

>  <SCORE>
-34.3922

>  <SCORE.INTER>
-34.5153

>  <SCORE.INTER.CONST>
1

>  <SCORE.INTER.POLAR>
-6.62043

>  <SCORE.INTER.ROT>
5

>  <SCORE.INTER.SOLV>
20.3251

>  <SCORE.INTER.VDW>
-14.6504

>  <SCORE.INTER.norm>
-2.87627

>  <SCORE.INTRA>
0.123074

>  <SCORE.INTRA.DIHEDRAL>
4.51056

>  <SCORE.INTRA.DIHEDRAL.0>
6.04201

>  <SCORE.INTRA.POLAR>
0

>  <SCORE.INTRA.POLAR.0>
0

>  <SCORE.INTRA.REPUL>
0

>  <SCORE.INTRA.REPUL.0>
0

>  <SCORE.INTRA.SOLV>
0.445065

>  <SCORE.INTRA.SOLV.lig_0>
-71.0481

>  <SCORE.INTRA.VDW>
-2.35474

>  <SCORE.INTRA.VDW.0>
0.968882

>  <SCORE.INTRA.norm>
0.0102562

>  <SCORE.RESTR>
0

>  <SCORE.RESTR.CAVITY>
0

>  <SCORE.RESTR.norm>
0

>  <SCORE.SYSTEM>
0

>  <SCORE.SYSTEM.CONST>
0

>  <SCORE.SYSTEM.DIHEDRAL>
0

>  <SCORE.SYSTEM.SOLV>
0

>  <SCORE.SYSTEM.norm>
0

>  <SCORE.heavy>
12

>  <SCORE.norm>
-2.86602

>  <SYMMETRIC_BONDS>
11 12 2
5 6 2

>  <RMSD>
2.111

$$$$
1koc cryst
 OpenBabel11021811393D
libRbt.so/2013.1/901 2013/11/27
 12 11  0  0  0  0  0  0  0  0999 V2000
    1.7992    7.5885   32.2200 N   0  3  0  0  0  0  0  0  0  0  0  0
    3.0876    7.1495   32.8367 C   0  0  2  0  0  0  0  0  0  0  0  0
    3.9184    8.3945   33.2046 C   0  0  0  0  0  0  0  0  0  0  0  0
    3.9537    8.7333   34.3780 O   0  5  0  0  0  0  0  0  0  0  0  0
    3.8538    6.2513   31.8287 C   0  0  0  0  0  0  0  0  0  0  0  0
    3.3082    4.8184   31.8412 C   0  0  0  0  0  0  0  0  0  0  0  0
    2.7628    4.4664   30.4616 C   0  0  0  0  0  0  0  0  0  0  0  0
    2.9857    3.0177   30.1823 N   0  0  0  0  0  0  0  0  0  0  0  0
    2.4613    2.1051   30.9646 C   0  0  0  0  0  0  0  0  0  0  0  0
    1.2773    2.2892   31.4939 N   0  0  0  0  0  0  0  0  0  0  0  0
    3.1202    1.0040   31.2138 N   0  3  0  0  0  0  0  0  0  0  0  0
    4.4948    8.9937   32.3090 O   0  0  0  0  0  0  0  0  0  0  0  0
  2  1  1  6  0  0  0
  2  5  1  0  0  0  0
  2  3  1  0  0  0  0
  3  4  1  0  0  0  0
  3 12  2  0  0  0  0
  5  6  1  0  0  0  0
  6  7  1  0  0  0  0
  7  8  1  0  0  0  0
  8  9  1  0  0  0  0
  9 10  1  0  0  0  0
  9 11  2  0  0  0  0
M  CHG  3   1   1   4  -1  11   1
M  END
>  <CHROM.1>
53.77064655,-80.41604524,102.93565415,118.82620426,146.47443270,59.88310687
3.06145533,5.40695691,31.91358752,1.38810974,0.23174274,0.36814186

>  <Name>
1koc cryst

>  <RI>
0

>  <Rbt.Current_Directory>
/home/itssahil/PROJECTS/Mol_Feturizer/New_Systems/rnas/1koc

>  <Rbt.Executable>
rbdock ($Id: //depot/dev/client3/rdock/2013.1/src/exe/rbdock.cxx#4 $)

>  <Rbt.Library>
libRbt.so (2013.1, Build901 2013/11/27)

>  <Rbt.Parameter_File>
/export/apps/rDock/src/rDock_2013.1_src/data/scripts/dock_solv.prm

>  <Rbt.Receptor>
prm/pocket_docking_5.prm

>  <SCORE>
-32.42

>  <SCORE.INTER>
-34.4274

>  <SCORE.INTER.CONST>
1

>  <SCORE.INTER.POLAR>
-6.38792

>  <SCORE.INTER.ROT>
5

>  <SCORE.INTER.SOLV>
27.5087

>  <SCORE.INTER.VDW>
-17.7615

>  <SCORE.INTER.norm>
-2.86895

>  <SCORE.INTRA>
2.00743

>  <SCORE.INTRA.DIHEDRAL>
8.19965

>  <SCORE.INTRA.DIHEDRAL.0>
6.04201

>  <SCORE.INTRA.POLAR>
0

>  <SCORE.INTRA.POLAR.0>
0

>  <SCORE.INTRA.REPUL>
0

>  <SCORE.INTRA.REPUL.0>
0

>  <SCORE.INTRA.SOLV>
-0.581368

>  <SCORE.INTRA.SOLV.lig_0>
-71.0481

>  <SCORE.INTRA.VDW>
-1.80172

>  <SCORE.INTRA.VDW.0>
0.968882

>  <SCORE.INTRA.norm>
0.167286

>  <SCORE.RESTR>
0

>  <SCORE.RESTR.CAVITY>
0

>  <SCORE.RESTR.norm>
0

>  <SCORE.SYSTEM>
0

>  <SCORE.SYSTEM.CONST>
0

>  <SCORE.SYSTEM.DIHEDRAL>
0

>  <SCORE.SYSTEM.SOLV>
0

>  <SCORE.SYSTEM.norm>
0

>  <SCORE.heavy>
12

>  <SCORE.norm>
-2.70167

>  <SYMMETRIC_BONDS>
11 12 2
5 6 2

>  <RMSD>
2.119

$$$$
1koc cryst
 OpenBabel11021811393D
libRbt.so/2013.1/901 2013/11/27
 12 11  0  0  0  0  0  0  0  0999 V2000
    4.3714    7.1427   27.5124 N   0  3  0  0  0  0  0  0  0  0  0  0
    4.0976    6.6531   28.8974 C   0  0  2  0  0  0  0  0  0  0  0  0
    5.4373    6.3590   29.6004 C   0  0  0  0  0  0  0  0  0  0  0  0
    6.3194    5.8194   28.9495 O   0  5  0  0  0  0  0  0  0  0  0  0
    3.2209    5.3742   28.8206 C   0  0  0  0  0  0  0  0  0  0  0  0
    2.5872    5.0574   30.1804 C   0  0  0  0  0  0  0  0  0  0  0  0
    3.4273    4.0116   30.9053 C   0  0  0  0  0  0  0  0  0  0  0  0
    3.1135    2.6525   30.3755 N   0  0  0  0  0  0  0  0  0  0  0  0
    2.2381    1.8906   30.9861 C   0  0  0  0  0  0  0  0  0  0  0  0
    1.1756    2.4185   31.5416 N   0  0  0  0  0  0  0  0  0  0  0  0
    2.4230    0.5975   31.0369 N   0  3  0  0  0  0  0  0  0  0  0  0
    5.5556    6.6665   30.7772 O   0  0  0  0  0  0  0  0  0  0  0  0
  2  1  1  6  0  0  0
  2  5  1  0  0  0  0
  2  3  1  0  0  0  0
  3  4  1  0  0  0  0
  3 12  2  0  0  0  0
  5  6  1  0  0  0  0
  6  7  1  0  0  0  0
  7  8  1  0  0  0  0
  8  9  1  0  0  0  0
  9 10  1  0  0  0  0
  9 11  2  0  0  0  0
M  CHG  3   1   1   4  -1  11   1
M  END
>  <CHROM.1>
-176.03378057,-164.03862651,-40.58326682,-97.16311002,-79.99334277,-95.69354768
3.67491612,4.55031364,29.94464740,1.03331321,-0.31744227,-0.61137137

>  <Name>
1koc cryst

>  <RI>
0

>  <Rbt.Current_Directory>
/home/itssahil/PROJECTS/Mol_Feturizer/New_Systems/rnas/1koc

>  <Rbt.Executable>
rbdock ($Id: //depot/dev/client3/rdock/2013.1/src/exe/rbdock.cxx#4 $)

>  <Rbt.Library>
libRbt.so (2013.1, Build901 2013/11/27)

>  <Rbt.Parameter_File>
/export/apps/rDock/src/rDock_2013.1_src/data/scripts/dock_solv.prm

>  <Rbt.Receptor>
prm/pocket_docking_6.prm

>  <SCORE>
-38.0348

>  <SCORE.INTER>
-37.7396

>  <SCORE.INTER.CONST>
1

>  <SCORE.INTER.POLAR>
-6.67579

>  <SCORE.INTER.ROT>
5

>  <SCORE.INTER.SOLV>
24.437

>  <SCORE.INTER.VDW>
-17.9861

>  <SCORE.INTER.norm>
-3.14497

>  <SCORE.INTRA>
-0.295152

>  <SCORE.INTRA.DIHEDRAL>
3.8453

>  <SCORE.INTRA.DIHEDRAL.0>
6.04201

>  <SCORE.INTRA.POLAR>
0

>  <SCORE.INTRA.POLAR.0>
0

>  <SCORE.INTRA.REPUL>
0

>  <SCORE.INTRA.REPUL.0>
0

>  <SCORE.INTRA.SOLV>
0.228116

>  <SCORE.INTRA.SOLV.lig_0>
-71.0481

>  <SCORE.INTRA.VDW>
-2.33186

>  <SCORE.INTRA.VDW.0>
0.968882

>  <SCORE.INTRA.norm>
-0.024596

>  <SCORE.RESTR>
0

>  <SCORE.RESTR.CAVITY>
0

>  <SCORE.RESTR.norm>
0

>  <SCORE.SYSTEM>
0

>  <SCORE.SYSTEM.CONST>
0

>  <SCORE.SYSTEM.DIHEDRAL>
0

>  <SCORE.SYSTEM.SOLV>
0

>  <SCORE.SYSTEM.norm>
0

>  <SCORE.heavy>
12

>  <SCORE.norm>
-3.16957

>  <SYMMETRIC_BONDS>
11 12 2
5 6 2

>  <RMSD>
2.122

$$$$
1koc cryst
 OpenBabel11021811393D
libRbt.so/2013.1/901 2013/11/27
 12 11  0  0  0  0  0  0  0  0999 V2000
    4.0065    6.5877   27.3414 N   0  3  0  0  0  0  0  0  0  0  0  0
    3.8858    6.2721   28.7970 C   0  0  2  0  0  0  0  0  0  0  0  0
    4.7778    7.2415   29.5970 C   0  0  0  0  0  0  0  0  0  0  0  0
    4.3140    7.7425   30.6104 O   0  5  0  0  0  0  0  0  0  0  0  0
    4.3163    4.7997   29.0355 C   0  0  0  0  0  0  0  0  0  0  0  0
    3.2195    4.0156   29.7656 C   0  0  0  0  0  0  0  0  0  0  0  0
    3.8538    3.0824   30.7911 C   0  0  0  0  0  0  0  0  0  0  0  0
    3.2305    1.7298   30.7002 N   0  0  0  0  0  0  0  0  0  0  0  0
    2.1603    1.4463   31.4030 C   0  0  0  0  0  0  0  0  0  0  0  0
    1.2414    2.3577   31.6052 N   0  0  0  0  0  0  0  0  0  0  0  0
    2.0065    0.2472   31.9005 N   0  3  0  0  0  0  0  0  0  0  0  0
    5.9020    7.4754   29.1792 O   0  0  0  0  0  0  0  0  0  0  0  0
  2  1  1  6  0  0  0
  2  5  1  0  0  0  0
  2  3  1  0  0  0  0
  3  4  1  0  0  0  0
  3 12  2  0  0  0  0
  5  6  1  0  0  0  0
  6  7  1  0  0  0  0
  7  8  1  0  0  0  0
  8  9  1  0  0  0  0
  9 10  1  0  0  0  0
  9 11  2  0  0  0  0
M  CHG  3   1   1   4  -1  11   1
M  END
>  <CHROM.1>
-155.60812399,-125.49167722,135.84404292,-140.52334974,-134.35196983,-88.71758150
3.57030215,4.42652265,30.04352556,-0.04329357,-1.18593411,-2.01856520

>  <Name>
1koc cryst

>  <RI>
0

>  <Rbt.Current_Directory>
/home/itssahil/PROJECTS/Mol_Feturizer/New_Systems/rnas/1koc

>  <Rbt.Executable>
rbdock ($Id: //depot/dev/client3/rdock/2013.1/src/exe/rbdock.cxx#4 $)

>  <Rbt.Library>
libRbt.so (2013.1, Build901 2013/11/27)

>  <Rbt.Parameter_File>
/export/apps/rDock/src/rDock_2013.1_src/data/scripts/dock_solv.prm

>  <Rbt.Receptor>
prm/pocket_docking_8.prm

>  <SCORE>
-29.2362

>  <SCORE.INTER>
-33.5925

>  <SCORE.INTER.CONST>
1

>  <SCORE.INTER.POLAR>
-6.52405

>  <SCORE.INTER.ROT>
5

>  <SCORE.INTER.SOLV>
29.4926

>  <SCORE.INTER.VDW>
-17.4123

>  <SCORE.INTER.norm>
-2.79937

>  <SCORE.INTRA>
4.35623

>  <SCORE.INTRA.DIHEDRAL>
13.014

>  <SCORE.INTRA.DIHEDRAL.0>
6.04201

>  <SCORE.INTRA.POLAR>
0

>  <SCORE.INTRA.POLAR.0>
0

>  <SCORE.INTRA.REPUL>
0

>  <SCORE.INTRA.REPUL.0>
0

>  <SCORE.INTRA.SOLV>
-1.13724

>  <SCORE.INTRA.SOLV.lig_0>
-71.0481

>  <SCORE.INTRA.VDW>
-1.58214

>  <SCORE.INTRA.VDW.0>
0.968882

>  <SCORE.INTRA.norm>
0.363019

>  <SCORE.RESTR>
0

>  <SCORE.RESTR.CAVITY>
0

>  <SCORE.RESTR.norm>
0

>  <SCORE.SYSTEM>
0

>  <SCORE.SYSTEM.CONST>
0

>  <SCORE.SYSTEM.DIHEDRAL>
0

>  <SCORE.SYSTEM.SOLV>
0

>  <SCORE.SYSTEM.norm>
0

>  <SCORE.heavy>
12

>  <SCORE.norm>
-2.43635

>  <SYMMETRIC_BONDS>
11 12 2
5 6 2

>  <RMSD>
2.125

$$$$
1koc cryst
 OpenBabel11021811393D
libRbt.so/2013.1/901 2013/11/27
 12 11  0  0  0  0  0  0  0  0999 V2000
    2.1761    8.5783   32.4511 N   0  3  0  0  0  0  0  0  0  0  0  0
    2.9928    7.3392   32.2769 C   0  0  2  0  0  0  0  0  0  0  0  0
    4.2692    7.6858   31.4856 C   0  0  0  0  0  0  0  0  0  0  0  0
    5.2640    7.0019   31.6751 O   0  5  0  0  0  0  0  0  0  0  0  0
    2.1483    6.2749   31.5256 C   0  0  0  0  0  0  0  0  0  0  0  0
    3.0469    5.2167   30.8748 C   0  0  0  0  0  0  0  0  0  0  0  0
    2.1837    4.1708   30.1777 C   0  0  0  0  0  0  0  0  0  0  0  0
    1.9599    3.0094   31.0873 N   0  0  0  0  0  0  0  0  0  0  0  0
    2.7941    1.9976   31.0853 C   0  0  0  0  0  0  0  0  0  0  0  0
    4.0768    2.1986   30.9116 N   0  0  0  0  0  0  0  0  0  0  0  0
    2.3450    0.7828   31.2624 N   0  3  0  0  0  0  0  0  0  0  0  0
    4.2354    8.6330   30.7143 O   0  0  0  0  0  0  0  0  0  0  0  0
  2  1  1  6  0  0  0
  2  5  1  0  0  0  0
  2  3  1  0  0  0  0
  3  4  1  0  0  0  0
  3 12  2  0  0  0  0
  5  6  1  0  0  0  0
  6  7  1  0  0  0  0
  7  8  1  0  0  0  0
  8  9  1  0  0  0  0
  9 10  1  0  0  0  0
  9 11  2  0  0  0  0
M  CHG  3   1   1   4  -1  11   1
M  END
>  <CHROM.1>
-66.85244555,159.23555141,152.12619766,178.57426013,-94.94860491,-89.88057841
3.12755710,5.25537008,31.30439717,1.42881256,0.17276769,0.13137032

>  <Name>
1koc cryst

>  <RI>
0

>  <Rbt.Current_Directory>
/home/itssahil/PROJECTS/Mol_Feturizer/New_Systems/rnas/1koc

>  <Rbt.Executable>
rbdock ($Id: //depot/dev/client3/rdock/2013.1/src/exe/rbdock.cxx#4 $)

>  <Rbt.Library>
libRbt.so (2013.1, Build901 2013/11/27)

>  <Rbt.Parameter_File>
/export/apps/rDock/src/rDock_2013.1_src/data/scripts/dock_solv.prm

>  <Rbt.Receptor>
prm/pocket_docking_8.prm

>  <SCORE>
-43.4194

>  <SCORE.INTER>
-43.9433

>  <SCORE.INTER.CONST>
1

>  <SCORE.INTER.POLAR>
-7.53761

>  <SCORE.INTER.ROT>
5

>  <SCORE.INTER.SOLV>
23.9537

>  <SCORE.INTER.VDW>
-19.0881

>  <SCORE.INTER.norm>
-3.66194

>  <SCORE.INTRA>
0.523935

>  <SCORE.INTRA.DIHEDRAL>
2.37898

>  <SCORE.INTRA.DIHEDRAL.0>
6.04201

>  <SCORE.INTRA.POLAR>
0

>  <SCORE.INTRA.POLAR.0>
0

>  <SCORE.INTRA.REPUL>
0

>  <SCORE.INTRA.REPUL.0>
0

>  <SCORE.INTRA.SOLV>
-0.137202

>  <SCORE.INTRA.SOLV.lig_0>
-71.0481

>  <SCORE.INTRA.VDW>
-0.596953

>  <SCORE.INTRA.VDW.0>
0.968882

>  <SCORE.INTRA.norm>
0.0436613

>  <SCORE.RESTR>
0

>  <SCORE.RESTR.CAVITY>
0

>  <SCORE.RESTR.norm>
0

>  <SCORE.SYSTEM>
0

>  <SCORE.SYSTEM.CONST>
0

>  <SCORE.SYSTEM.DIHEDRAL>
0

>  <SCORE.SYSTEM.SOLV>
0

>  <SCORE.SYSTEM.norm>
0

>  <SCORE.heavy>
12

>  <SCORE.norm>
-3.61828

>  <SYMMETRIC_BONDS>
11 12 2
5 6 2

>  <RMSD>
2.129

$$$$
1koc cryst
 OpenBabel11021811393D
libRbt.so/2013.1/901 2013/11/27
 12 11  0  0  0  0  0  0  0  0999 V2000
    2.2188    8.1532   32.4309 N   0  3  0  0  0  0  0  0  0  0  0  0
    2.9056    6.8969   32.8584 C   0  0  2  0  0  0  0  0  0  0  0  0
    4.2202    7.2619   33.5755 C   0  0  0  0  0  0  0  0  0  0  0  0
    4.8177    6.3729   34.1636 O   0  5  0  0  0  0  0  0  0  0  0  0
    3.1828    6.0183   31.6088 C   0  0  0  0  0  0  0  0  0  0  0  0
    1.8764    5.4867   31.0075 C   0  0  0  0  0  0  0  0  0  0  0  0
    2.1536    4.2001   30.2375 C   0  0  0  0  0  0  0  0  0  0  0  0
    1.9758    3.0225   31.1363 N   0  0  0  0  0  0  0  0  0  0  0  0
    2.8337    2.0312   31.1049 C   0  0  0  0  0  0  0  0  0  0  0  0
    4.1076    2.2652   30.9088 N   0  0  0  0  0  0  0  0  0  0  0  0
    2.4174    0.8038   31.2751 N   0  3  0  0  0  0  0  0  0  0  0  0
    4.6013    8.4222   33.5349 O   0  0  0  0  0  0  0  0  0  0  0  0
  2  1  1  6  0  0  0
  2  5  1  0  0  0  0
  2  3  1  0  0  0  0
  3  4  1  0  0  0  0
  3 12  2  0  0  0  0
  5  6  1  0  0  0  0
  6  7  1  0  0  0  0
  7  8  1  0  0  0  0
  8  9  1  0  0  0  0
  9 10  1  0  0  0  0
  9 11  2  0  0  0  0
M  CHG  3   1   1   4  -1  11   1
M  END
>  <CHROM.1>
-125.40809642,-68.00912673,169.56708558,-154.86209950,91.60910474,-137.35787560
3.11542138,5.09029042,31.99986413,1.35000085,-0.64993303,0.24641617

>  <Name>
1koc cryst

>  <RI>
0

>  <Rbt.Current_Directory>
/home/itssahil/PROJECTS/Mol_Feturizer/New_Systems/rnas/1koc

>  <Rbt.Executable>
rbdock ($Id: //depot/dev/client3/rdock/2013.1/src/exe/rbdock.cxx#4 $)

>  <Rbt.Library>
libRbt.so (2013.1, Build901 2013/11/27)

>  <Rbt.Parameter_File>
/export/apps/rDock/src/rDock_2013.1_src/data/scripts/dock_solv.prm

>  <Rbt.Receptor>
prm/pocket_docking_5.prm

>  <SCORE>
-42.2223

>  <SCORE.INTER>
-43.9742

>  <SCORE.INTER.CONST>
1

>  <SCORE.INTER.POLAR>
-7.46372

>  <SCORE.INTER.ROT>
5

>  <SCORE.INTER.SOLV>
23.3022

>  <SCORE.INTER.VDW>
-19.1378

>  <SCORE.INTER.norm>
-3.66452

>  <SCORE.INTRA>
1.75191

>  <SCORE.INTRA.DIHEDRAL>
6.4262

>  <SCORE.INTRA.DIHEDRAL.0>
6.04201

>  <SCORE.INTRA.POLAR>
0

>  <SCORE.INTRA.POLAR.0>
0

>  <SCORE.INTRA.REPUL>
0

>  <SCORE.INTRA.REPUL.0>
0

>  <SCORE.INTRA.SOLV>
-0.455916

>  <SCORE.INTRA.SOLV.lig_0>
-71.0481

>  <SCORE.INTRA.VDW>
-1.23323

>  <SCORE.INTRA.VDW.0>
0.968882

>  <SCORE.INTRA.norm>
0.145993

>  <SCORE.RESTR>
0

>  <SCORE.RESTR.CAVITY>
0

>  <SCORE.RESTR.norm>
0

>  <SCORE.SYSTEM>
0

>  <SCORE.SYSTEM.CONST>
0

>  <SCORE.SYSTEM.DIHEDRAL>
0

>  <SCORE.SYSTEM.SOLV>
0

>  <SCORE.SYSTEM.norm>
0

>  <SCORE.heavy>
12

>  <SCORE.norm>
-3.51852

>  <SYMMETRIC_BONDS>
11 12 2
5 6 2

>  <RMSD>
2.132

$$$$
1koc cryst
 OpenBabel11021811393D
libRbt.so/2013.1/901 2013/11/27
 12 11  0  0  0  0  0  0  0  0999 V2000
    3.1224    8.9227   31.9981 N   0  3  0  0  0  0  0  0  0  0  0  0
    3.8850    7.6741   31.6940 C   0  0  2  0  0  0  0  0  0  0  0  0
    4.8540    7.9488   30.5273 C   0  0  0  0  0  0  0  0  0  0  0  0
    4.4385    8.5963   29.5780 O   0  5  0  0  0  0  0  0  0  0  0  0
    2.8853    6.5440   31.3283 C   0  0  0  0  0  0  0  0  0  0  0  0
    3.6074    5.3576   30.6788 C   0  0  0  0  0  0  0  0  0  0  0  0
    2.6049    4.5113   29.9019 C   0  0  0  0  0  0  0  0  0  0  0  0
    1.7521    3.7368   30.8501 N   0  0  0  0  0  0  0  0  0  0  0  0
    1.8334    2.4288   30.8954 C   0  0  0  0  0  0  0  0  0  0  0  0
    2.9878    1.8320   30.7308 N   0  0  0  0  0  0  0  0  0  0  0  0
    0.7587    1.7164   31.1108 N   0  3  0  0  0  0  0  0  0  0  0  0
    5.9882    7.4994   30.5961 O   0  0  0  0  0  0  0  0  0  0  0  0
  2  1  1  6  0  0  0
  2  5  1  0  0  0  0
  2  3  1  0  0  0  0
  3  4  1  0  0  0  0
  3 12  2  0  0  0  0
  5  6  1  0  0  0  0
  6  7  1  0  0  0  0
  7  8  1  0  0  0  0
  8  9  1  0  0  0  0
  9 10  1  0  0  0  0
  9 11  2  0  0  0  0
M  CHG  3   1   1   4  -1  11   1
M  END
>  <CHROM.1>
-60.90502836,165.96537433,-42.97600181,-160.14325483,-73.54410509,-113.49943747
3.21760402,5.57912990,30.83243317,1.10648879,0.43812575,0.20990223

>  <Name>
1koc cryst

>  <RI>
0

>  <Rbt.Current_Directory>
/home/itssahil/PROJECTS/Mol_Feturizer/New_Systems/rnas/1koc

>  <Rbt.Executable>
rbdock ($Id: //depot/dev/client3/rdock/2013.1/src/exe/rbdock.cxx#4 $)

>  <Rbt.Library>
libRbt.so (2013.1, Build901 2013/11/27)

>  <Rbt.Parameter_File>
/export/apps/rDock/src/rDock_2013.1_src/data/scripts/dock_solv.prm

>  <Rbt.Receptor>
prm/pocket_docking_2.prm

>  <SCORE>
-22.7235

>  <SCORE.INTER>
-22.1162

>  <SCORE.INTER.CONST>
1

>  <SCORE.INTER.POLAR>
-3.89395

>  <SCORE.INTER.ROT>
5

>  <SCORE.INTER.SOLV>
20.4531

>  <SCORE.INTER.VDW>
-15.5153

>  <SCORE.INTER.norm>
-1.84301

>  <SCORE.INTRA>
-1.73689

>  <SCORE.INTRA.DIHEDRAL>
0.235165

>  <SCORE.INTRA.DIHEDRAL.0>
6.04201

>  <SCORE.INTRA.POLAR>
0

>  <SCORE.INTRA.POLAR.0>
0

>  <SCORE.INTRA.REPUL>
0

>  <SCORE.INTRA.REPUL.0>
0

>  <SCORE.INTRA.SOLV>
-0.417932

>  <SCORE.INTRA.SOLV.lig_0>
-71.0481

>  <SCORE.INTRA.VDW>
-1.64551

>  <SCORE.INTRA.VDW.0>
0.968882

>  <SCORE.INTRA.norm>
-0.144741

>  <SCORE.RESTR>
1.12955

>  <SCORE.RESTR.CAVITY>
1.12955

>  <SCORE.RESTR.norm>
0.0941291

>  <SCORE.SYSTEM>
0

>  <SCORE.SYSTEM.CONST>
0

>  <SCORE.SYSTEM.DIHEDRAL>
0

>  <SCORE.SYSTEM.SOLV>
0

>  <SCORE.SYSTEM.norm>
0

>  <SCORE.heavy>
12

>  <SCORE.norm>
-1.89362

>  <SYMMETRIC_BONDS>
11 12 2
5 6 2

>  <RMSD>
2.135

$$$$
1koc cryst
 OpenBabel11021811393D
libRbt.so/2013.1/901 2013/11/27
 12 11  0  0  0  0  0  0  0  0999 V2000
    4.4471    7.6871   30.6297 N   0  3  0  0  0  0  0  0  0  0  0  0
    4.5649    6.2029   30.5025 C   0  0  2  0  0  0  0  0  0  0  0  0
    4.4828    5.8182   29.0123 C   0  0  0  0  0  0  0  0  0  0  0  0
    3.5636    6.2785   28.3517 O   0  5  0  0  0  0  0  0  0  0  0  0
    3.4225    5.5310   31.3109 C   0  0  0  0  0  0  0  0  0  0  0  0
    3.6564    4.0217   31.4462 C   0  0  0  0  0  0  0  0  0  0  0  0
    3.2681    3.3251   30.1467 C   0  0  0  0  0  0  0  0  0  0  0  0
    2.9499    1.8921   30.4146 N   0  0  0  0  0  0  0  0  0  0  0  0
    2.0179    1.5723   31.2799 C   0  0  0  0  0  0  0  0  0  0  0  0
    0.9384    2.3061   31.3905 N   0  0  0  0  0  0  0  0  0  0  0  0
    2.1636    0.5135   32.0326 N   0  3  0  0  0  0  0  0  0  0  0  0
    5.3306    5.0634   28.5596 O   0  0  0  0  0  0  0  0  0  0  0  0
  2  1  1  6  0  0  0
  2  5  1  0  0  0  0
  2  3  1  0  0  0  0
  3  4  1  0  0  0  0
  3 12  2  0  0  0  0
  5  6  1  0  0  0  0
  6  7  1  0  0  0  0
  7  8  1  0  0  0  0
  8  9  1  0  0  0  0
  9 10  1  0  0  0  0
  9 11  2  0  0  0  0
M  CHG  3   1   1   4  -1  11   1
M  END
>  <CHROM.1>
-57.99016754,-168.66483561,-49.69142774,-78.22173377,-156.84723813,57.07129360
3.39229976,4.20160262,30.41913348,0.65115394,1.02602427,0.49279591

>  <Name>
1koc cryst

>  <RI>
0

>  <Rbt.Current_Directory>
/home/itssahil/PROJECTS/Mol_Feturizer/New_Systems/rnas/1koc

>  <Rbt.Executable>
rbdock ($Id: //depot/dev/client3/rdock/2013.1/src/exe/rbdock.cxx#4 $)

>  <Rbt.Library>
libRbt.so (2013.1, Build901 2013/11/27)

>  <Rbt.Parameter_File>
/export/apps/rDock/src/rDock_2013.1_src/data/scripts/dock_solv.prm

>  <Rbt.Receptor>
prm/pocket_docking_6.prm

>  <SCORE>
-29.602

>  <SCORE.INTER>
-28.8037

>  <SCORE.INTER.CONST>
1

>  <SCORE.INTER.POLAR>
-5.58461

>  <SCORE.INTER.ROT>
5

>  <SCORE.INTER.SOLV>
25.1929

>  <SCORE.INTER.VDW>
-15.9181

>  <SCORE.INTER.norm>
-2.40031

>  <SCORE.INTRA>
-0.798265

>  <SCORE.INTRA.DIHEDRAL>
0.928286

>  <SCORE.INTRA.DIHEDRAL.0>
6.04201

>  <SCORE.INTRA.POLAR>
0

>  <SCORE.INTRA.POLAR.0>
0

>  <SCORE.INTRA.REPUL>
0

>  <SCORE.INTRA.REPUL.0>
0

>  <SCORE.INTRA.SOLV>
0.455183

>  <SCORE.INTRA.SOLV.lig_0>
-71.0481

>  <SCORE.INTRA.VDW>
-1.49

>  <SCORE.INTRA.VDW.0>
0.968882

>  <SCORE.INTRA.norm>
-0.0665221

>  <SCORE.RESTR>
0

>  <SCORE.RESTR.CAVITY>
0

>  <SCORE.RESTR.norm>
0

>  <SCORE.SYSTEM>
0

>  <SCORE.SYSTEM.CONST>
0

>  <SCORE.SYSTEM.DIHEDRAL>
0

>  <SCORE.SYSTEM.SOLV>
0

>  <SCORE.SYSTEM.norm>
0

>  <SCORE.heavy>
12

>  <SCORE.norm>
-2.46683

>  <SYMMETRIC_BONDS>
11 12 2
5 6 2

>  <RMSD>
2.137

$$$$
1koc cryst
 OpenBabel11021811393D
libRbt.so/2013.1/901 2013/11/27
 12 11  0  0  0  0  0  0  0  0999 V2000
    2.2434    8.1317   32.3873 N   0  3  0  0  0  0  0  0  0  0  0  0
    2.7040    6.8021   32.8904 C   0  0  2  0  0  0  0  0  0  0  0  0
    3.9233    7.0079   33.8103 C   0  0  0  0  0  0  0  0  0  0  0  0
    4.2728    6.0733   34.5158 O   0  5  0  0  0  0  0  0  0  0  0  0
    3.0694    5.8996   31.6812 C   0  0  0  0  0  0  0  0  0  0  0  0
    1.8147    5.4830   30.9047 C   0  0  0  0  0  0  0  0  0  0  0  0
    2.0825    4.1793   30.1608 C   0  0  0  0  0  0  0  0  0  0  0  0
    1.8746    3.0202   31.0771 N   0  0  0  0  0  0  0  0  0  0  0  0
    2.7442    2.0393   31.1105 C   0  0  0  0  0  0  0  0  0  0  0  0
    4.0234    2.2847   30.9709 N   0  0  0  0  0  0  0  0  0  0  0  0
    2.3342    0.8109   31.2889 N   0  3  0  0  0  0  0  0  0  0  0  0
    4.4793    8.0960   33.8033 O   0  0  0  0  0  0  0  0  0  0  0  0
  2  1  1  6  0  0  0
  2  5  1  0  0  0  0
  2  3  1  0  0  0  0
  3  4  1  0  0  0  0
  3 12  2  0  0  0  0
  5  6  1  0  0  0  0
  6  7  1  0  0  0  0
  7  8  1  0  0  0  0
  8  9  1  0  0  0  0
  9 10  1  0  0  0  0
  9 11  2  0  0  0  0
M  CHG  3   1   1   4  -1  11   1
M  END
>  <CHROM.1>
-118.46060965,-70.18639994,165.97290340,-155.17208810,83.51495861,-134.79461817
2.97252287,4.99830255,32.06422392,1.33839097,-0.81624043,0.25029204

>  <Name>
1koc cryst

>  <RI>
0

>  <Rbt.Current_Directory>
/home/itssahil/PROJECTS/Mol_Feturizer/New_Systems/rnas/1koc

>  <Rbt.Executable>
rbdock ($Id: //depot/dev/client3/rdock/2013.1/src/exe/rbdock.cxx#4 $)

>  <Rbt.Library>
libRbt.so (2013.1, Build901 2013/11/27)

>  <Rbt.Parameter_File>
/export/apps/rDock/src/rDock_2013.1_src/data/scripts/dock_solv.prm

>  <Rbt.Receptor>
prm/pocket_docking_5.prm

>  <SCORE>
-43.3133

>  <SCORE.INTER>
-44.5389

>  <SCORE.INTER.CONST>
1

>  <SCORE.INTER.POLAR>
-7.5408

>  <SCORE.INTER.ROT>
5

>  <SCORE.INTER.SOLV>
25.6552

>  <SCORE.INTER.VDW>
-20.0417

>  <SCORE.INTER.norm>
-3.71157

>  <SCORE.INTRA>
1.22561

>  <SCORE.INTRA.DIHEDRAL>
5.42799

>  <SCORE.INTRA.DIHEDRAL.0>
6.04201

>  <SCORE.INTRA.POLAR>
0

>  <SCORE.INTRA.POLAR.0>
0

>  <SCORE.INTRA.REPUL>
0

>  <SCORE.INTRA.REPUL.0>
0

>  <SCORE.INTRA.SOLV>
-0.409192

>  <SCORE.INTRA.SOLV.lig_0>
-71.0481

>  <SCORE.INTRA.VDW>
-1.2838

>  <SCORE.INTRA.VDW.0>
0.968882

>  <SCORE.INTRA.norm>
0.102134

>  <SCORE.RESTR>
0

>  <SCORE.RESTR.CAVITY>
0

>  <SCORE.RESTR.norm>
0

>  <SCORE.SYSTEM>
0

>  <SCORE.SYSTEM.CONST>
0

>  <SCORE.SYSTEM.DIHEDRAL>
0

>  <SCORE.SYSTEM.SOLV>
0

>  <SCORE.SYSTEM.norm>
0

>  <SCORE.heavy>
12

>  <SCORE.norm>
-3.60944

>  <SYMMETRIC_BONDS>
11 12 2
5 6 2

>  <RMSD>
2.141

$$$$
1koc cryst
 OpenBabel11021811393D
libRbt.so/2013.1/901 2013/11/27
 12 11  0  0  0  0  0  0  0  0999 V2000
    3.6125    5.9283   28.8222 N   0  3  0  0  0  0  0  0  0  0  0  0
    3.2678    5.9179   30.2761 C   0  0  2  0  0  0  0  0  0  0  0  0
    4.5347    6.2337   31.0951 C   0  0  0  0  0  0  0  0  0  0  0  0
    5.5815    6.4034   30.4882 O   0  5  0  0  0  0  0  0  0  0  0  0
    2.6983    4.5239   30.6538 C   0  0  0  0  0  0  0  0  0  0  0  0
    1.1706    4.4989   30.5251 C   0  0  0  0  0  0  0  0  0  0  0  0
    0.6928    3.0583   30.3791 C   0  0  0  0  0  0  0  0  0  0  0  0
    1.1572    2.2492   31.5436 N   0  0  0  0  0  0  0  0  0  0  0  0
    2.0745    1.3258   31.3836 C   0  0  0  0  0  0  0  0  0  0  0  0
    3.0570    1.5097   30.5369 N   0  0  0  0  0  0  0  0  0  0  0  0
    2.0118    0.2185   32.0754 N   0  3  0  0  0  0  0  0  0  0  0  0
    4.4407    6.2894   32.3123 O   0  0  0  0  0  0  0  0  0  0  0  0
  2  1  1  6  0  0  0
  2  5  1  0  0  0  0
  2  3  1  0  0  0  0
  3  4  1  0  0  0  0
  3 12  2  0  0  0  0
  5  6  1  0  0  0  0
  6  7  1  0  0  0  0
  7  8  1  0  0  0  0
  8  9  1  0  0  0  0
  9 10  1  0  0  0  0
  9 11  2  0  0  0  0
M  CHG  3   1   1   4  -1  11   1
M  END
>  <CHROM.1>
79.50896627,-91.97902779,-1.73192927,158.76650642,57.12183521,-110.63895186
2.89332407,4.00803942,30.82638430,1.00685206,-0.47266276,-0.44372567

>  <Name>
1koc cryst

>  <RI>
0

>  <Rbt.Current_Directory>
/home/itssahil/PROJECTS/Mol_Feturizer/New_Systems/rnas/1koc

>  <Rbt.Executable>
rbdock ($Id: //depot/dev/client3/rdock/2013.1/src/exe/rbdock.cxx#4 $)

>  <Rbt.Library>
libRbt.so (2013.1, Build901 2013/11/27)

>  <Rbt.Parameter_File>
/export/apps/rDock/src/rDock_2013.1_src/data/scripts/dock_solv.prm

>  <Rbt.Receptor>
prm/pocket_docking_2.prm

>  <SCORE>
-33.1497

>  <SCORE.INTER>
-34.854

>  <SCORE.INTER.CONST>
1

>  <SCORE.INTER.POLAR>
-6.9165

>  <SCORE.INTER.ROT>
5

>  <SCORE.INTER.SOLV>
24.3524

>  <SCORE.INTER.VDW>
-15.2318

>  <SCORE.INTER.norm>
-2.9045

>  <SCORE.INTRA>
1.46641

>  <SCORE.INTRA.DIHEDRAL>
2.8296

>  <SCORE.INTRA.DIHEDRAL.0>
6.04201

>  <SCORE.INTRA.POLAR>
0

>  <SCORE.INTRA.POLAR.0>
0

>  <SCORE.INTRA.REPUL>
0

>  <SCORE.INTRA.REPUL.0>
0

>  <SCORE.INTRA.SOLV>
0.324568

>  <SCORE.INTRA.SOLV.lig_0>
-71.0481

>  <SCORE.INTRA.VDW>
-0.110673

>  <SCORE.INTRA.VDW.0>
0.968882

>  <SCORE.INTRA.norm>
0.122201

>  <SCORE.RESTR>
0.237888

>  <SCORE.RESTR.CAVITY>
0.237888

>  <SCORE.RESTR.norm>
0.019824

>  <SCORE.SYSTEM>
0

>  <SCORE.SYSTEM.CONST>
0

>  <SCORE.SYSTEM.DIHEDRAL>
0

>  <SCORE.SYSTEM.SOLV>
0

>  <SCORE.SYSTEM.norm>
0

>  <SCORE.heavy>
12

>  <SCORE.norm>
-2.76248

>  <SYMMETRIC_BONDS>
11 12 2
5 6 2

>  <RMSD>
2.142

$$$$
1koc cryst
 OpenBabel11021811393D
libRbt.so/2013.1/901 2013/11/27
 12 11  0  0  0  0  0  0  0  0999 V2000
    6.4853    5.1432   28.0090 N   0  3  0  0  0  0  0  0  0  0  0  0
    5.8843    5.9837   29.0884 C   0  0  2  0  0  0  0  0  0  0  0  0
    6.6921    5.7877   30.3863 C   0  0  0  0  0  0  0  0  0  0  0  0
    6.3724    6.4460   31.3648 O   0  5  0  0  0  0  0  0  0  0  0  0
    4.4024    5.5678   29.2912 C   0  0  0  0  0  0  0  0  0  0  0  0
    4.2952    4.0996   29.7198 C   0  0  0  0  0  0  0  0  0  0  0  0
    2.8535    3.7817   30.1012 C   0  0  0  0  0  0  0  0  0  0  0  0
    2.6923    2.3110   30.2947 N   0  0  0  0  0  0  0  0  0  0  0  0
    1.8411    1.8498   31.1793 C   0  0  0  0  0  0  0  0  0  0  0  0
    0.7013    2.4627   31.3822 N   0  0  0  0  0  0  0  0  0  0  0  0
    2.1283    0.7705   31.8585 N   0  3  0  0  0  0  0  0  0  0  0  0
    7.6211    4.9938   30.3781 O   0  0  0  0  0  0  0  0  0  0  0  0
  2  1  1  6  0  0  0
  2  5  1  0  0  0  0
  2  3  1  0  0  0  0
  3  4  1  0  0  0  0
  3 12  2  0  0  0  0
  5  6  1  0  0  0  0
  6  7  1  0  0  0  0
  7  8  1  0  0  0  0
  8  9  1  0  0  0  0
  9 10  1  0  0  0  0
  9 11  2  0  0  0  0
M  CHG  3   1   1   4  -1  11   1
M  END
>  <CHROM.1>
178.84211539,61.07505875,177.02022175,171.96996019,170.42450006,147.41679337
4.34623966,4.07419645,30.25239588,0.46397796,-0.54516984,-1.17792648

>  <Name>
1koc cryst

>  <RI>
0

>  <Rbt.Current_Directory>
/home/itssahil/PROJECTS/Mol_Feturizer/New_Systems/rnas/1koc

>  <Rbt.Executable>
rbdock ($Id: //depot/dev/client3/rdock/2013.1/src/exe/rbdock.cxx#4 $)

>  <Rbt.Library>
libRbt.so (2013.1, Build901 2013/11/27)

>  <Rbt.Parameter_File>
/export/apps/rDock/src/rDock_2013.1_src/data/scripts/dock_solv.prm

>  <Rbt.Receptor>
prm/pocket_docking_5.prm

>  <SCORE>
-29.6113

>  <SCORE.INTER>
-27.3557

>  <SCORE.INTER.CONST>
1

>  <SCORE.INTER.POLAR>
-5.2662

>  <SCORE.INTER.ROT>
5

>  <SCORE.INTER.SOLV>
19.0295

>  <SCORE.INTER.VDW>
-13.9596

>  <SCORE.INTER.norm>
-2.27964

>  <SCORE.INTRA>
-2.25566

>  <SCORE.INTRA.DIHEDRAL>
-1.97687

>  <SCORE.INTRA.DIHEDRAL.0>
6.04201

>  <SCORE.INTRA.POLAR>
0

>  <SCORE.INTRA.POLAR.0>
0

>  <SCORE.INTRA.REPUL>
0

>  <SCORE.INTRA.REPUL.0>
0

>  <SCORE.INTRA.SOLV>
0.0261667

>  <SCORE.INTRA.SOLV.lig_0>
-71.0481

>  <SCORE.INTRA.VDW>
-1.28031

>  <SCORE.INTRA.VDW.0>
0.968882

>  <SCORE.INTRA.norm>
-0.187971

>  <SCORE.RESTR>
0

>  <SCORE.RESTR.CAVITY>
0

>  <SCORE.RESTR.norm>
0

>  <SCORE.SYSTEM>
0

>  <SCORE.SYSTEM.CONST>
0

>  <SCORE.SYSTEM.DIHEDRAL>
0

>  <SCORE.SYSTEM.SOLV>
0

>  <SCORE.SYSTEM.norm>
0

>  <SCORE.heavy>
12

>  <SCORE.norm>
-2.46761

>  <SYMMETRIC_BONDS>
11 12 2
5 6 2

>  <RMSD>
2.143

$$$$
1koc cryst
 OpenBabel11021811393D
libRbt.so/2013.1/901 2013/11/27
 12 11  0  0  0  0  0  0  0  0999 V2000
    5.4048    6.8170   27.9302 N   0  3  0  0  0  0  0  0  0  0  0  0
    4.4142    6.7455   29.0466 C   0  0  2  0  0  0  0  0  0  0  0  0
    5.1143    7.1296   30.3649 C   0  0  0  0  0  0  0  0  0  0  0  0
    6.3080    7.3877   30.3254 O   0  5  0  0  0  0  0  0  0  0  0  0
    3.8393    5.3055   29.1249 C   0  0  0  0  0  0  0  0  0  0  0  0
    2.7757    5.1952   30.2237 C   0  0  0  0  0  0  0  0  0  0  0  0
    1.8938    3.9791   29.9622 C   0  0  0  0  0  0  0  0  0  0  0  0
    1.9122    3.0745   31.1487 N   0  0  0  0  0  0  0  0  0  0  0  0
    2.5903    1.9526   31.1145 C   0  0  0  0  0  0  0  0  0  0  0  0
    3.7332    1.8899   30.4772 N   0  0  0  0  0  0  0  0  0  0  0  0
    2.1270    0.8925   31.7231 N   0  3  0  0  0  0  0  0  0  0  0  0
    4.4509    7.1484   31.3910 O   0  0  0  0  0  0  0  0  0  0  0  0
  2  1  1  6  0  0  0
  2  5  1  0  0  0  0
  2  3  1  0  0  0  0
  3  4  1  0  0  0  0
  3 12  2  0  0  0  0
  5  6  1  0  0  0  0
  6  7  1  0  0  0  0
  7  8  1  0  0  0  0
  8  9  1  0  0  0  0
  9 10  1  0  0  0  0
  9 11  2  0  0  0  0
M  CHG  3   1   1   4  -1  11   1
M  END
>  <CHROM.1>
-72.11887766,-177.81461148,-1.77099553,159.74362354,123.64554391,-105.44565056
3.74891706,4.78763537,30.23080086,-0.07863013,-1.07719005,-1.94399325

>  <Name>
1koc cryst

>  <RI>
0

>  <Rbt.Current_Directory>
/home/itssahil/PROJECTS/Mol_Feturizer/New_Systems/rnas/1koc

>  <Rbt.Executable>
rbdock ($Id: //depot/dev/client3/rdock/2013.1/src/exe/rbdock.cxx#4 $)

>  <Rbt.Library>
libRbt.so (2013.1, Build901 2013/11/27)

>  <Rbt.Parameter_File>
/export/apps/rDock/src/rDock_2013.1_src/data/scripts/dock_solv.prm

>  <Rbt.Receptor>
prm/pocket_docking_4.prm

>  <SCORE>
-31.2283

>  <SCORE.INTER>
-32.2481

>  <SCORE.INTER.CONST>
1

>  <SCORE.INTER.POLAR>
-6.20069

>  <SCORE.INTER.ROT>
5

>  <SCORE.INTER.SOLV>
18.5365

>  <SCORE.INTER.VDW>
-13.9419

>  <SCORE.INTER.norm>
-2.68734

>  <SCORE.INTRA>
1.01984

>  <SCORE.INTRA.DIHEDRAL>
4.80676

>  <SCORE.INTRA.DIHEDRAL.0>
6.04201

>  <SCORE.INTRA.POLAR>
0

>  <SCORE.INTRA.POLAR.0>
0

>  <SCORE.INTRA.REPUL>
0

>  <SCORE.INTRA.REPUL.0>
0

>  <SCORE.INTRA.SOLV>
-0.18547

>  <SCORE.INTRA.SOLV.lig_0>
-71.0481

>  <SCORE.INTRA.VDW>
-1.29081

>  <SCORE.INTRA.VDW.0>
0.968882

>  <SCORE.INTRA.norm>
0.0849866

>  <SCORE.RESTR>
0

>  <SCORE.RESTR.CAVITY>
0

>  <SCORE.RESTR.norm>
0

>  <SCORE.SYSTEM>
0

>  <SCORE.SYSTEM.CONST>
0

>  <SCORE.SYSTEM.DIHEDRAL>
0

>  <SCORE.SYSTEM.SOLV>
0

>  <SCORE.SYSTEM.norm>
0

>  <SCORE.heavy>
12

>  <SCORE.norm>
-2.60236

>  <SYMMETRIC_BONDS>
11 12 2
5 6 2

>  <RMSD>
2.146

$$$$
1koc cryst
 OpenBabel11021811393D
libRbt.so/2013.1/901 2013/11/27
 12 11  0  0  0  0  0  0  0  0999 V2000
    5.8241    6.6824   27.7092 N   0  3  0  0  0  0  0  0  0  0  0  0
    4.9265    6.5503   28.8965 C   0  0  2  0  0  0  0  0  0  0  0  0
    5.6929    6.9948   30.1577 C   0  0  0  0  0  0  0  0  0  0  0  0
    5.1390    6.8670   31.2393 O   0  5  0  0  0  0  0  0  0  0  0  0
    4.4635    5.0739   29.0224 C   0  0  0  0  0  0  0  0  0  0  0  0
    3.2224    4.9592   29.9153 C   0  0  0  0  0  0  0  0  0  0  0  0
    3.0911    3.5292   30.4280 C   0  0  0  0  0  0  0  0  0  0  0  0
    1.8089    3.3738   31.1751 N   0  0  0  0  0  0  0  0  0  0  0  0
    1.0722    2.3018   31.0086 C   0  0  0  0  0  0  0  0  0  0  0  0
    1.6364    1.1337   30.8257 N   0  0  0  0  0  0  0  0  0  0  0  0
   -0.2313    2.3973   31.0300 N   0  3  0  0  0  0  0  0  0  0  0  0
    6.8127    7.4647   30.0216 O   0  0  0  0  0  0  0  0  0  0  0  0
  2  1  1  6  0  0  0
  2  5  1  0  0  0  0
  2  3  1  0  0  0  0
  3  4  1  0  0  0  0
  3 12  2  0  0  0  0
  5  6  1  0  0  0  0
  6  7  1  0  0  0  0
  7  8  1  0  0  0  0
  8  9  1  0  0  0  0
  9 10  1  0  0  0  0
  9 11  2  0  0  0  0
M  CHG  3   1   1   4  -1  11   1
M  END
>  <CHROM.1>
58.10720627,-161.85930938,-175.15120631,-159.65630312,-173.91335885,137.72224830
3.63210392,4.77983669,30.10828868,-0.02045039,-0.79819012,-1.91468763

>  <Name>
1koc cryst

>  <RI>
0

>  <Rbt.Current_Directory>
/home/itssahil/PROJECTS/Mol_Feturizer/New_Systems/rnas/1koc

>  <Rbt.Executable>
rbdock ($Id: //depot/dev/client3/rdock/2013.1/src/exe/rbdock.cxx#4 $)

>  <Rbt.Library>
libRbt.so (2013.1, Build901 2013/11/27)

>  <Rbt.Parameter_File>
/export/apps/rDock/src/rDock_2013.1_src/data/scripts/dock_solv.prm

>  <Rbt.Receptor>
prm/pocket_docking_8.prm

>  <SCORE>
-28.7557

>  <SCORE.INTER>
-26.7098

>  <SCORE.INTER.CONST>
1

>  <SCORE.INTER.POLAR>
-4.94365

>  <SCORE.INTER.ROT>
5

>  <SCORE.INTER.SOLV>
17.7661

>  <SCORE.INTER.VDW>
-14.1831

>  <SCORE.INTER.norm>
-2.22582

>  <SCORE.INTRA>
-2.04583

>  <SCORE.INTRA.DIHEDRAL>
0.20392

>  <SCORE.INTRA.DIHEDRAL.0>
6.04201

>  <SCORE.INTRA.POLAR>
0

>  <SCORE.INTRA.POLAR.0>
0

>  <SCORE.INTRA.REPUL>
0

>  <SCORE.INTRA.REPUL.0>
0

>  <SCORE.INTRA.SOLV>
-1.01799

>  <SCORE.INTRA.SOLV.lig_0>
-71.0481

>  <SCORE.INTRA.VDW>
-1.6388

>  <SCORE.INTRA.VDW.0>
0.968882

>  <SCORE.INTRA.norm>
-0.170486

>  <SCORE.RESTR>
0

>  <SCORE.RESTR.CAVITY>
0

>  <SCORE.RESTR.norm>
0

>  <SCORE.SYSTEM>
0

>  <SCORE.SYSTEM.CONST>
0

>  <SCORE.SYSTEM.DIHEDRAL>
0

>  <SCORE.SYSTEM.SOLV>
0

>  <SCORE.SYSTEM.norm>
0

>  <SCORE.heavy>
12

>  <SCORE.norm>
-2.3963

>  <SYMMETRIC_BONDS>
11 12 2
5 6 2

>  <RMSD>
2.148

$$$$
1koc cryst
 OpenBabel11021811393D
libRbt.so/2013.1/901 2013/11/27
 12 11  0  0  0  0  0  0  0  0999 V2000
    2.2318    8.1508   32.4214 N   0  3  0  0  0  0  0  0  0  0  0  0
    2.8744    6.8795   32.8727 C   0  0  2  0  0  0  0  0  0  0  0  0
    4.1821    7.2141   33.6166 C   0  0  0  0  0  0  0  0  0  0  0  0
    4.8866    6.2852   33.9826 O   0  5  0  0  0  0  0  0  0  0  0  0
    3.1553    5.9846   31.6356 C   0  0  0  0  0  0  0  0  0  0  0  0
    1.8482    5.5014   30.9961 C   0  0  0  0  0  0  0  0  0  0  0  0
    2.1033    4.2138   30.2203 C   0  0  0  0  0  0  0  0  0  0  0  0
    1.9389    3.0368   31.1223 N   0  0  0  0  0  0  0  0  0  0  0  0
    2.8111    2.0578   31.0978 C   0  0  0  0  0  0  0  0  0  0  0  0
    4.0823    2.3095   30.9060 N   0  0  0  0  0  0  0  0  0  0  0  0
    2.4119    0.8251   31.2706 N   0  3  0  0  0  0  0  0  0  0  0  0
    4.4518    8.3888   33.8179 O   0  0  0  0  0  0  0  0  0  0  0  0
  2  1  1  6  0  0  0
  2  5  1  0  0  0  0
  2  3  1  0  0  0  0
  3  4  1  0  0  0  0
  3 12  2  0  0  0  0
  5  6  1  0  0  0  0
  6  7  1  0  0  0  0
  7  8  1  0  0  0  0
  8  9  1  0  0  0  0
  9 10  1  0  0  0  0
  9 11  2  0  0  0  0
M  CHG  3   1   1   4  -1  11   1
M  END
>  <CHROM.1>
116.31699067,-67.14975929,-175.37108053,-155.81551236,88.46579781,-135.54750413
3.08860574,5.08311922,32.00955011,1.35328897,-0.64895883,0.26211805

>  <Name>
1koc cryst

>  <RI>
0

>  <Rbt.Current_Directory>
/home/itssahil/PROJECTS/Mol_Feturizer/New_Systems/rnas/1koc

>  <Rbt.Executable>
rbdock ($Id: //depot/dev/client3/rdock/2013.1/src/exe/rbdock.cxx#4 $)

>  <Rbt.Library>
libRbt.so (2013.1, Build901 2013/11/27)

>  <Rbt.Parameter_File>
/export/apps/rDock/src/rDock_2013.1_src/data/scripts/dock_solv.prm

>  <Rbt.Receptor>
prm/pocket_docking_8.prm

>  <SCORE>
-42.2996

>  <SCORE.INTER>
-43.9558

>  <SCORE.INTER.CONST>
1

>  <SCORE.INTER.POLAR>
-7.427

>  <SCORE.INTER.ROT>
5

>  <SCORE.INTER.SOLV>
23.395

>  <SCORE.INTER.VDW>
-19.2789

>  <SCORE.INTER.norm>
-3.66298

>  <SCORE.INTRA>
1.6562

>  <SCORE.INTRA.DIHEDRAL>
5.81291

>  <SCORE.INTRA.DIHEDRAL.0>
6.04201

>  <SCORE.INTRA.POLAR>
0

>  <SCORE.INTRA.POLAR.0>
0

>  <SCORE.INTRA.REPUL>
0

>  <SCORE.INTRA.REPUL.0>
0

>  <SCORE.INTRA.SOLV>
-0.359689

>  <SCORE.INTRA.SOLV.lig_0>
-71.0481

>  <SCORE.INTRA.VDW>
-1.07041

>  <SCORE.INTRA.VDW.0>
0.968882

>  <SCORE.INTRA.norm>
0.138017

>  <SCORE.RESTR>
0

>  <SCORE.RESTR.CAVITY>
0

>  <SCORE.RESTR.norm>
0

>  <SCORE.SYSTEM>
0

>  <SCORE.SYSTEM.CONST>
0

>  <SCORE.SYSTEM.DIHEDRAL>
0

>  <SCORE.SYSTEM.SOLV>
0

>  <SCORE.SYSTEM.norm>
0

>  <SCORE.heavy>
12

>  <SCORE.norm>
-3.52496

>  <SYMMETRIC_BONDS>
11 12 2
5 6 2

>  <RMSD>
2.153

$$$$
1koc cryst
 OpenBabel11021811393D
libRbt.so/2013.1/901 2013/11/27
 12 11  0  0  0  0  0  0  0  0999 V2000
    5.3108    6.6608   28.0303 N   0  3  0  0  0  0  0  0  0  0  0  0
    4.1945    6.6802   29.0235 C   0  0  2  0  0  0  0  0  0  0  0  0
    4.7254    7.2211   30.3655 C   0  0  0  0  0  0  0  0  0  0  0  0
    5.9315    7.3777   30.4831 O   0  5  0  0  0  0  0  0  0  0  0  0
    3.6361    5.2412   29.1892 C   0  0  0  0  0  0  0  0  0  0  0  0
    2.5334    5.1966   30.2536 C   0  0  0  0  0  0  0  0  0  0  0  0
    1.6476    3.9772   30.0221 C   0  0  0  0  0  0  0  0  0  0  0  0
    1.7441    3.0514   31.1882 N   0  0  0  0  0  0  0  0  0  0  0  0
    2.4951    1.9784   31.1203 C   0  0  0  0  0  0  0  0  0  0  0  0
    3.6298    2.0059   30.4665 N   0  0  0  0  0  0  0  0  0  0  0  0
    2.1127    0.8772   31.7118 N   0  3  0  0  0  0  0  0  0  0  0  0
    3.9217    7.4585   31.2549 O   0  0  0  0  0  0  0  0  0  0  0  0
  2  1  1  6  0  0  0
  2  5  1  0  0  0  0
  2  3  1  0  0  0  0
  3  4  1  0  0  0  0
  3 12  2  0  0  0  0
  5  6  1  0  0  0  0
  6  7  1  0  0  0  0
  7  8  1  0  0  0  0
  8  9  1  0  0  0  0
  9 10  1  0  0  0  0
  9 11  2  0  0  0  0
M  CHG  3   1   1   4  -1  11   1
M  END
>  <CHROM.1>
176.09552275,177.10529525,-9.09424085,157.71643127,116.83731024,-101.21913765
3.52782429,4.80467552,30.25533064,-0.79498604,-0.88329438,-2.76328180

>  <Name>
1koc cryst

>  <RI>
0

>  <Rbt.Current_Directory>
/home/itssahil/PROJECTS/Mol_Feturizer/New_Systems/rnas/1koc

>  <Rbt.Executable>
rbdock ($Id: //depot/dev/client3/rdock/2013.1/src/exe/rbdock.cxx#4 $)

>  <Rbt.Library>
libRbt.so (2013.1, Build901 2013/11/27)

>  <Rbt.Parameter_File>
/export/apps/rDock/src/rDock_2013.1_src/data/scripts/dock_solv.prm

>  <Rbt.Receptor>
prm/pocket_docking_4.prm

>  <SCORE>
-32.3463

>  <SCORE.INTER>
-33.6707

>  <SCORE.INTER.CONST>
1

>  <SCORE.INTER.POLAR>
-6.26738

>  <SCORE.INTER.ROT>
5

>  <SCORE.INTER.SOLV>
19.353

>  <SCORE.INTER.VDW>
-14.9402

>  <SCORE.INTER.norm>
-2.80589

>  <SCORE.INTRA>
1.32436

>  <SCORE.INTRA.DIHEDRAL>
4.80874

>  <SCORE.INTRA.DIHEDRAL.0>
6.04201

>  <SCORE.INTRA.POLAR>
0

>  <SCORE.INTRA.POLAR.0>
0

>  <SCORE.INTRA.REPUL>
0

>  <SCORE.INTRA.REPUL.0>
0

>  <SCORE.INTRA.SOLV>
0.000575046

>  <SCORE.INTRA.SOLV.lig_0>
-71.0481

>  <SCORE.INTRA.VDW>
-1.08029

>  <SCORE.INTRA.VDW.0>
0.968882

>  <SCORE.INTRA.norm>
0.110364

>  <SCORE.RESTR>
0

>  <SCORE.RESTR.CAVITY>
0

>  <SCORE.RESTR.norm>
0

>  <SCORE.SYSTEM>
0

>  <SCORE.SYSTEM.CONST>
0

>  <SCORE.SYSTEM.DIHEDRAL>
0

>  <SCORE.SYSTEM.SOLV>
0

>  <SCORE.SYSTEM.norm>
0

>  <SCORE.heavy>
12

>  <SCORE.norm>
-2.69553

>  <SYMMETRIC_BONDS>
11 12 2
5 6 2

>  <RMSD>
2.157

$$$$
1koc cryst
 OpenBabel11021811393D
libRbt.so/2013.1/901 2013/11/27
 12 11  0  0  0  0  0  0  0  0999 V2000
    5.5311    6.7936   32.4169 N   0  3  0  0  0  0  0  0  0  0  0  0
    5.6499    5.3058   32.4904 C   0  0  2  0  0  0  0  0  0  0  0  0
    6.7268    4.8378   31.4920 C   0  0  0  0  0  0  0  0  0  0  0  0
    6.8886    5.4948   30.4745 O   0  5  0  0  0  0  0  0  0  0  0  0
    4.2736    4.6688   32.1584 C   0  0  0  0  0  0  0  0  0  0  0  0
    3.7660    5.1349   30.7888 C   0  0  0  0  0  0  0  0  0  0  0  0
    2.5008    4.3664   30.4232 C   0  0  0  0  0  0  0  0  0  0  0  0
    2.8253    2.9252   30.2136 N   0  0  0  0  0  0  0  0  0  0  0  0
    2.3809    2.0188   31.0506 C   0  0  0  0  0  0  0  0  0  0  0  0
    1.1945    2.1437   31.5919 N   0  0  0  0  0  0  0  0  0  0  0  0
    3.1225    0.9827   31.3429 N   0  3  0  0  0  0  0  0  0  0  0  0
    7.3622    3.8275   31.7541 O   0  0  0  0  0  0  0  0  0  0  0  0
  2  1  1  6  0  0  0
  2  5  1  0  0  0  0
  2  3  1  0  0  0  0
  3  4  1  0  0  0  0
  3 12  2  0  0  0  0
  5  6  1  0  0  0  0
  6  7  1  0  0  0  0
  7  8  1  0  0  0  0
  8  9  1  0  0  0  0
  9 10  1  0  0  0  0
  9 11  2  0  0  0  0
M  CHG  3   1   1   4  -1  11   1
M  END
>  <CHROM.1>
175.67306019,56.16936343,-30.63962334,173.30244183,-66.42419439,112.06223859
4.36455321,4.04705160,31.35326856,0.66693786,-0.07451924,0.08439098

>  <Name>
1koc cryst

>  <RI>
0

>  <Rbt.Current_Directory>
/home/itssahil/PROJECTS/Mol_Feturizer/New_Systems/rnas/1koc

>  <Rbt.Executable>
rbdock ($Id: //depot/dev/client3/rdock/2013.1/src/exe/rbdock.cxx#4 $)

>  <Rbt.Library>
libRbt.so (2013.1, Build901 2013/11/27)

>  <Rbt.Parameter_File>
/export/apps/rDock/src/rDock_2013.1_src/data/scripts/dock_solv.prm

>  <Rbt.Receptor>
prm/pocket_docking_6.prm

>  <SCORE>
-21.9483

>  <SCORE.INTER>
-19.3801

>  <SCORE.INTER.CONST>
1

>  <SCORE.INTER.POLAR>
-4.15851

>  <SCORE.INTER.ROT>
5

>  <SCORE.INTER.SOLV>
15.2323

>  <SCORE.INTER.VDW>
-11.0691

>  <SCORE.INTER.norm>
-1.61501

>  <SCORE.INTRA>
-2.56818

>  <SCORE.INTRA.DIHEDRAL>
-2.17388

>  <SCORE.INTRA.DIHEDRAL.0>
6.04201

>  <SCORE.INTRA.POLAR>
0

>  <SCORE.INTRA.POLAR.0>
0

>  <SCORE.INTRA.REPUL>
0

>  <SCORE.INTRA.REPUL.0>
0

>  <SCORE.INTRA.SOLV>
0.606872

>  <SCORE.INTRA.SOLV.lig_0>
-71.0481

>  <SCORE.INTRA.VDW>
-1.78467

>  <SCORE.INTRA.VDW.0>
0.968882

>  <SCORE.INTRA.norm>
-0.214015

>  <SCORE.RESTR>
0

>  <SCORE.RESTR.CAVITY>
0

>  <SCORE.RESTR.norm>
0

>  <SCORE.SYSTEM>
0

>  <SCORE.SYSTEM.CONST>
0

>  <SCORE.SYSTEM.DIHEDRAL>
0

>  <SCORE.SYSTEM.SOLV>
0

>  <SCORE.SYSTEM.norm>
0

>  <SCORE.heavy>
12

>  <SCORE.norm>
-1.82902

>  <SYMMETRIC_BONDS>
11 12 2
5 6 2

>  <RMSD>
2.162

$$$$
1koc cryst
 OpenBabel11021811393D
libRbt.so/2013.1/901 2013/11/27
 12 11  0  0  0  0  0  0  0  0999 V2000
    5.5214    6.7596   27.9988 N   0  3  0  0  0  0  0  0  0  0  0  0
    4.6512    6.4223   29.1657 C   0  0  2  0  0  0  0  0  0  0  0  0
    4.6176    7.6232   30.1312 C   0  0  0  0  0  0  0  0  0  0  0  0
    3.7349    7.6547   30.9756 O   0  5  0  0  0  0  0  0  0  0  0  0
    5.2148    5.1601   29.8724 C   0  0  0  0  0  0  0  0  0  0  0  0
    4.1984    4.5834   30.8650 C   0  0  0  0  0  0  0  0  0  0  0  0
    3.1354    3.7943   30.1085 C   0  0  0  0  0  0  0  0  0  0  0  0
    1.9715    3.5249   31.0024 N   0  0  0  0  0  0  0  0  0  0  0  0
    1.3093    2.3973   30.9042 C   0  0  0  0  0  0  0  0  0  0  0  0
    1.9395    1.2821   30.6297 N   0  0  0  0  0  0  0  0  0  0  0  0
    0.0148    2.3841   31.0857 N   0  3  0  0  0  0  0  0  0  0  0  0
    5.4647    8.4946   30.0041 O   0  0  0  0  0  0  0  0  0  0  0  0
  2  1  1  6  0  0  0
  2  5  1  0  0  0  0
  2  3  1  0  0  0  0
  3  4  1  0  0  0  0
  3 12  2  0  0  0  0
  5  6  1  0  0  0  0
  6  7  1  0  0  0  0
  7  8  1  0  0  0  0
  8  9  1  0  0  0  0
  9 10  1  0  0  0  0
  9 11  2  0  0  0  0
M  CHG  3   1   1   4  -1  11   1
M  END
>  <CHROM.1>
76.40624023,-166.91553016,163.75159976,78.25273954,-165.78328213,-144.70102954
3.47980203,5.01712349,30.21331063,-0.77272310,-0.62751646,-2.84470954

>  <Name>
1koc cryst

>  <RI>
0

>  <Rbt.Current_Directory>
/home/itssahil/PROJECTS/Mol_Feturizer/New_Systems/rnas/1koc

>  <Rbt.Executable>
rbdock ($Id: //depot/dev/client3/rdock/2013.1/src/exe/rbdock.cxx#4 $)

>  <Rbt.Library>
libRbt.so (2013.1, Build901 2013/11/27)

>  <Rbt.Parameter_File>
/export/apps/rDock/src/rDock_2013.1_src/data/scripts/dock_solv.prm

>  <Rbt.Receptor>
prm/pocket_docking_5.prm

>  <SCORE>
-24.3702

>  <SCORE.INTER>
-22.631

>  <SCORE.INTER.CONST>
1

>  <SCORE.INTER.POLAR>
-4.68132

>  <SCORE.INTER.ROT>
5

>  <SCORE.INTER.SOLV>
19.2552

>  <SCORE.INTER.VDW>
-12.8346

>  <SCORE.INTER.norm>
-1.88592

>  <SCORE.INTRA>
-1.73921

>  <SCORE.INTRA.DIHEDRAL>
0.627911

>  <SCORE.INTRA.DIHEDRAL.0>
6.04201

>  <SCORE.INTRA.POLAR>
0

>  <SCORE.INTRA.POLAR.0>
0

>  <SCORE.INTRA.REPUL>
0

>  <SCORE.INTRA.REPUL.0>
0

>  <SCORE.INTRA.SOLV>
-0.819315

>  <SCORE.INTRA.SOLV.lig_0>
-71.0481

>  <SCORE.INTRA.VDW>
-1.64351

>  <SCORE.INTRA.VDW.0>
0.968882

>  <SCORE.INTRA.norm>
-0.144934

>  <SCORE.RESTR>
0

>  <SCORE.RESTR.CAVITY>
0

>  <SCORE.RESTR.norm>
0

>  <SCORE.SYSTEM>
0

>  <SCORE.SYSTEM.CONST>
0

>  <SCORE.SYSTEM.DIHEDRAL>
0

>  <SCORE.SYSTEM.SOLV>
0

>  <SCORE.SYSTEM.norm>
0

>  <SCORE.heavy>
12

>  <SCORE.norm>
-2.03085

>  <SYMMETRIC_BONDS>
11 12 2
5 6 2

>  <RMSD>
2.163

$$$$
1koc cryst
 OpenBabel11021811393D
libRbt.so/2013.1/901 2013/11/27
 12 11  0  0  0  0  0  0  0  0999 V2000
    4.9000    6.5323   32.8165 N   0  3  0  0  0  0  0  0  0  0  0  0
    5.7246    5.3564   32.4041 C   0  0  2  0  0  0  0  0  0  0  0  0
    7.1692    5.8238   32.1394 C   0  0  0  0  0  0  0  0  0  0  0  0
    7.3304    6.8490   31.4944 O   0  5  0  0  0  0  0  0  0  0  0  0
    5.1057    4.7233   31.1288 C   0  0  0  0  0  0  0  0  0  0  0  0
    4.3660    3.4223   31.4622 C   0  0  0  0  0  0  0  0  0  0  0  0
    3.6049    2.9370   30.2333 C   0  0  0  0  0  0  0  0  0  0  0  0
    3.0678    1.5665   30.4776 N   0  0  0  0  0  0  0  0  0  0  0  0
    2.1031    1.3794   31.3460 C   0  0  0  0  0  0  0  0  0  0  0  0
    1.1528    2.2709   31.4808 N   0  0  0  0  0  0  0  0  0  0  0  0
    2.0860    0.2961   32.0774 N   0  3  0  0  0  0  0  0  0  0  0  0
    8.0881    5.1458   32.5744 O   0  0  0  0  0  0  0  0  0  0  0  0
  2  1  1  6  0  0  0
  2  5  1  0  0  0  0
  2  3  1  0  0  0  0
  3  4  1  0  0  0  0
  3 12  2  0  0  0  0
  5  6  1  0  0  0  0
  6  7  1  0  0  0  0
  7  8  1  0  0  0  0
  8  9  1  0  0  0  0
  9 10  1  0  0  0  0
  9 11  2  0  0  0  0
M  CHG  3   1   1   4  -1  11   1
M  END
>  <CHROM.1>
-60.46295761,-104.69833548,-44.59771699,171.86490831,170.80792762,68.88719063
4.54579040,3.87759367,31.65791290,0.77973703,0.06491140,0.24485317

>  <Name>
1koc cryst

>  <RI>
0

>  <Rbt.Current_Directory>
/home/itssahil/PROJECTS/Mol_Feturizer/New_Systems/rnas/1koc

>  <Rbt.Executable>
rbdock ($Id: //depot/dev/client3/rdock/2013.1/src/exe/rbdock.cxx#4 $)

>  <Rbt.Library>
libRbt.so (2013.1, Build901 2013/11/27)

>  <Rbt.Parameter_File>
/export/apps/rDock/src/rDock_2013.1_src/data/scripts/dock_solv.prm

>  <Rbt.Receptor>
prm/pocket_docking_6.prm

>  <SCORE>
-25.3434

>  <SCORE.INTER>
-23.6061

>  <SCORE.INTER.CONST>
1

>  <SCORE.INTER.POLAR>
-4.9454

>  <SCORE.INTER.ROT>
5

>  <SCORE.INTER.SOLV>
18.5531

>  <SCORE.INTER.VDW>
-12.3705

>  <SCORE.INTER.norm>
-1.96718

>  <SCORE.INTRA>
-1.73732

>  <SCORE.INTRA.DIHEDRAL>
2.32871

>  <SCORE.INTRA.DIHEDRAL.0>
6.04201

>  <SCORE.INTRA.POLAR>
0

>  <SCORE.INTRA.POLAR.0>
0

>  <SCORE.INTRA.REPUL>
0

>  <SCORE.INTRA.REPUL.0>
0

>  <SCORE.INTRA.SOLV>
-1.39821

>  <SCORE.INTRA.SOLV.lig_0>
-71.0481

>  <SCORE.INTRA.VDW>
-2.20257

>  <SCORE.INTRA.VDW.0>
0.968882

>  <SCORE.INTRA.norm>
-0.144776

>  <SCORE.RESTR>
0

>  <SCORE.RESTR.CAVITY>
0

>  <SCORE.RESTR.norm>
0

>  <SCORE.SYSTEM>
0

>  <SCORE.SYSTEM.CONST>
0

>  <SCORE.SYSTEM.DIHEDRAL>
0

>  <SCORE.SYSTEM.SOLV>
0

>  <SCORE.SYSTEM.norm>
0

>  <SCORE.heavy>
12

>  <SCORE.norm>
-2.11195

>  <SYMMETRIC_BONDS>
11 12 2
5 6 2

>  <RMSD>
2.164

$$$$
1koc cryst
 OpenBabel11021811393D
libRbt.so/2013.1/901 2013/11/27
 12 11  0  0  0  0  0  0  0  0999 V2000
    4.1343    6.2535   27.7570 N   0  3  0  0  0  0  0  0  0  0  0  0
    4.6213    6.5731   29.1330 C   0  0  2  0  0  0  0  0  0  0  0  0
    5.8584    5.7073   29.4418 C   0  0  0  0  0  0  0  0  0  0  0  0
    6.0064    4.6731   28.8081 O   0  5  0  0  0  0  0  0  0  0  0  0
    3.4837    6.2958   30.1524 C   0  0  0  0  0  0  0  0  0  0  0  0
    2.8529    4.9188   29.9139 C   0  0  0  0  0  0  0  0  0  0  0  0
    3.5043    3.8912   30.8329 C   0  0  0  0  0  0  0  0  0  0  0  0
    3.1609    2.5127   30.3768 N   0  0  0  0  0  0  0  0  0  0  0  0
    2.2608    1.8084   31.0198 C   0  0  0  0  0  0  0  0  0  0  0  0
    1.2071    2.3931   31.5335 N   0  0  0  0  0  0  0  0  0  0  0  0
    2.4123    0.5161   31.1449 N   0  3  0  0  0  0  0  0  0  0  0  0
    6.6293    6.0848   30.3116 O   0  0  0  0  0  0  0  0  0  0  0  0
  2  1  1  6  0  0  0
  2  5  1  0  0  0  0
  2  3  1  0  0  0  0
  3  4  1  0  0  0  0
  3 12  2  0  0  0  0
  5  6  1  0  0  0  0
  6  7  1  0  0  0  0
  7  8  1  0  0  0  0
  8  9  1  0  0  0  0
  9 10  1  0  0  0  0
  9 11  2  0  0  0  0
M  CHG  3   1   1   4  -1  11   1
M  END
>  <CHROM.1>
-54.44300056,48.22468769,-22.41958158,95.37335887,-165.54946508,-103.72957732
3.84204527,4.27793006,30.01097872,0.98148894,0.09403551,-0.36623560

>  <Name>
1koc cryst

>  <RI>
0

>  <Rbt.Current_Directory>
/home/itssahil/PROJECTS/Mol_Feturizer/New_Systems/rnas/1koc

>  <Rbt.Executable>
rbdock ($Id: //depot/dev/client3/rdock/2013.1/src/exe/rbdock.cxx#4 $)

>  <Rbt.Library>
libRbt.so (2013.1, Build901 2013/11/27)

>  <Rbt.Parameter_File>
/export/apps/rDock/src/rDock_2013.1_src/data/scripts/dock_solv.prm

>  <Rbt.Receptor>
prm/pocket_docking_4.prm

>  <SCORE>
-32.7021

>  <SCORE.INTER>
-33.8003

>  <SCORE.INTER.CONST>
1

>  <SCORE.INTER.POLAR>
-6.49332

>  <SCORE.INTER.ROT>
5

>  <SCORE.INTER.SOLV>
26.8686

>  <SCORE.INTER.VDW>
-16.7787

>  <SCORE.INTER.norm>
-2.8167

>  <SCORE.INTRA>
1.09823

>  <SCORE.INTRA.DIHEDRAL>
2.60872

>  <SCORE.INTRA.DIHEDRAL.0>
6.04201

>  <SCORE.INTRA.POLAR>
0

>  <SCORE.INTRA.POLAR.0>
0

>  <SCORE.INTRA.REPUL>
0

>  <SCORE.INTRA.REPUL.0>
0

>  <SCORE.INTRA.SOLV>
2.10082

>  <SCORE.INTRA.SOLV.lig_0>
-71.0481

>  <SCORE.INTRA.VDW>
-1.25655

>  <SCORE.INTRA.VDW.0>
0.968882

>  <SCORE.INTRA.norm>
0.0915188

>  <SCORE.RESTR>
0

>  <SCORE.RESTR.CAVITY>
0

>  <SCORE.RESTR.norm>
0

>  <SCORE.SYSTEM>
0

>  <SCORE.SYSTEM.CONST>
0

>  <SCORE.SYSTEM.DIHEDRAL>
0

>  <SCORE.SYSTEM.SOLV>
0

>  <SCORE.SYSTEM.norm>
0

>  <SCORE.heavy>
12

>  <SCORE.norm>
-2.72518

>  <SYMMETRIC_BONDS>
11 12 2
5 6 2

>  <RMSD>
2.183

$$$$
1koc cryst
 OpenBabel11021811393D
libRbt.so/2013.1/901 2013/11/27
 12 11  0  0  0  0  0  0  0  0999 V2000
    4.4694    7.1821   27.6288 N   0  3  0  0  0  0  0  0  0  0  0  0
    4.1830    6.6474   28.9944 C   0  0  2  0  0  0  0  0  0  0  0  0
    5.5094    6.2284   29.6583 C   0  0  0  0  0  0  0  0  0  0  0  0
    5.6636    6.4865   30.8426 O   0  5  0  0  0  0  0  0  0  0  0  0
    3.2180    5.4372   28.8747 C   0  0  0  0  0  0  0  0  0  0  0  0
    2.6756    5.0262   30.2486 C   0  0  0  0  0  0  0  0  0  0  0  0
    1.6156    3.9436   30.0775 C   0  0  0  0  0  0  0  0  0  0  0  0
    1.6814    2.9842   31.2183 N   0  0  0  0  0  0  0  0  0  0  0  0
    2.4485    1.9230   31.1465 C   0  0  0  0  0  0  0  0  0  0  0  0
    3.6060    1.9839   30.5363 N   0  0  0  0  0  0  0  0  0  0  0  0
    2.0593    0.7998   31.6904 N   0  3  0  0  0  0  0  0  0  0  0  0
    6.3512    5.6685   28.9719 O   0  0  0  0  0  0  0  0  0  0  0  0
  2  1  1  6  0  0  0
  2  5  1  0  0  0  0
  2  3  1  0  0  0  0
  3  4  1  0  0  0  0
  3 12  2  0  0  0  0
  5  6  1  0  0  0  0
  6  7  1  0  0  0  0
  7  8  1  0  0  0  0
  8  9  1  0  0  0  0
  9 10  1  0  0  0  0
  9 11  2  0  0  0  0
M  CHG  3   1   1   4  -1  11   1
M  END
>  <CHROM.1>
60.53252257,-168.81654711,139.31372779,173.64228604,145.23842644,-90.18525952
3.65270011,4.52275579,29.97613086,1.04765725,-0.16562968,-0.54339406

>  <Name>
1koc cryst

>  <RI>
0

>  <Rbt.Current_Directory>
/home/itssahil/PROJECTS/Mol_Feturizer/New_Systems/rnas/1koc

>  <Rbt.Executable>
rbdock ($Id: //depot/dev/client3/rdock/2013.1/src/exe/rbdock.cxx#4 $)

>  <Rbt.Library>
libRbt.so (2013.1, Build901 2013/11/27)

>  <Rbt.Parameter_File>
/export/apps/rDock/src/rDock_2013.1_src/data/scripts/dock_solv.prm

>  <Rbt.Receptor>
prm/pocket_docking_4.prm

>  <SCORE>
-42.8189

>  <SCORE.INTER>
-41.3764

>  <SCORE.INTER.CONST>
1

>  <SCORE.INTER.POLAR>
-7.65291

>  <SCORE.INTER.ROT>
5

>  <SCORE.INTER.SOLV>
22.5356

>  <SCORE.INTER.VDW>
-16.5197

>  <SCORE.INTER.norm>
-3.44803

>  <SCORE.INTRA>
-1.44249

>  <SCORE.INTRA.DIHEDRAL>
1.45377

>  <SCORE.INTRA.DIHEDRAL.0>
6.04201

>  <SCORE.INTRA.POLAR>
0

>  <SCORE.INTRA.POLAR.0>
0

>  <SCORE.INTRA.REPUL>
0

>  <SCORE.INTRA.REPUL.0>
0

>  <SCORE.INTRA.SOLV>
-0.447693

>  <SCORE.INTRA.SOLV.lig_0>
-71.0481

>  <SCORE.INTRA.VDW>
-1.94552

>  <SCORE.INTRA.VDW.0>
0.968882

>  <SCORE.INTRA.norm>
-0.120207

>  <SCORE.RESTR>
0

>  <SCORE.RESTR.CAVITY>
0

>  <SCORE.RESTR.norm>
0

>  <SCORE.SYSTEM>
0

>  <SCORE.SYSTEM.CONST>
0

>  <SCORE.SYSTEM.DIHEDRAL>
0

>  <SCORE.SYSTEM.SOLV>
0

>  <SCORE.SYSTEM.norm>
0

>  <SCORE.heavy>
12

>  <SCORE.norm>
-3.56824

>  <SYMMETRIC_BONDS>
11 12 2
5 6 2

>  <RMSD>
2.186

$$$$
1koc cryst
 OpenBabel11021811393D
libRbt.so/2013.1/901 2013/11/27
 12 11  0  0  0  0  0  0  0  0999 V2000
    4.5555    7.1682   27.5217 N   0  3  0  0  0  0  0  0  0  0  0  0
    4.5191    6.8232   28.9752 C   0  0  2  0  0  0  0  0  0  0  0  0
    5.9399    6.4446   29.4375 C   0  0  0  0  0  0  0  0  0  0  0  0
    6.4448    7.1031   30.3344 O   0  5  0  0  0  0  0  0  0  0  0  0
    3.5338    5.6435   29.1933 C   0  0  0  0  0  0  0  0  0  0  0  0
    3.3333    5.3613   30.6870 C   0  0  0  0  0  0  0  0  0  0  0  0
    2.1770    4.3848   30.8727 C   0  0  0  0  0  0  0  0  0  0  0  0
    2.5692    3.0336   30.3760 N   0  0  0  0  0  0  0  0  0  0  0  0
    2.2428    1.9595   31.0538 C   0  0  0  0  0  0  0  0  0  0  0  0
    1.0949    1.8975   31.6820 N   0  0  0  0  0  0  0  0  0  0  0  0
    3.0638    0.9433   31.0993 N   0  3  0  0  0  0  0  0  0  0  0  0
    6.5027    5.5131   28.8818 O   0  0  0  0  0  0  0  0  0  0  0  0
  2  1  1  6  0  0  0
  2  5  1  0  0  0  0
  2  3  1  0  0  0  0
  3  4  1  0  0  0  0
  3 12  2  0  0  0  0
  5  6  1  0  0  0  0
  6  7  1  0  0  0  0
  7  8  1  0  0  0  0
  8  9  1  0  0  0  0
  9 10  1  0  0  0  0
  9 11  2  0  0  0  0
M  CHG  3   1   1   4  -1  11   1
M  END
>  <CHROM.1>
59.51824198,-173.21827848,120.72698636,169.53165482,69.78456880,138.13408457
3.84795078,4.67979203,29.98441932,0.98817618,-0.02118498,-0.45766708

>  <Name>
1koc cryst

>  <RI>
0

>  <Rbt.Current_Directory>
/home/itssahil/PROJECTS/Mol_Feturizer/New_Systems/rnas/1koc

>  <Rbt.Executable>
rbdock ($Id: //depot/dev/client3/rdock/2013.1/src/exe/rbdock.cxx#4 $)

>  <Rbt.Library>
libRbt.so (2013.1, Build901 2013/11/27)

>  <Rbt.Parameter_File>
/export/apps/rDock/src/rDock_2013.1_src/data/scripts/dock_solv.prm

>  <Rbt.Receptor>
prm/pocket_docking_3.prm

>  <SCORE>
-35.0884

>  <SCORE.INTER>
-31.853

>  <SCORE.INTER.CONST>
1

>  <SCORE.INTER.POLAR>
-5.79042

>  <SCORE.INTER.ROT>
5

>  <SCORE.INTER.SOLV>
23.4134

>  <SCORE.INTER.VDW>
-16.6717

>  <SCORE.INTER.norm>
-2.65441

>  <SCORE.INTRA>
-3.32419

>  <SCORE.INTRA.DIHEDRAL>
-1.62907

>  <SCORE.INTRA.DIHEDRAL.0>
6.04201

>  <SCORE.INTRA.POLAR>
0

>  <SCORE.INTRA.POLAR.0>
0

>  <SCORE.INTRA.REPUL>
0

>  <SCORE.INTRA.REPUL.0>
0

>  <SCORE.INTRA.SOLV>
-1.21256

>  <SCORE.INTRA.SOLV.lig_0>
-71.0481

>  <SCORE.INTRA.VDW>
-1.90337

>  <SCORE.INTRA.VDW.0>
0.968882

>  <SCORE.INTRA.norm>
-0.277016

>  <SCORE.RESTR>
0.0887806

>  <SCORE.RESTR.CAVITY>
0.0887806

>  <SCORE.RESTR.norm>
0.00739838

>  <SCORE.SYSTEM>
0

>  <SCORE.SYSTEM.CONST>
0

>  <SCORE.SYSTEM.DIHEDRAL>
0

>  <SCORE.SYSTEM.SOLV>
0

>  <SCORE.SYSTEM.norm>
0

>  <SCORE.heavy>
12

>  <SCORE.norm>
-2.92403

>  <SYMMETRIC_BONDS>
11 12 2
5 6 2

>  <RMSD>
2.188

$$$$
1koc cryst
 OpenBabel11021811393D
libRbt.so/2013.1/901 2013/11/27
 12 11  0  0  0  0  0  0  0  0999 V2000
    3.4468    6.1094   32.5028 N   0  3  0  0  0  0  0  0  0  0  0  0
    3.4079    4.7340   31.9202 C   0  0  2  0  0  0  0  0  0  0  0  0
    4.8454    4.1852   31.8311 C   0  0  0  0  0  0  0  0  0  0  0  0
    5.0130    2.9874   32.0052 O   0  5  0  0  0  0  0  0  0  0  0  0
    2.7511    4.7954   30.5148 C   0  0  0  0  0  0  0  0  0  0  0  0
    1.2276    4.6525   30.6112 C   0  0  0  0  0  0  0  0  0  0  0  0
    0.8325    3.2017   30.3581 C   0  0  0  0  0  0  0  0  0  0  0  0
    1.2402    2.3552   31.5172 N   0  0  0  0  0  0  0  0  0  0  0  0
    2.1417    1.4151   31.3648 C   0  0  0  0  0  0  0  0  0  0  0  0
    3.1555    1.5962   30.5553 N   0  0  0  0  0  0  0  0  0  0  0  0
    2.0317    0.2936   32.0274 N   0  3  0  0  0  0  0  0  0  0  0  0
    5.7537    4.9700   31.6022 O   0  0  0  0  0  0  0  0  0  0  0  0
  2  1  1  6  0  0  0
  2  5  1  0  0  0  0
  2  3  1  0  0  0  0
  3  4  1  0  0  0  0
  3 12  2  0  0  0  0
  5  6  1  0  0  0  0
  6  7  1  0  0  0  0
  7  8  1  0  0  0  0
  8  9  1  0  0  0  0
  9 10  1  0  0  0  0
  9 11  2  0  0  0  0
M  CHG  3   1   1   4  -1  11   1
M  END
>  <CHROM.1>
-179.38535573,-88.00258606,145.75851992,-96.63006208,71.30468421,-115.66893839
3.01801077,3.44549468,31.42614585,0.91233019,-0.25176436,-0.02933304

>  <Name>
1koc cryst

>  <RI>
0

>  <Rbt.Current_Directory>
/home/itssahil/PROJECTS/Mol_Feturizer/New_Systems/rnas/1koc

>  <Rbt.Executable>
rbdock ($Id: //depot/dev/client3/rdock/2013.1/src/exe/rbdock.cxx#4 $)

>  <Rbt.Library>
libRbt.so (2013.1, Build901 2013/11/27)

>  <Rbt.Parameter_File>
/export/apps/rDock/src/rDock_2013.1_src/data/scripts/dock_solv.prm

>  <Rbt.Receptor>
prm/pocket_docking_3.prm

>  <SCORE>
-26.8495

>  <SCORE.INTER>
-27.5233

>  <SCORE.INTER.CONST>
1

>  <SCORE.INTER.POLAR>
-5.51354

>  <SCORE.INTER.ROT>
5

>  <SCORE.INTER.SOLV>
20.6322

>  <SCORE.INTER.VDW>
-13.7811

>  <SCORE.INTER.norm>
-2.29361

>  <SCORE.INTRA>
0.673756

>  <SCORE.INTRA.DIHEDRAL>
4.27967

>  <SCORE.INTRA.DIHEDRAL.0>
6.04201

>  <SCORE.INTRA.POLAR>
-0.246221

>  <SCORE.INTRA.POLAR.0>
0

>  <SCORE.INTRA.REPUL>
0

>  <SCORE.INTRA.REPUL.0>
0

>  <SCORE.INTRA.SOLV>
4.26

>  <SCORE.INTRA.SOLV.lig_0>
-71.0481

>  <SCORE.INTRA.VDW>
-2.75893

>  <SCORE.INTRA.VDW.0>
0.968882

>  <SCORE.INTRA.norm>
0.0561463

>  <SCORE.RESTR>
0

>  <SCORE.RESTR.CAVITY>
0

>  <SCORE.RESTR.norm>
0

>  <SCORE.SYSTEM>
0

>  <SCORE.SYSTEM.CONST>
0

>  <SCORE.SYSTEM.DIHEDRAL>
0

>  <SCORE.SYSTEM.SOLV>
0

>  <SCORE.SYSTEM.norm>
0

>  <SCORE.heavy>
12

>  <SCORE.norm>
-2.23746

>  <SYMMETRIC_BONDS>
11 12 2
5 6 2

>  <RMSD>
2.190

$$$$
1koc cryst
 OpenBabel11021811393D
libRbt.so/2013.1/901 2013/11/27
 12 11  0  0  0  0  0  0  0  0999 V2000
    4.5406    7.1036   27.6831 N   0  3  0  0  0  0  0  0  0  0  0  0
    4.2503    6.5281   29.0312 C   0  0  2  0  0  0  0  0  0  0  0  0
    5.5421    5.9121   29.6033 C   0  0  0  0  0  0  0  0  0  0  0  0
    5.5713    5.6479   30.7959 O   0  5  0  0  0  0  0  0  0  0  0  0
    3.1376    5.4539   28.8968 C   0  0  0  0  0  0  0  0  0  0  0  0
    2.6532    4.9861   30.2742 C   0  0  0  0  0  0  0  0  0  0  0  0
    1.5675    3.9292   30.1032 C   0  0  0  0  0  0  0  0  0  0  0  0
    1.6209    2.9592   31.2357 N   0  0  0  0  0  0  0  0  0  0  0  0
    2.4043    1.9095   31.1709 C   0  0  0  0  0  0  0  0  0  0  0  0
    3.5745    1.9928   30.5880 N   0  0  0  0  0  0  0  0  0  0  0  0
    2.0187    0.7755   31.6946 N   0  3  0  0  0  0  0  0  0  0  0  0
    6.4821    5.7254   28.8450 O   0  0  0  0  0  0  0  0  0  0  0  0
  2  1  1  6  0  0  0
  2  5  1  0  0  0  0
  2  3  1  0  0  0  0
  3  4  1  0  0  0  0
  3 12  2  0  0  0  0
  5  6  1  0  0  0  0
  6  7  1  0  0  0  0
  7  8  1  0  0  0  0
  8  9  1  0  0  0  0
  9 10  1  0  0  0  0
  9 11  2  0  0  0  0
M  CHG  3   1   1   4  -1  11   1
M  END
>  <CHROM.1>
174.26615202,-171.34831399,164.94100573,-179.74823903,148.42880191,-87.42746371
3.64347800,4.40580781,29.97872202,1.03079216,-0.07832654,-0.53867318

>  <Name>
1koc cryst

>  <RI>
0

>  <Rbt.Current_Directory>
/home/itssahil/PROJECTS/Mol_Feturizer/New_Systems/rnas/1koc

>  <Rbt.Executable>
rbdock ($Id: //depot/dev/client3/rdock/2013.1/src/exe/rbdock.cxx#4 $)

>  <Rbt.Library>
libRbt.so (2013.1, Build901 2013/11/27)

>  <Rbt.Parameter_File>
/export/apps/rDock/src/rDock_2013.1_src/data/scripts/dock_solv.prm

>  <Rbt.Receptor>
prm/pocket_docking_3.prm

>  <SCORE>
-42.3632

>  <SCORE.INTER>
-41.5174

>  <SCORE.INTER.CONST>
1

>  <SCORE.INTER.POLAR>
-7.69317

>  <SCORE.INTER.ROT>
5

>  <SCORE.INTER.SOLV>
22.1701

>  <SCORE.INTER.VDW>
-16.3577

>  <SCORE.INTER.norm>
-3.45978

>  <SCORE.INTRA>
-0.849393

>  <SCORE.INTRA.DIHEDRAL>
0.740886

>  <SCORE.INTRA.DIHEDRAL.0>
6.04201

>  <SCORE.INTRA.POLAR>
0

>  <SCORE.INTRA.POLAR.0>
0

>  <SCORE.INTRA.REPUL>
0

>  <SCORE.INTRA.REPUL.0>
0

>  <SCORE.INTRA.SOLV>
0.404785

>  <SCORE.INTRA.SOLV.lig_0>
-71.0481

>  <SCORE.INTRA.VDW>
-1.42223

>  <SCORE.INTRA.VDW.0>
0.968882

>  <SCORE.INTRA.norm>
-0.0707828

>  <SCORE.RESTR>
0.00356981

>  <SCORE.RESTR.CAVITY>
0.00356981

>  <SCORE.RESTR.norm>
0.000297484

>  <SCORE.SYSTEM>
0

>  <SCORE.SYSTEM.CONST>
0

>  <SCORE.SYSTEM.DIHEDRAL>
0

>  <SCORE.SYSTEM.SOLV>
0

>  <SCORE.SYSTEM.norm>
0

>  <SCORE.heavy>
12

>  <SCORE.norm>
-3.53027

>  <SYMMETRIC_BONDS>
11 12 2
5 6 2

>  <RMSD>
2.196

$$$$
1koc cryst
 OpenBabel11021811393D
libRbt.so/2013.1/901 2013/11/27
 12 11  0  0  0  0  0  0  0  0999 V2000
    4.4266    7.1806   27.6065 N   0  3  0  0  0  0  0  0  0  0  0  0
    4.1620    6.6369   28.9730 C   0  0  2  0  0  0  0  0  0  0  0  0
    5.4978    6.2062   29.6097 C   0  0  0  0  0  0  0  0  0  0  0  0
    5.6189    6.3217   30.8201 O   0  5  0  0  0  0  0  0  0  0  0  0
    3.1887    5.4326   28.8615 C   0  0  0  0  0  0  0  0  0  0  0  0
    2.6705    5.0124   30.2420 C   0  0  0  0  0  0  0  0  0  0  0  0
    1.6005    3.9380   30.0819 C   0  0  0  0  0  0  0  0  0  0  0  0
    1.6712    2.9777   31.2217 N   0  0  0  0  0  0  0  0  0  0  0  0
    2.4406    1.9184   31.1472 C   0  0  0  0  0  0  0  0  0  0  0  0
    3.5967    1.9828   30.5345 N   0  0  0  0  0  0  0  0  0  0  0  0
    2.0553    0.7938   31.6910 N   0  3  0  0  0  0  0  0  0  0  0  0
    6.3792    5.7799   28.8785 O   0  0  0  0  0  0  0  0  0  0  0  0
  2  1  1  6  0  0  0
  2  5  1  0  0  0  0
  2  3  1  0  0  0  0
  3  4  1  0  0  0  0
  3 12  2  0  0  0  0
  5  6  1  0  0  0  0
  6  7  1  0  0  0  0
  7  8  1  0  0  0  0
  8  9  1  0  0  0  0
  9 10  1  0  0  0  0
  9 11  2  0  0  0  0
M  CHG  3   1   1   4  -1  11   1
M  END
>  <CHROM.1>
-179.76554571,-168.90346345,147.09360423,173.55947299,145.95704693,-89.42899642
3.63799794,4.51200725,29.95743870,1.05104047,-0.15200055,-0.54796535

>  <Name>
1koc cryst

>  <RI>
0

>  <Rbt.Current_Directory>
/home/itssahil/PROJECTS/Mol_Feturizer/New_Systems/rnas/1koc

>  <Rbt.Executable>
rbdock ($Id: //depot/dev/client3/rdock/2013.1/src/exe/rbdock.cxx#4 $)

>  <Rbt.Library>
libRbt.so (2013.1, Build901 2013/11/27)

>  <Rbt.Parameter_File>
/export/apps/rDock/src/rDock_2013.1_src/data/scripts/dock_solv.prm

>  <Rbt.Receptor>
prm/pocket_docking_8.prm

>  <SCORE>
-42.7215

>  <SCORE.INTER>
-41.3819

>  <SCORE.INTER.CONST>
1

>  <SCORE.INTER.POLAR>
-7.66431

>  <SCORE.INTER.ROT>
5

>  <SCORE.INTER.SOLV>
22.8418

>  <SCORE.INTER.VDW>
-16.5875

>  <SCORE.INTER.norm>
-3.44849

>  <SCORE.INTRA>
-1.33963

>  <SCORE.INTRA.DIHEDRAL>
1.35123

>  <SCORE.INTRA.DIHEDRAL.0>
6.04201

>  <SCORE.INTRA.POLAR>
0

>  <SCORE.INTRA.POLAR.0>
0

>  <SCORE.INTRA.REPUL>
0

>  <SCORE.INTRA.REPUL.0>
0

>  <SCORE.INTRA.SOLV>
-0.336922

>  <SCORE.INTRA.SOLV.lig_0>
-71.0481

>  <SCORE.INTRA.VDW>
-1.84679

>  <SCORE.INTRA.VDW.0>
0.968882

>  <SCORE.INTRA.norm>
-0.111636

>  <SCORE.RESTR>
0

>  <SCORE.RESTR.CAVITY>
0

>  <SCORE.RESTR.norm>
0

>  <SCORE.SYSTEM>
0

>  <SCORE.SYSTEM.CONST>
0

>  <SCORE.SYSTEM.DIHEDRAL>
0

>  <SCORE.SYSTEM.SOLV>
0

>  <SCORE.SYSTEM.norm>
0

>  <SCORE.heavy>
12

>  <SCORE.norm>
-3.56013

>  <SYMMETRIC_BONDS>
11 12 2
5 6 2

>  <RMSD>
2.200

$$$$
1koc cryst
 OpenBabel11021811393D
libRbt.so/2013.1/901 2013/11/27
 12 11  0  0  0  0  0  0  0  0999 V2000
    2.9110    8.9511   32.4004 N   0  3  0  0  0  0  0  0  0  0  0  0
    3.7905    7.8127   31.9960 C   0  0  2  0  0  0  0  0  0  0  0  0
    4.8442    8.3233   30.9937 C   0  0  0  0  0  0  0  0  0  0  0  0
    4.5457    9.2704   30.2817 O   0  5  0  0  0  0  0  0  0  0  0  0
    2.9179    6.6968   31.3607 C   0  0  0  0  0  0  0  0  0  0  0  0
    3.7881    5.6544   30.6486 C   0  0  0  0  0  0  0  0  0  0  0  0
    2.8960    4.6277   29.9593 C   0  0  0  0  0  0  0  0  0  0  0  0
    2.1575    3.8298   30.9812 N   0  0  0  0  0  0  0  0  0  0  0  0
    2.0508    2.5290   30.8540 C   0  0  0  0  0  0  0  0  0  0  0  0
    3.0421    1.8294   30.3603 N   0  0  0  0  0  0  0  0  0  0  0  0
    0.9521    1.9261   31.2259 N   0  3  0  0  0  0  0  0  0  0  0  0
    5.9245    7.7542   30.9462 O   0  0  0  0  0  0  0  0  0  0  0  0
  2  1  1  6  0  0  0
  2  5  1  0  0  0  0
  2  3  1  0  0  0  0
  3  4  1  0  0  0  0
  3 12  2  0  0  0  0
  5  6  1  0  0  0  0
  6  7  1  0  0  0  0
  7  8  1  0  0  0  0
  8  9  1  0  0  0  0
  9 10  1  0  0  0  0
  9 11  2  0  0  0  0
M  CHG  3   1   1   4  -1  11   1
M  END
>  <CHROM.1>
63.17422394,167.23859787,-29.15012847,-176.24487813,-66.75394258,-136.38587931
3.30598776,5.78128187,31.01263332,1.15878669,0.48210664,0.27779907

>  <Name>
1koc cryst

>  <RI>
0

>  <Rbt.Current_Directory>
/home/itssahil/PROJECTS/Mol_Feturizer/New_Systems/rnas/1koc

>  <Rbt.Executable>
rbdock ($Id: //depot/dev/client3/rdock/2013.1/src/exe/rbdock.cxx#4 $)

>  <Rbt.Library>
libRbt.so (2013.1, Build901 2013/11/27)

>  <Rbt.Parameter_File>
/export/apps/rDock/src/rDock_2013.1_src/data/scripts/dock_solv.prm

>  <Rbt.Receptor>
prm/pocket_docking_4.prm

>  <SCORE>
-26.2563

>  <SCORE.INTER>
-23.9199

>  <SCORE.INTER.CONST>
1

>  <SCORE.INTER.POLAR>
-3.97612

>  <SCORE.INTER.ROT>
5

>  <SCORE.INTER.SOLV>
21.581

>  <SCORE.INTER.VDW>
-16.8198

>  <SCORE.INTER.norm>
-1.99332

>  <SCORE.INTRA>
-2.33644

>  <SCORE.INTRA.DIHEDRAL>
-1.80848

>  <SCORE.INTRA.DIHEDRAL.0>
6.04201

>  <SCORE.INTRA.POLAR>
0

>  <SCORE.INTRA.POLAR.0>
0

>  <SCORE.INTRA.REPUL>
0

>  <SCORE.INTRA.REPUL.0>
0

>  <SCORE.INTRA.SOLV>
-0.462722

>  <SCORE.INTRA.SOLV.lig_0>
-71.0481

>  <SCORE.INTRA.VDW>
-1.20084

>  <SCORE.INTRA.VDW.0>
0.968882

>  <SCORE.INTRA.norm>
-0.194704

>  <SCORE.RESTR>
0

>  <SCORE.RESTR.CAVITY>
0

>  <SCORE.RESTR.norm>
0

>  <SCORE.SYSTEM>
0

>  <SCORE.SYSTEM.CONST>
0

>  <SCORE.SYSTEM.DIHEDRAL>
0

>  <SCORE.SYSTEM.SOLV>
0

>  <SCORE.SYSTEM.norm>
0

>  <SCORE.heavy>
12

>  <SCORE.norm>
-2.18802

>  <SYMMETRIC_BONDS>
11 12 2
5 6 2

>  <RMSD>
2.204

$$$$
1koc cryst
 OpenBabel11021811393D
libRbt.so/2013.1/901 2013/11/27
 12 11  0  0  0  0  0  0  0  0999 V2000
    2.3257    8.9346   32.5106 N   0  3  0  0  0  0  0  0  0  0  0  0
    3.2517    7.7704   32.3686 C   0  0  2  0  0  0  0  0  0  0  0  0
    4.5416    8.2372   31.6659 C   0  0  0  0  0  0  0  0  0  0  0  0
    5.6045    7.7772   32.0553 O   0  5  0  0  0  0  0  0  0  0  0  0
    2.5467    6.6570   31.5479 C   0  0  0  0  0  0  0  0  0  0  0  0
    3.5405    5.5670   31.1295 C   0  0  0  0  0  0  0  0  0  0  0  0
    2.8397    4.5524   30.2326 C   0  0  0  0  0  0  0  0  0  0  0  0
    1.8506    3.7689   31.0291 N   0  0  0  0  0  0  0  0  0  0  0  0
    1.8896    2.4582   31.0270 C   0  0  0  0  0  0  0  0  0  0  0  0
    3.0389    1.8309   30.9855 N   0  0  0  0  0  0  0  0  0  0  0  0
    0.7771    1.7733   31.0716 N   0  3  0  0  0  0  0  0  0  0  0  0
    4.4475    9.0525   30.7606 O   0  0  0  0  0  0  0  0  0  0  0  0
  2  1  1  6  0  0  0
  2  5  1  0  0  0  0
  2  3  1  0  0  0  0
  3  4  1  0  0  0  0
  3 12  2  0  0  0  0
  5  6  1  0  0  0  0
  6  7  1  0  0  0  0
  7  8  1  0  0  0  0
  8  9  1  0  0  0  0
  9 10  1  0  0  0  0
  9 11  2  0  0  0  0
M  CHG  3   1   1   4  -1  11   1
M  END
>  <CHROM.1>
57.09770021,168.41824118,141.02591319,-175.42379531,-69.08859446,-126.31019980
3.04130906,5.71284856,31.37466733,1.23126056,0.18891298,0.20262039

>  <Name>
1koc cryst

>  <RI>
0

>  <Rbt.Current_Directory>
/home/itssahil/PROJECTS/Mol_Feturizer/New_Systems/rnas/1koc

>  <Rbt.Executable>
rbdock ($Id: //depot/dev/client3/rdock/2013.1/src/exe/rbdock.cxx#4 $)

>  <Rbt.Library>
libRbt.so (2013.1, Build901 2013/11/27)

>  <Rbt.Parameter_File>
/export/apps/rDock/src/rDock_2013.1_src/data/scripts/dock_solv.prm

>  <Rbt.Receptor>
prm/pocket_docking_3.prm

>  <SCORE>
-34.3804

>  <SCORE.INTER>
-31.7583

>  <SCORE.INTER.CONST>
1

>  <SCORE.INTER.POLAR>
-5.38723

>  <SCORE.INTER.ROT>
5

>  <SCORE.INTER.SOLV>
23.7774

>  <SCORE.INTER.VDW>
-18.0739

>  <SCORE.INTER.norm>
-2.64652

>  <SCORE.INTRA>
-2.70368

>  <SCORE.INTRA.DIHEDRAL>
-1.72254

>  <SCORE.INTRA.DIHEDRAL.0>
6.04201

>  <SCORE.INTRA.POLAR>
0

>  <SCORE.INTRA.POLAR.0>
0

>  <SCORE.INTRA.REPUL>
0

>  <SCORE.INTRA.REPUL.0>
0

>  <SCORE.INTRA.SOLV>
-0.591996

>  <SCORE.INTRA.SOLV.lig_0>
-71.0481

>  <SCORE.INTRA.VDW>
-1.54641

>  <SCORE.INTRA.VDW.0>
0.968882

>  <SCORE.INTRA.norm>
-0.225307

>  <SCORE.RESTR>
0.0815894

>  <SCORE.RESTR.CAVITY>
0.0815894

>  <SCORE.RESTR.norm>
0.00679911

>  <SCORE.SYSTEM>
0

>  <SCORE.SYSTEM.CONST>
0

>  <SCORE.SYSTEM.DIHEDRAL>
0

>  <SCORE.SYSTEM.SOLV>
0

>  <SCORE.SYSTEM.norm>
0

>  <SCORE.heavy>
12

>  <SCORE.norm>
-2.86503

>  <SYMMETRIC_BONDS>
11 12 2
5 6 2

>  <RMSD>
2.208

$$$$
1koc cryst
 OpenBabel11021811393D
libRbt.so/2013.1/901 2013/11/27
 12 11  0  0  0  0  0  0  0  0999 V2000
    2.2820    7.8825   33.5945 N   0  3  0  0  0  0  0  0  0  0  0  0
    3.1065    7.2240   32.5364 C   0  0  2  0  0  0  0  0  0  0  0  0
    3.6754    8.3054   31.5971 C   0  0  0  0  0  0  0  0  0  0  0  0
    3.4226    9.4739   31.8495 O   0  5  0  0  0  0  0  0  0  0  0  0
    2.2194    6.2206   31.7514 C   0  0  0  0  0  0  0  0  0  0  0  0
    3.0550    5.0585   31.2016 C   0  0  0  0  0  0  0  0  0  0  0  0
    2.2211    4.2516   30.2124 C   0  0  0  0  0  0  0  0  0  0  0  0
    2.7126    2.8437   30.1644 N   0  0  0  0  0  0  0  0  0  0  0  0
    2.3026    1.9695   31.0519 C   0  0  0  0  0  0  0  0  0  0  0  0
    1.0707    2.0062   31.4959 N   0  0  0  0  0  0  0  0  0  0  0  0
    3.1249    1.0537   31.4923 N   0  3  0  0  0  0  0  0  0  0  0  0
    4.3429    7.9488   30.6376 O   0  0  0  0  0  0  0  0  0  0  0  0
  2  1  1  1  0  0  0
  2  5  1  0  0  0  0
  2  3  1  0  0  0  0
  3  4  1  0  0  0  0
  3 12  2  0  0  0  0
  5  6  1  0  0  0  0
  6  7  1  0  0  0  0
  7  8  1  0  0  0  0
  8  9  1  0  0  0  0
  9 10  1  0  0  0  0
  9 11  2  0  0  0  0
M  CHG  3   1   1   4  -1  11   1
M  END
>  <CHROM.1>
-164.92113050,-150.96032371,1.83838364,-168.68731227,-153.40036672,83.86371651
2.78637620,5.36223813,31.49131591,1.31087907,0.92475260,0.36110537

>  <Name>
1koc cryst

>  <RI>
0

>  <Rbt.Current_Directory>
/home/itssahil/PROJECTS/Mol_Feturizer/New_Systems/rnas/1koc

>  <Rbt.Executable>
rbdock ($Id: //depot/dev/client3/rdock/2013.1/src/exe/rbdock.cxx#4 $)

>  <Rbt.Library>
libRbt.so (2013.1, Build901 2013/11/27)

>  <Rbt.Parameter_File>
/export/apps/rDock/src/rDock_2013.1_src/data/scripts/dock_solv.prm

>  <Rbt.Receptor>
prm/pocket_docking_8.prm

>  <SCORE>
-31.355

>  <SCORE.INTER>
-30.5848

>  <SCORE.INTER.CONST>
1

>  <SCORE.INTER.POLAR>
-5.41383

>  <SCORE.INTER.ROT>
5

>  <SCORE.INTER.SOLV>
29.0519

>  <SCORE.INTER.VDW>
-18.9611

>  <SCORE.INTER.norm>
-2.54874

>  <SCORE.INTRA>
-0.770185

>  <SCORE.INTRA.DIHEDRAL>
3.15715

>  <SCORE.INTRA.DIHEDRAL.0>
6.04201

>  <SCORE.INTRA.POLAR>
0

>  <SCORE.INTRA.POLAR.0>
0

>  <SCORE.INTRA.REPUL>
0

>  <SCORE.INTRA.REPUL.0>
0

>  <SCORE.INTRA.SOLV>
-0.888653

>  <SCORE.INTRA.SOLV.lig_0>
-71.0481

>  <SCORE.INTRA.VDW>
-1.90444

>  <SCORE.INTRA.VDW.0>
0.968882

>  <SCORE.INTRA.norm>
-0.064182

>  <SCORE.RESTR>
0

>  <SCORE.RESTR.CAVITY>
0

>  <SCORE.RESTR.norm>
0

>  <SCORE.SYSTEM>
0

>  <SCORE.SYSTEM.CONST>
0

>  <SCORE.SYSTEM.DIHEDRAL>
0

>  <SCORE.SYSTEM.SOLV>
0

>  <SCORE.SYSTEM.norm>
0

>  <SCORE.heavy>
12

>  <SCORE.norm>
-2.61292

>  <SYMMETRIC_BONDS>
11 12 2
5 6 2

>  <RMSD>
2.211

$$$$
1koc cryst
 OpenBabel11021811393D
libRbt.so/2013.1/901 2013/11/27
 12 11  0  0  0  0  0  0  0  0999 V2000
    4.4620    7.2599   27.5850 N   0  3  0  0  0  0  0  0  0  0  0  0
    4.2065    6.7065   28.9494 C   0  0  2  0  0  0  0  0  0  0  0  0
    5.5485    6.2876   29.5811 C   0  0  0  0  0  0  0  0  0  0  0  0
    5.6975    6.4665   30.7806 O   0  5  0  0  0  0  0  0  0  0  0  0
    3.2464    5.4920   28.8340 C   0  0  0  0  0  0  0  0  0  0  0  0
    2.8052    5.0041   30.2190 C   0  0  0  0  0  0  0  0  0  0  0  0
    1.7001    3.9645   30.0674 C   0  0  0  0  0  0  0  0  0  0  0  0
    1.7425    3.0084   31.2121 N   0  0  0  0  0  0  0  0  0  0  0  0
    2.4823    1.9278   31.1441 C   0  0  0  0  0  0  0  0  0  0  0  0
    3.6406    1.9569   30.5330 N   0  0  0  0  0  0  0  0  0  0  0  0
    2.0651    0.8171   31.6929 N   0  3  0  0  0  0  0  0  0  0  0  0
    6.4068    5.8068   28.8562 O   0  0  0  0  0  0  0  0  0  0  0  0
  2  1  1  6  0  0  0
  2  5  1  0  0  0  0
  2  3  1  0  0  0  0
  3  4  1  0  0  0  0
  3 12  2  0  0  0  0
  5  6  1  0  0  0  0
  6  7  1  0  0  0  0
  7  8  1  0  0  0  0
  8  9  1  0  0  0  0
  9 10  1  0  0  0  0
  9 11  2  0  0  0  0
M  CHG  3   1   1   4  -1  11   1
M  END
>  <CHROM.1>
-62.96813564,-172.45398061,143.17143240,171.05532124,150.97607914,-89.05554797
3.69502707,4.55546020,29.93982555,1.05761403,-0.16547163,-0.54937495

>  <Name>
1koc cryst

>  <RI>
0

>  <Rbt.Current_Directory>
/home/itssahil/PROJECTS/Mol_Feturizer/New_Systems/rnas/1koc

>  <Rbt.Executable>
rbdock ($Id: //depot/dev/client3/rdock/2013.1/src/exe/rbdock.cxx#4 $)

>  <Rbt.Library>
libRbt.so (2013.1, Build901 2013/11/27)

>  <Rbt.Parameter_File>
/export/apps/rDock/src/rDock_2013.1_src/data/scripts/dock_solv.prm

>  <Rbt.Receptor>
prm/pocket_docking_4.prm

>  <SCORE>
-42.7619

>  <SCORE.INTER>
-41.0547

>  <SCORE.INTER.CONST>
1

>  <SCORE.INTER.POLAR>
-7.62972

>  <SCORE.INTER.ROT>
5

>  <SCORE.INTER.SOLV>
22.5718

>  <SCORE.INTER.VDW>
-16.3947

>  <SCORE.INTER.norm>
-3.42122

>  <SCORE.INTRA>
-1.70722

>  <SCORE.INTRA.DIHEDRAL>
0.584817

>  <SCORE.INTRA.DIHEDRAL.0>
6.04201

>  <SCORE.INTRA.POLAR>
0

>  <SCORE.INTRA.POLAR.0>
0

>  <SCORE.INTRA.REPUL>
0

>  <SCORE.INTRA.REPUL.0>
0

>  <SCORE.INTRA.SOLV>
-0.504386

>  <SCORE.INTRA.SOLV.lig_0>
-71.0481

>  <SCORE.INTRA.VDW>
-1.74743

>  <SCORE.INTRA.VDW.0>
0.968882

>  <SCORE.INTRA.norm>
-0.142268

>  <SCORE.RESTR>
0

>  <SCORE.RESTR.CAVITY>
0

>  <SCORE.RESTR.norm>
0

>  <SCORE.SYSTEM>
0

>  <SCORE.SYSTEM.CONST>
0

>  <SCORE.SYSTEM.DIHEDRAL>
0

>  <SCORE.SYSTEM.SOLV>
0

>  <SCORE.SYSTEM.norm>
0

>  <SCORE.heavy>
12

>  <SCORE.norm>
-3.56349

>  <SYMMETRIC_BONDS>
11 12 2
5 6 2

>  <RMSD>
2.212

$$$$
1koc cryst
 OpenBabel11021811393D
libRbt.so/2013.1/901 2013/11/27
 12 11  0  0  0  0  0  0  0  0999 V2000
    7.0346    4.9665   32.7801 N   0  3  0  0  0  0  0  0  0  0  0  0
    5.8803    4.7774   31.8503 C   0  0  2  0  0  0  0  0  0  0  0  0
    4.6202    5.4028   32.4800 C   0  0  0  0  0  0  0  0  0  0  0  0
    3.8054    5.9244   31.7336 O   0  5  0  0  0  0  0  0  0  0  0  0
    5.6760    3.2597   31.5952 C   0  0  0  0  0  0  0  0  0  0  0  0
    5.1105    3.0073   30.1926 C   0  0  0  0  0  0  0  0  0  0  0  0
    3.5867    3.0295   30.2436 C   0  0  0  0  0  0  0  0  0  0  0  0
    3.0661    1.6479   30.4595 N   0  0  0  0  0  0  0  0  0  0  0  0
    2.1067    1.4308   31.3267 C   0  0  0  0  0  0  0  0  0  0  0  0
    1.1468    2.3082   31.4843 N   0  0  0  0  0  0  0  0  0  0  0  0
    2.1046    0.3316   32.0342 N   0  3  0  0  0  0  0  0  0  0  0  0
    4.4957    5.3605   33.6950 O   0  0  0  0  0  0  0  0  0  0  0  0
  2  1  1  1  0  0  0
  2  5  1  0  0  0  0
  2  3  1  0  0  0  0
  3  4  1  0  0  0  0
  3 12  2  0  0  0  0
  5  6  1  0  0  0  0
  6  7  1  0  0  0  0
  7  8  1  0  0  0  0
  8  9  1  0  0  0  0
  9 10  1  0  0  0  0
  9 11  2  0  0  0  0
M  CHG  3   1   1   4  -1  11   1
M  END
>  <CHROM.1>
-51.24186039,-149.19326385,145.52261930,-89.41319279,-92.23858907,135.51128153
4.05299114,3.45896650,31.69266396,-0.82361635,-0.22572915,-2.62088583

>  <Name>
1koc cryst

>  <RI>
0

>  <Rbt.Current_Directory>
/home/itssahil/PROJECTS/Mol_Feturizer/New_Systems/rnas/1koc

>  <Rbt.Executable>
rbdock ($Id: //depot/dev/client3/rdock/2013.1/src/exe/rbdock.cxx#4 $)

>  <Rbt.Library>
libRbt.so (2013.1, Build901 2013/11/27)

>  <Rbt.Parameter_File>
/export/apps/rDock/src/rDock_2013.1_src/data/scripts/dock_solv.prm

>  <Rbt.Receptor>
prm/pocket_docking_3.prm

>  <SCORE>
-29.4987

>  <SCORE.INTER>
-29.9292

>  <SCORE.INTER.CONST>
1

>  <SCORE.INTER.POLAR>
-5.90633

>  <SCORE.INTER.ROT>
5

>  <SCORE.INTER.SOLV>
23.4363

>  <SCORE.INTER.VDW>
-15.0105

>  <SCORE.INTER.norm>
-2.4941

>  <SCORE.INTRA>
0.416254

>  <SCORE.INTRA.DIHEDRAL>
6.32531

>  <SCORE.INTRA.DIHEDRAL.0>
6.04201

>  <SCORE.INTRA.POLAR>
0

>  <SCORE.INTRA.POLAR.0>
0

>  <SCORE.INTRA.REPUL>
0

>  <SCORE.INTRA.REPUL.0>
0

>  <SCORE.INTRA.SOLV>
-0.403107

>  <SCORE.INTRA.SOLV.lig_0>
-71.0481

>  <SCORE.INTRA.VDW>
-2.54485

>  <SCORE.INTRA.VDW.0>
0.968882

>  <SCORE.INTRA.norm>
0.0346879

>  <SCORE.RESTR>
0.0142474

>  <SCORE.RESTR.CAVITY>
0.0142474

>  <SCORE.RESTR.norm>
0.00118728

>  <SCORE.SYSTEM>
0

>  <SCORE.SYSTEM.CONST>
0

>  <SCORE.SYSTEM.DIHEDRAL>
0

>  <SCORE.SYSTEM.SOLV>
0

>  <SCORE.SYSTEM.norm>
0

>  <SCORE.heavy>
12

>  <SCORE.norm>
-2.45823

>  <SYMMETRIC_BONDS>
11 12 2
5 6 2

>  <RMSD>
2.216

$$$$
1koc cryst
 OpenBabel11021811393D
libRbt.so/2013.1/901 2013/11/27
 12 11  0  0  0  0  0  0  0  0999 V2000
    4.4797    7.1850   27.6471 N   0  3  0  0  0  0  0  0  0  0  0  0
    4.2348    6.6009   29.0005 C   0  0  2  0  0  0  0  0  0  0  0  0
    5.5689    6.0843   29.5737 C   0  0  0  0  0  0  0  0  0  0  0  0
    5.7048    6.0739   30.7880 O   0  5  0  0  0  0  0  0  0  0  0  0
    3.2022    5.4481   28.8776 C   0  0  0  0  0  0  0  0  0  0  0  0
    2.6637    5.0409   30.2542 C   0  0  0  0  0  0  0  0  0  0  0  0
    1.6051    3.9559   30.0892 C   0  0  0  0  0  0  0  0  0  0  0  0
    1.6818    2.9948   31.2279 N   0  0  0  0  0  0  0  0  0  0  0  0
    2.4466    1.9327   31.1465 C   0  0  0  0  0  0  0  0  0  0  0  0
    3.5977    1.9929   30.5240 N   0  0  0  0  0  0  0  0  0  0  0  0
    2.0617    0.8093   31.6930 N   0  3  0  0  0  0  0  0  0  0  0  0
    6.4345    5.7192   28.7922 O   0  0  0  0  0  0  0  0  0  0  0  0
  2  1  1  6  0  0  0
  2  5  1  0  0  0  0
  2  3  1  0  0  0  0
  3  4  1  0  0  0  0
  3 12  2  0  0  0  0
  5  6  1  0  0  0  0
  6  7  1  0  0  0  0
  7  8  1  0  0  0  0
  8  9  1  0  0  0  0
  9 10  1  0  0  0  0
  9 11  2  0  0  0  0
M  CHG  3   1   1   4  -1  11   1
M  END
>  <CHROM.1>
-63.25248297,-166.36895371,151.27995590,177.26902808,144.82637037,-90.46921939
3.66919874,4.48313188,29.95276898,1.04056712,-0.10244066,-0.53615792

>  <Name>
1koc cryst

>  <RI>
0

>  <Rbt.Current_Directory>
/home/itssahil/PROJECTS/Mol_Feturizer/New_Systems/rnas/1koc

>  <Rbt.Executable>
rbdock ($Id: //depot/dev/client3/rdock/2013.1/src/exe/rbdock.cxx#4 $)

>  <Rbt.Library>
libRbt.so (2013.1, Build901 2013/11/27)

>  <Rbt.Parameter_File>
/export/apps/rDock/src/rDock_2013.1_src/data/scripts/dock_solv.prm

>  <Rbt.Receptor>
prm/pocket_docking_4.prm

>  <SCORE>
-42.6545

>  <SCORE.INTER>
-41.4134

>  <SCORE.INTER.CONST>
1

>  <SCORE.INTER.POLAR>
-7.641

>  <SCORE.INTER.ROT>
5

>  <SCORE.INTER.SOLV>
22.5639

>  <SCORE.INTER.VDW>
-16.5935

>  <SCORE.INTER.norm>
-3.45111

>  <SCORE.INTRA>
-1.24114

>  <SCORE.INTRA.DIHEDRAL>
1.59975

>  <SCORE.INTRA.DIHEDRAL.0>
6.04201

>  <SCORE.INTRA.POLAR>
0

>  <SCORE.INTRA.POLAR.0>
0

>  <SCORE.INTRA.REPUL>
0

>  <SCORE.INTRA.REPUL.0>
0

>  <SCORE.INTRA.SOLV>
-0.194258

>  <SCORE.INTRA.SOLV.lig_0>
-71.0481

>  <SCORE.INTRA.VDW>
-1.94389

>  <SCORE.INTRA.VDW.0>
0.968882

>  <SCORE.INTRA.norm>
-0.103428

>  <SCORE.RESTR>
0

>  <SCORE.RESTR.CAVITY>
0

>  <SCORE.RESTR.norm>
0

>  <SCORE.SYSTEM>
0

>  <SCORE.SYSTEM.CONST>
0

>  <SCORE.SYSTEM.DIHEDRAL>
0

>  <SCORE.SYSTEM.SOLV>
0

>  <SCORE.SYSTEM.norm>
0

>  <SCORE.heavy>
12

>  <SCORE.norm>
-3.55454

>  <SYMMETRIC_BONDS>
11 12 2
5 6 2

>  <RMSD>
2.217

$$$$
1koc cryst
 OpenBabel11021811393D
libRbt.so/2013.1/901 2013/11/27
 12 11  0  0  0  0  0  0  0  0999 V2000
    5.3157    4.7292   34.0349 N   0  3  0  0  0  0  0  0  0  0  0  0
    5.0107    5.5807   32.8455 C   0  0  2  0  0  0  0  0  0  0  0  0
    3.6248    6.2285   33.0334 C   0  0  0  0  0  0  0  0  0  0  0  0
    3.4654    6.9729   33.9892 O   0  5  0  0  0  0  0  0  0  0  0  0
    5.0406    4.6993   31.5679 C   0  0  0  0  0  0  0  0  0  0  0  0
    4.1866    3.4387   31.7473 C   0  0  0  0  0  0  0  0  0  0  0  0
    3.7453    2.9209   30.3827 C   0  0  0  0  0  0  0  0  0  0  0  0
    3.1551    1.5578   30.5239 N   0  0  0  0  0  0  0  0  0  0  0  0
    2.1592    1.3508   31.3516 C   0  0  0  0  0  0  0  0  0  0  0  0
    1.2361    2.2654   31.5171 N   0  0  0  0  0  0  0  0  0  0  0  0
    2.0838    0.2248   32.0113 N   0  3  0  0  0  0  0  0  0  0  0  0
    2.7451    5.9621   32.2282 O   0  0  0  0  0  0  0  0  0  0  0  0
  2  1  1  1  0  0  0
  2  5  1  0  0  0  0
  2  3  1  0  0  0  0
  3  4  1  0  0  0  0
  3 12  2  0  0  0  0
  5  6  1  0  0  0  0
  6  7  1  0  0  0  0
  7  8  1  0  0  0  0
  8  9  1  0  0  0  0
  9 10  1  0  0  0  0
  9 11  2  0  0  0  0
M  CHG  3   1   1   4  -1  11   1
M  END
>  <CHROM.1>
-170.62130889,50.06778673,61.25367928,156.00867308,168.61094405,55.23905328
3.46395274,3.81310446,32.14080921,-1.22586510,-0.08509901,-2.70851835

>  <Name>
1koc cryst

>  <RI>
0

>  <Rbt.Current_Directory>
/home/itssahil/PROJECTS/Mol_Feturizer/New_Systems/rnas/1koc

>  <Rbt.Executable>
rbdock ($Id: //depot/dev/client3/rdock/2013.1/src/exe/rbdock.cxx#4 $)

>  <Rbt.Library>
libRbt.so (2013.1, Build901 2013/11/27)

>  <Rbt.Parameter_File>
/export/apps/rDock/src/rDock_2013.1_src/data/scripts/dock_solv.prm

>  <Rbt.Receptor>
prm/pocket_docking_4.prm

>  <SCORE>
-26.6627

>  <SCORE.INTER>
-28.1382

>  <SCORE.INTER.CONST>
1

>  <SCORE.INTER.POLAR>
-5.58737

>  <SCORE.INTER.ROT>
5

>  <SCORE.INTER.SOLV>
29.9722

>  <SCORE.INTER.VDW>
-17.0583

>  <SCORE.INTER.norm>
-2.34485

>  <SCORE.INTRA>
1.4755

>  <SCORE.INTRA.DIHEDRAL>
0.543025

>  <SCORE.INTRA.DIHEDRAL.0>
6.04201

>  <SCORE.INTRA.POLAR>
0

>  <SCORE.INTRA.POLAR.0>
0

>  <SCORE.INTRA.REPUL>
0

>  <SCORE.INTRA.REPUL.0>
0

>  <SCORE.INTRA.SOLV>
1.37754

>  <SCORE.INTRA.SOLV.lig_0>
-71.0481

>  <SCORE.INTRA.VDW>
0.515213

>  <SCORE.INTRA.VDW.0>
0.968882

>  <SCORE.INTRA.norm>
0.122958

>  <SCORE.RESTR>
0

>  <SCORE.RESTR.CAVITY>
0

>  <SCORE.RESTR.norm>
0

>  <SCORE.SYSTEM>
0

>  <SCORE.SYSTEM.CONST>
0

>  <SCORE.SYSTEM.DIHEDRAL>
0

>  <SCORE.SYSTEM.SOLV>
0

>  <SCORE.SYSTEM.norm>
0

>  <SCORE.heavy>
12

>  <SCORE.norm>
-2.22189

>  <SYMMETRIC_BONDS>
11 12 2
5 6 2

>  <RMSD>
2.223

$$$$
1koc cryst
 OpenBabel11021811393D
libRbt.so/2013.1/901 2013/11/27
 12 11  0  0  0  0  0  0  0  0999 V2000
    2.2688    8.9277   32.5339 N   0  3  0  0  0  0  0  0  0  0  0  0
    3.2384    7.7957   32.4274 C   0  0  2  0  0  0  0  0  0  0  0  0
    4.5454    8.3116   31.7941 C   0  0  0  0  0  0  0  0  0  0  0  0
    5.6012    7.9950   32.3213 O   0  5  0  0  0  0  0  0  0  0  0  0
    2.6118    6.6690   31.5626 C   0  0  0  0  0  0  0  0  0  0  0  0
    3.6561    5.6065   31.2000 C   0  0  0  0  0  0  0  0  0  0  0  0
    3.0210    4.5499   30.3027 C   0  0  0  0  0  0  0  0  0  0  0  0
    2.0100    3.7699   31.0746 N   0  0  0  0  0  0  0  0  0  0  0  0
    2.0313    2.4588   31.0559 C   0  0  0  0  0  0  0  0  0  0  0  0
    3.1724    1.8164   31.0225 N   0  0  0  0  0  0  0  0  0  0  0  0
    0.9090    1.7888   31.0757 N   0  3  0  0  0  0  0  0  0  0  0  0
    4.4697    9.0216   30.8024 O   0  0  0  0  0  0  0  0  0  0  0  0
  2  1  1  6  0  0  0
  2  5  1  0  0  0  0
  2  3  1  0  0  0  0
  3  4  1  0  0  0  0
  3 12  2  0  0  0  0
  5  6  1  0  0  0  0
  6  7  1  0  0  0  0
  7  8  1  0  0  0  0
  8  9  1  0  0  0  0
  9 10  1  0  0  0  0
  9 11  2  0  0  0  0
M  CHG  3   1   1   4  -1  11   1
M  END
>  <CHROM.1>
57.88456767,169.17918217,133.36831903,-177.58135360,-67.72626077,-130.09461190
3.11311775,5.74026224,31.44002046,1.25595469,0.16317607,0.20123528

>  <Name>
1koc cryst

>  <RI>
0

>  <Rbt.Current_Directory>
/home/itssahil/PROJECTS/Mol_Feturizer/New_Systems/rnas/1koc

>  <Rbt.Executable>
rbdock ($Id: //depot/dev/client3/rdock/2013.1/src/exe/rbdock.cxx#4 $)

>  <Rbt.Library>
libRbt.so (2013.1, Build901 2013/11/27)

>  <Rbt.Parameter_File>
/export/apps/rDock/src/rDock_2013.1_src/data/scripts/dock_solv.prm

>  <Rbt.Receptor>
prm/pocket_docking_4.prm

>  <SCORE>
-34.4593

>  <SCORE.INTER>
-31.5912

>  <SCORE.INTER.CONST>
1

>  <SCORE.INTER.POLAR>
-5.37423

>  <SCORE.INTER.ROT>
5

>  <SCORE.INTER.SOLV>
23.7722

>  <SCORE.INTER.VDW>
-18.0041

>  <SCORE.INTER.norm>
-2.6326

>  <SCORE.INTRA>
-2.86815

>  <SCORE.INTRA.DIHEDRAL>
-1.93912

>  <SCORE.INTRA.DIHEDRAL.0>
6.04201

>  <SCORE.INTRA.POLAR>
0

>  <SCORE.INTRA.POLAR.0>
0

>  <SCORE.INTRA.REPUL>
0

>  <SCORE.INTRA.REPUL.0>
0

>  <SCORE.INTRA.SOLV>
-0.6782

>  <SCORE.INTRA.SOLV.lig_0>
-71.0481

>  <SCORE.INTRA.VDW>
-1.55949

>  <SCORE.INTRA.VDW.0>
0.968882

>  <SCORE.INTRA.norm>
-0.239012

>  <SCORE.RESTR>
0

>  <SCORE.RESTR.CAVITY>
0

>  <SCORE.RESTR.norm>
0

>  <SCORE.SYSTEM>
0

>  <SCORE.SYSTEM.CONST>
0

>  <SCORE.SYSTEM.DIHEDRAL>
0

>  <SCORE.SYSTEM.SOLV>
0

>  <SCORE.SYSTEM.norm>
0

>  <SCORE.heavy>
12

>  <SCORE.norm>
-2.87161

>  <SYMMETRIC_BONDS>
11 12 2
5 6 2

>  <RMSD>
2.227

$$$$
1koc cryst
 OpenBabel11021811393D
libRbt.so/2013.1/901 2013/11/27
 12 11  0  0  0  0  0  0  0  0999 V2000
    3.1217    7.0577   32.8177 N   0  3  0  0  0  0  0  0  0  0  0  0
    4.0303    6.4687   31.7880 C   0  0  2  0  0  0  0  0  0  0  0  0
    4.1506    7.4487   30.6045 C   0  0  0  0  0  0  0  0  0  0  0  0
    4.1323    6.9860   29.4737 O   0  5  0  0  0  0  0  0  0  0  0  0
    3.4534    5.1053   31.3207 C   0  0  0  0  0  0  0  0  0  0  0  0
    2.0933    5.2872   30.6366 C   0  0  0  0  0  0  0  0  0  0  0  0
    1.5795    3.9361   30.1515 C   0  0  0  0  0  0  0  0  0  0  0  0
    1.6297    2.9445   31.2654 N   0  0  0  0  0  0  0  0  0  0  0  0
    2.4034    1.8894   31.1772 C   0  0  0  0  0  0  0  0  0  0  0  0
    3.5715    1.9734   30.5902 N   0  0  0  0  0  0  0  0  0  0  0  0
    2.0103    0.7493   31.6815 N   0  3  0  0  0  0  0  0  0  0  0  0
    4.2701    8.6404   30.8468 O   0  0  0  0  0  0  0  0  0  0  0  0
  2  1  1  1  0  0  0
  2  5  1  0  0  0  0
  2  3  1  0  0  0  0
  3  4  1  0  0  0  0
  3 12  2  0  0  0  0
  5  6  1  0  0  0  0
  6  7  1  0  0  0  0
  7  8  1  0  0  0  0
  8  9  1  0  0  0  0
  9 10  1  0  0  0  0
  9 11  2  0  0  0  0
M  CHG  3   1   1   4  -1  11   1
M  END
>  <CHROM.1>
60.38937669,63.26815937,-138.45780186,178.16679158,51.13077590,-116.63524701
3.03682198,4.88055839,31.05140474,0.87398438,1.11986724,0.61986471

>  <Name>
1koc cryst

>  <RI>
0

>  <Rbt.Current_Directory>
/home/itssahil/PROJECTS/Mol_Feturizer/New_Systems/rnas/1koc

>  <Rbt.Executable>
rbdock ($Id: //depot/dev/client3/rdock/2013.1/src/exe/rbdock.cxx#4 $)

>  <Rbt.Library>
libRbt.so (2013.1, Build901 2013/11/27)

>  <Rbt.Parameter_File>
/export/apps/rDock/src/rDock_2013.1_src/data/scripts/dock_solv.prm

>  <Rbt.Receptor>
prm/pocket_docking_2.prm

>  <SCORE>
-28.4879

>  <SCORE.INTER>
-28.0105

>  <SCORE.INTER.CONST>
1

>  <SCORE.INTER.POLAR>
-5.16749

>  <SCORE.INTER.ROT>
5

>  <SCORE.INTER.SOLV>
21.7034

>  <SCORE.INTER.VDW>
-15.6165

>  <SCORE.INTER.norm>
-2.33421

>  <SCORE.INTRA>
-0.498045

>  <SCORE.INTRA.DIHEDRAL>
-2.26101

>  <SCORE.INTRA.DIHEDRAL.0>
6.04201

>  <SCORE.INTRA.POLAR>
0

>  <SCORE.INTRA.POLAR.0>
0

>  <SCORE.INTRA.REPUL>
0

>  <SCORE.INTRA.REPUL.0>
0

>  <SCORE.INTRA.SOLV>
1.43541

>  <SCORE.INTRA.SOLV.lig_0>
-71.0481

>  <SCORE.INTRA.VDW>
-0.085245

>  <SCORE.INTRA.VDW.0>
0.968882

>  <SCORE.INTRA.norm>
-0.0415037

>  <SCORE.RESTR>
0.0206336

>  <SCORE.RESTR.CAVITY>
0.0206336

>  <SCORE.RESTR.norm>
0.00171946

>  <SCORE.SYSTEM>
0

>  <SCORE.SYSTEM.CONST>
0

>  <SCORE.SYSTEM.DIHEDRAL>
0

>  <SCORE.SYSTEM.SOLV>
0

>  <SCORE.SYSTEM.norm>
0

>  <SCORE.heavy>
12

>  <SCORE.norm>
-2.37399

>  <SYMMETRIC_BONDS>
11 12 2
5 6 2

>  <RMSD>
2.228

$$$$
1koc cryst
 OpenBabel11021811393D
libRbt.so/2013.1/901 2013/11/27
 12 11  0  0  0  0  0  0  0  0999 V2000
    4.5614    7.1821   27.4993 N   0  3  0  0  0  0  0  0  0  0  0  0
    4.5501    6.7922   28.9417 C   0  0  2  0  0  0  0  0  0  0  0  0
    5.9594    6.3154   29.3444 C   0  0  0  0  0  0  0  0  0  0  0  0
    6.6019    7.0134   30.1143 O   0  5  0  0  0  0  0  0  0  0  0  0
    3.5030    5.6662   29.1560 C   0  0  0  0  0  0  0  0  0  0  0  0
    3.3588    5.3227   30.6433 C   0  0  0  0  0  0  0  0  0  0  0  0
    2.1963    4.3548   30.8347 C   0  0  0  0  0  0  0  0  0  0  0  0
    2.5823    2.9965   30.3527 N   0  0  0  0  0  0  0  0  0  0  0  0
    2.2490    1.9312   31.0410 C   0  0  0  0  0  0  0  0  0  0  0  0
    1.0998    1.8817   31.6676 N   0  0  0  0  0  0  0  0  0  0  0  0
    3.0647    0.9113   31.0985 N   0  3  0  0  0  0  0  0  0  0  0  0
    6.3766    5.2696   28.8695 O   0  0  0  0  0  0  0  0  0  0  0  0
  2  1  1  6  0  0  0
  2  5  1  0  0  0  0
  2  3  1  0  0  0  0
  3  4  1  0  0  0  0
  3 12  2  0  0  0  0
  5  6  1  0  0  0  0
  6  7  1  0  0  0  0
  7  8  1  0  0  0  0
  8  9  1  0  0  0  0
  9 10  1  0  0  0  0
  9 11  2  0  0  0  0
M  CHG  3   1   1   4  -1  11   1
M  END
>  <CHROM.1>
-63.37961249,-174.64448190,111.23054504,172.40304727,73.74724879,138.03568920
3.85806741,4.62651662,29.93846668,0.98905195,0.01498563,-0.44712202

>  <Name>
1koc cryst

>  <RI>
0

>  <Rbt.Current_Directory>
/home/itssahil/PROJECTS/Mol_Feturizer/New_Systems/rnas/1koc

>  <Rbt.Executable>
rbdock ($Id: //depot/dev/client3/rdock/2013.1/src/exe/rbdock.cxx#4 $)

>  <Rbt.Library>
libRbt.so (2013.1, Build901 2013/11/27)

>  <Rbt.Parameter_File>
/export/apps/rDock/src/rDock_2013.1_src/data/scripts/dock_solv.prm

>  <Rbt.Receptor>
prm/pocket_docking_3.prm

>  <SCORE>
-35.4875

>  <SCORE.INTER>
-32.4609

>  <SCORE.INTER.CONST>
1

>  <SCORE.INTER.POLAR>
-5.92632

>  <SCORE.INTER.ROT>
5

>  <SCORE.INTER.SOLV>
23.8232

>  <SCORE.INTER.VDW>
-16.7606

>  <SCORE.INTER.norm>
-2.70507

>  <SCORE.INTRA>
-3.23583

>  <SCORE.INTRA.DIHEDRAL>
-1.5451

>  <SCORE.INTRA.DIHEDRAL.0>
6.04201

>  <SCORE.INTRA.POLAR>
0

>  <SCORE.INTRA.POLAR.0>
0

>  <SCORE.INTRA.REPUL>
0

>  <SCORE.INTRA.REPUL.0>
0

>  <SCORE.INTRA.SOLV>
-1.23498

>  <SCORE.INTRA.SOLV.lig_0>
-71.0481

>  <SCORE.INTRA.VDW>
-1.84579

>  <SCORE.INTRA.VDW.0>
0.968882

>  <SCORE.INTRA.norm>
-0.269652

>  <SCORE.RESTR>
0.209217

>  <SCORE.RESTR.CAVITY>
0.209217

>  <SCORE.RESTR.norm>
0.0174348

>  <SCORE.SYSTEM>
0

>  <SCORE.SYSTEM.CONST>
0

>  <SCORE.SYSTEM.DIHEDRAL>
0

>  <SCORE.SYSTEM.SOLV>
0

>  <SCORE.SYSTEM.norm>
0

>  <SCORE.heavy>
12

>  <SCORE.norm>
-2.95729

>  <SYMMETRIC_BONDS>
11 12 2
5 6 2

>  <RMSD>
2.237

$$$$
1koc cryst
 OpenBabel11021811393D
libRbt.so/2013.1/901 2013/11/27
 12 11  0  0  0  0  0  0  0  0999 V2000
    4.6871    6.3988   31.9196 N   0  3  0  0  0  0  0  0  0  0  0  0
    3.3118    6.9670   31.7846 C   0  0  2  0  0  0  0  0  0  0  0  0
    2.9718    7.7678   33.0569 C   0  0  0  0  0  0  0  0  0  0  0  0
    2.6268    8.9326   32.9254 O   0  5  0  0  0  0  0  0  0  0  0  0
    2.3009    5.8077   31.5741 C   0  0  0  0  0  0  0  0  0  0  0  0
    2.5740    5.0698   30.2582 C   0  0  0  0  0  0  0  0  0  0  0  0
    1.5517    3.9533   30.0758 C   0  0  0  0  0  0  0  0  0  0  0  0
    1.6336    2.9985   31.2194 N   0  0  0  0  0  0  0  0  0  0  0  0
    2.4231    1.9535   31.1532 C   0  0  0  0  0  0  0  0  0  0  0  0
    3.5813    2.0372   30.5470 N   0  0  0  0  0  0  0  0  0  0  0  0
    2.0557    0.8239   31.6988 N   0  3  0  0  0  0  0  0  0  0  0  0
    3.0723    7.2092   34.1391 O   0  0  0  0  0  0  0  0  0  0  0  0
  2  1  1  1  0  0  0
  2  5  1  0  0  0  0
  2  3  1  0  0  0  0
  3  4  1  0  0  0  0
  3 12  2  0  0  0  0
  5  6  1  0  0  0  0
  6  7  1  0  0  0  0
  7  8  1  0  0  0  0
  8  9  1  0  0  0  0
  9 10  1  0  0  0  0
  9 11  2  0  0  0  0
M  CHG  3   1   1   4  -1  11   1
M  END
>  <CHROM.1>
69.03752505,-63.94090142,125.02565204,-179.18776467,-59.14778965,-91.01932743
2.76765330,4.98000514,31.72043060,0.22656175,-1.43829969,-1.02669742

>  <Name>
1koc cryst

>  <RI>
0

>  <Rbt.Current_Directory>
/home/itssahil/PROJECTS/Mol_Feturizer/New_Systems/rnas/1koc

>  <Rbt.Executable>
rbdock ($Id: //depot/dev/client3/rdock/2013.1/src/exe/rbdock.cxx#4 $)

>  <Rbt.Library>
libRbt.so (2013.1, Build901 2013/11/27)

>  <Rbt.Parameter_File>
/export/apps/rDock/src/rDock_2013.1_src/data/scripts/dock_solv.prm

>  <Rbt.Receptor>
prm/pocket_docking_4.prm

>  <SCORE>
-32.3086

>  <SCORE.INTER>
-29.4602

>  <SCORE.INTER.CONST>
1

>  <SCORE.INTER.POLAR>
-5.26781

>  <SCORE.INTER.ROT>
5

>  <SCORE.INTER.SOLV>
23.3659

>  <SCORE.INTER.VDW>
-16.8027

>  <SCORE.INTER.norm>
-2.45502

>  <SCORE.INTRA>
-2.84838

>  <SCORE.INTRA.DIHEDRAL>
-2.33131

>  <SCORE.INTRA.DIHEDRAL.0>
6.04201

>  <SCORE.INTRA.POLAR>
0

>  <SCORE.INTRA.POLAR.0>
0

>  <SCORE.INTRA.REPUL>
0

>  <SCORE.INTRA.REPUL.0>
0

>  <SCORE.INTRA.SOLV>
-0.152508

>  <SCORE.INTRA.SOLV.lig_0>
-71.0481

>  <SCORE.INTRA.VDW>
-1.60647

>  <SCORE.INTRA.VDW.0>
0.968882

>  <SCORE.INTRA.norm>
-0.237365

>  <SCORE.RESTR>
0

>  <SCORE.RESTR.CAVITY>
0

>  <SCORE.RESTR.norm>
0

>  <SCORE.SYSTEM>
0

>  <SCORE.SYSTEM.CONST>
0

>  <SCORE.SYSTEM.DIHEDRAL>
0

>  <SCORE.SYSTEM.SOLV>
0

>  <SCORE.SYSTEM.norm>
0

>  <SCORE.heavy>
12

>  <SCORE.norm>
-2.69238

>  <SYMMETRIC_BONDS>
11 12 2
5 6 2

>  <RMSD>
2.239

$$$$
1koc cryst
 OpenBabel11021811393D
libRbt.so/2013.1/901 2013/11/27
 12 11  0  0  0  0  0  0  0  0999 V2000
    4.3578    7.0906   27.5287 N   0  3  0  0  0  0  0  0  0  0  0  0
    4.2571    6.6782   28.9614 C   0  0  2  0  0  0  0  0  0  0  0  0
    5.6586    6.7346   29.6002 C   0  0  0  0  0  0  0  0  0  0  0  0
    5.7739    7.2958   30.6795 O   0  5  0  0  0  0  0  0  0  0  0  0
    3.6720    5.2422   29.0374 C   0  0  0  0  0  0  0  0  0  0  0  0
    3.8178    4.6611   30.4488 C   0  0  0  0  0  0  0  0  0  0  0  0
    3.3081    3.2242   30.4659 C   0  0  0  0  0  0  0  0  0  0  0  0
    2.0112    3.1546   31.2004 N   0  0  0  0  0  0  0  0  0  0  0  0
    1.2009    2.1400   31.0169 C   0  0  0  0  0  0  0  0  0  0  0  0
    1.6813    0.9361   30.8275 N   0  0  0  0  0  0  0  0  0  0  0  0
   -0.0925    2.3289   31.0280 N   0  3  0  0  0  0  0  0  0  0  0  0
    6.5928    6.2278   28.9972 O   0  0  0  0  0  0  0  0  0  0  0  0
  2  1  1  6  0  0  0
  2  5  1  0  0  0  0
  2  3  1  0  0  0  0
  3  4  1  0  0  0  0
  3 12  2  0  0  0  0
  5  6  1  0  0  0  0
  6  7  1  0  0  0  0
  7  8  1  0  0  0  0
  8  9  1  0  0  0  0
  9 10  1  0  0  0  0
  9 11  2  0  0  0  0
M  CHG  3   1   1   4  -1  11   1
M  END
>  <CHROM.1>
-46.30459595,168.19111396,132.20542200,-176.72183948,-108.01667158,159.91161732
3.51684394,4.64979520,29.96135687,0.77924789,-0.46639619,-0.80217845

>  <Name>
1koc cryst

>  <RI>
0

>  <Rbt.Current_Directory>
/home/itssahil/PROJECTS/Mol_Feturizer/New_Systems/rnas/1koc

>  <Rbt.Executable>
rbdock ($Id: //depot/dev/client3/rdock/2013.1/src/exe/rbdock.cxx#4 $)

>  <Rbt.Library>
libRbt.so (2013.1, Build901 2013/11/27)

>  <Rbt.Parameter_File>
/export/apps/rDock/src/rDock_2013.1_src/data/scripts/dock_solv.prm

>  <Rbt.Receptor>
prm/pocket_docking_3.prm

>  <SCORE>
-34.6847

>  <SCORE.INTER>
-34.4795

>  <SCORE.INTER.CONST>
1

>  <SCORE.INTER.POLAR>
-6.38771

>  <SCORE.INTER.ROT>
5

>  <SCORE.INTER.SOLV>
22.726

>  <SCORE.INTER.VDW>
-16.2026

>  <SCORE.INTER.norm>
-2.87329

>  <SCORE.INTRA>
-0.319443

>  <SCORE.INTRA.DIHEDRAL>
3.37012

>  <SCORE.INTRA.DIHEDRAL.0>
6.04201

>  <SCORE.INTRA.POLAR>
0

>  <SCORE.INTRA.POLAR.0>
0

>  <SCORE.INTRA.REPUL>
0

>  <SCORE.INTRA.REPUL.0>
0

>  <SCORE.INTRA.SOLV>
-1.16423

>  <SCORE.INTRA.SOLV.lig_0>
-71.0481

>  <SCORE.INTRA.VDW>
-1.42239

>  <SCORE.INTRA.VDW.0>
0.968882

>  <SCORE.INTRA.norm>
-0.0266202

>  <SCORE.RESTR>
0.11421

>  <SCORE.RESTR.CAVITY>
0.11421

>  <SCORE.RESTR.norm>
0.00951751

>  <SCORE.SYSTEM>
0

>  <SCORE.SYSTEM.CONST>
0

>  <SCORE.SYSTEM.DIHEDRAL>
0

>  <SCORE.SYSTEM.SOLV>
0

>  <SCORE.SYSTEM.norm>
0

>  <SCORE.heavy>
12

>  <SCORE.norm>
-2.89039

>  <SYMMETRIC_BONDS>
11 12 2
5 6 2

>  <RMSD>
2.244

$$$$
1koc cryst
 OpenBabel11021811393D
libRbt.so/2013.1/901 2013/11/27
 12 11  0  0  0  0  0  0  0  0999 V2000
    4.0291    6.6211   27.2680 N   0  3  0  0  0  0  0  0  0  0  0  0
    4.2378    6.2611   28.7031 C   0  0  2  0  0  0  0  0  0  0  0  0
    5.2536    7.2398   29.3241 C   0  0  0  0  0  0  0  0  0  0  0  0
    5.6304    7.0259   30.4666 O   0  5  0  0  0  0  0  0  0  0  0  0
    4.7534    4.7993   28.7910 C   0  0  0  0  0  0  0  0  0  0  0  0
    4.3447    4.1491   30.1180 C   0  0  0  0  0  0  0  0  0  0  0  0
    2.8643    3.7866   30.0759 C   0  0  0  0  0  0  0  0  0  0  0  0
    2.6955    2.3180   30.2782 N   0  0  0  0  0  0  0  0  0  0  0  0
    1.8544    1.8667   31.1775 C   0  0  0  0  0  0  0  0  0  0  0  0
    0.7223    2.4887   31.3950 N   0  0  0  0  0  0  0  0  0  0  0  0
    2.1441    0.7882   31.8571 N   0  3  0  0  0  0  0  0  0  0  0  0
    5.6286    8.1905   28.6541 O   0  0  0  0  0  0  0  0  0  0  0  0
  2  1  1  6  0  0  0
  2  5  1  0  0  0  0
  2  3  1  0  0  0  0
  3  4  1  0  0  0  0
  3 12  2  0  0  0  0
  5  6  1  0  0  0  0
  6  7  1  0  0  0  0
  7  8  1  0  0  0  0
  8  9  1  0  0  0  0
  9 10  1  0  0  0  0
  9 11  2  0  0  0  0
M  CHG  3   1   1   4  -1  11   1
M  END
>  <CHROM.1>
79.89464429,-151.99819792,-173.98207175,75.43910011,120.58965487,129.27320697
3.67112755,4.63614070,29.82740852,0.83552060,-0.76753009,-0.99600647

>  <Name>
1koc cryst

>  <RI>
0

>  <Rbt.Current_Directory>
/home/itssahil/PROJECTS/Mol_Feturizer/New_Systems/rnas/1koc

>  <Rbt.Executable>
rbdock ($Id: //depot/dev/client3/rdock/2013.1/src/exe/rbdock.cxx#4 $)

>  <Rbt.Library>
libRbt.so (2013.1, Build901 2013/11/27)

>  <Rbt.Parameter_File>
/export/apps/rDock/src/rDock_2013.1_src/data/scripts/dock_solv.prm

>  <Rbt.Receptor>
prm/pocket_docking_7.prm

>  <SCORE>
-34.4241

>  <SCORE.INTER>
-36.0402

>  <SCORE.INTER.CONST>
1

>  <SCORE.INTER.POLAR>
-6.95731

>  <SCORE.INTER.ROT>
5

>  <SCORE.INTER.SOLV>
27.2616

>  <SCORE.INTER.VDW>
-16.8563

>  <SCORE.INTER.norm>
-3.00335

>  <SCORE.INTRA>
1.61609

>  <SCORE.INTRA.DIHEDRAL>
7.05689

>  <SCORE.INTRA.DIHEDRAL.0>
6.04201

>  <SCORE.INTRA.POLAR>
0

>  <SCORE.INTRA.POLAR.0>
0

>  <SCORE.INTRA.REPUL>
0

>  <SCORE.INTRA.REPUL.0>
0

>  <SCORE.INTRA.SOLV>
-0.860055

>  <SCORE.INTRA.SOLV.lig_0>
-71.0481

>  <SCORE.INTRA.VDW>
-1.48232

>  <SCORE.INTRA.VDW.0>
0.968882

>  <SCORE.INTRA.norm>
0.134675

>  <SCORE.RESTR>
0

>  <SCORE.RESTR.CAVITY>
0

>  <SCORE.RESTR.norm>
0

>  <SCORE.SYSTEM>
0

>  <SCORE.SYSTEM.CONST>
0

>  <SCORE.SYSTEM.DIHEDRAL>
0

>  <SCORE.SYSTEM.SOLV>
0

>  <SCORE.SYSTEM.norm>
0

>  <SCORE.heavy>
12

>  <SCORE.norm>
-2.86867

>  <SYMMETRIC_BONDS>
11 12 2
5 6 2

>  <RMSD>
2.245

$$$$
1koc cryst
 OpenBabel11021811393D
libRbt.so/2013.1/901 2013/11/27
 12 11  0  0  0  0  0  0  0  0999 V2000
    5.5796    5.4584   34.3330 N   0  3  0  0  0  0  0  0  0  0  0  0
    5.2858    5.8114   32.9110 C   0  0  2  0  0  0  0  0  0  0  0  0
    4.7440    7.2531   32.8529 C   0  0  0  0  0  0  0  0  0  0  0  0
    5.3910    8.0836   32.2325 O   0  5  0  0  0  0  0  0  0  0  0  0
    4.2479    4.8071   32.3417 C   0  0  0  0  0  0  0  0  0  0  0  0
    3.9365    5.1098   30.8712 C   0  0  0  0  0  0  0  0  0  0  0  0
    2.6547    4.3930   30.4613 C   0  0  0  0  0  0  0  0  0  0  0  0
    2.9366    2.9478   30.2198 N   0  0  0  0  0  0  0  0  0  0  0  0
    2.4461    2.0351   31.0236 C   0  0  0  0  0  0  0  0  0  0  0  0
    1.2537    2.1848   31.5447 N   0  0  0  0  0  0  0  0  0  0  0  0
    3.1477    0.9680   31.3027 N   0  3  0  0  0  0  0  0  0  0  0  0
    3.7007    7.5057   33.4370 O   0  0  0  0  0  0  0  0  0  0  0  0
  2  1  1  1  0  0  0
  2  5  1  0  0  0  0
  2  3  1  0  0  0  0
  3  4  1  0  0  0  0
  3 12  2  0  0  0  0
  5  6  1  0  0  0  0
  6  7  1  0  0  0  0
  7  8  1  0  0  0  0
  8  9  1  0  0  0  0
  9 10  1  0  0  0  0
  9 11  2  0  0  0  0
M  CHG  3   1   1   4  -1  11   1
M  END
>  <CHROM.1>
-164.93354271,-178.73079388,117.59638278,-163.80104136,-77.71523131,112.09030493
3.78225309,4.70218059,31.99897478,-0.77572483,0.93463046,2.85176562

>  <Name>
1koc cryst

>  <RI>
0

>  <Rbt.Current_Directory>
/home/itssahil/PROJECTS/Mol_Feturizer/New_Systems/rnas/1koc

>  <Rbt.Executable>
rbdock ($Id: //depot/dev/client3/rdock/2013.1/src/exe/rbdock.cxx#4 $)

>  <Rbt.Library>
libRbt.so (2013.1, Build901 2013/11/27)

>  <Rbt.Parameter_File>
/export/apps/rDock/src/rDock_2013.1_src/data/scripts/dock_solv.prm

>  <Rbt.Receptor>
prm/pocket_docking_3.prm

>  <SCORE>
-27.9386

>  <SCORE.INTER>
-25.3703

>  <SCORE.INTER.CONST>
1

>  <SCORE.INTER.POLAR>
-5.13337

>  <SCORE.INTER.ROT>
5

>  <SCORE.INTER.SOLV>
20.7149

>  <SCORE.INTER.VDW>
-13.6406

>  <SCORE.INTER.norm>
-2.11419

>  <SCORE.INTRA>
-2.56832

>  <SCORE.INTRA.DIHEDRAL>
0.074736

>  <SCORE.INTRA.DIHEDRAL.0>
6.04201

>  <SCORE.INTRA.POLAR>
0

>  <SCORE.INTRA.POLAR.0>
0

>  <SCORE.INTRA.REPUL>
0

>  <SCORE.INTRA.REPUL.0>
0

>  <SCORE.INTRA.SOLV>
-0.974086

>  <SCORE.INTRA.SOLV.lig_0>
-71.0481

>  <SCORE.INTRA.VDW>
-2.11864

>  <SCORE.INTRA.VDW.0>
0.968882

>  <SCORE.INTRA.norm>
-0.214026

>  <SCORE.RESTR>
0

>  <SCORE.RESTR.CAVITY>
0

>  <SCORE.RESTR.norm>
0

>  <SCORE.SYSTEM>
0

>  <SCORE.SYSTEM.CONST>
0

>  <SCORE.SYSTEM.DIHEDRAL>
0

>  <SCORE.SYSTEM.SOLV>
0

>  <SCORE.SYSTEM.norm>
0

>  <SCORE.heavy>
12

>  <SCORE.norm>
-2.32822

>  <SYMMETRIC_BONDS>
11 12 2
5 6 2

>  <RMSD>
2.248

$$$$
1koc cryst
 OpenBabel11021811393D
libRbt.so/2013.1/901 2013/11/27
 12 11  0  0  0  0  0  0  0  0999 V2000
    4.2898    6.9333   28.3372 N   0  3  0  0  0  0  0  0  0  0  0  0
    4.5449    6.5587   29.7611 C   0  0  2  0  0  0  0  0  0  0  0  0
    6.0658    6.5339   30.0094 C   0  0  0  0  0  0  0  0  0  0  0  0
    6.8009    6.8786   29.0962 O   0  5  0  0  0  0  0  0  0  0  0  0
    3.9160    5.1672   30.0414 C   0  0  0  0  0  0  0  0  0  0  0  0
    2.4156    5.2886   30.3328 C   0  0  0  0  0  0  0  0  0  0  0  0
    1.7230    3.9692   30.0095 C   0  0  0  0  0  0  0  0  0  0  0  0
    1.8171    3.0470   31.1786 N   0  0  0  0  0  0  0  0  0  0  0  0
    2.5311    1.9499   31.0997 C   0  0  0  0  0  0  0  0  0  0  0  0
    3.6504    1.9370   30.4193 N   0  0  0  0  0  0  0  0  0  0  0  0
    2.1274    0.8648   31.7068 N   0  3  0  0  0  0  0  0  0  0  0  0
    6.4703    6.1614   31.1007 O   0  0  0  0  0  0  0  0  0  0  0  0
  2  1  1  6  0  0  0
  2  5  1  0  0  0  0
  2  3  1  0  0  0  0
  3  4  1  0  0  0  0
  3 12  2  0  0  0  0
  5  6  1  0  0  0  0
  6  7  1  0  0  0  0
  7  8  1  0  0  0  0
  8  9  1  0  0  0  0
  9 10  1  0  0  0  0
  9 11  2  0  0  0  0
M  CHG  3   1   1   4  -1  11   1
M  END
>  <CHROM.1>
-69.97663664,-81.93832460,4.08758346,155.61176038,85.09029028,-113.04098102
3.88425192,4.60356322,30.23972248,0.94275951,-0.19244293,-0.46045821

>  <Name>
1koc cryst

>  <RI>
0

>  <Rbt.Current_Directory>
/home/itssahil/PROJECTS/Mol_Feturizer/New_Systems/rnas/1koc

>  <Rbt.Executable>
rbdock ($Id: //depot/dev/client3/rdock/2013.1/src/exe/rbdock.cxx#4 $)

>  <Rbt.Library>
libRbt.so (2013.1, Build901 2013/11/27)

>  <Rbt.Parameter_File>
/export/apps/rDock/src/rDock_2013.1_src/data/scripts/dock_solv.prm

>  <Rbt.Receptor>
prm/pocket_docking_4.prm

>  <SCORE>
-32.4398

>  <SCORE.INTER>
-32.8646

>  <SCORE.INTER.CONST>
1

>  <SCORE.INTER.POLAR>
-6.51422

>  <SCORE.INTER.ROT>
5

>  <SCORE.INTER.SOLV>
20.2864

>  <SCORE.INTER.VDW>
-13.8911

>  <SCORE.INTER.norm>
-2.73872

>  <SCORE.INTRA>
0.424838

>  <SCORE.INTRA.DIHEDRAL>
3.39018

>  <SCORE.INTRA.DIHEDRAL.0>
6.04201

>  <SCORE.INTRA.POLAR>
0

>  <SCORE.INTRA.POLAR.0>
0

>  <SCORE.INTRA.REPUL>
0

>  <SCORE.INTRA.REPUL.0>
0

>  <SCORE.INTRA.SOLV>
0.0842983

>  <SCORE.INTRA.SOLV.lig_0>
-71.0481

>  <SCORE.INTRA.VDW>
-1.3124

>  <SCORE.INTRA.VDW.0>
0.968882

>  <SCORE.INTRA.norm>
0.0354032

>  <SCORE.RESTR>
0

>  <SCORE.RESTR.CAVITY>
0

>  <SCORE.RESTR.norm>
0

>  <SCORE.SYSTEM>
0

>  <SCORE.SYSTEM.CONST>
0

>  <SCORE.SYSTEM.DIHEDRAL>
0

>  <SCORE.SYSTEM.SOLV>
0

>  <SCORE.SYSTEM.norm>
0

>  <SCORE.heavy>
12

>  <SCORE.norm>
-2.70331

>  <SYMMETRIC_BONDS>
11 12 2
5 6 2

>  <RMSD>
2.252

$$$$
1koc cryst
 OpenBabel11021811393D
libRbt.so/2013.1/901 2013/11/27
 12 11  0  0  0  0  0  0  0  0999 V2000
    2.3361    8.0391   33.6184 N   0  3  0  0  0  0  0  0  0  0  0  0
    3.1317    7.3005   32.5916 C   0  0  2  0  0  0  0  0  0  0  0  0
    3.7386    8.3140   31.6017 C   0  0  0  0  0  0  0  0  0  0  0  0
    3.5337    9.5020   31.8006 O   0  5  0  0  0  0  0  0  0  0  0  0
    2.2046    6.2959   31.8558 C   0  0  0  0  0  0  0  0  0  0  0  0
    3.0161    5.1632   31.2160 C   0  0  0  0  0  0  0  0  0  0  0  0
    2.0755    4.2035   30.4955 C   0  0  0  0  0  0  0  0  0  0  0  0
    2.8054    2.9535   30.1338 N   0  0  0  0  0  0  0  0  0  0  0  0
    2.4263    1.7997   30.6284 C   0  0  0  0  0  0  0  0  0  0  0  0
    1.1548    1.5459   30.8148 N   0  0  0  0  0  0  0  0  0  0  0  0
    3.3205    0.8959   30.9326 N   0  3  0  0  0  0  0  0  0  0  0  0
    4.3867    7.8873   30.6577 O   0  0  0  0  0  0  0  0  0  0  0  0
  2  1  1  1  0  0  0
  2  5  1  0  0  0  0
  2  3  1  0  0  0  0
  3  4  1  0  0  0  0
  3 12  2  0  0  0  0
  5  6  1  0  0  0  0
  6  7  1  0  0  0  0
  7  8  1  0  0  0  0
  8  9  1  0  0  0  0
  9 10  1  0  0  0  0
  9 11  2  0  0  0  0
M  CHG  3   1   1   4  -1  11   1
M  END
>  <CHROM.1>
77.60439984,-157.73907410,1.99291971,-179.59897597,-167.50089404,118.09236273
2.83905465,5.33335108,31.38111661,1.36935713,0.78695196,0.35643215

>  <Name>
1koc cryst

>  <RI>
0

>  <Rbt.Current_Directory>
/home/itssahil/PROJECTS/Mol_Feturizer/New_Systems/rnas/1koc

>  <Rbt.Executable>
rbdock ($Id: //depot/dev/client3/rdock/2013.1/src/exe/rbdock.cxx#4 $)

>  <Rbt.Library>
libRbt.so (2013.1, Build901 2013/11/27)

>  <Rbt.Parameter_File>
/export/apps/rDock/src/rDock_2013.1_src/data/scripts/dock_solv.prm

>  <Rbt.Receptor>
prm/pocket_docking_6.prm

>  <SCORE>
-27.8382

>  <SCORE.INTER>
-25.6733

>  <SCORE.INTER.CONST>
1

>  <SCORE.INTER.POLAR>
-4.76411

>  <SCORE.INTER.ROT>
5

>  <SCORE.INTER.SOLV>
28.7556

>  <SCORE.INTER.VDW>
-17.7537

>  <SCORE.INTER.norm>
-2.13944

>  <SCORE.INTRA>
-2.16588

>  <SCORE.INTRA.DIHEDRAL>
0.239137

>  <SCORE.INTRA.DIHEDRAL.0>
6.04201

>  <SCORE.INTRA.POLAR>
0

>  <SCORE.INTRA.POLAR.0>
0

>  <SCORE.INTRA.REPUL>
0

>  <SCORE.INTRA.REPUL.0>
0

>  <SCORE.INTRA.SOLV>
-1.15426

>  <SCORE.INTRA.SOLV.lig_0>
-71.0481

>  <SCORE.INTRA.VDW>
-1.70831

>  <SCORE.INTRA.VDW.0>
0.968882

>  <SCORE.INTRA.norm>
-0.18049

>  <SCORE.RESTR>
0.000959259

>  <SCORE.RESTR.CAVITY>
0.000959259

>  <SCORE.RESTR.norm>
7.99383e-05

>  <SCORE.SYSTEM>
0

>  <SCORE.SYSTEM.CONST>
0

>  <SCORE.SYSTEM.DIHEDRAL>
0

>  <SCORE.SYSTEM.SOLV>
0

>  <SCORE.SYSTEM.norm>
0

>  <SCORE.heavy>
12

>  <SCORE.norm>
-2.31985

>  <SYMMETRIC_BONDS>
11 12 2
5 6 2

>  <RMSD>
2.255

$$$$
1koc cryst
 OpenBabel11021811393D
libRbt.so/2013.1/901 2013/11/27
 12 11  0  0  0  0  0  0  0  0999 V2000
    5.5211    4.8675   33.7961 N   0  3  0  0  0  0  0  0  0  0  0  0
    6.1114    5.0618   32.4372 C   0  0  2  0  0  0  0  0  0  0  0  0
    6.5837    6.5223   32.2986 C   0  0  0  0  0  0  0  0  0  0  0  0
    5.8178    7.4076   32.6488 O   0  5  0  0  0  0  0  0  0  0  0  0
    5.0414    4.7225   31.3647 C   0  0  0  0  0  0  0  0  0  0  0  0
    4.6251    3.2492   31.4477 C   0  0  0  0  0  0  0  0  0  0  0  0
    3.6806    2.9186   30.2972 C   0  0  0  0  0  0  0  0  0  0  0  0
    3.1060    1.5549   30.4883 N   0  0  0  0  0  0  0  0  0  0  0  0
    2.1302    1.3623   31.3430 C   0  0  0  0  0  0  0  0  0  0  0  0
    1.2026    2.2731   31.5037 N   0  0  0  0  0  0  0  0  0  0  0  0
    2.0793    0.2542   32.0347 N   0  3  0  0  0  0  0  0  0  0  0  0
    7.6951    6.7321   31.8359 O   0  0  0  0  0  0  0  0  0  0  0  0
  2  1  1  1  0  0  0
  2  5  1  0  0  0  0
  2  3  1  0  0  0  0
  3  4  1  0  0  0  0
  3 12  2  0  0  0  0
  5  6  1  0  0  0  0
  6  7  1  0  0  0  0
  7  8  1  0  0  0  0
  8  9  1  0  0  0  0
  9 10  1  0  0  0  0
  9 11  2  0  0  0  0
M  CHG  3   1   1   4  -1  11   1
M  END
>  <CHROM.1>
-80.46908131,-63.06836189,-47.25561834,-174.44030665,-171.26503471,77.88339276
4.45225860,3.91112850,31.82969033,0.46626442,0.77197422,1.16174183

>  <Name>
1koc cryst

>  <RI>
0

>  <Rbt.Current_Directory>
/home/itssahil/PROJECTS/Mol_Feturizer/New_Systems/rnas/1koc

>  <Rbt.Executable>
rbdock ($Id: //depot/dev/client3/rdock/2013.1/src/exe/rbdock.cxx#4 $)

>  <Rbt.Library>
libRbt.so (2013.1, Build901 2013/11/27)

>  <Rbt.Parameter_File>
/export/apps/rDock/src/rDock_2013.1_src/data/scripts/dock_solv.prm

>  <Rbt.Receptor>
prm/pocket_docking_6.prm

>  <SCORE>
-31.6173

>  <SCORE.INTER>
-29.1751

>  <SCORE.INTER.CONST>
1

>  <SCORE.INTER.POLAR>
-5.91358

>  <SCORE.INTER.ROT>
5

>  <SCORE.INTER.SOLV>
21.8607

>  <SCORE.INTER.VDW>
-13.9584

>  <SCORE.INTER.norm>
-2.43126

>  <SCORE.INTRA>
-2.4422

>  <SCORE.INTRA.DIHEDRAL>
-1.23011

>  <SCORE.INTRA.DIHEDRAL.0>
6.04201

>  <SCORE.INTRA.POLAR>
0

>  <SCORE.INTRA.POLAR.0>
0

>  <SCORE.INTRA.REPUL>
0

>  <SCORE.INTRA.REPUL.0>
0

>  <SCORE.INTRA.SOLV>
-0.774095

>  <SCORE.INTRA.SOLV.lig_0>
-71.0481

>  <SCORE.INTRA.VDW>
-1.44009

>  <SCORE.INTRA.VDW.0>
0.968882

>  <SCORE.INTRA.norm>
-0.203516

>  <SCORE.RESTR>
0

>  <SCORE.RESTR.CAVITY>
0

>  <SCORE.RESTR.norm>
0

>  <SCORE.SYSTEM>
0

>  <SCORE.SYSTEM.CONST>
0

>  <SCORE.SYSTEM.DIHEDRAL>
0

>  <SCORE.SYSTEM.SOLV>
0

>  <SCORE.SYSTEM.norm>
0

>  <SCORE.heavy>
12

>  <SCORE.norm>
-2.63478

>  <SYMMETRIC_BONDS>
11 12 2
5 6 2

>  <RMSD>
2.257

$$$$
1koc cryst
 OpenBabel11021811393D
libRbt.so/2013.1/901 2013/11/27
 12 11  0  0  0  0  0  0  0  0999 V2000
    7.0147    4.9768   32.9720 N   0  3  0  0  0  0  0  0  0  0  0  0
    5.5843    5.1592   32.5800 C   0  0  2  0  0  0  0  0  0  0  0  0
    4.7813    5.6237   33.8108 C   0  0  0  0  0  0  0  0  0  0  0  0
    3.7838    6.3033   33.6207 O   0  5  0  0  0  0  0  0  0  0  0  0
    5.0314    3.8153   32.0337 C   0  0  0  0  0  0  0  0  0  0  0  0
    3.6710    4.0138   31.3549 C   0  0  0  0  0  0  0  0  0  0  0  0
    3.5496    3.0676   30.1654 C   0  0  0  0  0  0  0  0  0  0  0  0
    3.2467    1.6872   30.6440 N   0  0  0  0  0  0  0  0  0  0  0  0
    2.1300    1.4398   31.2855 C   0  0  0  0  0  0  0  0  0  0  0  0
    1.0245    2.0579   30.9511 N   0  0  0  0  0  0  0  0  0  0  0  0
    2.1179    0.5688   32.2602 N   0  3  0  0  0  0  0  0  0  0  0  0
    5.1812    5.3032   34.9201 O   0  0  0  0  0  0  0  0  0  0  0  0
  2  1  1  1  0  0  0
  2  5  1  0  0  0  0
  2  3  1  0  0  0  0
  3  4  1  0  0  0  0
  3 12  2  0  0  0  0
  5  6  1  0  0  0  0
  6  7  1  0  0  0  0
  7  8  1  0  0  0  0
  8  9  1  0  0  0  0
  9 10  1  0  0  0  0
  9 11  2  0  0  0  0
M  CHG  3   1   1   4  -1  11   1
M  END
>  <CHROM.1>
-56.88597351,-168.35358451,151.99891145,144.92045982,77.23087485,63.03184040
3.93992549,3.66227945,32.24663382,-0.89571725,-0.35418079,-2.30364591

>  <Name>
1koc cryst

>  <RI>
0

>  <Rbt.Current_Directory>
/home/itssahil/PROJECTS/Mol_Feturizer/New_Systems/rnas/1koc

>  <Rbt.Executable>
rbdock ($Id: //depot/dev/client3/rdock/2013.1/src/exe/rbdock.cxx#4 $)

>  <Rbt.Library>
libRbt.so (2013.1, Build901 2013/11/27)

>  <Rbt.Parameter_File>
/export/apps/rDock/src/rDock_2013.1_src/data/scripts/dock_solv.prm

>  <Rbt.Receptor>
prm/pocket_docking_5.prm

>  <SCORE>
-27.8199

>  <SCORE.INTER>
-26.9922

>  <SCORE.INTER.CONST>
1

>  <SCORE.INTER.POLAR>
-5.45254

>  <SCORE.INTER.ROT>
5

>  <SCORE.INTER.SOLV>
26.2283

>  <SCORE.INTER.VDW>
-15.4958

>  <SCORE.INTER.norm>
-2.24935

>  <SCORE.INTRA>
-0.960562

>  <SCORE.INTRA.DIHEDRAL>
2.80867

>  <SCORE.INTRA.DIHEDRAL.0>
6.04201

>  <SCORE.INTRA.POLAR>
0

>  <SCORE.INTRA.POLAR.0>
0

>  <SCORE.INTRA.REPUL>
0

>  <SCORE.INTRA.REPUL.0>
0

>  <SCORE.INTRA.SOLV>
-0.725126

>  <SCORE.INTRA.SOLV.lig_0>
-71.0481

>  <SCORE.INTRA.VDW>
-2.00233

>  <SCORE.INTRA.VDW.0>
0.968882

>  <SCORE.INTRA.norm>
-0.0800468

>  <SCORE.RESTR>
0.132869

>  <SCORE.RESTR.CAVITY>
0.132869

>  <SCORE.RESTR.norm>
0.0110724

>  <SCORE.SYSTEM>
0

>  <SCORE.SYSTEM.CONST>
0

>  <SCORE.SYSTEM.DIHEDRAL>
0

>  <SCORE.SYSTEM.SOLV>
0

>  <SCORE.SYSTEM.norm>
0

>  <SCORE.heavy>
12

>  <SCORE.norm>
-2.31833

>  <SYMMETRIC_BONDS>
11 12 2
5 6 2

>  <RMSD>
2.260

$$$$
1koc cryst
 OpenBabel11021811393D
libRbt.so/2013.1/901 2013/11/27
 12 11  0  0  0  0  0  0  0  0999 V2000
    5.9908    6.2128   28.0869 N   0  3  0  0  0  0  0  0  0  0  0  0
    5.0033    6.8121   29.0348 C   0  0  2  0  0  0  0  0  0  0  0  0
    5.7198    7.8567   29.9128 C   0  0  0  0  0  0  0  0  0  0  0  0
    6.3849    7.4535   30.8552 O   0  5  0  0  0  0  0  0  0  0  0  0
    4.3873    5.6854   29.9073 C   0  0  0  0  0  0  0  0  0  0  0  0
    3.0943    5.1483   29.2822 C   0  0  0  0  0  0  0  0  0  0  0  0
    2.3431    4.3041   30.3060 C   0  0  0  0  0  0  0  0  0  0  0  0
    2.7602    2.8762   30.1902 N   0  0  0  0  0  0  0  0  0  0  0  0
    2.3378    1.9913   31.0609 C   0  0  0  0  0  0  0  0  0  0  0  0
    1.1258    2.0726   31.5514 N   0  0  0  0  0  0  0  0  0  0  0  0
    3.1273    1.0200   31.4380 N   0  3  0  0  0  0  0  0  0  0  0  0
    5.5835    9.0393   29.6369 O   0  0  0  0  0  0  0  0  0  0  0  0
  2  1  1  6  0  0  0
  2  5  1  0  0  0  0
  2  3  1  0  0  0  0
  3  4  1  0  0  0  0
  3 12  2  0  0  0  0
  5  6  1  0  0  0  0
  6  7  1  0  0  0  0
  7  8  1  0  0  0  0
  8  9  1  0  0  0  0
  9 10  1  0  0  0  0
  9 11  2  0  0  0  0
M  CHG  3   1   1   4  -1  11   1
M  END
>  <CHROM.1>
-154.94183692,-92.62301215,-79.25966236,-166.28337301,-91.09614194,173.34579614
4.01671661,5.02450161,30.09926136,-0.85024039,-0.66645023,-2.91216589

>  <Name>
1koc cryst

>  <RI>
0

>  <Rbt.Current_Directory>
/home/itssahil/PROJECTS/Mol_Feturizer/New_Systems/rnas/1koc

>  <Rbt.Executable>
rbdock ($Id: //depot/dev/client3/rdock/2013.1/src/exe/rbdock.cxx#4 $)

>  <Rbt.Library>
libRbt.so (2013.1, Build901 2013/11/27)

>  <Rbt.Parameter_File>
/export/apps/rDock/src/rDock_2013.1_src/data/scripts/dock_solv.prm

>  <Rbt.Receptor>
prm/pocket_docking_8.prm

>  <SCORE>
-26.2487

>  <SCORE.INTER>
-26.6521

>  <SCORE.INTER.CONST>
1

>  <SCORE.INTER.POLAR>
-5.12925

>  <SCORE.INTER.ROT>
5

>  <SCORE.INTER.SOLV>
18.5234

>  <SCORE.INTER.VDW>
-13.7783

>  <SCORE.INTER.norm>
-2.22101

>  <SCORE.INTRA>
0.40333

>  <SCORE.INTRA.DIHEDRAL>
5.34008

>  <SCORE.INTRA.DIHEDRAL.0>
6.04201

>  <SCORE.INTRA.POLAR>
0

>  <SCORE.INTRA.POLAR.0>
0

>  <SCORE.INTRA.REPUL>
0

>  <SCORE.INTRA.REPUL.0>
0

>  <SCORE.INTRA.SOLV>
-1.60536

>  <SCORE.INTRA.SOLV.lig_0>
-71.0481

>  <SCORE.INTRA.VDW>
-1.46403

>  <SCORE.INTRA.VDW.0>
0.968882

>  <SCORE.INTRA.norm>
0.0336108

>  <SCORE.RESTR>
0

>  <SCORE.RESTR.CAVITY>
0

>  <SCORE.RESTR.norm>
0

>  <SCORE.SYSTEM>
0

>  <SCORE.SYSTEM.CONST>
0

>  <SCORE.SYSTEM.DIHEDRAL>
0

>  <SCORE.SYSTEM.SOLV>
0

>  <SCORE.SYSTEM.norm>
0

>  <SCORE.heavy>
12

>  <SCORE.norm>
-2.18739

>  <SYMMETRIC_BONDS>
11 12 2
5 6 2

>  <RMSD>
2.264

$$$$
1koc cryst
 OpenBabel11021811393D
libRbt.so/2013.1/901 2013/11/27
 12 11  0  0  0  0  0  0  0  0999 V2000
    4.2767    7.0358   27.5619 N   0  3  0  0  0  0  0  0  0  0  0  0
    4.5386    6.4891   28.9277 C   0  0  2  0  0  0  0  0  0  0  0  0
    5.8827    7.0419   29.4409 C   0  0  0  0  0  0  0  0  0  0  0  0
    6.9059    6.4671   29.1005 O   0  5  0  0  0  0  0  0  0  0  0  0
    4.5688    4.9385   28.8577 C   0  0  0  0  0  0  0  0  0  0  0  0
    4.6469    4.3245   30.2604 C   0  0  0  0  0  0  0  0  0  0  0  0
    3.2523    3.9085   30.7154 C   0  0  0  0  0  0  0  0  0  0  0  0
    3.0018    2.4847   30.3463 N   0  0  0  0  0  0  0  0  0  0  0  0
    2.1481    1.7639   31.0329 C   0  0  0  0  0  0  0  0  0  0  0  0
    1.0567    2.3086   31.5105 N   0  0  0  0  0  0  0  0  0  0  0  0
    2.3841    0.4946   31.2380 N   0  3  0  0  0  0  0  0  0  0  0  0
    5.8671    8.0206   30.1725 O   0  0  0  0  0  0  0  0  0  0  0  0
  2  1  1  6  0  0  0
  2  5  1  0  0  0  0
  2  3  1  0  0  0  0
  3  4  1  0  0  0  0
  3 12  2  0  0  0  0
  5  6  1  0  0  0  0
  6  7  1  0  0  0  0
  7  8  1  0  0  0  0
  8  9  1  0  0  0  0
  9 10  1  0  0  0  0
  9 11  2  0  0  0  0
M  CHG  3   1   1   4  -1  11   1
M  END
>  <CHROM.1>
68.51978720,-172.39782724,-83.91166026,97.87795324,92.14750154,154.03148863
4.03780890,4.61299369,29.91046729,0.97670837,-0.38027504,-0.61847772

>  <Name>
1koc cryst

>  <RI>
0

>  <Rbt.Current_Directory>
/home/itssahil/PROJECTS/Mol_Feturizer/New_Systems/rnas/1koc

>  <Rbt.Executable>
rbdock ($Id: //depot/dev/client3/rdock/2013.1/src/exe/rbdock.cxx#4 $)

>  <Rbt.Library>
libRbt.so (2013.1, Build901 2013/11/27)

>  <Rbt.Parameter_File>
/export/apps/rDock/src/rDock_2013.1_src/data/scripts/dock_solv.prm

>  <Rbt.Receptor>
prm/pocket_docking_6.prm

>  <SCORE>
-35.3742

>  <SCORE.INTER>
-35.7052

>  <SCORE.INTER.CONST>
1

>  <SCORE.INTER.POLAR>
-6.72968

>  <SCORE.INTER.ROT>
5

>  <SCORE.INTER.SOLV>
24.9335

>  <SCORE.INTER.VDW>
-16.6157

>  <SCORE.INTER.norm>
-2.97544

>  <SCORE.INTRA>
0.331036

>  <SCORE.INTRA.DIHEDRAL>
5.15057

>  <SCORE.INTRA.DIHEDRAL.0>
6.04201

>  <SCORE.INTRA.POLAR>
0

>  <SCORE.INTRA.POLAR.0>
0

>  <SCORE.INTRA.REPUL>
0

>  <SCORE.INTRA.REPUL.0>
0

>  <SCORE.INTRA.SOLV>
-1.40544

>  <SCORE.INTRA.SOLV.lig_0>
-71.0481

>  <SCORE.INTRA.VDW>
-1.54153

>  <SCORE.INTRA.VDW.0>
0.968882

>  <SCORE.INTRA.norm>
0.0275863

>  <SCORE.RESTR>
0

>  <SCORE.RESTR.CAVITY>
0

>  <SCORE.RESTR.norm>
0

>  <SCORE.SYSTEM>
0

>  <SCORE.SYSTEM.CONST>
0

>  <SCORE.SYSTEM.DIHEDRAL>
0

>  <SCORE.SYSTEM.SOLV>
0

>  <SCORE.SYSTEM.norm>
0

>  <SCORE.heavy>
12

>  <SCORE.norm>
-2.94785

>  <SYMMETRIC_BONDS>
11 12 2
5 6 2

>  <RMSD>
2.271

$$$$
1koc cryst
 OpenBabel11021811393D
libRbt.so/2013.1/901 2013/11/27
 12 11  0  0  0  0  0  0  0  0999 V2000
    3.9427    6.4271   28.0773 N   0  3  0  0  0  0  0  0  0  0  0  0
    3.6076    5.8680   29.4219 C   0  0  2  0  0  0  0  0  0  0  0  0
    4.8028    5.0407   29.9342 C   0  0  0  0  0  0  0  0  0  0  0  0
    4.6830    3.8253   29.9742 O   0  5  0  0  0  0  0  0  0  0  0  0
    2.3351    4.9865   29.3034 C   0  0  0  0  0  0  0  0  0  0  0  0
    1.8947    4.4661   30.6767 C   0  0  0  0  0  0  0  0  0  0  0  0
    1.0286    3.2237   30.4996 C   0  0  0  0  0  0  0  0  0  0  0  0
    1.3159    2.2454   31.5890 N   0  0  0  0  0  0  0  0  0  0  0  0
    2.1961    1.2909   31.4053 C   0  0  0  0  0  0  0  0  0  0  0  0
    3.2761    1.5145   30.6985 N   0  0  0  0  0  0  0  0  0  0  0  0
    1.9983    0.1118   31.9339 N   0  3  0  0  0  0  0  0  0  0  0  0
    5.8110    5.6339   30.2877 O   0  0  0  0  0  0  0  0  0  0  0  0
  2  1  1  6  0  0  0
  2  5  1  0  0  0  0
  2  3  1  0  0  0  0
  3  4  1  0  0  0  0
  3 12  2  0  0  0  0
  5  6  1  0  0  0  0
  6  7  1  0  0  0  0
  7  8  1  0  0  0  0
  8  9  1  0  0  0  0
  9 10  1  0  0  0  0
  9 11  2  0  0  0  0
M  CHG  3   1   1   4  -1  11   1
M  END
>  <CHROM.1>
176.46910722,-176.13187768,-108.92333239,-158.23945708,142.95211542,-93.99730491
3.10792329,3.71286481,30.30013669,1.11603485,-0.01453875,-0.46671823

>  <Name>
1koc cryst

>  <RI>
0

>  <Rbt.Current_Directory>
/home/itssahil/PROJECTS/Mol_Feturizer/New_Systems/rnas/1koc

>  <Rbt.Executable>
rbdock ($Id: //depot/dev/client3/rdock/2013.1/src/exe/rbdock.cxx#4 $)

>  <Rbt.Library>
libRbt.so (2013.1, Build901 2013/11/27)

>  <Rbt.Parameter_File>
/export/apps/rDock/src/rDock_2013.1_src/data/scripts/dock_solv.prm

>  <Rbt.Receptor>
prm/pocket_docking_5.prm

>  <SCORE>
-38.5354

>  <SCORE.INTER>
-35.8198

>  <SCORE.INTER.CONST>
1

>  <SCORE.INTER.POLAR>
-6.7278

>  <SCORE.INTER.ROT>
5

>  <SCORE.INTER.SOLV>
27.1224

>  <SCORE.INTER.VDW>
-17.428

>  <SCORE.INTER.norm>
-2.98498

>  <SCORE.INTRA>
-2.71559

>  <SCORE.INTRA.DIHEDRAL>
3.0322

>  <SCORE.INTRA.DIHEDRAL.0>
6.04201

>  <SCORE.INTRA.POLAR>
-1.25866

>  <SCORE.INTRA.POLAR.0>
0

>  <SCORE.INTRA.REPUL>
0

>  <SCORE.INTRA.REPUL.0>
0

>  <SCORE.INTRA.SOLV>
2.63348

>  <SCORE.INTRA.SOLV.lig_0>
-71.0481

>  <SCORE.INTRA.VDW>
-1.269

>  <SCORE.INTRA.VDW.0>
0.968882

>  <SCORE.INTRA.norm>
-0.226299

>  <SCORE.RESTR>
0

>  <SCORE.RESTR.CAVITY>
0

>  <SCORE.RESTR.norm>
0

>  <SCORE.SYSTEM>
0

>  <SCORE.SYSTEM.CONST>
0

>  <SCORE.SYSTEM.DIHEDRAL>
0

>  <SCORE.SYSTEM.SOLV>
0

>  <SCORE.SYSTEM.norm>
0

>  <SCORE.heavy>
12

>  <SCORE.norm>
-3.21128

>  <SYMMETRIC_BONDS>
11 12 2
5 6 2

>  <RMSD>
2.278

$$$$
1koc cryst
 OpenBabel11021811393D
libRbt.so/2013.1/901 2013/11/27
 12 11  0  0  0  0  0  0  0  0999 V2000
    2.2150    8.1349   32.3891 N   0  3  0  0  0  0  0  0  0  0  0  0
    2.6670    6.8103   32.9126 C   0  0  2  0  0  0  0  0  0  0  0  0
    3.8694    7.0253   33.8526 C   0  0  0  0  0  0  0  0  0  0  0  0
    4.9870    7.0403   33.3588 O   0  5  0  0  0  0  0  0  0  0  0  0
    3.0548    5.8970   31.7186 C   0  0  0  0  0  0  0  0  0  0  0  0
    1.8165    5.4872   30.9127 C   0  0  0  0  0  0  0  0  0  0  0  0
    2.0979    4.1867   30.1680 C   0  0  0  0  0  0  0  0  0  0  0  0
    1.9225    3.0262   31.0894 N   0  0  0  0  0  0  0  0  0  0  0  0
    2.7950    2.0473   31.0933 C   0  0  0  0  0  0  0  0  0  0  0  0
    4.0684    2.2958   30.9124 N   0  0  0  0  0  0  0  0  0  0  0  0
    2.3938    0.8178   31.2837 N   0  3  0  0  0  0  0  0  0  0  0  0
    3.6554    7.1597   35.0482 O   0  0  0  0  0  0  0  0  0  0  0  0
  2  1  1  6  0  0  0
  2  5  1  0  0  0  0
  2  3  1  0  0  0  0
  3  4  1  0  0  0  0
  3 12  2  0  0  0  0
  5  6  1  0  0  0  0
  6  7  1  0  0  0  0
  7  8  1  0  0  0  0
  8  9  1  0  0  0  0
  9 10  1  0  0  0  0
  9 11  2  0  0  0  0
M  CHG  3   1   1   4  -1  11   1
M  END
>  <CHROM.1>
122.40991016,-69.45676984,-88.03913353,-155.96330892,81.17687870,-136.23881892
2.97082623,5.00660810,32.07517397,1.37694095,-0.78928156,0.31409424

>  <Name>
1koc cryst

>  <RI>
0

>  <Rbt.Current_Directory>
/home/itssahil/PROJECTS/Mol_Feturizer/New_Systems/rnas/1koc

>  <Rbt.Executable>
rbdock ($Id: //depot/dev/client3/rdock/2013.1/src/exe/rbdock.cxx#4 $)

>  <Rbt.Library>
libRbt.so (2013.1, Build901 2013/11/27)

>  <Rbt.Parameter_File>
/export/apps/rDock/src/rDock_2013.1_src/data/scripts/dock_solv.prm

>  <Rbt.Receptor>
prm/pocket_docking_5.prm

>  <SCORE>
-43.4879

>  <SCORE.INTER>
-44.722

>  <SCORE.INTER.CONST>
1

>  <SCORE.INTER.POLAR>
-7.5272

>  <SCORE.INTER.ROT>
5

>  <SCORE.INTER.SOLV>
25.6352

>  <SCORE.INTER.VDW>
-20.2024

>  <SCORE.INTER.norm>
-3.72684

>  <SCORE.INTRA>
1.23409

>  <SCORE.INTRA.DIHEDRAL>
4.94152

>  <SCORE.INTRA.DIHEDRAL.0>
6.04201

>  <SCORE.INTRA.POLAR>
0

>  <SCORE.INTRA.POLAR.0>
0

>  <SCORE.INTRA.REPUL>
0

>  <SCORE.INTRA.REPUL.0>
0

>  <SCORE.INTRA.SOLV>
-0.696224

>  <SCORE.INTRA.SOLV.lig_0>
-71.0481

>  <SCORE.INTRA.VDW>
-0.888558

>  <SCORE.INTRA.VDW.0>
0.968882

>  <SCORE.INTRA.norm>
0.102841

>  <SCORE.RESTR>
0

>  <SCORE.RESTR.CAVITY>
0

>  <SCORE.RESTR.norm>
0

>  <SCORE.SYSTEM>
0

>  <SCORE.SYSTEM.CONST>
0

>  <SCORE.SYSTEM.DIHEDRAL>
0

>  <SCORE.SYSTEM.SOLV>
0

>  <SCORE.SYSTEM.norm>
0

>  <SCORE.heavy>
12

>  <SCORE.norm>
-3.62399

>  <SYMMETRIC_BONDS>
11 12 2
5 6 2

>  <RMSD>
2.283

$$$$
1koc cryst
 OpenBabel11021811393D
libRbt.so/2013.1/901 2013/11/27
 12 11  0  0  0  0  0  0  0  0999 V2000
    6.7534    6.0329   30.7573 N   0  3  0  0  0  0  0  0  0  0  0  0
    5.4807    5.3826   30.3214 C   0  0  2  0  0  0  0  0  0  0  0  0
    4.6037    6.4265   29.6025 C   0  0  0  0  0  0  0  0  0  0  0  0
    3.8670    6.0376   28.7086 O   0  5  0  0  0  0  0  0  0  0  0  0
    4.7503    4.8093   31.5656 C   0  0  0  0  0  0  0  0  0  0  0  0
    4.5961    3.2874   31.4621 C   0  0  0  0  0  0  0  0  0  0  0  0
    3.6569    2.9452   30.3107 C   0  0  0  0  0  0  0  0  0  0  0  0
    3.1003    1.5739   30.5004 N   0  0  0  0  0  0  0  0  0  0  0  0
    2.1217    1.3690   31.3490 C   0  0  0  0  0  0  0  0  0  0  0  0
    1.1804    2.2670   31.5021 N   0  0  0  0  0  0  0  0  0  0  0  0
    2.0818    0.2614   32.0422 N   0  3  0  0  0  0  0  0  0  0  0  0
    4.6907    7.5954   29.9480 O   0  0  0  0  0  0  0  0  0  0  0  0
  2  1  1  1  0  0  0
  2  5  1  0  0  0  0
  2  3  1  0  0  0  0
  3  4  1  0  0  0  0
  3 12  2  0  0  0  0
  5  6  1  0  0  0  0
  6  7  1  0  0  0  0
  7  8  1  0  0  0  0
  8  9  1  0  0  0  0
  9 10  1  0  0  0  0
  9 11  2  0  0  0  0
M  CHG  3   1   1   4  -1  11   1
M  END
>  <CHROM.1>
60.02085685,-118.41055082,148.58767985,-66.29622939,-159.01141346,78.24548087
3.91386613,4.01298222,30.67679310,-1.01513319,0.35488297,2.65996146

>  <Name>
1koc cryst

>  <RI>
0

>  <Rbt.Current_Directory>
/home/itssahil/PROJECTS/Mol_Feturizer/New_Systems/rnas/1koc

>  <Rbt.Executable>
rbdock ($Id: //depot/dev/client3/rdock/2013.1/src/exe/rbdock.cxx#4 $)

>  <Rbt.Library>
libRbt.so (2013.1, Build901 2013/11/27)

>  <Rbt.Parameter_File>
/export/apps/rDock/src/rDock_2013.1_src/data/scripts/dock_solv.prm

>  <Rbt.Receptor>
prm/pocket_docking_5.prm

>  <SCORE>
-24.0572

>  <SCORE.INTER>
-23.8062

>  <SCORE.INTER.CONST>
1

>  <SCORE.INTER.POLAR>
-4.90425

>  <SCORE.INTER.ROT>
5

>  <SCORE.INTER.SOLV>
21.4725

>  <SCORE.INTER.VDW>
-13.6141

>  <SCORE.INTER.norm>
-1.98385

>  <SCORE.INTRA>
-0.250966

>  <SCORE.INTRA.DIHEDRAL>
4.19625

>  <SCORE.INTRA.DIHEDRAL.0>
6.04201

>  <SCORE.INTRA.POLAR>
0

>  <SCORE.INTRA.POLAR.0>
0

>  <SCORE.INTRA.REPUL>
0

>  <SCORE.INTRA.REPUL.0>
0

>  <SCORE.INTRA.SOLV>
-0.665238

>  <SCORE.INTRA.SOLV.lig_0>
-71.0481

>  <SCORE.INTRA.VDW>
-2.01647

>  <SCORE.INTRA.VDW.0>
0.968882

>  <SCORE.INTRA.norm>
-0.0209139

>  <SCORE.RESTR>
0

>  <SCORE.RESTR.CAVITY>
0

>  <SCORE.RESTR.norm>
0

>  <SCORE.SYSTEM>
0

>  <SCORE.SYSTEM.CONST>
0

>  <SCORE.SYSTEM.DIHEDRAL>
0

>  <SCORE.SYSTEM.SOLV>
0

>  <SCORE.SYSTEM.norm>
0

>  <SCORE.heavy>
12

>  <SCORE.norm>
-2.00476

>  <SYMMETRIC_BONDS>
11 12 2
5 6 2

>  <RMSD>
2.286

$$$$
1koc cryst
 OpenBabel11021811393D
libRbt.so/2013.1/901 2013/11/27
 12 11  0  0  0  0  0  0  0  0999 V2000
    4.4256    6.8491   27.8192 N   0  3  0  0  0  0  0  0  0  0  0  0
    4.8487    6.2100   29.1019 C   0  0  2  0  0  0  0  0  0  0  0  0
    6.2032    6.8035   29.5362 C   0  0  0  0  0  0  0  0  0  0  0  0
    7.0160    7.0736   28.6647 O   0  5  0  0  0  0  0  0  0  0  0  0
    4.9586    4.6755   28.8935 C   0  0  0  0  0  0  0  0  0  0  0  0
    4.5460    3.9159   30.1598 C   0  0  0  0  0  0  0  0  0  0  0  0
    3.0465    3.6416   30.1264 C   0  0  0  0  0  0  0  0  0  0  0  0
    2.7934    2.1825   30.3092 N   0  0  0  0  0  0  0  0  0  0  0  0
    1.9196    1.7688   31.1952 C   0  0  0  0  0  0  0  0  0  0  0  0
    0.8221    2.4510   31.4100 N   0  0  0  0  0  0  0  0  0  0  0  0
    2.1415    0.6678   31.8641 N   0  3  0  0  0  0  0  0  0  0  0  0
    6.4099    6.9673   30.7294 O   0  0  0  0  0  0  0  0  0  0  0  0
  2  1  1  6  0  0  0
  2  5  1  0  0  0  0
  2  3  1  0  0  0  0
  3  4  1  0  0  0  0
  3 12  2  0  0  0  0
  5  6  1  0  0  0  0
  6  7  1  0  0  0  0
  7  8  1  0  0  0  0
  8  9  1  0  0  0  0
  9 10  1  0  0  0  0
  9 11  2  0  0  0  0
M  CHG  3   1   1   4  -1  11   1
M  END
>  <CHROM.1>
-165.90325717,-145.53739395,-36.50439671,89.37675070,125.71463462,130.34949641
4.08578628,4.44541071,29.97213080,0.83123468,-0.49159452,-0.81540990

>  <Name>
1koc cryst

>  <RI>
0

>  <Rbt.Current_Directory>
/home/itssahil/PROJECTS/Mol_Feturizer/New_Systems/rnas/1koc

>  <Rbt.Executable>
rbdock ($Id: //depot/dev/client3/rdock/2013.1/src/exe/rbdock.cxx#4 $)

>  <Rbt.Library>
libRbt.so (2013.1, Build901 2013/11/27)

>  <Rbt.Parameter_File>
/export/apps/rDock/src/rDock_2013.1_src/data/scripts/dock_solv.prm

>  <Rbt.Receptor>
prm/pocket_docking_7.prm

>  <SCORE>
-32.9141

>  <SCORE.INTER>
-34.81

>  <SCORE.INTER.CONST>
1

>  <SCORE.INTER.POLAR>
-6.70425

>  <SCORE.INTER.ROT>
5

>  <SCORE.INTER.SOLV>
23.263

>  <SCORE.INTER.VDW>
-15.5468

>  <SCORE.INTER.norm>
-2.90084

>  <SCORE.INTRA>
1.8959

>  <SCORE.INTRA.DIHEDRAL>
9.38342

>  <SCORE.INTRA.DIHEDRAL.0>
6.04201

>  <SCORE.INTRA.POLAR>
0

>  <SCORE.INTRA.POLAR.0>
0

>  <SCORE.INTRA.REPUL>
0

>  <SCORE.INTRA.REPUL.0>
0

>  <SCORE.INTRA.SOLV>
-1.31645

>  <SCORE.INTRA.SOLV.lig_0>
-71.0481

>  <SCORE.INTRA.VDW>
-2.13758

>  <SCORE.INTRA.VDW.0>
0.968882

>  <SCORE.INTRA.norm>
0.157991

>  <SCORE.RESTR>
0

>  <SCORE.RESTR.CAVITY>
0

>  <SCORE.RESTR.norm>
0

>  <SCORE.SYSTEM>
0

>  <SCORE.SYSTEM.CONST>
0

>  <SCORE.SYSTEM.DIHEDRAL>
0

>  <SCORE.SYSTEM.SOLV>
0

>  <SCORE.SYSTEM.norm>
0

>  <SCORE.heavy>
12

>  <SCORE.norm>
-2.74284

>  <SYMMETRIC_BONDS>
11 12 2
5 6 2

>  <RMSD>
2.291

$$$$
1koc cryst
 OpenBabel11021811393D
libRbt.so/2013.1/901 2013/11/27
 12 11  0  0  0  0  0  0  0  0999 V2000
    7.2303    4.5574   32.5063 N   0  3  0  0  0  0  0  0  0  0  0  0
    6.1858    5.6185   32.3804 C   0  0  2  0  0  0  0  0  0  0  0  0
    6.2643    6.5488   33.6067 C   0  0  0  0  0  0  0  0  0  0  0  0
    5.3702    7.3668   33.7632 O   0  5  0  0  0  0  0  0  0  0  0  0
    4.7889    4.9480   32.2833 C   0  0  0  0  0  0  0  0  0  0  0  0
    4.6541    4.1394   30.9876 C   0  0  0  0  0  0  0  0  0  0  0  0
    3.1787    3.9094   30.6790 C   0  0  0  0  0  0  0  0  0  0  0  0
    2.9496    2.4755   30.3358 N   0  0  0  0  0  0  0  0  0  0  0  0
    2.1138    1.7521   31.0413 C   0  0  0  0  0  0  0  0  0  0  0  0
    1.0171    2.2862   31.5188 N   0  0  0  0  0  0  0  0  0  0  0  0
    2.3730    0.4906   31.2656 N   0  3  0  0  0  0  0  0  0  0  0  0
    7.2192    6.4366   34.3609 O   0  0  0  0  0  0  0  0  0  0  0  0
  2  1  1  1  0  0  0
  2  5  1  0  0  0  0
  2  3  1  0  0  0  0
  3  4  1  0  0  0  0
  3 12  2  0  0  0  0
  5  6  1  0  0  0  0
  6  7  1  0  0  0  0
  7  8  1  0  0  0  0
  8  9  1  0  0  0  0
  9 10  1  0  0  0  0
  9 11  2  0  0  0  0
M  CHG  3   1   1   4  -1  11   1
M  END
>  <CHROM.1>
-179.96254258,-65.91523046,-170.36585304,-160.33869344,-132.68727407,121.10054891
4.46268004,4.18683559,32.07983189,-0.86257775,0.04897137,-2.67529392

>  <Name>
1koc cryst

>  <RI>
0

>  <Rbt.Current_Directory>
/home/itssahil/PROJECTS/Mol_Feturizer/New_Systems/rnas/1koc

>  <Rbt.Executable>
rbdock ($Id: //depot/dev/client3/rdock/2013.1/src/exe/rbdock.cxx#4 $)

>  <Rbt.Library>
libRbt.so (2013.1, Build901 2013/11/27)

>  <Rbt.Parameter_File>
/export/apps/rDock/src/rDock_2013.1_src/data/scripts/dock_solv.prm

>  <Rbt.Receptor>
prm/pocket_docking_7.prm

>  <SCORE>
-26.1558

>  <SCORE.INTER>
-25.9969

>  <SCORE.INTER.CONST>
1

>  <SCORE.INTER.POLAR>
-5.3298

>  <SCORE.INTER.ROT>
5

>  <SCORE.INTER.SOLV>
20.027

>  <SCORE.INTER.VDW>
-13.1742

>  <SCORE.INTER.norm>
-2.16641

>  <SCORE.INTRA>
-0.158886

>  <SCORE.INTRA.DIHEDRAL>
3.93462

>  <SCORE.INTRA.DIHEDRAL.0>
6.04201

>  <SCORE.INTRA.POLAR>
0

>  <SCORE.INTRA.POLAR.0>
0

>  <SCORE.INTRA.REPUL>
0

>  <SCORE.INTRA.REPUL.0>
0

>  <SCORE.INTRA.SOLV>
-0.967925

>  <SCORE.INTRA.SOLV.lig_0>
-71.0481

>  <SCORE.INTRA.VDW>
-1.64224

>  <SCORE.INTRA.VDW.0>
0.968882

>  <SCORE.INTRA.norm>
-0.0132405

>  <SCORE.RESTR>
0

>  <SCORE.RESTR.CAVITY>
0

>  <SCORE.RESTR.norm>
0

>  <SCORE.SYSTEM>
0

>  <SCORE.SYSTEM.CONST>
0

>  <SCORE.SYSTEM.DIHEDRAL>
0

>  <SCORE.SYSTEM.SOLV>
0

>  <SCORE.SYSTEM.norm>
0

>  <SCORE.heavy>
12

>  <SCORE.norm>
-2.17965

>  <SYMMETRIC_BONDS>
11 12 2
5 6 2

>  <RMSD>
2.295

$$$$
1koc cryst
 OpenBabel11021811393D
libRbt.so/2013.1/901 2013/11/27
 12 11  0  0  0  0  0  0  0  0999 V2000
    4.5343    7.2933   27.6179 N   0  3  0  0  0  0  0  0  0  0  0  0
    4.3346    6.6552   28.9542 C   0  0  2  0  0  0  0  0  0  0  0  0
    5.6723    6.0548   29.4292 C   0  0  0  0  0  0  0  0  0  0  0  0
    6.0619    6.3404   30.5515 O   0  5  0  0  0  0  0  0  0  0  0  0
    3.2459    5.5550   28.8349 C   0  0  0  0  0  0  0  0  0  0  0  0
    2.8868    4.9827   30.2112 C   0  0  0  0  0  0  0  0  0  0  0  0
    1.7676    3.9578   30.0632 C   0  0  0  0  0  0  0  0  0  0  0  0
    1.7945    3.0075   31.2132 N   0  0  0  0  0  0  0  0  0  0  0  0
    2.5115    1.9113   31.1486 C   0  0  0  0  0  0  0  0  0  0  0  0
    3.6677    1.9129   30.5328 N   0  0  0  0  0  0  0  0  0  0  0  0
    2.0734    0.8127   31.7053 N   0  3  0  0  0  0  0  0  0  0  0  0
    6.2891    5.3307   28.6619 O   0  0  0  0  0  0  0  0  0  0  0  0
  2  1  1  6  0  0  0
  2  5  1  0  0  0  0
  2  3  1  0  0  0  0
  3  4  1  0  0  0  0
  3 12  2  0  0  0  0
  5  6  1  0  0  0  0
  6  7  1  0  0  0  0
  7  8  1  0  0  0  0
  8  9  1  0  0  0  0
  9 10  1  0  0  0  0
  9 11  2  0  0  0  0
M  CHG  3   1   1   4  -1  11   1
M  END
>  <CHROM.1>
-67.40163185,-173.35378038,129.05850604,177.16502875,156.31333321,-89.56492300
3.76389529,4.48144871,29.89506357,1.05504899,-0.06658777,-0.51741915

>  <Name>
1koc cryst

>  <RI>
0

>  <Rbt.Current_Directory>
/home/itssahil/PROJECTS/Mol_Feturizer/New_Systems/rnas/1koc

>  <Rbt.Executable>
rbdock ($Id: //depot/dev/client3/rdock/2013.1/src/exe/rbdock.cxx#4 $)

>  <Rbt.Library>
libRbt.so (2013.1, Build901 2013/11/27)

>  <Rbt.Parameter_File>
/export/apps/rDock/src/rDock_2013.1_src/data/scripts/dock_solv.prm

>  <Rbt.Receptor>
prm/pocket_docking_8.prm

>  <SCORE>
-42.8732

>  <SCORE.INTER>
-40.654

>  <SCORE.INTER.CONST>
1

>  <SCORE.INTER.POLAR>
-7.61528

>  <SCORE.INTER.ROT>
5

>  <SCORE.INTER.SOLV>
22.8592

>  <SCORE.INTER.VDW>
-16.2715

>  <SCORE.INTER.norm>
-3.38783

>  <SCORE.INTRA>
-2.21926

>  <SCORE.INTRA.DIHEDRAL>
-0.402694

>  <SCORE.INTRA.DIHEDRAL.0>
6.04201

>  <SCORE.INTRA.POLAR>
0

>  <SCORE.INTRA.POLAR.0>
0

>  <SCORE.INTRA.REPUL>
0

>  <SCORE.INTRA.REPUL.0>
0

>  <SCORE.INTRA.SOLV>
-0.460079

>  <SCORE.INTRA.SOLV.lig_0>
-71.0481

>  <SCORE.INTRA.VDW>
-1.78788

>  <SCORE.INTRA.VDW.0>
0.968882

>  <SCORE.INTRA.norm>
-0.184939

>  <SCORE.RESTR>
0

>  <SCORE.RESTR.CAVITY>
0

>  <SCORE.RESTR.norm>
0

>  <SCORE.SYSTEM>
0

>  <SCORE.SYSTEM.CONST>
0

>  <SCORE.SYSTEM.DIHEDRAL>
0

>  <SCORE.SYSTEM.SOLV>
0

>  <SCORE.SYSTEM.norm>
0

>  <SCORE.heavy>
12

>  <SCORE.norm>
-3.57277

>  <SYMMETRIC_BONDS>
11 12 2
5 6 2

>  <RMSD>
2.295

$$$$
1koc cryst
 OpenBabel11021811393D
libRbt.so/2013.1/901 2013/11/27
 12 11  0  0  0  0  0  0  0  0999 V2000
    2.2817    7.8862   33.5883 N   0  3  0  0  0  0  0  0  0  0  0  0
    3.1033    7.2202   32.5326 C   0  0  2  0  0  0  0  0  0  0  0  0
    3.6449    8.2922   31.5667 C   0  0  0  0  0  0  0  0  0  0  0  0
    4.2161    7.9150   30.5545 O   0  5  0  0  0  0  0  0  0  0  0  0
    2.2219    6.1895   31.7770 C   0  0  0  0  0  0  0  0  0  0  0  0
    3.0815    5.0931   31.1367 C   0  0  0  0  0  0  0  0  0  0  0  0
    2.2280    4.2661   30.1814 C   0  0  0  0  0  0  0  0  0  0  0  0
    2.7199    2.8578   30.1511 N   0  0  0  0  0  0  0  0  0  0  0  0
    2.2947    1.9896   31.0372 C   0  0  0  0  0  0  0  0  0  0  0  0
    1.0555    2.0293   31.4600 N   0  0  0  0  0  0  0  0  0  0  0  0
    3.1092    1.0766   31.4976 N   0  3  0  0  0  0  0  0  0  0  0  0
    3.4906    9.4687   31.8588 O   0  0  0  0  0  0  0  0  0  0  0  0
  2  1  1  1  0  0  0
  2  5  1  0  0  0  0
  2  3  1  0  0  0  0
  3  4  1  0  0  0  0
  3 12  2  0  0  0  0
  5  6  1  0  0  0  0
  6  7  1  0  0  0  0
  7  8  1  0  0  0  0
  8  9  1  0  0  0  0
  9 10  1  0  0  0  0
  9 11  2  0  0  0  0
M  CHG  3   1   1   4  -1  11   1
M  END
>  <CHROM.1>
-163.35694291,-155.79964840,-172.01764085,-168.75686909,-148.34954105,86.17113770
2.77878954,5.36610080,31.47110656,1.29829016,0.95831205,0.37817003

>  <Name>
1koc cryst

>  <RI>
0

>  <Rbt.Current_Directory>
/home/itssahil/PROJECTS/Mol_Feturizer/New_Systems/rnas/1koc

>  <Rbt.Executable>
rbdock ($Id: //depot/dev/client3/rdock/2013.1/src/exe/rbdock.cxx#4 $)

>  <Rbt.Library>
libRbt.so (2013.1, Build901 2013/11/27)

>  <Rbt.Parameter_File>
/export/apps/rDock/src/rDock_2013.1_src/data/scripts/dock_solv.prm

>  <Rbt.Receptor>
prm/pocket_docking_6.prm

>  <SCORE>
-31.2372

>  <SCORE.INTER>
-30.7268

>  <SCORE.INTER.CONST>
1

>  <SCORE.INTER.POLAR>
-5.38609

>  <SCORE.INTER.ROT>
5

>  <SCORE.INTER.SOLV>
28.9674

>  <SCORE.INTER.VDW>
-19.1201

>  <SCORE.INTER.norm>
-2.56057

>  <SCORE.INTRA>
-0.510337

>  <SCORE.INTRA.DIHEDRAL>
3.34341

>  <SCORE.INTRA.DIHEDRAL.0>
6.04201

>  <SCORE.INTRA.POLAR>
0

>  <SCORE.INTRA.POLAR.0>
0

>  <SCORE.INTRA.REPUL>
0

>  <SCORE.INTRA.REPUL.0>
0

>  <SCORE.INTRA.SOLV>
-0.819079

>  <SCORE.INTRA.SOLV.lig_0>
-71.0481

>  <SCORE.INTRA.VDW>
-1.7725

>  <SCORE.INTRA.VDW.0>
0.968882

>  <SCORE.INTRA.norm>
-0.0425281

>  <SCORE.RESTR>
0

>  <SCORE.RESTR.CAVITY>
0

>  <SCORE.RESTR.norm>
0

>  <SCORE.SYSTEM>
0

>  <SCORE.SYSTEM.CONST>
0

>  <SCORE.SYSTEM.DIHEDRAL>
0

>  <SCORE.SYSTEM.SOLV>
0

>  <SCORE.SYSTEM.norm>
0

>  <SCORE.heavy>
12

>  <SCORE.norm>
-2.6031

>  <SYMMETRIC_BONDS>
11 12 2
5 6 2

>  <RMSD>
2.296

$$$$
1koc cryst
 OpenBabel11021811393D
libRbt.so/2013.1/901 2013/11/27
 12 11  0  0  0  0  0  0  0  0999 V2000
    5.1741    5.7566   33.2134 N   0  3  0  0  0  0  0  0  0  0  0  0
    6.1262    5.0713   32.2878 C   0  0  2  0  0  0  0  0  0  0  0  0
    7.2128    6.0738   31.8522 C   0  0  0  0  0  0  0  0  0  0  0  0
    6.8886    7.2430   31.7075 O   0  5  0  0  0  0  0  0  0  0  0  0
    5.3437    4.5351   31.0589 C   0  0  0  0  0  0  0  0  0  0  0  0
    4.6040    3.2361   31.3999 C   0  0  0  0  0  0  0  0  0  0  0  0
    3.6603    2.8700   30.2595 C   0  0  0  0  0  0  0  0  0  0  0  0
    3.0869    1.5122   30.4915 N   0  0  0  0  0  0  0  0  0  0  0  0
    2.1158    1.3434   31.3565 C   0  0  0  0  0  0  0  0  0  0  0  0
    1.1890    2.2585   31.4969 N   0  0  0  0  0  0  0  0  0  0  0  0
    2.0687    0.2550   32.0789 N   0  3  0  0  0  0  0  0  0  0  0  0
    8.3450    5.6562   31.6598 O   0  0  0  0  0  0  0  0  0  0  0  0
  2  1  1  1  0  0  0
  2  5  1  0  0  0  0
  2  3  1  0  0  0  0
  3  4  1  0  0  0  0
  3 12  2  0  0  0  0
  5  6  1  0  0  0  0
  6  7  1  0  0  0  0
  7  8  1  0  0  0  0
  8  9  1  0  0  0  0
  9 10  1  0  0  0  0
  9 11  2  0  0  0  0
M  CHG  3   1   1   4  -1  11   1
M  END
>  <CHROM.1>
-58.04205400,-78.58679817,-34.59755393,170.22075644,171.82179287,77.51539782
4.63453372,3.83150500,31.60108010,0.68085316,0.41813211,0.59287078

>  <Name>
1koc cryst

>  <RI>
0

>  <Rbt.Current_Directory>
/home/itssahil/PROJECTS/Mol_Feturizer/New_Systems/rnas/1koc

>  <Rbt.Executable>
rbdock ($Id: //depot/dev/client3/rdock/2013.1/src/exe/rbdock.cxx#4 $)

>  <Rbt.Library>
libRbt.so (2013.1, Build901 2013/11/27)

>  <Rbt.Parameter_File>
/export/apps/rDock/src/rDock_2013.1_src/data/scripts/dock_solv.prm

>  <Rbt.Receptor>
prm/pocket_docking_6.prm

>  <SCORE>
-27.1851

>  <SCORE.INTER>
-24.03

>  <SCORE.INTER.CONST>
1

>  <SCORE.INTER.POLAR>
-4.98953

>  <SCORE.INTER.ROT>
5

>  <SCORE.INTER.SOLV>
18.7698

>  <SCORE.INTER.VDW>
-12.5782

>  <SCORE.INTER.norm>
-2.0025

>  <SCORE.INTRA>
-3.15518

>  <SCORE.INTRA.DIHEDRAL>
-0.84184

>  <SCORE.INTRA.DIHEDRAL.0>
6.04201

>  <SCORE.INTRA.POLAR>
0

>  <SCORE.INTRA.POLAR.0>
0

>  <SCORE.INTRA.REPUL>
0

>  <SCORE.INTRA.REPUL.0>
0

>  <SCORE.INTRA.SOLV>
-1.05566

>  <SCORE.INTRA.SOLV.lig_0>
-71.0481

>  <SCORE.INTRA.VDW>
-2.20643

>  <SCORE.INTRA.VDW.0>
0.968882

>  <SCORE.INTRA.norm>
-0.262931

>  <SCORE.RESTR>
0

>  <SCORE.RESTR.CAVITY>
0

>  <SCORE.RESTR.norm>
0

>  <SCORE.SYSTEM>
0

>  <SCORE.SYSTEM.CONST>
0

>  <SCORE.SYSTEM.DIHEDRAL>
0

>  <SCORE.SYSTEM.SOLV>
0

>  <SCORE.SYSTEM.norm>
0

>  <SCORE.heavy>
12

>  <SCORE.norm>
-2.26543

>  <SYMMETRIC_BONDS>
11 12 2
5 6 2

>  <RMSD>
2.306

$$$$
1koc cryst
 OpenBabel11021811393D
libRbt.so/2013.1/901 2013/11/27
 12 11  0  0  0  0  0  0  0  0999 V2000
    3.9803    6.1806   27.7351 N   0  3  0  0  0  0  0  0  0  0  0  0
    3.7903    5.1309   28.7814 C   0  0  2  0  0  0  0  0  0  0  0  0
    2.9918    5.7304   29.9555 C   0  0  0  0  0  0  0  0  0  0  0  0
    3.3743    6.7914   30.4257 O   0  5  0  0  0  0  0  0  0  0  0  0
    5.1805    4.6294   29.2570 C   0  0  0  0  0  0  0  0  0  0  0  0
    5.0965    3.1944   29.7902 C   0  0  0  0  0  0  0  0  0  0  0  0
    3.9592    3.0895   30.8005 C   0  0  0  0  0  0  0  0  0  0  0  0
    3.4726    1.6809   30.8723 N   0  0  0  0  0  0  0  0  0  0  0  0
    2.2650    1.4200   31.3122 C   0  0  0  0  0  0  0  0  0  0  0  0
    1.2727    2.2305   31.0396 N   0  0  0  0  0  0  0  0  0  0  0  0
    2.0486    0.3437   32.0218 N   0  3  0  0  0  0  0  0  0  0  0  0
    2.0210    5.1160   30.3717 O   0  0  0  0  0  0  0  0  0  0  0  0
  2  1  1  6  0  0  0
  2  5  1  0  0  0  0
  2  3  1  0  0  0  0
  3  4  1  0  0  0  0
  3 12  2  0  0  0  0
  5  6  1  0  0  0  0
  6  7  1  0  0  0  0
  7  8  1  0  0  0  0
  8  9  1  0  0  0  0
  9 10  1  0  0  0  0
  9 11  2  0  0  0  0
M  CHG  3   1   1   4  -1  11   1
M  END
>  <CHROM.1>
-76.08013970,-153.67846814,-50.32871997,-50.12405586,155.19679686,-157.67470888
3.26132375,3.81130231,30.18776267,-1.25662156,-0.44404045,2.80708575

>  <Name>
1koc cryst

>  <RI>
0

>  <Rbt.Current_Directory>
/home/itssahil/PROJECTS/Mol_Feturizer/New_Systems/rnas/1koc

>  <Rbt.Executable>
rbdock ($Id: //depot/dev/client3/rdock/2013.1/src/exe/rbdock.cxx#4 $)

>  <Rbt.Library>
libRbt.so (2013.1, Build901 2013/11/27)

>  <Rbt.Parameter_File>
/export/apps/rDock/src/rDock_2013.1_src/data/scripts/dock_solv.prm

>  <Rbt.Receptor>
prm/pocket_docking_3.prm

>  <SCORE>
-36.9433

>  <SCORE.INTER>
-34.6334

>  <SCORE.INTER.CONST>
1

>  <SCORE.INTER.POLAR>
-6.49292

>  <SCORE.INTER.ROT>
5

>  <SCORE.INTER.SOLV>
30.7393

>  <SCORE.INTER.VDW>
-18.6256

>  <SCORE.INTER.norm>
-2.88612

>  <SCORE.INTRA>
-2.30987

>  <SCORE.INTRA.DIHEDRAL>
2.48223

>  <SCORE.INTRA.DIHEDRAL.0>
6.04201

>  <SCORE.INTRA.POLAR>
-1.34354

>  <SCORE.INTRA.POLAR.0>
0

>  <SCORE.INTRA.REPUL>
0

>  <SCORE.INTRA.REPUL.0>
0

>  <SCORE.INTRA.SOLV>
2.6536

>  <SCORE.INTRA.SOLV.lig_0>
-71.0481

>  <SCORE.INTRA.VDW>
-0.309752

>  <SCORE.INTRA.VDW.0>
0.968882

>  <SCORE.INTRA.norm>
-0.19249

>  <SCORE.RESTR>
0

>  <SCORE.RESTR.CAVITY>
0

>  <SCORE.RESTR.norm>
0

>  <SCORE.SYSTEM>
0

>  <SCORE.SYSTEM.CONST>
0

>  <SCORE.SYSTEM.DIHEDRAL>
0

>  <SCORE.SYSTEM.SOLV>
0

>  <SCORE.SYSTEM.norm>
0

>  <SCORE.heavy>
12

>  <SCORE.norm>
-3.07861

>  <SYMMETRIC_BONDS>
11 12 2
5 6 2

>  <RMSD>
2.317

$$$$
1koc cryst
 OpenBabel11021811393D
libRbt.so/2013.1/901 2013/11/27
 12 11  0  0  0  0  0  0  0  0999 V2000
    4.0801    6.5757   27.2650 N   0  3  0  0  0  0  0  0  0  0  0  0
    4.1393    6.4221   28.7502 C   0  0  2  0  0  0  0  0  0  0  0  0
    5.4717    7.0032   29.2627 C   0  0  0  0  0  0  0  0  0  0  0  0
    6.5059    6.4427   28.9319 O   0  5  0  0  0  0  0  0  0  0  0  0
    4.0170    4.9172   29.1111 C   0  0  0  0  0  0  0  0  0  0  0  0
    4.1711    4.6977   30.6208 C   0  0  0  0  0  0  0  0  0  0  0  0
    2.9222    4.0161   31.1690 C   0  0  0  0  0  0  0  0  0  0  0  0
    2.9632    2.5570   30.8596 N   0  0  0  0  0  0  0  0  0  0  0  0
    1.9038    1.8094   31.0558 C   0  0  0  0  0  0  0  0  0  0  0  0
    0.7056    2.2885   30.8304 N   0  0  0  0  0  0  0  0  0  0  0  0
    2.0433    0.5785   31.4733 N   0  3  0  0  0  0  0  0  0  0  0  0
    5.4364    7.9887   29.9843 O   0  0  0  0  0  0  0  0  0  0  0  0
  2  1  1  6  0  0  0
  2  5  1  0  0  0  0
  2  3  1  0  0  0  0
  3  4  1  0  0  0  0
  3 12  2  0  0  0  0
  5  6  1  0  0  0  0
  6  7  1  0  0  0  0
  7  8  1  0  0  0  0
  8  9  1  0  0  0  0
  9 10  1  0  0  0  0
  9 11  2  0  0  0  0
M  CHG  3   1   1   4  -1  11   1
M  END
>  <CHROM.1>
-57.83821056,176.02078459,-65.88154933,121.61342167,78.57038439,-169.63397595
3.69487436,4.60577966,29.91364588,0.87636596,-0.63511410,-0.87152939

>  <Name>
1koc cryst

>  <RI>
0

>  <Rbt.Current_Directory>
/home/itssahil/PROJECTS/Mol_Feturizer/New_Systems/rnas/1koc

>  <Rbt.Executable>
rbdock ($Id: //depot/dev/client3/rdock/2013.1/src/exe/rbdock.cxx#4 $)

>  <Rbt.Library>
libRbt.so (2013.1, Build901 2013/11/27)

>  <Rbt.Parameter_File>
/export/apps/rDock/src/rDock_2013.1_src/data/scripts/dock_solv.prm

>  <Rbt.Receptor>
prm/pocket_docking_3.prm

>  <SCORE>
-30.1301

>  <SCORE.INTER>
-30.5492

>  <SCORE.INTER.CONST>
1

>  <SCORE.INTER.POLAR>
-5.67629

>  <SCORE.INTER.ROT>
5

>  <SCORE.INTER.SOLV>
26.0118

>  <SCORE.INTER.VDW>
-17.0491

>  <SCORE.INTER.norm>
-2.54577

>  <SCORE.INTRA>
0.238052

>  <SCORE.INTRA.DIHEDRAL>
4.78017

>  <SCORE.INTRA.DIHEDRAL.0>
6.04201

>  <SCORE.INTRA.POLAR>
0

>  <SCORE.INTRA.POLAR.0>
0

>  <SCORE.INTRA.REPUL>
0

>  <SCORE.INTRA.REPUL.0>
0

>  <SCORE.INTRA.SOLV>
-1.12638

>  <SCORE.INTRA.SOLV.lig_0>
-71.0481

>  <SCORE.INTRA.VDW>
-1.58885

>  <SCORE.INTRA.VDW.0>
0.968882

>  <SCORE.INTRA.norm>
0.0198376

>  <SCORE.RESTR>
0.181043

>  <SCORE.RESTR.CAVITY>
0.181043

>  <SCORE.RESTR.norm>
0.0150869

>  <SCORE.SYSTEM>
0

>  <SCORE.SYSTEM.CONST>
0

>  <SCORE.SYSTEM.DIHEDRAL>
0

>  <SCORE.SYSTEM.SOLV>
0

>  <SCORE.SYSTEM.norm>
0

>  <SCORE.heavy>
12

>  <SCORE.norm>
-2.51085

>  <SYMMETRIC_BONDS>
11 12 2
5 6 2

>  <RMSD>
2.320

$$$$
1koc cryst
 OpenBabel11021811393D
libRbt.so/2013.1/901 2013/11/27
 12 11  0  0  0  0  0  0  0  0999 V2000
    4.5305    7.1598   27.6716 N   0  3  0  0  0  0  0  0  0  0  0  0
    4.2676    6.5678   29.0181 C   0  0  2  0  0  0  0  0  0  0  0  0
    5.5695    5.9405   29.5542 C   0  0  0  0  0  0  0  0  0  0  0  0
    6.2918    5.3550   28.7615 O   0  5  0  0  0  0  0  0  0  0  0  0
    3.1488    5.4986   28.8940 C   0  0  0  0  0  0  0  0  0  0  0  0
    2.7720    4.9324   30.2682 C   0  0  0  0  0  0  0  0  0  0  0  0
    1.6342    3.9292   30.1139 C   0  0  0  0  0  0  0  0  0  0  0  0
    1.6621    2.9528   31.2418 N   0  0  0  0  0  0  0  0  0  0  0  0
    2.4265    1.8892   31.1769 C   0  0  0  0  0  0  0  0  0  0  0  0
    3.6018    1.9538   30.6021 N   0  0  0  0  0  0  0  0  0  0  0  0
    2.0166    0.7600   31.6924 N   0  3  0  0  0  0  0  0  0  0  0  0
    5.8170    6.0454   30.7462 O   0  0  0  0  0  0  0  0  0  0  0  0
  2  1  1  6  0  0  0
  2  5  1  0  0  0  0
  2  3  1  0  0  0  0
  3  4  1  0  0  0  0
  3 12  2  0  0  0  0
  5  6  1  0  0  0  0
  6  7  1  0  0  0  0
  7  8  1  0  0  0  0
  8  9  1  0  0  0  0
  9 10  1  0  0  0  0
  9 11  2  0  0  0  0
M  CHG  3   1   1   4  -1  11   1
M  END
>  <CHROM.1>
54.23504940,-175.92870304,-38.71385607,177.72223059,154.62521414,-85.21140061
3.67360642,4.41104501,29.96325039,1.04257173,-0.07435756,-0.52731003

>  <Name>
1koc cryst

>  <RI>
0

>  <Rbt.Current_Directory>
/home/itssahil/PROJECTS/Mol_Feturizer/New_Systems/rnas/1koc

>  <Rbt.Executable>
rbdock ($Id: //depot/dev/client3/rdock/2013.1/src/exe/rbdock.cxx#4 $)

>  <Rbt.Library>
libRbt.so (2013.1, Build901 2013/11/27)

>  <Rbt.Parameter_File>
/export/apps/rDock/src/rDock_2013.1_src/data/scripts/dock_solv.prm

>  <Rbt.Receptor>
prm/pocket_docking_4.prm

>  <SCORE>
-42.8248

>  <SCORE.INTER>
-41.3117

>  <SCORE.INTER.CONST>
1

>  <SCORE.INTER.POLAR>
-7.66334

>  <SCORE.INTER.ROT>
5

>  <SCORE.INTER.SOLV>
22.6836

>  <SCORE.INTER.VDW>
-16.4912

>  <SCORE.INTER.norm>
-3.44264

>  <SCORE.INTRA>
-1.51309

>  <SCORE.INTRA.DIHEDRAL>
-0.340915

>  <SCORE.INTRA.DIHEDRAL.0>
6.04201

>  <SCORE.INTRA.POLAR>
0

>  <SCORE.INTRA.POLAR.0>
0

>  <SCORE.INTRA.REPUL>
0

>  <SCORE.INTRA.REPUL.0>
0

>  <SCORE.INTRA.SOLV>
-0.0357724

>  <SCORE.INTRA.SOLV.lig_0>
-71.0481

>  <SCORE.INTRA.VDW>
-1.32474

>  <SCORE.INTRA.VDW.0>
0.968882

>  <SCORE.INTRA.norm>
-0.126091

>  <SCORE.RESTR>
0

>  <SCORE.RESTR.CAVITY>
0

>  <SCORE.RESTR.norm>
0

>  <SCORE.SYSTEM>
0

>  <SCORE.SYSTEM.CONST>
0

>  <SCORE.SYSTEM.DIHEDRAL>
0

>  <SCORE.SYSTEM.SOLV>
0

>  <SCORE.SYSTEM.norm>
0

>  <SCORE.heavy>
12

>  <SCORE.norm>
-3.56873

>  <SYMMETRIC_BONDS>
11 12 2
5 6 2

>  <RMSD>
2.325

$$$$
1koc cryst
 OpenBabel11021811393D
libRbt.so/2013.1/901 2013/11/27
 12 11  0  0  0  0  0  0  0  0999 V2000
    4.1992    6.4167   27.9029 N   0  3  0  0  0  0  0  0  0  0  0  0
    4.0637    6.6500   29.3726 C   0  0  2  0  0  0  0  0  0  0  0  0
    4.7291    7.9931   29.7316 C   0  0  0  0  0  0  0  0  0  0  0  0
    5.2225    8.6481   28.8257 O   0  5  0  0  0  0  0  0  0  0  0  0
    4.7355    5.4780   30.1377 C   0  0  0  0  0  0  0  0  0  0  0  0
    3.8333    4.9677   31.2675 C   0  0  0  0  0  0  0  0  0  0  0  0
    2.5685    4.3554   30.6756 C   0  0  0  0  0  0  0  0  0  0  0  0
    2.8313    2.9449   30.2661 N   0  0  0  0  0  0  0  0  0  0  0  0
    2.3830    1.9505   30.9940 C   0  0  0  0  0  0  0  0  0  0  0  0
    1.2219    2.0410   31.5937 N   0  0  0  0  0  0  0  0  0  0  0  0
    3.0952    0.8614   31.1183 N   0  3  0  0  0  0  0  0  0  0  0  0
    4.7447    8.3388   30.9036 O   0  0  0  0  0  0  0  0  0  0  0  0
  2  1  1  6  0  0  0
  2  5  1  0  0  0  0
  2  3  1  0  0  0  0
  3  4  1  0  0  0  0
  3 12  2  0  0  0  0
  5  6  1  0  0  0  0
  6  7  1  0  0  0  0
  7  8  1  0  0  0  0
  8  9  1  0  0  0  0
  9 10  1  0  0  0  0
  9 11  2  0  0  0  0
M  CHG  3   1   1   4  -1  11   1
M  END
>  <CHROM.1>
-80.58014104,-133.63265852,1.10369066,65.26061811,83.16442944,104.33817435
3.63832893,5.04696310,30.20476034,-0.26743165,-1.18147755,-2.13999608

>  <Name>
1koc cryst

>  <RI>
0

>  <Rbt.Current_Directory>
/home/itssahil/PROJECTS/Mol_Feturizer/New_Systems/rnas/1koc

>  <Rbt.Executable>
rbdock ($Id: //depot/dev/client3/rdock/2013.1/src/exe/rbdock.cxx#4 $)

>  <Rbt.Library>
libRbt.so (2013.1, Build901 2013/11/27)

>  <Rbt.Parameter_File>
/export/apps/rDock/src/rDock_2013.1_src/data/scripts/dock_solv.prm

>  <Rbt.Receptor>
prm/pocket_docking_8.prm

>  <SCORE>
-27.0929

>  <SCORE.INTER>
-27.693

>  <SCORE.INTER.CONST>
1

>  <SCORE.INTER.POLAR>
-5.32011

>  <SCORE.INTER.ROT>
5

>  <SCORE.INTER.SOLV>
25.6708

>  <SCORE.INTER.VDW>
-16.2185

>  <SCORE.INTER.norm>
-2.30775

>  <SCORE.INTRA>
0.600101

>  <SCORE.INTRA.DIHEDRAL>
4.75522

>  <SCORE.INTRA.DIHEDRAL.0>
6.04201

>  <SCORE.INTRA.POLAR>
0

>  <SCORE.INTRA.POLAR.0>
0

>  <SCORE.INTRA.REPUL>
0

>  <SCORE.INTRA.REPUL.0>
0

>  <SCORE.INTRA.SOLV>
-0.359103

>  <SCORE.INTRA.SOLV.lig_0>
-71.0481

>  <SCORE.INTRA.VDW>
-1.59796

>  <SCORE.INTRA.VDW.0>
0.968882

>  <SCORE.INTRA.norm>
0.0500084

>  <SCORE.RESTR>
0

>  <SCORE.RESTR.CAVITY>
0

>  <SCORE.RESTR.norm>
0

>  <SCORE.SYSTEM>
0

>  <SCORE.SYSTEM.CONST>
0

>  <SCORE.SYSTEM.DIHEDRAL>
0

>  <SCORE.SYSTEM.SOLV>
0

>  <SCORE.SYSTEM.norm>
0

>  <SCORE.heavy>
12

>  <SCORE.norm>
-2.25774

>  <SYMMETRIC_BONDS>
11 12 2
5 6 2

>  <RMSD>
2.325

$$$$
1koc cryst
 OpenBabel11021811393D
libRbt.so/2013.1/901 2013/11/27
 12 11  0  0  0  0  0  0  0  0999 V2000
    4.5453    7.1382   27.6732 N   0  3  0  0  0  0  0  0  0  0  0  0
    4.2697    6.5415   29.0152 C   0  0  2  0  0  0  0  0  0  0  0  0
    5.5592    5.8869   29.5483 C   0  0  0  0  0  0  0  0  0  0  0  0
    6.2387    5.2394   28.7659 O   0  5  0  0  0  0  0  0  0  0  0  0
    3.1319    5.4937   28.8819 C   0  0  0  0  0  0  0  0  0  0  0  0
    2.6533    5.0209   30.2597 C   0  0  0  0  0  0  0  0  0  0  0  0
    1.5968    3.9347   30.0895 C   0  0  0  0  0  0  0  0  0  0  0  0
    1.6701    2.9728   31.2278 N   0  0  0  0  0  0  0  0  0  0  0  0
    2.4405    1.9144   31.1505 C   0  0  0  0  0  0  0  0  0  0  0  0
    3.5955    1.9807   30.5361 N   0  0  0  0  0  0  0  0  0  0  0  0
    2.0571    0.7886   31.6932 N   0  3  0  0  0  0  0  0  0  0  0  0
    5.8400    6.0333   30.7286 O   0  0  0  0  0  0  0  0  0  0  0  0
  2  1  1  6  0  0  0
  2  5  1  0  0  0  0
  2  3  1  0  0  0  0
  3  4  1  0  0  0  0
  3 12  2  0  0  0  0
  5  6  1  0  0  0  0
  6  7  1  0  0  0  0
  7  8  1  0  0  0  0
  8  9  1  0  0  0  0
  9 10  1  0  0  0  0
  9 11  2  0  0  0  0
M  CHG  3   1   1   4  -1  11   1
M  END
>  <CHROM.1>
52.52951181,-170.64780980,-42.18490789,-176.64795894,148.43940322,-90.21228224
3.66288846,4.40738196,29.94906234,1.04103630,-0.05383548,-0.51789675

>  <Name>
1koc cryst

>  <RI>
0

>  <Rbt.Current_Directory>
/home/itssahil/PROJECTS/Mol_Feturizer/New_Systems/rnas/1koc

>  <Rbt.Executable>
rbdock ($Id: //depot/dev/client3/rdock/2013.1/src/exe/rbdock.cxx#4 $)

>  <Rbt.Library>
libRbt.so (2013.1, Build901 2013/11/27)

>  <Rbt.Parameter_File>
/export/apps/rDock/src/rDock_2013.1_src/data/scripts/dock_solv.prm

>  <Rbt.Receptor>
prm/pocket_docking_6.prm

>  <SCORE>
-42.8897

>  <SCORE.INTER>
-41.341

>  <SCORE.INTER.CONST>
1

>  <SCORE.INTER.POLAR>
-7.65906

>  <SCORE.INTER.ROT>
5

>  <SCORE.INTER.SOLV>
22.8281

>  <SCORE.INTER.VDW>
-16.5732

>  <SCORE.INTER.norm>
-3.44508

>  <SCORE.INTRA>
-1.54869

>  <SCORE.INTRA.DIHEDRAL>
0.870692

>  <SCORE.INTRA.DIHEDRAL.0>
6.04201

>  <SCORE.INTRA.POLAR>
0

>  <SCORE.INTRA.POLAR.0>
0

>  <SCORE.INTRA.REPUL>
0

>  <SCORE.INTRA.REPUL.0>
0

>  <SCORE.INTRA.SOLV>
-0.0657284

>  <SCORE.INTRA.SOLV.lig_0>
-71.0481

>  <SCORE.INTRA.VDW>
-1.95118

>  <SCORE.INTRA.VDW.0>
0.968882

>  <SCORE.INTRA.norm>
-0.129058

>  <SCORE.RESTR>
0

>  <SCORE.RESTR.CAVITY>
0

>  <SCORE.RESTR.norm>
0

>  <SCORE.SYSTEM>
0

>  <SCORE.SYSTEM.CONST>
0

>  <SCORE.SYSTEM.DIHEDRAL>
0

>  <SCORE.SYSTEM.SOLV>
0

>  <SCORE.SYSTEM.norm>
0

>  <SCORE.heavy>
12

>  <SCORE.norm>
-3.57414

>  <SYMMETRIC_BONDS>
11 12 2
5 6 2

>  <RMSD>
2.335

$$$$
1koc cryst
 OpenBabel11021811393D
libRbt.so/2013.1/901 2013/11/27
 12 11  0  0  0  0  0  0  0  0999 V2000
    4.3115    6.9469   27.6013 N   0  3  0  0  0  0  0  0  0  0  0  0
    4.6681    6.4183   28.9526 C   0  0  2  0  0  0  0  0  0  0  0  0
    6.0521    6.9635   29.3563 C   0  0  0  0  0  0  0  0  0  0  0  0
    6.8657    7.1739   28.4693 O   0  5  0  0  0  0  0  0  0  0  0  0
    4.6772    4.8665   28.9055 C   0  0  0  0  0  0  0  0  0  0  0  0
    4.6598    4.2716   30.3185 C   0  0  0  0  0  0  0  0  0  0  0  0
    3.2314    3.8972   30.6986 C   0  0  0  0  0  0  0  0  0  0  0  0
    2.9684    2.4725   30.3421 N   0  0  0  0  0  0  0  0  0  0  0  0
    2.1199    1.7608   31.0445 C   0  0  0  0  0  0  0  0  0  0  0  0
    1.0378    2.3146   31.5328 N   0  0  0  0  0  0  0  0  0  0  0  0
    2.3516    0.4916   31.2547 N   0  3  0  0  0  0  0  0  0  0  0  0
    6.2795    7.1505   30.5423 O   0  0  0  0  0  0  0  0  0  0  0  0
  2  1  1  6  0  0  0
  2  5  1  0  0  0  0
  2  3  1  0  0  0  0
  3  4  1  0  0  0  0
  3 12  2  0  0  0  0
  5  6  1  0  0  0  0
  6  7  1  0  0  0  0
  7  8  1  0  0  0  0
  8  9  1  0  0  0  0
  9 10  1  0  0  0  0
  9 11  2  0  0  0  0
M  CHG  3   1   1   4  -1  11   1
M  END
>  <CHROM.1>
68.93475406,-164.66003067,-31.59733582,97.29614013,92.46690882,149.73559921
4.09452776,4.56685715,29.89770726,0.86349791,-0.57146799,-0.83692404

>  <Name>
1koc cryst

>  <RI>
0

>  <Rbt.Current_Directory>
/home/itssahil/PROJECTS/Mol_Feturizer/New_Systems/rnas/1koc

>  <Rbt.Executable>
rbdock ($Id: //depot/dev/client3/rdock/2013.1/src/exe/rbdock.cxx#4 $)

>  <Rbt.Library>
libRbt.so (2013.1, Build901 2013/11/27)

>  <Rbt.Parameter_File>
/export/apps/rDock/src/rDock_2013.1_src/data/scripts/dock_solv.prm

>  <Rbt.Receptor>
prm/pocket_docking_7.prm

>  <SCORE>
-35.1774

>  <SCORE.INTER>
-35.4647

>  <SCORE.INTER.CONST>
1

>  <SCORE.INTER.POLAR>
-6.76629

>  <SCORE.INTER.ROT>
5

>  <SCORE.INTER.SOLV>
24.7644

>  <SCORE.INTER.VDW>
-16.277

>  <SCORE.INTER.norm>
-2.95539

>  <SCORE.INTRA>
0.287267

>  <SCORE.INTRA.DIHEDRAL>
5.69437

>  <SCORE.INTRA.DIHEDRAL.0>
6.04201

>  <SCORE.INTRA.POLAR>
0

>  <SCORE.INTRA.POLAR.0>
0

>  <SCORE.INTRA.REPUL>
0

>  <SCORE.INTRA.REPUL.0>
0

>  <SCORE.INTRA.SOLV>
-1.06208

>  <SCORE.INTRA.SOLV.lig_0>
-71.0481

>  <SCORE.INTRA.VDW>
-2.02888

>  <SCORE.INTRA.VDW.0>
0.968882

>  <SCORE.INTRA.norm>
0.0239389

>  <SCORE.RESTR>
0

>  <SCORE.RESTR.CAVITY>
0

>  <SCORE.RESTR.norm>
0

>  <SCORE.SYSTEM>
0

>  <SCORE.SYSTEM.CONST>
0

>  <SCORE.SYSTEM.DIHEDRAL>
0

>  <SCORE.SYSTEM.SOLV>
0

>  <SCORE.SYSTEM.norm>
0

>  <SCORE.heavy>
12

>  <SCORE.norm>
-2.93145

>  <SYMMETRIC_BONDS>
11 12 2
5 6 2

>  <RMSD>
2.346

$$$$
1koc cryst
 OpenBabel11021811393D
libRbt.so/2013.1/901 2013/11/27
 12 11  0  0  0  0  0  0  0  0999 V2000
    7.1941    5.3785   31.6898 N   0  3  0  0  0  0  0  0  0  0  0  0
    6.4192    6.0522   30.6042 C   0  0  2  0  0  0  0  0  0  0  0  0
    6.6344    7.5751   30.7041 C   0  0  0  0  0  0  0  0  0  0  0  0
    6.5333    8.2361   29.6814 O   0  5  0  0  0  0  0  0  0  0  0  0
    4.9160    5.6949   30.7555 C   0  0  0  0  0  0  0  0  0  0  0  0
    4.6684    4.2121   30.4540 C   0  0  0  0  0  0  0  0  0  0  0  0
    3.1904    3.8905   30.6463 C   0  0  0  0  0  0  0  0  0  0  0  0
    2.9366    2.4566   30.3212 N   0  0  0  0  0  0  0  0  0  0  0  0
    2.1038    1.7511   31.0482 C   0  0  0  0  0  0  0  0  0  0  0  0
    1.0226    2.3042   31.5391 N   0  0  0  0  0  0  0  0  0  0  0  0
    2.3503    0.4885   31.2804 N   0  3  0  0  0  0  0  0  0  0  0  0
    6.9069    8.0529   31.7953 O   0  0  0  0  0  0  0  0  0  0  0  0
  2  1  1  1  0  0  0
  2  5  1  0  0  0  0
  2  3  1  0  0  0  0
  3  4  1  0  0  0  0
  3 12  2  0  0  0  0
  5  6  1  0  0  0  0
  6  7  1  0  0  0  0
  7  8  1  0  0  0  0
  8  9  1  0  0  0  0
  9 10  1  0  0  0  0
  9 11  2  0  0  0  0
M  CHG  3   1   1   4  -1  11   1
M  END
>  <CHROM.1>
65.51961432,-68.20764823,152.69308109,178.58588864,178.58850500,140.59475207
4.58732570,4.66157425,30.90108163,-0.84805918,0.27080909,2.86859951

>  <Name>
1koc cryst

>  <RI>
0

>  <Rbt.Current_Directory>
/home/itssahil/PROJECTS/Mol_Feturizer/New_Systems/rnas/1koc

>  <Rbt.Executable>
rbdock ($Id: //depot/dev/client3/rdock/2013.1/src/exe/rbdock.cxx#4 $)

>  <Rbt.Library>
libRbt.so (2013.1, Build901 2013/11/27)

>  <Rbt.Parameter_File>
/export/apps/rDock/src/rDock_2013.1_src/data/scripts/dock_solv.prm

>  <Rbt.Receptor>
prm/pocket_docking_7.prm

>  <SCORE>
-23.5022

>  <SCORE.INTER>
-19.9007

>  <SCORE.INTER.CONST>
1

>  <SCORE.INTER.POLAR>
-4.36049

>  <SCORE.INTER.ROT>
5

>  <SCORE.INTER.SOLV>
15.4644

>  <SCORE.INTER.VDW>
-10.8203

>  <SCORE.INTER.norm>
-1.65839

>  <SCORE.INTRA>
-3.60152

>  <SCORE.INTRA.DIHEDRAL>
-2.25997

>  <SCORE.INTRA.DIHEDRAL.0>
6.04201

>  <SCORE.INTRA.POLAR>
0

>  <SCORE.INTRA.POLAR.0>
0

>  <SCORE.INTRA.REPUL>
0

>  <SCORE.INTRA.REPUL.0>
0

>  <SCORE.INTRA.SOLV>
-1.14581

>  <SCORE.INTRA.SOLV.lig_0>
-71.0481

>  <SCORE.INTRA.VDW>
-1.89862

>  <SCORE.INTRA.VDW.0>
0.968882

>  <SCORE.INTRA.norm>
-0.300126

>  <SCORE.RESTR>
0

>  <SCORE.RESTR.CAVITY>
0

>  <SCORE.RESTR.norm>
0

>  <SCORE.SYSTEM>
0

>  <SCORE.SYSTEM.CONST>
0

>  <SCORE.SYSTEM.DIHEDRAL>
0

>  <SCORE.SYSTEM.SOLV>
0

>  <SCORE.SYSTEM.norm>
0

>  <SCORE.heavy>
12

>  <SCORE.norm>
-1.95852

>  <SYMMETRIC_BONDS>
11 12 2
5 6 2

>  <RMSD>
2.351

$$$$
1koc cryst
 OpenBabel11021811393D
libRbt.so/2013.1/901 2013/11/27
 12 11  0  0  0  0  0  0  0  0999 V2000
    4.0430    6.6204   27.2690 N   0  3  0  0  0  0  0  0  0  0  0  0
    4.2577    6.2658   28.7047 C   0  0  2  0  0  0  0  0  0  0  0  0
    5.4180    7.1126   29.2633 C   0  0  0  0  0  0  0  0  0  0  0  0
    6.5592    6.7702   28.9924 O   0  5  0  0  0  0  0  0  0  0  0  0
    4.5775    4.7504   28.8119 C   0  0  0  0  0  0  0  0  0  0  0  0
    4.3230    4.2321   30.2322 C   0  0  0  0  0  0  0  0  0  0  0  0
    2.8506    3.8677   30.3880 C   0  0  0  0  0  0  0  0  0  0  0  0
    2.7002    2.3852   30.4651 N   0  0  0  0  0  0  0  0  0  0  0  0
    1.7931    1.8524   31.2481 C   0  0  0  0  0  0  0  0  0  0  0  0
    0.6312    2.4362   31.4067 N   0  0  0  0  0  0  0  0  0  0  0  0
    2.0468    0.7308   31.8698 N   0  3  0  0  0  0  0  0  0  0  0  0
    5.1484    8.0798   29.9599 O   0  0  0  0  0  0  0  0  0  0  0  0
  2  1  1  6  0  0  0
  2  5  1  0  0  0  0
  2  3  1  0  0  0  0
  3  4  1  0  0  0  0
  3 12  2  0  0  0  0
  5  6  1  0  0  0  0
  6  7  1  0  0  0  0
  7  8  1  0  0  0  0
  8  9  1  0  0  0  0
  9 10  1  0  0  0  0
  9 11  2  0  0  0  0
M  CHG  3   1   1   4  -1  11   1
M  END
>  <CHROM.1>
73.12477594,-160.02801768,-78.59522488,84.82047365,108.85727081,143.70366685
3.68831076,4.59809910,29.86648829,0.94338987,-0.49802440,-0.78378540

>  <Name>
1koc cryst

>  <RI>
0

>  <Rbt.Current_Directory>
/home/itssahil/PROJECTS/Mol_Feturizer/New_Systems/rnas/1koc

>  <Rbt.Executable>
rbdock ($Id: //depot/dev/client3/rdock/2013.1/src/exe/rbdock.cxx#4 $)

>  <Rbt.Library>
libRbt.so (2013.1, Build901 2013/11/27)

>  <Rbt.Parameter_File>
/export/apps/rDock/src/rDock_2013.1_src/data/scripts/dock_solv.prm

>  <Rbt.Receptor>
prm/pocket_docking_4.prm

>  <SCORE>
-32.7376

>  <SCORE.INTER>
-33.4744

>  <SCORE.INTER.CONST>
1

>  <SCORE.INTER.POLAR>
-6.50166

>  <SCORE.INTER.ROT>
5

>  <SCORE.INTER.SOLV>
27.5597

>  <SCORE.INTER.VDW>
-16.7639

>  <SCORE.INTER.norm>
-2.78953

>  <SCORE.INTRA>
0.736804

>  <SCORE.INTRA.DIHEDRAL>
6.40843

>  <SCORE.INTRA.DIHEDRAL.0>
6.04201

>  <SCORE.INTRA.POLAR>
0

>  <SCORE.INTRA.POLAR.0>
0

>  <SCORE.INTRA.REPUL>
0

>  <SCORE.INTRA.REPUL.0>
0

>  <SCORE.INTRA.SOLV>
-1.53823

>  <SCORE.INTRA.SOLV.lig_0>
-71.0481

>  <SCORE.INTRA.VDW>
-1.6983

>  <SCORE.INTRA.VDW.0>
0.968882

>  <SCORE.INTRA.norm>
0.0614003

>  <SCORE.RESTR>
0

>  <SCORE.RESTR.CAVITY>
0

>  <SCORE.RESTR.norm>
0

>  <SCORE.SYSTEM>
0

>  <SCORE.SYSTEM.CONST>
0

>  <SCORE.SYSTEM.DIHEDRAL>
0

>  <SCORE.SYSTEM.SOLV>
0

>  <SCORE.SYSTEM.norm>
0

>  <SCORE.heavy>
12

>  <SCORE.norm>
-2.72813

>  <SYMMETRIC_BONDS>
11 12 2
5 6 2

>  <RMSD>
2.353

$$$$
1koc cryst
 OpenBabel11021811393D
libRbt.so/2013.1/901 2013/11/27
 12 11  0  0  0  0  0  0  0  0999 V2000
    4.5240    7.3182   27.2465 N   0  3  0  0  0  0  0  0  0  0  0  0
    4.5874    6.9207   28.6855 C   0  0  2  0  0  0  0  0  0  0  0  0
    6.0595    6.6873   29.0779 C   0  0  0  0  0  0  0  0  0  0  0  0
    6.4252    7.0656   30.1807 O   0  5  0  0  0  0  0  0  0  0  0  0
    3.7483    5.6314   28.8944 C   0  0  0  0  0  0  0  0  0  0  0  0
    3.6971    5.2405   30.3761 C   0  0  0  0  0  0  0  0  0  0  0  0
    2.4743    4.3667   30.6330 C   0  0  0  0  0  0  0  0  0  0  0  0
    2.7747    2.9525   30.2641 N   0  0  0  0  0  0  0  0  0  0  0  0
    2.3432    1.9674   31.0145 C   0  0  0  0  0  0  0  0  0  0  0  0
    1.1744    2.0458   31.6009 N   0  0  0  0  0  0  0  0  0  0  0  0
    3.0799    0.8994   31.1746 N   0  3  0  0  0  0  0  0  0  0  0  0
    6.7978    6.1463   28.2682 O   0  0  0  0  0  0  0  0  0  0  0  0
  2  1  1  6  0  0  0
  2  5  1  0  0  0  0
  2  3  1  0  0  0  0
  3  4  1  0  0  0  0
  3 12  2  0  0  0  0
  5  6  1  0  0  0  0
  6  7  1  0  0  0  0
  7  8  1  0  0  0  0
  8  9  1  0  0  0  0
  9 10  1  0  0  0  0
  9 11  2  0  0  0  0
M  CHG  3   1   1   4  -1  11   1
M  END
>  <CHROM.1>
-179.49415182,-175.81066053,140.74962948,157.39191234,82.32971946,139.69988751
3.98588720,4.76365262,29.76115303,1.00826753,-0.14052469,-0.57330635

>  <Name>
1koc cryst

>  <RI>
0

>  <Rbt.Current_Directory>
/home/itssahil/PROJECTS/Mol_Feturizer/New_Systems/rnas/1koc

>  <Rbt.Executable>
rbdock ($Id: //depot/dev/client3/rdock/2013.1/src/exe/rbdock.cxx#4 $)

>  <Rbt.Library>
libRbt.so (2013.1, Build901 2013/11/27)

>  <Rbt.Parameter_File>
/export/apps/rDock/src/rDock_2013.1_src/data/scripts/dock_solv.prm

>  <Rbt.Receptor>
prm/pocket_docking_6.prm

>  <SCORE>
-37.1593

>  <SCORE.INTER>
-35.1632

>  <SCORE.INTER.CONST>
1

>  <SCORE.INTER.POLAR>
-6.37272

>  <SCORE.INTER.ROT>
5

>  <SCORE.INTER.SOLV>
24.1879

>  <SCORE.INTER.VDW>
-17.1957

>  <SCORE.INTER.norm>
-2.93026

>  <SCORE.INTRA>
-1.99619

>  <SCORE.INTRA.DIHEDRAL>
1.06367

>  <SCORE.INTRA.DIHEDRAL.0>
6.04201

>  <SCORE.INTRA.POLAR>
0

>  <SCORE.INTRA.POLAR.0>
0

>  <SCORE.INTRA.REPUL>
0

>  <SCORE.INTRA.REPUL.0>
0

>  <SCORE.INTRA.SOLV>
-1.12681

>  <SCORE.INTRA.SOLV.lig_0>
-71.0481

>  <SCORE.INTRA.VDW>
-1.96462

>  <SCORE.INTRA.VDW.0>
0.968882

>  <SCORE.INTRA.norm>
-0.166349

>  <SCORE.RESTR>
0

>  <SCORE.RESTR.CAVITY>
0

>  <SCORE.RESTR.norm>
0

>  <SCORE.SYSTEM>
0

>  <SCORE.SYSTEM.CONST>
0

>  <SCORE.SYSTEM.DIHEDRAL>
0

>  <SCORE.SYSTEM.SOLV>
0

>  <SCORE.SYSTEM.norm>
0

>  <SCORE.heavy>
12

>  <SCORE.norm>
-3.09661

>  <SYMMETRIC_BONDS>
11 12 2
5 6 2

>  <RMSD>
2.355

$$$$
1koc cryst
 OpenBabel11021811393D
libRbt.so/2013.1/901 2013/11/27
 12 11  0  0  0  0  0  0  0  0999 V2000
    4.5669    7.2773   27.6148 N   0  3  0  0  0  0  0  0  0  0  0  0
    4.4147    6.5781   28.9267 C   0  0  2  0  0  0  0  0  0  0  0  0
    5.7446    5.8864   29.2847 C   0  0  0  0  0  0  0  0  0  0  0  0
    6.1077    5.9120   30.4511 O   0  5  0  0  0  0  0  0  0  0  0  0
    3.2635    5.5420   28.8202 C   0  0  0  0  0  0  0  0  0  0  0  0
    2.9188    4.9572   30.1950 C   0  0  0  0  0  0  0  0  0  0  0  0
    1.7763    3.9574   30.0540 C   0  0  0  0  0  0  0  0  0  0  0  0
    1.7910    3.0048   31.2024 N   0  0  0  0  0  0  0  0  0  0  0  0
    2.5086    1.9087   31.1431 C   0  0  0  0  0  0  0  0  0  0  0  0
    3.6713    1.9115   30.5397 N   0  0  0  0  0  0  0  0  0  0  0  0
    2.0647    0.8090   31.6930 N   0  3  0  0  0  0  0  0  0  0  0  0
    6.3822    5.3539   28.3884 O   0  0  0  0  0  0  0  0  0  0  0  0
  2  1  1  6  0  0  0
  2  5  1  0  0  0  0
  2  3  1  0  0  0  0
  3  4  1  0  0  0  0
  3 12  2  0  0  0  0
  5  6  1  0  0  0  0
  6  7  1  0  0  0  0
  7  8  1  0  0  0  0
  8  9  1  0  0  0  0
  9 10  1  0  0  0  0
  9 11  2  0  0  0  0
M  CHG  3   1   1   4  -1  11   1
M  END
>  <CHROM.1>
49.61038099,-170.99158413,140.58735637,179.37012130,157.30064652,-87.93114244
3.79413576,4.42184779,29.84376194,1.04277321,0.00171151,-0.51378157

>  <Name>
1koc cryst

>  <RI>
0

>  <Rbt.Current_Directory>
/home/itssahil/PROJECTS/Mol_Feturizer/New_Systems/rnas/1koc

>  <Rbt.Executable>
rbdock ($Id: //depot/dev/client3/rdock/2013.1/src/exe/rbdock.cxx#4 $)

>  <Rbt.Library>
libRbt.so (2013.1, Build901 2013/11/27)

>  <Rbt.Parameter_File>
/export/apps/rDock/src/rDock_2013.1_src/data/scripts/dock_solv.prm

>  <Rbt.Receptor>
prm/pocket_docking_7.prm

>  <SCORE>
-42.8012

>  <SCORE.INTER>
-40.8403

>  <SCORE.INTER.CONST>
1

>  <SCORE.INTER.POLAR>
-7.62987

>  <SCORE.INTER.ROT>
5

>  <SCORE.INTER.SOLV>
23.0147

>  <SCORE.INTER.VDW>
-16.3989

>  <SCORE.INTER.norm>
-3.40336

>  <SCORE.INTRA>
-1.96085

>  <SCORE.INTRA.DIHEDRAL>
-0.312203

>  <SCORE.INTRA.DIHEDRAL.0>
6.04201

>  <SCORE.INTRA.POLAR>
0

>  <SCORE.INTRA.POLAR.0>
0

>  <SCORE.INTRA.REPUL>
0

>  <SCORE.INTRA.REPUL.0>
0

>  <SCORE.INTRA.SOLV>
-0.279421

>  <SCORE.INTRA.SOLV.lig_0>
-71.0481

>  <SCORE.INTRA.VDW>
-1.66504

>  <SCORE.INTRA.VDW.0>
0.968882

>  <SCORE.INTRA.norm>
-0.163405

>  <SCORE.RESTR>
0

>  <SCORE.RESTR.CAVITY>
0

>  <SCORE.RESTR.norm>
0

>  <SCORE.SYSTEM>
0

>  <SCORE.SYSTEM.CONST>
0

>  <SCORE.SYSTEM.DIHEDRAL>
0

>  <SCORE.SYSTEM.SOLV>
0

>  <SCORE.SYSTEM.norm>
0

>  <SCORE.heavy>
12

>  <SCORE.norm>
-3.56677

>  <SYMMETRIC_BONDS>
11 12 2
5 6 2

>  <RMSD>
2.358

$$$$
1koc cryst
 OpenBabel11021811393D
libRbt.so/2013.1/901 2013/11/27
 12 11  0  0  0  0  0  0  0  0999 V2000
    7.2043    4.5624   32.5211 N   0  3  0  0  0  0  0  0  0  0  0  0
    6.1657    5.6258   32.3683 C   0  0  2  0  0  0  0  0  0  0  0  0
    6.2389    6.5773   33.5785 C   0  0  0  0  0  0  0  0  0  0  0  0
    6.2206    7.7800   33.3635 O   0  5  0  0  0  0  0  0  0  0  0  0
    4.7666    4.9600   32.2720 C   0  0  0  0  0  0  0  0  0  0  0  0
    4.6471    4.1084   31.0025 C   0  0  0  0  0  0  0  0  0  0  0  0
    3.1754    3.8979   30.6641 C   0  0  0  0  0  0  0  0  0  0  0  0
    2.9319    2.4646   30.3284 N   0  0  0  0  0  0  0  0  0  0  0  0
    2.1006    1.7490   31.0471 C   0  0  0  0  0  0  0  0  0  0  0  0
    1.0139    2.2921   31.5372 N   0  0  0  0  0  0  0  0  0  0  0  0
    2.3540    0.4865   31.2719 N   0  3  0  0  0  0  0  0  0  0  0  0
    6.3231    6.0903   34.6961 O   0  0  0  0  0  0  0  0  0  0  0  0
  2  1  1  1  0  0  0
  2  5  1  0  0  0  0
  2  3  1  0  0  0  0
  3  4  1  0  0  0  0
  3 12  2  0  0  0  0
  5  6  1  0  0  0  0
  6  7  1  0  0  0  0
  7  8  1  0  0  0  0
  8  9  1  0  0  0  0
  9 10  1  0  0  0  0
  9 11  2  0  0  0  0
M  CHG  3   1   1   4  -1  11   1
M  END
>  <CHROM.1>
-61.73219700,-64.87985260,133.60901719,-159.29122882,-134.26872263,119.03345297
4.44559747,4.19250993,32.07380148,-0.87672946,0.02771044,-2.67756385

>  <Name>
1koc cryst

>  <RI>
0

>  <Rbt.Current_Directory>
/home/itssahil/PROJECTS/Mol_Feturizer/New_Systems/rnas/1koc

>  <Rbt.Executable>
rbdock ($Id: //depot/dev/client3/rdock/2013.1/src/exe/rbdock.cxx#4 $)

>  <Rbt.Library>
libRbt.so (2013.1, Build901 2013/11/27)

>  <Rbt.Parameter_File>
/export/apps/rDock/src/rDock_2013.1_src/data/scripts/dock_solv.prm

>  <Rbt.Receptor>
prm/pocket_docking_6.prm

>  <SCORE>
-26.5769

>  <SCORE.INTER>
-25.9665

>  <SCORE.INTER.CONST>
1

>  <SCORE.INTER.POLAR>
-5.37927

>  <SCORE.INTER.ROT>
5

>  <SCORE.INTER.SOLV>
20.3149

>  <SCORE.INTER.VDW>
-13.0851

>  <SCORE.INTER.norm>
-2.16388

>  <SCORE.INTRA>
-0.610381

>  <SCORE.INTRA.DIHEDRAL>
3.91056

>  <SCORE.INTRA.DIHEDRAL.0>
6.04201

>  <SCORE.INTRA.POLAR>
0

>  <SCORE.INTRA.POLAR.0>
0

>  <SCORE.INTRA.REPUL>
0

>  <SCORE.INTRA.REPUL.0>
0

>  <SCORE.INTRA.SOLV>
-1.14052

>  <SCORE.INTRA.SOLV.lig_0>
-71.0481

>  <SCORE.INTRA.VDW>
-1.9954

>  <SCORE.INTRA.VDW.0>
0.968882

>  <SCORE.INTRA.norm>
-0.0508651

>  <SCORE.RESTR>
0

>  <SCORE.RESTR.CAVITY>
0

>  <SCORE.RESTR.norm>
0

>  <SCORE.SYSTEM>
0

>  <SCORE.SYSTEM.CONST>
0

>  <SCORE.SYSTEM.DIHEDRAL>
0

>  <SCORE.SYSTEM.SOLV>
0

>  <SCORE.SYSTEM.norm>
0

>  <SCORE.heavy>
12

>  <SCORE.norm>
-2.21474

>  <SYMMETRIC_BONDS>
11 12 2
5 6 2

>  <RMSD>
2.359

$$$$
1koc cryst
 OpenBabel11021811393D
libRbt.so/2013.1/901 2013/11/27
 12 11  0  0  0  0  0  0  0  0999 V2000
    4.0074    5.9520   27.9691 N   0  3  0  0  0  0  0  0  0  0  0  0
    4.7084    6.0287   29.2865 C   0  0  2  0  0  0  0  0  0  0  0  0
    5.8138    7.0997   29.2058 C   0  0  0  0  0  0  0  0  0  0  0  0
    5.5771    8.2034   29.6736 O   0  5  0  0  0  0  0  0  0  0  0  0
    5.3096    4.6378   29.6243 C   0  0  0  0  0  0  0  0  0  0  0  0
    4.4664    3.9143   30.6810 C   0  0  0  0  0  0  0  0  0  0  0  0
    3.1259    3.5100   30.0772 C   0  0  0  0  0  0  0  0  0  0  0  0
    2.8718    2.0616   30.3299 N   0  0  0  0  0  0  0  0  0  0  0  0
    1.9891    1.6917   31.2264 C   0  0  0  0  0  0  0  0  0  0  0  0
    0.8891    2.3826   31.3956 N   0  0  0  0  0  0  0  0  0  0  0  0
    2.2047    0.6257   31.9517 N   0  3  0  0  0  0  0  0  0  0  0  0
    6.8713    6.8040   28.6695 O   0  0  0  0  0  0  0  0  0  0  0  0
  2  1  1  6  0  0  0
  2  5  1  0  0  0  0
  2  3  1  0  0  0  0
  3  4  1  0  0  0  0
  3 12  2  0  0  0  0
  5  6  1  0  0  0  0
  6  7  1  0  0  0  0
  7  8  1  0  0  0  0
  8  9  1  0  0  0  0
  9 10  1  0  0  0  0
  9 11  2  0  0  0  0
M  CHG  3   1   1   4  -1  11   1
M  END
>  <CHROM.1>
174.00109442,-103.61426810,99.66289794,69.35947923,128.73271203,106.03775768
3.96911232,4.41114029,29.98883989,1.00118622,-0.04033738,-0.43376635

>  <Name>
1koc cryst

>  <RI>
0

>  <Rbt.Current_Directory>
/home/itssahil/PROJECTS/Mol_Feturizer/New_Systems/rnas/1koc

>  <Rbt.Executable>
rbdock ($Id: //depot/dev/client3/rdock/2013.1/src/exe/rbdock.cxx#4 $)

>  <Rbt.Library>
libRbt.so (2013.1, Build901 2013/11/27)

>  <Rbt.Parameter_File>
/export/apps/rDock/src/rDock_2013.1_src/data/scripts/dock_solv.prm

>  <Rbt.Receptor>
prm/pocket_docking_3.prm

>  <SCORE>
-27.7376

>  <SCORE.INTER>
-29.9499

>  <SCORE.INTER.CONST>
1

>  <SCORE.INTER.POLAR>
-6.06499

>  <SCORE.INTER.ROT>
5

>  <SCORE.INTER.SOLV>
26.158

>  <SCORE.INTER.VDW>
-15.4026

>  <SCORE.INTER.norm>
-2.49583

>  <SCORE.INTRA>
1.64871

>  <SCORE.INTRA.DIHEDRAL>
7.31491

>  <SCORE.INTRA.DIHEDRAL.0>
6.04201

>  <SCORE.INTRA.POLAR>
0

>  <SCORE.INTRA.POLAR.0>
0

>  <SCORE.INTRA.REPUL>
0

>  <SCORE.INTRA.REPUL.0>
0

>  <SCORE.INTRA.SOLV>
-0.721185

>  <SCORE.INTRA.SOLV.lig_0>
-71.0481

>  <SCORE.INTRA.VDW>
-1.64815

>  <SCORE.INTRA.VDW.0>
0.968882

>  <SCORE.INTRA.norm>
0.137393

>  <SCORE.RESTR>
0.563644

>  <SCORE.RESTR.CAVITY>
0.563644

>  <SCORE.RESTR.norm>
0.0469703

>  <SCORE.SYSTEM>
0

>  <SCORE.SYSTEM.CONST>
0

>  <SCORE.SYSTEM.DIHEDRAL>
0

>  <SCORE.SYSTEM.SOLV>
0

>  <SCORE.SYSTEM.norm>
0

>  <SCORE.heavy>
12

>  <SCORE.norm>
-2.31146

>  <SYMMETRIC_BONDS>
11 12 2
5 6 2

>  <RMSD>
2.362

$$$$
1koc cryst
 OpenBabel11021811393D
libRbt.so/2013.1/901 2013/11/27
 12 11  0  0  0  0  0  0  0  0999 V2000
    6.1021    5.3435   33.6682 N   0  3  0  0  0  0  0  0  0  0  0  0
    6.1055    4.8640   32.2529 C   0  0  2  0  0  0  0  0  0  0  0  0
    6.1339    6.0826   31.3096 C   0  0  0  0  0  0  0  0  0  0  0  0
    7.1053    6.2206   30.5813 O   0  5  0  0  0  0  0  0  0  0  0  0
    4.8383    4.0021   32.0050 C   0  0  0  0  0  0  0  0  0  0  0  0
    4.8812    3.3436   30.6210 C   0  0  0  0  0  0  0  0  0  0  0  0
    3.4598    3.1215   30.1156 C   0  0  0  0  0  0  0  0  0  0  0  0
    3.0313    1.7219   30.4048 N   0  0  0  0  0  0  0  0  0  0  0  0
    2.1064    1.4859   31.3039 C   0  0  0  0  0  0  0  0  0  0  0  0
    1.0972    2.3089   31.4462 N   0  0  0  0  0  0  0  0  0  0  0  0
    2.1882    0.4219   32.0590 N   0  3  0  0  0  0  0  0  0  0  0  0
    5.1928    6.8615   31.3383 O   0  0  0  0  0  0  0  0  0  0  0  0
  2  1  1  1  0  0  0
  2  5  1  0  0  0  0
  2  3  1  0  0  0  0
  3  4  1  0  0  0  0
  3 12  2  0  0  0  0
  5  6  1  0  0  0  0
  6  7  1  0  0  0  0
  7  8  1  0  0  0  0
  8  9  1  0  0  0  0
  9 10  1  0  0  0  0
  9 11  2  0  0  0  0
M  CHG  3   1   1   4  -1  11   1
M  END
>  <CHROM.1>
-165.27996497,-172.96994029,116.85173652,-151.70212084,-96.85561698,110.53763537
4.34823298,3.82598543,31.45979420,-0.07672610,0.83235993,1.77031311

>  <Name>
1koc cryst

>  <RI>
0

>  <Rbt.Current_Directory>
/home/itssahil/PROJECTS/Mol_Feturizer/New_Systems/rnas/1koc

>  <Rbt.Executable>
rbdock ($Id: //depot/dev/client3/rdock/2013.1/src/exe/rbdock.cxx#4 $)

>  <Rbt.Library>
libRbt.so (2013.1, Build901 2013/11/27)

>  <Rbt.Parameter_File>
/export/apps/rDock/src/rDock_2013.1_src/data/scripts/dock_solv.prm

>  <Rbt.Receptor>
prm/pocket_docking_6.prm

>  <SCORE>
-29.4574

>  <SCORE.INTER>
-28.9632

>  <SCORE.INTER.CONST>
1

>  <SCORE.INTER.POLAR>
-5.89045

>  <SCORE.INTER.ROT>
5

>  <SCORE.INTER.SOLV>
19.6813

>  <SCORE.INTER.VDW>
-13.1677

>  <SCORE.INTER.norm>
-2.4136

>  <SCORE.INTRA>
-0.49417

>  <SCORE.INTRA.DIHEDRAL>
4.59375

>  <SCORE.INTRA.DIHEDRAL.0>
6.04201

>  <SCORE.INTRA.POLAR>
0

>  <SCORE.INTRA.POLAR.0>
0

>  <SCORE.INTRA.REPUL>
0

>  <SCORE.INTRA.REPUL.0>
0

>  <SCORE.INTRA.SOLV>
-1.10899

>  <SCORE.INTRA.SOLV.lig_0>
-71.0481

>  <SCORE.INTRA.VDW>
-2.23655

>  <SCORE.INTRA.VDW.0>
0.968882

>  <SCORE.INTRA.norm>
-0.0411808

>  <SCORE.RESTR>
0

>  <SCORE.RESTR.CAVITY>
0

>  <SCORE.RESTR.norm>
0

>  <SCORE.SYSTEM>
0

>  <SCORE.SYSTEM.CONST>
0

>  <SCORE.SYSTEM.DIHEDRAL>
0

>  <SCORE.SYSTEM.SOLV>
0

>  <SCORE.SYSTEM.norm>
0

>  <SCORE.heavy>
12

>  <SCORE.norm>
-2.45478

>  <SYMMETRIC_BONDS>
11 12 2
5 6 2

>  <RMSD>
2.362

$$$$
1koc cryst
 OpenBabel11021811393D
libRbt.so/2013.1/901 2013/11/27
 12 11  0  0  0  0  0  0  0  0999 V2000
    2.2292    8.9469   32.3174 N   0  3  0  0  0  0  0  0  0  0  0  0
    3.3090    7.9203   32.4313 C   0  0  2  0  0  0  0  0  0  0  0  0
    4.6790    8.6251   32.3874 C   0  0  0  0  0  0  0  0  0  0  0  0
    4.7580    9.7529   32.8511 O   0  5  0  0  0  0  0  0  0  0  0  0
    3.1713    6.9058   31.2644 C   0  0  0  0  0  0  0  0  0  0  0  0
    2.1182    5.8380   31.5831 C   0  0  0  0  0  0  0  0  0  0  0  0
    2.2055    4.7113   30.5594 C   0  0  0  0  0  0  0  0  0  0  0  0
    1.8470    3.4132   31.2017 N   0  0  0  0  0  0  0  0  0  0  0  0
    2.6021    2.3561   31.0229 C   0  0  0  0  0  0  0  0  0  0  0  0
    3.9038    2.4794   30.9425 N   0  0  0  0  0  0  0  0  0  0  0  0
    2.0547    1.1727   30.9295 N   0  3  0  0  0  0  0  0  0  0  0  0
    5.6211    8.0328   31.8826 O   0  0  0  0  0  0  0  0  0  0  0  0
  2  1  1  6  0  0  0
  2  5  1  0  0  0  0
  2  3  1  0  0  0  0
  3  4  1  0  0  0  0
  3 12  2  0  0  0  0
  5  6  1  0  0  0  0
  6  7  1  0  0  0  0
  7  8  1  0  0  0  0
  8  9  1  0  0  0  0
  9 10  1  0  0  0  0
  9 11  2  0  0  0  0
M  CHG  3   1   1   4  -1  11   1
M  END
>  <CHROM.1>
-158.03605895,-82.18350618,31.60604099,-168.65396136,147.40265378,-132.49596698
3.20716743,5.85784605,31.62089035,1.32729260,-0.03135178,0.20766196

>  <Name>
1koc cryst

>  <RI>
0

>  <Rbt.Current_Directory>
/home/itssahil/PROJECTS/Mol_Feturizer/New_Systems/rnas/1koc

>  <Rbt.Executable>
rbdock ($Id: //depot/dev/client3/rdock/2013.1/src/exe/rbdock.cxx#4 $)

>  <Rbt.Library>
libRbt.so (2013.1, Build901 2013/11/27)

>  <Rbt.Parameter_File>
/export/apps/rDock/src/rDock_2013.1_src/data/scripts/dock_solv.prm

>  <Rbt.Receptor>
prm/pocket_docking_7.prm

>  <SCORE>
-35.1715

>  <SCORE.INTER>
-35.1395

>  <SCORE.INTER.CONST>
1

>  <SCORE.INTER.POLAR>
-5.97252

>  <SCORE.INTER.ROT>
5

>  <SCORE.INTER.SOLV>
22.6804

>  <SCORE.INTER.VDW>
-18.0114

>  <SCORE.INTER.norm>
-2.92829

>  <SCORE.INTRA>
-0.0320056

>  <SCORE.INTRA.DIHEDRAL>
3.67154

>  <SCORE.INTRA.DIHEDRAL.0>
6.04201

>  <SCORE.INTRA.POLAR>
0

>  <SCORE.INTRA.POLAR.0>
0

>  <SCORE.INTRA.REPUL>
0

>  <SCORE.INTRA.REPUL.0>
0

>  <SCORE.INTRA.SOLV>
-0.966317

>  <SCORE.INTRA.SOLV.lig_0>
-71.0481

>  <SCORE.INTRA.VDW>
-1.38462

>  <SCORE.INTRA.VDW.0>
0.968882

>  <SCORE.INTRA.norm>
-0.00266713

>  <SCORE.RESTR>
0

>  <SCORE.RESTR.CAVITY>
0

>  <SCORE.RESTR.norm>
0

>  <SCORE.SYSTEM>
0

>  <SCORE.SYSTEM.CONST>
0

>  <SCORE.SYSTEM.DIHEDRAL>
0

>  <SCORE.SYSTEM.SOLV>
0

>  <SCORE.SYSTEM.norm>
0

>  <SCORE.heavy>
12

>  <SCORE.norm>
-2.93096

>  <SYMMETRIC_BONDS>
11 12 2
5 6 2

>  <RMSD>
2.365

$$$$
1koc cryst
 OpenBabel11021811393D
libRbt.so/2013.1/901 2013/11/27
 12 11  0  0  0  0  0  0  0  0999 V2000
    4.3493    7.3852   27.4291 N   0  3  0  0  0  0  0  0  0  0  0  0
    4.1124    6.9463   28.8376 C   0  0  2  0  0  0  0  0  0  0  0  0
    5.3517    7.2910   29.6865 C   0  0  0  0  0  0  0  0  0  0  0  0
    6.4426    7.2850   29.1362 O   0  5  0  0  0  0  0  0  0  0  0  0
    3.8377    5.4184   28.8548 C   0  0  0  0  0  0  0  0  0  0  0  0
    3.2672    4.9757   30.2073 C   0  0  0  0  0  0  0  0  0  0  0  0
    2.1574    3.9540   29.9850 C   0  0  0  0  0  0  0  0  0  0  0  0
    2.0646    3.0415   31.1618 N   0  0  0  0  0  0  0  0  0  0  0  0
    2.6589    1.8727   31.1408 C   0  0  0  0  0  0  0  0  0  0  0  0
    3.8170    1.7304   30.5454 N   0  0  0  0  0  0  0  0  0  0  0  0
    2.0961    0.8452   31.7209 N   0  3  0  0  0  0  0  0  0  0  0  0
    5.1923    7.5434   30.8715 O   0  0  0  0  0  0  0  0  0  0  0  0
  2  1  1  6  0  0  0
  2  5  1  0  0  0  0
  2  3  1  0  0  0  0
  3  4  1  0  0  0  0
  3 12  2  0  0  0  0
  5  6  1  0  0  0  0
  6  7  1  0  0  0  0
  7  8  1  0  0  0  0
  8  9  1  0  0  0  0
  9 10  1  0  0  0  0
  9 11  2  0  0  0  0
M  CHG  3   1   1   4  -1  11   1
M  END
>  <CHROM.1>
-158.80205877,-166.58332703,-30.77261741,139.24995127,151.89163780,-96.94667209
3.79972941,4.85916991,29.95070989,0.99534503,-0.72264783,-0.77781599

>  <Name>
1koc cryst

>  <RI>
0

>  <Rbt.Current_Directory>
/home/itssahil/PROJECTS/Mol_Feturizer/New_Systems/rnas/1koc

>  <Rbt.Executable>
rbdock ($Id: //depot/dev/client3/rdock/2013.1/src/exe/rbdock.cxx#4 $)

>  <Rbt.Library>
libRbt.so (2013.1, Build901 2013/11/27)

>  <Rbt.Parameter_File>
/export/apps/rDock/src/rDock_2013.1_src/data/scripts/dock_solv.prm

>  <Rbt.Receptor>
prm/pocket_docking_4.prm

>  <SCORE>
-38.2966

>  <SCORE.INTER>
-39.0531

>  <SCORE.INTER.CONST>
1

>  <SCORE.INTER.POLAR>
-7.46864

>  <SCORE.INTER.ROT>
5

>  <SCORE.INTER.SOLV>
23.2219

>  <SCORE.INTER.VDW>
-15.8139

>  <SCORE.INTER.norm>
-3.25442

>  <SCORE.INTRA>
0.756423

>  <SCORE.INTRA.DIHEDRAL>
6.1864

>  <SCORE.INTRA.DIHEDRAL.0>
6.04201

>  <SCORE.INTRA.POLAR>
0

>  <SCORE.INTRA.POLAR.0>
0

>  <SCORE.INTRA.REPUL>
0

>  <SCORE.INTRA.REPUL.0>
0

>  <SCORE.INTRA.SOLV>
-0.802453

>  <SCORE.INTRA.SOLV.lig_0>
-71.0481

>  <SCORE.INTRA.VDW>
-1.93555

>  <SCORE.INTRA.VDW.0>
0.968882

>  <SCORE.INTRA.norm>
0.0630352

>  <SCORE.RESTR>
0

>  <SCORE.RESTR.CAVITY>
0

>  <SCORE.RESTR.norm>
0

>  <SCORE.SYSTEM>
0

>  <SCORE.SYSTEM.CONST>
0

>  <SCORE.SYSTEM.DIHEDRAL>
0

>  <SCORE.SYSTEM.SOLV>
0

>  <SCORE.SYSTEM.norm>
0

>  <SCORE.heavy>
12

>  <SCORE.norm>
-3.19139

>  <SYMMETRIC_BONDS>
11 12 2
5 6 2

>  <RMSD>
2.372

$$$$
1koc cryst
 OpenBabel11021811393D
libRbt.so/2013.1/901 2013/11/27
 12 11  0  0  0  0  0  0  0  0999 V2000
    4.4651    7.2997   27.2159 N   0  3  0  0  0  0  0  0  0  0  0  0
    4.5595    6.8998   28.6525 C   0  0  2  0  0  0  0  0  0  0  0  0
    6.0373    6.6424   29.0064 C   0  0  0  0  0  0  0  0  0  0  0  0
    6.4762    7.1421   30.0315 O   0  5  0  0  0  0  0  0  0  0  0  0
    3.7054    5.6239   28.8825 C   0  0  0  0  0  0  0  0  0  0  0  0
    3.6653    5.2473   30.3682 C   0  0  0  0  0  0  0  0  0  0  0  0
    2.4531    4.3632   30.6396 C   0  0  0  0  0  0  0  0  0  0  0  0
    2.7612    2.9515   30.2676 N   0  0  0  0  0  0  0  0  0  0  0  0
    2.3390    1.9626   31.0182 C   0  0  0  0  0  0  0  0  0  0  0  0
    1.1720    2.0327   31.6092 N   0  0  0  0  0  0  0  0  0  0  0  0
    3.0832    0.8992   31.1740 N   0  3  0  0  0  0  0  0  0  0  0  0
    6.7073    5.9618   28.2441 O   0  0  0  0  0  0  0  0  0  0  0  0
  2  1  1  6  0  0  0
  2  5  1  0  0  0  0
  2  3  1  0  0  0  0
  3  4  1  0  0  0  0
  3 12  2  0  0  0  0
  5  6  1  0  0  0  0
  6  7  1  0  0  0  0
  7  8  1  0  0  0  0
  8  9  1  0  0  0  0
  9 10  1  0  0  0  0
  9 11  2  0  0  0  0
M  CHG  3   1   1   4  -1  11   1
M  END
>  <CHROM.1>
178.59690499,-174.76924295,132.76353217,158.81892868,81.64062983,140.17163380
3.96383464,4.74541055,29.73521574,1.01614636,-0.09304284,-0.55195626

>  <Name>
1koc cryst

>  <RI>
0

>  <Rbt.Current_Directory>
/home/itssahil/PROJECTS/Mol_Feturizer/New_Systems/rnas/1koc

>  <Rbt.Executable>
rbdock ($Id: //depot/dev/client3/rdock/2013.1/src/exe/rbdock.cxx#4 $)

>  <Rbt.Library>
libRbt.so (2013.1, Build901 2013/11/27)

>  <Rbt.Parameter_File>
/export/apps/rDock/src/rDock_2013.1_src/data/scripts/dock_solv.prm

>  <Rbt.Receptor>
prm/pocket_docking_4.prm

>  <SCORE>
-37.1962

>  <SCORE.INTER>
-34.9937

>  <SCORE.INTER.CONST>
1

>  <SCORE.INTER.POLAR>
-6.35991

>  <SCORE.INTER.ROT>
5

>  <SCORE.INTER.SOLV>
24.8497

>  <SCORE.INTER.VDW>
-17.346

>  <SCORE.INTER.norm>
-2.91614

>  <SCORE.INTRA>
-2.2025

>  <SCORE.INTRA.DIHEDRAL>
0.800481

>  <SCORE.INTRA.DIHEDRAL.0>
6.04201

>  <SCORE.INTRA.POLAR>
0

>  <SCORE.INTRA.POLAR.0>
0

>  <SCORE.INTRA.REPUL>
0

>  <SCORE.INTRA.REPUL.0>
0

>  <SCORE.INTRA.SOLV>
-1.18672

>  <SCORE.INTRA.SOLV.lig_0>
-71.0481

>  <SCORE.INTRA.VDW>
-2.00938

>  <SCORE.INTRA.VDW.0>
0.968882

>  <SCORE.INTRA.norm>
-0.183542

>  <SCORE.RESTR>
0

>  <SCORE.RESTR.CAVITY>
0

>  <SCORE.RESTR.norm>
0

>  <SCORE.SYSTEM>
0

>  <SCORE.SYSTEM.CONST>
0

>  <SCORE.SYSTEM.DIHEDRAL>
0

>  <SCORE.SYSTEM.SOLV>
0

>  <SCORE.SYSTEM.norm>
0

>  <SCORE.heavy>
12

>  <SCORE.norm>
-3.09968

>  <SYMMETRIC_BONDS>
11 12 2
5 6 2

>  <RMSD>
2.392

$$$$
1koc cryst
 OpenBabel11021811393D
libRbt.so/2013.1/901 2013/11/27
 12 11  0  0  0  0  0  0  0  0999 V2000
    3.5536    8.0833   31.6925 N   0  3  0  0  0  0  0  0  0  0  0  0
    4.4455    7.2246   30.8559 C   0  0  2  0  0  0  0  0  0  0  0  0
    5.2668    8.1237   29.9112 C   0  0  0  0  0  0  0  0  0  0  0  0
    6.4116    8.4012   30.2360 O   0  5  0  0  0  0  0  0  0  0  0  0
    3.5763    6.2228   30.0491 C   0  0  0  0  0  0  0  0  0  0  0  0
    2.7791    5.3063   30.9847 C   0  0  0  0  0  0  0  0  0  0  0  0
    2.1908    4.1475   30.1871 C   0  0  0  0  0  0  0  0  0  0  0  0
    1.9349    2.9879   31.0905 N   0  0  0  0  0  0  0  0  0  0  0  0
    2.7623    1.9706   31.1112 C   0  0  0  0  0  0  0  0  0  0  0  0
    4.0505    2.1632   30.9723 N   0  0  0  0  0  0  0  0  0  0  0  0
    2.3007    0.7588   31.2763 N   0  3  0  0  0  0  0  0  0  0  0  0
    4.7363    8.5284   28.8874 O   0  0  0  0  0  0  0  0  0  0  0  0
  2  1  1  6  0  0  0
  2  5  1  0  0  0  0
  2  3  1  0  0  0  0
  3  4  1  0  0  0  0
  3 12  2  0  0  0  0
  5  6  1  0  0  0  0
  6  7  1  0  0  0  0
  7  8  1  0  0  0  0
  8  9  1  0  0  0  0
  9 10  1  0  0  0  0
  9 11  2  0  0  0  0
M  CHG  3   1   1   4  -1  11   1
M  END
>  <CHROM.1>
-55.74929821,-61.07679005,98.75563967,-167.32835327,155.96263846,-101.81972848
3.67057340,5.33751534,30.62170201,1.19210761,0.28658429,-0.03374972

>  <Name>
1koc cryst

>  <RI>
0

>  <Rbt.Current_Directory>
/home/itssahil/PROJECTS/Mol_Feturizer/New_Systems/rnas/1koc

>  <Rbt.Executable>
rbdock ($Id: //depot/dev/client3/rdock/2013.1/src/exe/rbdock.cxx#4 $)

>  <Rbt.Library>
libRbt.so (2013.1, Build901 2013/11/27)

>  <Rbt.Parameter_File>
/export/apps/rDock/src/rDock_2013.1_src/data/scripts/dock_solv.prm

>  <Rbt.Receptor>
prm/pocket_docking_6.prm

>  <SCORE>
-34.6292

>  <SCORE.INTER>
-32.6049

>  <SCORE.INTER.CONST>
1

>  <SCORE.INTER.POLAR>
-6.16315

>  <SCORE.INTER.ROT>
5

>  <SCORE.INTER.SOLV>
17.6267

>  <SCORE.INTER.VDW>
-14.0017

>  <SCORE.INTER.norm>
-2.71707

>  <SCORE.INTRA>
-2.02425

>  <SCORE.INTRA.DIHEDRAL>
0.00903296

>  <SCORE.INTRA.DIHEDRAL.0>
6.04201

>  <SCORE.INTRA.POLAR>
0

>  <SCORE.INTRA.POLAR.0>
0

>  <SCORE.INTRA.REPUL>
0

>  <SCORE.INTRA.REPUL.0>
0

>  <SCORE.INTRA.SOLV>
-0.69867

>  <SCORE.INTRA.SOLV.lig_0>
-71.0481

>  <SCORE.INTRA.VDW>
-1.67943

>  <SCORE.INTRA.VDW.0>
0.968882

>  <SCORE.INTRA.norm>
-0.168688

>  <SCORE.RESTR>
0

>  <SCORE.RESTR.CAVITY>
0

>  <SCORE.RESTR.norm>
0

>  <SCORE.SYSTEM>
0

>  <SCORE.SYSTEM.CONST>
0

>  <SCORE.SYSTEM.DIHEDRAL>
0

>  <SCORE.SYSTEM.SOLV>
0

>  <SCORE.SYSTEM.norm>
0

>  <SCORE.heavy>
12

>  <SCORE.norm>
-2.88576

>  <SYMMETRIC_BONDS>
11 12 2
5 6 2

>  <RMSD>
2.392

$$$$
1koc cryst
 OpenBabel11021811393D
libRbt.so/2013.1/901 2013/11/27
 12 11  0  0  0  0  0  0  0  0999 V2000
    4.2275    6.7853   27.4410 N   0  3  0  0  0  0  0  0  0  0  0  0
    4.5246    6.4502   28.8665 C   0  0  2  0  0  0  0  0  0  0  0  0
    6.0446    6.2551   29.0306 C   0  0  0  0  0  0  0  0  0  0  0  0
    6.6626    5.7617   28.0992 O   0  5  0  0  0  0  0  0  0  0  0  0
    3.7559    5.1588   29.2562 C   0  0  0  0  0  0  0  0  0  0  0  0
    3.9218    4.8471   30.7482 C   0  0  0  0  0  0  0  0  0  0  0  0
    2.6993    4.0874   31.2514 C   0  0  0  0  0  0  0  0  0  0  0  0
    2.8351    2.6369   30.9287 N   0  0  0  0  0  0  0  0  0  0  0  0
    1.8243    1.8216   31.1107 C   0  0  0  0  0  0  0  0  0  0  0  0
    0.5994    2.2256   30.8817 N   0  0  0  0  0  0  0  0  0  0  0  0
    2.0393    0.5981   31.5176 N   0  3  0  0  0  0  0  0  0  0  0  0
    6.5628    6.5904   30.0853 O   0  0  0  0  0  0  0  0  0  0  0  0
  2  1  1  6  0  0  0
  2  5  1  0  0  0  0
  2  3  1  0  0  0  0
  3  4  1  0  0  0  0
  3 12  2  0  0  0  0
  5  6  1  0  0  0  0
  6  7  1  0  0  0  0
  7  8  1  0  0  0  0
  8  9  1  0  0  0  0
  9 10  1  0  0  0  0
  9 11  2  0  0  0  0
M  CHG  3   1   1   4  -1  11   1
M  END
>  <CHROM.1>
171.66635606,-174.59632520,-34.40582379,151.64708528,82.40050099,-171.02194696
3.80849446,4.42855436,29.90368888,0.89144843,-0.29403554,-0.73827815

>  <Name>
1koc cryst

>  <RI>
0

>  <Rbt.Current_Directory>
/home/itssahil/PROJECTS/Mol_Feturizer/New_Systems/rnas/1koc

>  <Rbt.Executable>
rbdock ($Id: //depot/dev/client3/rdock/2013.1/src/exe/rbdock.cxx#4 $)

>  <Rbt.Library>
libRbt.so (2013.1, Build901 2013/11/27)

>  <Rbt.Parameter_File>
/export/apps/rDock/src/rDock_2013.1_src/data/scripts/dock_solv.prm

>  <Rbt.Receptor>
prm/pocket_docking_6.prm

>  <SCORE>
-31.6133

>  <SCORE.INTER>
-30.3865

>  <SCORE.INTER.CONST>
1

>  <SCORE.INTER.POLAR>
-5.57084

>  <SCORE.INTER.ROT>
5

>  <SCORE.INTER.SOLV>
24.9403

>  <SCORE.INTER.VDW>
-16.935

>  <SCORE.INTER.norm>
-2.53221

>  <SCORE.INTRA>
-1.22679

>  <SCORE.INTRA.DIHEDRAL>
2.14531

>  <SCORE.INTRA.DIHEDRAL.0>
6.04201

>  <SCORE.INTRA.POLAR>
0

>  <SCORE.INTRA.POLAR.0>
0

>  <SCORE.INTRA.REPUL>
0

>  <SCORE.INTRA.REPUL.0>
0

>  <SCORE.INTRA.SOLV>
-1.0125

>  <SCORE.INTRA.SOLV.lig_0>
-71.0481

>  <SCORE.INTRA.VDW>
-1.79319

>  <SCORE.INTRA.VDW.0>
0.968882

>  <SCORE.INTRA.norm>
-0.102232

>  <SCORE.RESTR>
0

>  <SCORE.RESTR.CAVITY>
0

>  <SCORE.RESTR.norm>
0

>  <SCORE.SYSTEM>
0

>  <SCORE.SYSTEM.CONST>
0

>  <SCORE.SYSTEM.DIHEDRAL>
0

>  <SCORE.SYSTEM.SOLV>
0

>  <SCORE.SYSTEM.norm>
0

>  <SCORE.heavy>
12

>  <SCORE.norm>
-2.63444

>  <SYMMETRIC_BONDS>
11 12 2
5 6 2

>  <RMSD>
2.398

$$$$
1koc cryst
 OpenBabel11021811393D
libRbt.so/2013.1/901 2013/11/27
 12 11  0  0  0  0  0  0  0  0999 V2000
    4.2973    6.9595   27.5481 N   0  3  0  0  0  0  0  0  0  0  0  0
    4.8869    6.8985   28.9198 C   0  0  2  0  0  0  0  0  0  0  0  0
    6.2364    6.1569   28.8540 C   0  0  0  0  0  0  0  0  0  0  0  0
    6.8127    5.9221   29.9056 O   0  5  0  0  0  0  0  0  0  0  0  0
    3.8985    6.1653   29.8661 C   0  0  0  0  0  0  0  0  0  0  0  0
    3.8171    4.6718   29.5289 C   0  0  0  0  0  0  0  0  0  0  0  0
    3.2431    3.9092   30.7180 C   0  0  0  0  0  0  0  0  0  0  0  0
    3.0032    2.4859   30.3400 N   0  0  0  0  0  0  0  0  0  0  0  0
    2.1479    1.7572   31.0161 C   0  0  0  0  0  0  0  0  0  0  0  0
    1.0497    2.2938   31.4874 N   0  0  0  0  0  0  0  0  0  0  0  0
    2.3889    0.4882   31.2170 N   0  3  0  0  0  0  0  0  0  0  0  0
    6.6761    5.8469   27.7568 O   0  0  0  0  0  0  0  0  0  0  0  0
  2  1  1  6  0  0  0
  2  5  1  0  0  0  0
  2  3  1  0  0  0  0
  3  4  1  0  0  0  0
  3 12  2  0  0  0  0
  5  6  1  0  0  0  0
  6  7  1  0  0  0  0
  7  8  1  0  0  0  0
  8  9  1  0  0  0  0
  9 10  1  0  0  0  0
  9 11  2  0  0  0  0
M  CHG  3   1   1   4  -1  11   1
M  END
>  <CHROM.1>
145.52688678,70.04407829,-174.41706676,160.89490543,173.02688177,-158.20587139
4.03313945,4.44896842,29.73782225,0.97020182,0.11121951,-0.42818452

>  <Name>
1koc cryst

>  <RI>
0

>  <Rbt.Current_Directory>
/home/itssahil/PROJECTS/Mol_Feturizer/New_Systems/rnas/1koc

>  <Rbt.Executable>
rbdock ($Id: //depot/dev/client3/rdock/2013.1/src/exe/rbdock.cxx#4 $)

>  <Rbt.Library>
libRbt.so (2013.1, Build901 2013/11/27)

>  <Rbt.Parameter_File>
/export/apps/rDock/src/rDock_2013.1_src/data/scripts/dock_solv.prm

>  <Rbt.Receptor>
prm/pocket_docking_6.prm

>  <SCORE>
-35.618

>  <SCORE.INTER>
-35.7673

>  <SCORE.INTER.CONST>
1

>  <SCORE.INTER.POLAR>
-6.61827

>  <SCORE.INTER.ROT>
5

>  <SCORE.INTER.SOLV>
26.2527

>  <SCORE.INTER.VDW>
-17.4682

>  <SCORE.INTER.norm>
-2.98061

>  <SCORE.INTRA>
0.149232

>  <SCORE.INTRA.DIHEDRAL>
1.54071

>  <SCORE.INTRA.DIHEDRAL.0>
6.04201

>  <SCORE.INTRA.POLAR>
0

>  <SCORE.INTRA.POLAR.0>
0

>  <SCORE.INTRA.REPUL>
0

>  <SCORE.INTRA.REPUL.0>
0

>  <SCORE.INTRA.SOLV>
0.123455

>  <SCORE.INTRA.SOLV.lig_0>
-71.0481

>  <SCORE.INTRA.VDW>
-0.682852

>  <SCORE.INTRA.VDW.0>
0.968882

>  <SCORE.INTRA.norm>
0.012436

>  <SCORE.RESTR>
0

>  <SCORE.RESTR.CAVITY>
0

>  <SCORE.RESTR.norm>
0

>  <SCORE.SYSTEM>
0

>  <SCORE.SYSTEM.CONST>
0

>  <SCORE.SYSTEM.DIHEDRAL>
0

>  <SCORE.SYSTEM.SOLV>
0

>  <SCORE.SYSTEM.norm>
0

>  <SCORE.heavy>
12

>  <SCORE.norm>
-2.96817

>  <SYMMETRIC_BONDS>
11 12 2
5 6 2

>  <RMSD>
2.403

$$$$
1koc cryst
 OpenBabel11021811393D
libRbt.so/2013.1/901 2013/11/27
 12 11  0  0  0  0  0  0  0  0999 V2000
    7.3892    5.2993   32.8825 N   0  3  0  0  0  0  0  0  0  0  0  0
    6.7748    5.0292   31.5475 C   0  0  2  0  0  0  0  0  0  0  0  0
    6.7256    6.3423   30.7420 C   0  0  0  0  0  0  0  0  0  0  0  0
    6.0810    7.2728   31.2023 O   0  5  0  0  0  0  0  0  0  0  0  0
    5.3482    4.4518   31.7516 C   0  0  0  0  0  0  0  0  0  0  0  0
    4.6466    4.2267   30.4071 C   0  0  0  0  0  0  0  0  0  0  0  0
    3.1800    3.8847   30.6459 C   0  0  0  0  0  0  0  0  0  0  0  0
    2.9348    2.4487   30.3234 N   0  0  0  0  0  0  0  0  0  0  0  0
    2.1015    1.7411   31.0478 C   0  0  0  0  0  0  0  0  0  0  0  0
    1.0151    2.2904   31.5316 N   0  0  0  0  0  0  0  0  0  0  0  0
    2.3528    0.4803   31.2847 N   0  3  0  0  0  0  0  0  0  0  0  0
    7.3215    6.3929   29.6764 O   0  0  0  0  0  0  0  0  0  0  0  0
  2  1  1  1  0  0  0
  2  5  1  0  0  0  0
  2  3  1  0  0  0  0
  3  4  1  0  0  0  0
  3 12  2  0  0  0  0
  5  6  1  0  0  0  0
  6  7  1  0  0  0  0
  7  8  1  0  0  0  0
  8  9  1  0  0  0  0
  9 10  1  0  0  0  0
  9 11  2  0  0  0  0
M  CHG  3   1   1   4  -1  11   1
M  END
>  <CHROM.1>
53.14562621,177.00932610,-60.58529863,-170.59963744,-109.24182582,142.84593813
4.66617917,4.15528421,31.11191023,-0.51531780,0.55526333,2.41018140

>  <Name>
1koc cryst

>  <RI>
0

>  <Rbt.Current_Directory>
/home/itssahil/PROJECTS/Mol_Feturizer/New_Systems/rnas/1koc

>  <Rbt.Executable>
rbdock ($Id: //depot/dev/client3/rdock/2013.1/src/exe/rbdock.cxx#4 $)

>  <Rbt.Library>
libRbt.so (2013.1, Build901 2013/11/27)

>  <Rbt.Parameter_File>
/export/apps/rDock/src/rDock_2013.1_src/data/scripts/dock_solv.prm

>  <Rbt.Receptor>
prm/pocket_docking_7.prm

>  <SCORE>
-26.1567

>  <SCORE.INTER>
-25.2285

>  <SCORE.INTER.CONST>
1

>  <SCORE.INTER.POLAR>
-5.36727

>  <SCORE.INTER.ROT>
5

>  <SCORE.INTER.SOLV>
18.5721

>  <SCORE.INTER.VDW>
-12.0521

>  <SCORE.INTER.norm>
-2.10237

>  <SCORE.INTRA>
-0.928196

>  <SCORE.INTRA.DIHEDRAL>
3.0101

>  <SCORE.INTRA.DIHEDRAL.0>
6.04201

>  <SCORE.INTRA.POLAR>
0

>  <SCORE.INTRA.POLAR.0>
0

>  <SCORE.INTRA.REPUL>
0

>  <SCORE.INTRA.REPUL.0>
0

>  <SCORE.INTRA.SOLV>
-1.23633

>  <SCORE.INTRA.SOLV.lig_0>
-71.0481

>  <SCORE.INTRA.VDW>
-1.81508

>  <SCORE.INTRA.VDW.0>
0.968882

>  <SCORE.INTRA.norm>
-0.0773497

>  <SCORE.RESTR>
0

>  <SCORE.RESTR.CAVITY>
0

>  <SCORE.RESTR.norm>
0

>  <SCORE.SYSTEM>
0

>  <SCORE.SYSTEM.CONST>
0

>  <SCORE.SYSTEM.DIHEDRAL>
0

>  <SCORE.SYSTEM.SOLV>
0

>  <SCORE.SYSTEM.norm>
0

>  <SCORE.heavy>
12

>  <SCORE.norm>
-2.17972

>  <SYMMETRIC_BONDS>
11 12 2
5 6 2

>  <RMSD>
2.410

$$$$
1koc cryst
 OpenBabel11021811393D
libRbt.so/2013.1/901 2013/11/27
 12 11  0  0  0  0  0  0  0  0999 V2000
    2.1955    9.0052   32.4247 N   0  3  0  0  0  0  0  0  0  0  0  0
    3.2900    8.0044   32.6074 C   0  0  2  0  0  0  0  0  0  0  0  0
    4.6298    8.7489   32.7687 C   0  0  0  0  0  0  0  0  0  0  0  0
    5.6606    8.0991   32.6785 O   0  5  0  0  0  0  0  0  0  0  0  0
    3.3267    7.0604   31.3755 C   0  0  0  0  0  0  0  0  0  0  0  0
    2.2241    5.9984   31.4612 C   0  0  0  0  0  0  0  0  0  0  0  0
    2.1592    5.2209   30.1512 C   0  0  0  0  0  0  0  0  0  0  0  0
    2.2759    3.7584   30.4229 N   0  0  0  0  0  0  0  0  0  0  0  0
    1.2211    3.0661   30.7804 C   0  0  0  0  0  0  0  0  0  0  0  0
    0.0458    3.3417   30.2719 N   0  0  0  0  0  0  0  0  0  0  0  0
    1.3431    2.0927   31.6444 N   0  3  0  0  0  0  0  0  0  0  0  0
    4.6038    9.9504   32.9904 O   0  0  0  0  0  0  0  0  0  0  0  0
  2  1  1  6  0  0  0
  2  5  1  0  0  0  0
  2  3  1  0  0  0  0
  3  4  1  0  0  0  0
  3 12  2  0  0  0  0
  5  6  1  0  0  0  0
  6  7  1  0  0  0  0
  7  8  1  0  0  0  0
  8  9  1  0  0  0  0
  9 10  1  0  0  0  0
  9 11  2  0  0  0  0
M  CHG  3   1   1   4  -1  11   1
M  END
>  <CHROM.1>
-31.99793110,-78.62314733,-166.57870998,171.87005287,125.83972581,82.76203057
2.73161912,6.20888447,31.64141034,1.08382655,-0.25014831,0.19230083

>  <Name>
1koc cryst

>  <RI>
0

>  <Rbt.Current_Directory>
/home/itssahil/PROJECTS/Mol_Feturizer/New_Systems/rnas/1koc

>  <Rbt.Executable>
rbdock ($Id: //depot/dev/client3/rdock/2013.1/src/exe/rbdock.cxx#4 $)

>  <Rbt.Library>
libRbt.so (2013.1, Build901 2013/11/27)

>  <Rbt.Parameter_File>
/export/apps/rDock/src/rDock_2013.1_src/data/scripts/dock_solv.prm

>  <Rbt.Receptor>
prm/pocket_docking_4.prm

>  <SCORE>
-30.23

>  <SCORE.INTER>
-31.1629

>  <SCORE.INTER.CONST>
1

>  <SCORE.INTER.POLAR>
-5.1956

>  <SCORE.INTER.ROT>
5

>  <SCORE.INTER.SOLV>
25.3466

>  <SCORE.INTER.VDW>
-18.8388

>  <SCORE.INTER.norm>
-2.59691

>  <SCORE.INTRA>
0.932896

>  <SCORE.INTRA.DIHEDRAL>
5.78899

>  <SCORE.INTRA.DIHEDRAL.0>
6.04201

>  <SCORE.INTRA.POLAR>
0

>  <SCORE.INTRA.POLAR.0>
0

>  <SCORE.INTRA.REPUL>
0

>  <SCORE.INTRA.REPUL.0>
0

>  <SCORE.INTRA.SOLV>
-0.909392

>  <SCORE.INTRA.SOLV.lig_0>
-71.0481

>  <SCORE.INTRA.VDW>
-1.5069

>  <SCORE.INTRA.VDW.0>
0.968882

>  <SCORE.INTRA.norm>
0.0777413

>  <SCORE.RESTR>
0

>  <SCORE.RESTR.CAVITY>
0

>  <SCORE.RESTR.norm>
0

>  <SCORE.SYSTEM>
0

>  <SCORE.SYSTEM.CONST>
0

>  <SCORE.SYSTEM.DIHEDRAL>
0

>  <SCORE.SYSTEM.SOLV>
0

>  <SCORE.SYSTEM.norm>
0

>  <SCORE.heavy>
12

>  <SCORE.norm>
-2.51917

>  <SYMMETRIC_BONDS>
11 12 2
5 6 2

>  <RMSD>
2.416

$$$$
1koc cryst
 OpenBabel11021811393D
libRbt.so/2013.1/901 2013/11/27
 12 11  0  0  0  0  0  0  0  0999 V2000
    4.2183    6.0200   27.9491 N   0  3  0  0  0  0  0  0  0  0  0  0
    4.9689    6.3656   29.1941 C   0  0  2  0  0  0  0  0  0  0  0  0
    6.0142    5.2675   29.4718 C   0  0  0  0  0  0  0  0  0  0  0  0
    5.8344    4.1665   28.9734 O   0  5  0  0  0  0  0  0  0  0  0  0
    3.9676    6.4873   30.3743 C   0  0  0  0  0  0  0  0  0  0  0  0
    2.8207    5.4799   30.2308 C   0  0  0  0  0  0  0  0  0  0  0  0
    3.2794    4.1094   30.7170 C   0  0  0  0  0  0  0  0  0  0  0  0
    2.1002    3.3029   31.1472 N   0  0  0  0  0  0  0  0  0  0  0  0
    2.1530    1.9927   31.1291 C   0  0  0  0  0  0  0  0  0  0  0  0
    3.2649    1.3715   31.4355 N   0  0  0  0  0  0  0  0  0  0  0  0
    1.0902    1.3022   30.8089 N   0  3  0  0  0  0  0  0  0  0  0  0
    6.9682    5.5406   30.1850 O   0  0  0  0  0  0  0  0  0  0  0  0
  2  1  1  6  0  0  0
  2  5  1  0  0  0  0
  2  3  1  0  0  0  0
  3  4  1  0  0  0  0
  3 12  2  0  0  0  0
  5  6  1  0  0  0  0
  6  7  1  0  0  0  0
  7  8  1  0  0  0  0
  8  9  1  0  0  0  0
  9 10  1  0  0  0  0
  9 11  2  0  0  0  0
M  CHG  3   1   1   4  -1  11   1
M  END
>  <CHROM.1>
51.68429959,34.84200224,-21.87426539,80.64917575,155.36808124,154.70366309
3.88499388,4.25227607,30.11133269,0.88825515,0.09226121,-0.35913047

>  <Name>
1koc cryst

>  <RI>
0

>  <Rbt.Current_Directory>
/home/itssahil/PROJECTS/Mol_Feturizer/New_Systems/rnas/1koc

>  <Rbt.Executable>
rbdock ($Id: //depot/dev/client3/rdock/2013.1/src/exe/rbdock.cxx#4 $)

>  <Rbt.Library>
libRbt.so (2013.1, Build901 2013/11/27)

>  <Rbt.Parameter_File>
/export/apps/rDock/src/rDock_2013.1_src/data/scripts/dock_solv.prm

>  <Rbt.Receptor>
prm/pocket_docking_4.prm

>  <SCORE>
-25.846

>  <SCORE.INTER>
-27.6713

>  <SCORE.INTER.CONST>
1

>  <SCORE.INTER.POLAR>
-6.11692

>  <SCORE.INTER.ROT>
5

>  <SCORE.INTER.SOLV>
23.9207

>  <SCORE.INTER.VDW>
-12.9647

>  <SCORE.INTER.norm>
-2.30594

>  <SCORE.INTRA>
1.82532

>  <SCORE.INTRA.DIHEDRAL>
3.10398

>  <SCORE.INTRA.DIHEDRAL.0>
6.04201

>  <SCORE.INTRA.POLAR>
0

>  <SCORE.INTRA.POLAR.0>
0

>  <SCORE.INTRA.REPUL>
0

>  <SCORE.INTRA.REPUL.0>
0

>  <SCORE.INTRA.SOLV>
1.75325

>  <SCORE.INTRA.SOLV.lig_0>
-71.0481

>  <SCORE.INTRA.VDW>
-0.603297

>  <SCORE.INTRA.VDW.0>
0.968882

>  <SCORE.INTRA.norm>
0.15211

>  <SCORE.RESTR>
0

>  <SCORE.RESTR.CAVITY>
0

>  <SCORE.RESTR.norm>
0

>  <SCORE.SYSTEM>
0

>  <SCORE.SYSTEM.CONST>
0

>  <SCORE.SYSTEM.DIHEDRAL>
0

>  <SCORE.SYSTEM.SOLV>
0

>  <SCORE.SYSTEM.norm>
0

>  <SCORE.heavy>
12

>  <SCORE.norm>
-2.15383

>  <SYMMETRIC_BONDS>
11 12 2
5 6 2

>  <RMSD>
2.422

$$$$
1koc cryst
 OpenBabel11021811393D
libRbt.so/2013.1/901 2013/11/27
 12 11  0  0  0  0  0  0  0  0999 V2000
    4.3689    7.4781   27.3557 N   0  3  0  0  0  0  0  0  0  0  0  0
    4.2360    7.1053   28.7966 C   0  0  2  0  0  0  0  0  0  0  0  0
    5.6219    7.1859   29.4662 C   0  0  0  0  0  0  0  0  0  0  0  0
    6.4688    6.3719   29.1297 O   0  5  0  0  0  0  0  0  0  0  0  0
    3.6550    5.6693   28.8989 C   0  0  0  0  0  0  0  0  0  0  0  0
    3.1157    5.3915   30.3070 C   0  0  0  0  0  0  0  0  0  0  0  0
    3.4579    3.9623   30.7134 C   0  0  0  0  0  0  0  0  0  0  0  0
    2.2255    3.2556   31.1696 N   0  0  0  0  0  0  0  0  0  0  0  0
    2.1642    1.9460   31.1385 C   0  0  0  0  0  0  0  0  0  0  0  0
    3.2262    1.2279   31.4077 N   0  0  0  0  0  0  0  0  0  0  0  0
    1.0373    1.3535   30.8423 N   0  3  0  0  0  0  0  0  0  0  0  0
    5.8100    8.0497   30.3099 O   0  0  0  0  0  0  0  0  0  0  0  0
  2  1  1  6  0  0  0
  2  5  1  0  0  0  0
  2  3  1  0  0  0  0
  3  4  1  0  0  0  0
  3 12  2  0  0  0  0
  5  6  1  0  0  0  0
  6  7  1  0  0  0  0
  7  8  1  0  0  0  0
  8  9  1  0  0  0  0
  9 10  1  0  0  0  0
  9 11  2  0  0  0  0
M  CHG  3   1   1   4  -1  11   1
M  END
>  <CHROM.1>
-173.70284720,-163.26513437,-67.92717689,-140.66771582,-127.80332391,157.04134091
3.78967872,4.91410735,29.93952732,1.00343786,-0.49791487,-0.67694553

>  <Name>
1koc cryst

>  <RI>
0

>  <Rbt.Current_Directory>
/home/itssahil/PROJECTS/Mol_Feturizer/New_Systems/rnas/1koc

>  <Rbt.Executable>
rbdock ($Id: //depot/dev/client3/rdock/2013.1/src/exe/rbdock.cxx#4 $)

>  <Rbt.Library>
libRbt.so (2013.1, Build901 2013/11/27)

>  <Rbt.Parameter_File>
/export/apps/rDock/src/rDock_2013.1_src/data/scripts/dock_solv.prm

>  <Rbt.Receptor>
prm/pocket_docking_8.prm

>  <SCORE>
-30.1833

>  <SCORE.INTER>
-31.6397

>  <SCORE.INTER.CONST>
1

>  <SCORE.INTER.POLAR>
-6.31397

>  <SCORE.INTER.ROT>
5

>  <SCORE.INTER.SOLV>
22.3502

>  <SCORE.INTER.VDW>
-14.43

>  <SCORE.INTER.norm>
-2.63664

>  <SCORE.INTRA>
1.45643

>  <SCORE.INTRA.DIHEDRAL>
8.22227

>  <SCORE.INTRA.DIHEDRAL.0>
6.04201

>  <SCORE.INTRA.POLAR>
0

>  <SCORE.INTRA.POLAR.0>
0

>  <SCORE.INTRA.REPUL>
0

>  <SCORE.INTRA.REPUL.0>
0

>  <SCORE.INTRA.SOLV>
-1.3837

>  <SCORE.INTRA.SOLV.lig_0>
-71.0481

>  <SCORE.INTRA.VDW>
-1.96286

>  <SCORE.INTRA.VDW.0>
0.968882

>  <SCORE.INTRA.norm>
0.121369

>  <SCORE.RESTR>
0

>  <SCORE.RESTR.CAVITY>
0

>  <SCORE.RESTR.norm>
0

>  <SCORE.SYSTEM>
0

>  <SCORE.SYSTEM.CONST>
0

>  <SCORE.SYSTEM.DIHEDRAL>
0

>  <SCORE.SYSTEM.SOLV>
0

>  <SCORE.SYSTEM.norm>
0

>  <SCORE.heavy>
12

>  <SCORE.norm>
-2.51527

>  <SYMMETRIC_BONDS>
11 12 2
5 6 2

>  <RMSD>
2.423

$$$$
1koc cryst
 OpenBabel11021811393D
libRbt.so/2013.1/901 2013/11/27
 12 11  0  0  0  0  0  0  0  0999 V2000
    4.0425    6.6004   27.2731 N   0  3  0  0  0  0  0  0  0  0  0  0
    4.0470    6.4176   28.7562 C   0  0  2  0  0  0  0  0  0  0  0  0
    5.4498    6.7527   29.2995 C   0  0  0  0  0  0  0  0  0  0  0  0
    5.5328    7.5633   30.2101 O   0  5  0  0  0  0  0  0  0  0  0  0
    3.6606    4.9513   29.0890 C   0  0  0  0  0  0  0  0  0  0  0  0
    3.9018    4.6400   30.5708 C   0  0  0  0  0  0  0  0  0  0  0  0
    3.4343    3.2217   30.8786 C   0  0  0  0  0  0  0  0  0  0  0  0
    1.9955    3.2363   31.2736 N   0  0  0  0  0  0  0  0  0  0  0  0
    1.2347    2.1943   31.0388 C   0  0  0  0  0  0  0  0  0  0  0  0
    1.7223    0.9829   31.1422 N   0  0  0  0  0  0  0  0  0  0  0  0
   -0.0177    2.3641   30.7049 N   0  3  0  0  0  0  0  0  0  0  0  0
    6.4161    6.2041   28.7910 O   0  0  0  0  0  0  0  0  0  0  0  0
  2  1  1  6  0  0  0
  2  5  1  0  0  0  0
  2  3  1  0  0  0  0
  3  4  1  0  0  0  0
  3 12  2  0  0  0  0
  5  6  1  0  0  0  0
  6  7  1  0  0  0  0
  7  8  1  0  0  0  0
  8  9  1  0  0  0  0
  9 10  1  0  0  0  0
  9 11  2  0  0  0  0
M  CHG  3   1   1   4  -1  11   1
M  END
>  <CHROM.1>
51.98693494,169.44538031,127.27939672,176.62823588,-89.22431819,150.87218968
3.44464304,4.59875330,29.89140668,0.79130557,-0.51475871,-0.88493031

>  <Name>
1koc cryst

>  <RI>
0

>  <Rbt.Current_Directory>
/home/itssahil/PROJECTS/Mol_Feturizer/New_Systems/rnas/1koc

>  <Rbt.Executable>
rbdock ($Id: //depot/dev/client3/rdock/2013.1/src/exe/rbdock.cxx#4 $)

>  <Rbt.Library>
libRbt.so (2013.1, Build901 2013/11/27)

>  <Rbt.Parameter_File>
/export/apps/rDock/src/rDock_2013.1_src/data/scripts/dock_solv.prm

>  <Rbt.Receptor>
prm/pocket_docking_3.prm

>  <SCORE>
-34.5789

>  <SCORE.INTER>
-32.951

>  <SCORE.INTER.CONST>
1

>  <SCORE.INTER.POLAR>
-6.11108

>  <SCORE.INTER.ROT>
5

>  <SCORE.INTER.SOLV>
25.5699

>  <SCORE.INTER.VDW>
-17.0537

>  <SCORE.INTER.norm>
-2.74591

>  <SCORE.INTRA>
-1.82227

>  <SCORE.INTRA.DIHEDRAL>
0.644087

>  <SCORE.INTRA.DIHEDRAL.0>
6.04201

>  <SCORE.INTRA.POLAR>
0

>  <SCORE.INTRA.POLAR.0>
0

>  <SCORE.INTRA.REPUL>
0

>  <SCORE.INTRA.REPUL.0>
0

>  <SCORE.INTRA.SOLV>
-1.09981

>  <SCORE.INTRA.SOLV.lig_0>
-71.0481

>  <SCORE.INTRA.VDW>
-1.59441

>  <SCORE.INTRA.VDW.0>
0.968882

>  <SCORE.INTRA.norm>
-0.151856

>  <SCORE.RESTR>
0.194327

>  <SCORE.RESTR.CAVITY>
0.194327

>  <SCORE.RESTR.norm>
0.0161939

>  <SCORE.SYSTEM>
0

>  <SCORE.SYSTEM.CONST>
0

>  <SCORE.SYSTEM.DIHEDRAL>
0

>  <SCORE.SYSTEM.SOLV>
0

>  <SCORE.SYSTEM.norm>
0

>  <SCORE.heavy>
12

>  <SCORE.norm>
-2.88158

>  <SYMMETRIC_BONDS>
11 12 2
5 6 2

>  <RMSD>
2.424

$$$$
1koc cryst
 OpenBabel11021811393D
libRbt.so/2013.1/901 2013/11/27
 12 11  0  0  0  0  0  0  0  0999 V2000
    4.3522    7.3209   27.3304 N   0  3  0  0  0  0  0  0  0  0  0  0
    4.3301    6.9107   28.7670 C   0  0  2  0  0  0  0  0  0  0  0  0
    5.7470    7.0611   29.3545 C   0  0  0  0  0  0  0  0  0  0  0  0
    5.8919    7.7965   30.3195 O   0  5  0  0  0  0  0  0  0  0  0  0
    3.8425    5.4402   28.8685 C   0  0  0  0  0  0  0  0  0  0  0  0
    3.4043    5.1018   30.2983 C   0  0  0  0  0  0  0  0  0  0  0  0
    3.0916    3.6129   30.3990 C   0  0  0  0  0  0  0  0  0  0  0  0
    1.8334    3.4100   31.1749 N   0  0  0  0  0  0  0  0  0  0  0  0
    1.1207    2.3221   31.0064 C   0  0  0  0  0  0  0  0  0  0  0  0
    1.7100    1.1730   30.7871 N   0  0  0  0  0  0  0  0  0  0  0  0
   -0.1839    2.3829   31.0623 N   0  3  0  0  0  0  0  0  0  0  0  0
    6.6633    6.4498   28.8252 O   0  0  0  0  0  0  0  0  0  0  0  0
  2  1  1  6  0  0  0
  2  5  1  0  0  0  0
  2  3  1  0  0  0  0
  3  4  1  0  0  0  0
  3 12  2  0  0  0  0
  5  6  1  0  0  0  0
  6  7  1  0  0  0  0
  7  8  1  0  0  0  0
  8  9  1  0  0  0  0
  9 10  1  0  0  0  0
  9 11  2  0  0  0  0
M  CHG  3   1   1   4  -1  11   1
M  END
>  <CHROM.1>
-176.00737571,-163.12007376,121.75235777,-173.27967226,-136.42728629,155.94121948
3.48160574,4.92053367,29.82796180,0.77217012,-0.47419694,-0.84273487

>  <Name>
1koc cryst

>  <RI>
0

>  <Rbt.Current_Directory>
/home/itssahil/PROJECTS/Mol_Feturizer/New_Systems/rnas/1koc

>  <Rbt.Executable>
rbdock ($Id: //depot/dev/client3/rdock/2013.1/src/exe/rbdock.cxx#4 $)

>  <Rbt.Library>
libRbt.so (2013.1, Build901 2013/11/27)

>  <Rbt.Parameter_File>
/export/apps/rDock/src/rDock_2013.1_src/data/scripts/dock_solv.prm

>  <Rbt.Receptor>
prm/pocket_docking_4.prm

>  <SCORE>
-35.5828

>  <SCORE.INTER>
-34.3204

>  <SCORE.INTER.CONST>
1

>  <SCORE.INTER.POLAR>
-6.31312

>  <SCORE.INTER.ROT>
5

>  <SCORE.INTER.SOLV>
23.0932

>  <SCORE.INTER.VDW>
-16.4676

>  <SCORE.INTER.norm>
-2.86003

>  <SCORE.INTRA>
-1.26237

>  <SCORE.INTRA.DIHEDRAL>
3.13572

>  <SCORE.INTRA.DIHEDRAL.0>
6.04201

>  <SCORE.INTRA.POLAR>
0

>  <SCORE.INTRA.POLAR.0>
0

>  <SCORE.INTRA.REPUL>
0

>  <SCORE.INTRA.REPUL.0>
0

>  <SCORE.INTRA.SOLV>
-1.635

>  <SCORE.INTRA.SOLV.lig_0>
-71.0481

>  <SCORE.INTRA.VDW>
-2.01273

>  <SCORE.INTRA.VDW.0>
0.968882

>  <SCORE.INTRA.norm>
-0.105198

>  <SCORE.RESTR>
0

>  <SCORE.RESTR.CAVITY>
0

>  <SCORE.RESTR.norm>
0

>  <SCORE.SYSTEM>
0

>  <SCORE.SYSTEM.CONST>
0

>  <SCORE.SYSTEM.DIHEDRAL>
0

>  <SCORE.SYSTEM.SOLV>
0

>  <SCORE.SYSTEM.norm>
0

>  <SCORE.heavy>
12

>  <SCORE.norm>
-2.96523

>  <SYMMETRIC_BONDS>
11 12 2
5 6 2

>  <RMSD>
2.424

$$$$
1koc cryst
 OpenBabel11021811393D
libRbt.so/2013.1/901 2013/11/27
 12 11  0  0  0  0  0  0  0  0999 V2000
    4.1142    6.6008   27.1996 N   0  3  0  0  0  0  0  0  0  0  0  0
    3.9012    6.9282   28.6419 C   0  0  2  0  0  0  0  0  0  0  0  0
    5.1744    7.5946   29.1992 C   0  0  0  0  0  0  0  0  0  0  0  0
    5.0719    8.2651   30.2155 O   0  5  0  0  0  0  0  0  0  0  0  0
    3.5756    5.6230   29.4169 C   0  0  0  0  0  0  0  0  0  0  0  0
    4.7860    4.6823   29.4463 C   0  0  0  0  0  0  0  0  0  0  0  0
    4.6053    3.6502   30.5540 C   0  0  0  0  0  0  0  0  0  0  0  0
    3.7316    2.5396   30.0750 N   0  0  0  0  0  0  0  0  0  0  0  0
    2.5922    2.2892   30.6740 C   0  0  0  0  0  0  0  0  0  0  0  0
    1.8632    3.2705   31.1449 N   0  0  0  0  0  0  0  0  0  0  0  0
    2.1785    1.0554   30.7977 N   0  3  0  0  0  0  0  0  0  0  0  0
    6.2254    7.4338   28.5969 O   0  0  0  0  0  0  0  0  0  0  0  0
  2  1  1  6  0  0  0
  2  5  1  0  0  0  0
  2  3  1  0  0  0  0
  3  4  1  0  0  0  0
  3 12  2  0  0  0  0
  5  6  1  0  0  0  0
  6  7  1  0  0  0  0
  7  8  1  0  0  0  0
  8  9  1  0  0  0  0
  9 10  1  0  0  0  0
  9 11  2  0  0  0  0
M  CHG  3   1   1   4  -1  11   1
M  END
>  <CHROM.1>
66.93530180,66.87361981,159.50044745,161.99008352,81.82683723,-118.90251470
3.97864904,4.99241903,29.63977047,0.34700103,-1.13231063,-1.53462452

>  <Name>
1koc cryst

>  <RI>
0

>  <Rbt.Current_Directory>
/home/itssahil/PROJECTS/Mol_Feturizer/New_Systems/rnas/1koc

>  <Rbt.Executable>
rbdock ($Id: //depot/dev/client3/rdock/2013.1/src/exe/rbdock.cxx#4 $)

>  <Rbt.Library>
libRbt.so (2013.1, Build901 2013/11/27)

>  <Rbt.Parameter_File>
/export/apps/rDock/src/rDock_2013.1_src/data/scripts/dock_solv.prm

>  <Rbt.Receptor>
prm/pocket_docking_8.prm

>  <SCORE>
-29.4506

>  <SCORE.INTER>
-28.6904

>  <SCORE.INTER.CONST>
1

>  <SCORE.INTER.POLAR>
-5.45039

>  <SCORE.INTER.ROT>
5

>  <SCORE.INTER.SOLV>
25.2707

>  <SCORE.INTER.VDW>
-16.3159

>  <SCORE.INTER.norm>
-2.39086

>  <SCORE.INTRA>
-0.760252

>  <SCORE.INTRA.DIHEDRAL>
0.568412

>  <SCORE.INTRA.DIHEDRAL.0>
6.04201

>  <SCORE.INTRA.POLAR>
0

>  <SCORE.INTRA.POLAR.0>
0

>  <SCORE.INTRA.REPUL>
0

>  <SCORE.INTRA.REPUL.0>
0

>  <SCORE.INTRA.SOLV>
1.01492

>  <SCORE.INTRA.SOLV.lig_0>
-71.0481

>  <SCORE.INTRA.VDW>
-1.55192

>  <SCORE.INTRA.VDW.0>
0.968882

>  <SCORE.INTRA.norm>
-0.0633543

>  <SCORE.RESTR>
0

>  <SCORE.RESTR.CAVITY>
0

>  <SCORE.RESTR.norm>
0

>  <SCORE.SYSTEM>
0

>  <SCORE.SYSTEM.CONST>
0

>  <SCORE.SYSTEM.DIHEDRAL>
0

>  <SCORE.SYSTEM.SOLV>
0

>  <SCORE.SYSTEM.norm>
0

>  <SCORE.heavy>
12

>  <SCORE.norm>
-2.45422

>  <SYMMETRIC_BONDS>
11 12 2
5 6 2

>  <RMSD>
2.428

$$$$
1koc cryst
 OpenBabel11021811393D
libRbt.so/2013.1/901 2013/11/27
 12 11  0  0  0  0  0  0  0  0999 V2000
    4.4188    7.9030   30.7003 N   0  3  0  0  0  0  0  0  0  0  0  0
    5.0779    6.7533   30.0097 C   0  0  2  0  0  0  0  0  0  0  0  0
    5.9089    7.2872   28.8266 C   0  0  0  0  0  0  0  0  0  0  0  0
    6.7994    6.5764   28.3852 O   0  5  0  0  0  0  0  0  0  0  0  0
    3.9881    5.7630   29.5179 C   0  0  0  0  0  0  0  0  0  0  0  0
    3.2111    5.1673   30.6979 C   0  0  0  0  0  0  0  0  0  0  0  0
    2.1456    4.2087   30.1774 C   0  0  0  0  0  0  0  0  0  0  0  0
    2.6816    2.8164   30.1582 N   0  0  0  0  0  0  0  0  0  0  0  0
    2.2860    1.9431   31.0529 C   0  0  0  0  0  0  0  0  0  0  0  0
    1.0471    1.9475   31.4786 N   0  0  0  0  0  0  0  0  0  0  0  0
    3.1299    1.0603   31.5192 N   0  3  0  0  0  0  0  0  0  0  0  0
    5.6501    8.3987   28.3896 O   0  0  0  0  0  0  0  0  0  0  0  0
  2  1  1  6  0  0  0
  2  5  1  0  0  0  0
  2  3  1  0  0  0  0
  3  4  1  0  0  0  0
  3 12  2  0  0  0  0
  5  6  1  0  0  0  0
  6  7  1  0  0  0  0
  7  8  1  0  0  0  0
  8  9  1  0  0  0  0
  9 10  1  0  0  0  0
  9 11  2  0  0  0  0
M  CHG  3   1   1   4  -1  11   1
M  END
>  <CHROM.1>
-176.66893618,-63.15589238,159.67523256,179.62721500,93.65260192,106.09159083
3.86476011,4.99762268,30.08788515,0.94403618,0.51861301,-0.01257717

>  <Name>
1koc cryst

>  <RI>
0

>  <Rbt.Current_Directory>
/home/itssahil/PROJECTS/Mol_Feturizer/New_Systems/rnas/1koc

>  <Rbt.Executable>
rbdock ($Id: //depot/dev/client3/rdock/2013.1/src/exe/rbdock.cxx#4 $)

>  <Rbt.Library>
libRbt.so (2013.1, Build901 2013/11/27)

>  <Rbt.Parameter_File>
/export/apps/rDock/src/rDock_2013.1_src/data/scripts/dock_solv.prm

>  <Rbt.Receptor>
prm/pocket_docking_4.prm

>  <SCORE>
-27.0204

>  <SCORE.INTER>
-25.1208

>  <SCORE.INTER.CONST>
1

>  <SCORE.INTER.POLAR>
-4.99186

>  <SCORE.INTER.ROT>
5

>  <SCORE.INTER.SOLV>
17.4944

>  <SCORE.INTER.VDW>
-12.8724

>  <SCORE.INTER.norm>
-2.0934

>  <SCORE.INTRA>
-1.90362

>  <SCORE.INTRA.DIHEDRAL>
0.750477

>  <SCORE.INTRA.DIHEDRAL.0>
6.04201

>  <SCORE.INTRA.POLAR>
0

>  <SCORE.INTRA.POLAR.0>
0

>  <SCORE.INTRA.REPUL>
0

>  <SCORE.INTRA.REPUL.0>
0

>  <SCORE.INTRA.SOLV>
-0.691305

>  <SCORE.INTRA.SOLV.lig_0>
-71.0481

>  <SCORE.INTRA.VDW>
-1.9332

>  <SCORE.INTRA.VDW.0>
0.968882

>  <SCORE.INTRA.norm>
-0.158635

>  <SCORE.RESTR>
0.00399258

>  <SCORE.RESTR.CAVITY>
0.00399258

>  <SCORE.RESTR.norm>
0.000332715

>  <SCORE.SYSTEM>
0

>  <SCORE.SYSTEM.CONST>
0

>  <SCORE.SYSTEM.DIHEDRAL>
0

>  <SCORE.SYSTEM.SOLV>
0

>  <SCORE.SYSTEM.norm>
0

>  <SCORE.heavy>
12

>  <SCORE.norm>
-2.2517

>  <SYMMETRIC_BONDS>
11 12 2
5 6 2

>  <RMSD>
2.431

$$$$
1koc cryst
 OpenBabel11021811393D
libRbt.so/2013.1/901 2013/11/27
 12 11  0  0  0  0  0  0  0  0999 V2000
    4.2633    7.1062   27.4270 N   0  3  0  0  0  0  0  0  0  0  0  0
    4.3798    6.6570   28.8474 C   0  0  2  0  0  0  0  0  0  0  0  0
    5.8716    6.5464   29.2187 C   0  0  0  0  0  0  0  0  0  0  0  0
    6.2327    7.0187   30.2862 O   0  5  0  0  0  0  0  0  0  0  0  0
    3.6668    5.2873   29.0078 C   0  0  0  0  0  0  0  0  0  0  0  0
    3.8485    4.7336   30.4259 C   0  0  0  0  0  0  0  0  0  0  0  0
    3.3310    3.3005   30.4860 C   0  0  0  0  0  0  0  0  0  0  0  0
    2.0216    3.2635   31.2005 N   0  0  0  0  0  0  0  0  0  0  0  0
    1.2198    2.2356   31.0587 C   0  0  0  0  0  0  0  0  0  0  0  0
    1.7094    1.0260   30.9437 N   0  0  0  0  0  0  0  0  0  0  0  0
   -0.0746    2.4172   31.0369 N   0  3  0  0  0  0  0  0  0  0  0  0
    6.6283    6.0033   28.4277 O   0  0  0  0  0  0  0  0  0  0  0  0
  2  1  1  6  0  0  0
  2  5  1  0  0  0  0
  2  3  1  0  0  0  0
  3  4  1  0  0  0  0
  3 12  2  0  0  0  0
  5  6  1  0  0  0  0
  6  7  1  0  0  0  0
  7  8  1  0  0  0  0
  8  9  1  0  0  0  0
  9 10  1  0  0  0  0
  9 11  2  0  0  0  0
M  CHG  3   1   1   4  -1  11   1
M  END
>  <CHROM.1>
-179.48420152,175.77530200,134.41824302,-171.11634024,-105.30188423,161.13241350
3.58590202,4.63899850,29.84062677,0.81808101,-0.30248091,-0.73090984

>  <Name>
1koc cryst

>  <RI>
0

>  <Rbt.Current_Directory>
/home/itssahil/PROJECTS/Mol_Feturizer/New_Systems/rnas/1koc

>  <Rbt.Executable>
rbdock ($Id: //depot/dev/client3/rdock/2013.1/src/exe/rbdock.cxx#4 $)

>  <Rbt.Library>
libRbt.so (2013.1, Build901 2013/11/27)

>  <Rbt.Parameter_File>
/export/apps/rDock/src/rDock_2013.1_src/data/scripts/dock_solv.prm

>  <Rbt.Receptor>
prm/pocket_docking_8.prm

>  <SCORE>
-35.8412

>  <SCORE.INTER>
-34.772

>  <SCORE.INTER.CONST>
1

>  <SCORE.INTER.POLAR>
-6.27908

>  <SCORE.INTER.ROT>
5

>  <SCORE.INTER.SOLV>
23.868

>  <SCORE.INTER.VDW>
-17.1404

>  <SCORE.INTER.norm>
-2.89767

>  <SCORE.INTRA>
-1.0692

>  <SCORE.INTRA.DIHEDRAL>
2.54361

>  <SCORE.INTRA.DIHEDRAL.0>
6.04201

>  <SCORE.INTRA.POLAR>
0

>  <SCORE.INTRA.POLAR.0>
0

>  <SCORE.INTRA.REPUL>
0

>  <SCORE.INTRA.REPUL.0>
0

>  <SCORE.INTRA.SOLV>
-1.17079

>  <SCORE.INTRA.SOLV.lig_0>
-71.0481

>  <SCORE.INTRA.VDW>
-1.75561

>  <SCORE.INTRA.VDW.0>
0.968882

>  <SCORE.INTRA.norm>
-0.0890998

>  <SCORE.RESTR>
0

>  <SCORE.RESTR.CAVITY>
0

>  <SCORE.RESTR.norm>
0

>  <SCORE.SYSTEM>
0

>  <SCORE.SYSTEM.CONST>
0

>  <SCORE.SYSTEM.DIHEDRAL>
0

>  <SCORE.SYSTEM.SOLV>
0

>  <SCORE.SYSTEM.norm>
0

>  <SCORE.heavy>
12

>  <SCORE.norm>
-2.98677

>  <SYMMETRIC_BONDS>
11 12 2
5 6 2

>  <RMSD>
2.432

$$$$
1koc cryst
 OpenBabel11021811393D
libRbt.so/2013.1/901 2013/11/27
 12 11  0  0  0  0  0  0  0  0999 V2000
    4.3853    7.3238   27.4809 N   0  3  0  0  0  0  0  0  0  0  0  0
    4.2594    6.9372   28.9189 C   0  0  2  0  0  0  0  0  0  0  0  0
    5.5795    7.2637   29.6443 C   0  0  0  0  0  0  0  0  0  0  0  0
    6.6000    7.3280   28.9753 O   0  5  0  0  0  0  0  0  0  0  0  0
    3.9376    5.4213   29.0117 C   0  0  0  0  0  0  0  0  0  0  0  0
    3.0669    5.1163   30.2363 C   0  0  0  0  0  0  0  0  0  0  0  0
    2.0047    4.0871   29.8656 C   0  0  0  0  0  0  0  0  0  0  0  0
    1.9000    3.0565   30.9394 N   0  0  0  0  0  0  0  0  0  0  0  0
    2.7496    2.0585   30.9832 C   0  0  0  0  0  0  0  0  0  0  0  0
    4.0030    2.2421   30.6498 N   0  0  0  0  0  0  0  0  0  0  0  0
    2.3458    0.8756   31.3660 N   0  3  0  0  0  0  0  0  0  0  0  0
    5.5511    7.4325   30.8543 O   0  0  0  0  0  0  0  0  0  0  0  0
  2  1  1  6  0  0  0
  2  5  1  0  0  0  0
  2  3  1  0  0  0  0
  3  4  1  0  0  0  0
  3 12  2  0  0  0  0
  5  6  1  0  0  0  0
  6  7  1  0  0  0  0
  7  8  1  0  0  0  0
  8  9  1  0  0  0  0
  9 10  1  0  0  0  0
  9 11  2  0  0  0  0
M  CHG  3   1   1   4  -1  11   1
M  END
>  <CHROM.1>
80.78825910,-148.30139927,-23.87786352,139.48397484,136.06881959,-81.69864186
3.88814464,4.92956405,29.89469184,1.03491780,-0.49617461,-0.62899559

>  <Name>
1koc cryst

>  <RI>
0

>  <Rbt.Current_Directory>
/home/itssahil/PROJECTS/Mol_Feturizer/New_Systems/rnas/1koc

>  <Rbt.Executable>
rbdock ($Id: //depot/dev/client3/rdock/2013.1/src/exe/rbdock.cxx#4 $)

>  <Rbt.Library>
libRbt.so (2013.1, Build901 2013/11/27)

>  <Rbt.Parameter_File>
/export/apps/rDock/src/rDock_2013.1_src/data/scripts/dock_solv.prm

>  <Rbt.Receptor>
prm/pocket_docking_6.prm

>  <SCORE>
-34.9546

>  <SCORE.INTER>
-39.3204

>  <SCORE.INTER.CONST>
1

>  <SCORE.INTER.POLAR>
-7.23565

>  <SCORE.INTER.ROT>
5

>  <SCORE.INTER.SOLV>
20.9527

>  <SCORE.INTER.VDW>
-16.0123

>  <SCORE.INTER.norm>
-3.2767

>  <SCORE.INTRA>
4.36579

>  <SCORE.INTRA.DIHEDRAL>
10.4195

>  <SCORE.INTRA.DIHEDRAL.0>
6.04201

>  <SCORE.INTRA.POLAR>
0

>  <SCORE.INTRA.POLAR.0>
0

>  <SCORE.INTRA.REPUL>
0

>  <SCORE.INTRA.REPUL.0>
0

>  <SCORE.INTRA.SOLV>
-0.503073

>  <SCORE.INTRA.SOLV.lig_0>
-71.0481

>  <SCORE.INTRA.VDW>
-0.592422

>  <SCORE.INTRA.VDW.0>
0.968882

>  <SCORE.INTRA.norm>
0.363816

>  <SCORE.RESTR>
0

>  <SCORE.RESTR.CAVITY>
0

>  <SCORE.RESTR.norm>
0

>  <SCORE.SYSTEM>
0

>  <SCORE.SYSTEM.CONST>
0

>  <SCORE.SYSTEM.DIHEDRAL>
0

>  <SCORE.SYSTEM.SOLV>
0

>  <SCORE.SYSTEM.norm>
0

>  <SCORE.heavy>
12

>  <SCORE.norm>
-2.91289

>  <SYMMETRIC_BONDS>
11 12 2
5 6 2

>  <RMSD>
2.437

$$$$
1koc cryst
 OpenBabel11021811393D
libRbt.so/2013.1/901 2013/11/27
 12 11  0  0  0  0  0  0  0  0999 V2000
    6.3068    6.7348   32.1128 N   0  3  0  0  0  0  0  0  0  0  0  0
    6.1042    5.2550   32.1571 C   0  0  2  0  0  0  0  0  0  0  0  0
    7.4481    4.5551   31.8753 C   0  0  0  0  0  0  0  0  0  0  0  0
    8.1880    5.0514   31.0390 O   0  5  0  0  0  0  0  0  0  0  0  0
    5.0401    4.8555   31.0995 C   0  0  0  0  0  0  0  0  0  0  0  0
    4.5887    3.4030   31.2926 C   0  0  0  0  0  0  0  0  0  0  0  0
    3.5730    3.0354   30.2165 C   0  0  0  0  0  0  0  0  0  0  0  0
    3.0704    1.6493   30.4455 N   0  0  0  0  0  0  0  0  0  0  0  0
    2.1172    1.4273   31.3184 C   0  0  0  0  0  0  0  0  0  0  0  0
    1.1472    2.2940   31.4730 N   0  0  0  0  0  0  0  0  0  0  0  0
    2.1316    0.3338   32.0346 N   0  3  0  0  0  0  0  0  0  0  0  0
    7.7102    3.5317   32.4896 O   0  0  0  0  0  0  0  0  0  0  0  0
  2  1  1  6  0  0  0
  2  5  1  0  0  0  0
  2  3  1  0  0  0  0
  3  4  1  0  0  0  0
  3 12  2  0  0  0  0
  5  6  1  0  0  0  0
  6  7  1  0  0  0  0
  7  8  1  0  0  0  0
  8  9  1  0  0  0  0
  9 10  1  0  0  0  0
  9 11  2  0  0  0  0
M  CHG  3   1   1   4  -1  11   1
M  END
>  <CHROM.1>
-60.37929521,-168.53789606,-38.07163669,-178.53344821,-176.73603190,81.76548193
4.79267487,3.52519676,31.47535795,0.62606081,-0.13441969,-0.04996958

>  <Name>
1koc cryst

>  <RI>
0

>  <Rbt.Current_Directory>
/home/itssahil/PROJECTS/Mol_Feturizer/New_Systems/rnas/1koc

>  <Rbt.Executable>
rbdock ($Id: //depot/dev/client3/rdock/2013.1/src/exe/rbdock.cxx#4 $)

>  <Rbt.Library>
libRbt.so (2013.1, Build901 2013/11/27)

>  <Rbt.Parameter_File>
/export/apps/rDock/src/rDock_2013.1_src/data/scripts/dock_solv.prm

>  <Rbt.Receptor>
prm/pocket_docking_4.prm

>  <SCORE>
-27.0327

>  <SCORE.INTER>
-23.1603

>  <SCORE.INTER.CONST>
1

>  <SCORE.INTER.POLAR>
-4.90914

>  <SCORE.INTER.ROT>
5

>  <SCORE.INTER.SOLV>
19.6301

>  <SCORE.INTER.VDW>
-12.5531

>  <SCORE.INTER.norm>
-1.93003

>  <SCORE.INTRA>
-3.87242

>  <SCORE.INTRA.DIHEDRAL>
-2.11635

>  <SCORE.INTRA.DIHEDRAL.0>
6.04201

>  <SCORE.INTRA.POLAR>
0

>  <SCORE.INTRA.POLAR.0>
0

>  <SCORE.INTRA.REPUL>
0

>  <SCORE.INTRA.REPUL.0>
0

>  <SCORE.INTRA.SOLV>
-1.23115

>  <SCORE.INTRA.SOLV.lig_0>
-71.0481

>  <SCORE.INTRA.VDW>
-2.19867

>  <SCORE.INTRA.VDW.0>
0.968882

>  <SCORE.INTRA.norm>
-0.322702

>  <SCORE.RESTR>
0

>  <SCORE.RESTR.CAVITY>
0

>  <SCORE.RESTR.norm>
0

>  <SCORE.SYSTEM>
0

>  <SCORE.SYSTEM.CONST>
0

>  <SCORE.SYSTEM.DIHEDRAL>
0

>  <SCORE.SYSTEM.SOLV>
0

>  <SCORE.SYSTEM.norm>
0

>  <SCORE.heavy>
12

>  <SCORE.norm>
-2.25273

>  <SYMMETRIC_BONDS>
11 12 2
5 6 2

>  <RMSD>
2.445

$$$$
1koc cryst
 OpenBabel11021811393D
libRbt.so/2013.1/901 2013/11/27
 12 11  0  0  0  0  0  0  0  0999 V2000
    4.0517    6.7938   26.9547 N   0  3  0  0  0  0  0  0  0  0  0  0
    4.0304    6.7385   28.4478 C   0  0  2  0  0  0  0  0  0  0  0  0
    5.2930    7.4332   28.9944 C   0  0  0  0  0  0  0  0  0  0  0  0
    5.1452    8.3291   29.8120 O   0  5  0  0  0  0  0  0  0  0  0  0
    3.9753    5.2547   28.9011 C   0  0  0  0  0  0  0  0  0  0  0  0
    2.9672    5.0629   30.0402 C   0  0  0  0  0  0  0  0  0  0  0  0
    3.4558    3.9631   30.9764 C   0  0  0  0  0  0  0  0  0  0  0  0
    3.1438    2.6253   30.3940 N   0  0  0  0  0  0  0  0  0  0  0  0
    2.2666    1.8405   30.9723 C   0  0  0  0  0  0  0  0  0  0  0  0
    1.2025    2.3467   31.5443 N   0  0  0  0  0  0  0  0  0  0  0  0
    2.4516    0.5464   30.9740 N   0  3  0  0  0  0  0  0  0  0  0  0
    6.3828    7.0674   28.5800 O   0  0  0  0  0  0  0  0  0  0  0  0
  2  1  1  6  0  0  0
  2  5  1  0  0  0  0
  2  3  1  0  0  0  0
  3  4  1  0  0  0  0
  3 12  2  0  0  0  0
  5  6  1  0  0  0  0
  6  7  1  0  0  0  0
  7  8  1  0  0  0  0
  8  9  1  0  0  0  0
  9 10  1  0  0  0  0
  9 11  2  0  0  0  0
M  CHG  3   1   1   4  -1  11   1
M  END
>  <CHROM.1>
-56.28977593,-136.41109294,125.96103745,-146.93509053,-79.95309045,-112.94572899
3.69902182,4.83057353,29.68902142,0.37892633,-1.09458053,-1.57513486

>  <Name>
1koc cryst

>  <RI>
0

>  <Rbt.Current_Directory>
/home/itssahil/PROJECTS/Mol_Feturizer/New_Systems/rnas/1koc

>  <Rbt.Executable>
rbdock ($Id: //depot/dev/client3/rdock/2013.1/src/exe/rbdock.cxx#4 $)

>  <Rbt.Library>
libRbt.so (2013.1, Build901 2013/11/27)

>  <Rbt.Parameter_File>
/export/apps/rDock/src/rDock_2013.1_src/data/scripts/dock_solv.prm

>  <Rbt.Receptor>
prm/pocket_docking_4.prm

>  <SCORE>
-36.4408

>  <SCORE.INTER>
-36.7003

>  <SCORE.INTER.CONST>
1

>  <SCORE.INTER.POLAR>
-7.14903

>  <SCORE.INTER.ROT>
5

>  <SCORE.INTER.SOLV>
29.2799

>  <SCORE.INTER.VDW>
-17.33

>  <SCORE.INTER.norm>
-3.05835

>  <SCORE.INTRA>
0.259433

>  <SCORE.INTRA.DIHEDRAL>
6.60558

>  <SCORE.INTRA.DIHEDRAL.0>
6.04201

>  <SCORE.INTRA.POLAR>
0

>  <SCORE.INTRA.POLAR.0>
0

>  <SCORE.INTRA.REPUL>
0

>  <SCORE.INTRA.REPUL.0>
0

>  <SCORE.INTRA.SOLV>
-1.21486

>  <SCORE.INTRA.SOLV.lig_0>
-71.0481

>  <SCORE.INTRA.VDW>
-2.43592

>  <SCORE.INTRA.VDW.0>
0.968882

>  <SCORE.INTRA.norm>
0.0216194

>  <SCORE.RESTR>
0

>  <SCORE.RESTR.CAVITY>
0

>  <SCORE.RESTR.norm>
0

>  <SCORE.SYSTEM>
0

>  <SCORE.SYSTEM.CONST>
0

>  <SCORE.SYSTEM.DIHEDRAL>
0

>  <SCORE.SYSTEM.SOLV>
0

>  <SCORE.SYSTEM.norm>
0

>  <SCORE.heavy>
12

>  <SCORE.norm>
-3.03674

>  <SYMMETRIC_BONDS>
11 12 2
5 6 2

>  <RMSD>
2.446

$$$$
1koc cryst
 OpenBabel11021811393D
libRbt.so/2013.1/901 2013/11/27
 12 11  0  0  0  0  0  0  0  0999 V2000
    4.0502    6.7693   26.9910 N   0  3  0  0  0  0  0  0  0  0  0  0
    4.0863    6.6968   28.4831 C   0  0  2  0  0  0  0  0  0  0  0  0
    5.2989    7.4981   28.9960 C   0  0  0  0  0  0  0  0  0  0  0  0
    5.1195    8.2829   29.9152 O   0  5  0  0  0  0  0  0  0  0  0  0
    4.1822    5.2095   28.9178 C   0  0  0  0  0  0  0  0  0  0  0  0
    4.0649    5.0712   30.4403 C   0  0  0  0  0  0  0  0  0  0  0  0
    2.8165    4.2671   30.7865 C   0  0  0  0  0  0  0  0  0  0  0  0
    2.9634    2.8657   30.2958 N   0  0  0  0  0  0  0  0  0  0  0  0
    2.4462    1.8698   30.9744 C   0  0  0  0  0  0  0  0  0  0  0  0
    1.3022    2.0165   31.5955 N   0  0  0  0  0  0  0  0  0  0  0  0
    3.0719    0.7233   31.0276 N   0  3  0  0  0  0  0  0  0  0  0  0
    6.3811    7.3234   28.4560 O   0  0  0  0  0  0  0  0  0  0  0  0
  2  1  1  6  0  0  0
  2  5  1  0  0  0  0
  2  3  1  0  0  0  0
  3  4  1  0  0  0  0
  3 12  2  0  0  0  0
  5  6  1  0  0  0  0
  6  7  1  0  0  0  0
  7  8  1  0  0  0  0
  8  9  1  0  0  0  0
  9 10  1  0  0  0  0
  9 11  2  0  0  0  0
M  CHG  3   1   1   4  -1  11   1
M  END
>  <CHROM.1>
69.11212247,-173.67682115,132.45108228,116.88180526,65.77527561,145.51461582
3.81845063,4.87847237,29.71322490,0.31841695,-1.12319382,-1.64889563

>  <Name>
1koc cryst

>  <RI>
0

>  <Rbt.Current_Directory>
/home/itssahil/PROJECTS/Mol_Feturizer/New_Systems/rnas/1koc

>  <Rbt.Executable>
rbdock ($Id: //depot/dev/client3/rdock/2013.1/src/exe/rbdock.cxx#4 $)

>  <Rbt.Library>
libRbt.so (2013.1, Build901 2013/11/27)

>  <Rbt.Parameter_File>
/export/apps/rDock/src/rDock_2013.1_src/data/scripts/dock_solv.prm

>  <Rbt.Receptor>
prm/pocket_docking_6.prm

>  <SCORE>
-35.1728

>  <SCORE.INTER>
-34.854

>  <SCORE.INTER.CONST>
1

>  <SCORE.INTER.POLAR>
-6.77811

>  <SCORE.INTER.ROT>
5

>  <SCORE.INTER.SOLV>
28.7506

>  <SCORE.INTER.VDW>
-17.1591

>  <SCORE.INTER.norm>
-2.9045

>  <SCORE.INTRA>
-0.318837

>  <SCORE.INTRA.DIHEDRAL>
3.95924

>  <SCORE.INTRA.DIHEDRAL.0>
6.04201

>  <SCORE.INTRA.POLAR>
0

>  <SCORE.INTRA.POLAR.0>
0

>  <SCORE.INTRA.REPUL>
0

>  <SCORE.INTRA.REPUL.0>
0

>  <SCORE.INTRA.SOLV>
-1.08634

>  <SCORE.INTRA.SOLV.lig_0>
-71.0481

>  <SCORE.INTRA.VDW>
-1.75529

>  <SCORE.INTRA.VDW.0>
0.968882

>  <SCORE.INTRA.norm>
-0.0265698

>  <SCORE.RESTR>
0

>  <SCORE.RESTR.CAVITY>
0

>  <SCORE.RESTR.norm>
0

>  <SCORE.SYSTEM>
0

>  <SCORE.SYSTEM.CONST>
0

>  <SCORE.SYSTEM.DIHEDRAL>
0

>  <SCORE.SYSTEM.SOLV>
0

>  <SCORE.SYSTEM.norm>
0

>  <SCORE.heavy>
12

>  <SCORE.norm>
-2.93107

>  <SYMMETRIC_BONDS>
11 12 2
5 6 2

>  <RMSD>
2.447

$$$$
1koc cryst
 OpenBabel11021811393D
libRbt.so/2013.1/901 2013/11/27
 12 11  0  0  0  0  0  0  0  0999 V2000
    4.3606    7.3924   27.2582 N   0  3  0  0  0  0  0  0  0  0  0  0
    4.3058    7.0339   28.7078 C   0  0  2  0  0  0  0  0  0  0  0  0
    5.6693    7.3471   29.3546 C   0  0  0  0  0  0  0  0  0  0  0  0
    5.7035    7.5188   30.5639 O   0  5  0  0  0  0  0  0  0  0  0  0
    3.9612    5.5265   28.8462 C   0  0  0  0  0  0  0  0  0  0  0  0
    3.1927    5.2534   30.1445 C   0  0  0  0  0  0  0  0  0  0  0  0
    3.0117    3.7502   30.3256 C   0  0  0  0  0  0  0  0  0  0  0  0
    1.7874    3.4804   31.1347 N   0  0  0  0  0  0  0  0  0  0  0  0
    1.1182    2.3648   30.9695 C   0  0  0  0  0  0  0  0  0  0  0  0
    1.7503    1.2462   30.7145 N   0  0  0  0  0  0  0  0  0  0  0  0
   -0.1856    2.3671   31.0645 N   0  3  0  0  0  0  0  0  0  0  0  0
    6.6519    7.4213   28.6319 O   0  0  0  0  0  0  0  0  0  0  0  0
  2  1  1  6  0  0  0
  2  5  1  0  0  0  0
  2  3  1  0  0  0  0
  3  4  1  0  0  0  0
  3 12  2  0  0  0  0
  5  6  1  0  0  0  0
  6  7  1  0  0  0  0
  7  8  1  0  0  0  0
  8  9  1  0  0  0  0
  9 10  1  0  0  0  0
  9 11  2  0  0  0  0
M  CHG  3   1   1   4  -1  11   1
M  END
>  <CHROM.1>
68.85831720,-150.16187439,157.68699303,-173.55850768,-152.88860720,151.36860914
3.44289176,5.06338806,29.78891437,0.66684990,-0.65370190,-1.05570997

>  <Name>
1koc cryst

>  <RI>
0

>  <Rbt.Current_Directory>
/home/itssahil/PROJECTS/Mol_Feturizer/New_Systems/rnas/1koc

>  <Rbt.Executable>
rbdock ($Id: //depot/dev/client3/rdock/2013.1/src/exe/rbdock.cxx#4 $)

>  <Rbt.Library>
libRbt.so (2013.1, Build901 2013/11/27)

>  <Rbt.Parameter_File>
/export/apps/rDock/src/rDock_2013.1_src/data/scripts/dock_solv.prm

>  <Rbt.Receptor>
prm/pocket_docking_5.prm

>  <SCORE>
-35.3137

>  <SCORE.INTER>
-33.9342

>  <SCORE.INTER.CONST>
1

>  <SCORE.INTER.POLAR>
-6.24562

>  <SCORE.INTER.ROT>
5

>  <SCORE.INTER.SOLV>
23.1029

>  <SCORE.INTER.VDW>
-16.4384

>  <SCORE.INTER.norm>
-2.82785

>  <SCORE.INTRA>
-1.37947

>  <SCORE.INTRA.DIHEDRAL>
2.66883

>  <SCORE.INTRA.DIHEDRAL.0>
6.04201

>  <SCORE.INTRA.POLAR>
0

>  <SCORE.INTRA.POLAR.0>
0

>  <SCORE.INTRA.REPUL>
0

>  <SCORE.INTRA.REPUL.0>
0

>  <SCORE.INTRA.SOLV>
-1.4616

>  <SCORE.INTRA.SOLV.lig_0>
-71.0481

>  <SCORE.INTRA.VDW>
-1.98309

>  <SCORE.INTRA.VDW.0>
0.968882

>  <SCORE.INTRA.norm>
-0.114956

>  <SCORE.RESTR>
0

>  <SCORE.RESTR.CAVITY>
0

>  <SCORE.RESTR.norm>
0

>  <SCORE.SYSTEM>
0

>  <SCORE.SYSTEM.CONST>
0

>  <SCORE.SYSTEM.DIHEDRAL>
0

>  <SCORE.SYSTEM.SOLV>
0

>  <SCORE.SYSTEM.norm>
0

>  <SCORE.heavy>
12

>  <SCORE.norm>
-2.94281

>  <SYMMETRIC_BONDS>
11 12 2
5 6 2

>  <RMSD>
2.449

$$$$
1koc cryst
 OpenBabel11021811393D
libRbt.so/2013.1/901 2013/11/27
 12 11  0  0  0  0  0  0  0  0999 V2000
    3.3386    6.8469   33.9594 N   0  3  0  0  0  0  0  0  0  0  0  0
    3.4742    6.8873   32.4719 C   0  0  2  0  0  0  0  0  0  0  0  0
    3.1789    8.3175   31.9791 C   0  0  0  0  0  0  0  0  0  0  0  0
    2.1176    8.8279   32.3052 O   0  5  0  0  0  0  0  0  0  0  0  0
    2.4840    5.8702   31.8432 C   0  0  0  0  0  0  0  0  0  0  0  0
    3.0883    5.2093   30.5986 C   0  0  0  0  0  0  0  0  0  0  0  0
    2.1081    4.1861   30.0355 C   0  0  0  0  0  0  0  0  0  0  0  0
    1.9357    3.0629   31.0025 N   0  0  0  0  0  0  0  0  0  0  0  0
    2.7894    2.0675   31.0189 C   0  0  0  0  0  0  0  0  0  0  0  0
    4.0619    2.2841   30.7956 N   0  0  0  0  0  0  0  0  0  0  0  0
    2.3702    0.8539   31.2641 N   0  3  0  0  0  0  0  0  0  0  0  0
    4.0103    8.8733   31.2769 O   0  0  0  0  0  0  0  0  0  0  0  0
  2  1  1  1  0  0  0
  2  5  1  0  0  0  0
  2  3  1  0  0  0  0
  3  4  1  0  0  0  0
  3 12  2  0  0  0  0
  5  6  1  0  0  0  0
  6  7  1  0  0  0  0
  7  8  1  0  0  0  0
  8  9  1  0  0  0  0
  9 10  1  0  0  0  0
  9 11  2  0  0  0  0
M  CHG  3   1   1   4  -1  11   1
M  END
>  <CHROM.1>
60.92859243,-144.12379517,-54.41736559,178.17468479,-65.93014446,-83.98048247
2.91922090,5.27260287,31.58321988,-0.69638257,1.48430283,2.48263229

>  <Name>
1koc cryst

>  <RI>
0

>  <Rbt.Current_Directory>
/home/itssahil/PROJECTS/Mol_Feturizer/New_Systems/rnas/1koc

>  <Rbt.Executable>
rbdock ($Id: //depot/dev/client3/rdock/2013.1/src/exe/rbdock.cxx#4 $)

>  <Rbt.Library>
libRbt.so (2013.1, Build901 2013/11/27)

>  <Rbt.Parameter_File>
/export/apps/rDock/src/rDock_2013.1_src/data/scripts/dock_solv.prm

>  <Rbt.Receptor>
prm/pocket_docking_4.prm

>  <SCORE>
-31.6724

>  <SCORE.INTER>
-30.5522

>  <SCORE.INTER.CONST>
1

>  <SCORE.INTER.POLAR>
-4.97931

>  <SCORE.INTER.ROT>
5

>  <SCORE.INTER.SOLV>
26.7373

>  <SCORE.INTER.VDW>
-19.6162

>  <SCORE.INTER.norm>
-2.54601

>  <SCORE.INTRA>
-1.12025

>  <SCORE.INTRA.DIHEDRAL>
0.897485

>  <SCORE.INTRA.DIHEDRAL.0>
6.04201

>  <SCORE.INTRA.POLAR>
0

>  <SCORE.INTRA.POLAR.0>
0

>  <SCORE.INTRA.REPUL>
0

>  <SCORE.INTRA.REPUL.0>
0

>  <SCORE.INTRA.SOLV>
-0.684574

>  <SCORE.INTRA.SOLV.lig_0>
-71.0481

>  <SCORE.INTRA.VDW>
-1.2267

>  <SCORE.INTRA.VDW.0>
0.968882

>  <SCORE.INTRA.norm>
-0.0933541

>  <SCORE.RESTR>
0

>  <SCORE.RESTR.CAVITY>
0

>  <SCORE.RESTR.norm>
0

>  <SCORE.SYSTEM>
0

>  <SCORE.SYSTEM.CONST>
0

>  <SCORE.SYSTEM.DIHEDRAL>
0

>  <SCORE.SYSTEM.SOLV>
0

>  <SCORE.SYSTEM.norm>
0

>  <SCORE.heavy>
12

>  <SCORE.norm>
-2.63937

>  <SYMMETRIC_BONDS>
11 12 2
5 6 2

>  <RMSD>
2.450

$$$$
1koc cryst
 OpenBabel11021811393D
libRbt.so/2013.1/901 2013/11/27
 12 11  0  0  0  0  0  0  0  0999 V2000
    3.9733    6.0094   27.9169 N   0  3  0  0  0  0  0  0  0  0  0  0
    4.7317    6.0570   29.2035 C   0  0  2  0  0  0  0  0  0  0  0  0
    5.8783    7.0786   29.0733 C   0  0  0  0  0  0  0  0  0  0  0  0
    6.6889    7.1490   29.9849 O   0  5  0  0  0  0  0  0  0  0  0  0
    5.2853    4.6416   29.5201 C   0  0  0  0  0  0  0  0  0  0  0  0
    4.4588    3.9584   30.6160 C   0  0  0  0  0  0  0  0  0  0  0  0
    3.0788    3.6061   30.0715 C   0  0  0  0  0  0  0  0  0  0  0  0
    2.8059    2.1543   30.2815 N   0  0  0  0  0  0  0  0  0  0  0  0
    1.9432    1.7683   31.1906 C   0  0  0  0  0  0  0  0  0  0  0  0
    0.8613    2.4715   31.4162 N   0  0  0  0  0  0  0  0  0  0  0  0
    2.1604    0.6740   31.8719 N   0  3  0  0  0  0  0  0  0  0  0  0
    5.9210    7.7797   28.0734 O   0  0  0  0  0  0  0  0  0  0  0  0
  2  1  1  6  0  0  0
  2  5  1  0  0  0  0
  2  3  1  0  0  0  0
  3  4  1  0  0  0  0
  3 12  2  0  0  0  0
  5  6  1  0  0  0  0
  6  7  1  0  0  0  0
  7  8  1  0  0  0  0
  8  9  1  0  0  0  0
  9 10  1  0  0  0  0
  9 11  2  0  0  0  0
M  CHG  3   1   1   4  -1  11   1
M  END
>  <CHROM.1>
174.55763995,-103.76129645,-172.58255721,69.64453110,125.83415312,107.51604201
3.96468565,4.44752630,29.91642440,0.92808329,-0.41703659,-0.72986682

>  <Name>
1koc cryst

>  <RI>
0

>  <Rbt.Current_Directory>
/home/itssahil/PROJECTS/Mol_Feturizer/New_Systems/rnas/1koc

>  <Rbt.Executable>
rbdock ($Id: //depot/dev/client3/rdock/2013.1/src/exe/rbdock.cxx#4 $)

>  <Rbt.Library>
libRbt.so (2013.1, Build901 2013/11/27)

>  <Rbt.Parameter_File>
/export/apps/rDock/src/rDock_2013.1_src/data/scripts/dock_solv.prm

>  <Rbt.Receptor>
prm/pocket_docking_4.prm

>  <SCORE>
-28.7783

>  <SCORE.INTER>
-30.7318

>  <SCORE.INTER.CONST>
1

>  <SCORE.INTER.POLAR>
-6.11582

>  <SCORE.INTER.ROT>
5

>  <SCORE.INTER.SOLV>
26.2022

>  <SCORE.INTER.VDW>
-15.7692

>  <SCORE.INTER.norm>
-2.56099

>  <SCORE.INTRA>
1.95354

>  <SCORE.INTRA.DIHEDRAL>
7.49669

>  <SCORE.INTRA.DIHEDRAL.0>
6.04201

>  <SCORE.INTRA.POLAR>
0

>  <SCORE.INTRA.POLAR.0>
0

>  <SCORE.INTRA.REPUL>
0

>  <SCORE.INTRA.REPUL.0>
0

>  <SCORE.INTRA.SOLV>
-0.344162

>  <SCORE.INTRA.SOLV.lig_0>
-71.0481

>  <SCORE.INTRA.VDW>
-1.62273

>  <SCORE.INTRA.VDW.0>
0.968882

>  <SCORE.INTRA.norm>
0.162795

>  <SCORE.RESTR>
0

>  <SCORE.RESTR.CAVITY>
0

>  <SCORE.RESTR.norm>
0

>  <SCORE.SYSTEM>
0

>  <SCORE.SYSTEM.CONST>
0

>  <SCORE.SYSTEM.DIHEDRAL>
0

>  <SCORE.SYSTEM.SOLV>
0

>  <SCORE.SYSTEM.norm>
0

>  <SCORE.heavy>
12

>  <SCORE.norm>
-2.39819

>  <SYMMETRIC_BONDS>
11 12 2
5 6 2

>  <RMSD>
2.453

$$$$
1koc cryst
 OpenBabel11021811393D
libRbt.so/2013.1/901 2013/11/27
 12 11  0  0  0  0  0  0  0  0999 V2000
    7.2329    4.3502   32.5676 N   0  3  0  0  0  0  0  0  0  0  0  0
    6.2097    5.4340   32.4611 C   0  0  2  0  0  0  0  0  0  0  0  0
    6.2808    6.3177   33.7218 C   0  0  0  0  0  0  0  0  0  0  0  0
    6.7092    7.4556   33.6001 O   0  5  0  0  0  0  0  0  0  0  0  0
    4.8034    4.7930   32.3135 C   0  0  0  0  0  0  0  0  0  0  0  0
    4.6382    4.1362   30.9380 C   0  0  0  0  0  0  0  0  0  0  0  0
    3.1582    3.8976   30.6592 C   0  0  0  0  0  0  0  0  0  0  0  0
    2.9298    2.4613   30.3258 N   0  0  0  0  0  0  0  0  0  0  0  0
    2.0978    1.7411   31.0391 C   0  0  0  0  0  0  0  0  0  0  0  0
    1.0022    2.2766   31.5175 N   0  0  0  0  0  0  0  0  0  0  0  0
    2.3597    0.4814   31.2701 N   0  3  0  0  0  0  0  0  0  0  0  0
    5.9179    5.8409   34.7867 O   0  0  0  0  0  0  0  0  0  0  0  0
  2  1  1  1  0  0  0
  2  5  1  0  0  0  0
  2  3  1  0  0  0  0
  3  4  1  0  0  0  0
  3 12  2  0  0  0  0
  5  6  1  0  0  0  0
  6  7  1  0  0  0  0
  7  8  1  0  0  0  0
  8  9  1  0  0  0  0
  9 10  1  0  0  0  0
  9 11  2  0  0  0  0
M  CHG  3   1   1   4  -1  11   1
M  END
>  <CHROM.1>
54.47039720,-70.73737831,110.29491664,-162.98055495,-125.56436489,122.03621347
4.46207049,4.07347046,32.11975439,-0.82895970,-0.22882032,-2.40604424

>  <Name>
1koc cryst

>  <RI>
0

>  <Rbt.Current_Directory>
/home/itssahil/PROJECTS/Mol_Feturizer/New_Systems/rnas/1koc

>  <Rbt.Executable>
rbdock ($Id: //depot/dev/client3/rdock/2013.1/src/exe/rbdock.cxx#4 $)

>  <Rbt.Library>
libRbt.so (2013.1, Build901 2013/11/27)

>  <Rbt.Parameter_File>
/export/apps/rDock/src/rDock_2013.1_src/data/scripts/dock_solv.prm

>  <Rbt.Receptor>
prm/pocket_docking_4.prm

>  <SCORE>
-26.5276

>  <SCORE.INTER>
-26.0992

>  <SCORE.INTER.CONST>
1

>  <SCORE.INTER.POLAR>
-5.35452

>  <SCORE.INTER.ROT>
5

>  <SCORE.INTER.SOLV>
21.7793

>  <SCORE.INTER.VDW>
-13.7442

>  <SCORE.INTER.norm>
-2.17493

>  <SCORE.INTRA>
-0.428412

>  <SCORE.INTRA.DIHEDRAL>
4.40628

>  <SCORE.INTRA.DIHEDRAL.0>
6.04201

>  <SCORE.INTRA.POLAR>
0

>  <SCORE.INTRA.POLAR.0>
0

>  <SCORE.INTRA.REPUL>
0

>  <SCORE.INTRA.REPUL.0>
0

>  <SCORE.INTRA.SOLV>
-1.33301

>  <SCORE.INTRA.SOLV.lig_0>
-71.0481

>  <SCORE.INTRA.VDW>
-1.96505

>  <SCORE.INTRA.VDW.0>
0.968882

>  <SCORE.INTRA.norm>
-0.035701

>  <SCORE.RESTR>
0

>  <SCORE.RESTR.CAVITY>
0

>  <SCORE.RESTR.norm>
0

>  <SCORE.SYSTEM>
0

>  <SCORE.SYSTEM.CONST>
0

>  <SCORE.SYSTEM.DIHEDRAL>
0

>  <SCORE.SYSTEM.SOLV>
0

>  <SCORE.SYSTEM.norm>
0

>  <SCORE.heavy>
12

>  <SCORE.norm>
-2.21064

>  <SYMMETRIC_BONDS>
11 12 2
5 6 2

>  <RMSD>
2.454

$$$$
1koc cryst
 OpenBabel11021811393D
libRbt.so/2013.1/901 2013/11/27
 12 11  0  0  0  0  0  0  0  0999 V2000
    4.0277    6.7001   27.1686 N   0  3  0  0  0  0  0  0  0  0  0  0
    4.0086    6.5442   28.6546 C   0  0  2  0  0  0  0  0  0  0  0  0
    5.4058    6.8783   29.2128 C   0  0  0  0  0  0  0  0  0  0  0  0
    5.6133    6.6707   30.3990 O   0  5  0  0  0  0  0  0  0  0  0  0
    3.6058    5.0871   29.0079 C   0  0  0  0  0  0  0  0  0  0  0  0
    2.6898    5.0507   30.2369 C   0  0  0  0  0  0  0  0  0  0  0  0
    1.6429    3.9558   30.0627 C   0  0  0  0  0  0  0  0  0  0  0  0
    1.7071    3.0052   31.2110 N   0  0  0  0  0  0  0  0  0  0  0  0
    2.4623    1.9353   31.1425 C   0  0  0  0  0  0  0  0  0  0  0  0
    3.6159    1.9789   30.5233 N   0  0  0  0  0  0  0  0  0  0  0  0
    2.0652    0.8209   31.6986 N   0  3  0  0  0  0  0  0  0  0  0  0
    6.2394    7.3452   28.4510 O   0  0  0  0  0  0  0  0  0  0  0  0
  2  1  1  6  0  0  0
  2  5  1  0  0  0  0
  2  3  1  0  0  0  0
  3  4  1  0  0  0  0
  3 12  2  0  0  0  0
  5  6  1  0  0  0  0
  6  7  1  0  0  0  0
  7  8  1  0  0  0  0
  8  9  1  0  0  0  0
  9 10  1  0  0  0  0
  9 11  2  0  0  0  0
M  CHG  3   1   1   4  -1  11   1
M  END
>  <CHROM.1>
50.15342789,-141.44555777,-172.58196187,143.37182382,123.75488946,-91.76028401
3.61282344,4.66028725,29.79431431,1.05025059,-0.38315610,-0.68892115

>  <Name>
1koc cryst

>  <RI>
0

>  <Rbt.Current_Directory>
/home/itssahil/PROJECTS/Mol_Feturizer/New_Systems/rnas/1koc

>  <Rbt.Executable>
rbdock ($Id: //depot/dev/client3/rdock/2013.1/src/exe/rbdock.cxx#4 $)

>  <Rbt.Library>
libRbt.so (2013.1, Build901 2013/11/27)

>  <Rbt.Parameter_File>
/export/apps/rDock/src/rDock_2013.1_src/data/scripts/dock_solv.prm

>  <Rbt.Receptor>
prm/pocket_docking_7.prm

>  <SCORE>
-37.5206

>  <SCORE.INTER>
-41.3413

>  <SCORE.INTER.CONST>
1

>  <SCORE.INTER.POLAR>
-7.88459

>  <SCORE.INTER.ROT>
5

>  <SCORE.INTER.SOLV>
26.2712

>  <SCORE.INTER.VDW>
-16.9693

>  <SCORE.INTER.norm>
-3.44511

>  <SCORE.INTRA>
3.82078

>  <SCORE.INTRA.DIHEDRAL>
10.8836

>  <SCORE.INTRA.DIHEDRAL.0>
6.04201

>  <SCORE.INTRA.POLAR>
0

>  <SCORE.INTRA.POLAR.0>
0

>  <SCORE.INTRA.REPUL>
0

>  <SCORE.INTRA.REPUL.0>
0

>  <SCORE.INTRA.SOLV>
-0.481647

>  <SCORE.INTRA.SOLV.lig_0>
-71.0481

>  <SCORE.INTRA.VDW>
-1.3802

>  <SCORE.INTRA.VDW.0>
0.968882

>  <SCORE.INTRA.norm>
0.318399

>  <SCORE.RESTR>
0

>  <SCORE.RESTR.CAVITY>
0

>  <SCORE.RESTR.norm>
0

>  <SCORE.SYSTEM>
0

>  <SCORE.SYSTEM.CONST>
0

>  <SCORE.SYSTEM.DIHEDRAL>
0

>  <SCORE.SYSTEM.SOLV>
0

>  <SCORE.SYSTEM.norm>
0

>  <SCORE.heavy>
12

>  <SCORE.norm>
-3.12671

>  <SYMMETRIC_BONDS>
11 12 2
5 6 2

>  <RMSD>
2.465

$$$$
1koc cryst
 OpenBabel11021811393D
libRbt.so/2013.1/901 2013/11/27
 12 11  0  0  0  0  0  0  0  0999 V2000
    4.4527    6.7087   27.6532 N   0  3  0  0  0  0  0  0  0  0  0  0
    5.0435    6.7467   29.0252 C   0  0  2  0  0  0  0  0  0  0  0  0
    6.4521    6.1227   28.9831 C   0  0  0  0  0  0  0  0  0  0  0  0
    7.2330    6.4105   29.8779 O   0  5  0  0  0  0  0  0  0  0  0  0
    4.1208    5.9643   29.9981 C   0  0  0  0  0  0  0  0  0  0  0  0
    4.2850    4.4507   29.8167 C   0  0  0  0  0  0  0  0  0  0  0  0
    4.0014    3.7432   31.1373 C   0  0  0  0  0  0  0  0  0  0  0  0
    3.7032    2.3027   30.8874 N   0  0  0  0  0  0  0  0  0  0  0  0
    2.4722    1.8583   30.9697 C   0  0  0  0  0  0  0  0  0  0  0  0
    1.4717    2.6052   30.5731 N   0  0  0  0  0  0  0  0  0  0  0  0
    2.2417    0.6625   31.4449 N   0  3  0  0  0  0  0  0  0  0  0  0
    6.7306    5.3788   28.0545 O   0  0  0  0  0  0  0  0  0  0  0  0
  2  1  1  6  0  0  0
  2  5  1  0  0  0  0
  2  3  1  0  0  0  0
  3  4  1  0  0  0  0
  3 12  2  0  0  0  0
  5  6  1  0  0  0  0
  6  7  1  0  0  0  0
  7  8  1  0  0  0  0
  8  9  1  0  0  0  0
  9 10  1  0  0  0  0
  9 11  2  0  0  0  0
M  CHG  3   1   1   4  -1  11   1
M  END
>  <CHROM.1>
35.72754046,76.26965491,158.72188667,150.68859444,160.94379608,-105.32770901
4.34107102,4.40097524,29.83790384,0.95055230,-0.15218255,-0.57870954

>  <Name>
1koc cryst

>  <RI>
0

>  <Rbt.Current_Directory>
/home/itssahil/PROJECTS/Mol_Feturizer/New_Systems/rnas/1koc

>  <Rbt.Executable>
rbdock ($Id: //depot/dev/client3/rdock/2013.1/src/exe/rbdock.cxx#4 $)

>  <Rbt.Library>
libRbt.so (2013.1, Build901 2013/11/27)

>  <Rbt.Parameter_File>
/export/apps/rDock/src/rDock_2013.1_src/data/scripts/dock_solv.prm

>  <Rbt.Receptor>
prm/pocket_docking_5.prm

>  <SCORE>
-30.1555

>  <SCORE.INTER>
-31.0393

>  <SCORE.INTER.CONST>
1

>  <SCORE.INTER.POLAR>
-5.92945

>  <SCORE.INTER.ROT>
5

>  <SCORE.INTER.SOLV>
22.3589

>  <SCORE.INTER.VDW>
-15.3143

>  <SCORE.INTER.norm>
-2.58661

>  <SCORE.INTRA>
0.883825

>  <SCORE.INTRA.DIHEDRAL>
3.76927

>  <SCORE.INTRA.DIHEDRAL.0>
6.04201

>  <SCORE.INTRA.POLAR>
0

>  <SCORE.INTRA.POLAR.0>
0

>  <SCORE.INTRA.REPUL>
0

>  <SCORE.INTRA.REPUL.0>
0

>  <SCORE.INTRA.SOLV>
0.569666

>  <SCORE.INTRA.SOLV.lig_0>
-71.0481

>  <SCORE.INTRA.VDW>
-1.28564

>  <SCORE.INTRA.VDW.0>
0.968882

>  <SCORE.INTRA.norm>
0.0736521

>  <SCORE.RESTR>
0

>  <SCORE.RESTR.CAVITY>
0

>  <SCORE.RESTR.norm>
0

>  <SCORE.SYSTEM>
0

>  <SCORE.SYSTEM.CONST>
0

>  <SCORE.SYSTEM.DIHEDRAL>
0

>  <SCORE.SYSTEM.SOLV>
0

>  <SCORE.SYSTEM.norm>
0

>  <SCORE.heavy>
12

>  <SCORE.norm>
-2.51296

>  <SYMMETRIC_BONDS>
11 12 2
5 6 2

>  <RMSD>
2.470

$$$$
1koc cryst
 OpenBabel11021811393D
libRbt.so/2013.1/901 2013/11/27
 12 11  0  0  0  0  0  0  0  0999 V2000
    4.2686    7.0042   27.5543 N   0  3  0  0  0  0  0  0  0  0  0  0
    4.8774    6.9588   28.9182 C   0  0  2  0  0  0  0  0  0  0  0  0
    6.2381    6.2393   28.8373 C   0  0  0  0  0  0  0  0  0  0  0  0
    6.6119    5.8423   27.7438 O   0  5  0  0  0  0  0  0  0  0  0  0
    3.9140    6.2134   29.8807 C   0  0  0  0  0  0  0  0  0  0  0  0
    3.8134    4.7270   29.5185 C   0  0  0  0  0  0  0  0  0  0  0  0
    3.2406    3.9502   30.6990 C   0  0  0  0  0  0  0  0  0  0  0  0
    3.0103    2.5289   30.3075 N   0  0  0  0  0  0  0  0  0  0  0  0
    2.1553    1.7900   30.9727 C   0  0  0  0  0  0  0  0  0  0  0  0
    1.0518    2.3166   31.4427 N   0  0  0  0  0  0  0  0  0  0  0  0
    2.4021    0.5206   31.1639 N   0  3  0  0  0  0  0  0  0  0  0  0
    6.8770    6.0873   29.8678 O   0  0  0  0  0  0  0  0  0  0  0  0
  2  1  1  6  0  0  0
  2  5  1  0  0  0  0
  2  3  1  0  0  0  0
  3  4  1  0  0  0  0
  3 12  2  0  0  0  0
  5  6  1  0  0  0  0
  6  7  1  0  0  0  0
  7  8  1  0  0  0  0
  8  9  1  0  0  0  0
  9 10  1  0  0  0  0
  9 11  2  0  0  0  0
M  CHG  3   1   1   4  -1  11   1
M  END
>  <CHROM.1>
-91.64146260,67.96482147,0.56960918,162.21899815,174.28322305,-158.05504363
4.03298259,4.50058172,29.71661819,0.97126893,0.10865322,-0.41824815

>  <Name>
1koc cryst

>  <RI>
0

>  <Rbt.Current_Directory>
/home/itssahil/PROJECTS/Mol_Feturizer/New_Systems/rnas/1koc

>  <Rbt.Executable>
rbdock ($Id: //depot/dev/client3/rdock/2013.1/src/exe/rbdock.cxx#4 $)

>  <Rbt.Library>
libRbt.so (2013.1, Build901 2013/11/27)

>  <Rbt.Parameter_File>
/export/apps/rDock/src/rDock_2013.1_src/data/scripts/dock_solv.prm

>  <Rbt.Receptor>
prm/pocket_docking_4.prm

>  <SCORE>
-35.6964

>  <SCORE.INTER>
-35.3631

>  <SCORE.INTER.CONST>
1

>  <SCORE.INTER.POLAR>
-6.51923

>  <SCORE.INTER.ROT>
5

>  <SCORE.INTER.SOLV>
26.2543

>  <SCORE.INTER.VDW>
-17.5294

>  <SCORE.INTER.norm>
-2.94693

>  <SCORE.INTRA>
-0.333275

>  <SCORE.INTRA.DIHEDRAL>
0.920274

>  <SCORE.INTRA.DIHEDRAL.0>
6.04201

>  <SCORE.INTRA.POLAR>
0

>  <SCORE.INTRA.POLAR.0>
0

>  <SCORE.INTRA.REPUL>
0

>  <SCORE.INTRA.REPUL.0>
0

>  <SCORE.INTRA.SOLV>
0.119536

>  <SCORE.INTRA.SOLV.lig_0>
-71.0481

>  <SCORE.INTRA.VDW>
-0.85318

>  <SCORE.INTRA.VDW.0>
0.968882

>  <SCORE.INTRA.norm>
-0.0277729

>  <SCORE.RESTR>
0

>  <SCORE.RESTR.CAVITY>
0

>  <SCORE.RESTR.norm>
0

>  <SCORE.SYSTEM>
0

>  <SCORE.SYSTEM.CONST>
0

>  <SCORE.SYSTEM.DIHEDRAL>
0

>  <SCORE.SYSTEM.SOLV>
0

>  <SCORE.SYSTEM.norm>
0

>  <SCORE.heavy>
12

>  <SCORE.norm>
-2.9747

>  <SYMMETRIC_BONDS>
11 12 2
5 6 2

>  <RMSD>
2.471

$$$$
1koc cryst
 OpenBabel11021811393D
libRbt.so/2013.1/901 2013/11/27
 12 11  0  0  0  0  0  0  0  0999 V2000
    4.0409    6.6993   27.1439 N   0  3  0  0  0  0  0  0  0  0  0  0
    4.0025    6.5138   28.6261 C   0  0  2  0  0  0  0  0  0  0  0  0
    5.4101    6.7667   29.2008 C   0  0  0  0  0  0  0  0  0  0  0  0
    5.5045    7.4673   30.1974 O   0  5  0  0  0  0  0  0  0  0  0  0
    3.5254    5.0715   28.9460 C   0  0  0  0  0  0  0  0  0  0  0  0
    2.6575    5.0451   30.2097 C   0  0  0  0  0  0  0  0  0  0  0  0
    1.5968    3.9575   30.0796 C   0  0  0  0  0  0  0  0  0  0  0  0
    1.7045    3.0044   31.2224 N   0  0  0  0  0  0  0  0  0  0  0  0
    2.4604    1.9373   31.1245 C   0  0  0  0  0  0  0  0  0  0  0  0
    3.5914    1.9863   30.4653 N   0  0  0  0  0  0  0  0  0  0  0  0
    2.0870    0.8201   31.6914 N   0  3  0  0  0  0  0  0  0  0  0  0
    6.3687    6.2671   28.6308 O   0  0  0  0  0  0  0  0  0  0  0  0
  2  1  1  6  0  0  0
  2  5  1  0  0  0  0
  2  3  1  0  0  0  0
  3  4  1  0  0  0  0
  3 12  2  0  0  0  0
  5  6  1  0  0  0  0
  6  7  1  0  0  0  0
  7  8  1  0  0  0  0
  8  9  1  0  0  0  0
  9 10  1  0  0  0  0
  9 11  2  0  0  0  0
M  CHG  3   1   1   4  -1  11   1
M  END
>  <CHROM.1>
-72.56602869,-144.35302126,134.28972768,147.11738450,123.37245929,-91.00877134
3.60274407,4.62382919,29.77498543,1.07008952,-0.22593786,-0.59607222

>  <Name>
1koc cryst

>  <RI>
0

>  <Rbt.Current_Directory>
/home/itssahil/PROJECTS/Mol_Feturizer/New_Systems/rnas/1koc

>  <Rbt.Executable>
rbdock ($Id: //depot/dev/client3/rdock/2013.1/src/exe/rbdock.cxx#4 $)

>  <Rbt.Library>
libRbt.so (2013.1, Build901 2013/11/27)

>  <Rbt.Parameter_File>
/export/apps/rDock/src/rDock_2013.1_src/data/scripts/dock_solv.prm

>  <Rbt.Receptor>
prm/pocket_docking_5.prm

>  <SCORE>
-37.863

>  <SCORE.INTER>
-40.9577

>  <SCORE.INTER.CONST>
1

>  <SCORE.INTER.POLAR>
-7.85356

>  <SCORE.INTER.ROT>
5

>  <SCORE.INTER.SOLV>
26.9798

>  <SCORE.INTER.VDW>
-17.0532

>  <SCORE.INTER.norm>
-3.41314

>  <SCORE.INTRA>
3.09475

>  <SCORE.INTRA.DIHEDRAL>
10.1007

>  <SCORE.INTRA.DIHEDRAL.0>
6.04201

>  <SCORE.INTRA.POLAR>
0

>  <SCORE.INTRA.POLAR.0>
0

>  <SCORE.INTRA.REPUL>
0

>  <SCORE.INTRA.REPUL.0>
0

>  <SCORE.INTRA.SOLV>
-0.643403

>  <SCORE.INTRA.SOLV.lig_0>
-71.0481

>  <SCORE.INTRA.VDW>
-1.63391

>  <SCORE.INTRA.VDW.0>
0.968882

>  <SCORE.INTRA.norm>
0.257896

>  <SCORE.RESTR>
0

>  <SCORE.RESTR.CAVITY>
0

>  <SCORE.RESTR.norm>
0

>  <SCORE.SYSTEM>
0

>  <SCORE.SYSTEM.CONST>
0

>  <SCORE.SYSTEM.DIHEDRAL>
0

>  <SCORE.SYSTEM.SOLV>
0

>  <SCORE.SYSTEM.norm>
0

>  <SCORE.heavy>
12

>  <SCORE.norm>
-3.15525

>  <SYMMETRIC_BONDS>
11 12 2
5 6 2

>  <RMSD>
2.476

$$$$
1koc cryst
 OpenBabel11021811393D
libRbt.so/2013.1/901 2013/11/27
 12 11  0  0  0  0  0  0  0  0999 V2000
    4.0447    6.6426   27.1824 N   0  3  0  0  0  0  0  0  0  0  0  0
    4.0487    6.4931   28.6692 C   0  0  2  0  0  0  0  0  0  0  0  0
    5.4171    6.9447   29.2160 C   0  0  0  0  0  0  0  0  0  0  0  0
    5.4843    7.2730   30.3910 O   0  5  0  0  0  0  0  0  0  0  0  0
    3.7705    5.0094   29.0318 C   0  0  0  0  0  0  0  0  0  0  0  0
    3.5719    4.8387   30.5425 C   0  0  0  0  0  0  0  0  0  0  0  0
    3.2097    3.3900   30.8507 C   0  0  0  0  0  0  0  0  0  0  0  0
    1.7790    3.3016   31.2647 N   0  0  0  0  0  0  0  0  0  0  0  0
    1.0905    2.2092   31.0358 C   0  0  0  0  0  0  0  0  0  0  0  0
    1.6638    1.0350   31.1278 N   0  0  0  0  0  0  0  0  0  0  0  0
   -0.1751    2.2912   30.7192 N   0  3  0  0  0  0  0  0  0  0  0  0
    6.3700    6.9660   28.4512 O   0  0  0  0  0  0  0  0  0  0  0  0
  2  1  1  6  0  0  0
  2  5  1  0  0  0  0
  2  3  1  0  0  0  0
  3  4  1  0  0  0  0
  3 12  2  0  0  0  0
  5  6  1  0  0  0  0
  6  7  1  0  0  0  0
  7  8  1  0  0  0  0
  8  9  1  0  0  0  0
  9 10  1  0  0  0  0
  9 11  2  0  0  0  0
M  CHG  3   1   1   4  -1  11   1
M  END
>  <CHROM.1>
178.13729763,-172.14823572,158.55707022,176.24811892,-109.11744125,150.87546470
3.35037404,4.70292068,29.84588483,0.71010330,-0.62572691,-1.04515014

>  <Name>
1koc cryst

>  <RI>
0

>  <Rbt.Current_Directory>
/home/itssahil/PROJECTS/Mol_Feturizer/New_Systems/rnas/1koc

>  <Rbt.Executable>
rbdock ($Id: //depot/dev/client3/rdock/2013.1/src/exe/rbdock.cxx#4 $)

>  <Rbt.Library>
libRbt.so (2013.1, Build901 2013/11/27)

>  <Rbt.Parameter_File>
/export/apps/rDock/src/rDock_2013.1_src/data/scripts/dock_solv.prm

>  <Rbt.Receptor>
prm/pocket_docking_3.prm

>  <SCORE>
-34.2108

>  <SCORE.INTER>
-33.7791

>  <SCORE.INTER.CONST>
1

>  <SCORE.INTER.POLAR>
-6.27988

>  <SCORE.INTER.ROT>
5

>  <SCORE.INTER.SOLV>
25.7245

>  <SCORE.INTER.VDW>
-17.0946

>  <SCORE.INTER.norm>
-2.81492

>  <SCORE.INTRA>
-1.00087

>  <SCORE.INTRA.DIHEDRAL>
2.78178

>  <SCORE.INTRA.DIHEDRAL.0>
6.04201

>  <SCORE.INTRA.POLAR>
0

>  <SCORE.INTRA.POLAR.0>
0

>  <SCORE.INTRA.REPUL>
0

>  <SCORE.INTRA.REPUL.0>
0

>  <SCORE.INTRA.SOLV>
-1.11066

>  <SCORE.INTRA.SOLV.lig_0>
-71.0481

>  <SCORE.INTRA.VDW>
-1.83643

>  <SCORE.INTRA.VDW.0>
0.968882

>  <SCORE.INTRA.norm>
-0.0834056

>  <SCORE.RESTR>
0.569105

>  <SCORE.RESTR.CAVITY>
0.569105

>  <SCORE.RESTR.norm>
0.0474254

>  <SCORE.SYSTEM>
0

>  <SCORE.SYSTEM.CONST>
0

>  <SCORE.SYSTEM.DIHEDRAL>
0

>  <SCORE.SYSTEM.SOLV>
0

>  <SCORE.SYSTEM.norm>
0

>  <SCORE.heavy>
12

>  <SCORE.norm>
-2.8509

>  <SYMMETRIC_BONDS>
11 12 2
5 6 2

>  <RMSD>
2.478

$$$$
1koc cryst
 OpenBabel11021811393D
libRbt.so/2013.1/901 2013/11/27
 12 11  0  0  0  0  0  0  0  0999 V2000
    7.5486    4.5768   32.6512 N   0  3  0  0  0  0  0  0  0  0  0  0
    6.2508    5.1530   32.1858 C   0  0  2  0  0  0  0  0  0  0  0  0
    5.6487    6.0120   33.3150 C   0  0  0  0  0  0  0  0  0  0  0  0
    5.9868    5.7670   34.4634 O   0  5  0  0  0  0  0  0  0  0  0  0
    5.2904    3.9962   31.7989 C   0  0  0  0  0  0  0  0  0  0  0  0
    4.1220    4.5101   30.9494 C   0  0  0  0  0  0  0  0  0  0  0  0
    3.2934    3.3307   30.4518 C   0  0  0  0  0  0  0  0  0  0  0  0
    1.9940    3.2792   31.1833 N   0  0  0  0  0  0  0  0  0  0  0  0
    1.1976    2.2466   31.0446 C   0  0  0  0  0  0  0  0  0  0  0  0
    1.6942    1.0414   30.9143 N   0  0  0  0  0  0  0  0  0  0  0  0
   -0.0982    2.4191   31.0413 N   0  3  0  0  0  0  0  0  0  0  0  0
    4.8535    6.8903   33.0159 O   0  0  0  0  0  0  0  0  0  0  0  0
  2  1  1  1  0  0  0
  2  5  1  0  0  0  0
  2  3  1  0  0  0  0
  3  4  1  0  0  0  0
  3 12  2  0  0  0  0
  5  6  1  0  0  0  0
  6  7  1  0  0  0  0
  7  8  1  0  0  0  0
  8  9  1  0  0  0  0
  9 10  1  0  0  0  0
  9 11  2  0  0  0  0
M  CHG  3   1   1   4  -1  11   1
M  END
>  <CHROM.1>
61.75350941,-163.61810835,-23.96124837,173.37862784,107.49529133,-170.99093081
3.99140657,4.09224650,31.94298325,-0.67371944,0.03100218,-2.60300382

>  <Name>
1koc cryst

>  <RI>
0

>  <Rbt.Current_Directory>
/home/itssahil/PROJECTS/Mol_Feturizer/New_Systems/rnas/1koc

>  <Rbt.Executable>
rbdock ($Id: //depot/dev/client3/rdock/2013.1/src/exe/rbdock.cxx#4 $)

>  <Rbt.Library>
libRbt.so (2013.1, Build901 2013/11/27)

>  <Rbt.Parameter_File>
/export/apps/rDock/src/rDock_2013.1_src/data/scripts/dock_solv.prm

>  <Rbt.Receptor>
prm/pocket_docking_5.prm

>  <SCORE>
-24.2765

>  <SCORE.INTER>
-23.506

>  <SCORE.INTER.CONST>
1

>  <SCORE.INTER.POLAR>
-4.8941

>  <SCORE.INTER.ROT>
5

>  <SCORE.INTER.SOLV>
19.6139

>  <SCORE.INTER.VDW>
-12.8283

>  <SCORE.INTER.norm>
-1.95884

>  <SCORE.INTRA>
-0.770503

>  <SCORE.INTRA.DIHEDRAL>
3.41569

>  <SCORE.INTRA.DIHEDRAL.0>
6.04201

>  <SCORE.INTRA.POLAR>
0

>  <SCORE.INTRA.POLAR.0>
0

>  <SCORE.INTRA.REPUL>
0

>  <SCORE.INTRA.REPUL.0>
0

>  <SCORE.INTRA.SOLV>
-1.14546

>  <SCORE.INTRA.SOLV.lig_0>
-71.0481

>  <SCORE.INTRA.VDW>
-1.90561

>  <SCORE.INTRA.VDW.0>
0.968882

>  <SCORE.INTRA.norm>
-0.0642086

>  <SCORE.RESTR>
0

>  <SCORE.RESTR.CAVITY>
0

>  <SCORE.RESTR.norm>
0

>  <SCORE.SYSTEM>
0

>  <SCORE.SYSTEM.CONST>
0

>  <SCORE.SYSTEM.DIHEDRAL>
0

>  <SCORE.SYSTEM.SOLV>
0

>  <SCORE.SYSTEM.norm>
0

>  <SCORE.heavy>
12

>  <SCORE.norm>
-2.02305

>  <SYMMETRIC_BONDS>
11 12 2
5 6 2

>  <RMSD>
2.485

$$$$
1koc cryst
 OpenBabel11021811393D
libRbt.so/2013.1/901 2013/11/27
 12 11  0  0  0  0  0  0  0  0999 V2000
    4.3162    7.6697   27.1629 N   0  3  0  0  0  0  0  0  0  0  0  0
    4.2772    7.1486   28.5629 C   0  0  2  0  0  0  0  0  0  0  0  0
    5.3592    7.8639   29.3955 C   0  0  0  0  0  0  0  0  0  0  0  0
    5.0412    8.3054   30.4896 O   0  5  0  0  0  0  0  0  0  0  0  0
    4.5193    5.6153   28.5418 C   0  0  0  0  0  0  0  0  0  0  0  0
    4.0040    4.9578   29.8274 C   0  0  0  0  0  0  0  0  0  0  0  0
    2.4972    4.7472   29.7262 C   0  0  0  0  0  0  0  0  0  0  0  0
    2.0211    3.9266   30.8778 N   0  0  0  0  0  0  0  0  0  0  0  0
    1.9968    2.6182   30.7923 C   0  0  0  0  0  0  0  0  0  0  0  0
    2.9352    1.9809   30.1372 N   0  0  0  0  0  0  0  0  0  0  0  0
    1.0348    1.9456   31.3676 N   0  3  0  0  0  0  0  0  0  0  0  0
    6.4813    7.9685   28.9230 O   0  0  0  0  0  0  0  0  0  0  0  0
  2  1  1  6  0  0  0
  2  5  1  0  0  0  0
  2  3  1  0  0  0  0
  3  4  1  0  0  0  0
  3 12  2  0  0  0  0
  5  6  1  0  0  0  0
  6  7  1  0  0  0  0
  7  8  1  0  0  0  0
  8  9  1  0  0  0  0
  9 10  1  0  0  0  0
  9 11  2  0  0  0  0
M  CHG  3   1   1   4  -1  11   1
M  END
>  <CHROM.1>
-32.81432291,-159.55820022,132.74923448,80.99832952,171.51843475,-89.22025440
3.71065672,5.40210465,29.63602077,0.16967449,-1.02684490,-1.73385196

>  <Name>
1koc cryst

>  <RI>
0

>  <Rbt.Current_Directory>
/home/itssahil/PROJECTS/Mol_Feturizer/New_Systems/rnas/1koc

>  <Rbt.Executable>
rbdock ($Id: //depot/dev/client3/rdock/2013.1/src/exe/rbdock.cxx#4 $)

>  <Rbt.Library>
libRbt.so (2013.1, Build901 2013/11/27)

>  <Rbt.Parameter_File>
/export/apps/rDock/src/rDock_2013.1_src/data/scripts/dock_solv.prm

>  <Rbt.Receptor>
prm/pocket_docking_6.prm

>  <SCORE>
-33.3628

>  <SCORE.INTER>
-32.6812

>  <SCORE.INTER.CONST>
1

>  <SCORE.INTER.POLAR>
-5.45476

>  <SCORE.INTER.ROT>
5

>  <SCORE.INTER.SOLV>
23.855

>  <SCORE.INTER.VDW>
-18.4899

>  <SCORE.INTER.norm>
-2.72343

>  <SCORE.INTRA>
-0.68158

>  <SCORE.INTRA.DIHEDRAL>
2.22282

>  <SCORE.INTRA.DIHEDRAL.0>
6.04201

>  <SCORE.INTRA.POLAR>
0

>  <SCORE.INTRA.POLAR.0>
0

>  <SCORE.INTRA.REPUL>
0

>  <SCORE.INTRA.REPUL.0>
0

>  <SCORE.INTRA.SOLV>
-0.77952

>  <SCORE.INTRA.SOLV.lig_0>
-71.0481

>  <SCORE.INTRA.VDW>
-1.40323

>  <SCORE.INTRA.VDW.0>
0.968882

>  <SCORE.INTRA.norm>
-0.0567983

>  <SCORE.RESTR>
0

>  <SCORE.RESTR.CAVITY>
0

>  <SCORE.RESTR.norm>
0

>  <SCORE.SYSTEM>
0

>  <SCORE.SYSTEM.CONST>
0

>  <SCORE.SYSTEM.DIHEDRAL>
0

>  <SCORE.SYSTEM.SOLV>
0

>  <SCORE.SYSTEM.norm>
0

>  <SCORE.heavy>
12

>  <SCORE.norm>
-2.78023

>  <SYMMETRIC_BONDS>
11 12 2
5 6 2

>  <RMSD>
2.485

$$$$
1koc cryst
 OpenBabel11021811393D
libRbt.so/2013.1/901 2013/11/27
 12 11  0  0  0  0  0  0  0  0999 V2000
    4.4703    7.2153   27.2262 N   0  3  0  0  0  0  0  0  0  0  0  0
    4.6263    6.7230   28.6284 C   0  0  2  0  0  0  0  0  0  0  0  0
    6.0424    6.1397   28.8015 C   0  0  0  0  0  0  0  0  0  0  0  0
    6.6742    6.4559   29.7984 O   0  5  0  0  0  0  0  0  0  0  0  0
    3.5456    5.6452   28.9122 C   0  0  0  0  0  0  0  0  0  0  0  0
    3.4818    5.3082   30.4066 C   0  0  0  0  0  0  0  0  0  0  0  0
    2.3040    4.3767   30.6714 C   0  0  0  0  0  0  0  0  0  0  0  0
    2.6638    2.9812   30.2848 N   0  0  0  0  0  0  0  0  0  0  0  0
    2.2879    1.9705   31.0310 C   0  0  0  0  0  0  0  0  0  0  0  0
    1.1247    1.9899   31.6331 N   0  0  0  0  0  0  0  0  0  0  0  0
    3.0747    0.9360   31.1711 N   0  3  0  0  0  0  0  0  0  0  0  0
    6.4753    5.3979   27.9323 O   0  0  0  0  0  0  0  0  0  0  0  0
  2  1  1  6  0  0  0
  2  5  1  0  0  0  0
  2  3  1  0  0  0  0
  3  4  1  0  0  0  0
  3 12  2  0  0  0  0
  5  6  1  0  0  0  0
  6  7  1  0  0  0  0
  7  8  1  0  0  0  0
  8  9  1  0  0  0  0
  9 10  1  0  0  0  0
  9 11  2  0  0  0  0
M  CHG  3   1   1   4  -1  11   1
M  END
>  <CHROM.1>
-65.07875942,-168.81762301,134.13677965,173.24516444,78.86172654,139.72892649
3.91015573,4.58607577,29.68296147,0.99181935,0.11147038,-0.48921489

>  <Name>
1koc cryst

>  <RI>
0

>  <Rbt.Current_Directory>
/home/itssahil/PROJECTS/Mol_Feturizer/New_Systems/rnas/1koc

>  <Rbt.Executable>
rbdock ($Id: //depot/dev/client3/rdock/2013.1/src/exe/rbdock.cxx#4 $)

>  <Rbt.Library>
libRbt.so (2013.1, Build901 2013/11/27)

>  <Rbt.Parameter_File>
/export/apps/rDock/src/rDock_2013.1_src/data/scripts/dock_solv.prm

>  <Rbt.Receptor>
prm/pocket_docking_6.prm

>  <SCORE>
-37.1448

>  <SCORE.INTER>
-34.1037

>  <SCORE.INTER.CONST>
1

>  <SCORE.INTER.POLAR>
-6.19883

>  <SCORE.INTER.ROT>
5

>  <SCORE.INTER.SOLV>
26.0936

>  <SCORE.INTER.VDW>
-17.7042

>  <SCORE.INTER.norm>
-2.84197

>  <SCORE.INTRA>
-3.04117

>  <SCORE.INTRA.DIHEDRAL>
-0.666386

>  <SCORE.INTRA.DIHEDRAL.0>
6.04201

>  <SCORE.INTRA.POLAR>
0

>  <SCORE.INTRA.POLAR.0>
0

>  <SCORE.INTRA.REPUL>
0

>  <SCORE.INTRA.REPUL.0>
0

>  <SCORE.INTRA.SOLV>
-1.20961

>  <SCORE.INTRA.SOLV.lig_0>
-71.0481

>  <SCORE.INTRA.VDW>
-2.10317

>  <SCORE.INTRA.VDW.0>
0.968882

>  <SCORE.INTRA.norm>
-0.253431

>  <SCORE.RESTR>
0

>  <SCORE.RESTR.CAVITY>
0

>  <SCORE.RESTR.norm>
0

>  <SCORE.SYSTEM>
0

>  <SCORE.SYSTEM.CONST>
0

>  <SCORE.SYSTEM.DIHEDRAL>
0

>  <SCORE.SYSTEM.SOLV>
0

>  <SCORE.SYSTEM.norm>
0

>  <SCORE.heavy>
12

>  <SCORE.norm>
-3.0954

>  <SYMMETRIC_BONDS>
11 12 2
5 6 2

>  <RMSD>
2.486

$$$$
1koc cryst
 OpenBabel11021811393D
libRbt.so/2013.1/901 2013/11/27
 12 11  0  0  0  0  0  0  0  0999 V2000
    4.3674    7.3583   27.3104 N   0  3  0  0  0  0  0  0  0  0  0  0
    4.3666    7.0737   28.7774 C   0  0  2  0  0  0  0  0  0  0  0  0
    5.7044    7.5442   29.3812 C   0  0  0  0  0  0  0  0  0  0  0  0
    5.6654    8.2901   30.3482 O   0  5  0  0  0  0  0  0  0  0  0  0
    4.1647    5.5506   28.9998 C   0  0  0  0  0  0  0  0  0  0  0  0
    3.0161    5.2837   29.9798 C   0  0  0  0  0  0  0  0  0  0  0  0
    2.9849    3.8026   30.3407 C   0  0  0  0  0  0  0  0  0  0  0  0
    1.7581    3.4994   31.1340 N   0  0  0  0  0  0  0  0  0  0  0  0
    1.1143    2.3717   30.9511 C   0  0  0  0  0  0  0  0  0  0  0  0
    1.7724    1.2691   30.6923 N   0  0  0  0  0  0  0  0  0  0  0  0
   -0.1902    2.3458   31.0323 N   0  3  0  0  0  0  0  0  0  0  0  0
    6.7425    7.1618   28.8622 O   0  0  0  0  0  0  0  0  0  0  0  0
  2  1  1  6  0  0  0
  2  5  1  0  0  0  0
  2  3  1  0  0  0  0
  3  4  1  0  0  0  0
  3 12  2  0  0  0  0
  5  6  1  0  0  0  0
  6  7  1  0  0  0  0
  7  8  1  0  0  0  0
  8  9  1  0  0  0  0
  9 10  1  0  0  0  0
  9 11  2  0  0  0  0
M  CHG  3   1   1   4  -1  11   1
M  END
>  <CHROM.1>
75.28069663,-128.03465075,127.45590528,-171.31373290,-171.89139762,142.10836373
3.45388393,5.13365574,29.79620526,0.61097278,-0.70725181,-1.11185710

>  <Name>
1koc cryst

>  <RI>
0

>  <Rbt.Current_Directory>
/home/itssahil/PROJECTS/Mol_Feturizer/New_Systems/rnas/1koc

>  <Rbt.Executable>
rbdock ($Id: //depot/dev/client3/rdock/2013.1/src/exe/rbdock.cxx#4 $)

>  <Rbt.Library>
libRbt.so (2013.1, Build901 2013/11/27)

>  <Rbt.Parameter_File>
/export/apps/rDock/src/rDock_2013.1_src/data/scripts/dock_solv.prm

>  <Rbt.Receptor>
prm/pocket_docking_4.prm

>  <SCORE>
-34.7547

>  <SCORE.INTER>
-33.5312

>  <SCORE.INTER.CONST>
1

>  <SCORE.INTER.POLAR>
-6.18988

>  <SCORE.INTER.ROT>
5

>  <SCORE.INTER.SOLV>
23.185

>  <SCORE.INTER.VDW>
-16.3829

>  <SCORE.INTER.norm>
-2.79427

>  <SCORE.INTRA>
-1.2313

>  <SCORE.INTRA.DIHEDRAL>
3.42221

>  <SCORE.INTRA.DIHEDRAL.0>
6.04201

>  <SCORE.INTRA.POLAR>
0

>  <SCORE.INTRA.POLAR.0>
0

>  <SCORE.INTRA.REPUL>
0

>  <SCORE.INTRA.REPUL.0>
0

>  <SCORE.INTRA.SOLV>
-1.85225

>  <SCORE.INTRA.SOLV.lig_0>
-71.0481

>  <SCORE.INTRA.VDW>
-2.01629

>  <SCORE.INTRA.VDW.0>
0.968882

>  <SCORE.INTRA.norm>
-0.102609

>  <SCORE.RESTR>
0.00779956

>  <SCORE.RESTR.CAVITY>
0.00779956

>  <SCORE.RESTR.norm>
0.000649963

>  <SCORE.SYSTEM>
0

>  <SCORE.SYSTEM.CONST>
0

>  <SCORE.SYSTEM.DIHEDRAL>
0

>  <SCORE.SYSTEM.SOLV>
0

>  <SCORE.SYSTEM.norm>
0

>  <SCORE.heavy>
12

>  <SCORE.norm>
-2.89623

>  <SYMMETRIC_BONDS>
11 12 2
5 6 2

>  <RMSD>
2.491

$$$$
1koc cryst
 OpenBabel11021811393D
libRbt.so/2013.1/901 2013/11/27
 12 11  0  0  0  0  0  0  0  0999 V2000
    4.0689    6.7057   27.0800 N   0  3  0  0  0  0  0  0  0  0  0  0
    3.9493    6.6881   28.5694 C   0  0  2  0  0  0  0  0  0  0  0  0
    5.2849    7.1477   29.1862 C   0  0  0  0  0  0  0  0  0  0  0  0
    5.2666    8.1078   29.9418 O   0  5  0  0  0  0  0  0  0  0  0  0
    3.5911    5.2507   29.0338 C   0  0  0  0  0  0  0  0  0  0  0  0
    3.4480    5.1834   30.5589 C   0  0  0  0  0  0  0  0  0  0  0  0
    3.6422    3.7458   31.0283 C   0  0  0  0  0  0  0  0  0  0  0  0
    2.3177    3.1239   31.3200 N   0  0  0  0  0  0  0  0  0  0  0  0
    2.1432    1.8340   31.1606 C   0  0  0  0  0  0  0  0  0  0  0  0
    3.1105    0.9963   31.4412 N   0  0  0  0  0  0  0  0  0  0  0  0
    0.9973    1.3806   30.7245 N   0  3  0  0  0  0  0  0  0  0  0  0
    6.3026    6.5417   28.8856 O   0  0  0  0  0  0  0  0  0  0  0  0
  2  1  1  6  0  0  0
  2  5  1  0  0  0  0
  2  3  1  0  0  0  0
  3  4  1  0  0  0  0
  3 12  2  0  0  0  0
  5  6  1  0  0  0  0
  6  7  1  0  0  0  0
  7  8  1  0  0  0  0
  8  9  1  0  0  0  0
  9 10  1  0  0  0  0
  9 11  2  0  0  0  0
M  CHG  3   1   1   4  -1  11   1
M  END
>  <CHROM.1>
176.47850074,-179.62679203,123.05282154,-158.00377577,-101.82321388,149.76135217
3.67937336,4.72003471,29.88278618,0.93257655,-0.74244233,-0.89035629

>  <Name>
1koc cryst

>  <RI>
0

>  <Rbt.Current_Directory>
/home/itssahil/PROJECTS/Mol_Feturizer/New_Systems/rnas/1koc

>  <Rbt.Executable>
rbdock ($Id: //depot/dev/client3/rdock/2013.1/src/exe/rbdock.cxx#4 $)

>  <Rbt.Library>
libRbt.so (2013.1, Build901 2013/11/27)

>  <Rbt.Parameter_File>
/export/apps/rDock/src/rDock_2013.1_src/data/scripts/dock_solv.prm

>  <Rbt.Receptor>
prm/pocket_docking_3.prm

>  <SCORE>
-28.6192

>  <SCORE.INTER>
-28.3083

>  <SCORE.INTER.CONST>
1

>  <SCORE.INTER.POLAR>
-6.41481

>  <SCORE.INTER.ROT>
5

>  <SCORE.INTER.SOLV>
26.972

>  <SCORE.INTER.VDW>
-13.4135

>  <SCORE.INTER.norm>
-2.35902

>  <SCORE.INTRA>
-0.721025

>  <SCORE.INTRA.DIHEDRAL>
3.61702

>  <SCORE.INTRA.DIHEDRAL.0>
6.04201

>  <SCORE.INTRA.POLAR>
0

>  <SCORE.INTRA.POLAR.0>
0

>  <SCORE.INTRA.REPUL>
0

>  <SCORE.INTRA.REPUL.0>
0

>  <SCORE.INTRA.SOLV>
-1.17833

>  <SCORE.INTRA.SOLV.lig_0>
-71.0481

>  <SCORE.INTRA.VDW>
-1.94037

>  <SCORE.INTRA.VDW.0>
0.968882

>  <SCORE.INTRA.norm>
-0.0600854

>  <SCORE.RESTR>
0.410096

>  <SCORE.RESTR.CAVITY>
0.410096

>  <SCORE.RESTR.norm>
0.0341747

>  <SCORE.SYSTEM>
0

>  <SCORE.SYSTEM.CONST>
0

>  <SCORE.SYSTEM.DIHEDRAL>
0

>  <SCORE.SYSTEM.SOLV>
0

>  <SCORE.SYSTEM.norm>
0

>  <SCORE.heavy>
12

>  <SCORE.norm>
-2.38493

>  <SYMMETRIC_BONDS>
11 12 2
5 6 2

>  <RMSD>
2.493

$$$$
1koc cryst
 OpenBabel11021811393D
libRbt.so/2013.1/901 2013/11/27
 12 11  0  0  0  0  0  0  0  0999 V2000
    4.3485    7.3047   27.4846 N   0  3  0  0  0  0  0  0  0  0  0  0
    4.8913    7.2924   28.8767 C   0  0  2  0  0  0  0  0  0  0  0  0
    6.2799    6.6237   28.8687 C   0  0  0  0  0  0  0  0  0  0  0  0
    6.5458    5.8667   27.9470 O   0  5  0  0  0  0  0  0  0  0  0  0
    3.9102    6.5188   29.7983 C   0  0  0  0  0  0  0  0  0  0  0  0
    3.7959    5.0501   29.3730 C   0  0  0  0  0  0  0  0  0  0  0  0
    2.9854    4.2789   30.4089 C   0  0  0  0  0  0  0  0  0  0  0  0
    3.0882    2.8139   30.1456 N   0  0  0  0  0  0  0  0  0  0  0  0
    2.5090    1.9551   30.9497 C   0  0  0  0  0  0  0  0  0  0  0  0
    1.3536    2.2385   31.4982 N   0  0  0  0  0  0  0  0  0  0  0  0
    3.0840    0.8086   31.2019 N   0  3  0  0  0  0  0  0  0  0  0  0
    7.0483    6.8692   29.7866 O   0  0  0  0  0  0  0  0  0  0  0  0
  2  1  1  6  0  0  0
  2  5  1  0  0  0  0
  2  3  1  0  0  0  0
  3  4  1  0  0  0  0
  3 12  2  0  0  0  0
  5  6  1  0  0  0  0
  6  7  1  0  0  0  0
  7  8  1  0  0  0  0
  8  9  1  0  0  0  0
  9 10  1  0  0  0  0
  9 11  2  0  0  0  0
M  CHG  3   1   1   4  -1  11   1
M  END
>  <CHROM.1>
30.31003840,63.34520705,-22.52560910,172.06266355,-169.20967286,177.31142490
4.15454231,4.78581200,29.67205930,1.02677274,0.06183654,-0.42578850

>  <Name>
1koc cryst

>  <RI>
0

>  <Rbt.Current_Directory>
/home/itssahil/PROJECTS/Mol_Feturizer/New_Systems/rnas/1koc

>  <Rbt.Executable>
rbdock ($Id: //depot/dev/client3/rdock/2013.1/src/exe/rbdock.cxx#4 $)

>  <Rbt.Library>
libRbt.so (2013.1, Build901 2013/11/27)

>  <Rbt.Parameter_File>
/export/apps/rDock/src/rDock_2013.1_src/data/scripts/dock_solv.prm

>  <Rbt.Receptor>
prm/pocket_docking_7.prm

>  <SCORE>
-33.709

>  <SCORE.INTER>
-32.598

>  <SCORE.INTER.CONST>
1

>  <SCORE.INTER.POLAR>
-6.19353

>  <SCORE.INTER.ROT>
5

>  <SCORE.INTER.SOLV>
24.7726

>  <SCORE.INTER.VDW>
-16.2778

>  <SCORE.INTER.norm>
-2.7165

>  <SCORE.INTRA>
-1.11092

>  <SCORE.INTRA.DIHEDRAL>
-0.110796

>  <SCORE.INTRA.DIHEDRAL.0>
6.04201

>  <SCORE.INTRA.POLAR>
0

>  <SCORE.INTRA.POLAR.0>
0

>  <SCORE.INTRA.REPUL>
0

>  <SCORE.INTRA.REPUL.0>
0

>  <SCORE.INTRA.SOLV>
-0.038815

>  <SCORE.INTRA.SOLV.lig_0>
-71.0481

>  <SCORE.INTRA.VDW>
-1.03612

>  <SCORE.INTRA.VDW.0>
0.968882

>  <SCORE.INTRA.norm>
-0.092577

>  <SCORE.RESTR>
0

>  <SCORE.RESTR.CAVITY>
0

>  <SCORE.RESTR.norm>
0

>  <SCORE.SYSTEM>
0

>  <SCORE.SYSTEM.CONST>
0

>  <SCORE.SYSTEM.DIHEDRAL>
0

>  <SCORE.SYSTEM.SOLV>
0

>  <SCORE.SYSTEM.norm>
0

>  <SCORE.heavy>
12

>  <SCORE.norm>
-2.80908

>  <SYMMETRIC_BONDS>
11 12 2
5 6 2

>  <RMSD>
2.498

$$$$
1koc cryst
 OpenBabel11021811393D
libRbt.so/2013.1/901 2013/11/27
 12 11  0  0  0  0  0  0  0  0999 V2000
    4.3914    7.1131   27.4460 N   0  3  0  0  0  0  0  0  0  0  0  0
    4.4676    6.6454   28.8631 C   0  0  2  0  0  0  0  0  0  0  0  0
    5.9425    6.6347   29.3101 C   0  0  0  0  0  0  0  0  0  0  0  0
    6.7705    6.1691   28.5416 O   0  5  0  0  0  0  0  0  0  0  0  0
    3.8488    5.2252   28.9639 C   0  0  0  0  0  0  0  0  0  0  0  0
    3.8086    4.7430   30.4188 C   0  0  0  0  0  0  0  0  0  0  0  0
    3.2982    3.3070   30.4681 C   0  0  0  0  0  0  0  0  0  0  0  0
    1.9958    3.2561   31.1944 N   0  0  0  0  0  0  0  0  0  0  0  0
    1.1978    2.2256   31.0498 C   0  0  0  0  0  0  0  0  0  0  0  0
    1.6924    1.0197   30.9182 N   0  0  0  0  0  0  0  0  0  0  0  0
   -0.0976    2.4008   31.0419 N   0  3  0  0  0  0  0  0  0  0  0  0
    6.2183    7.0801   30.4142 O   0  0  0  0  0  0  0  0  0  0  0  0
  2  1  1  6  0  0  0
  2  5  1  0  0  0  0
  2  3  1  0  0  0  0
  3  4  1  0  0  0  0
  3 12  2  0  0  0  0
  5  6  1  0  0  0  0
  6  7  1  0  0  0  0
  7  8  1  0  0  0  0
  8  9  1  0  0  0  0
  9 10  1  0  0  0  0
  9 11  2  0  0  0  0
M  CHG  3   1   1   4  -1  11   1
M  END
>  <CHROM.1>
-54.03451480,-175.77877499,-44.51271518,-175.59195762,-115.49660587,161.19407708
3.62295621,4.65852737,29.86352988,0.78652688,-0.36016291,-0.77771314

>  <Name>
1koc cryst

>  <RI>
0

>  <Rbt.Current_Directory>
/home/itssahil/PROJECTS/Mol_Feturizer/New_Systems/rnas/1koc

>  <Rbt.Executable>
rbdock ($Id: //depot/dev/client3/rdock/2013.1/src/exe/rbdock.cxx#4 $)

>  <Rbt.Library>
libRbt.so (2013.1, Build901 2013/11/27)

>  <Rbt.Parameter_File>
/export/apps/rDock/src/rDock_2013.1_src/data/scripts/dock_solv.prm

>  <Rbt.Receptor>
prm/pocket_docking_8.prm

>  <SCORE>
-35.7146

>  <SCORE.INTER>
-34.6954

>  <SCORE.INTER.CONST>
1

>  <SCORE.INTER.POLAR>
-6.32068

>  <SCORE.INTER.ROT>
5

>  <SCORE.INTER.SOLV>
22.9694

>  <SCORE.INTER.VDW>
-16.6511

>  <SCORE.INTER.norm>
-2.89129

>  <SCORE.INTRA>
-1.01911

>  <SCORE.INTRA.DIHEDRAL>
3.07534

>  <SCORE.INTRA.DIHEDRAL.0>
6.04201

>  <SCORE.INTRA.POLAR>
0

>  <SCORE.INTRA.POLAR.0>
0

>  <SCORE.INTRA.REPUL>
0

>  <SCORE.INTRA.REPUL.0>
0

>  <SCORE.INTRA.SOLV>
-1.34547

>  <SCORE.INTRA.SOLV.lig_0>
-71.0481

>  <SCORE.INTRA.VDW>
-1.88405

>  <SCORE.INTRA.VDW.0>
0.968882

>  <SCORE.INTRA.norm>
-0.0849258

>  <SCORE.RESTR>
0

>  <SCORE.RESTR.CAVITY>
0

>  <SCORE.RESTR.norm>
0

>  <SCORE.SYSTEM>
0

>  <SCORE.SYSTEM.CONST>
0

>  <SCORE.SYSTEM.DIHEDRAL>
0

>  <SCORE.SYSTEM.SOLV>
0

>  <SCORE.SYSTEM.norm>
0

>  <SCORE.heavy>
12

>  <SCORE.norm>
-2.97621

>  <SYMMETRIC_BONDS>
11 12 2
5 6 2

>  <RMSD>
2.498

$$$$
1koc cryst
 OpenBabel11021811393D
libRbt.so/2013.1/901 2013/11/27
 12 11  0  0  0  0  0  0  0  0999 V2000
    2.9595    8.2093   33.4787 N   0  3  0  0  0  0  0  0  0  0  0  0
    3.6810    7.5670   32.3387 C   0  0  2  0  0  0  0  0  0  0  0  0
    4.2304    8.6662   31.4085 C   0  0  0  0  0  0  0  0  0  0  0  0
    5.1653    8.3813   30.6750 O   0  5  0  0  0  0  0  0  0  0  0  0
    2.7003    6.6361   31.5758 C   0  0  0  0  0  0  0  0  0  0  0  0
    3.4384    5.8019   30.5222 C   0  0  0  0  0  0  0  0  0  0  0  0
    2.4635    4.8339   29.8608 C   0  0  0  0  0  0  0  0  0  0  0  0
    1.8246    3.9705   30.8964 N   0  0  0  0  0  0  0  0  0  0  0  0
    1.9134    2.6646   30.8151 C   0  0  0  0  0  0  0  0  0  0  0  0
    3.0089    2.1030   30.3676 N   0  0  0  0  0  0  0  0  0  0  0  0
    0.9062    1.9189   31.1869 N   0  3  0  0  0  0  0  0  0  0  0  0
    3.7171    9.7743   31.4522 O   0  0  0  0  0  0  0  0  0  0  0  0
  2  1  1  1  0  0  0
  2  5  1  0  0  0  0
  2  3  1  0  0  0  0
  3  4  1  0  0  0  0
  3 12  2  0  0  0  0
  5  6  1  0  0  0  0
  6  7  1  0  0  0  0
  7  8  1  0  0  0  0
  8  9  1  0  0  0  0
  9 10  1  0  0  0  0
  9 11  2  0  0  0  0
M  CHG  3   1   1   4  -1  11   1
M  END
>  <CHROM.1>
-59.08929011,-171.89412354,158.09484589,176.15524831,-57.00596825,-123.16866210
2.99127749,5.88468996,31.24279368,1.09753429,0.81915922,0.53045114

>  <Name>
1koc cryst

>  <RI>
0

>  <Rbt.Current_Directory>
/home/itssahil/PROJECTS/Mol_Feturizer/New_Systems/rnas/1koc

>  <Rbt.Executable>
rbdock ($Id: //depot/dev/client3/rdock/2013.1/src/exe/rbdock.cxx#4 $)

>  <Rbt.Library>
libRbt.so (2013.1, Build901 2013/11/27)

>  <Rbt.Parameter_File>
/export/apps/rDock/src/rDock_2013.1_src/data/scripts/dock_solv.prm

>  <Rbt.Receptor>
prm/pocket_docking_8.prm

>  <SCORE>
-23.0972

>  <SCORE.INTER>
-20.0822

>  <SCORE.INTER.CONST>
1

>  <SCORE.INTER.POLAR>
-2.77226

>  <SCORE.INTER.ROT>
5

>  <SCORE.INTER.SOLV>
22.9308

>  <SCORE.INTER.VDW>
-18.7242

>  <SCORE.INTER.norm>
-1.67352

>  <SCORE.INTRA>
-3.01495

>  <SCORE.INTRA.DIHEDRAL>
-2.26694

>  <SCORE.INTRA.DIHEDRAL.0>
6.04201

>  <SCORE.INTRA.POLAR>
0

>  <SCORE.INTRA.POLAR.0>
0

>  <SCORE.INTRA.REPUL>
0

>  <SCORE.INTRA.REPUL.0>
0

>  <SCORE.INTRA.SOLV>
-0.556418

>  <SCORE.INTRA.SOLV.lig_0>
-71.0481

>  <SCORE.INTRA.VDW>
-1.60328

>  <SCORE.INTRA.VDW.0>
0.968882

>  <SCORE.INTRA.norm>
-0.251246

>  <SCORE.RESTR>
0

>  <SCORE.RESTR.CAVITY>
0

>  <SCORE.RESTR.norm>
0

>  <SCORE.SYSTEM>
0

>  <SCORE.SYSTEM.CONST>
0

>  <SCORE.SYSTEM.DIHEDRAL>
0

>  <SCORE.SYSTEM.SOLV>
0

>  <SCORE.SYSTEM.norm>
0

>  <SCORE.heavy>
12

>  <SCORE.norm>
-1.92477

>  <SYMMETRIC_BONDS>
11 12 2
5 6 2

>  <RMSD>
2.500

$$$$
1koc cryst
 OpenBabel11021811393D
libRbt.so/2013.1/901 2013/11/27
 12 11  0  0  0  0  0  0  0  0999 V2000
    4.3245    7.2373   27.1883 N   0  3  0  0  0  0  0  0  0  0  0  0
    4.3258    6.9263   28.6498 C   0  0  2  0  0  0  0  0  0  0  0  0
    5.6991    7.2992   29.2417 C   0  0  0  0  0  0  0  0  0  0  0  0
    5.7728    7.4808   30.4477 O   0  5  0  0  0  0  0  0  0  0  0  0
    4.0296    5.4154   28.8485 C   0  0  0  0  0  0  0  0  0  0  0  0
    3.2893    5.1672   30.1680 C   0  0  0  0  0  0  0  0  0  0  0  0
    3.0506    3.6720   30.3476 C   0  0  0  0  0  0  0  0  0  0  0  0
    1.8049    3.4484   31.1379 N   0  0  0  0  0  0  0  0  0  0  0  0
    1.1108    2.3469   30.9807 C   0  0  0  0  0  0  0  0  0  0  0  0
    1.7190    1.2082   30.7588 N   0  0  0  0  0  0  0  0  0  0  0  0
   -0.1941    2.3837   31.0507 N   0  3  0  0  0  0  0  0  0  0  0  0
    6.6494    7.4079   28.4811 O   0  0  0  0  0  0  0  0  0  0  0  0
  2  1  1  6  0  0  0
  2  5  1  0  0  0  0
  2  3  1  0  0  0  0
  3  4  1  0  0  0  0
  3 12  2  0  0  0  0
  5  6  1  0  0  0  0
  6  7  1  0  0  0  0
  7  8  1  0  0  0  0
  8  9  1  0  0  0  0
  9 10  1  0  0  0  0
  9 11  2  0  0  0  0
M  CHG  3   1   1   4  -1  11   1
M  END
>  <CHROM.1>
69.38340554,-149.19578644,159.40925166,-178.42327786,-150.24696951,152.59006595
3.46237643,5.00434249,29.75323199,0.66729865,-0.64693348,-1.07153850

>  <Name>
1koc cryst

>  <RI>
0

>  <Rbt.Current_Directory>
/home/itssahil/PROJECTS/Mol_Feturizer/New_Systems/rnas/1koc

>  <Rbt.Executable>
rbdock ($Id: //depot/dev/client3/rdock/2013.1/src/exe/rbdock.cxx#4 $)

>  <Rbt.Library>
libRbt.so (2013.1, Build901 2013/11/27)

>  <Rbt.Parameter_File>
/export/apps/rDock/src/rDock_2013.1_src/data/scripts/dock_solv.prm

>  <Rbt.Receptor>
prm/pocket_docking_7.prm

>  <SCORE>
-35.2478

>  <SCORE.INTER>
-34.0711

>  <SCORE.INTER.CONST>
1

>  <SCORE.INTER.POLAR>
-6.24848

>  <SCORE.INTER.ROT>
5

>  <SCORE.INTER.SOLV>
23.7383

>  <SCORE.INTER.VDW>
-16.7319

>  <SCORE.INTER.norm>
-2.83925

>  <SCORE.INTRA>
-1.17678

>  <SCORE.INTRA.DIHEDRAL>
3.03912

>  <SCORE.INTRA.DIHEDRAL.0>
6.04201

>  <SCORE.INTRA.POLAR>
0

>  <SCORE.INTRA.POLAR.0>
0

>  <SCORE.INTRA.REPUL>
0

>  <SCORE.INTRA.REPUL.0>
0

>  <SCORE.INTRA.SOLV>
-1.4758

>  <SCORE.INTRA.SOLV.lig_0>
-71.0481

>  <SCORE.INTRA.VDW>
-1.95843

>  <SCORE.INTRA.VDW.0>
0.968882

>  <SCORE.INTRA.norm>
-0.0980647

>  <SCORE.RESTR>
0

>  <SCORE.RESTR.CAVITY>
0

>  <SCORE.RESTR.norm>
0

>  <SCORE.SYSTEM>
0

>  <SCORE.SYSTEM.CONST>
0

>  <SCORE.SYSTEM.DIHEDRAL>
0

>  <SCORE.SYSTEM.SOLV>
0

>  <SCORE.SYSTEM.norm>
0

>  <SCORE.heavy>
12

>  <SCORE.norm>
-2.93732

>  <SYMMETRIC_BONDS>
11 12 2
5 6 2

>  <RMSD>
2.503

$$$$
1koc cryst
 OpenBabel11021811393D
libRbt.so/2013.1/901 2013/11/27
 12 11  0  0  0  0  0  0  0  0999 V2000
    4.5529    7.0519   27.6513 N   0  3  0  0  0  0  0  0  0  0  0  0
    4.3385    6.3452   28.9503 C   0  0  2  0  0  0  0  0  0  0  0  0
    5.5465    5.4297   29.2297 C   0  0  0  0  0  0  0  0  0  0  0  0
    6.6614    5.9291   29.2048 O   0  5  0  0  0  0  0  0  0  0  0  0
    3.0260    5.5199   28.8698 C   0  0  0  0  0  0  0  0  0  0  0  0
    2.6229    4.9886   30.2503 C   0  0  0  0  0  0  0  0  0  0  0  0
    1.5429    3.9237   30.0936 C   0  0  0  0  0  0  0  0  0  0  0  0
    1.6170    2.9553   31.2262 N   0  0  0  0  0  0  0  0  0  0  0  0
    2.4031    1.9083   31.1508 C   0  0  0  0  0  0  0  0  0  0  0  0
    3.5640    1.9951   30.5501 N   0  0  0  0  0  0  0  0  0  0  0  0
    2.0296    0.7736   31.6816 N   0  3  0  0  0  0  0  0  0  0  0  0
    5.3393    4.2461   29.4519 O   0  0  0  0  0  0  0  0  0  0  0  0
  2  1  1  6  0  0  0
  2  5  1  0  0  0  0
  2  3  1  0  0  0  0
  3  4  1  0  0  0  0
  3 12  2  0  0  0  0
  5  6  1  0  0  0  0
  6  7  1  0  0  0  0
  7  8  1  0  0  0  0
  8  9  1  0  0  0  0
  9 10  1  0  0  0  0
  9 11  2  0  0  0  0
M  CHG  3   1   1   4  -1  11   1
M  END
>  <CHROM.1>
-76.30560699,-169.41206797,53.67487417,-166.50475608,151.87733696,-87.69537992
3.63279095,4.24991385,29.84262309,1.02319792,0.09371725,-0.48210149

>  <Name>
1koc cryst

>  <RI>
0

>  <Rbt.Current_Directory>
/home/itssahil/PROJECTS/Mol_Feturizer/New_Systems/rnas/1koc

>  <Rbt.Executable>
rbdock ($Id: //depot/dev/client3/rdock/2013.1/src/exe/rbdock.cxx#4 $)

>  <Rbt.Library>
libRbt.so (2013.1, Build901 2013/11/27)

>  <Rbt.Parameter_File>
/export/apps/rDock/src/rDock_2013.1_src/data/scripts/dock_solv.prm

>  <Rbt.Receptor>
prm/pocket_docking_8.prm

>  <SCORE>
-44.9411

>  <SCORE.INTER>
-41.5272

>  <SCORE.INTER.CONST>
1

>  <SCORE.INTER.POLAR>
-7.68057

>  <SCORE.INTER.ROT>
5

>  <SCORE.INTER.SOLV>
23.4241

>  <SCORE.INTER.VDW>
-16.8243

>  <SCORE.INTER.norm>
-3.4606

>  <SCORE.INTRA>
-3.41385

>  <SCORE.INTRA.DIHEDRAL>
1.63302

>  <SCORE.INTRA.DIHEDRAL.0>
6.04201

>  <SCORE.INTRA.POLAR>
-1.35417

>  <SCORE.INTRA.POLAR.0>
0

>  <SCORE.INTRA.REPUL>
0

>  <SCORE.INTRA.REPUL.0>
0

>  <SCORE.INTRA.SOLV>
2.02253

>  <SCORE.INTRA.SOLV.lig_0>
-71.0481

>  <SCORE.INTRA.VDW>
-0.637461

>  <SCORE.INTRA.VDW.0>
0.968882

>  <SCORE.INTRA.norm>
-0.284488

>  <SCORE.RESTR>
0

>  <SCORE.RESTR.CAVITY>
0

>  <SCORE.RESTR.norm>
0

>  <SCORE.SYSTEM>
0

>  <SCORE.SYSTEM.CONST>
0

>  <SCORE.SYSTEM.DIHEDRAL>
0

>  <SCORE.SYSTEM.SOLV>
0

>  <SCORE.SYSTEM.norm>
0

>  <SCORE.heavy>
12

>  <SCORE.norm>
-3.74509

>  <SYMMETRIC_BONDS>
11 12 2
5 6 2

>  <RMSD>
2.506

$$$$
1koc cryst
 OpenBabel11021811393D
libRbt.so/2013.1/901 2013/11/27
 12 11  0  0  0  0  0  0  0  0999 V2000
    4.2373    7.2499   27.3203 N   0  3  0  0  0  0  0  0  0  0  0  0
    4.2906    7.3925   28.8068 C   0  0  2  0  0  0  0  0  0  0  0  0
    5.5195    8.2417   29.1864 C   0  0  0  0  0  0  0  0  0  0  0  0
    5.7436    8.4264   30.3733 O   0  5  0  0  0  0  0  0  0  0  0  0
    4.3727    5.9821   29.4504 C   0  0  0  0  0  0  0  0  0  0  0  0
    3.0223    5.2603   29.3715 C   0  0  0  0  0  0  0  0  0  0  0  0
    2.8333    4.3914   30.6101 C   0  0  0  0  0  0  0  0  0  0  0  0
    3.0232    2.9545   30.2558 N   0  0  0  0  0  0  0  0  0  0  0  0
    2.4979    2.0140   31.0036 C   0  0  0  0  0  0  0  0  0  0  0  0
    1.3286    2.1927   31.5665 N   0  0  0  0  0  0  0  0  0  0  0  0
    3.1411    0.8904   31.1847 N   0  3  0  0  0  0  0  0  0  0  0  0
    6.2079    8.7017   28.2876 O   0  0  0  0  0  0  0  0  0  0  0  0
  2  1  1  6  0  0  0
  2  5  1  0  0  0  0
  2  3  1  0  0  0  0
  3  4  1  0  0  0  0
  3 12  2  0  0  0  0
  5  6  1  0  0  0  0
  6  7  1  0  0  0  0
  7  8  1  0  0  0  0
  8  9  1  0  0  0  0
  9 10  1  0  0  0  0
  9 11  2  0  0  0  0
M  CHG  3   1   1   4  -1  11   1
M  END
>  <CHROM.1>
-43.01053195,-73.83657671,-177.76689154,-145.82419096,-105.67411931,-157.46872541
3.85877075,5.30168297,29.76259673,0.83354881,-0.91342112,-0.98597301

>  <Name>
1koc cryst

>  <RI>
0

>  <Rbt.Current_Directory>
/home/itssahil/PROJECTS/Mol_Feturizer/New_Systems/rnas/1koc

>  <Rbt.Executable>
rbdock ($Id: //depot/dev/client3/rdock/2013.1/src/exe/rbdock.cxx#4 $)

>  <Rbt.Library>
libRbt.so (2013.1, Build901 2013/11/27)

>  <Rbt.Parameter_File>
/export/apps/rDock/src/rDock_2013.1_src/data/scripts/dock_solv.prm

>  <Rbt.Receptor>
prm/pocket_docking_4.prm

>  <SCORE>
-32.8742

>  <SCORE.INTER>
-34.3994

>  <SCORE.INTER.CONST>
1

>  <SCORE.INTER.POLAR>
-6.20282

>  <SCORE.INTER.ROT>
5

>  <SCORE.INTER.SOLV>
24.5209

>  <SCORE.INTER.VDW>
-17.3638

>  <SCORE.INTER.norm>
-2.86661

>  <SCORE.INTRA>
1.52517

>  <SCORE.INTRA.DIHEDRAL>
7.20545

>  <SCORE.INTRA.DIHEDRAL.0>
6.04201

>  <SCORE.INTRA.POLAR>
0

>  <SCORE.INTRA.POLAR.0>
0

>  <SCORE.INTRA.REPUL>
0

>  <SCORE.INTRA.REPUL.0>
0

>  <SCORE.INTRA.SOLV>
-0.951176

>  <SCORE.INTRA.SOLV.lig_0>
-71.0481

>  <SCORE.INTRA.VDW>
-1.60197

>  <SCORE.INTRA.VDW.0>
0.968882

>  <SCORE.INTRA.norm>
0.127097

>  <SCORE.RESTR>
0

>  <SCORE.RESTR.CAVITY>
0

>  <SCORE.RESTR.norm>
0

>  <SCORE.SYSTEM>
0

>  <SCORE.SYSTEM.CONST>
0

>  <SCORE.SYSTEM.DIHEDRAL>
0

>  <SCORE.SYSTEM.SOLV>
0

>  <SCORE.SYSTEM.norm>
0

>  <SCORE.heavy>
12

>  <SCORE.norm>
-2.73952

>  <SYMMETRIC_BONDS>
11 12 2
5 6 2

>  <RMSD>
2.519

$$$$
1koc cryst
 OpenBabel11021811393D
libRbt.so/2013.1/901 2013/11/27
 12 11  0  0  0  0  0  0  0  0999 V2000
    4.3633    7.1166   27.2312 N   0  3  0  0  0  0  0  0  0  0  0  0
    4.6320    6.7105   28.6439 C   0  0  2  0  0  0  0  0  0  0  0  0
    6.1540    6.5796   28.8482 C   0  0  0  0  0  0  0  0  0  0  0  0
    6.8024    6.0173   27.9784 O   0  5  0  0  0  0  0  0  0  0  0  0
    3.9175    5.3623   28.9302 C   0  0  0  0  0  0  0  0  0  0  0  0
    4.3714    4.7712   30.2702 C   0  0  0  0  0  0  0  0  0  0  0  0
    3.1922    4.0878   30.9538 C   0  0  0  0  0  0  0  0  0  0  0  0
    2.9789    2.7339   30.3641 N   0  0  0  0  0  0  0  0  0  0  0  0
    2.1487    1.8901   30.9285 C   0  0  0  0  0  0  0  0  0  0  0  0
    1.0452    2.3218   31.4869 N   0  0  0  0  0  0  0  0  0  0  0  0
    2.4203    0.6114   30.9299 N   0  3  0  0  0  0  0  0  0  0  0  0
    6.6437    7.0318   29.8724 O   0  0  0  0  0  0  0  0  0  0  0  0
  2  1  1  6  0  0  0
  2  5  1  0  0  0  0
  2  3  1  0  0  0  0
  3  4  1  0  0  0  0
  3 12  2  0  0  0  0
  5  6  1  0  0  0  0
  6  7  1  0  0  0  0
  7  8  1  0  0  0  0
  8  9  1  0  0  0  0
  9 10  1  0  0  0  0
  9 11  2  0  0  0  0
M  CHG  3   1   1   4  -1  11   1
M  END
>  <CHROM.1>
64.11902058,169.34615505,-43.54096922,143.56285288,80.12066849,169.88212323
4.05466572,4.59990500,29.67541239,0.95761053,-0.25554484,-0.66690826

>  <Name>
1koc cryst

>  <RI>
0

>  <Rbt.Current_Directory>
/home/itssahil/PROJECTS/Mol_Feturizer/New_Systems/rnas/1koc

>  <Rbt.Executable>
rbdock ($Id: //depot/dev/client3/rdock/2013.1/src/exe/rbdock.cxx#4 $)

>  <Rbt.Library>
libRbt.so (2013.1, Build901 2013/11/27)

>  <Rbt.Parameter_File>
/export/apps/rDock/src/rDock_2013.1_src/data/scripts/dock_solv.prm

>  <Rbt.Receptor>
prm/pocket_docking_4.prm

>  <SCORE>
-34.8777

>  <SCORE.INTER>
-34.597

>  <SCORE.INTER.CONST>
1

>  <SCORE.INTER.POLAR>
-6.50718

>  <SCORE.INTER.ROT>
5

>  <SCORE.INTER.SOLV>
26.2213

>  <SCORE.INTER.VDW>
-17.0478

>  <SCORE.INTER.norm>
-2.88308

>  <SCORE.INTRA>
-0.280719

>  <SCORE.INTRA.DIHEDRAL>
3.29514

>  <SCORE.INTRA.DIHEDRAL.0>
6.04201

>  <SCORE.INTRA.POLAR>
0

>  <SCORE.INTRA.POLAR.0>
0

>  <SCORE.INTRA.REPUL>
0

>  <SCORE.INTRA.REPUL.0>
0

>  <SCORE.INTRA.SOLV>
-0.949054

>  <SCORE.INTRA.SOLV.lig_0>
-71.0481

>  <SCORE.INTRA.VDW>
-1.45376

>  <SCORE.INTRA.VDW.0>
0.968882

>  <SCORE.INTRA.norm>
-0.0233933

>  <SCORE.RESTR>
0

>  <SCORE.RESTR.CAVITY>
0

>  <SCORE.RESTR.norm>
0

>  <SCORE.SYSTEM>
0

>  <SCORE.SYSTEM.CONST>
0

>  <SCORE.SYSTEM.DIHEDRAL>
0

>  <SCORE.SYSTEM.SOLV>
0

>  <SCORE.SYSTEM.norm>
0

>  <SCORE.heavy>
12

>  <SCORE.norm>
-2.90647

>  <SYMMETRIC_BONDS>
11 12 2
5 6 2

>  <RMSD>
2.519

$$$$
1koc cryst
 OpenBabel11021811393D
libRbt.so/2013.1/901 2013/11/27
 12 11  0  0  0  0  0  0  0  0999 V2000
    4.4966    7.0747   27.4442 N   0  3  0  0  0  0  0  0  0  0  0  0
    4.5657    6.5714   28.8495 C   0  0  2  0  0  0  0  0  0  0  0  0
    5.8242    5.6960   29.0083 C   0  0  0  0  0  0  0  0  0  0  0  0
    6.4685    5.8013   30.0412 O   0  5  0  0  0  0  0  0  0  0  0  0
    3.2819    5.7561   29.1614 C   0  0  0  0  0  0  0  0  0  0  0  0
    3.2086    5.3902   30.6485 C   0  0  0  0  0  0  0  0  0  0  0  0
    3.4799    3.8999   30.8229 C   0  0  0  0  0  0  0  0  0  0  0  0
    2.2222    3.1973   31.2113 N   0  0  0  0  0  0  0  0  0  0  0  0
    2.1422    1.8909   31.1296 C   0  0  0  0  0  0  0  0  0  0  0  0
    3.1835    1.1461   31.4072 N   0  0  0  0  0  0  0  0  0  0  0  0
    1.0171    1.3281   30.7743 N   0  3  0  0  0  0  0  0  0  0  0  0
    6.1291    4.9454   28.0934 O   0  0  0  0  0  0  0  0  0  0  0  0
  2  1  1  6  0  0  0
  2  5  1  0  0  0  0
  2  3  1  0  0  0  0
  3  4  1  0  0  0  0
  3 12  2  0  0  0  0
  5  6  1  0  0  0  0
  6  7  1  0  0  0  0
  7  8  1  0  0  0  0
  8  9  1  0  0  0  0
  9 10  1  0  0  0  0
  9 11  2  0  0  0  0
M  CHG  3   1   1   4  -1  11   1
M  END
>  <CHROM.1>
166.73325974,-171.76382074,139.76854202,-107.77991093,-109.18048193,164.94261507
3.84047602,4.38131709,29.85520560,1.00660192,0.02270235,-0.51827254

>  <Name>
1koc cryst

>  <RI>
0

>  <Rbt.Current_Directory>
/home/itssahil/PROJECTS/Mol_Feturizer/New_Systems/rnas/1koc

>  <Rbt.Executable>
rbdock ($Id: //depot/dev/client3/rdock/2013.1/src/exe/rbdock.cxx#4 $)

>  <Rbt.Library>
libRbt.so (2013.1, Build901 2013/11/27)

>  <Rbt.Parameter_File>
/export/apps/rDock/src/rDock_2013.1_src/data/scripts/dock_solv.prm

>  <Rbt.Receptor>
prm/pocket_docking_3.prm

>  <SCORE>
-28.079

>  <SCORE.INTER>
-30.2866

>  <SCORE.INTER.CONST>
1

>  <SCORE.INTER.POLAR>
-6.41466

>  <SCORE.INTER.ROT>
5

>  <SCORE.INTER.SOLV>
24.7718

>  <SCORE.INTER.VDW>
-13.9994

>  <SCORE.INTER.norm>
-2.52388

>  <SCORE.INTRA>
2.09892

>  <SCORE.INTRA.DIHEDRAL>
8.66835

>  <SCORE.INTRA.DIHEDRAL.0>
6.04201

>  <SCORE.INTRA.POLAR>
0

>  <SCORE.INTRA.POLAR.0>
0

>  <SCORE.INTRA.REPUL>
0

>  <SCORE.INTRA.REPUL.0>
0

>  <SCORE.INTRA.SOLV>
-0.433816

>  <SCORE.INTRA.SOLV.lig_0>
-71.0481

>  <SCORE.INTRA.VDW>
-2.01835

>  <SCORE.INTRA.VDW.0>
0.968882

>  <SCORE.INTRA.norm>
0.17491

>  <SCORE.RESTR>
0.10864

>  <SCORE.RESTR.CAVITY>
0.10864

>  <SCORE.RESTR.norm>
0.00905331

>  <SCORE.SYSTEM>
0

>  <SCORE.SYSTEM.CONST>
0

>  <SCORE.SYSTEM.DIHEDRAL>
0

>  <SCORE.SYSTEM.SOLV>
0

>  <SCORE.SYSTEM.norm>
0

>  <SCORE.heavy>
12

>  <SCORE.norm>
-2.33992

>  <SYMMETRIC_BONDS>
11 12 2
5 6 2

>  <RMSD>
2.523

$$$$
1koc cryst
 OpenBabel11021811393D
libRbt.so/2013.1/901 2013/11/27
 12 11  0  0  0  0  0  0  0  0999 V2000
    4.3352    7.1452   27.4841 N   0  3  0  0  0  0  0  0  0  0  0  0
    4.4963    6.6426   28.8821 C   0  0  2  0  0  0  0  0  0  0  0  0
    5.9945    6.4178   29.1657 C   0  0  0  0  0  0  0  0  0  0  0  0
    6.6300    5.7330   28.3781 O   0  5  0  0  0  0  0  0  0  0  0  0
    3.6986    5.3204   29.0422 C   0  0  0  0  0  0  0  0  0  0  0  0
    3.8654    4.7429   30.4527 C   0  0  0  0  0  0  0  0  0  0  0  0
    3.3338    3.3142   30.4870 C   0  0  0  0  0  0  0  0  0  0  0  0
    2.0198    3.2785   31.1929 N   0  0  0  0  0  0  0  0  0  0  0  0
    1.2225    2.2466   31.0543 C   0  0  0  0  0  0  0  0  0  0  0  0
    1.7171    1.0379   30.9528 N   0  0  0  0  0  0  0  0  0  0  0  0
   -0.0723    2.4235   31.0221 N   0  3  0  0  0  0  0  0  0  0  0  0
    6.4782    6.9224   30.1680 O   0  0  0  0  0  0  0  0  0  0  0  0
  2  1  1  6  0  0  0
  2  5  1  0  0  0  0
  2  3  1  0  0  0  0
  3  4  1  0  0  0  0
  3 12  2  0  0  0  0
  5  6  1  0  0  0  0
  6  7  1  0  0  0  0
  7  8  1  0  0  0  0
  8  9  1  0  0  0  0
  9 10  1  0  0  0  0
  9 11  2  0  0  0  0
M  CHG  3   1   1   4  -1  11   1
M  END
>  <CHROM.1>
-57.78491524,178.39879966,-52.25255644,-167.68801335,-105.33412069,162.71221192
3.63741818,4.60784418,29.83335170,0.81679988,-0.22384342,-0.67485534

>  <Name>
1koc cryst

>  <RI>
0

>  <Rbt.Current_Directory>
/home/itssahil/PROJECTS/Mol_Feturizer/New_Systems/rnas/1koc

>  <Rbt.Executable>
rbdock ($Id: //depot/dev/client3/rdock/2013.1/src/exe/rbdock.cxx#4 $)

>  <Rbt.Library>
libRbt.so (2013.1, Build901 2013/11/27)

>  <Rbt.Parameter_File>
/export/apps/rDock/src/rDock_2013.1_src/data/scripts/dock_solv.prm

>  <Rbt.Receptor>
prm/pocket_docking_6.prm

>  <SCORE>
-35.6957

>  <SCORE.INTER>
-34.6692

>  <SCORE.INTER.CONST>
1

>  <SCORE.INTER.POLAR>
-6.23109

>  <SCORE.INTER.ROT>
5

>  <SCORE.INTER.SOLV>
23.4517

>  <SCORE.INTER.VDW>
-17.0931

>  <SCORE.INTER.norm>
-2.8891

>  <SCORE.INTRA>
-1.02646

>  <SCORE.INTRA.DIHEDRAL>
2.78383

>  <SCORE.INTRA.DIHEDRAL.0>
6.04201

>  <SCORE.INTRA.POLAR>
0

>  <SCORE.INTRA.POLAR.0>
0

>  <SCORE.INTRA.REPUL>
0

>  <SCORE.INTRA.REPUL.0>
0

>  <SCORE.INTRA.SOLV>
-1.22324

>  <SCORE.INTRA.SOLV.lig_0>
-71.0481

>  <SCORE.INTRA.VDW>
-1.80675

>  <SCORE.INTRA.VDW.0>
0.968882

>  <SCORE.INTRA.norm>
-0.0855379

>  <SCORE.RESTR>
0

>  <SCORE.RESTR.CAVITY>
0

>  <SCORE.RESTR.norm>
0

>  <SCORE.SYSTEM>
0

>  <SCORE.SYSTEM.CONST>
0

>  <SCORE.SYSTEM.DIHEDRAL>
0

>  <SCORE.SYSTEM.SOLV>
0

>  <SCORE.SYSTEM.norm>
0

>  <SCORE.heavy>
12

>  <SCORE.norm>
-2.97464

>  <SYMMETRIC_BONDS>
11 12 2
5 6 2

>  <RMSD>
2.526

$$$$
1koc cryst
 OpenBabel11021811393D
libRbt.so/2013.1/901 2013/11/27
 12 11  0  0  0  0  0  0  0  0999 V2000
    4.4033    6.9363   27.4850 N   0  3  0  0  0  0  0  0  0  0  0  0
    5.0461    6.8425   28.8306 C   0  0  2  0  0  0  0  0  0  0  0  0
    6.3547    6.0377   28.7074 C   0  0  0  0  0  0  0  0  0  0  0  0
    7.2240    6.2261   29.5452 O   0  5  0  0  0  0  0  0  0  0  0  0
    4.0641    6.1541   29.8165 C   0  0  0  0  0  0  0  0  0  0  0  0
    3.8955    4.6679   29.4793 C   0  0  0  0  0  0  0  0  0  0  0  0
    3.2115    3.9541   30.6402 C   0  0  0  0  0  0  0  0  0  0  0  0
    2.9715    2.5246   30.2863 N   0  0  0  0  0  0  0  0  0  0  0  0
    2.1270    1.8035   30.9837 C   0  0  0  0  0  0  0  0  0  0  0  0
    1.0331    2.3436   31.4608 N   0  0  0  0  0  0  0  0  0  0  0  0
    2.3747    0.5383   31.2003 N   0  3  0  0  0  0  0  0  0  0  0  0
    6.4710    5.2571   27.7745 O   0  0  0  0  0  0  0  0  0  0  0  0
  2  1  1  6  0  0  0
  2  5  1  0  0  0  0
  2  3  1  0  0  0  0
  3  4  1  0  0  0  0
  3 12  2  0  0  0  0
  5  6  1  0  0  0  0
  6  7  1  0  0  0  0
  7  8  1  0  0  0  0
  8  9  1  0  0  0  0
  9 10  1  0  0  0  0
  9 11  2  0  0  0  0
M  CHG  3   1   1   4  -1  11   1
M  END
>  <CHROM.1>
-97.83303810,69.94274860,155.68512459,166.33971295,176.66872561,-163.78269378
4.09204588,4.42639508,29.65894004,0.93278048,0.17215126,-0.39124675

>  <Name>
1koc cryst

>  <RI>
0

>  <Rbt.Current_Directory>
/home/itssahil/PROJECTS/Mol_Feturizer/New_Systems/rnas/1koc

>  <Rbt.Executable>
rbdock ($Id: //depot/dev/client3/rdock/2013.1/src/exe/rbdock.cxx#4 $)

>  <Rbt.Library>
libRbt.so (2013.1, Build901 2013/11/27)

>  <Rbt.Parameter_File>
/export/apps/rDock/src/rDock_2013.1_src/data/scripts/dock_solv.prm

>  <Rbt.Receptor>
prm/pocket_docking_5.prm

>  <SCORE>
-36.0407

>  <SCORE.INTER>
-35.7494

>  <SCORE.INTER.CONST>
1

>  <SCORE.INTER.POLAR>
-6.58457

>  <SCORE.INTER.ROT>
5

>  <SCORE.INTER.SOLV>
26.4449

>  <SCORE.INTER.VDW>
-17.6327

>  <SCORE.INTER.norm>
-2.97912

>  <SCORE.INTRA>
-0.291295

>  <SCORE.INTRA.DIHEDRAL>
1.04831

>  <SCORE.INTRA.DIHEDRAL.0>
6.04201

>  <SCORE.INTRA.POLAR>
0

>  <SCORE.INTRA.POLAR.0>
0

>  <SCORE.INTRA.REPUL>
0

>  <SCORE.INTRA.REPUL.0>
0

>  <SCORE.INTRA.SOLV>
-0.0210092

>  <SCORE.INTRA.SOLV.lig_0>
-71.0481

>  <SCORE.INTRA.VDW>
-0.804944

>  <SCORE.INTRA.VDW.0>
0.968882

>  <SCORE.INTRA.norm>
-0.0242745

>  <SCORE.RESTR>
0

>  <SCORE.RESTR.CAVITY>
0

>  <SCORE.RESTR.norm>
0

>  <SCORE.SYSTEM>
0

>  <SCORE.SYSTEM.CONST>
0

>  <SCORE.SYSTEM.DIHEDRAL>
0

>  <SCORE.SYSTEM.SOLV>
0

>  <SCORE.SYSTEM.norm>
0

>  <SCORE.heavy>
12

>  <SCORE.norm>
-3.00339

>  <SYMMETRIC_BONDS>
11 12 2
5 6 2

>  <RMSD>
2.533

$$$$
1koc cryst
 OpenBabel11021811393D
libRbt.so/2013.1/901 2013/11/27
 12 11  0  0  0  0  0  0  0  0999 V2000
    4.3148    7.3059   27.1585 N   0  3  0  0  0  0  0  0  0  0  0  0
    4.2101    7.0873   28.6329 C   0  0  2  0  0  0  0  0  0  0  0  0
    5.3412    7.8619   29.3373 C   0  0  0  0  0  0  0  0  0  0  0  0
    6.4770    7.7361   28.9048 O   0  5  0  0  0  0  0  0  0  0  0  0
    4.3125    5.5670   28.9302 C   0  0  0  0  0  0  0  0  0  0  0  0
    3.8287    5.2487   30.3499 C   0  0  0  0  0  0  0  0  0  0  0  0
    4.4121    3.9146   30.8023 C   0  0  0  0  0  0  0  0  0  0  0  0
    3.6323    2.7912   30.2054 N   0  0  0  0  0  0  0  0  0  0  0  0
    2.5042    2.4056   30.7518 C   0  0  0  0  0  0  0  0  0  0  0  0
    1.6958    3.2847   31.2900 N   0  0  0  0  0  0  0  0  0  0  0  0
    2.1816    1.1388   30.7553 N   0  3  0  0  0  0  0  0  0  0  0  0
    5.0565    8.5570   30.3012 O   0  0  0  0  0  0  0  0  0  0  0  0
  2  1  1  6  0  0  0
  2  5  1  0  0  0  0
  2  3  1  0  0  0  0
  3  4  1  0  0  0  0
  3 12  2  0  0  0  0
  5  6  1  0  0  0  0
  6  7  1  0  0  0  0
  7  8  1  0  0  0  0
  8  9  1  0  0  0  0
  9 10  1  0  0  0  0
  9 11  2  0  0  0  0
M  CHG  3   1   1   4  -1  11   1
M  END
>  <CHROM.1>
86.94469288,-164.20760943,-48.61430825,-158.56813565,-79.37258745,-81.52300272
3.99135948,5.24793158,29.75909528,0.42424258,-1.09070399,-1.44433282

>  <Name>
1koc cryst

>  <RI>
0

>  <Rbt.Current_Directory>
/home/itssahil/PROJECTS/Mol_Feturizer/New_Systems/rnas/1koc

>  <Rbt.Executable>
rbdock ($Id: //depot/dev/client3/rdock/2013.1/src/exe/rbdock.cxx#4 $)

>  <Rbt.Library>
libRbt.so (2013.1, Build901 2013/11/27)

>  <Rbt.Parameter_File>
/export/apps/rDock/src/rDock_2013.1_src/data/scripts/dock_solv.prm

>  <Rbt.Receptor>
prm/pocket_docking_4.prm

>  <SCORE>
-29.4532

>  <SCORE.INTER>
-30.0346

>  <SCORE.INTER.CONST>
1

>  <SCORE.INTER.POLAR>
-5.60116

>  <SCORE.INTER.ROT>
5

>  <SCORE.INTER.SOLV>
23.8824

>  <SCORE.INTER.VDW>
-16.2466

>  <SCORE.INTER.norm>
-2.50288

>  <SCORE.INTRA>
0.581384

>  <SCORE.INTRA.DIHEDRAL>
2.77921

>  <SCORE.INTRA.DIHEDRAL.0>
6.04201

>  <SCORE.INTRA.POLAR>
0

>  <SCORE.INTRA.POLAR.0>
0

>  <SCORE.INTRA.REPUL>
0

>  <SCORE.INTRA.REPUL.0>
0

>  <SCORE.INTRA.SOLV>
-0.585847

>  <SCORE.INTRA.SOLV.lig_0>
-71.0481

>  <SCORE.INTRA.VDW>
-0.515296

>  <SCORE.INTRA.VDW.0>
0.968882

>  <SCORE.INTRA.norm>
0.0484486

>  <SCORE.RESTR>
0

>  <SCORE.RESTR.CAVITY>
0

>  <SCORE.RESTR.norm>
0

>  <SCORE.SYSTEM>
0

>  <SCORE.SYSTEM.CONST>
0

>  <SCORE.SYSTEM.DIHEDRAL>
0

>  <SCORE.SYSTEM.SOLV>
0

>  <SCORE.SYSTEM.norm>
0

>  <SCORE.heavy>
12

>  <SCORE.norm>
-2.45443

>  <SYMMETRIC_BONDS>
11 12 2
5 6 2

>  <RMSD>
2.537

$$$$
1koc cryst
 OpenBabel11021811393D
libRbt.so/2013.1/901 2013/11/27
 12 11  0  0  0  0  0  0  0  0999 V2000
    4.0693    6.7112   27.1268 N   0  3  0  0  0  0  0  0  0  0  0  0
    4.3775    6.4441   28.5643 C   0  0  2  0  0  0  0  0  0  0  0  0
    5.7310    7.0916   28.9167 C   0  0  0  0  0  0  0  0  0  0  0  0
    6.3535    7.6414   28.0205 O   0  5  0  0  0  0  0  0  0  0  0  0
    4.4205    4.9100   28.7987 C   0  0  0  0  0  0  0  0  0  0  0  0
    4.5187    4.5830   30.2935 C   0  0  0  0  0  0  0  0  0  0  0  0
    3.1725    4.0722   30.7952 C   0  0  0  0  0  0  0  0  0  0  0  0
    2.9573    2.6701   30.3326 N   0  0  0  0  0  0  0  0  0  0  0  0
    2.1182    1.8862   30.9659 C   0  0  0  0  0  0  0  0  0  0  0  0
    1.0122    2.3729   31.4719 N   0  0  0  0  0  0  0  0  0  0  0  0
    2.3833    0.6121   31.0890 N   0  3  0  0  0  0  0  0  0  0  0  0
    6.1274    7.0179   30.0703 O   0  0  0  0  0  0  0  0  0  0  0  0
  2  1  1  6  0  0  0
  2  5  1  0  0  0  0
  2  3  1  0  0  0  0
  3  4  1  0  0  0  0
  3 12  2  0  0  0  0
  5  6  1  0  0  0  0
  6  7  1  0  0  0  0
  7  8  1  0  0  0  0
  8  9  1  0  0  0  0
  9 10  1  0  0  0  0
  9 11  2  0  0  0  0
M  CHG  3   1   1   4  -1  11   1
M  END
>  <CHROM.1>
-62.12796469,-171.27478586,-3.19152164,105.53623594,75.27330981,157.93561185
3.93001452,4.66859454,29.67802532,0.87108272,-0.66710097,-0.94704285

>  <Name>
1koc cryst

>  <RI>
0

>  <Rbt.Current_Directory>
/home/itssahil/PROJECTS/Mol_Feturizer/New_Systems/rnas/1koc

>  <Rbt.Executable>
rbdock ($Id: //depot/dev/client3/rdock/2013.1/src/exe/rbdock.cxx#4 $)

>  <Rbt.Library>
libRbt.so (2013.1, Build901 2013/11/27)

>  <Rbt.Parameter_File>
/export/apps/rDock/src/rDock_2013.1_src/data/scripts/dock_solv.prm

>  <Rbt.Receptor>
prm/pocket_docking_6.prm

>  <SCORE>
-34.9794

>  <SCORE.INTER>
-35.187

>  <SCORE.INTER.CONST>
1

>  <SCORE.INTER.POLAR>
-6.82863

>  <SCORE.INTER.ROT>
5

>  <SCORE.INTER.SOLV>
27.6507

>  <SCORE.INTER.VDW>
-16.8461

>  <SCORE.INTER.norm>
-2.93225

>  <SCORE.INTRA>
0.207568

>  <SCORE.INTRA.DIHEDRAL>
3.80107

>  <SCORE.INTRA.DIHEDRAL.0>
6.04201

>  <SCORE.INTRA.POLAR>
0

>  <SCORE.INTRA.POLAR.0>
0

>  <SCORE.INTRA.REPUL>
0

>  <SCORE.INTRA.REPUL.0>
0

>  <SCORE.INTRA.SOLV>
-0.670539

>  <SCORE.INTRA.SOLV.lig_0>
-71.0481

>  <SCORE.INTRA.VDW>
-1.3577

>  <SCORE.INTRA.VDW.0>
0.968882

>  <SCORE.INTRA.norm>
0.0172973

>  <SCORE.RESTR>
0

>  <SCORE.RESTR.CAVITY>
0

>  <SCORE.RESTR.norm>
0

>  <SCORE.SYSTEM>
0

>  <SCORE.SYSTEM.CONST>
0

>  <SCORE.SYSTEM.DIHEDRAL>
0

>  <SCORE.SYSTEM.SOLV>
0

>  <SCORE.SYSTEM.norm>
0

>  <SCORE.heavy>
12

>  <SCORE.norm>
-2.91495

>  <SYMMETRIC_BONDS>
11 12 2
5 6 2

>  <RMSD>
2.538

$$$$
1koc cryst
 OpenBabel11021811393D
libRbt.so/2013.1/901 2013/11/27
 12 11  0  0  0  0  0  0  0  0999 V2000
    4.4039    7.3862   27.2943 N   0  3  0  0  0  0  0  0  0  0  0  0
    4.3143    7.0299   28.7427 C   0  0  2  0  0  0  0  0  0  0  0  0
    5.6548    7.3636   29.4262 C   0  0  0  0  0  0  0  0  0  0  0  0
    6.6786    7.2381   28.7710 O   0  5  0  0  0  0  0  0  0  0  0  0
    3.9872    5.5180   28.8752 C   0  0  0  0  0  0  0  0  0  0  0  0
    3.2795    5.2210   30.2025 C   0  0  0  0  0  0  0  0  0  0  0  0
    3.0405    3.7205   30.3305 C   0  0  0  0  0  0  0  0  0  0  0  0
    1.8062    3.4698   31.1304 N   0  0  0  0  0  0  0  0  0  0  0  0
    1.1243    2.3620   30.9645 C   0  0  0  0  0  0  0  0  0  0  0  0
    1.7444    1.2343   30.7197 N   0  0  0  0  0  0  0  0  0  0  0  0
   -0.1800    2.3811   31.0486 N   0  3  0  0  0  0  0  0  0  0  0  0
    5.6375    7.7271   30.5927 O   0  0  0  0  0  0  0  0  0  0  0  0
  2  1  1  6  0  0  0
  2  5  1  0  0  0  0
  2  3  1  0  0  0  0
  3  4  1  0  0  0  0
  3 12  2  0  0  0  0
  5  6  1  0  0  0  0
  6  7  1  0  0  0  0
  7  8  1  0  0  0  0
  8  9  1  0  0  0  0
  9 10  1  0  0  0  0
  9 11  2  0  0  0  0
M  CHG  3   1   1   4  -1  11   1
M  END
>  <CHROM.1>
74.01442817,-154.41841559,-33.26259357,-177.03575910,-149.63867510,154.13172737
3.45658428,5.05939875,29.82090477,0.62697093,-0.68992551,-1.10322813

>  <Name>
1koc cryst

>  <RI>
0

>  <Rbt.Current_Directory>
/home/itssahil/PROJECTS/Mol_Feturizer/New_Systems/rnas/1koc

>  <Rbt.Executable>
rbdock ($Id: //depot/dev/client3/rdock/2013.1/src/exe/rbdock.cxx#4 $)

>  <Rbt.Library>
libRbt.so (2013.1, Build901 2013/11/27)

>  <Rbt.Parameter_File>
/export/apps/rDock/src/rDock_2013.1_src/data/scripts/dock_solv.prm

>  <Rbt.Receptor>
prm/pocket_docking_6.prm

>  <SCORE>
-35.4581

>  <SCORE.INTER>
-34.0812

>  <SCORE.INTER.CONST>
1

>  <SCORE.INTER.POLAR>
-6.23641

>  <SCORE.INTER.ROT>
5

>  <SCORE.INTER.SOLV>
22.7574

>  <SCORE.INTER.VDW>
-16.4519

>  <SCORE.INTER.norm>
-2.8401

>  <SCORE.INTRA>
-1.37688

>  <SCORE.INTRA.DIHEDRAL>
2.6905

>  <SCORE.INTRA.DIHEDRAL.0>
6.04201

>  <SCORE.INTRA.POLAR>
0

>  <SCORE.INTRA.POLAR.0>
0

>  <SCORE.INTRA.REPUL>
0

>  <SCORE.INTRA.REPUL.0>
0

>  <SCORE.INTRA.SOLV>
-1.56002

>  <SCORE.INTRA.SOLV.lig_0>
-71.0481

>  <SCORE.INTRA.VDW>
-1.94212

>  <SCORE.INTRA.VDW.0>
0.968882

>  <SCORE.INTRA.norm>
-0.11474

>  <SCORE.RESTR>
0

>  <SCORE.RESTR.CAVITY>
0

>  <SCORE.RESTR.norm>
0

>  <SCORE.SYSTEM>
0

>  <SCORE.SYSTEM.CONST>
0

>  <SCORE.SYSTEM.DIHEDRAL>
0

>  <SCORE.SYSTEM.SOLV>
0

>  <SCORE.SYSTEM.norm>
0

>  <SCORE.heavy>
12

>  <SCORE.norm>
-2.95484

>  <SYMMETRIC_BONDS>
11 12 2
5 6 2

>  <RMSD>
2.539

$$$$
1koc cryst
 OpenBabel11021811393D
libRbt.so/2013.1/901 2013/11/27
 12 11  0  0  0  0  0  0  0  0999 V2000
    4.3071    7.1850   27.2648 N   0  3  0  0  0  0  0  0  0  0  0  0
    4.3025    6.8002   28.7086 C   0  0  2  0  0  0  0  0  0  0  0  0
    5.7297    6.9458   29.2720 C   0  0  0  0  0  0  0  0  0  0  0  0
    6.6593    6.5456   28.5872 O   0  5  0  0  0  0  0  0  0  0  0  0
    3.8013    5.3371   28.8434 C   0  0  0  0  0  0  0  0  0  0  0  0
    3.5085    4.9869   30.3071 C   0  0  0  0  0  0  0  0  0  0  0  0
    3.1352    3.5125   30.4159 C   0  0  0  0  0  0  0  0  0  0  0  0
    1.8643    3.3662   31.1838 N   0  0  0  0  0  0  0  0  0  0  0  0
    1.1190    2.2980   31.0316 C   0  0  0  0  0  0  0  0  0  0  0  0
    1.6735    1.1263   30.8426 N   0  0  0  0  0  0  0  0  0  0  0  0
   -0.1835    2.4010   31.0736 N   0  3  0  0  0  0  0  0  0  0  0  0
    5.8692    7.4428   30.3796 O   0  0  0  0  0  0  0  0  0  0  0  0
  2  1  1  6  0  0  0
  2  5  1  0  0  0  0
  2  3  1  0  0  0  0
  3  4  1  0  0  0  0
  3 12  2  0  0  0  0
  5  6  1  0  0  0  0
  6  7  1  0  0  0  0
  7  8  1  0  0  0  0
  8  9  1  0  0  0  0
  9 10  1  0  0  0  0
  9 11  2  0  0  0  0
M  CHG  3   1   1   4  -1  11   1
M  END
>  <CHROM.1>
64.88272617,-168.54535392,-42.84695966,-175.15648960,-129.39687353,156.90528833
3.47919650,4.83426440,29.80395340,0.75466512,-0.49907048,-0.90660458

>  <Name>
1koc cryst

>  <RI>
0

>  <Rbt.Current_Directory>
/home/itssahil/PROJECTS/Mol_Feturizer/New_Systems/rnas/1koc

>  <Rbt.Executable>
rbdock ($Id: //depot/dev/client3/rdock/2013.1/src/exe/rbdock.cxx#4 $)

>  <Rbt.Library>
libRbt.so (2013.1, Build901 2013/11/27)

>  <Rbt.Parameter_File>
/export/apps/rDock/src/rDock_2013.1_src/data/scripts/dock_solv.prm

>  <Rbt.Receptor>
prm/pocket_docking_6.prm

>  <SCORE>
-35.6381

>  <SCORE.INTER>
-34.5163

>  <SCORE.INTER.CONST>
1

>  <SCORE.INTER.POLAR>
-6.33457

>  <SCORE.INTER.ROT>
5

>  <SCORE.INTER.SOLV>
23.7486

>  <SCORE.INTER.VDW>
-16.7451

>  <SCORE.INTER.norm>
-2.87636

>  <SCORE.INTRA>
-1.12183

>  <SCORE.INTRA.DIHEDRAL>
3.1985

>  <SCORE.INTRA.DIHEDRAL.0>
6.04201

>  <SCORE.INTRA.POLAR>
0

>  <SCORE.INTRA.POLAR.0>
0

>  <SCORE.INTRA.REPUL>
0

>  <SCORE.INTRA.REPUL.0>
0

>  <SCORE.INTRA.SOLV>
-1.45375

>  <SCORE.INTRA.SOLV.lig_0>
-71.0481

>  <SCORE.INTRA.VDW>
-1.99421

>  <SCORE.INTRA.VDW.0>
0.968882

>  <SCORE.INTRA.norm>
-0.0934862

>  <SCORE.RESTR>
0

>  <SCORE.RESTR.CAVITY>
0

>  <SCORE.RESTR.norm>
0

>  <SCORE.SYSTEM>
0

>  <SCORE.SYSTEM.CONST>
0

>  <SCORE.SYSTEM.DIHEDRAL>
0

>  <SCORE.SYSTEM.SOLV>
0

>  <SCORE.SYSTEM.norm>
0

>  <SCORE.heavy>
12

>  <SCORE.norm>
-2.96984

>  <SYMMETRIC_BONDS>
11 12 2
5 6 2

>  <RMSD>
2.542

$$$$
1koc cryst
 OpenBabel11021811393D
libRbt.so/2013.1/901 2013/11/27
 12 11  0  0  0  0  0  0  0  0999 V2000
    4.1094    6.6139   27.2191 N   0  3  0  0  0  0  0  0  0  0  0  0
    3.8847    6.6948   28.6941 C   0  0  2  0  0  0  0  0  0  0  0  0
    4.7778    7.8069   29.2782 C   0  0  0  0  0  0  0  0  0  0  0  0
    4.5366    8.2001   30.4097 O   0  5  0  0  0  0  0  0  0  0  0  0
    4.2206    5.3216   29.3358 C   0  0  0  0  0  0  0  0  0  0  0  0
    3.2888    5.0214   30.5158 C   0  0  0  0  0  0  0  0  0  0  0  0
    2.1584    4.1074   30.0556 C   0  0  0  0  0  0  0  0  0  0  0  0
    1.9643    3.0045   31.0417 N   0  0  0  0  0  0  0  0  0  0  0  0
    2.7694    1.9694   31.0431 C   0  0  0  0  0  0  0  0  0  0  0  0
    4.0428    2.1219   30.7763 N   0  0  0  0  0  0  0  0  0  0  0  0
    2.3009    0.7801   31.3168 N   0  3  0  0  0  0  0  0  0  0  0  0
    5.6781    8.2540   28.5833 O   0  0  0  0  0  0  0  0  0  0  0  0
  2  1  1  6  0  0  0
  2  5  1  0  0  0  0
  2  3  1  0  0  0  0
  3  4  1  0  0  0  0
  3 12  2  0  0  0  0
  5  6  1  0  0  0  0
  6  7  1  0  0  0  0
  7  8  1  0  0  0  0
  8  9  1  0  0  0  0
  9 10  1  0  0  0  0
  9 11  2  0  0  0  0
M  CHG  3   1   1   4  -1  11   1
M  END
>  <CHROM.1>
88.78056852,-145.05675220,165.47502485,98.13031542,134.26023140,-79.08344197
3.66083965,4.98810726,29.83401923,-0.00619948,-1.23598863,-1.94645791

>  <Name>
1koc cryst

>  <RI>
0

>  <Rbt.Current_Directory>
/home/itssahil/PROJECTS/Mol_Feturizer/New_Systems/rnas/1koc

>  <Rbt.Executable>
rbdock ($Id: //depot/dev/client3/rdock/2013.1/src/exe/rbdock.cxx#4 $)

>  <Rbt.Library>
libRbt.so (2013.1, Build901 2013/11/27)

>  <Rbt.Parameter_File>
/export/apps/rDock/src/rDock_2013.1_src/data/scripts/dock_solv.prm

>  <Rbt.Receptor>
prm/pocket_docking_7.prm

>  <SCORE>
-33.4246

>  <SCORE.INTER>
-39.3255

>  <SCORE.INTER.CONST>
1

>  <SCORE.INTER.POLAR>
-7.15816

>  <SCORE.INTER.ROT>
5

>  <SCORE.INTER.SOLV>
26.0996

>  <SCORE.INTER.VDW>
-17.9897

>  <SCORE.INTER.norm>
-3.27712

>  <SCORE.INTRA>
5.90083

>  <SCORE.INTRA.DIHEDRAL>
11.4305

>  <SCORE.INTRA.DIHEDRAL.0>
6.04201

>  <SCORE.INTRA.POLAR>
0

>  <SCORE.INTRA.POLAR.0>
0

>  <SCORE.INTRA.REPUL>
0

>  <SCORE.INTRA.REPUL.0>
0

>  <SCORE.INTRA.SOLV>
-0.290063

>  <SCORE.INTRA.SOLV.lig_0>
-71.0481

>  <SCORE.INTRA.VDW>
0.330618

>  <SCORE.INTRA.VDW.0>
0.968882

>  <SCORE.INTRA.norm>
0.491736

>  <SCORE.RESTR>
0

>  <SCORE.RESTR.CAVITY>
0

>  <SCORE.RESTR.norm>
0

>  <SCORE.SYSTEM>
0

>  <SCORE.SYSTEM.CONST>
0

>  <SCORE.SYSTEM.DIHEDRAL>
0

>  <SCORE.SYSTEM.SOLV>
0

>  <SCORE.SYSTEM.norm>
0

>  <SCORE.heavy>
12

>  <SCORE.norm>
-2.78539

>  <SYMMETRIC_BONDS>
11 12 2
5 6 2

>  <RMSD>
2.548

$$$$
1koc cryst
 OpenBabel11021811393D
libRbt.so/2013.1/901 2013/11/27
 12 11  0  0  0  0  0  0  0  0999 V2000
    4.5644    7.0575   27.6550 N   0  3  0  0  0  0  0  0  0  0  0  0
    4.3759    6.3025   28.9307 C   0  0  2  0  0  0  0  0  0  0  0  0
    5.5773    5.3598   29.1389 C   0  0  0  0  0  0  0  0  0  0  0  0
    6.6944    5.7951   28.9030 O   0  5  0  0  0  0  0  0  0  0  0  0
    3.0494    5.4995   28.8551 C   0  0  0  0  0  0  0  0  0  0  0  0
    2.6508    4.9617   30.2344 C   0  0  0  0  0  0  0  0  0  0  0  0
    1.5599    3.9079   30.0773 C   0  0  0  0  0  0  0  0  0  0  0  0
    1.6184    2.9436   31.2144 N   0  0  0  0  0  0  0  0  0  0  0  0
    2.4054    1.8964   31.1535 C   0  0  0  0  0  0  0  0  0  0  0  0
    3.5744    1.9809   30.5685 N   0  0  0  0  0  0  0  0  0  0  0  0
    2.0245    0.7636   31.6834 N   0  3  0  0  0  0  0  0  0  0  0  0
    5.3613    4.2185   29.5186 O   0  0  0  0  0  0  0  0  0  0  0  0
  2  1  1  6  0  0  0
  2  5  1  0  0  0  0
  2  3  1  0  0  0  0
  3  4  1  0  0  0  0
  3 12  2  0  0  0  0
  5  6  1  0  0  0  0
  6  7  1  0  0  0  0
  7  8  1  0  0  0  0
  8  9  1  0  0  0  0
  9 10  1  0  0  0  0
  9 11  2  0  0  0  0
M  CHG  3   1   1   4  -1  11   1
M  END
>  <CHROM.1>
41.47379842,-167.36364233,42.77830054,-166.04960324,152.81203016,-86.88467629
3.64989002,4.21882798,29.81120718,1.01737402,0.12834932,-0.47946931

>  <Name>
1koc cryst

>  <RI>
0

>  <Rbt.Current_Directory>
/home/itssahil/PROJECTS/Mol_Feturizer/New_Systems/rnas/1koc

>  <Rbt.Executable>
rbdock ($Id: //depot/dev/client3/rdock/2013.1/src/exe/rbdock.cxx#4 $)

>  <Rbt.Library>
libRbt.so (2013.1, Build901 2013/11/27)

>  <Rbt.Parameter_File>
/export/apps/rDock/src/rDock_2013.1_src/data/scripts/dock_solv.prm

>  <Rbt.Receptor>
prm/pocket_docking_4.prm

>  <SCORE>
-44.6557

>  <SCORE.INTER>
-41.5101

>  <SCORE.INTER.CONST>
1

>  <SCORE.INTER.POLAR>
-7.70661

>  <SCORE.INTER.ROT>
5

>  <SCORE.INTER.SOLV>
23.5255

>  <SCORE.INTER.VDW>
-16.7598

>  <SCORE.INTER.norm>
-3.45917

>  <SCORE.INTRA>
-3.14562

>  <SCORE.INTRA.DIHEDRAL>
1.87334

>  <SCORE.INTRA.DIHEDRAL.0>
6.04201

>  <SCORE.INTRA.POLAR>
-1.35417

>  <SCORE.INTRA.POLAR.0>
0

>  <SCORE.INTRA.REPUL>
0

>  <SCORE.INTRA.REPUL.0>
0

>  <SCORE.INTRA.SOLV>
2.14101

>  <SCORE.INTRA.SOLV.lig_0>
-71.0481

>  <SCORE.INTRA.VDW>
-0.548625

>  <SCORE.INTRA.VDW.0>
0.968882

>  <SCORE.INTRA.norm>
-0.262135

>  <SCORE.RESTR>
0

>  <SCORE.RESTR.CAVITY>
0

>  <SCORE.RESTR.norm>
0

>  <SCORE.SYSTEM>
0

>  <SCORE.SYSTEM.CONST>
0

>  <SCORE.SYSTEM.DIHEDRAL>
0

>  <SCORE.SYSTEM.SOLV>
0

>  <SCORE.SYSTEM.norm>
0

>  <SCORE.heavy>
12

>  <SCORE.norm>
-3.72131

>  <SYMMETRIC_BONDS>
11 12 2
5 6 2

>  <RMSD>
2.555

$$$$
1koc cryst
 OpenBabel11021811393D
libRbt.so/2013.1/901 2013/11/27
 12 11  0  0  0  0  0  0  0  0999 V2000
    4.3745    6.6432   27.6058 N   0  3  0  0  0  0  0  0  0  0  0  0
    4.9253    6.2469   28.9371 C   0  0  2  0  0  0  0  0  0  0  0  0
    6.4650    6.2687   28.8705 C   0  0  0  0  0  0  0  0  0  0  0  0
    7.0165    5.4884   28.1089 O   0  5  0  0  0  0  0  0  0  0  0  0
    4.4075    4.8290   29.3001 C   0  0  0  0  0  0  0  0  0  0  0  0
    2.9681    4.8853   29.8255 C   0  0  0  0  0  0  0  0  0  0  0  0
    2.8625    4.0800   31.1159 C   0  0  0  0  0  0  0  0  0  0  0  0
    2.9388    2.6213   30.8115 N   0  0  0  0  0  0  0  0  0  0  0  0
    1.9097    1.8425   31.0440 C   0  0  0  0  0  0  0  0  0  0  0  0
    0.6908    2.2833   30.8544 N   0  0  0  0  0  0  0  0  0  0  0  0
    2.1002    0.6187   31.4620 N   0  3  0  0  0  0  0  0  0  0  0  0
    7.0664    7.0544   29.5876 O   0  0  0  0  0  0  0  0  0  0  0  0
  2  1  1  6  0  0  0
  2  5  1  0  0  0  0
  2  3  1  0  0  0  0
  3  4  1  0  0  0  0
  3 12  2  0  0  0  0
  5  6  1  0  0  0  0
  6  7  1  0  0  0  0
  7  8  1  0  0  0  0
  8  9  1  0  0  0  0
  9 10  1  0  0  0  0
  9 11  2  0  0  0  0
M  CHG  3   1   1   4  -1  11   1
M  END
>  <CHROM.1>
-60.32969816,-78.98986806,-63.51951792,-131.51569980,-72.39219964,-115.26239611
3.97600583,4.40150775,29.76647376,0.86901857,-0.05010321,-0.54471264

>  <Name>
1koc cryst

>  <RI>
0

>  <Rbt.Current_Directory>
/home/itssahil/PROJECTS/Mol_Feturizer/New_Systems/rnas/1koc

>  <Rbt.Executable>
rbdock ($Id: //depot/dev/client3/rdock/2013.1/src/exe/rbdock.cxx#4 $)

>  <Rbt.Library>
libRbt.so (2013.1, Build901 2013/11/27)

>  <Rbt.Parameter_File>
/export/apps/rDock/src/rDock_2013.1_src/data/scripts/dock_solv.prm

>  <Rbt.Receptor>
prm/pocket_docking_5.prm

>  <SCORE>
-31.8935

>  <SCORE.INTER>
-31.5806

>  <SCORE.INTER.CONST>
1

>  <SCORE.INTER.POLAR>
-5.44053

>  <SCORE.INTER.ROT>
5

>  <SCORE.INTER.SOLV>
23.5415

>  <SCORE.INTER.VDW>
-17.6991

>  <SCORE.INTER.norm>
-2.63172

>  <SCORE.INTRA>
-0.312857

>  <SCORE.INTRA.DIHEDRAL>
4.71195

>  <SCORE.INTRA.DIHEDRAL.0>
6.04201

>  <SCORE.INTRA.POLAR>
0

>  <SCORE.INTRA.POLAR.0>
0

>  <SCORE.INTRA.REPUL>
0

>  <SCORE.INTRA.REPUL.0>
0

>  <SCORE.INTRA.SOLV>
-0.976631

>  <SCORE.INTRA.SOLV.lig_0>
-71.0481

>  <SCORE.INTRA.VDW>
-2.18052

>  <SCORE.INTRA.VDW.0>
0.968882

>  <SCORE.INTRA.norm>
-0.0260715

>  <SCORE.RESTR>
0

>  <SCORE.RESTR.CAVITY>
0

>  <SCORE.RESTR.norm>
0

>  <SCORE.SYSTEM>
0

>  <SCORE.SYSTEM.CONST>
0

>  <SCORE.SYSTEM.DIHEDRAL>
0

>  <SCORE.SYSTEM.SOLV>
0

>  <SCORE.SYSTEM.norm>
0

>  <SCORE.heavy>
12

>  <SCORE.norm>
-2.65779

>  <SYMMETRIC_BONDS>
11 12 2
5 6 2

>  <RMSD>
2.557

$$$$
1koc cryst
 OpenBabel11021811393D
libRbt.so/2013.1/901 2013/11/27
 12 11  0  0  0  0  0  0  0  0999 V2000
    6.3921    5.0029   28.0219 N   0  3  0  0  0  0  0  0  0  0  0  0
    5.2715    5.2651   28.9750 C   0  0  2  0  0  0  0  0  0  0  0  0
    5.1483    6.7849   29.1998 C   0  0  0  0  0  0  0  0  0  0  0  0
    4.1729    7.3555   28.7349 O   0  5  0  0  0  0  0  0  0  0  0  0
    5.5582    4.5297   30.3118 C   0  0  0  0  0  0  0  0  0  0  0  0
    5.0681    3.0779   30.2589 C   0  0  0  0  0  0  0  0  0  0  0  0
    3.5454    3.0542   30.1818 C   0  0  0  0  0  0  0  0  0  0  0  0
    3.0465    1.6694   30.4259 N   0  0  0  0  0  0  0  0  0  0  0  0
    2.1090    1.4517   31.3167 C   0  0  0  0  0  0  0  0  0  0  0  0
    1.1422    2.3195   31.4847 N   0  0  0  0  0  0  0  0  0  0  0  0
    2.1357    0.3614   32.0374 N   0  3  0  0  0  0  0  0  0  0  0  0
    6.0335    7.3539   29.8210 O   0  0  0  0  0  0  0  0  0  0  0  0
  2  1  1  6  0  0  0
  2  5  1  0  0  0  0
  2  3  1  0  0  0  0
  3  4  1  0  0  0  0
  3 12  2  0  0  0  0
  5  6  1  0  0  0  0
  6  7  1  0  0  0  0
  7  8  1  0  0  0  0
  8  9  1  0  0  0  0
  9 10  1  0  0  0  0
  9 11  2  0  0  0  0
M  CHG  3   1   1   4  -1  11   1
M  END
>  <CHROM.1>
54.29835042,-85.68519566,109.96241799,-67.14332673,-167.83036387,128.96086961
4.14019829,4.02076622,30.05123507,-0.97793144,-0.39694897,2.96019798

>  <Name>
1koc cryst

>  <RI>
0

>  <Rbt.Current_Directory>
/home/itssahil/PROJECTS/Mol_Feturizer/New_Systems/rnas/1koc

>  <Rbt.Executable>
rbdock ($Id: //depot/dev/client3/rdock/2013.1/src/exe/rbdock.cxx#4 $)

>  <Rbt.Library>
libRbt.so (2013.1, Build901 2013/11/27)

>  <Rbt.Parameter_File>
/export/apps/rDock/src/rDock_2013.1_src/data/scripts/dock_solv.prm

>  <Rbt.Receptor>
prm/pocket_docking_4.prm

>  <SCORE>
-32.9881

>  <SCORE.INTER>
-30.7648

>  <SCORE.INTER.CONST>
1

>  <SCORE.INTER.POLAR>
-6.00136

>  <SCORE.INTER.ROT>
5

>  <SCORE.INTER.SOLV>
23.7822

>  <SCORE.INTER.VDW>
-15.3661

>  <SCORE.INTER.norm>
-2.56373

>  <SCORE.INTRA>
-2.22327

>  <SCORE.INTRA.DIHEDRAL>
0.222134

>  <SCORE.INTRA.DIHEDRAL.0>
6.04201

>  <SCORE.INTRA.POLAR>
0

>  <SCORE.INTRA.POLAR.0>
0

>  <SCORE.INTRA.REPUL>
0

>  <SCORE.INTRA.REPUL.0>
0

>  <SCORE.INTRA.SOLV>
-1.2989

>  <SCORE.INTRA.SOLV.lig_0>
-71.0481

>  <SCORE.INTRA.VDW>
-1.68489

>  <SCORE.INTRA.VDW.0>
0.968882

>  <SCORE.INTRA.norm>
-0.185272

>  <SCORE.RESTR>
0

>  <SCORE.RESTR.CAVITY>
0

>  <SCORE.RESTR.norm>
0

>  <SCORE.SYSTEM>
0

>  <SCORE.SYSTEM.CONST>
0

>  <SCORE.SYSTEM.DIHEDRAL>
0

>  <SCORE.SYSTEM.SOLV>
0

>  <SCORE.SYSTEM.norm>
0

>  <SCORE.heavy>
12

>  <SCORE.norm>
-2.74901

>  <SYMMETRIC_BONDS>
11 12 2
5 6 2

>  <RMSD>
2.559

$$$$
1koc cryst
 OpenBabel11021811393D
libRbt.so/2013.1/901 2013/11/27
 12 11  0  0  0  0  0  0  0  0999 V2000
    4.0841    6.7457   26.9925 N   0  3  0  0  0  0  0  0  0  0  0  0
    4.0363    6.7410   28.4860 C   0  0  2  0  0  0  0  0  0  0  0  0
    5.1739    7.6286   29.0279 C   0  0  0  0  0  0  0  0  0  0  0  0
    6.1544    7.7992   28.3190 O   0  5  0  0  0  0  0  0  0  0  0  0
    4.1832    5.2816   28.9949 C   0  0  0  0  0  0  0  0  0  0  0  0
    2.9808    4.8735   29.8543 C   0  0  0  0  0  0  0  0  0  0  0  0
    3.4181    3.8439   30.8904 C   0  0  0  0  0  0  0  0  0  0  0  0
    3.1275    2.4677   30.3922 N   0  0  0  0  0  0  0  0  0  0  0  0
    2.2538    1.7110   31.0116 C   0  0  0  0  0  0  0  0  0  0  0  0
    1.1781    2.2398   31.5401 N   0  0  0  0  0  0  0  0  0  0  0  0
    2.4537    0.4221   31.0982 N   0  3  0  0  0  0  0  0  0  0  0  0
    5.0521    8.1125   30.1434 O   0  0  0  0  0  0  0  0  0  0  0  0
  2  1  1  6  0  0  0
  2  5  1  0  0  0  0
  2  3  1  0  0  0  0
  3  4  1  0  0  0  0
  3 12  2  0  0  0  0
  5  6  1  0  0  0  0
  6  7  1  0  0  0  0
  7  8  1  0  0  0  0
  8  9  1  0  0  0  0
  9 10  1  0  0  0  0
  9 11  2  0  0  0  0
M  CHG  3   1   1   4  -1  11   1
M  END
>  <CHROM.1>
73.95060454,-122.08223212,-24.69336135,-150.35636103,-96.28494910,-115.37519588
3.67568089,4.82009613,29.70385084,0.28637557,-1.13141854,-1.66846970

>  <Name>
1koc cryst

>  <RI>
0

>  <Rbt.Current_Directory>
/home/itssahil/PROJECTS/Mol_Feturizer/New_Systems/rnas/1koc

>  <Rbt.Executable>
rbdock ($Id: //depot/dev/client3/rdock/2013.1/src/exe/rbdock.cxx#4 $)

>  <Rbt.Library>
libRbt.so (2013.1, Build901 2013/11/27)

>  <Rbt.Parameter_File>
/export/apps/rDock/src/rDock_2013.1_src/data/scripts/dock_solv.prm

>  <Rbt.Receptor>
prm/pocket_docking_8.prm

>  <SCORE>
-35.4147

>  <SCORE.INTER>
-37.3963

>  <SCORE.INTER.CONST>
1

>  <SCORE.INTER.POLAR>
-7.14392

>  <SCORE.INTER.ROT>
5

>  <SCORE.INTER.SOLV>
29.3653

>  <SCORE.INTER.VDW>
-17.8396

>  <SCORE.INTER.norm>
-3.11636

>  <SCORE.INTRA>
1.98156

>  <SCORE.INTRA.DIHEDRAL>
9.62499

>  <SCORE.INTRA.DIHEDRAL.0>
6.04201

>  <SCORE.INTRA.POLAR>
0

>  <SCORE.INTRA.POLAR.0>
0

>  <SCORE.INTRA.REPUL>
0

>  <SCORE.INTRA.REPUL.0>
0

>  <SCORE.INTRA.SOLV>
-1.07599

>  <SCORE.INTRA.SOLV.lig_0>
-71.0481

>  <SCORE.INTRA.VDW>
-2.29294

>  <SCORE.INTRA.VDW.0>
0.968882

>  <SCORE.INTRA.norm>
0.16513

>  <SCORE.RESTR>
0

>  <SCORE.RESTR.CAVITY>
0

>  <SCORE.RESTR.norm>
0

>  <SCORE.SYSTEM>
0

>  <SCORE.SYSTEM.CONST>
0

>  <SCORE.SYSTEM.DIHEDRAL>
0

>  <SCORE.SYSTEM.SOLV>
0

>  <SCORE.SYSTEM.norm>
0

>  <SCORE.heavy>
12

>  <SCORE.norm>
-2.95123

>  <SYMMETRIC_BONDS>
11 12 2
5 6 2

>  <RMSD>
2.565

$$$$
1koc cryst
 OpenBabel11021811393D
libRbt.so/2013.1/901 2013/11/27
 12 11  0  0  0  0  0  0  0  0999 V2000
    4.0756    6.2879   27.8140 N   0  3  0  0  0  0  0  0  0  0  0  0
    4.8283    6.7601   29.0154 C   0  0  2  0  0  0  0  0  0  0  0  0
    6.3302    6.4830   28.8084 C   0  0  0  0  0  0  0  0  0  0  0  0
    7.1256    7.3360   29.1727 O   0  5  0  0  0  0  0  0  0  0  0  0
    4.2972    6.0190   30.2719 C   0  0  0  0  0  0  0  0  0  0  0  0
    4.4758    4.5024   30.1345 C   0  0  0  0  0  0  0  0  0  0  0  0
    3.9241    3.8076   31.3745 C   0  0  0  0  0  0  0  0  0  0  0  0
    3.6675    2.3680   31.0776 N   0  0  0  0  0  0  0  0  0  0  0  0
    2.4412    1.9037   31.0653 C   0  0  0  0  0  0  0  0  0  0  0  0
    1.4588    2.6432   30.6136 N   0  0  0  0  0  0  0  0  0  0  0  0
    2.1976    0.6955   31.5008 N   0  3  0  0  0  0  0  0  0  0  0  0
    6.6595    5.4312   28.2805 O   0  0  0  0  0  0  0  0  0  0  0  0
  2  1  1  6  0  0  0
  2  5  1  0  0  0  0
  2  3  1  0  0  0  0
  3  4  1  0  0  0  0
  3 12  2  0  0  0  0
  5  6  1  0  0  0  0
  6  7  1  0  0  0  0
  7  8  1  0  0  0  0
  8  9  1  0  0  0  0
  9 10  1  0  0  0  0
  9 11  2  0  0  0  0
M  CHG  3   1   1   4  -1  11   1
M  END
>  <CHROM.1>
87.55063162,59.77193798,139.54132233,-179.10554816,161.08048147,-113.24954469
4.27611926,4.50225176,29.89558668,0.96625229,-0.18167376,-0.59594051

>  <Name>
1koc cryst

>  <RI>
0

>  <Rbt.Current_Directory>
/home/itssahil/PROJECTS/Mol_Feturizer/New_Systems/rnas/1koc

>  <Rbt.Executable>
rbdock ($Id: //depot/dev/client3/rdock/2013.1/src/exe/rbdock.cxx#4 $)

>  <Rbt.Library>
libRbt.so (2013.1, Build901 2013/11/27)

>  <Rbt.Parameter_File>
/export/apps/rDock/src/rDock_2013.1_src/data/scripts/dock_solv.prm

>  <Rbt.Receptor>
prm/pocket_docking_4.prm

>  <SCORE>
-33.4313

>  <SCORE.INTER>
-32.8884

>  <SCORE.INTER.CONST>
1

>  <SCORE.INTER.POLAR>
-6.53141

>  <SCORE.INTER.ROT>
5

>  <SCORE.INTER.SOLV>
23.565

>  <SCORE.INTER.VDW>
-14.9426

>  <SCORE.INTER.norm>
-2.7407

>  <SCORE.INTRA>
-0.542849

>  <SCORE.INTRA.DIHEDRAL>
0.230435

>  <SCORE.INTRA.DIHEDRAL.0>
6.04201

>  <SCORE.INTRA.POLAR>
0

>  <SCORE.INTRA.POLAR.0>
0

>  <SCORE.INTRA.REPUL>
0

>  <SCORE.INTRA.REPUL.0>
0

>  <SCORE.INTRA.SOLV>
0.413209

>  <SCORE.INTRA.SOLV.lig_0>
-71.0481

>  <SCORE.INTRA.VDW>
-0.864671

>  <SCORE.INTRA.VDW.0>
0.968882

>  <SCORE.INTRA.norm>
-0.0452374

>  <SCORE.RESTR>
0

>  <SCORE.RESTR.CAVITY>
0

>  <SCORE.RESTR.norm>
0

>  <SCORE.SYSTEM>
0

>  <SCORE.SYSTEM.CONST>
0

>  <SCORE.SYSTEM.DIHEDRAL>
0

>  <SCORE.SYSTEM.SOLV>
0

>  <SCORE.SYSTEM.norm>
0

>  <SCORE.heavy>
12

>  <SCORE.norm>
-2.78594

>  <SYMMETRIC_BONDS>
11 12 2
5 6 2

>  <RMSD>
2.569

$$$$
1koc cryst
 OpenBabel11021811393D
libRbt.so/2013.1/901 2013/11/27
 12 11  0  0  0  0  0  0  0  0999 V2000
    4.0439    6.8034   26.9672 N   0  3  0  0  0  0  0  0  0  0  0  0
    4.0193    6.7891   28.4612 C   0  0  2  0  0  0  0  0  0  0  0  0
    5.1721    7.6642   28.9911 C   0  0  0  0  0  0  0  0  0  0  0  0
    5.9042    8.2030   28.1745 O   0  5  0  0  0  0  0  0  0  0  0  0
    4.1627    5.3253   28.9582 C   0  0  0  0  0  0  0  0  0  0  0  0
    2.9830    4.9288   29.8537 C   0  0  0  0  0  0  0  0  0  0  0  0
    3.4424    3.8973   30.8784 C   0  0  0  0  0  0  0  0  0  0  0  0
    3.1432    2.5220   30.3832 N   0  0  0  0  0  0  0  0  0  0  0  0
    2.2557    1.7767   30.9967 C   0  0  0  0  0  0  0  0  0  0  0  0
    1.1800    2.3184   31.5119 N   0  0  0  0  0  0  0  0  0  0  0  0
    2.4419    0.4862   31.0909 N   0  3  0  0  0  0  0  0  0  0  0  0
    5.3109    7.7724   30.2003 O   0  0  0  0  0  0  0  0  0  0  0  0
  2  1  1  6  0  0  0
  2  5  1  0  0  0  0
  2  3  1  0  0  0  0
  3  4  1  0  0  0  0
  3 12  2  0  0  0  0
  5  6  1  0  0  0  0
  6  7  1  0  0  0  0
  7  8  1  0  0  0  0
  8  9  1  0  0  0  0
  9 10  1  0  0  0  0
  9 11  2  0  0  0  0
M  CHG  3   1   1   4  -1  11   1
M  END
>  <CHROM.1>
-168.26541733,-123.08389680,-0.58559666,-149.84932898,-95.48255942,-113.47786565
3.67208601,4.87198568,29.68002875,0.60860797,-1.05559465,-1.31704526

>  <Name>
1koc cryst

>  <RI>
0

>  <Rbt.Current_Directory>
/home/itssahil/PROJECTS/Mol_Feturizer/New_Systems/rnas/1koc

>  <Rbt.Executable>
rbdock ($Id: //depot/dev/client3/rdock/2013.1/src/exe/rbdock.cxx#4 $)

>  <Rbt.Library>
libRbt.so (2013.1, Build901 2013/11/27)

>  <Rbt.Parameter_File>
/export/apps/rDock/src/rDock_2013.1_src/data/scripts/dock_solv.prm

>  <Rbt.Receptor>
prm/pocket_docking_7.prm

>  <SCORE>
-35.5249

>  <SCORE.INTER>
-37.7257

>  <SCORE.INTER.CONST>
1

>  <SCORE.INTER.POLAR>
-7.13474

>  <SCORE.INTER.ROT>
5

>  <SCORE.INTER.SOLV>
29.0772

>  <SCORE.INTER.VDW>
-17.9937

>  <SCORE.INTER.norm>
-3.14381

>  <SCORE.INTRA>
2.20081

>  <SCORE.INTRA.DIHEDRAL>
9.45682

>  <SCORE.INTRA.DIHEDRAL.0>
6.04201

>  <SCORE.INTRA.POLAR>
0

>  <SCORE.INTRA.POLAR.0>
0

>  <SCORE.INTRA.REPUL>
0

>  <SCORE.INTRA.REPUL.0>
0

>  <SCORE.INTRA.SOLV>
-0.83808

>  <SCORE.INTRA.SOLV.lig_0>
-71.0481

>  <SCORE.INTRA.VDW>
-2.10856

>  <SCORE.INTRA.VDW.0>
0.968882

>  <SCORE.INTRA.norm>
0.183401

>  <SCORE.RESTR>
0

>  <SCORE.RESTR.CAVITY>
0

>  <SCORE.RESTR.norm>
0

>  <SCORE.SYSTEM>
0

>  <SCORE.SYSTEM.CONST>
0

>  <SCORE.SYSTEM.DIHEDRAL>
0

>  <SCORE.SYSTEM.SOLV>
0

>  <SCORE.SYSTEM.norm>
0

>  <SCORE.heavy>
12

>  <SCORE.norm>
-2.96041

>  <SYMMETRIC_BONDS>
11 12 2
5 6 2

>  <RMSD>
2.578

$$$$
1koc cryst
 OpenBabel11021811393D
libRbt.so/2013.1/901 2013/11/27
 12 11  0  0  0  0  0  0  0  0999 V2000
    4.0131    6.7219   27.1072 N   0  3  0  0  0  0  0  0  0  0  0  0
    4.1552    6.4695   28.5731 C   0  0  2  0  0  0  0  0  0  0  0  0
    5.6429    6.5808   28.9602 C   0  0  0  0  0  0  0  0  0  0  0  0
    5.9574    7.4205   29.7903 O   0  5  0  0  0  0  0  0  0  0  0  0
    3.6024    5.0565   28.9018 C   0  0  0  0  0  0  0  0  0  0  0  0
    3.8541    4.6935   30.3700 C   0  0  0  0  0  0  0  0  0  0  0  0
    3.4143    3.2559   30.6245 C   0  0  0  0  0  0  0  0  0  0  0  0
    2.0601    3.2428   31.2506 N   0  0  0  0  0  0  0  0  0  0  0  0
    1.2566    2.2227   31.0674 C   0  0  0  0  0  0  0  0  0  0  0  0
    1.7376    1.0062   30.9989 N   0  0  0  0  0  0  0  0  0  0  0  0
   -0.0311    2.4193   30.9575 N   0  3  0  0  0  0  0  0  0  0  0  0
    6.4426    5.8353   28.4143 O   0  0  0  0  0  0  0  0  0  0  0  0
  2  1  1  6  0  0  0
  2  5  1  0  0  0  0
  2  3  1  0  0  0  0
  3  4  1  0  0  0  0
  3 12  2  0  0  0  0
  5  6  1  0  0  0  0
  6  7  1  0  0  0  0
  7  8  1  0  0  0  0
  8  9  1  0  0  0  0
  9 10  1  0  0  0  0
  9 11  2  0  0  0  0
M  CHG  3   1   1   4  -1  11   1
M  END
>  <CHROM.1>
41.47011612,174.28996954,120.35881001,-174.88514302,-99.14490842,151.74648443
3.50119407,4.58121036,29.72520920,0.84340066,-0.36125675,-0.80652431

>  <Name>
1koc cryst

>  <RI>
0

>  <Rbt.Current_Directory>
/home/itssahil/PROJECTS/Mol_Feturizer/New_Systems/rnas/1koc

>  <Rbt.Executable>
rbdock ($Id: //depot/dev/client3/rdock/2013.1/src/exe/rbdock.cxx#4 $)

>  <Rbt.Library>
libRbt.so (2013.1, Build901 2013/11/27)

>  <Rbt.Parameter_File>
/export/apps/rDock/src/rDock_2013.1_src/data/scripts/dock_solv.prm

>  <Rbt.Receptor>
prm/pocket_docking_4.prm

>  <SCORE>
-35.6934

>  <SCORE.INTER>
-34.7792

>  <SCORE.INTER.CONST>
1

>  <SCORE.INTER.POLAR>
-6.6116

>  <SCORE.INTER.ROT>
5

>  <SCORE.INTER.SOLV>
26.7115

>  <SCORE.INTER.VDW>
-16.9846

>  <SCORE.INTER.norm>
-2.89826

>  <SCORE.INTRA>
-0.914233

>  <SCORE.INTRA.DIHEDRAL>
2.44347

>  <SCORE.INTRA.DIHEDRAL.0>
6.04201

>  <SCORE.INTRA.POLAR>
0

>  <SCORE.INTRA.POLAR.0>
0

>  <SCORE.INTRA.REPUL>
0

>  <SCORE.INTRA.REPUL.0>
0

>  <SCORE.INTRA.SOLV>
-1.15936

>  <SCORE.INTRA.SOLV.lig_0>
-71.0481

>  <SCORE.INTRA.VDW>
-1.55629

>  <SCORE.INTRA.VDW.0>
0.968882

>  <SCORE.INTRA.norm>
-0.0761861

>  <SCORE.RESTR>
0

>  <SCORE.RESTR.CAVITY>
0

>  <SCORE.RESTR.norm>
0

>  <SCORE.SYSTEM>
0

>  <SCORE.SYSTEM.CONST>
0

>  <SCORE.SYSTEM.DIHEDRAL>
0

>  <SCORE.SYSTEM.SOLV>
0

>  <SCORE.SYSTEM.norm>
0

>  <SCORE.heavy>
12

>  <SCORE.norm>
-2.97445

>  <SYMMETRIC_BONDS>
11 12 2
5 6 2

>  <RMSD>
2.581

$$$$
1koc cryst
 OpenBabel11021811393D
libRbt.so/2013.1/901 2013/11/27
 12 11  0  0  0  0  0  0  0  0999 V2000
    4.2343    7.5092   27.1439 N   0  3  0  0  0  0  0  0  0  0  0  0
    4.2251    7.3091   28.6246 C   0  0  2  0  0  0  0  0  0  0  0  0
    5.4186    8.0647   29.2412 C   0  0  0  0  0  0  0  0  0  0  0  0
    5.3300    8.4224   30.4062 O   0  5  0  0  0  0  0  0  0  0  0  0
    4.3131    5.7902   28.9332 C   0  0  0  0  0  0  0  0  0  0  0  0
    3.1465    5.3390   29.8200 C   0  0  0  0  0  0  0  0  0  0  0  0
    3.5112    4.0351   30.5213 C   0  0  0  0  0  0  0  0  0  0  0  0
    2.3024    3.4565   31.1773 N   0  0  0  0  0  0  0  0  0  0  0  0
    2.1088    2.1595   31.1806 C   0  0  0  0  0  0  0  0  0  0  0  0
    3.1242    1.3397   31.2944 N   0  0  0  0  0  0  0  0  0  0  0  0
    0.8967    1.6815   31.0751 N   0  3  0  0  0  0  0  0  0  0  0  0
    6.3940    8.2828   28.5380 O   0  0  0  0  0  0  0  0  0  0  0  0
  2  1  1  6  0  0  0
  2  5  1  0  0  0  0
  2  3  1  0  0  0  0
  3  4  1  0  0  0  0
  3 12  2  0  0  0  0
  5  6  1  0  0  0  0
  6  7  1  0  0  0  0
  7  8  1  0  0  0  0
  8  9  1  0  0  0  0
  9 10  1  0  0  0  0
  9 11  2  0  0  0  0
M  CHG  3   1   1   4  -1  11   1
M  END
>  <CHROM.1>
81.36426439,-124.50412558,154.43039035,-159.06141869,-169.37271149,142.02374688
3.75082143,5.28425493,29.80895833,0.85543828,-0.82391271,-0.96007851

>  <Name>
1koc cryst

>  <RI>
0

>  <Rbt.Current_Directory>
/home/itssahil/PROJECTS/Mol_Feturizer/New_Systems/rnas/1koc

>  <Rbt.Executable>
rbdock ($Id: //depot/dev/client3/rdock/2013.1/src/exe/rbdock.cxx#4 $)

>  <Rbt.Library>
libRbt.so (2013.1, Build901 2013/11/27)

>  <Rbt.Parameter_File>
/export/apps/rDock/src/rDock_2013.1_src/data/scripts/dock_solv.prm

>  <Rbt.Receptor>
prm/pocket_docking_7.prm

>  <SCORE>
-29.9668

>  <SCORE.INTER>
-30.036

>  <SCORE.INTER.CONST>
1

>  <SCORE.INTER.POLAR>
-5.57787

>  <SCORE.INTER.ROT>
5

>  <SCORE.INTER.SOLV>
23.5253

>  <SCORE.INTER.VDW>
-16.2062

>  <SCORE.INTER.norm>
-2.503

>  <SCORE.INTRA>
0.0658557

>  <SCORE.INTRA.DIHEDRAL>
5.56931

>  <SCORE.INTRA.DIHEDRAL.0>
6.04201

>  <SCORE.INTRA.POLAR>
0

>  <SCORE.INTRA.POLAR.0>
0

>  <SCORE.INTRA.REPUL>
0

>  <SCORE.INTRA.REPUL.0>
0

>  <SCORE.INTRA.SOLV>
-1.64405

>  <SCORE.INTRA.SOLV.lig_0>
-71.0481

>  <SCORE.INTRA.VDW>
-1.89677

>  <SCORE.INTRA.VDW.0>
0.968882

>  <SCORE.INTRA.norm>
0.00548797

>  <SCORE.RESTR>
0.00329978

>  <SCORE.RESTR.CAVITY>
0.00329978

>  <SCORE.RESTR.norm>
0.000274982

>  <SCORE.SYSTEM>
0

>  <SCORE.SYSTEM.CONST>
0

>  <SCORE.SYSTEM.DIHEDRAL>
0

>  <SCORE.SYSTEM.SOLV>
0

>  <SCORE.SYSTEM.norm>
0

>  <SCORE.heavy>
12

>  <SCORE.norm>
-2.49723

>  <SYMMETRIC_BONDS>
11 12 2
5 6 2

>  <RMSD>
2.589

$$$$
1koc cryst
 OpenBabel11021811393D
libRbt.so/2013.1/901 2013/11/27
 12 11  0  0  0  0  0  0  0  0999 V2000
    6.4450    5.1817   27.7233 N   0  3  0  0  0  0  0  0  0  0  0  0
    5.1216    5.4074   28.3795 C   0  0  2  0  0  0  0  0  0  0  0  0
    5.0435    6.8686   28.8635 C   0  0  0  0  0  0  0  0  0  0  0  0
    4.4343    7.0976   29.8977 O   0  5  0  0  0  0  0  0  0  0  0  0
    4.9692    4.4218   29.5693 C   0  0  0  0  0  0  0  0  0  0  0  0
    3.5093    4.3341   30.0294 C   0  0  0  0  0  0  0  0  0  0  0  0
    3.4354    3.5920   31.3594 C   0  0  0  0  0  0  0  0  0  0  0  0
    3.3538    2.1221   31.1164 N   0  0  0  0  0  0  0  0  0  0  0  0
    2.2001    1.5030   31.1885 C   0  0  0  0  0  0  0  0  0  0  0  0
    1.1059    2.0934   30.7760 N   0  0  0  0  0  0  0  0  0  0  0  0
    2.1413    0.2889   31.6695 N   0  3  0  0  0  0  0  0  0  0  0  0
    5.5823    7.7336   28.1891 O   0  0  0  0  0  0  0  0  0  0  0  0
  2  1  1  1  0  0  0
  2  5  1  0  0  0  0
  2  3  1  0  0  0  0
  3  4  1  0  0  0  0
  3 12  2  0  0  0  0
  5  6  1  0  0  0  0
  6  7  1  0  0  0  0
  7  8  1  0  0  0  0
  8  9  1  0  0  0  0
  9 10  1  0  0  0  0
  9 11  2  0  0  0  0
M  CHG  3   1   1   4  -1  11   1
M  END
>  <CHROM.1>
158.00694173,-164.27802380,-145.56231207,-168.55104173,-86.46487918,-100.56450344
3.96110272,4.21533402,29.87967231,-0.91477428,-0.62951406,3.07517852

>  <Name>
1koc cryst

>  <RI>
0

>  <Rbt.Current_Directory>
/home/itssahil/PROJECTS/Mol_Feturizer/New_Systems/rnas/1koc

>  <Rbt.Executable>
rbdock ($Id: //depot/dev/client3/rdock/2013.1/src/exe/rbdock.cxx#4 $)

>  <Rbt.Library>
libRbt.so (2013.1, Build901 2013/11/27)

>  <Rbt.Parameter_File>
/export/apps/rDock/src/rDock_2013.1_src/data/scripts/dock_solv.prm

>  <Rbt.Receptor>
prm/pocket_docking_7.prm

>  <SCORE>
-26.5328

>  <SCORE.INTER>
-26.3569

>  <SCORE.INTER.CONST>
1

>  <SCORE.INTER.POLAR>
-5.30989

>  <SCORE.INTER.ROT>
5

>  <SCORE.INTER.SOLV>
21.5275

>  <SCORE.INTER.VDW>
-13.9808

>  <SCORE.INTER.norm>
-2.19641

>  <SCORE.INTRA>
-0.175939

>  <SCORE.INTRA.DIHEDRAL>
2.07083

>  <SCORE.INTRA.DIHEDRAL.0>
6.04201

>  <SCORE.INTRA.POLAR>
0

>  <SCORE.INTRA.POLAR.0>
0

>  <SCORE.INTRA.REPUL>
0

>  <SCORE.INTRA.REPUL.0>
0

>  <SCORE.INTRA.SOLV>
-0.48079

>  <SCORE.INTRA.SOLV.lig_0>
-71.0481

>  <SCORE.INTRA.VDW>
-0.970961

>  <SCORE.INTRA.VDW.0>
0.968882

>  <SCORE.INTRA.norm>
-0.0146616

>  <SCORE.RESTR>
0

>  <SCORE.RESTR.CAVITY>
0

>  <SCORE.RESTR.norm>
0

>  <SCORE.SYSTEM>
0

>  <SCORE.SYSTEM.CONST>
0

>  <SCORE.SYSTEM.DIHEDRAL>
0

>  <SCORE.SYSTEM.SOLV>
0

>  <SCORE.SYSTEM.norm>
0

>  <SCORE.heavy>
12

>  <SCORE.norm>
-2.21107

>  <SYMMETRIC_BONDS>
11 12 2
5 6 2

>  <RMSD>
2.590

$$$$
1koc cryst
 OpenBabel11021811393D
libRbt.so/2013.1/901 2013/11/27
 12 11  0  0  0  0  0  0  0  0999 V2000
    4.1771    5.9346   27.9460 N   0  3  0  0  0  0  0  0  0  0  0  0
    4.8217    6.3128   29.2399 C   0  0  2  0  0  0  0  0  0  0  0  0
    5.3058    7.7734   29.1522 C   0  0  0  0  0  0  0  0  0  0  0  0
    4.8380    8.5802   29.9416 O   0  5  0  0  0  0  0  0  0  0  0  0
    6.0095    5.3521   29.5163 C   0  0  0  0  0  0  0  0  0  0  0  0
    5.5622    3.8872   29.4451 C   0  0  0  0  0  0  0  0  0  0  0  0
    4.6463    3.5739   30.6232 C   0  0  0  0  0  0  0  0  0  0  0  0
    4.0729    2.2049   30.4701 N   0  0  0  0  0  0  0  0  0  0  0  0
    2.7931    1.9982   30.6672 C   0  0  0  0  0  0  0  0  0  0  0  0
    1.9146    2.9017   30.3096 N   0  0  0  0  0  0  0  0  0  0  0  0
    2.3906    0.8833   31.2186 N   0  3  0  0  0  0  0  0  0  0  0  0
    6.1250    8.0633   28.2930 O   0  0  0  0  0  0  0  0  0  0  0  0
  2  1  1  6  0  0  0
  2  5  1  0  0  0  0
  2  3  1  0  0  0  0
  3  4  1  0  0  0  0
  3 12  2  0  0  0  0
  5  6  1  0  0  0  0
  6  7  1  0  0  0  0
  7  8  1  0  0  0  0
  8  9  1  0  0  0  0
  9 10  1  0  0  0  0
  9 11  2  0  0  0  0
M  CHG  3   1   1   4  -1  11   1
M  END
>  <CHROM.1>
-173.67660213,-53.39628119,119.29527377,-68.95632023,173.01576778,-133.91930015
4.35682335,4.78973071,29.71145185,1.17332279,0.15090960,-0.23820673

>  <Name>
1koc cryst

>  <RI>
0

>  <Rbt.Current_Directory>
/home/itssahil/PROJECTS/Mol_Feturizer/New_Systems/rnas/1koc

>  <Rbt.Executable>
rbdock ($Id: //depot/dev/client3/rdock/2013.1/src/exe/rbdock.cxx#4 $)

>  <Rbt.Library>
libRbt.so (2013.1, Build901 2013/11/27)

>  <Rbt.Parameter_File>
/export/apps/rDock/src/rDock_2013.1_src/data/scripts/dock_solv.prm

>  <Rbt.Receptor>
prm/pocket_docking_5.prm

>  <SCORE>
-32.6832

>  <SCORE.INTER>
-30.4321

>  <SCORE.INTER.CONST>
1

>  <SCORE.INTER.POLAR>
-6.34393

>  <SCORE.INTER.ROT>
5

>  <SCORE.INTER.SOLV>
23.8387

>  <SCORE.INTER.VDW>
-14.0212

>  <SCORE.INTER.norm>
-2.53601

>  <SCORE.INTRA>
-2.25118

>  <SCORE.INTRA.DIHEDRAL>
-1.8419

>  <SCORE.INTRA.DIHEDRAL.0>
6.04201

>  <SCORE.INTRA.POLAR>
0

>  <SCORE.INTRA.POLAR.0>
0

>  <SCORE.INTRA.REPUL>
0

>  <SCORE.INTRA.REPUL.0>
0

>  <SCORE.INTRA.SOLV>
0.426243

>  <SCORE.INTRA.SOLV.lig_0>
-71.0481

>  <SCORE.INTRA.VDW>
-1.54335

>  <SCORE.INTRA.VDW.0>
0.968882

>  <SCORE.INTRA.norm>
-0.187598

>  <SCORE.RESTR>
0

>  <SCORE.RESTR.CAVITY>
0

>  <SCORE.RESTR.norm>
0

>  <SCORE.SYSTEM>
0

>  <SCORE.SYSTEM.CONST>
0

>  <SCORE.SYSTEM.DIHEDRAL>
0

>  <SCORE.SYSTEM.SOLV>
0

>  <SCORE.SYSTEM.norm>
0

>  <SCORE.heavy>
12

>  <SCORE.norm>
-2.7236

>  <SYMMETRIC_BONDS>
11 12 2
5 6 2

>  <RMSD>
2.609

$$$$
1koc cryst
 OpenBabel11021811393D
libRbt.so/2013.1/901 2013/11/27
 12 11  0  0  0  0  0  0  0  0999 V2000
    4.0633    6.6947   27.0715 N   0  3  0  0  0  0  0  0  0  0  0  0
    4.3129    6.6280   28.5433 C   0  0  2  0  0  0  0  0  0  0  0  0
    5.8102    6.8772   28.8108 C   0  0  0  0  0  0  0  0  0  0  0  0
    6.5907    5.9622   28.5948 O   0  5  0  0  0  0  0  0  0  0  0  0
    3.8819    5.2324   29.0694 C   0  0  0  0  0  0  0  0  0  0  0  0
    2.3559    5.1314   29.1790 C   0  0  0  0  0  0  0  0  0  0  0  0
    1.9778    4.5459   30.5352 C   0  0  0  0  0  0  0  0  0  0  0  0
    2.2224    3.0740   30.5385 N   0  0  0  0  0  0  0  0  0  0  0  0
    1.3563    2.2610   31.0939 C   0  0  0  0  0  0  0  0  0  0  0  0
    0.0723    2.5083   31.0148 N   0  0  0  0  0  0  0  0  0  0  0  0
    1.7749    1.1956   31.7253 N   0  3  0  0  0  0  0  0  0  0  0  0
    6.1500    7.9711   29.2366 O   0  0  0  0  0  0  0  0  0  0  0  0
  2  1  1  6  0  0  0
  2  5  1  0  0  0  0
  2  3  1  0  0  0  0
  3  4  1  0  0  0  0
  3 12  2  0  0  0  0
  5  6  1  0  0  0  0
  6  7  1  0  0  0  0
  7  8  1  0  0  0  0
  8  9  1  0  0  0  0
  9 10  1  0  0  0  0
  9 11  2  0  0  0  0
M  CHG  3   1   1   4  -1  11   1
M  END
>  <CHROM.1>
-75.35000109,-76.16873325,-77.07407183,-132.57889463,-76.14337933,-138.37737154
3.38709155,4.83229865,29.59622678,0.87522997,-0.20528619,-0.69303504

>  <Name>
1koc cryst

>  <RI>
0

>  <Rbt.Current_Directory>
/home/itssahil/PROJECTS/Mol_Feturizer/New_Systems/rnas/1koc

>  <Rbt.Executable>
rbdock ($Id: //depot/dev/client3/rdock/2013.1/src/exe/rbdock.cxx#4 $)

>  <Rbt.Library>
libRbt.so (2013.1, Build901 2013/11/27)

>  <Rbt.Parameter_File>
/export/apps/rDock/src/rDock_2013.1_src/data/scripts/dock_solv.prm

>  <Rbt.Receptor>
prm/pocket_docking_5.prm

>  <SCORE>
-28.3121

>  <SCORE.INTER>
-28.7588

>  <SCORE.INTER.CONST>
1

>  <SCORE.INTER.POLAR>
-4.9858

>  <SCORE.INTER.ROT>
5

>  <SCORE.INTER.SOLV>
26.384

>  <SCORE.INTER.VDW>
-18.2812

>  <SCORE.INTER.norm>
-2.39657

>  <SCORE.INTRA>
0.446751

>  <SCORE.INTRA.DIHEDRAL>
5.22365

>  <SCORE.INTRA.DIHEDRAL.0>
6.04201

>  <SCORE.INTRA.POLAR>
0

>  <SCORE.INTRA.POLAR.0>
0

>  <SCORE.INTRA.REPUL>
0

>  <SCORE.INTRA.REPUL.0>
0

>  <SCORE.INTRA.SOLV>
-1.06738

>  <SCORE.INTRA.SOLV.lig_0>
-71.0481

>  <SCORE.INTRA.VDW>
-1.63139

>  <SCORE.INTRA.VDW.0>
0.968882

>  <SCORE.INTRA.norm>
0.0372293

>  <SCORE.RESTR>
0

>  <SCORE.RESTR.CAVITY>
0

>  <SCORE.RESTR.norm>
0

>  <SCORE.SYSTEM>
0

>  <SCORE.SYSTEM.CONST>
0

>  <SCORE.SYSTEM.DIHEDRAL>
0

>  <SCORE.SYSTEM.SOLV>
0

>  <SCORE.SYSTEM.norm>
0

>  <SCORE.heavy>
12

>  <SCORE.norm>
-2.35934

>  <SYMMETRIC_BONDS>
11 12 2
5 6 2

>  <RMSD>
2.609

$$$$
1koc cryst
 OpenBabel11021811393D
libRbt.so/2013.1/901 2013/11/27
 12 11  0  0  0  0  0  0  0  0999 V2000
    4.4279    7.2268   27.2066 N   0  3  0  0  0  0  0  0  0  0  0  0
    4.7031    6.6853   28.5719 C   0  0  2  0  0  0  0  0  0  0  0  0
    6.0970    6.0276   28.5800 C   0  0  0  0  0  0  0  0  0  0  0  0
    6.9411    6.4836   29.3367 O   0  5  0  0  0  0  0  0  0  0  0  0
    3.6029    5.6543   28.9413 C   0  0  0  0  0  0  0  0  0  0  0  0
    3.7048    5.2429   30.4148 C   0  0  0  0  0  0  0  0  0  0  0  0
    2.5318    4.3382   30.7760 C   0  0  0  0  0  0  0  0  0  0  0  0
    2.8018    2.9468   30.3097 N   0  0  0  0  0  0  0  0  0  0  0  0
    2.3535    1.9215   30.9935 C   0  0  0  0  0  0  0  0  0  0  0  0
    1.1891    1.9831   31.5904 N   0  0  0  0  0  0  0  0  0  0  0  0
    3.0690    0.8306   31.0762 N   0  3  0  0  0  0  0  0  0  0  0  0
    6.3010    5.0893   27.8242 O   0  0  0  0  0  0  0  0  0  0  0  0
  2  1  1  6  0  0  0
  2  5  1  0  0  0  0
  2  3  1  0  0  0  0
  3  4  1  0  0  0  0
  3 12  2  0  0  0  0
  5  6  1  0  0  0  0
  6  7  1  0  0  0  0
  7  8  1  0  0  0  0
  8  9  1  0  0  0  0
  9 10  1  0  0  0  0
  9 11  2  0  0  0  0
M  CHG  3   1   1   4  -1  11   1
M  END
>  <CHROM.1>
-68.02445843,-170.58121175,119.01103050,174.52520568,80.10211211,146.72405924
3.98548711,4.52711170,29.60780430,0.99032896,0.21432564,-0.43574319

>  <Name>
1koc cryst

>  <RI>
0

>  <Rbt.Current_Directory>
/home/itssahil/PROJECTS/Mol_Feturizer/New_Systems/rnas/1koc

>  <Rbt.Executable>
rbdock ($Id: //depot/dev/client3/rdock/2013.1/src/exe/rbdock.cxx#4 $)

>  <Rbt.Library>
libRbt.so (2013.1, Build901 2013/11/27)

>  <Rbt.Parameter_File>
/export/apps/rDock/src/rDock_2013.1_src/data/scripts/dock_solv.prm

>  <Rbt.Receptor>
prm/pocket_docking_7.prm

>  <SCORE>
-37.3218

>  <SCORE.INTER>
-34.3971

>  <SCORE.INTER.CONST>
1

>  <SCORE.INTER.POLAR>
-6.21129

>  <SCORE.INTER.ROT>
5

>  <SCORE.INTER.SOLV>
27.1072

>  <SCORE.INTER.VDW>
-18.1962

>  <SCORE.INTER.norm>
-2.86643

>  <SCORE.INTRA>
-2.92471

>  <SCORE.INTRA.DIHEDRAL>
-0.612409

>  <SCORE.INTRA.DIHEDRAL.0>
6.04201

>  <SCORE.INTRA.POLAR>
0

>  <SCORE.INTRA.POLAR.0>
0

>  <SCORE.INTRA.REPUL>
0

>  <SCORE.INTRA.REPUL.0>
0

>  <SCORE.INTRA.SOLV>
-1.29865

>  <SCORE.INTRA.SOLV.lig_0>
-71.0481

>  <SCORE.INTRA.VDW>
-1.96918

>  <SCORE.INTRA.VDW.0>
0.968882

>  <SCORE.INTRA.norm>
-0.243726

>  <SCORE.RESTR>
0

>  <SCORE.RESTR.CAVITY>
0

>  <SCORE.RESTR.norm>
0

>  <SCORE.SYSTEM>
0

>  <SCORE.SYSTEM.CONST>
0

>  <SCORE.SYSTEM.DIHEDRAL>
0

>  <SCORE.SYSTEM.SOLV>
0

>  <SCORE.SYSTEM.norm>
0

>  <SCORE.heavy>
12

>  <SCORE.norm>
-3.11015

>  <SYMMETRIC_BONDS>
11 12 2
5 6 2

>  <RMSD>
2.610

$$$$
1koc cryst
 OpenBabel11021811393D
libRbt.so/2013.1/901 2013/11/27
 12 11  0  0  0  0  0  0  0  0999 V2000
    4.1888    6.0881   27.5271 N   0  3  0  0  0  0  0  0  0  0  0  0
    4.0888    6.9288   28.7584 C   0  0  2  0  0  0  0  0  0  0  0  0
    5.2091    7.9871   28.7366 C   0  0  0  0  0  0  0  0  0  0  0  0
    4.9647    9.0895   29.2036 O   0  5  0  0  0  0  0  0  0  0  0  0
    4.2138    6.0168   30.0085 C   0  0  0  0  0  0  0  0  0  0  0  0
    3.2529    4.8253   29.9203 C   0  0  0  0  0  0  0  0  0  0  0  0
    3.3799    3.9712   31.1770 C   0  0  0  0  0  0  0  0  0  0  0  0
    3.2397    2.5278   30.8259 N   0  0  0  0  0  0  0  0  0  0  0  0
    2.1016    1.9069   31.0228 C   0  0  0  0  0  0  0  0  0  0  0  0
    0.9660    2.5326   30.8359 N   0  0  0  0  0  0  0  0  0  0  0  0
    2.0992    0.6560   31.4025 N   0  3  0  0  0  0  0  0  0  0  0  0
    6.2857    7.6833   28.2449 O   0  0  0  0  0  0  0  0  0  0  0  0
  2  1  1  6  0  0  0
  2  5  1  0  0  0  0
  2  3  1  0  0  0  0
  3  4  1  0  0  0  0
  3 12  2  0  0  0  0
  5  6  1  0  0  0  0
  6  7  1  0  0  0  0
  7  8  1  0  0  0  0
  8  9  1  0  0  0  0
  9 10  1  0  0  0  0
  9 11  2  0  0  0  0
M  CHG  3   1   1   4  -1  11   1
M  END
>  <CHROM.1>
-129.82544119,-50.51559452,144.88659968,-178.69608558,-143.27833344,-100.30076205
3.66548009,5.00175537,29.77574703,-0.41918778,-1.08283856,-2.43501637

>  <Name>
1koc cryst

>  <RI>
0

>  <Rbt.Current_Directory>
/home/itssahil/PROJECTS/Mol_Feturizer/New_Systems/rnas/1koc

>  <Rbt.Executable>
rbdock ($Id: //depot/dev/client3/rdock/2013.1/src/exe/rbdock.cxx#4 $)

>  <Rbt.Library>
libRbt.so (2013.1, Build901 2013/11/27)

>  <Rbt.Parameter_File>
/export/apps/rDock/src/rDock_2013.1_src/data/scripts/dock_solv.prm

>  <Rbt.Receptor>
prm/pocket_docking_7.prm

>  <SCORE>
-28.3568

>  <SCORE.INTER>
-29.8982

>  <SCORE.INTER.CONST>
1

>  <SCORE.INTER.POLAR>
-5.39972

>  <SCORE.INTER.ROT>
5

>  <SCORE.INTER.SOLV>
26.4143

>  <SCORE.INTER.VDW>
-17.6712

>  <SCORE.INTER.norm>
-2.49152

>  <SCORE.INTRA>
1.54136

>  <SCORE.INTRA.DIHEDRAL>
4.80793

>  <SCORE.INTRA.DIHEDRAL.0>
6.04201

>  <SCORE.INTRA.POLAR>
0

>  <SCORE.INTRA.POLAR.0>
0

>  <SCORE.INTRA.REPUL>
0

>  <SCORE.INTRA.REPUL.0>
0

>  <SCORE.INTRA.SOLV>
-0.442595

>  <SCORE.INTRA.SOLV.lig_0>
-71.0481

>  <SCORE.INTRA.VDW>
-0.641313

>  <SCORE.INTRA.VDW.0>
0.968882

>  <SCORE.INTRA.norm>
0.128446

>  <SCORE.RESTR>
0

>  <SCORE.RESTR.CAVITY>
0

>  <SCORE.RESTR.norm>
0

>  <SCORE.SYSTEM>
0

>  <SCORE.SYSTEM.CONST>
0

>  <SCORE.SYSTEM.DIHEDRAL>
0

>  <SCORE.SYSTEM.SOLV>
0

>  <SCORE.SYSTEM.norm>
0

>  <SCORE.heavy>
12

>  <SCORE.norm>
-2.36307

>  <SYMMETRIC_BONDS>
11 12 2
5 6 2

>  <RMSD>
2.613

$$$$
1koc cryst
 OpenBabel11021811393D
libRbt.so/2013.1/901 2013/11/27
 12 11  0  0  0  0  0  0  0  0999 V2000
    4.4117    6.9954   27.3528 N   0  3  0  0  0  0  0  0  0  0  0  0
    4.8870    6.7505   28.7481 C   0  0  2  0  0  0  0  0  0  0  0  0
    6.4227    6.8762   28.7852 C   0  0  0  0  0  0  0  0  0  0  0  0
    6.9388    7.2911   29.8121 O   0  5  0  0  0  0  0  0  0  0  0  0
    4.4370    5.3342   29.1974 C   0  0  0  0  0  0  0  0  0  0  0  0
    2.9172    5.2739   29.3909 C   0  0  0  0  0  0  0  0  0  0  0  0
    2.5878    4.3772   30.5793 C   0  0  0  0  0  0  0  0  0  0  0  0
    2.8499    2.9512   30.2271 N   0  0  0  0  0  0  0  0  0  0  0  0
    2.3949    1.9871   30.9907 C   0  0  0  0  0  0  0  0  0  0  0  0
    1.2303    2.1034   31.5791 N   0  0  0  0  0  0  0  0  0  0  0  0
    3.1038    0.9022   31.1621 N   0  3  0  0  0  0  0  0  0  0  0  0
    7.0551    6.5675   27.7861 O   0  0  0  0  0  0  0  0  0  0  0  0
  2  1  1  6  0  0  0
  2  5  1  0  0  0  0
  2  3  1  0  0  0  0
  3  4  1  0  0  0  0
  3 12  2  0  0  0  0
  5  6  1  0  0  0  0
  6  7  1  0  0  0  0
  7  8  1  0  0  0  0
  8  9  1  0  0  0  0
  9 10  1  0  0  0  0
  9 11  2  0  0  0  0
M  CHG  3   1   1   4  -1  11   1
M  END
>  <CHROM.1>
-176.01831290,-69.49219115,148.31787561,-143.21428004,-71.54147990,-166.50971649
4.10985346,4.77749339,29.61177263,0.96396353,-0.09821063,-0.56414540

>  <Name>
1koc cryst

>  <RI>
0

>  <Rbt.Current_Directory>
/home/itssahil/PROJECTS/Mol_Feturizer/New_Systems/rnas/1koc

>  <Rbt.Executable>
rbdock ($Id: //depot/dev/client3/rdock/2013.1/src/exe/rbdock.cxx#4 $)

>  <Rbt.Library>
libRbt.so (2013.1, Build901 2013/11/27)

>  <Rbt.Parameter_File>
/export/apps/rDock/src/rDock_2013.1_src/data/scripts/dock_solv.prm

>  <Rbt.Receptor>
prm/pocket_docking_7.prm

>  <SCORE>
-36.9645

>  <SCORE.INTER>
-35.9487

>  <SCORE.INTER.CONST>
1

>  <SCORE.INTER.POLAR>
-6.50628

>  <SCORE.INTER.ROT>
5

>  <SCORE.INTER.SOLV>
24.7575

>  <SCORE.INTER.VDW>
-17.4641

>  <SCORE.INTER.norm>
-2.99573

>  <SCORE.INTRA>
-1.01573

>  <SCORE.INTRA.DIHEDRAL>
2.36676

>  <SCORE.INTRA.DIHEDRAL.0>
6.04201

>  <SCORE.INTRA.POLAR>
0

>  <SCORE.INTRA.POLAR.0>
0

>  <SCORE.INTRA.REPUL>
0

>  <SCORE.INTRA.REPUL.0>
0

>  <SCORE.INTRA.SOLV>
-0.858001

>  <SCORE.INTRA.SOLV.lig_0>
-71.0481

>  <SCORE.INTRA.VDW>
-1.77011

>  <SCORE.INTRA.VDW.0>
0.968882

>  <SCORE.INTRA.norm>
-0.0846442

>  <SCORE.RESTR>
0

>  <SCORE.RESTR.CAVITY>
0

>  <SCORE.RESTR.norm>
0

>  <SCORE.SYSTEM>
0

>  <SCORE.SYSTEM.CONST>
0

>  <SCORE.SYSTEM.DIHEDRAL>
0

>  <SCORE.SYSTEM.SOLV>
0

>  <SCORE.SYSTEM.norm>
0

>  <SCORE.heavy>
12

>  <SCORE.norm>
-3.08037

>  <SYMMETRIC_BONDS>
11 12 2
5 6 2

>  <RMSD>
2.614

$$$$
1koc cryst
 OpenBabel11021811393D
libRbt.so/2013.1/901 2013/11/27
 12 11  0  0  0  0  0  0  0  0999 V2000
    4.1673    7.4606   27.2401 N   0  3  0  0  0  0  0  0  0  0  0  0
    4.3339    7.2731   28.7132 C   0  0  2  0  0  0  0  0  0  0  0  0
    5.6182    7.9928   29.1692 C   0  0  0  0  0  0  0  0  0  0  0  0
    5.9019    7.9604   30.3573 O   0  5  0  0  0  0  0  0  0  0  0  0
    4.4096    5.7546   29.0272 C   0  0  0  0  0  0  0  0  0  0  0  0
    3.2125    5.3061   29.8737 C   0  0  0  0  0  0  0  0  0  0  0  0
    3.5533    4.0060   30.5938 C   0  0  0  0  0  0  0  0  0  0  0  0
    2.3216    3.4265   31.2049 N   0  0  0  0  0  0  0  0  0  0  0  0
    2.1099    2.1329   31.1662 C   0  0  0  0  0  0  0  0  0  0  0  0
    3.1108    1.2955   31.2795 N   0  0  0  0  0  0  0  0  0  0  0  0
    0.8940    1.6759   31.0191 N   0  3  0  0  0  0  0  0  0  0  0  0
    6.2892    8.5724   28.3283 O   0  0  0  0  0  0  0  0  0  0  0  0
  2  1  1  6  0  0  0
  2  5  1  0  0  0  0
  2  3  1  0  0  0  0
  3  4  1  0  0  0  0
  3 12  2  0  0  0  0
  5  6  1  0  0  0  0
  6  7  1  0  0  0  0
  7  8  1  0  0  0  0
  8  9  1  0  0  0  0
  9 10  1  0  0  0  0
  9 11  2  0  0  0  0
M  CHG  3   1   1   4  -1  11   1
M  END
>  <CHROM.1>
71.56787554,-115.25217908,178.91120497,-158.84469330,-169.18331305,139.73217925
3.82458154,5.23936570,29.80873069,0.93531529,-0.68047434,-0.83191060

>  <Name>
1koc cryst

>  <RI>
0

>  <Rbt.Current_Directory>
/home/itssahil/PROJECTS/Mol_Feturizer/New_Systems/rnas/1koc

>  <Rbt.Executable>
rbdock ($Id: //depot/dev/client3/rdock/2013.1/src/exe/rbdock.cxx#4 $)

>  <Rbt.Library>
libRbt.so (2013.1, Build901 2013/11/27)

>  <Rbt.Parameter_File>
/export/apps/rDock/src/rDock_2013.1_src/data/scripts/dock_solv.prm

>  <Rbt.Receptor>
prm/pocket_docking_4.prm

>  <SCORE>
-29.9299

>  <SCORE.INTER>
-29.797

>  <SCORE.INTER.CONST>
1

>  <SCORE.INTER.POLAR>
-5.60089

>  <SCORE.INTER.ROT>
5

>  <SCORE.INTER.SOLV>
23.2011

>  <SCORE.INTER.VDW>
-15.8621

>  <SCORE.INTER.norm>
-2.48309

>  <SCORE.INTRA>
-0.138785

>  <SCORE.INTRA.DIHEDRAL>
4.90499

>  <SCORE.INTRA.DIHEDRAL.0>
6.04201

>  <SCORE.INTRA.POLAR>
0

>  <SCORE.INTRA.POLAR.0>
0

>  <SCORE.INTRA.REPUL>
0

>  <SCORE.INTRA.REPUL.0>
0

>  <SCORE.INTRA.SOLV>
-1.47174

>  <SCORE.INTRA.SOLV.lig_0>
-71.0481

>  <SCORE.INTRA.VDW>
-1.85541

>  <SCORE.INTRA.VDW.0>
0.968882

>  <SCORE.INTRA.norm>
-0.0115654

>  <SCORE.RESTR>
0.00597948

>  <SCORE.RESTR.CAVITY>
0.00597948

>  <SCORE.RESTR.norm>
0.00049829

>  <SCORE.SYSTEM>
0

>  <SCORE.SYSTEM.CONST>
0

>  <SCORE.SYSTEM.DIHEDRAL>
0

>  <SCORE.SYSTEM.SOLV>
0

>  <SCORE.SYSTEM.norm>
0

>  <SCORE.heavy>
12

>  <SCORE.norm>
-2.49415

>  <SYMMETRIC_BONDS>
11 12 2
5 6 2

>  <RMSD>
2.623

$$$$
1koc cryst
 OpenBabel11021811393D
libRbt.so/2013.1/901 2013/11/27
 12 11  0  0  0  0  0  0  0  0999 V2000
    4.3573    6.3979   27.6063 N   0  3  0  0  0  0  0  0  0  0  0  0
    5.1076    6.6960   28.8637 C   0  0  2  0  0  0  0  0  0  0  0  0
    6.5629    6.2135   28.7067 C   0  0  0  0  0  0  0  0  0  0  0  0
    6.9702    5.9795   27.5787 O   0  5  0  0  0  0  0  0  0  0  0  0
    4.4125    5.9794   30.0527 C   0  0  0  0  0  0  0  0  0  0  0  0
    4.2870    4.4737   29.7921 C   0  0  0  0  0  0  0  0  0  0  0  0
    3.2196    3.8832   30.7069 C   0  0  0  0  0  0  0  0  0  0  0  0
    2.9740    2.4566   30.3451 N   0  0  0  0  0  0  0  0  0  0  0  0
    2.1333    1.7325   31.0441 C   0  0  0  0  0  0  0  0  0  0  0  0
    1.0441    2.2716   31.5330 N   0  0  0  0  0  0  0  0  0  0  0  0
    2.3799    0.4654   31.2502 N   0  3  0  0  0  0  0  0  0  0  0  0
    7.2410    6.0754   29.7139 O   0  0  0  0  0  0  0  0  0  0  0  0
  2  1  1  6  0  0  0
  2  5  1  0  0  0  0
  2  3  1  0  0  0  0
  3  4  1  0  0  0  0
  3 12  2  0  0  0  0
  5  6  1  0  0  0  0
  6  7  1  0  0  0  0
  7  8  1  0  0  0  0
  8  9  1  0  0  0  0
  9 10  1  0  0  0  0
  9 11  2  0  0  0  0
M  CHG  3   1   1   4  -1  11   1
M  END
>  <CHROM.1>
-44.30593937,55.61615011,16.55834432,-160.96949171,173.12124901,176.95860487
4.21511065,4.36677771,29.74064096,0.91021830,0.06803833,-0.47143606

>  <Name>
1koc cryst

>  <RI>
0

>  <Rbt.Current_Directory>
/home/itssahil/PROJECTS/Mol_Feturizer/New_Systems/rnas/1koc

>  <Rbt.Executable>
rbdock ($Id: //depot/dev/client3/rdock/2013.1/src/exe/rbdock.cxx#4 $)

>  <Rbt.Library>
libRbt.so (2013.1, Build901 2013/11/27)

>  <Rbt.Parameter_File>
/export/apps/rDock/src/rDock_2013.1_src/data/scripts/dock_solv.prm

>  <Rbt.Receptor>
prm/pocket_docking_8.prm

>  <SCORE>
-32.9568

>  <SCORE.INTER>
-32.6665

>  <SCORE.INTER.CONST>
1

>  <SCORE.INTER.POLAR>
-6.37306

>  <SCORE.INTER.ROT>
5

>  <SCORE.INTER.SOLV>
26.5721

>  <SCORE.INTER.VDW>
-16.3248

>  <SCORE.INTER.norm>
-2.72221

>  <SCORE.INTRA>
-0.290291

>  <SCORE.INTRA.DIHEDRAL>
-0.375188

>  <SCORE.INTRA.DIHEDRAL.0>
6.04201

>  <SCORE.INTRA.POLAR>
0

>  <SCORE.INTRA.POLAR.0>
0

>  <SCORE.INTRA.REPUL>
0

>  <SCORE.INTRA.REPUL.0>
0

>  <SCORE.INTRA.SOLV>
0.241593

>  <SCORE.INTRA.SOLV.lig_0>
-71.0481

>  <SCORE.INTRA.VDW>
-0.223494

>  <SCORE.INTRA.VDW.0>
0.968882

>  <SCORE.INTRA.norm>
-0.0241909

>  <SCORE.RESTR>
0

>  <SCORE.RESTR.CAVITY>
0

>  <SCORE.RESTR.norm>
0

>  <SCORE.SYSTEM>
0

>  <SCORE.SYSTEM.CONST>
0

>  <SCORE.SYSTEM.DIHEDRAL>
0

>  <SCORE.SYSTEM.SOLV>
0

>  <SCORE.SYSTEM.norm>
0

>  <SCORE.heavy>
12

>  <SCORE.norm>
-2.7464

>  <SYMMETRIC_BONDS>
11 12 2
5 6 2

>  <RMSD>
2.629

$$$$
1koc cryst
 OpenBabel11021811393D
libRbt.so/2013.1/901 2013/11/27
 12 11  0  0  0  0  0  0  0  0999 V2000
    2.2747    8.9323   32.5101 N   0  3  0  0  0  0  0  0  0  0  0  0
    3.0936    7.8210   33.0820 C   0  0  2  0  0  0  0  0  0  0  0  0
    4.4601    8.3799   33.5244 C   0  0  0  0  0  0  0  0  0  0  0  0
    4.8864    8.0492   34.6207 O   0  5  0  0  0  0  0  0  0  0  0  0
    3.2702    6.7144   32.0075 C   0  0  0  0  0  0  0  0  0  0  0  0
    1.9120    6.1860   31.5314 C   0  0  0  0  0  0  0  0  0  0  0  0
    2.1244    5.1001   30.4822 C   0  0  0  0  0  0  0  0  0  0  0  0
    2.1465    3.7595   31.1368 N   0  0  0  0  0  0  0  0  0  0  0  0
    3.1827    2.9692   30.9906 C   0  0  0  0  0  0  0  0  0  0  0  0
    4.3925    3.4685   30.9361 N   0  0  0  0  0  0  0  0  0  0  0  0
    3.0090    1.6765   30.9039 N   0  3  0  0  0  0  0  0  0  0  0  0
    5.0510    9.1359   32.7678 O   0  0  0  0  0  0  0  0  0  0  0  0
  2  1  1  6  0  0  0
  2  5  1  0  0  0  0
  2  3  1  0  0  0  0
  3  4  1  0  0  0  0
  3 12  2  0  0  0  0
  5  6  1  0  0  0  0
  6  7  1  0  0  0  0
  7  8  1  0  0  0  0
  8  9  1  0  0  0  0
  9 10  1  0  0  0  0
  9 11  2  0  0  0  0
M  CHG  3   1   1   4  -1  11   1
M  END
>  <CHROM.1>
85.00837417,-58.10078897,134.29034158,-179.82160194,92.99208904,-123.18237589
3.32508865,6.02947318,32.04507060,1.38280539,-0.45512742,0.31916261

>  <Name>
1koc cryst

>  <RI>
0

>  <Rbt.Current_Directory>
/home/itssahil/PROJECTS/Mol_Feturizer/New_Systems/rnas/1koc

>  <Rbt.Executable>
rbdock ($Id: //depot/dev/client3/rdock/2013.1/src/exe/rbdock.cxx#4 $)

>  <Rbt.Library>
libRbt.so (2013.1, Build901 2013/11/27)

>  <Rbt.Parameter_File>
/export/apps/rDock/src/rDock_2013.1_src/data/scripts/dock_solv.prm

>  <Rbt.Receptor>
prm/pocket_docking_8.prm

>  <SCORE>
-33.1162

>  <SCORE.INTER>
-31.9113

>  <SCORE.INTER.CONST>
1

>  <SCORE.INTER.POLAR>
-5.09458

>  <SCORE.INTER.ROT>
5

>  <SCORE.INTER.SOLV>
20.3192

>  <SCORE.INTER.VDW>
-17.9987

>  <SCORE.INTER.norm>
-2.65928

>  <SCORE.INTRA>
-1.20483

>  <SCORE.INTRA.DIHEDRAL>
1.94321

>  <SCORE.INTRA.DIHEDRAL.0>
6.04201

>  <SCORE.INTRA.POLAR>
0

>  <SCORE.INTRA.POLAR.0>
0

>  <SCORE.INTRA.REPUL>
0

>  <SCORE.INTRA.REPUL.0>
0

>  <SCORE.INTRA.SOLV>
-0.342026

>  <SCORE.INTRA.SOLV.lig_0>
-71.0481

>  <SCORE.INTRA.VDW>
-2.00542

>  <SCORE.INTRA.VDW.0>
0.968882

>  <SCORE.INTRA.norm>
-0.100402

>  <SCORE.RESTR>
0

>  <SCORE.RESTR.CAVITY>
0

>  <SCORE.RESTR.norm>
0

>  <SCORE.SYSTEM>
0

>  <SCORE.SYSTEM.CONST>
0

>  <SCORE.SYSTEM.DIHEDRAL>
0

>  <SCORE.SYSTEM.SOLV>
0

>  <SCORE.SYSTEM.norm>
0

>  <SCORE.heavy>
12

>  <SCORE.norm>
-2.75968

>  <SYMMETRIC_BONDS>
11 12 2
5 6 2

>  <RMSD>
2.630

$$$$
1koc cryst
 OpenBabel11021811393D
libRbt.so/2013.1/901 2013/11/27
 12 11  0  0  0  0  0  0  0  0999 V2000
    6.1730    5.0939   28.1055 N   0  3  0  0  0  0  0  0  0  0  0  0
    4.9171    5.4758   28.8195 C   0  0  2  0  0  0  0  0  0  0  0  0
    4.8296    7.0128   28.8949 C   0  0  0  0  0  0  0  0  0  0  0  0
    5.5202    7.5857   29.7243 O   0  5  0  0  0  0  0  0  0  0  0  0
    4.9307    4.8522   30.2412 C   0  0  0  0  0  0  0  0  0  0  0  0
    3.6094    5.1175   30.9724 C   0  0  0  0  0  0  0  0  0  0  0  0
    2.4866    4.3345   30.3008 C   0  0  0  0  0  0  0  0  0  0  0  0
    2.8742    2.8992   30.1740 N   0  0  0  0  0  0  0  0  0  0  0  0
    2.4094    2.0115   31.0199 C   0  0  0  0  0  0  0  0  0  0  0  0
    1.1872    2.1134   31.4802 N   0  0  0  0  0  0  0  0  0  0  0  0
    3.1667    1.0169   31.4022 N   0  3  0  0  0  0  0  0  0  0  0  0
    4.0680    7.5894   28.1328 O   0  0  0  0  0  0  0  0  0  0  0  0
  2  1  1  1  0  0  0
  2  5  1  0  0  0  0
  2  3  1  0  0  0  0
  3  4  1  0  0  0  0
  3 12  2  0  0  0  0
  5  6  1  0  0  0  0
  6  7  1  0  0  0  0
  7  8  1  0  0  0  0
  8  9  1  0  0  0  0
  9 10  1  0  0  0  0
  9 11  2  0  0  0  0
M  CHG  3   1   1   4  -1  11   1
M  END
>  <CHROM.1>
53.89793126,-175.22890873,-77.30288855,68.34965224,52.03284860,100.86292865
3.87069420,4.57914624,29.92316622,-1.02674695,-0.44540482,2.93683730

>  <Name>
1koc cryst

>  <RI>
0

>  <Rbt.Current_Directory>
/home/itssahil/PROJECTS/Mol_Feturizer/New_Systems/rnas/1koc

>  <Rbt.Executable>
rbdock ($Id: //depot/dev/client3/rdock/2013.1/src/exe/rbdock.cxx#4 $)

>  <Rbt.Library>
libRbt.so (2013.1, Build901 2013/11/27)

>  <Rbt.Parameter_File>
/export/apps/rDock/src/rDock_2013.1_src/data/scripts/dock_solv.prm

>  <Rbt.Receptor>
prm/pocket_docking_7.prm

>  <SCORE>
-28.6006

>  <SCORE.INTER>
-26.1978

>  <SCORE.INTER.CONST>
1

>  <SCORE.INTER.POLAR>
-5.11288

>  <SCORE.INTER.ROT>
5

>  <SCORE.INTER.SOLV>
22.7708

>  <SCORE.INTER.VDW>
-14.9458

>  <SCORE.INTER.norm>
-2.18315

>  <SCORE.INTRA>
-2.4028

>  <SCORE.INTRA.DIHEDRAL>
-1.9043

>  <SCORE.INTRA.DIHEDRAL.0>
6.04201

>  <SCORE.INTRA.POLAR>
0

>  <SCORE.INTRA.POLAR.0>
0

>  <SCORE.INTRA.REPUL>
0

>  <SCORE.INTRA.REPUL.0>
0

>  <SCORE.INTRA.SOLV>
-0.248696

>  <SCORE.INTRA.SOLV.lig_0>
-71.0481

>  <SCORE.INTRA.VDW>
-1.3263

>  <SCORE.INTRA.VDW.0>
0.968882

>  <SCORE.INTRA.norm>
-0.200233

>  <SCORE.RESTR>
0

>  <SCORE.RESTR.CAVITY>
0

>  <SCORE.RESTR.norm>
0

>  <SCORE.SYSTEM>
0

>  <SCORE.SYSTEM.CONST>
0

>  <SCORE.SYSTEM.DIHEDRAL>
0

>  <SCORE.SYSTEM.SOLV>
0

>  <SCORE.SYSTEM.norm>
0

>  <SCORE.heavy>
12

>  <SCORE.norm>
-2.38338

>  <SYMMETRIC_BONDS>
11 12 2
5 6 2

>  <RMSD>
2.636

$$$$
1koc cryst
 OpenBabel11021811393D
libRbt.so/2013.1/901 2013/11/27
 12 11  0  0  0  0  0  0  0  0999 V2000
    4.1763    6.1534   27.8838 N   0  3  0  0  0  0  0  0  0  0  0  0
    4.9929    6.6119   29.0481 C   0  0  2  0  0  0  0  0  0  0  0  0
    6.4765    6.2933   28.7779 C   0  0  0  0  0  0  0  0  0  0  0  0
    7.2958    7.1807   28.9629 O   0  5  0  0  0  0  0  0  0  0  0  0
    4.4975    5.8926   30.3315 C   0  0  0  0  0  0  0  0  0  0  0  0
    4.5710    4.3693   30.1733 C   0  0  0  0  0  0  0  0  0  0  0  0
    4.0154    3.6974   31.4242 C   0  0  0  0  0  0  0  0  0  0  0  0
    3.7272    2.2606   31.1430 N   0  0  0  0  0  0  0  0  0  0  0  0
    2.4887    1.8327   31.0898 C   0  0  0  0  0  0  0  0  0  0  0  0
    1.5478    2.5922   30.5861 N   0  0  0  0  0  0  0  0  0  0  0  0
    2.1917    0.6407   31.5368 N   0  3  0  0  0  0  0  0  0  0  0  0
    6.7675    5.1748   28.3810 O   0  0  0  0  0  0  0  0  0  0  0  0
  2  1  1  6  0  0  0
  2  5  1  0  0  0  0
  2  3  1  0  0  0  0
  3  4  1  0  0  0  0
  3 12  2  0  0  0  0
  5  6  1  0  0  0  0
  6  7  1  0  0  0  0
  7  8  1  0  0  0  0
  8  9  1  0  0  0  0
  9 10  1  0  0  0  0
  9 11  2  0  0  0  0
M  CHG  3   1   1   4  -1  11   1
M  END
>  <CHROM.1>
82.84675684,57.24224030,131.60579171,-177.30406060,164.27775671,-110.40709925
4.38013092,4.37428878,29.91286095,0.95080961,-0.14668591,-0.59155870

>  <Name>
1koc cryst

>  <RI>
0

>  <Rbt.Current_Directory>
/home/itssahil/PROJECTS/Mol_Feturizer/New_Systems/rnas/1koc

>  <Rbt.Executable>
rbdock ($Id: //depot/dev/client3/rdock/2013.1/src/exe/rbdock.cxx#4 $)

>  <Rbt.Library>
libRbt.so (2013.1, Build901 2013/11/27)

>  <Rbt.Parameter_File>
/export/apps/rDock/src/rDock_2013.1_src/data/scripts/dock_solv.prm

>  <Rbt.Receptor>
prm/pocket_docking_7.prm

>  <SCORE>
-33.5207

>  <SCORE.INTER>
-32.7226

>  <SCORE.INTER.CONST>
1

>  <SCORE.INTER.POLAR>
-6.63151

>  <SCORE.INTER.ROT>
5

>  <SCORE.INTER.SOLV>
23.2588

>  <SCORE.INTER.VDW>
-14.3963

>  <SCORE.INTER.norm>
-2.72688

>  <SCORE.INTRA>
-0.798129

>  <SCORE.INTRA.DIHEDRAL>
-0.50881

>  <SCORE.INTRA.DIHEDRAL.0>
6.04201

>  <SCORE.INTRA.POLAR>
0

>  <SCORE.INTRA.POLAR.0>
0

>  <SCORE.INTRA.REPUL>
0

>  <SCORE.INTRA.REPUL.0>
0

>  <SCORE.INTRA.SOLV>
0.451475

>  <SCORE.INTRA.SOLV.lig_0>
-71.0481

>  <SCORE.INTRA.VDW>
-0.769462

>  <SCORE.INTRA.VDW.0>
0.968882

>  <SCORE.INTRA.norm>
-0.0665108

>  <SCORE.RESTR>
0

>  <SCORE.RESTR.CAVITY>
0

>  <SCORE.RESTR.norm>
0

>  <SCORE.SYSTEM>
0

>  <SCORE.SYSTEM.CONST>
0

>  <SCORE.SYSTEM.DIHEDRAL>
0

>  <SCORE.SYSTEM.SOLV>
0

>  <SCORE.SYSTEM.norm>
0

>  <SCORE.heavy>
12

>  <SCORE.norm>
-2.7934

>  <SYMMETRIC_BONDS>
11 12 2
5 6 2

>  <RMSD>
2.636

$$$$
1koc cryst
 OpenBabel11021811393D
libRbt.so/2013.1/901 2013/11/27
 12 11  0  0  0  0  0  0  0  0999 V2000
    7.9465    4.7042   32.5299 N   0  3  0  0  0  0  0  0  0  0  0  0
    7.0110    4.4674   31.3891 C   0  0  2  0  0  0  0  0  0  0  0  0
    5.7643    5.3556   31.5689 C   0  0  0  0  0  0  0  0  0  0  0  0
    5.1912    5.3265   32.6476 O   0  5  0  0  0  0  0  0  0  0  0  0
    6.6198    2.9654   31.3555 C   0  0  0  0  0  0  0  0  0  0  0  0
    5.9450    2.6007   30.0279 C   0  0  0  0  0  0  0  0  0  0  0  0
    4.4832    3.0332   30.0611 C   0  0  0  0  0  0  0  0  0  0  0  0
    3.6059    1.8420   30.2548 N   0  0  0  0  0  0  0  0  0  0  0  0
    2.5187    1.9327   30.9824 C   0  0  0  0  0  0  0  0  0  0  0  0
    1.8006    3.0282   30.9644 N   0  0  0  0  0  0  0  0  0  0  0  0
    2.1462    0.9239   31.7257 N   0  3  0  0  0  0  0  0  0  0  0  0
    5.3973    6.0395   30.6251 O   0  0  0  0  0  0  0  0  0  0  0  0
  2  1  1  1  0  0  0
  2  5  1  0  0  0  0
  2  3  1  0  0  0  0
  3  4  1  0  0  0  0
  3 12  2  0  0  0  0
  5  6  1  0  0  0  0
  6  7  1  0  0  0  0
  7  8  1  0  0  0  0
  8  9  1  0  0  0  0
  9 10  1  0  0  0  0
  9 11  2  0  0  0  0
M  CHG  3   1   1   4  -1  11   1
M  END
>  <CHROM.1>
-54.91760504,-166.29805241,-50.65896234,-79.90073849,-104.52443668,143.76103836
4.86295636,3.53078126,31.21157963,-0.64054636,0.00646815,-2.89467948

>  <Name>
1koc cryst

>  <RI>
0

>  <Rbt.Current_Directory>
/home/itssahil/PROJECTS/Mol_Feturizer/New_Systems/rnas/1koc

>  <Rbt.Executable>
rbdock ($Id: //depot/dev/client3/rdock/2013.1/src/exe/rbdock.cxx#4 $)

>  <Rbt.Library>
libRbt.so (2013.1, Build901 2013/11/27)

>  <Rbt.Parameter_File>
/export/apps/rDock/src/rDock_2013.1_src/data/scripts/dock_solv.prm

>  <Rbt.Receptor>
prm/pocket_docking_6.prm

>  <SCORE>
-26.1042

>  <SCORE.INTER>
-26.1203

>  <SCORE.INTER.CONST>
1

>  <SCORE.INTER.POLAR>
-5.17749

>  <SCORE.INTER.ROT>
5

>  <SCORE.INTER.SOLV>
18.5902

>  <SCORE.INTER.VDW>
-13.2853

>  <SCORE.INTER.norm>
-2.17669

>  <SCORE.INTRA>
0.0161231

>  <SCORE.INTRA.DIHEDRAL>
4.27914

>  <SCORE.INTRA.DIHEDRAL.0>
6.04201

>  <SCORE.INTRA.POLAR>
0

>  <SCORE.INTRA.POLAR.0>
0

>  <SCORE.INTRA.REPUL>
0

>  <SCORE.INTRA.REPUL.0>
0

>  <SCORE.INTRA.SOLV>
-0.113088

>  <SCORE.INTRA.SOLV.lig_0>
-71.0481

>  <SCORE.INTRA.VDW>
-2.0669

>  <SCORE.INTRA.VDW.0>
0.968882

>  <SCORE.INTRA.norm>
0.00134359

>  <SCORE.RESTR>
0

>  <SCORE.RESTR.CAVITY>
0

>  <SCORE.RESTR.norm>
0

>  <SCORE.SYSTEM>
0

>  <SCORE.SYSTEM.CONST>
0

>  <SCORE.SYSTEM.DIHEDRAL>
0

>  <SCORE.SYSTEM.SOLV>
0

>  <SCORE.SYSTEM.norm>
0

>  <SCORE.heavy>
12

>  <SCORE.norm>
-2.17535

>  <SYMMETRIC_BONDS>
11 12 2
5 6 2

>  <RMSD>
2.637

$$$$
1koc cryst
 OpenBabel11021811393D
libRbt.so/2013.1/901 2013/11/27
 12 11  0  0  0  0  0  0  0  0999 V2000
    4.1744    6.2213   27.8142 N   0  3  0  0  0  0  0  0  0  0  0  0
    4.9989    6.6811   28.9725 C   0  0  2  0  0  0  0  0  0  0  0  0
    6.4780    6.3422   28.7024 C   0  0  0  0  0  0  0  0  0  0  0  0
    6.7250    5.4592   27.8947 O   0  5  0  0  0  0  0  0  0  0  0  0
    4.4977    5.9797   30.2637 C   0  0  0  0  0  0  0  0  0  0  0  0
    4.6229    4.4560   30.1479 C   0  0  0  0  0  0  0  0  0  0  0  0
    4.0304    3.7980   31.3892 C   0  0  0  0  0  0  0  0  0  0  0  0
    3.7272    2.3644   31.1078 N   0  0  0  0  0  0  0  0  0  0  0  0
    2.4841    1.9531   31.0362 C   0  0  0  0  0  0  0  0  0  0  0  0
    1.5616    2.7236   30.5153 N   0  0  0  0  0  0  0  0  0  0  0  0
    2.1637    0.7667   31.4820 N   0  3  0  0  0  0  0  0  0  0  0  0
    7.3366    6.9609   29.3133 O   0  0  0  0  0  0  0  0  0  0  0  0
  2  1  1  6  0  0  0
  2  5  1  0  0  0  0
  2  3  1  0  0  0  0
  3  4  1  0  0  0  0
  3 12  2  0  0  0  0
  5  6  1  0  0  0  0
  6  7  1  0  0  0  0
  7  8  1  0  0  0  0
  8  9  1  0  0  0  0
  9 10  1  0  0  0  0
  9 11  2  0  0  0  0
M  CHG  3   1   1   4  -1  11   1
M  END
>  <CHROM.1>
83.84975596,60.27446152,-21.68724630,-175.95340309,161.15175681,-110.75797089
4.38402429,4.45794128,29.85444217,0.92391931,-0.25536051,-0.68947271

>  <Name>
1koc cryst

>  <RI>
0

>  <Rbt.Current_Directory>
/home/itssahil/PROJECTS/Mol_Feturizer/New_Systems/rnas/1koc

>  <Rbt.Executable>
rbdock ($Id: //depot/dev/client3/rdock/2013.1/src/exe/rbdock.cxx#4 $)

>  <Rbt.Library>
libRbt.so (2013.1, Build901 2013/11/27)

>  <Rbt.Parameter_File>
/export/apps/rDock/src/rDock_2013.1_src/data/scripts/dock_solv.prm

>  <Rbt.Receptor>
prm/pocket_docking_7.prm

>  <SCORE>
-33.5906

>  <SCORE.INTER>
-32.756

>  <SCORE.INTER.CONST>
1

>  <SCORE.INTER.POLAR>
-6.61346

>  <SCORE.INTER.ROT>
5

>  <SCORE.INTER.SOLV>
23.5199

>  <SCORE.INTER.VDW>
-14.5658

>  <SCORE.INTER.norm>
-2.72967

>  <SCORE.INTRA>
-0.8346

>  <SCORE.INTRA.DIHEDRAL>
-0.0668297

>  <SCORE.INTRA.DIHEDRAL.0>
6.04201

>  <SCORE.INTRA.POLAR>
0

>  <SCORE.INTRA.POLAR.0>
0

>  <SCORE.INTRA.REPUL>
0

>  <SCORE.INTRA.REPUL.0>
0

>  <SCORE.INTRA.SOLV>
0.514016

>  <SCORE.INTRA.SOLV.lig_0>
-71.0481

>  <SCORE.INTRA.VDW>
-1.05819

>  <SCORE.INTRA.VDW.0>
0.968882

>  <SCORE.INTRA.norm>
-0.06955

>  <SCORE.RESTR>
0

>  <SCORE.RESTR.CAVITY>
0

>  <SCORE.RESTR.norm>
0

>  <SCORE.SYSTEM>
0

>  <SCORE.SYSTEM.CONST>
0

>  <SCORE.SYSTEM.DIHEDRAL>
0

>  <SCORE.SYSTEM.SOLV>
0

>  <SCORE.SYSTEM.norm>
0

>  <SCORE.heavy>
12

>  <SCORE.norm>
-2.79922

>  <SYMMETRIC_BONDS>
11 12 2
5 6 2

>  <RMSD>
2.649

$$$$
1koc cryst
 OpenBabel11021811393D
libRbt.so/2013.1/901 2013/11/27
 12 11  0  0  0  0  0  0  0  0999 V2000
    4.1716    7.1732   27.3392 N   0  3  0  0  0  0  0  0  0  0  0  0
    4.4122    6.9632   28.7989 C   0  0  2  0  0  0  0  0  0  0  0  0
    5.7120    7.6861   29.2030 C   0  0  0  0  0  0  0  0  0  0  0  0
    6.7171    7.4689   28.5431 O   0  5  0  0  0  0  0  0  0  0  0  0
    4.5147    5.4405   29.0836 C   0  0  0  0  0  0  0  0  0  0  0  0
    3.1974    4.8948   29.6473 C   0  0  0  0  0  0  0  0  0  0  0  0
    3.4911    3.9230   30.7850 C   0  0  0  0  0  0  0  0  0  0  0  0
    2.2357    3.2294   31.1966 N   0  0  0  0  0  0  0  0  0  0  0  0
    2.1536    1.9218   31.1400 C   0  0  0  0  0  0  0  0  0  0  0  0
    3.1962    1.1810   31.4231 N   0  0  0  0  0  0  0  0  0  0  0  0
    1.0250    1.3540   30.8044 N   0  3  0  0  0  0  0  0  0  0  0  0
    5.6846    8.4339   30.1691 O   0  0  0  0  0  0  0  0  0  0  0  0
  2  1  1  6  0  0  0
  2  5  1  0  0  0  0
  2  3  1  0  0  0  0
  3  4  1  0  0  0  0
  3 12  2  0  0  0  0
  5  6  1  0  0  0  0
  6  7  1  0  0  0  0
  7  8  1  0  0  0  0
  8  9  1  0  0  0  0
  9 10  1  0  0  0  0
  9 11  2  0  0  0  0
M  CHG  3   1   1   4  -1  11   1
M  END
>  <CHROM.1>
-48.59114599,-99.99249471,-51.22045338,-138.07483693,-171.26017361,121.12360416
3.87374846,4.97350425,29.82145247,0.92416340,-0.65692980,-0.81295054

>  <Name>
1koc cryst

>  <RI>
0

>  <Rbt.Current_Directory>
/home/itssahil/PROJECTS/Mol_Feturizer/New_Systems/rnas/1koc

>  <Rbt.Executable>
rbdock ($Id: //depot/dev/client3/rdock/2013.1/src/exe/rbdock.cxx#4 $)

>  <Rbt.Library>
libRbt.so (2013.1, Build901 2013/11/27)

>  <Rbt.Parameter_File>
/export/apps/rDock/src/rDock_2013.1_src/data/scripts/dock_solv.prm

>  <Rbt.Receptor>
prm/pocket_docking_5.prm

>  <SCORE>
-30.6927

>  <SCORE.INTER>
-30.9341

>  <SCORE.INTER.CONST>
1

>  <SCORE.INTER.POLAR>
-6.37541

>  <SCORE.INTER.ROT>
5

>  <SCORE.INTER.SOLV>
24.1387

>  <SCORE.INTER.VDW>
-14.351

>  <SCORE.INTER.norm>
-2.57784

>  <SCORE.INTRA>
0.241451

>  <SCORE.INTRA.DIHEDRAL>
6.68906

>  <SCORE.INTRA.DIHEDRAL.0>
6.04201

>  <SCORE.INTRA.POLAR>
0

>  <SCORE.INTRA.POLAR.0>
0

>  <SCORE.INTRA.REPUL>
0

>  <SCORE.INTRA.REPUL.0>
0

>  <SCORE.INTRA.SOLV>
-1.72516

>  <SCORE.INTRA.SOLV.lig_0>
-71.0481

>  <SCORE.INTRA.VDW>
-2.2405

>  <SCORE.INTRA.VDW.0>
0.968882

>  <SCORE.INTRA.norm>
0.0201209

>  <SCORE.RESTR>
0

>  <SCORE.RESTR.CAVITY>
0

>  <SCORE.RESTR.norm>
0

>  <SCORE.SYSTEM>
0

>  <SCORE.SYSTEM.CONST>
0

>  <SCORE.SYSTEM.DIHEDRAL>
0

>  <SCORE.SYSTEM.SOLV>
0

>  <SCORE.SYSTEM.norm>
0

>  <SCORE.heavy>
12

>  <SCORE.norm>
-2.55772

>  <SYMMETRIC_BONDS>
11 12 2
5 6 2

>  <RMSD>
2.654

$$$$
1koc cryst
 OpenBabel11021811393D
libRbt.so/2013.1/901 2013/11/27
 12 11  0  0  0  0  0  0  0  0999 V2000
    4.3334    7.0942   27.4990 N   0  3  0  0  0  0  0  0  0  0  0  0
    4.7450    7.5378   28.8653 C   0  0  2  0  0  0  0  0  0  0  0  0
    6.2697    7.3660   29.0113 C   0  0  0  0  0  0  0  0  0  0  0  0
    6.7717    7.6071   30.0989 O   0  5  0  0  0  0  0  0  0  0  0  0
    3.9890    6.6908   29.9242 C   0  0  0  0  0  0  0  0  0  0  0  0
    4.2893    5.1971   29.7525 C   0  0  0  0  0  0  0  0  0  0  0  0
    2.9981    4.4478   29.4424 C   0  0  0  0  0  0  0  0  0  0  0  0
    2.4842    3.7891   30.6787 N   0  0  0  0  0  0  0  0  0  0  0  0
    2.3104    2.4898   30.7123 C   0  0  0  0  0  0  0  0  0  0  0  0
    3.1423    1.6950   30.0859 N   0  0  0  0  0  0  0  0  0  0  0  0
    1.3055    1.9840   31.3779 N   0  3  0  0  0  0  0  0  0  0  0  0
    6.9103    7.0083   28.0340 O   0  0  0  0  0  0  0  0  0  0  0  0
  2  1  1  6  0  0  0
  2  5  1  0  0  0  0
  2  3  1  0  0  0  0
  3  4  1  0  0  0  0
  3 12  2  0  0  0  0
  5  6  1  0  0  0  0
  6  7  1  0  0  0  0
  7  8  1  0  0  0  0
  8  9  1  0  0  0  0
  9 10  1  0  0  0  0
  9 11  2  0  0  0  0
M  CHG  3   1   1   4  -1  11   1
M  END
>  <CHROM.1>
158.50285435,58.88920436,-175.74777204,-118.61962777,-100.11985161,-121.34799408
4.13015662,5.22444071,29.60407946,0.90815300,-0.36453758,-0.64809484

>  <Name>
1koc cryst

>  <RI>
0

>  <Rbt.Current_Directory>
/home/itssahil/PROJECTS/Mol_Feturizer/New_Systems/rnas/1koc

>  <Rbt.Executable>
rbdock ($Id: //depot/dev/client3/rdock/2013.1/src/exe/rbdock.cxx#4 $)

>  <Rbt.Library>
libRbt.so (2013.1, Build901 2013/11/27)

>  <Rbt.Parameter_File>
/export/apps/rDock/src/rDock_2013.1_src/data/scripts/dock_solv.prm

>  <Rbt.Receptor>
prm/pocket_docking_5.prm

>  <SCORE>
-20.823

>  <SCORE.INTER>
-24.1354

>  <SCORE.INTER.CONST>
1

>  <SCORE.INTER.POLAR>
-4.63624

>  <SCORE.INTER.ROT>
5

>  <SCORE.INTER.SOLV>
22.5508

>  <SCORE.INTER.VDW>
-15.0864

>  <SCORE.INTER.norm>
-2.01128

>  <SCORE.INTRA>
3.3124

>  <SCORE.INTRA.DIHEDRAL>
8.69128

>  <SCORE.INTRA.DIHEDRAL.0>
6.04201

>  <SCORE.INTRA.POLAR>
0

>  <SCORE.INTRA.POLAR.0>
0

>  <SCORE.INTRA.REPUL>
0

>  <SCORE.INTRA.REPUL.0>
0

>  <SCORE.INTRA.SOLV>
1.07728

>  <SCORE.INTRA.SOLV.lig_0>
-71.0481

>  <SCORE.INTRA.VDW>
-1.57188

>  <SCORE.INTRA.VDW.0>
0.968882

>  <SCORE.INTRA.norm>
0.276033

>  <SCORE.RESTR>
0

>  <SCORE.RESTR.CAVITY>
0

>  <SCORE.RESTR.norm>
0

>  <SCORE.SYSTEM>
0

>  <SCORE.SYSTEM.CONST>
0

>  <SCORE.SYSTEM.DIHEDRAL>
0

>  <SCORE.SYSTEM.SOLV>
0

>  <SCORE.SYSTEM.norm>
0

>  <SCORE.heavy>
12

>  <SCORE.norm>
-1.73525

>  <SYMMETRIC_BONDS>
11 12 2
5 6 2

>  <RMSD>
2.660

$$$$
1koc cryst
 OpenBabel11021811393D
libRbt.so/2013.1/901 2013/11/27
 12 11  0  0  0  0  0  0  0  0999 V2000
    5.8146    5.0771   33.9595 N   0  3  0  0  0  0  0  0  0  0  0  0
    6.0247    4.2123   32.7592 C   0  0  2  0  0  0  0  0  0  0  0  0
    7.2077    4.7666   31.9414 C   0  0  0  0  0  0  0  0  0  0  0  0
    7.9309    3.9671   31.3662 O   0  5  0  0  0  0  0  0  0  0  0  0
    4.7250    4.1959   31.9104 C   0  0  0  0  0  0  0  0  0  0  0  0
    4.8470    3.2206   30.7336 C   0  0  0  0  0  0  0  0  0  0  0  0
    3.4754    3.0046   30.1035 C   0  0  0  0  0  0  0  0  0  0  0  0
    2.9880    1.6278   30.4087 N   0  0  0  0  0  0  0  0  0  0  0  0
    2.0611    1.4406   31.3173 C   0  0  0  0  0  0  0  0  0  0  0  0
    1.0905    2.3086   31.4602 N   0  0  0  0  0  0  0  0  0  0  0  0
    2.1023    0.3806   32.0812 N   0  3  0  0  0  0  0  0  0  0  0  0
    7.3778    5.9764   31.9126 O   0  0  0  0  0  0  0  0  0  0  0  0
  2  1  1  1  0  0  0
  2  5  1  0  0  0  0
  2  3  1  0  0  0  0
  3  4  1  0  0  0  0
  3 12  2  0  0  0  0
  5  6  1  0  0  0  0
  6  7  1  0  0  0  0
  7  8  1  0  0  0  0
  8  9  1  0  0  0  0
  9 10  1  0  0  0  0
  9 11  2  0  0  0  0
M  CHG  3   1   1   4  -1  11   1
M  END
>  <CHROM.1>
-72.41529510,-174.85076463,145.38153145,168.02396340,-109.09649910,104.13030011
4.63592797,3.35776839,31.69740647,0.42124084,0.48074997,1.08309753

>  <Name>
1koc cryst

>  <RI>
0

>  <Rbt.Current_Directory>
/home/itssahil/PROJECTS/Mol_Feturizer/New_Systems/rnas/1koc

>  <Rbt.Executable>
rbdock ($Id: //depot/dev/client3/rdock/2013.1/src/exe/rbdock.cxx#4 $)

>  <Rbt.Library>
libRbt.so (2013.1, Build901 2013/11/27)

>  <Rbt.Parameter_File>
/export/apps/rDock/src/rDock_2013.1_src/data/scripts/dock_solv.prm

>  <Rbt.Receptor>
prm/pocket_docking_7.prm

>  <SCORE>
-29.6738

>  <SCORE.INTER>
-28.7381

>  <SCORE.INTER.CONST>
1

>  <SCORE.INTER.POLAR>
-5.7504

>  <SCORE.INTER.ROT>
5

>  <SCORE.INTER.SOLV>
22.9112

>  <SCORE.INTER.VDW>
-14.5611

>  <SCORE.INTER.norm>
-2.39484

>  <SCORE.INTRA>
-0.93578

>  <SCORE.INTRA.DIHEDRAL>
3.52652

>  <SCORE.INTRA.DIHEDRAL.0>
6.04201

>  <SCORE.INTRA.POLAR>
0

>  <SCORE.INTRA.POLAR.0>
0

>  <SCORE.INTRA.REPUL>
0

>  <SCORE.INTRA.REPUL.0>
0

>  <SCORE.INTRA.SOLV>
-1.03208

>  <SCORE.INTRA.SOLV.lig_0>
-71.0481

>  <SCORE.INTRA.VDW>
-2.183

>  <SCORE.INTRA.VDW.0>
0.968882

>  <SCORE.INTRA.norm>
-0.0779817

>  <SCORE.RESTR>
0

>  <SCORE.RESTR.CAVITY>
0

>  <SCORE.RESTR.norm>
0

>  <SCORE.SYSTEM>
0

>  <SCORE.SYSTEM.CONST>
0

>  <SCORE.SYSTEM.DIHEDRAL>
0

>  <SCORE.SYSTEM.SOLV>
0

>  <SCORE.SYSTEM.norm>
0

>  <SCORE.heavy>
12

>  <SCORE.norm>
-2.47282

>  <SYMMETRIC_BONDS>
11 12 2
5 6 2

>  <RMSD>
2.667

$$$$
1koc cryst
 OpenBabel11021811393D
libRbt.so/2013.1/901 2013/11/27
 12 11  0  0  0  0  0  0  0  0999 V2000
    4.0587    6.5819   27.3282 N   0  3  0  0  0  0  0  0  0  0  0  0
    3.9840    6.7593   28.8101 C   0  0  2  0  0  0  0  0  0  0  0  0
    5.0281    7.8067   29.2440 C   0  0  0  0  0  0  0  0  0  0  0  0
    6.1756    7.6700   28.8472 O   0  5  0  0  0  0  0  0  0  0  0  0
    4.2504    5.3942   29.4997 C   0  0  0  0  0  0  0  0  0  0  0  0
    3.1955    5.1036   30.5737 C   0  0  0  0  0  0  0  0  0  0  0  0
    2.1760    4.1068   30.0334 C   0  0  0  0  0  0  0  0  0  0  0  0
    1.9506    3.0204   31.0310 N   0  0  0  0  0  0  0  0  0  0  0  0
    2.7450    1.9776   31.0639 C   0  0  0  0  0  0  0  0  0  0  0  0
    4.0251    2.1136   30.8213 N   0  0  0  0  0  0  0  0  0  0  0  0
    2.2590    0.7970   31.3450 N   0  3  0  0  0  0  0  0  0  0  0  0
    4.6675    8.7191   29.9726 O   0  0  0  0  0  0  0  0  0  0  0  0
  2  1  1  6  0  0  0
  2  5  1  0  0  0  0
  2  3  1  0  0  0  0
  3  4  1  0  0  0  0
  3 12  2  0  0  0  0
  5  6  1  0  0  0  0
  6  7  1  0  0  0  0
  7  8  1  0  0  0  0
  8  9  1  0  0  0  0
  9 10  1  0  0  0  0
  9 11  2  0  0  0  0
M  CHG  3   1   1   4  -1  11   1
M  END
>  <CHROM.1>
82.65291060,-131.89734392,-50.15225763,101.94628773,132.29595555,-85.37036814
3.72518029,4.99858838,29.85830782,-1.11973403,-0.60648338,3.05219134

>  <Name>
1koc cryst

>  <RI>
0

>  <Rbt.Current_Directory>
/home/itssahil/PROJECTS/Mol_Feturizer/New_Systems/rnas/1koc

>  <Rbt.Executable>
rbdock ($Id: //depot/dev/client3/rdock/2013.1/src/exe/rbdock.cxx#4 $)

>  <Rbt.Library>
libRbt.so (2013.1, Build901 2013/11/27)

>  <Rbt.Parameter_File>
/export/apps/rDock/src/rDock_2013.1_src/data/scripts/dock_solv.prm

>  <Rbt.Receptor>
prm/pocket_docking_7.prm

>  <SCORE>
-32.7424

>  <SCORE.INTER>
-37.7473

>  <SCORE.INTER.CONST>
1

>  <SCORE.INTER.POLAR>
-6.9556

>  <SCORE.INTER.ROT>
5

>  <SCORE.INTER.SOLV>
25.7948

>  <SCORE.INTER.VDW>
-17.5111

>  <SCORE.INTER.norm>
-3.14561

>  <SCORE.INTRA>
5.0049

>  <SCORE.INTRA.DIHEDRAL>
12.9976

>  <SCORE.INTRA.DIHEDRAL.0>
6.04201

>  <SCORE.INTRA.POLAR>
0

>  <SCORE.INTRA.POLAR.0>
0

>  <SCORE.INTRA.REPUL>
0

>  <SCORE.INTRA.REPUL.0>
0

>  <SCORE.INTRA.SOLV>
-0.592655

>  <SCORE.INTRA.SOLV.lig_0>
-71.0481

>  <SCORE.INTRA.VDW>
-1.19757

>  <SCORE.INTRA.VDW.0>
0.968882

>  <SCORE.INTRA.norm>
0.417075

>  <SCORE.RESTR>
0

>  <SCORE.RESTR.CAVITY>
0

>  <SCORE.RESTR.norm>
0

>  <SCORE.SYSTEM>
0

>  <SCORE.SYSTEM.CONST>
0

>  <SCORE.SYSTEM.DIHEDRAL>
0

>  <SCORE.SYSTEM.SOLV>
0

>  <SCORE.SYSTEM.norm>
0

>  <SCORE.heavy>
12

>  <SCORE.norm>
-2.72853

>  <SYMMETRIC_BONDS>
11 12 2
5 6 2

>  <RMSD>
2.679

$$$$
1koc cryst
 OpenBabel11021811393D
libRbt.so/2013.1/901 2013/11/27
 12 11  0  0  0  0  0  0  0  0999 V2000
    5.9969    5.3848   33.8057 N   0  3  0  0  0  0  0  0  0  0  0  0
    6.2171    4.7238   32.4838 C   0  0  2  0  0  0  0  0  0  0  0  0
    6.8445    5.7417   31.5113 C   0  0  0  0  0  0  0  0  0  0  0  0
    8.0556    5.8994   31.5501 O   0  5  0  0  0  0  0  0  0  0  0  0
    4.8577    4.2061   31.9414 C   0  0  0  0  0  0  0  0  0  0  0  0
    5.0472    3.4181   30.6399 C   0  0  0  0  0  0  0  0  0  0  0  0
    4.0726    2.2460   30.6047 C   0  0  0  0  0  0  0  0  0  0  0  0
    2.7319    2.6862   31.0895 N   0  0  0  0  0  0  0  0  0  0  0  0
    1.7519    1.8218   31.1995 C   0  0  0  0  0  0  0  0  0  0  0  0
    1.9939    0.5934   31.5848 N   0  0  0  0  0  0  0  0  0  0  0  0
    0.5266    2.1881   30.9284 N   0  3  0  0  0  0  0  0  0  0  0  0
    6.1058    6.3534   30.7541 O   0  0  0  0  0  0  0  0  0  0  0  0
  2  1  1  1  0  0  0
  2  5  1  0  0  0  0
  2  3  1  0  0  0  0
  3  4  1  0  0  0  0
  3 12  2  0  0  0  0
  5  6  1  0  0  0  0
  6  7  1  0  0  0  0
  7  8  1  0  0  0  0
  8  9  1  0  0  0  0
  9 10  1  0  0  0  0
  9 11  2  0  0  0  0
M  CHG  3   1   1   4  -1  11   1
M  END
>  <CHROM.1>
131.63120754,-175.35083312,83.68272894,143.15390630,42.54192188,-176.98274133
4.50482881,3.79067258,31.53597854,0.14149031,0.66528244,1.53880315

>  <Name>
1koc cryst

>  <RI>
0

>  <Rbt.Current_Directory>
/home/itssahil/PROJECTS/Mol_Feturizer/New_Systems/rnas/1koc

>  <Rbt.Executable>
rbdock ($Id: //depot/dev/client3/rdock/2013.1/src/exe/rbdock.cxx#4 $)

>  <Rbt.Library>
libRbt.so (2013.1, Build901 2013/11/27)

>  <Rbt.Parameter_File>
/export/apps/rDock/src/rDock_2013.1_src/data/scripts/dock_solv.prm

>  <Rbt.Receptor>
prm/pocket_docking_5.prm

>  <SCORE>
-17.2931

>  <SCORE.INTER>
-21.0724

>  <SCORE.INTER.CONST>
1

>  <SCORE.INTER.POLAR>
-4.4458

>  <SCORE.INTER.ROT>
5

>  <SCORE.INTER.SOLV>
17.7603

>  <SCORE.INTER.VDW>
-12.0824

>  <SCORE.INTER.norm>
-1.75603

>  <SCORE.INTRA>
3.62627

>  <SCORE.INTRA.DIHEDRAL>
5.94635

>  <SCORE.INTRA.DIHEDRAL.0>
6.04201

>  <SCORE.INTRA.POLAR>
0

>  <SCORE.INTRA.POLAR.0>
0

>  <SCORE.INTRA.REPUL>
0

>  <SCORE.INTRA.REPUL.0>
0

>  <SCORE.INTRA.SOLV>
-0.988046

>  <SCORE.INTRA.SOLV.lig_0>
-71.0481

>  <SCORE.INTRA.VDW>
1.14712

>  <SCORE.INTRA.VDW.0>
0.968882

>  <SCORE.INTRA.norm>
0.302189

>  <SCORE.RESTR>
0.152997

>  <SCORE.RESTR.CAVITY>
0.152997

>  <SCORE.RESTR.norm>
0.0127498

>  <SCORE.SYSTEM>
0

>  <SCORE.SYSTEM.CONST>
0

>  <SCORE.SYSTEM.DIHEDRAL>
0

>  <SCORE.SYSTEM.SOLV>
0

>  <SCORE.SYSTEM.norm>
0

>  <SCORE.heavy>
12

>  <SCORE.norm>
-1.44109

>  <SYMMETRIC_BONDS>
11 12 2
5 6 2

>  <RMSD>
2.682

$$$$
1koc cryst
 OpenBabel11021811393D
libRbt.so/2013.1/901 2013/11/27
 12 11  0  0  0  0  0  0  0  0999 V2000
    4.3450    6.9834   27.3195 N   0  3  0  0  0  0  0  0  0  0  0  0
    4.8263    6.7967   28.7217 C   0  0  2  0  0  0  0  0  0  0  0  0
    6.3556    6.9847   28.7573 C   0  0  0  0  0  0  0  0  0  0  0  0
    6.9209    7.2785   27.7146 O   0  5  0  0  0  0  0  0  0  0  0  0
    4.4321    5.3766   29.2098 C   0  0  0  0  0  0  0  0  0  0  0  0
    2.9203    5.2737   29.4438 C   0  0  0  0  0  0  0  0  0  0  0  0
    2.6475    4.3600   30.6337 C   0  0  0  0  0  0  0  0  0  0  0  0
    2.8870    2.9388   30.2475 N   0  0  0  0  0  0  0  0  0  0  0  0
    2.4129    1.9641   30.9857 C   0  0  0  0  0  0  0  0  0  0  0  0
    1.2482    2.0857   31.5728 N   0  0  0  0  0  0  0  0  0  0  0  0
    3.1029    0.8636   31.1328 N   0  3  0  0  0  0  0  0  0  0  0  0
    6.9364    6.8214   29.8199 O   0  0  0  0  0  0  0  0  0  0  0  0
  2  1  1  6  0  0  0
  2  5  1  0  0  0  0
  2  3  1  0  0  0  0
  3  4  1  0  0  0  0
  3 12  2  0  0  0  0
  5  6  1  0  0  0  0
  6  7  1  0  0  0  0
  7  8  1  0  0  0  0
  8  9  1  0  0  0  0
  9 10  1  0  0  0  0
  9 11  2  0  0  0  0
M  CHG  3   1   1   4  -1  11   1
M  END
>  <CHROM.1>
61.92164899,-71.21782311,1.95515969,-144.78865019,-73.74651006,-163.29494068
4.09227758,4.80322809,29.60643131,0.98381028,-0.15407669,-0.59956412

>  <Name>
1koc cryst

>  <RI>
0

>  <Rbt.Current_Directory>
/home/itssahil/PROJECTS/Mol_Feturizer/New_Systems/rnas/1koc

>  <Rbt.Executable>
rbdock ($Id: //depot/dev/client3/rdock/2013.1/src/exe/rbdock.cxx#4 $)

>  <Rbt.Library>
libRbt.so (2013.1, Build901 2013/11/27)

>  <Rbt.Parameter_File>
/export/apps/rDock/src/rDock_2013.1_src/data/scripts/dock_solv.prm

>  <Rbt.Receptor>
prm/pocket_docking_5.prm

>  <SCORE>
-36.5577

>  <SCORE.INTER>
-35.8547

>  <SCORE.INTER.CONST>
1

>  <SCORE.INTER.POLAR>
-6.46054

>  <SCORE.INTER.ROT>
5

>  <SCORE.INTER.SOLV>
25.1293

>  <SCORE.INTER.VDW>
-17.6777

>  <SCORE.INTER.norm>
-2.98789

>  <SCORE.INTRA>
-0.709403

>  <SCORE.INTRA.DIHEDRAL>
2.40341

>  <SCORE.INTRA.DIHEDRAL.0>
6.04201

>  <SCORE.INTRA.POLAR>
0

>  <SCORE.INTRA.POLAR.0>
0

>  <SCORE.INTRA.REPUL>
0

>  <SCORE.INTRA.REPUL.0>
0

>  <SCORE.INTRA.SOLV>
-0.743424

>  <SCORE.INTRA.SOLV.lig_0>
-71.0481

>  <SCORE.INTRA.VDW>
-1.5394

>  <SCORE.INTRA.VDW.0>
0.968882

>  <SCORE.INTRA.norm>
-0.0591169

>  <SCORE.RESTR>
0.00644369

>  <SCORE.RESTR.CAVITY>
0.00644369

>  <SCORE.RESTR.norm>
0.000536974

>  <SCORE.SYSTEM>
0

>  <SCORE.SYSTEM.CONST>
0

>  <SCORE.SYSTEM.DIHEDRAL>
0

>  <SCORE.SYSTEM.SOLV>
0

>  <SCORE.SYSTEM.norm>
0

>  <SCORE.heavy>
12

>  <SCORE.norm>
-3.04647

>  <SYMMETRIC_BONDS>
11 12 2
5 6 2

>  <RMSD>
2.692

$$$$
1koc cryst
 OpenBabel11021811393D
libRbt.so/2013.1/901 2013/11/27
 12 11  0  0  0  0  0  0  0  0999 V2000
    4.0540    6.7234   27.1094 N   0  3  0  0  0  0  0  0  0  0  0  0
    4.0895    7.0145   28.5746 C   0  0  2  0  0  0  0  0  0  0  0  0
    5.1453    8.1043   28.8450 C   0  0  0  0  0  0  0  0  0  0  0  0
    6.1050    8.1714   28.0916 O   0  5  0  0  0  0  0  0  0  0  0  0
    4.4314    5.7102   29.3440 C   0  0  0  0  0  0  0  0  0  0  0  0
    3.2080    4.7912   29.4427 C   0  0  0  0  0  0  0  0  0  0  0  0
    3.3316    3.9053   30.6776 C   0  0  0  0  0  0  0  0  0  0  0  0
    3.0294    2.4890   30.3184 N   0  0  0  0  0  0  0  0  0  0  0  0
    2.1685    1.7968   31.0251 C   0  0  0  0  0  0  0  0  0  0  0  0
    1.1048    2.3763   31.5239 N   0  0  0  0  0  0  0  0  0  0  0  0
    2.3693    0.5213   31.2291 N   0  3  0  0  0  0  0  0  0  0  0  0
    4.9839    8.8443   29.8039 O   0  0  0  0  0  0  0  0  0  0  0  0
  2  1  1  6  0  0  0
  2  5  1  0  0  0  0
  2  3  1  0  0  0  0
  3  4  1  0  0  0  0
  3 12  2  0  0  0  0
  5  6  1  0  0  0  0
  6  7  1  0  0  0  0
  7  8  1  0  0  0  0
  8  9  1  0  0  0  0
  9 10  1  0  0  0  0
  9 11  2  0  0  0  0
M  CHG  3   1   1   4  -1  11   1
M  END
>  <CHROM.1>
78.55124525,-77.52551194,-29.33658174,-153.50570175,-132.71482533,-129.67277096
3.66609334,5.03228769,29.64117876,-0.15683358,-1.15410513,-2.13752915

>  <Name>
1koc cryst

>  <RI>
0

>  <Rbt.Current_Directory>
/home/itssahil/PROJECTS/Mol_Feturizer/New_Systems/rnas/1koc

>  <Rbt.Executable>
rbdock ($Id: //depot/dev/client3/rdock/2013.1/src/exe/rbdock.cxx#4 $)

>  <Rbt.Library>
libRbt.so (2013.1, Build901 2013/11/27)

>  <Rbt.Parameter_File>
/export/apps/rDock/src/rDock_2013.1_src/data/scripts/dock_solv.prm

>  <Rbt.Receptor>
prm/pocket_docking_8.prm

>  <SCORE>
-34.505

>  <SCORE.INTER>
-35.2276

>  <SCORE.INTER.CONST>
1

>  <SCORE.INTER.POLAR>
-6.58379

>  <SCORE.INTER.ROT>
5

>  <SCORE.INTER.SOLV>
29.5328

>  <SCORE.INTER.VDW>
-18.3167

>  <SCORE.INTER.norm>
-2.93563

>  <SCORE.INTRA>
0.722617

>  <SCORE.INTRA.DIHEDRAL>
6.61013

>  <SCORE.INTRA.DIHEDRAL.0>
6.04201

>  <SCORE.INTRA.POLAR>
0

>  <SCORE.INTRA.POLAR.0>
0

>  <SCORE.INTRA.REPUL>
0

>  <SCORE.INTRA.REPUL.0>
0

>  <SCORE.INTRA.SOLV>
-1.12095

>  <SCORE.INTRA.SOLV.lig_0>
-71.0481

>  <SCORE.INTRA.VDW>
-2.02198

>  <SCORE.INTRA.VDW.0>
0.968882

>  <SCORE.INTRA.norm>
0.060218

>  <SCORE.RESTR>
0

>  <SCORE.RESTR.CAVITY>
0

>  <SCORE.RESTR.norm>
0

>  <SCORE.SYSTEM>
0

>  <SCORE.SYSTEM.CONST>
0

>  <SCORE.SYSTEM.DIHEDRAL>
0

>  <SCORE.SYSTEM.SOLV>
0

>  <SCORE.SYSTEM.norm>
0

>  <SCORE.heavy>
12

>  <SCORE.norm>
-2.87541

>  <SYMMETRIC_BONDS>
11 12 2
5 6 2

>  <RMSD>
2.704

$$$$
1koc cryst
 OpenBabel11021811393D
libRbt.so/2013.1/901 2013/11/27
 12 11  0  0  0  0  0  0  0  0999 V2000
    4.3187    7.1486   27.3366 N   0  3  0  0  0  0  0  0  0  0  0  0
    4.6018    6.8986   28.7824 C   0  0  2  0  0  0  0  0  0  0  0  0
    6.1273    6.8951   29.0024 C   0  0  0  0  0  0  0  0  0  0  0  0
    6.5716    7.5342   29.9443 O   0  5  0  0  0  0  0  0  0  0  0  0
    3.9805    5.5368   29.1942 C   0  0  0  0  0  0  0  0  0  0  0  0
    4.2759    5.2178   30.6645 C   0  0  0  0  0  0  0  0  0  0  0  0
    3.5890    3.9132   31.0532 C   0  0  0  0  0  0  0  0  0  0  0  0
    2.1079    4.0921   31.0265 N   0  0  0  0  0  0  0  0  0  0  0  0
    1.3226    3.0702   30.7839 C   0  0  0  0  0  0  0  0  0  0  0  0
    1.6287    1.8793   31.2356 N   0  0  0  0  0  0  0  0  0  0  0  0
    0.2264    3.2407   30.0925 N   0  3  0  0  0  0  0  0  0  0  0  0
    6.8254    6.2652   28.2219 O   0  0  0  0  0  0  0  0  0  0  0  0
  2  1  1  6  0  0  0
  2  5  1  0  0  0  0
  2  3  1  0  0  0  0
  3  4  1  0  0  0  0
  3 12  2  0  0  0  0
  5  6  1  0  0  0  0
  6  7  1  0  0  0  0
  7  8  1  0  0  0  0
  8  9  1  0  0  0  0
  9 10  1  0  0  0  0
  9 11  2  0  0  0  0
M  CHG  3   1   1   4  -1  11   1
M  END
>  <CHROM.1>
58.82803967,178.54263857,133.45933880,176.98051606,-66.90405098,152.12355914
3.78751027,5.14537908,29.74525550,0.70204159,-0.39689856,-0.91578693

>  <Name>
1koc cryst

>  <RI>
0

>  <Rbt.Current_Directory>
/home/itssahil/PROJECTS/Mol_Feturizer/New_Systems/rnas/1koc

>  <Rbt.Executable>
rbdock ($Id: //depot/dev/client3/rdock/2013.1/src/exe/rbdock.cxx#4 $)

>  <Rbt.Library>
libRbt.so (2013.1, Build901 2013/11/27)

>  <Rbt.Parameter_File>
/export/apps/rDock/src/rDock_2013.1_src/data/scripts/dock_solv.prm

>  <Rbt.Receptor>
prm/pocket_docking_5.prm

>  <SCORE>
-32.1458

>  <SCORE.INTER>
-28.6217

>  <SCORE.INTER.CONST>
1

>  <SCORE.INTER.POLAR>
-5.29162

>  <SCORE.INTER.ROT>
5

>  <SCORE.INTER.SOLV>
22.7296

>  <SCORE.INTER.VDW>
-15.9523

>  <SCORE.INTER.norm>
-2.38514

>  <SCORE.INTRA>
-3.52411

>  <SCORE.INTRA.DIHEDRAL>
-2.35856

>  <SCORE.INTRA.DIHEDRAL.0>
6.04201

>  <SCORE.INTRA.POLAR>
0

>  <SCORE.INTRA.POLAR.0>
0

>  <SCORE.INTRA.REPUL>
0

>  <SCORE.INTRA.REPUL.0>
0

>  <SCORE.INTRA.SOLV>
-1.06357

>  <SCORE.INTRA.SOLV.lig_0>
-71.0481

>  <SCORE.INTRA.VDW>
-1.81304

>  <SCORE.INTRA.VDW.0>
0.968882

>  <SCORE.INTRA.norm>
-0.293676

>  <SCORE.RESTR>
0

>  <SCORE.RESTR.CAVITY>
0

>  <SCORE.RESTR.norm>
0

>  <SCORE.SYSTEM>
0

>  <SCORE.SYSTEM.CONST>
0

>  <SCORE.SYSTEM.DIHEDRAL>
0

>  <SCORE.SYSTEM.SOLV>
0

>  <SCORE.SYSTEM.norm>
0

>  <SCORE.heavy>
12

>  <SCORE.norm>
-2.67882

>  <SYMMETRIC_BONDS>
11 12 2
5 6 2

>  <RMSD>
2.705

$$$$
1koc cryst
 OpenBabel11021811393D
libRbt.so/2013.1/901 2013/11/27
 12 11  0  0  0  0  0  0  0  0999 V2000
    4.5422    7.1231   27.3090 N   0  3  0  0  0  0  0  0  0  0  0  0
    4.9847    6.5017   28.5939 C   0  0  2  0  0  0  0  0  0  0  0  0
    6.4449    6.0306   28.4476 C   0  0  0  0  0  0  0  0  0  0  0  0
    6.6848    5.1544   27.6304 O   0  5  0  0  0  0  0  0  0  0  0  0
    4.0498    5.3089   28.9305 C   0  0  0  0  0  0  0  0  0  0  0  0
    4.4543    4.6471   30.2531 C   0  0  0  0  0  0  0  0  0  0  0  0
    3.2291    4.0157   30.9052 C   0  0  0  0  0  0  0  0  0  0  0  0
    3.0131    2.6445   30.3580 N   0  0  0  0  0  0  0  0  0  0  0  0
    2.1698    1.8257   30.9395 C   0  0  0  0  0  0  0  0  0  0  0  0
    1.0627    2.2834   31.4696 N   0  0  0  0  0  0  0  0  0  0  0  0
    2.4319    0.5459   30.9866 N   0  3  0  0  0  0  0  0  0  0  0  0
    7.2950    6.5433   29.1602 O   0  0  0  0  0  0  0  0  0  0  0  0
  2  1  1  6  0  0  0
  2  5  1  0  0  0  0
  2  3  1  0  0  0  0
  3  4  1  0  0  0  0
  3 12  2  0  0  0  0
  5  6  1  0  0  0  0
  6  7  1  0  0  0  0
  7  8  1  0  0  0  0
  8  9  1  0  0  0  0
  9 10  1  0  0  0  0
  9 11  2  0  0  0  0
M  CHG  3   1   1   4  -1  11   1
M  END
>  <CHROM.1>
176.50729002,-179.31738002,-63.58121398,151.72130243,85.33544276,167.69084230
4.19347369,4.38320943,29.55423008,0.92982218,0.14904317,-0.45437119

>  <Name>
1koc cryst

>  <RI>
0

>  <Rbt.Current_Directory>
/home/itssahil/PROJECTS/Mol_Feturizer/New_Systems/rnas/1koc

>  <Rbt.Executable>
rbdock ($Id: //depot/dev/client3/rdock/2013.1/src/exe/rbdock.cxx#4 $)

>  <Rbt.Library>
libRbt.so (2013.1, Build901 2013/11/27)

>  <Rbt.Parameter_File>
/export/apps/rDock/src/rDock_2013.1_src/data/scripts/dock_solv.prm

>  <Rbt.Receptor>
prm/pocket_docking_7.prm

>  <SCORE>
-36.1305

>  <SCORE.INTER>
-34.9399

>  <SCORE.INTER.CONST>
1

>  <SCORE.INTER.POLAR>
-6.61892

>  <SCORE.INTER.ROT>
5

>  <SCORE.INTER.SOLV>
26.6298

>  <SCORE.INTER.VDW>
-17.0401

>  <SCORE.INTER.norm>
-2.91165

>  <SCORE.INTRA>
-1.19069

>  <SCORE.INTRA.DIHEDRAL>
2.31539

>  <SCORE.INTRA.DIHEDRAL.0>
6.04201

>  <SCORE.INTRA.POLAR>
0

>  <SCORE.INTRA.POLAR.0>
0

>  <SCORE.INTRA.REPUL>
0

>  <SCORE.INTRA.REPUL.0>
0

>  <SCORE.INTRA.SOLV>
-1.27492

>  <SCORE.INTRA.SOLV.lig_0>
-71.0481

>  <SCORE.INTRA.VDW>
-1.71093

>  <SCORE.INTRA.VDW.0>
0.968882

>  <SCORE.INTRA.norm>
-0.0992242

>  <SCORE.RESTR>
0

>  <SCORE.RESTR.CAVITY>
0

>  <SCORE.RESTR.norm>
0

>  <SCORE.SYSTEM>
0

>  <SCORE.SYSTEM.CONST>
0

>  <SCORE.SYSTEM.DIHEDRAL>
0

>  <SCORE.SYSTEM.SOLV>
0

>  <SCORE.SYSTEM.norm>
0

>  <SCORE.heavy>
12

>  <SCORE.norm>
-3.01088

>  <SYMMETRIC_BONDS>
11 12 2
5 6 2

>  <RMSD>
2.705

$$$$
1koc cryst
 OpenBabel11021811393D
libRbt.so/2013.1/901 2013/11/27
 12 11  0  0  0  0  0  0  0  0999 V2000
    3.9980    6.8157   27.0217 N   0  3  0  0  0  0  0  0  0  0  0  0
    4.1279    6.7547   28.5091 C   0  0  2  0  0  0  0  0  0  0  0  0
    5.0906    7.8644   28.9752 C   0  0  0  0  0  0  0  0  0  0  0  0
    4.7885    8.5032   29.9721 O   0  5  0  0  0  0  0  0  0  0  0  0
    4.6597    5.3542   28.9162 C   0  0  0  0  0  0  0  0  0  0  0  0
    3.5185    4.4480   29.3931 C   0  0  0  0  0  0  0  0  0  0  0  0
    3.1186    4.8330   30.8132 C   0  0  0  0  0  0  0  0  0  0  0  0
    1.9987    3.9637   31.2783 N   0  0  0  0  0  0  0  0  0  0  0  0
    2.0552    2.6647   31.1077 C   0  0  0  0  0  0  0  0  0  0  0  0
    3.1972    2.0324   31.2173 N   0  0  0  0  0  0  0  0  0  0  0  0
    0.9663    1.9959   30.8319 N   0  3  0  0  0  0  0  0  0  0  0  0
    6.1051    8.0647   28.3241 O   0  0  0  0  0  0  0  0  0  0  0  0
  2  1  1  6  0  0  0
  2  5  1  0  0  0  0
  2  3  1  0  0  0  0
  3  4  1  0  0  0  0
  3 12  2  0  0  0  0
  5  6  1  0  0  0  0
  6  7  1  0  0  0  0
  7  8  1  0  0  0  0
  8  9  1  0  0  0  0
  9 10  1  0  0  0  0
  9 11  2  0  0  0  0
M  CHG  3   1   1   4  -1  11   1
M  END
>  <CHROM.1>
-37.78680014,-99.87047677,137.57580312,-77.23704551,179.42922040,46.97886704
3.63158311,5.27556325,29.67251989,0.25065075,-1.06829244,-1.74385004

>  <Name>
1koc cryst

>  <RI>
0

>  <Rbt.Current_Directory>
/home/itssahil/PROJECTS/Mol_Feturizer/New_Systems/rnas/1koc

>  <Rbt.Executable>
rbdock ($Id: //depot/dev/client3/rdock/2013.1/src/exe/rbdock.cxx#4 $)

>  <Rbt.Library>
libRbt.so (2013.1, Build901 2013/11/27)

>  <Rbt.Parameter_File>
/export/apps/rDock/src/rDock_2013.1_src/data/scripts/dock_solv.prm

>  <Rbt.Receptor>
prm/pocket_docking_4.prm

>  <SCORE>
-25.8805

>  <SCORE.INTER>
-26.0598

>  <SCORE.INTER.CONST>
1

>  <SCORE.INTER.POLAR>
-5.3657

>  <SCORE.INTER.ROT>
5

>  <SCORE.INTER.SOLV>
25.4425

>  <SCORE.INTER.VDW>
-14.9017

>  <SCORE.INTER.norm>
-2.17165

>  <SCORE.INTRA>
0.179302

>  <SCORE.INTRA.DIHEDRAL>
3.49687

>  <SCORE.INTRA.DIHEDRAL.0>
6.04201

>  <SCORE.INTRA.POLAR>
0

>  <SCORE.INTRA.POLAR.0>
0

>  <SCORE.INTRA.REPUL>
0

>  <SCORE.INTRA.REPUL.0>
0

>  <SCORE.INTRA.SOLV>
-0.670274

>  <SCORE.INTRA.SOLV.lig_0>
-71.0481

>  <SCORE.INTRA.VDW>
-1.234

>  <SCORE.INTRA.VDW.0>
0.968882

>  <SCORE.INTRA.norm>
0.0149418

>  <SCORE.RESTR>
0

>  <SCORE.RESTR.CAVITY>
0

>  <SCORE.RESTR.norm>
0

>  <SCORE.SYSTEM>
0

>  <SCORE.SYSTEM.CONST>
0

>  <SCORE.SYSTEM.DIHEDRAL>
0

>  <SCORE.SYSTEM.SOLV>
0

>  <SCORE.SYSTEM.norm>
0

>  <SCORE.heavy>
12

>  <SCORE.norm>
-2.15671

>  <SYMMETRIC_BONDS>
11 12 2
5 6 2

>  <RMSD>
2.714

$$$$
1koc cryst
 OpenBabel11021811393D
libRbt.so/2013.1/901 2013/11/27
 12 11  0  0  0  0  0  0  0  0999 V2000
    4.2886    6.9596   27.4281 N   0  3  0  0  0  0  0  0  0  0  0  0
    4.9379    6.5842   28.7206 C   0  0  2  0  0  0  0  0  0  0  0  0
    6.4621    6.7722   28.5904 C   0  0  0  0  0  0  0  0  0  0  0  0
    6.8791    7.4395   27.6556 O   0  5  0  0  0  0  0  0  0  0  0  0
    4.5891    5.1089   29.0553 C   0  0  0  0  0  0  0  0  0  0  0  0
    3.1921    4.9999   29.6777 C   0  0  0  0  0  0  0  0  0  0  0  0
    3.2268    4.0195   30.8449 C   0  0  0  0  0  0  0  0  0  0  0  0
    3.0065    2.6302   30.3473 N   0  0  0  0  0  0  0  0  0  0  0  0
    2.1589    1.8362   30.9564 C   0  0  0  0  0  0  0  0  0  0  0  0
    1.0527    2.3170   31.4672 N   0  0  0  0  0  0  0  0  0  0  0  0
    2.4160    0.5580   31.0503 N   0  3  0  0  0  0  0  0  0  0  0  0
    7.1860    6.2385   29.4178 O   0  0  0  0  0  0  0  0  0  0  0  0
  2  1  1  6  0  0  0
  2  5  1  0  0  0  0
  2  3  1  0  0  0  0
  3  4  1  0  0  0  0
  3 12  2  0  0  0  0
  5  6  1  0  0  0  0
  6  7  1  0  0  0  0
  7  8  1  0  0  0  0
  8  9  1  0  0  0  0
  9 10  1  0  0  0  0
  9 11  2  0  0  0  0
M  CHG  3   1   1   4  -1  11   1
M  END
>  <CHROM.1>
-59.39618500,-80.54749574,15.83192763,-137.71462705,-86.84259270,-133.46771550
4.11175772,4.62028687,29.57593200,0.95919223,-0.07475811,-0.56036353

>  <Name>
1koc cryst

>  <RI>
0

>  <Rbt.Current_Directory>
/home/itssahil/PROJECTS/Mol_Feturizer/New_Systems/rnas/1koc

>  <Rbt.Executable>
rbdock ($Id: //depot/dev/client3/rdock/2013.1/src/exe/rbdock.cxx#4 $)

>  <Rbt.Library>
libRbt.so (2013.1, Build901 2013/11/27)

>  <Rbt.Parameter_File>
/export/apps/rDock/src/rDock_2013.1_src/data/scripts/dock_solv.prm

>  <Rbt.Receptor>
prm/pocket_docking_5.prm

>  <SCORE>
-35.9689

>  <SCORE.INTER>
-36.7866

>  <SCORE.INTER.CONST>
1

>  <SCORE.INTER.POLAR>
-6.60785

>  <SCORE.INTER.ROT>
5

>  <SCORE.INTER.SOLV>
25.6716

>  <SCORE.INTER.VDW>
-17.9888

>  <SCORE.INTER.norm>
-3.06555

>  <SCORE.INTRA>
0.817775

>  <SCORE.INTRA.DIHEDRAL>
5.95047

>  <SCORE.INTRA.DIHEDRAL.0>
6.04201

>  <SCORE.INTRA.POLAR>
0

>  <SCORE.INTRA.POLAR.0>
0

>  <SCORE.INTRA.REPUL>
0

>  <SCORE.INTRA.REPUL.0>
0

>  <SCORE.INTRA.SOLV>
-0.791782

>  <SCORE.INTRA.SOLV.lig_0>
-71.0481

>  <SCORE.INTRA.VDW>
-1.76157

>  <SCORE.INTRA.VDW.0>
0.968882

>  <SCORE.INTRA.norm>
0.0681479

>  <SCORE.RESTR>
0

>  <SCORE.RESTR.CAVITY>
0

>  <SCORE.RESTR.norm>
0

>  <SCORE.SYSTEM>
0

>  <SCORE.SYSTEM.CONST>
0

>  <SCORE.SYSTEM.DIHEDRAL>
0

>  <SCORE.SYSTEM.SOLV>
0

>  <SCORE.SYSTEM.norm>
0

>  <SCORE.heavy>
12

>  <SCORE.norm>
-2.9974

>  <SYMMETRIC_BONDS>
11 12 2
5 6 2

>  <RMSD>
2.721

$$$$
1koc cryst
 OpenBabel11021811393D
libRbt.so/2013.1/901 2013/11/27
 12 11  0  0  0  0  0  0  0  0999 V2000
    4.2711    6.9533   27.3854 N   0  3  0  0  0  0  0  0  0  0  0  0
    4.6084    6.8139   28.8344 C   0  0  2  0  0  0  0  0  0  0  0  0
    6.0311    7.3563   29.0735 C   0  0  0  0  0  0  0  0  0  0  0  0
    6.8248    7.3112   28.1455 O   0  5  0  0  0  0  0  0  0  0  0  0
    4.5119    5.3178   29.2374 C   0  0  0  0  0  0  0  0  0  0  0  0
    3.0929    4.9602   29.6949 C   0  0  0  0  0  0  0  0  0  0  0  0
    3.1050    3.6008   30.3854 C   0  0  0  0  0  0  0  0  0  0  0  0
    1.8417    3.4120   31.1564 N   0  0  0  0  0  0  0  0  0  0  0  0
    1.1207    2.3294   30.9897 C   0  0  0  0  0  0  0  0  0  0  0  0
    1.7013    1.1743   30.7785 N   0  0  0  0  0  0  0  0  0  0  0  0
   -0.1837    2.4013   31.0392 N   0  3  0  0  0  0  0  0  0  0  0  0
    6.3069    7.7961   30.1798 O   0  0  0  0  0  0  0  0  0  0  0  0
  2  1  1  6  0  0  0
  2  5  1  0  0  0  0
  2  3  1  0  0  0  0
  3  4  1  0  0  0  0
  3 12  2  0  0  0  0
  5  6  1  0  0  0  0
  6  7  1  0  0  0  0
  7  8  1  0  0  0  0
  8  9  1  0  0  0  0
  9 10  1  0  0  0  0
  9 11  2  0  0  0  0
M  CHG  3   1   1   4  -1  11   1
M  END
>  <CHROM.1>
-52.92902863,-88.97941387,-27.72959968,-166.74639241,164.40072676,128.23112945
3.59477254,4.95582921,29.71867062,0.68699505,-0.56428624,-0.99425942

>  <Name>
1koc cryst

>  <RI>
0

>  <Rbt.Current_Directory>
/home/itssahil/PROJECTS/Mol_Feturizer/New_Systems/rnas/1koc

>  <Rbt.Executable>
rbdock ($Id: //depot/dev/client3/rdock/2013.1/src/exe/rbdock.cxx#4 $)

>  <Rbt.Library>
libRbt.so (2013.1, Build901 2013/11/27)

>  <Rbt.Parameter_File>
/export/apps/rDock/src/rDock_2013.1_src/data/scripts/dock_solv.prm

>  <Rbt.Receptor>
prm/pocket_docking_6.prm

>  <SCORE>
-36.3301

>  <SCORE.INTER>
-34.2305

>  <SCORE.INTER.CONST>
1

>  <SCORE.INTER.POLAR>
-6.27122

>  <SCORE.INTER.ROT>
5

>  <SCORE.INTER.SOLV>
23.7541

>  <SCORE.INTER.VDW>
-16.7676

>  <SCORE.INTER.norm>
-2.85254

>  <SCORE.INTRA>
-2.09961

>  <SCORE.INTRA.DIHEDRAL>
1.52342

>  <SCORE.INTRA.DIHEDRAL.0>
6.04201

>  <SCORE.INTRA.POLAR>
0

>  <SCORE.INTRA.POLAR.0>
0

>  <SCORE.INTRA.REPUL>
0

>  <SCORE.INTRA.REPUL.0>
0

>  <SCORE.INTRA.SOLV>
-1.46119

>  <SCORE.INTRA.SOLV.lig_0>
-71.0481

>  <SCORE.INTRA.VDW>
-2.13073

>  <SCORE.INTRA.VDW.0>
0.968882

>  <SCORE.INTRA.norm>
-0.174968

>  <SCORE.RESTR>
0

>  <SCORE.RESTR.CAVITY>
0

>  <SCORE.RESTR.norm>
0

>  <SCORE.SYSTEM>
0

>  <SCORE.SYSTEM.CONST>
0

>  <SCORE.SYSTEM.DIHEDRAL>
0

>  <SCORE.SYSTEM.SOLV>
0

>  <SCORE.SYSTEM.norm>
0

>  <SCORE.heavy>
12

>  <SCORE.norm>
-3.02751

>  <SYMMETRIC_BONDS>
11 12 2
5 6 2

>  <RMSD>
2.726

$$$$
1koc cryst
 OpenBabel11021811393D
libRbt.so/2013.1/901 2013/11/27
 12 11  0  0  0  0  0  0  0  0999 V2000
    7.6233    3.4335   32.3564 N   0  3  0  0  0  0  0  0  0  0  0  0
    6.4224    3.7515   31.5260 C   0  0  2  0  0  0  0  0  0  0  0  0
    6.2783    5.2820   31.4162 C   0  0  0  0  0  0  0  0  0  0  0  0
    6.3218    5.9368   32.4470 O   0  5  0  0  0  0  0  0  0  0  0  0
    5.1660    3.1237   32.1874 C   0  0  0  0  0  0  0  0  0  0  0  0
    3.8795    3.6736   31.5602 C   0  0  0  0  0  0  0  0  0  0  0  0
    3.6219    2.9786   30.2278 C   0  0  0  0  0  0  0  0  0  0  0  0
    3.0922    1.6042   30.4664 N   0  0  0  0  0  0  0  0  0  0  0  0
    2.1358    1.4069   31.3416 C   0  0  0  0  0  0  0  0  0  0  0  0
    1.1833    2.2936   31.4913 N   0  0  0  0  0  0  0  0  0  0  0  0
    2.1293    0.3181   32.0650 N   0  3  0  0  0  0  0  0  0  0  0  0
    6.1161    5.7724   30.3087 O   0  0  0  0  0  0  0  0  0  0  0  0
  2  1  1  1  0  0  0
  2  5  1  0  0  0  0
  2  3  1  0  0  0  0
  3  4  1  0  0  0  0
  3 12  2  0  0  0  0
  5  6  1  0  0  0  0
  6  7  1  0  0  0  0
  7  8  1  0  0  0  0
  8  9  1  0  0  0  0
  9 10  1  0  0  0  0
  9 11  2  0  0  0  0
M  CHG  3   1   1   4  -1  11   1
M  END
>  <CHROM.1>
63.33078712,167.33695244,-50.05363432,78.71170105,76.14753312,46.11813314
4.51532865,3.29267798,31.47077343,-0.58631613,0.32995325,2.77391669

>  <Name>
1koc cryst

>  <RI>
0

>  <Rbt.Current_Directory>
/home/itssahil/PROJECTS/Mol_Feturizer/New_Systems/rnas/1koc

>  <Rbt.Executable>
rbdock ($Id: //depot/dev/client3/rdock/2013.1/src/exe/rbdock.cxx#4 $)

>  <Rbt.Library>
libRbt.so (2013.1, Build901 2013/11/27)

>  <Rbt.Parameter_File>
/export/apps/rDock/src/rDock_2013.1_src/data/scripts/dock_solv.prm

>  <Rbt.Receptor>
prm/pocket_docking_6.prm

>  <SCORE>
-35.0838

>  <SCORE.INTER>
-34.4696

>  <SCORE.INTER.CONST>
1

>  <SCORE.INTER.POLAR>
-7.08368

>  <SCORE.INTER.ROT>
5

>  <SCORE.INTER.SOLV>
22.9546

>  <SCORE.INTER.VDW>
-13.9523

>  <SCORE.INTER.norm>
-2.87247

>  <SCORE.INTRA>
-0.61414

>  <SCORE.INTRA.DIHEDRAL>
0.255731

>  <SCORE.INTRA.DIHEDRAL.0>
6.04201

>  <SCORE.INTRA.POLAR>
0

>  <SCORE.INTRA.POLAR.0>
0

>  <SCORE.INTRA.REPUL>
0

>  <SCORE.INTRA.REPUL.0>
0

>  <SCORE.INTRA.SOLV>
0.248237

>  <SCORE.INTRA.SOLV.lig_0>
-71.0481

>  <SCORE.INTRA.VDW>
-0.866124

>  <SCORE.INTRA.VDW.0>
0.968882

>  <SCORE.INTRA.norm>
-0.0511783

>  <SCORE.RESTR>
0

>  <SCORE.RESTR.CAVITY>
0

>  <SCORE.RESTR.norm>
0

>  <SCORE.SYSTEM>
0

>  <SCORE.SYSTEM.CONST>
0

>  <SCORE.SYSTEM.DIHEDRAL>
0

>  <SCORE.SYSTEM.SOLV>
0

>  <SCORE.SYSTEM.norm>
0

>  <SCORE.heavy>
12

>  <SCORE.norm>
-2.92365

>  <SYMMETRIC_BONDS>
11 12 2
5 6 2

>  <RMSD>
2.727

$$$$
1koc cryst
 OpenBabel11021811393D
libRbt.so/2013.1/901 2013/11/27
 12 11  0  0  0  0  0  0  0  0999 V2000
    4.0460    6.8114   26.9522 N   0  3  0  0  0  0  0  0  0  0  0  0
    4.0227    6.7922   28.4461 C   0  0  2  0  0  0  0  0  0  0  0  0
    5.2883    7.4934   28.9774 C   0  0  0  0  0  0  0  0  0  0  0  0
    6.2608    7.5554   28.2403 O   0  5  0  0  0  0  0  0  0  0  0  0
    3.9595    5.3201   28.9350 C   0  0  0  0  0  0  0  0  0  0  0  0
    3.3195    5.2275   30.3252 C   0  0  0  0  0  0  0  0  0  0  0  0
    3.5716    3.8436   30.9135 C   0  0  0  0  0  0  0  0  0  0  0  0
    2.2729    3.1936   31.2561 N   0  0  0  0  0  0  0  0  0  0  0  0
    2.1361    1.8936   31.1513 C   0  0  0  0  0  0  0  0  0  0  0  0
    3.1343    1.0979   31.4454 N   0  0  0  0  0  0  0  0  0  0  0  0
    0.9971    1.3881   30.7564 N   0  3  0  0  0  0  0  0  0  0  0  0
    5.2689    7.9454   30.1125 O   0  0  0  0  0  0  0  0  0  0  0  0
  2  1  1  6  0  0  0
  2  5  1  0  0  0  0
  2  3  1  0  0  0  0
  3  4  1  0  0  0  0
  3 12  2  0  0  0  0
  5  6  1  0  0  0  0
  6  7  1  0  0  0  0
  7  8  1  0  0  0  0
  8  9  1  0  0  0  0
  9 10  1  0  0  0  0
  9 11  2  0  0  0  0
M  CHG  3   1   1   4  -1  11   1
M  END
>  <CHROM.1>
-56.41913019,-154.53728018,-22.95049104,-166.51350948,-123.09000133,146.88823530
3.69034323,4.87630046,29.76510460,0.85336902,-0.84976110,-1.02714448

>  <Name>
1koc cryst

>  <RI>
0

>  <Rbt.Current_Directory>
/home/itssahil/PROJECTS/Mol_Feturizer/New_Systems/rnas/1koc

>  <Rbt.Executable>
rbdock ($Id: //depot/dev/client3/rdock/2013.1/src/exe/rbdock.cxx#4 $)

>  <Rbt.Library>
libRbt.so (2013.1, Build901 2013/11/27)

>  <Rbt.Parameter_File>
/export/apps/rDock/src/rDock_2013.1_src/data/scripts/dock_solv.prm

>  <Rbt.Receptor>
prm/pocket_docking_6.prm

>  <SCORE>
-30.0107

>  <SCORE.INTER>
-30.1036

>  <SCORE.INTER.CONST>
1

>  <SCORE.INTER.POLAR>
-6.72158

>  <SCORE.INTER.ROT>
5

>  <SCORE.INTER.SOLV>
27.2003

>  <SCORE.INTER.VDW>
-13.6639

>  <SCORE.INTER.norm>
-2.50863

>  <SCORE.INTRA>
0.0928997

>  <SCORE.INTRA.DIHEDRAL>
5.61051

>  <SCORE.INTRA.DIHEDRAL.0>
6.04201

>  <SCORE.INTRA.POLAR>
0

>  <SCORE.INTRA.POLAR.0>
0

>  <SCORE.INTRA.REPUL>
0

>  <SCORE.INTRA.REPUL.0>
0

>  <SCORE.INTRA.SOLV>
-1.29842

>  <SCORE.INTRA.SOLV.lig_0>
-71.0481

>  <SCORE.INTRA.VDW>
-2.06315

>  <SCORE.INTRA.VDW.0>
0.968882

>  <SCORE.INTRA.norm>
0.00774164

>  <SCORE.RESTR>
0

>  <SCORE.RESTR.CAVITY>
0

>  <SCORE.RESTR.norm>
0

>  <SCORE.SYSTEM>
0

>  <SCORE.SYSTEM.CONST>
0

>  <SCORE.SYSTEM.DIHEDRAL>
0

>  <SCORE.SYSTEM.SOLV>
0

>  <SCORE.SYSTEM.norm>
0

>  <SCORE.heavy>
12

>  <SCORE.norm>
-2.50089

>  <SYMMETRIC_BONDS>
11 12 2
5 6 2

>  <RMSD>
2.730

$$$$
1koc cryst
 OpenBabel11021811393D
libRbt.so/2013.1/901 2013/11/27
 12 11  0  0  0  0  0  0  0  0999 V2000
    6.4239    5.5278   27.6954 N   0  3  0  0  0  0  0  0  0  0  0  0
    5.1043    6.0297   28.1850 C   0  0  2  0  0  0  0  0  0  0  0  0
    5.2869    7.4500   28.7549 C   0  0  0  0  0  0  0  0  0  0  0  0
    6.0409    7.5931   29.7057 O   0  5  0  0  0  0  0  0  0  0  0  0
    4.5641    5.0626   29.2727 C   0  0  0  0  0  0  0  0  0  0  0  0
    3.0593    5.2610   29.4892 C   0  0  0  0  0  0  0  0  0  0  0  0
    2.5777    4.3433   30.6076 C   0  0  0  0  0  0  0  0  0  0  0  0
    2.8276    2.9193   30.2386 N   0  0  0  0  0  0  0  0  0  0  0  0
    2.3710    1.9502   30.9949 C   0  0  0  0  0  0  0  0  0  0  0  0
    1.2111    2.0683   31.5922 N   0  0  0  0  0  0  0  0  0  0  0  0
    3.0735    0.8588   31.1501 N   0  3  0  0  0  0  0  0  0  0  0  0
    4.6636    8.3668   28.2408 O   0  0  0  0  0  0  0  0  0  0  0  0
  2  1  1  1  0  0  0
  2  5  1  0  0  0  0
  2  3  1  0  0  0  0
  3  4  1  0  0  0  0
  3 12  2  0  0  0  0
  5  6  1  0  0  0  0
  6  7  1  0  0  0  0
  7  8  1  0  0  0  0
  8  9  1  0  0  0  0
  9 10  1  0  0  0  0
  9 11  2  0  0  0  0
M  CHG  3   1   1   4  -1  11   1
M  END
>  <CHROM.1>
-99.80112271,-162.04376379,-61.10869509,-177.34216781,-60.43841059,-173.16382327
3.96294849,4.77167344,29.65397098,-0.97315166,-0.52414654,3.01269729

>  <Name>
1koc cryst

>  <RI>
0

>  <Rbt.Current_Directory>
/home/itssahil/PROJECTS/Mol_Feturizer/New_Systems/rnas/1koc

>  <Rbt.Executable>
rbdock ($Id: //depot/dev/client3/rdock/2013.1/src/exe/rbdock.cxx#4 $)

>  <Rbt.Library>
libRbt.so (2013.1, Build901 2013/11/27)

>  <Rbt.Parameter_File>
/export/apps/rDock/src/rDock_2013.1_src/data/scripts/dock_solv.prm

>  <Rbt.Receptor>
prm/pocket_docking_7.prm

>  <SCORE>
-28.9736

>  <SCORE.INTER>
-27.9992

>  <SCORE.INTER.CONST>
1

>  <SCORE.INTER.POLAR>
-4.95201

>  <SCORE.INTER.ROT>
5

>  <SCORE.INTER.SOLV>
22.7902

>  <SCORE.INTER.VDW>
-16.6895

>  <SCORE.INTER.norm>
-2.33327

>  <SCORE.INTRA>
-0.974406

>  <SCORE.INTRA.DIHEDRAL>
1.16108

>  <SCORE.INTRA.DIHEDRAL.0>
6.04201

>  <SCORE.INTRA.POLAR>
0

>  <SCORE.INTRA.POLAR.0>
0

>  <SCORE.INTRA.REPUL>
0

>  <SCORE.INTRA.REPUL.0>
0

>  <SCORE.INTRA.SOLV>
-1.18233

>  <SCORE.INTRA.SOLV.lig_0>
-71.0481

>  <SCORE.INTRA.VDW>
-0.963779

>  <SCORE.INTRA.VDW.0>
0.968882

>  <SCORE.INTRA.norm>
-0.0812005

>  <SCORE.RESTR>
0

>  <SCORE.RESTR.CAVITY>
0

>  <SCORE.RESTR.norm>
0

>  <SCORE.SYSTEM>
0

>  <SCORE.SYSTEM.CONST>
0

>  <SCORE.SYSTEM.DIHEDRAL>
0

>  <SCORE.SYSTEM.SOLV>
0

>  <SCORE.SYSTEM.norm>
0

>  <SCORE.heavy>
12

>  <SCORE.norm>
-2.41447

>  <SYMMETRIC_BONDS>
11 12 2
5 6 2

>  <RMSD>
2.744

$$$$
1koc cryst
 OpenBabel11021811393D
libRbt.so/2013.1/901 2013/11/27
 12 11  0  0  0  0  0  0  0  0999 V2000
    4.2253    6.9661   27.3146 N   0  3  0  0  0  0  0  0  0  0  0  0
    4.5508    6.8587   28.7691 C   0  0  2  0  0  0  0  0  0  0  0  0
    5.9662    7.4192   29.0099 C   0  0  0  0  0  0  0  0  0  0  0  0
    6.7876    7.3056   28.1125 O   0  5  0  0  0  0  0  0  0  0  0  0
    4.4646    5.3700   29.2009 C   0  0  0  0  0  0  0  0  0  0  0  0
    3.0666    5.0293   29.7304 C   0  0  0  0  0  0  0  0  0  0  0  0
    3.0892    3.6532   30.3866 C   0  0  0  0  0  0  0  0  0  0  0  0
    1.8317    3.4395   31.1608 N   0  0  0  0  0  0  0  0  0  0  0  0
    1.1258    2.3480   30.9876 C   0  0  0  0  0  0  0  0  0  0  0  0
    1.7224    1.2033   30.7645 N   0  0  0  0  0  0  0  0  0  0  0  0
   -0.1792    2.4005   31.0427 N   0  3  0  0  0  0  0  0  0  0  0  0
    6.2087    7.9410   30.0880 O   0  0  0  0  0  0  0  0  0  0  0  0
  2  1  1  6  0  0  0
  2  5  1  0  0  0  0
  2  3  1  0  0  0  0
  3  4  1  0  0  0  0
  3 12  2  0  0  0  0
  5  6  1  0  0  0  0
  6  7  1  0  0  0  0
  7  8  1  0  0  0  0
  8  9  1  0  0  0  0
  9 10  1  0  0  0  0
  9 11  2  0  0  0  0
M  CHG  3   1   1   4  -1  11   1
M  END
>  <CHROM.1>
-172.25481826,-92.31793156,-31.16068168,-169.28783206,167.63667310,129.35490030
3.56396942,4.99734700,29.69046350,0.67966025,-0.59497877,-1.03023774

>  <Name>
1koc cryst

>  <RI>
0

>  <Rbt.Current_Directory>
/home/itssahil/PROJECTS/Mol_Feturizer/New_Systems/rnas/1koc

>  <Rbt.Executable>
rbdock ($Id: //depot/dev/client3/rdock/2013.1/src/exe/rbdock.cxx#4 $)

>  <Rbt.Library>
libRbt.so (2013.1, Build901 2013/11/27)

>  <Rbt.Parameter_File>
/export/apps/rDock/src/rDock_2013.1_src/data/scripts/dock_solv.prm

>  <Rbt.Receptor>
prm/pocket_docking_5.prm

>  <SCORE>
-36.3603

>  <SCORE.INTER>
-34.1735

>  <SCORE.INTER.CONST>
1

>  <SCORE.INTER.POLAR>
-6.25543

>  <SCORE.INTER.ROT>
5

>  <SCORE.INTER.SOLV>
24.2132

>  <SCORE.INTER.VDW>
-16.9353

>  <SCORE.INTER.norm>
-2.84779

>  <SCORE.INTRA>
-2.18683

>  <SCORE.INTRA.DIHEDRAL>
1.44447

>  <SCORE.INTRA.DIHEDRAL.0>
6.04201

>  <SCORE.INTRA.POLAR>
0

>  <SCORE.INTRA.POLAR.0>
0

>  <SCORE.INTRA.REPUL>
0

>  <SCORE.INTRA.REPUL.0>
0

>  <SCORE.INTRA.SOLV>
-1.5237

>  <SCORE.INTRA.SOLV.lig_0>
-71.0481

>  <SCORE.INTRA.VDW>
-2.14721

>  <SCORE.INTRA.VDW.0>
0.968882

>  <SCORE.INTRA.norm>
-0.182236

>  <SCORE.RESTR>
0

>  <SCORE.RESTR.CAVITY>
0

>  <SCORE.RESTR.norm>
0

>  <SCORE.SYSTEM>
0

>  <SCORE.SYSTEM.CONST>
0

>  <SCORE.SYSTEM.DIHEDRAL>
0

>  <SCORE.SYSTEM.SOLV>
0

>  <SCORE.SYSTEM.norm>
0

>  <SCORE.heavy>
12

>  <SCORE.norm>
-3.03003

>  <SYMMETRIC_BONDS>
11 12 2
5 6 2

>  <RMSD>
2.756

$$$$
1koc cryst
 OpenBabel11021811393D
libRbt.so/2013.1/901 2013/11/27
 12 11  0  0  0  0  0  0  0  0999 V2000
    4.5298    7.1284   27.2744 N   0  3  0  0  0  0  0  0  0  0  0  0
    5.0207    6.4647   28.5199 C   0  0  2  0  0  0  0  0  0  0  0  0
    6.4363    5.9091   28.2687 C   0  0  0  0  0  0  0  0  0  0  0  0
    6.5397    4.8722   27.6306 O   0  5  0  0  0  0  0  0  0  0  0  0
    4.0405    5.3255   28.9094 C   0  0  0  0  0  0  0  0  0  0  0  0
    4.4498    4.6752   30.2362 C   0  0  0  0  0  0  0  0  0  0  0  0
    3.2264    4.0524   30.8998 C   0  0  0  0  0  0  0  0  0  0  0  0
    2.9990    2.6806   30.3589 N   0  0  0  0  0  0  0  0  0  0  0  0
    2.1598    1.8664   30.9526 C   0  0  0  0  0  0  0  0  0  0  0  0
    1.0608    2.3294   31.4946 N   0  0  0  0  0  0  0  0  0  0  0  0
    2.4179    0.5857   31.0000 N   0  3  0  0  0  0  0  0  0  0  0  0
    7.3901    6.5208   28.7263 O   0  0  0  0  0  0  0  0  0  0  0  0
  2  1  1  6  0  0  0
  2  5  1  0  0  0  0
  2  3  1  0  0  0  0
  3  4  1  0  0  0  0
  3 12  2  0  0  0  0
  5  6  1  0  0  0  0
  6  7  1  0  0  0  0
  7  8  1  0  0  0  0
  8  9  1  0  0  0  0
  9 10  1  0  0  0  0
  9 11  2  0  0  0  0
M  CHG  3   1   1   4  -1  11   1
M  END
>  <CHROM.1>
173.22292421,-176.11974018,-77.31689973,154.71582845,84.90753015,167.42775229
4.18488460,4.36522209,29.49471046,0.91199752,0.25309376,-0.40738232

>  <Name>
1koc cryst

>  <RI>
0

>  <Rbt.Current_Directory>
/home/itssahil/PROJECTS/Mol_Feturizer/New_Systems/rnas/1koc

>  <Rbt.Executable>
rbdock ($Id: //depot/dev/client3/rdock/2013.1/src/exe/rbdock.cxx#4 $)

>  <Rbt.Library>
libRbt.so (2013.1, Build901 2013/11/27)

>  <Rbt.Parameter_File>
/export/apps/rDock/src/rDock_2013.1_src/data/scripts/dock_solv.prm

>  <Rbt.Receptor>
prm/pocket_docking_8.prm

>  <SCORE>
-36.1091

>  <SCORE.INTER>
-34.8619

>  <SCORE.INTER.CONST>
1

>  <SCORE.INTER.POLAR>
-6.58341

>  <SCORE.INTER.ROT>
5

>  <SCORE.INTER.SOLV>
27.2522

>  <SCORE.INTER.VDW>
-17.314

>  <SCORE.INTER.norm>
-2.90516

>  <SCORE.INTRA>
-1.24717

>  <SCORE.INTRA.DIHEDRAL>
1.92163

>  <SCORE.INTRA.DIHEDRAL.0>
6.04201

>  <SCORE.INTRA.POLAR>
0

>  <SCORE.INTRA.POLAR.0>
0

>  <SCORE.INTRA.REPUL>
0

>  <SCORE.INTRA.REPUL.0>
0

>  <SCORE.INTRA.SOLV>
-1.34488

>  <SCORE.INTRA.SOLV.lig_0>
-71.0481

>  <SCORE.INTRA.VDW>
-1.53554

>  <SCORE.INTRA.VDW.0>
0.968882

>  <SCORE.INTRA.norm>
-0.103931

>  <SCORE.RESTR>
0

>  <SCORE.RESTR.CAVITY>
0

>  <SCORE.RESTR.norm>
0

>  <SCORE.SYSTEM>
0

>  <SCORE.SYSTEM.CONST>
0

>  <SCORE.SYSTEM.DIHEDRAL>
0

>  <SCORE.SYSTEM.SOLV>
0

>  <SCORE.SYSTEM.norm>
0

>  <SCORE.heavy>
12

>  <SCORE.norm>
-3.00909

>  <SYMMETRIC_BONDS>
11 12 2
5 6 2

>  <RMSD>
2.775

$$$$
1koc cryst
 OpenBabel11021811393D
libRbt.so/2013.1/901 2013/11/27
 12 11  0  0  0  0  0  0  0  0999 V2000
    6.5715    4.8715   27.9084 N   0  3  0  0  0  0  0  0  0  0  0  0
    5.4344    5.1565   28.8351 C   0  0  2  0  0  0  0  0  0  0  0  0
    5.3316    6.6791   29.0509 C   0  0  0  0  0  0  0  0  0  0  0  0
    5.9322    7.4092   28.2768 O   0  5  0  0  0  0  0  0  0  0  0  0
    5.6790    4.4223   30.1809 C   0  0  0  0  0  0  0  0  0  0  0  0
    5.1333    2.9902   30.1351 C   0  0  0  0  0  0  0  0  0  0  0  0
    3.6120    3.0187   30.2349 C   0  0  0  0  0  0  0  0  0  0  0  0
    3.0922    1.6380   30.4578 N   0  0  0  0  0  0  0  0  0  0  0  0
    2.1377    1.4237   31.3312 C   0  0  0  0  0  0  0  0  0  0  0  0
    1.1791    2.3019   31.4918 N   0  0  0  0  0  0  0  0  0  0  0  0
    2.1393    0.3265   32.0419 N   0  3  0  0  0  0  0  0  0  0  0  0
    4.6658    7.0890   29.9901 O   0  0  0  0  0  0  0  0  0  0  0  0
  2  1  1  6  0  0  0
  2  5  1  0  0  0  0
  2  3  1  0  0  0  0
  3  4  1  0  0  0  0
  3 12  2  0  0  0  0
  5  6  1  0  0  0  0
  6  7  1  0  0  0  0
  7  8  1  0  0  0  0
  8  9  1  0  0  0  0
  9 10  1  0  0  0  0
  9 11  2  0  0  0  0
M  CHG  3   1   1   4  -1  11   1
M  END
>  <CHROM.1>
56.38069087,-87.16288238,15.21702956,-74.82622967,-169.05351042,137.12924772
4.24787729,3.94546196,29.98188354,-0.89210248,-0.55150484,3.05352786

>  <Name>
1koc cryst

>  <RI>
0

>  <Rbt.Current_Directory>
/home/itssahil/PROJECTS/Mol_Feturizer/New_Systems/rnas/1koc

>  <Rbt.Executable>
rbdock ($Id: //depot/dev/client3/rdock/2013.1/src/exe/rbdock.cxx#4 $)

>  <Rbt.Library>
libRbt.so (2013.1, Build901 2013/11/27)

>  <Rbt.Parameter_File>
/export/apps/rDock/src/rDock_2013.1_src/data/scripts/dock_solv.prm

>  <Rbt.Receptor>
prm/pocket_docking_8.prm

>  <SCORE>
-32.625

>  <SCORE.INTER>
-31.1624

>  <SCORE.INTER.CONST>
1

>  <SCORE.INTER.POLAR>
-6.00239

>  <SCORE.INTER.ROT>
5

>  <SCORE.INTER.SOLV>
22.2345

>  <SCORE.INTER.VDW>
-15.1118

>  <SCORE.INTER.norm>
-2.59686

>  <SCORE.INTRA>
-1.46264

>  <SCORE.INTRA.DIHEDRAL>
0.947964

>  <SCORE.INTRA.DIHEDRAL.0>
6.04201

>  <SCORE.INTRA.POLAR>
0

>  <SCORE.INTRA.POLAR.0>
0

>  <SCORE.INTRA.REPUL>
0

>  <SCORE.INTRA.REPUL.0>
0

>  <SCORE.INTRA.SOLV>
-0.892233

>  <SCORE.INTRA.SOLV.lig_0>
-71.0481

>  <SCORE.INTRA.VDW>
-1.49051

>  <SCORE.INTRA.VDW.0>
0.968882

>  <SCORE.INTRA.norm>
-0.121887

>  <SCORE.RESTR>
0

>  <SCORE.RESTR.CAVITY>
0

>  <SCORE.RESTR.norm>
0

>  <SCORE.SYSTEM>
0

>  <SCORE.SYSTEM.CONST>
0

>  <SCORE.SYSTEM.DIHEDRAL>
0

>  <SCORE.SYSTEM.SOLV>
0

>  <SCORE.SYSTEM.norm>
0

>  <SCORE.heavy>
12

>  <SCORE.norm>
-2.71875

>  <SYMMETRIC_BONDS>
11 12 2
5 6 2

>  <RMSD>
2.778

$$$$
1koc cryst
 OpenBabel11021811393D
libRbt.so/2013.1/901 2013/11/27
 12 11  0  0  0  0  0  0  0  0999 V2000
    4.2200    6.9080   27.3610 N   0  3  0  0  0  0  0  0  0  0  0  0
    4.6550    6.7379   28.7804 C   0  0  2  0  0  0  0  0  0  0  0  0
    6.1179    7.2036   28.9168 C   0  0  0  0  0  0  0  0  0  0  0  0
    6.7840    7.3052   27.8975 O   0  5  0  0  0  0  0  0  0  0  0  0
    4.5101    5.2451   29.1813 C   0  0  0  0  0  0  0  0  0  0  0  0
    3.1134    4.9584   29.7450 C   0  0  0  0  0  0  0  0  0  0  0  0
    3.1004    3.5844   30.4061 C   0  0  0  0  0  0  0  0  0  0  0  0
    1.8332    3.4020   31.1724 N   0  0  0  0  0  0  0  0  0  0  0  0
    1.1102    2.3205   31.0071 C   0  0  0  0  0  0  0  0  0  0  0  0
    1.6889    1.1631   30.8033 N   0  0  0  0  0  0  0  0  0  0  0  0
   -0.1941    2.3959   31.0507 N   0  3  0  0  0  0  0  0  0  0  0  0
    6.5506    7.4395   30.0350 O   0  0  0  0  0  0  0  0  0  0  0  0
  2  1  1  6  0  0  0
  2  5  1  0  0  0  0
  2  3  1  0  0  0  0
  3  4  1  0  0  0  0
  3 12  2  0  0  0  0
  5  6  1  0  0  0  0
  6  7  1  0  0  0  0
  7  8  1  0  0  0  0
  8  9  1  0  0  0  0
  9 10  1  0  0  0  0
  9 11  2  0  0  0  0
M  CHG  3   1   1   4  -1  11   1
M  END
>  <CHROM.1>
-53.91374754,-89.18847423,-17.61224999,-167.61255589,169.57195402,129.97154073
3.61494980,4.89209847,29.67282826,0.74071487,-0.45808063,-0.90488812

>  <Name>
1koc cryst

>  <RI>
0

>  <Rbt.Current_Directory>
/home/itssahil/PROJECTS/Mol_Feturizer/New_Systems/rnas/1koc

>  <Rbt.Executable>
rbdock ($Id: //depot/dev/client3/rdock/2013.1/src/exe/rbdock.cxx#4 $)

>  <Rbt.Library>
libRbt.so (2013.1, Build901 2013/11/27)

>  <Rbt.Parameter_File>
/export/apps/rDock/src/rDock_2013.1_src/data/scripts/dock_solv.prm

>  <Rbt.Receptor>
prm/pocket_docking_8.prm

>  <SCORE>
-36.4521

>  <SCORE.INTER>
-34.1826

>  <SCORE.INTER.CONST>
1

>  <SCORE.INTER.POLAR>
-6.30079

>  <SCORE.INTER.ROT>
5

>  <SCORE.INTER.SOLV>
24.4182

>  <SCORE.INTER.VDW>
-16.8585

>  <SCORE.INTER.norm>
-2.84855

>  <SCORE.INTRA>
-2.26951

>  <SCORE.INTRA.DIHEDRAL>
0.96697

>  <SCORE.INTRA.DIHEDRAL.0>
6.04201

>  <SCORE.INTRA.POLAR>
0

>  <SCORE.INTRA.POLAR.0>
0

>  <SCORE.INTRA.REPUL>
0

>  <SCORE.INTRA.REPUL.0>
0

>  <SCORE.INTRA.SOLV>
-1.41658

>  <SCORE.INTRA.SOLV.lig_0>
-71.0481

>  <SCORE.INTRA.VDW>
-2.04471

>  <SCORE.INTRA.VDW.0>
0.968882

>  <SCORE.INTRA.norm>
-0.189126

>  <SCORE.RESTR>
0

>  <SCORE.RESTR.CAVITY>
0

>  <SCORE.RESTR.norm>
0

>  <SCORE.SYSTEM>
0

>  <SCORE.SYSTEM.CONST>
0

>  <SCORE.SYSTEM.DIHEDRAL>
0

>  <SCORE.SYSTEM.SOLV>
0

>  <SCORE.SYSTEM.norm>
0

>  <SCORE.heavy>
12

>  <SCORE.norm>
-3.03767

>  <SYMMETRIC_BONDS>
11 12 2
5 6 2

>  <RMSD>
2.781

$$$$
1koc cryst
 OpenBabel11021811393D
libRbt.so/2013.1/901 2013/11/27
 12 11  0  0  0  0  0  0  0  0999 V2000
    4.0311    6.7972   26.9944 N   0  3  0  0  0  0  0  0  0  0  0  0
    4.1080    7.0024   28.4726 C   0  0  2  0  0  0  0  0  0  0  0  0
    5.2143    8.0304   28.7803 C   0  0  0  0  0  0  0  0  0  0  0  0
    5.1492    8.6435   29.8352 O   0  5  0  0  0  0  0  0  0  0  0  0
    4.4093    5.6433   29.1597 C   0  0  0  0  0  0  0  0  0  0  0  0
    3.1219    4.9866   29.6716 C   0  0  0  0  0  0  0  0  0  0  0  0
    3.4643    3.9499   30.7360 C   0  0  0  0  0  0  0  0  0  0  0  0
    2.2247    3.2449   31.1750 N   0  0  0  0  0  0  0  0  0  0  0  0
    2.1600    1.9357   31.1374 C   0  0  0  0  0  0  0  0  0  0  0  0
    3.2168    1.2132   31.4155 N   0  0  0  0  0  0  0  0  0  0  0  0
    1.0348    1.3478   30.8258 N   0  3  0  0  0  0  0  0  0  0  0  0
    6.0996    8.1960   27.9543 O   0  0  0  0  0  0  0  0  0  0  0  0
  2  1  1  6  0  0  0
  2  5  1  0  0  0  0
  2  3  1  0  0  0  0
  3  4  1  0  0  0  0
  3 12  2  0  0  0  0
  5  6  1  0  0  0  0
  6  7  1  0  0  0  0
  7  8  1  0  0  0  0
  8  9  1  0  0  0  0
  9 10  1  0  0  0  0
  9 11  2  0  0  0  0
M  CHG  3   1   1   4  -1  11   1
M  END
>  <CHROM.1>
-164.22762297,-97.19231486,156.77238851,-160.20925141,-176.35707903,125.89484854
3.68444461,5.07775986,29.65383145,0.81425732,-0.93210079,-1.07359249

>  <Name>
1koc cryst

>  <RI>
0

>  <Rbt.Current_Directory>
/home/itssahil/PROJECTS/Mol_Feturizer/New_Systems/rnas/1koc

>  <Rbt.Executable>
rbdock ($Id: //depot/dev/client3/rdock/2013.1/src/exe/rbdock.cxx#4 $)

>  <Rbt.Library>
libRbt.so (2013.1, Build901 2013/11/27)

>  <Rbt.Parameter_File>
/export/apps/rDock/src/rDock_2013.1_src/data/scripts/dock_solv.prm

>  <Rbt.Receptor>
prm/pocket_docking_5.prm

>  <SCORE>
-31.2998

>  <SCORE.INTER>
-29.97

>  <SCORE.INTER.CONST>
1

>  <SCORE.INTER.POLAR>
-6.52912

>  <SCORE.INTER.ROT>
5

>  <SCORE.INTER.SOLV>
27.581

>  <SCORE.INTER.VDW>
-14.3433

>  <SCORE.INTER.norm>
-2.4975

>  <SCORE.INTRA>
-1.32975

>  <SCORE.INTRA.DIHEDRAL>
3.05092

>  <SCORE.INTRA.DIHEDRAL.0>
6.04201

>  <SCORE.INTRA.POLAR>
0

>  <SCORE.INTRA.POLAR.0>
0

>  <SCORE.INTRA.REPUL>
0

>  <SCORE.INTRA.REPUL.0>
0

>  <SCORE.INTRA.SOLV>
-1.55605

>  <SCORE.INTRA.SOLV.lig_0>
-71.0481

>  <SCORE.INTRA.VDW>
-2.07719

>  <SCORE.INTRA.VDW.0>
0.968882

>  <SCORE.INTRA.norm>
-0.110813

>  <SCORE.RESTR>
0

>  <SCORE.RESTR.CAVITY>
0

>  <SCORE.RESTR.norm>
0

>  <SCORE.SYSTEM>
0

>  <SCORE.SYSTEM.CONST>
0

>  <SCORE.SYSTEM.DIHEDRAL>
0

>  <SCORE.SYSTEM.SOLV>
0

>  <SCORE.SYSTEM.norm>
0

>  <SCORE.heavy>
12

>  <SCORE.norm>
-2.60831

>  <SYMMETRIC_BONDS>
11 12 2
5 6 2

>  <RMSD>
2.789

$$$$
1koc cryst
 OpenBabel11021811393D
libRbt.so/2013.1/901 2013/11/27
 12 11  0  0  0  0  0  0  0  0999 V2000
    4.3607    6.8217   27.4781 N   0  3  0  0  0  0  0  0  0  0  0  0
    4.9587    6.4919   28.8072 C   0  0  2  0  0  0  0  0  0  0  0  0
    6.4743    6.7679   28.7587 C   0  0  0  0  0  0  0  0  0  0  0  0
    7.1683    6.3126   29.6554 O   0  5  0  0  0  0  0  0  0  0  0  0
    4.6783    5.0006   29.1350 C   0  0  0  0  0  0  0  0  0  0  0  0
    3.2890    4.8248   29.7592 C   0  0  0  0  0  0  0  0  0  0  0  0
    3.1855    3.4438   30.3972 C   0  0  0  0  0  0  0  0  0  0  0  0
    1.9076    3.3312   31.1591 N   0  0  0  0  0  0  0  0  0  0  0  0
    1.1443    2.2743   31.0177 C   0  0  0  0  0  0  0  0  0  0  0  0
    1.6790    1.0903   30.8494 N   0  0  0  0  0  0  0  0  0  0  0  0
   -0.1564    2.4010   31.0499 N   0  3  0  0  0  0  0  0  0  0  0  0
    6.9137    7.4372   27.8355 O   0  0  0  0  0  0  0  0  0  0  0  0
  2  1  1  6  0  0  0
  2  5  1  0  0  0  0
  2  3  1  0  0  0  0
  3  4  1  0  0  0  0
  3 12  2  0  0  0  0
  5  6  1  0  0  0  0
  6  7  1  0  0  0  0
  7  8  1  0  0  0  0
  8  9  1  0  0  0  0
  9 10  1  0  0  0  0
  9 11  2  0  0  0  0
M  CHG  3   1   1   4  -1  11   1
M  END
>  <CHROM.1>
-173.95963566,-83.94172571,-165.76896318,-165.23925321,172.61749111,132.91120963
3.78879224,4.68865285,29.63582414,0.78364524,-0.19115040,-0.69146668

>  <Name>
1koc cryst

>  <RI>
0

>  <Rbt.Current_Directory>
/home/itssahil/PROJECTS/Mol_Feturizer/New_Systems/rnas/1koc

>  <Rbt.Executable>
rbdock ($Id: //depot/dev/client3/rdock/2013.1/src/exe/rbdock.cxx#4 $)

>  <Rbt.Library>
libRbt.so (2013.1, Build901 2013/11/27)

>  <Rbt.Parameter_File>
/export/apps/rDock/src/rDock_2013.1_src/data/scripts/dock_solv.prm

>  <Rbt.Receptor>
prm/pocket_docking_8.prm

>  <SCORE>
-36.5234

>  <SCORE.INTER>
-34.3434

>  <SCORE.INTER.CONST>
1

>  <SCORE.INTER.POLAR>
-6.31177

>  <SCORE.INTER.ROT>
5

>  <SCORE.INTER.SOLV>
23.4409

>  <SCORE.INTER.VDW>
-16.6034

>  <SCORE.INTER.norm>
-2.86195

>  <SCORE.INTRA>
-2.17993

>  <SCORE.INTRA.DIHEDRAL>
0.326482

>  <SCORE.INTRA.DIHEDRAL.0>
6.04201

>  <SCORE.INTRA.POLAR>
0

>  <SCORE.INTRA.POLAR.0>
0

>  <SCORE.INTRA.REPUL>
0

>  <SCORE.INTRA.REPUL.0>
0

>  <SCORE.INTRA.SOLV>
-1.30145

>  <SCORE.INTRA.SOLV.lig_0>
-71.0481

>  <SCORE.INTRA.VDW>
-1.69245

>  <SCORE.INTRA.VDW.0>
0.968882

>  <SCORE.INTRA.norm>
-0.181661

>  <SCORE.RESTR>
0

>  <SCORE.RESTR.CAVITY>
0

>  <SCORE.RESTR.norm>
0

>  <SCORE.SYSTEM>
0

>  <SCORE.SYSTEM.CONST>
0

>  <SCORE.SYSTEM.DIHEDRAL>
0

>  <SCORE.SYSTEM.SOLV>
0

>  <SCORE.SYSTEM.norm>
0

>  <SCORE.heavy>
12

>  <SCORE.norm>
-3.04361

>  <SYMMETRIC_BONDS>
11 12 2
5 6 2

>  <RMSD>
2.796

$$$$
1koc cryst
 OpenBabel11021811393D
libRbt.so/2013.1/901 2013/11/27
 12 11  0  0  0  0  0  0  0  0999 V2000
    4.3572    6.7897   27.4636 N   0  3  0  0  0  0  0  0  0  0  0  0
    4.9414    6.5008   28.8083 C   0  0  2  0  0  0  0  0  0  0  0  0
    6.4540    6.7945   28.7726 C   0  0  0  0  0  0  0  0  0  0  0  0
    6.8687    7.7428   29.4221 O   0  5  0  0  0  0  0  0  0  0  0  0
    4.6749    5.0147   29.1699 C   0  0  0  0  0  0  0  0  0  0  0  0
    3.2813    4.8379   29.7843 C   0  0  0  0  0  0  0  0  0  0  0  0
    3.1757    3.4582   30.4248 C   0  0  0  0  0  0  0  0  0  0  0  0
    1.8921    3.3449   31.1770 N   0  0  0  0  0  0  0  0  0  0  0  0
    1.1301    2.2879   31.0292 C   0  0  0  0  0  0  0  0  0  0  0  0
    1.6663    1.1042   30.8641 N   0  0  0  0  0  0  0  0  0  0  0  0
   -0.1708    2.4143   31.0518 N   0  3  0  0  0  0  0  0  0  0  0  0
    7.1693    6.0764   28.0901 O   0  0  0  0  0  0  0  0  0  0  0  0
  2  1  1  6  0  0  0
  2  5  1  0  0  0  0
  2  3  1  0  0  0  0
  3  4  1  0  0  0  0
  3 12  2  0  0  0  0
  5  6  1  0  0  0  0
  6  7  1  0  0  0  0
  7  8  1  0  0  0  0
  8  9  1  0  0  0  0
  9 10  1  0  0  0  0
  9 11  2  0  0  0  0
M  CHG  3   1   1   4  -1  11   1
M  END
>  <CHROM.1>
-54.46712727,-84.12167140,111.65769858,-166.63768811,172.64163389,132.70670150
3.77534103,4.70212307,29.64814682,0.79508539,-0.03491873,-0.52469716

>  <Name>
1koc cryst

>  <RI>
0

>  <Rbt.Current_Directory>
/home/itssahil/PROJECTS/Mol_Feturizer/New_Systems/rnas/1koc

>  <Rbt.Executable>
rbdock ($Id: //depot/dev/client3/rdock/2013.1/src/exe/rbdock.cxx#4 $)

>  <Rbt.Library>
libRbt.so (2013.1, Build901 2013/11/27)

>  <Rbt.Parameter_File>
/export/apps/rDock/src/rDock_2013.1_src/data/scripts/dock_solv.prm

>  <Rbt.Receptor>
prm/pocket_docking_6.prm

>  <SCORE>
-37.0357

>  <SCORE.INTER>
-34.2708

>  <SCORE.INTER.CONST>
1

>  <SCORE.INTER.POLAR>
-6.3075

>  <SCORE.INTER.ROT>
5

>  <SCORE.INTER.SOLV>
23.6667

>  <SCORE.INTER.VDW>
-16.6444

>  <SCORE.INTER.norm>
-2.8559

>  <SCORE.INTRA>
-2.76492

>  <SCORE.INTRA.DIHEDRAL>
0.18584

>  <SCORE.INTRA.DIHEDRAL.0>
6.04201

>  <SCORE.INTRA.POLAR>
0

>  <SCORE.INTRA.POLAR.0>
0

>  <SCORE.INTRA.REPUL>
0

>  <SCORE.INTRA.REPUL.0>
0

>  <SCORE.INTRA.SOLV>
-1.67211

>  <SCORE.INTRA.SOLV.lig_0>
-71.0481

>  <SCORE.INTRA.VDW>
-2.02179

>  <SCORE.INTRA.VDW.0>
0.968882

>  <SCORE.INTRA.norm>
-0.23041

>  <SCORE.RESTR>
0

>  <SCORE.RESTR.CAVITY>
0

>  <SCORE.RESTR.norm>
0

>  <SCORE.SYSTEM>
0

>  <SCORE.SYSTEM.CONST>
0

>  <SCORE.SYSTEM.DIHEDRAL>
0

>  <SCORE.SYSTEM.SOLV>
0

>  <SCORE.SYSTEM.norm>
0

>  <SCORE.heavy>
12

>  <SCORE.norm>
-3.08631

>  <SYMMETRIC_BONDS>
11 12 2
5 6 2

>  <RMSD>
2.799

$$$$
1koc cryst
 OpenBabel11021811393D
libRbt.so/2013.1/901 2013/11/27
 12 11  0  0  0  0  0  0  0  0999 V2000
    4.3107    6.8407   27.4058 N   0  3  0  0  0  0  0  0  0  0  0  0
    4.8123    6.5843   28.7898 C   0  0  2  0  0  0  0  0  0  0  0  0
    6.3087    6.9473   28.8572 C   0  0  0  0  0  0  0  0  0  0  0  0
    7.0109    6.6625   27.8986 O   0  5  0  0  0  0  0  0  0  0  0  0
    4.5895    5.0890   29.1427 C   0  0  0  0  0  0  0  0  0  0  0  0
    3.1866    4.8611   29.7179 C   0  0  0  0  0  0  0  0  0  0  0  0
    3.1207    3.4879   30.3774 C   0  0  0  0  0  0  0  0  0  0  0  0
    1.8518    3.3571   31.1513 N   0  0  0  0  0  0  0  0  0  0  0  0
    1.0987    2.2926   31.0116 C   0  0  0  0  0  0  0  0  0  0  0  0
    1.6446    1.1156   30.8312 N   0  0  0  0  0  0  0  0  0  0  0  0
   -0.2029    2.4048   31.0575 N   0  3  0  0  0  0  0  0  0  0  0  0
    6.7295    7.4919   29.8669 O   0  0  0  0  0  0  0  0  0  0  0  0
  2  1  1  6  0  0  0
  2  5  1  0  0  0  0
  2  3  1  0  0  0  0
  3  4  1  0  0  0  0
  3 12  2  0  0  0  0
  5  6  1  0  0  0  0
  6  7  1  0  0  0  0
  7  8  1  0  0  0  0
  8  9  1  0  0  0  0
  9 10  1  0  0  0  0
  9 11  2  0  0  0  0
M  CHG  3   1   1   4  -1  11   1
M  END
>  <CHROM.1>
63.71357800,-86.61571032,-39.26465944,-165.57044480,169.71681368,131.51704867
3.69513148,4.76588318,29.65282422,0.75738842,-0.32701328,-0.80174009

>  <Name>
1koc cryst

>  <RI>
0

>  <Rbt.Current_Directory>
/home/itssahil/PROJECTS/Mol_Feturizer/New_Systems/rnas/1koc

>  <Rbt.Executable>
rbdock ($Id: //depot/dev/client3/rdock/2013.1/src/exe/rbdock.cxx#4 $)

>  <Rbt.Library>
libRbt.so (2013.1, Build901 2013/11/27)

>  <Rbt.Parameter_File>
/export/apps/rDock/src/rDock_2013.1_src/data/scripts/dock_solv.prm

>  <Rbt.Receptor>
prm/pocket_docking_5.prm

>  <SCORE>
-36.9194

>  <SCORE.INTER>
-34.3761

>  <SCORE.INTER.CONST>
1

>  <SCORE.INTER.POLAR>
-6.32296

>  <SCORE.INTER.ROT>
5

>  <SCORE.INTER.SOLV>
24.1348

>  <SCORE.INTER.VDW>
-16.8191

>  <SCORE.INTER.norm>
-2.86468

>  <SCORE.INTRA>
-2.54471

>  <SCORE.INTRA.DIHEDRAL>
0.766914

>  <SCORE.INTRA.DIHEDRAL.0>
6.04201

>  <SCORE.INTRA.POLAR>
0

>  <SCORE.INTRA.POLAR.0>
0

>  <SCORE.INTRA.REPUL>
0

>  <SCORE.INTRA.REPUL.0>
0

>  <SCORE.INTRA.SOLV>
-1.51213

>  <SCORE.INTRA.SOLV.lig_0>
-71.0481

>  <SCORE.INTRA.VDW>
-2.1721

>  <SCORE.INTRA.VDW.0>
0.968882

>  <SCORE.INTRA.norm>
-0.212059

>  <SCORE.RESTR>
0.00142604

>  <SCORE.RESTR.CAVITY>
0.00142604

>  <SCORE.RESTR.norm>
0.000118837

>  <SCORE.SYSTEM>
0

>  <SCORE.SYSTEM.CONST>
0

>  <SCORE.SYSTEM.DIHEDRAL>
0

>  <SCORE.SYSTEM.SOLV>
0

>  <SCORE.SYSTEM.norm>
0

>  <SCORE.heavy>
12

>  <SCORE.norm>
-3.07662

>  <SYMMETRIC_BONDS>
11 12 2
5 6 2

>  <RMSD>
2.806

$$$$
1koc cryst
 OpenBabel11021811393D
libRbt.so/2013.1/901 2013/11/27
 12 11  0  0  0  0  0  0  0  0999 V2000
    4.2632    6.8271   27.4372 N   0  3  0  0  0  0  0  0  0  0  0  0
    4.8014    6.5965   28.8120 C   0  0  2  0  0  0  0  0  0  0  0  0
    6.2991    6.9593   28.8327 C   0  0  0  0  0  0  0  0  0  0  0  0
    6.9485    6.7697   27.8152 O   0  5  0  0  0  0  0  0  0  0  0  0
    4.5874    5.1083   29.1988 C   0  0  0  0  0  0  0  0  0  0  0  0
    3.1900    4.8874   29.7899 C   0  0  0  0  0  0  0  0  0  0  0  0
    3.1158    3.5031   30.4249 C   0  0  0  0  0  0  0  0  0  0  0  0
    1.8408    3.3621   31.1870 N   0  0  0  0  0  0  0  0  0  0  0  0
    1.0945    2.2945   31.0357 C   0  0  0  0  0  0  0  0  0  0  0  0
    1.6481    1.1211   30.8545 N   0  0  0  0  0  0  0  0  0  0  0  0
   -0.2080    2.3998   31.0707 N   0  3  0  0  0  0  0  0  0  0  0  0
    6.7738    7.4087   29.8652 O   0  0  0  0  0  0  0  0  0  0  0  0
  2  1  1  6  0  0  0
  2  5  1  0  0  0  0
  2  3  1  0  0  0  0
  3  4  1  0  0  0  0
  3 12  2  0  0  0  0
  5  6  1  0  0  0  0
  6  7  1  0  0  0  0
  7  8  1  0  0  0  0
  8  9  1  0  0  0  0
  9 10  1  0  0  0  0
  9 11  2  0  0  0  0
M  CHG  3   1   1   4  -1  11   1
M  END
>  <CHROM.1>
66.21179867,-85.50110559,-32.58572004,-168.09048351,171.09292200,132.37180118
3.68554656,4.77381222,29.67017523,0.75706583,-0.33713990,-0.81792193

>  <Name>
1koc cryst

>  <RI>
0

>  <Rbt.Current_Directory>
/home/itssahil/PROJECTS/Mol_Feturizer/New_Systems/rnas/1koc

>  <Rbt.Executable>
rbdock ($Id: //depot/dev/client3/rdock/2013.1/src/exe/rbdock.cxx#4 $)

>  <Rbt.Library>
libRbt.so (2013.1, Build901 2013/11/27)

>  <Rbt.Parameter_File>
/export/apps/rDock/src/rDock_2013.1_src/data/scripts/dock_solv.prm

>  <Rbt.Receptor>
prm/pocket_docking_8.prm

>  <SCORE>
-36.9178

>  <SCORE.INTER>
-34.2203

>  <SCORE.INTER.CONST>
1

>  <SCORE.INTER.POLAR>
-6.3418

>  <SCORE.INTER.ROT>
5

>  <SCORE.INTER.SOLV>
24.2963

>  <SCORE.INTER.VDW>
-16.7063

>  <SCORE.INTER.norm>
-2.85169

>  <SCORE.INTRA>
-2.69757

>  <SCORE.INTRA.DIHEDRAL>
0.327863

>  <SCORE.INTRA.DIHEDRAL.0>
6.04201

>  <SCORE.INTRA.POLAR>
0

>  <SCORE.INTRA.POLAR.0>
0

>  <SCORE.INTRA.REPUL>
0

>  <SCORE.INTRA.REPUL.0>
0

>  <SCORE.INTRA.SOLV>
-1.46467

>  <SCORE.INTRA.SOLV.lig_0>
-71.0481

>  <SCORE.INTRA.VDW>
-2.12917

>  <SCORE.INTRA.VDW.0>
0.968882

>  <SCORE.INTRA.norm>
-0.224798

>  <SCORE.RESTR>
0

>  <SCORE.RESTR.CAVITY>
0

>  <SCORE.RESTR.norm>
0

>  <SCORE.SYSTEM>
0

>  <SCORE.SYSTEM.CONST>
0

>  <SCORE.SYSTEM.DIHEDRAL>
0

>  <SCORE.SYSTEM.SOLV>
0

>  <SCORE.SYSTEM.norm>
0

>  <SCORE.heavy>
12

>  <SCORE.norm>
-3.07649

>  <SYMMETRIC_BONDS>
11 12 2
5 6 2

>  <RMSD>
2.812

$$$$
1koc cryst
 OpenBabel11021811393D
libRbt.so/2013.1/901 2013/11/27
 12 11  0  0  0  0  0  0  0  0999 V2000
    4.3997    6.7936   27.5030 N   0  3  0  0  0  0  0  0  0  0  0  0
    5.0153    6.4751   28.8267 C   0  0  2  0  0  0  0  0  0  0  0  0
    6.5317    6.7407   28.7526 C   0  0  0  0  0  0  0  0  0  0  0  0
    6.9665    7.7373   29.3102 O   0  5  0  0  0  0  0  0  0  0  0  0
    4.7304    4.9894   29.1758 C   0  0  0  0  0  0  0  0  0  0  0  0
    3.3297    4.8228   29.7766 C   0  0  0  0  0  0  0  0  0  0  0  0
    3.1917    3.4266   30.3738 C   0  0  0  0  0  0  0  0  0  0  0  0
    1.9160    3.3267   31.1412 N   0  0  0  0  0  0  0  0  0  0  0  0
    1.1435    2.2757   31.0059 C   0  0  0  0  0  0  0  0  0  0  0  0
    1.6677    1.0869   30.8387 N   0  0  0  0  0  0  0  0  0  0  0  0
   -0.1560    2.4133   31.0430 N   0  3  0  0  0  0  0  0  0  0  0  0
    7.2299    5.9526   28.1324 O   0  0  0  0  0  0  0  0  0  0  0  0
  2  1  1  6  0  0  0
  2  5  1  0  0  0  0
  2  3  1  0  0  0  0
  3  4  1  0  0  0  0
  3 12  2  0  0  0  0
  5  6  1  0  0  0  0
  6  7  1  0  0  0  0
  7  8  1  0  0  0  0
  8  9  1  0  0  0  0
  9 10  1  0  0  0  0
  9 11  2  0  0  0  0
M  CHG  3   1   1   4  -1  11   1
M  END
>  <CHROM.1>
68.25961295,-81.91999188,105.57175298,-168.14189599,171.35261179,135.10611253
3.81868081,4.67542364,29.63375215,0.78664682,0.02059225,-0.46904575

>  <Name>
1koc cryst

>  <RI>
0

>  <Rbt.Current_Directory>
/home/itssahil/PROJECTS/Mol_Feturizer/New_Systems/rnas/1koc

>  <Rbt.Executable>
rbdock ($Id: //depot/dev/client3/rdock/2013.1/src/exe/rbdock.cxx#4 $)

>  <Rbt.Library>
libRbt.so (2013.1, Build901 2013/11/27)

>  <Rbt.Parameter_File>
/export/apps/rDock/src/rDock_2013.1_src/data/scripts/dock_solv.prm

>  <Rbt.Receptor>
prm/pocket_docking_6.prm

>  <SCORE>
-36.9426

>  <SCORE.INTER>
-34.1678

>  <SCORE.INTER.CONST>
1

>  <SCORE.INTER.POLAR>
-6.29423

>  <SCORE.INTER.ROT>
5

>  <SCORE.INTER.SOLV>
23.2941

>  <SCORE.INTER.VDW>
-16.4958

>  <SCORE.INTER.norm>
-2.84732

>  <SCORE.INTRA>
-2.77476

>  <SCORE.INTRA.DIHEDRAL>
-0.0730862

>  <SCORE.INTRA.DIHEDRAL.0>
6.04201

>  <SCORE.INTRA.POLAR>
0

>  <SCORE.INTRA.POLAR.0>
0

>  <SCORE.INTRA.REPUL>
0

>  <SCORE.INTRA.REPUL.0>
0

>  <SCORE.INTRA.SOLV>
-1.67852

>  <SCORE.INTRA.SOLV.lig_0>
-71.0481

>  <SCORE.INTRA.VDW>
-1.89896

>  <SCORE.INTRA.VDW.0>
0.968882

>  <SCORE.INTRA.norm>
-0.23123

>  <SCORE.RESTR>
0

>  <SCORE.RESTR.CAVITY>
0

>  <SCORE.RESTR.norm>
0

>  <SCORE.SYSTEM>
0

>  <SCORE.SYSTEM.CONST>
0

>  <SCORE.SYSTEM.DIHEDRAL>
0

>  <SCORE.SYSTEM.SOLV>
0

>  <SCORE.SYSTEM.norm>
0

>  <SCORE.heavy>
12

>  <SCORE.norm>
-3.07855

>  <SYMMETRIC_BONDS>
11 12 2
5 6 2

>  <RMSD>
2.819

$$$$
1koc cryst
 OpenBabel11021811393D
libRbt.so/2013.1/901 2013/11/27
 12 11  0  0  0  0  0  0  0  0999 V2000
    4.0240    6.8460   26.9297 N   0  3  0  0  0  0  0  0  0  0  0  0
    4.1923    6.8298   28.4143 C   0  0  2  0  0  0  0  0  0  0  0  0
    5.5112    7.5393   28.7783 C   0  0  0  0  0  0  0  0  0  0  0  0
    6.5415    7.1330   28.2622 O   0  5  0  0  0  0  0  0  0  0  0  0
    4.2010    5.3583   28.9091 C   0  0  0  0  0  0  0  0  0  0  0  0
    3.1596    5.1414   30.0133 C   0  0  0  0  0  0  0  0  0  0  0  0
    3.4901    3.8690   30.7858 C   0  0  0  0  0  0  0  0  0  0  0  0
    2.2303    3.1883   31.2051 N   0  0  0  0  0  0  0  0  0  0  0  0
    2.1285    1.8829   31.1332 C   0  0  0  0  0  0  0  0  0  0  0  0
    3.1638    1.1236   31.3933 N   0  0  0  0  0  0  0  0  0  0  0  0
    0.9875    1.3355   30.8053 N   0  3  0  0  0  0  0  0  0  0  0  0
    5.4718    8.4669   29.5729 O   0  0  0  0  0  0  0  0  0  0  0  0
  2  1  1  6  0  0  0
  2  5  1  0  0  0  0
  2  3  1  0  0  0  0
  3  4  1  0  0  0  0
  3 12  2  0  0  0  0
  5  6  1  0  0  0  0
  6  7  1  0  0  0  0
  7  8  1  0  0  0  0
  8  9  1  0  0  0  0
  9 10  1  0  0  0  0
  9 11  2  0  0  0  0
M  CHG  3   1   1   4  -1  11   1
M  END
>  <CHROM.1>
-59.34335864,-126.36601857,-55.42475217,-161.37457660,-145.07024917,139.18417476
3.75730316,4.88908187,29.65680283,0.95457609,-0.67337397,-0.86705869

>  <Name>
1koc cryst

>  <RI>
0

>  <Rbt.Current_Directory>
/home/itssahil/PROJECTS/Mol_Feturizer/New_Systems/rnas/1koc

>  <Rbt.Executable>
rbdock ($Id: //depot/dev/client3/rdock/2013.1/src/exe/rbdock.cxx#4 $)

>  <Rbt.Library>
libRbt.so (2013.1, Build901 2013/11/27)

>  <Rbt.Parameter_File>
/export/apps/rDock/src/rDock_2013.1_src/data/scripts/dock_solv.prm

>  <Rbt.Receptor>
prm/pocket_docking_6.prm

>  <SCORE>
-30.3886

>  <SCORE.INTER>
-30.9315

>  <SCORE.INTER.CONST>
1

>  <SCORE.INTER.POLAR>
-6.86372

>  <SCORE.INTER.ROT>
5

>  <SCORE.INTER.SOLV>
27.4751

>  <SCORE.INTER.VDW>
-13.8336

>  <SCORE.INTER.norm>
-2.57762

>  <SCORE.INTRA>
0.542832

>  <SCORE.INTRA.DIHEDRAL>
7.205

>  <SCORE.INTRA.DIHEDRAL.0>
6.04201

>  <SCORE.INTRA.POLAR>
0

>  <SCORE.INTRA.POLAR.0>
0

>  <SCORE.INTRA.REPUL>
0

>  <SCORE.INTRA.REPUL.0>
0

>  <SCORE.INTRA.SOLV>
-1.81314

>  <SCORE.INTRA.SOLV.lig_0>
-71.0481

>  <SCORE.INTRA.VDW>
-2.1531

>  <SCORE.INTRA.VDW.0>
0.968882

>  <SCORE.INTRA.norm>
0.045236

>  <SCORE.RESTR>
0

>  <SCORE.RESTR.CAVITY>
0

>  <SCORE.RESTR.norm>
0

>  <SCORE.SYSTEM>
0

>  <SCORE.SYSTEM.CONST>
0

>  <SCORE.SYSTEM.DIHEDRAL>
0

>  <SCORE.SYSTEM.SOLV>
0

>  <SCORE.SYSTEM.norm>
0

>  <SCORE.heavy>
12

>  <SCORE.norm>
-2.53239

>  <SYMMETRIC_BONDS>
11 12 2
5 6 2

>  <RMSD>
2.821

$$$$
1koc cryst
 OpenBabel11021811393D
libRbt.so/2013.1/901 2013/11/27
 12 11  0  0  0  0  0  0  0  0999 V2000
    3.1928    9.8328   31.7005 N   0  3  0  0  0  0  0  0  0  0  0  0
    3.0786    9.1007   32.9981 C   0  0  2  0  0  0  0  0  0  0  0  0
    4.4928    8.8235   33.5448 C   0  0  0  0  0  0  0  0  0  0  0  0
    4.5916    8.3800   34.6790 O   0  5  0  0  0  0  0  0  0  0  0  0
    2.3051    7.7745   32.7674 C   0  0  0  0  0  0  0  0  0  0  0  0
    3.0043    6.9037   31.7168 C   0  0  0  0  0  0  0  0  0  0  0  0
    2.2437    5.5927   31.5503 C   0  0  0  0  0  0  0  0  0  0  0  0
    2.8846    4.7658   30.4865 N   0  0  0  0  0  0  0  0  0  0  0  0
    2.9249    3.4599   30.5983 C   0  0  0  0  0  0  0  0  0  0  0  0
    1.9220    2.8110   31.1361 N   0  0  0  0  0  0  0  0  0  0  0  0
    3.9683    2.8010   30.1668 N   0  3  0  0  0  0  0  0  0  0  0  0
    5.4513    9.0690   32.8276 O   0  0  0  0  0  0  0  0  0  0  0  0
  2  1  1  6  0  0  0
  2  5  1  0  0  0  0
  2  3  1  0  0  0  0
  3  4  1  0  0  0  0
  3 12  2  0  0  0  0
  5  6  1  0  0  0  0
  6  7  1  0  0  0  0
  7  8  1  0  0  0  0
  8  9  1  0  0  0  0
  9 10  1  0  0  0  0
  9 11  2  0  0  0  0
M  CHG  3   1   1   4  -1  11   1
M  END
>  <CHROM.1>
-98.32756387,57.82520593,171.07632866,178.14283921,177.53105970,144.37769011
3.35807763,6.61137094,31.99238210,1.35085402,-0.47853246,0.30747951

>  <Name>
1koc cryst

>  <RI>
0

>  <Rbt.Current_Directory>
/home/itssahil/PROJECTS/Mol_Feturizer/New_Systems/rnas/1koc

>  <Rbt.Executable>
rbdock ($Id: //depot/dev/client3/rdock/2013.1/src/exe/rbdock.cxx#4 $)

>  <Rbt.Library>
libRbt.so (2013.1, Build901 2013/11/27)

>  <Rbt.Parameter_File>
/export/apps/rDock/src/rDock_2013.1_src/data/scripts/dock_solv.prm

>  <Rbt.Receptor>
prm/pocket_docking_8.prm

>  <SCORE>
-25.2937

>  <SCORE.INTER>
-24.4048

>  <SCORE.INTER.CONST>
1

>  <SCORE.INTER.POLAR>
-3.5381

>  <SCORE.INTER.ROT>
5

>  <SCORE.INTER.SOLV>
18.8791

>  <SCORE.INTER.VDW>
-17.7025

>  <SCORE.INTER.norm>
-2.03373

>  <SCORE.INTRA>
-0.888946

>  <SCORE.INTRA.DIHEDRAL>
0.0214184

>  <SCORE.INTRA.DIHEDRAL.0>
6.04201

>  <SCORE.INTRA.POLAR>
0

>  <SCORE.INTRA.POLAR.0>
0

>  <SCORE.INTRA.REPUL>
0

>  <SCORE.INTRA.REPUL.0>
0

>  <SCORE.INTRA.SOLV>
-0.0288888

>  <SCORE.INTRA.SOLV.lig_0>
-71.0481

>  <SCORE.INTRA.VDW>
-0.885211

>  <SCORE.INTRA.VDW.0>
0.968882

>  <SCORE.INTRA.norm>
-0.0740789

>  <SCORE.RESTR>
0

>  <SCORE.RESTR.CAVITY>
0

>  <SCORE.RESTR.norm>
0

>  <SCORE.SYSTEM>
0

>  <SCORE.SYSTEM.CONST>
0

>  <SCORE.SYSTEM.DIHEDRAL>
0

>  <SCORE.SYSTEM.SOLV>
0

>  <SCORE.SYSTEM.norm>
0

>  <SCORE.heavy>
12

>  <SCORE.norm>
-2.10781

>  <SYMMETRIC_BONDS>
11 12 2
5 6 2

>  <RMSD>
2.829

$$$$
1koc cryst
 OpenBabel11021811393D
libRbt.so/2013.1/901 2013/11/27
 12 11  0  0  0  0  0  0  0  0999 V2000
    4.0725    6.7639   27.0253 N   0  3  0  0  0  0  0  0  0  0  0  0
    4.3205    6.7476   28.4987 C   0  0  2  0  0  0  0  0  0  0  0  0
    5.6930    7.3882   28.7844 C   0  0  0  0  0  0  0  0  0  0  0  0
    6.6858    6.6825   28.6874 O   0  5  0  0  0  0  0  0  0  0  0  0
    4.2787    5.2806   29.0053 C   0  0  0  0  0  0  0  0  0  0  0  0
    2.9051    4.9397   29.5949 C   0  0  0  0  0  0  0  0  0  0  0  0
    3.0039    3.6580   30.4150 C   0  0  0  0  0  0  0  0  0  0  0  0
    1.7318    3.4341   31.1619 N   0  0  0  0  0  0  0  0  0  0  0  0
    1.0494    2.3277   30.9891 C   0  0  0  0  0  0  0  0  0  0  0  0
    1.6709    1.1905   30.7985 N   0  0  0  0  0  0  0  0  0  0  0  0
   -0.2573    2.3580   31.0119 N   0  3  0  0  0  0  0  0  0  0  0  0
    5.7285    8.5667   29.1054 O   0  0  0  0  0  0  0  0  0  0  0  0
  2  1  1  6  0  0  0
  2  5  1  0  0  0  0
  2  3  1  0  0  0  0
  3  4  1  0  0  0  0
  3 12  2  0  0  0  0
  5  6  1  0  0  0  0
  6  7  1  0  0  0  0
  7  8  1  0  0  0  0
  8  9  1  0  0  0  0
  9 10  1  0  0  0  0
  9 11  2  0  0  0  0
M  CHG  3   1   1   4  -1  11   1
M  END
>  <CHROM.1>
56.92398246,-97.50288526,-83.81725094,-164.56553473,171.26538435,122.22706316
3.40008980,4.94628556,29.56563697,0.87085335,-0.27754760,-0.68225997

>  <Name>
1koc cryst

>  <RI>
0

>  <Rbt.Current_Directory>
/home/itssahil/PROJECTS/Mol_Feturizer/New_Systems/rnas/1koc

>  <Rbt.Executable>
rbdock ($Id: //depot/dev/client3/rdock/2013.1/src/exe/rbdock.cxx#4 $)

>  <Rbt.Library>
libRbt.so (2013.1, Build901 2013/11/27)

>  <Rbt.Parameter_File>
/export/apps/rDock/src/rDock_2013.1_src/data/scripts/dock_solv.prm

>  <Rbt.Receptor>
prm/pocket_docking_7.prm

>  <SCORE>
-36.2799

>  <SCORE.INTER>
-34.6129

>  <SCORE.INTER.CONST>
1

>  <SCORE.INTER.POLAR>
-6.57344

>  <SCORE.INTER.ROT>
5

>  <SCORE.INTER.SOLV>
26.7062

>  <SCORE.INTER.VDW>
-16.9992

>  <SCORE.INTER.norm>
-2.88441

>  <SCORE.INTRA>
-1.66697

>  <SCORE.INTRA.DIHEDRAL>
2.20991

>  <SCORE.INTRA.DIHEDRAL.0>
6.04201

>  <SCORE.INTRA.POLAR>
0

>  <SCORE.INTRA.POLAR.0>
0

>  <SCORE.INTRA.REPUL>
0

>  <SCORE.INTRA.REPUL.0>
0

>  <SCORE.INTRA.SOLV>
-1.8447

>  <SCORE.INTRA.SOLV.lig_0>
-71.0481

>  <SCORE.INTRA.VDW>
-1.84957

>  <SCORE.INTRA.VDW.0>
0.968882

>  <SCORE.INTRA.norm>
-0.138914

>  <SCORE.RESTR>
0

>  <SCORE.RESTR.CAVITY>
0

>  <SCORE.RESTR.norm>
0

>  <SCORE.SYSTEM>
0

>  <SCORE.SYSTEM.CONST>
0

>  <SCORE.SYSTEM.DIHEDRAL>
0

>  <SCORE.SYSTEM.SOLV>
0

>  <SCORE.SYSTEM.norm>
0

>  <SCORE.heavy>
12

>  <SCORE.norm>
-3.02332

>  <SYMMETRIC_BONDS>
11 12 2
5 6 2

>  <RMSD>
2.833

$$$$
1koc cryst
 OpenBabel11021811393D
libRbt.so/2013.1/901 2013/11/27
 12 11  0  0  0  0  0  0  0  0999 V2000
    8.0006    3.5409   32.3578 N   0  3  0  0  0  0  0  0  0  0  0  0
    7.1234    4.1821   31.3321 C   0  0  2  0  0  0  0  0  0  0  0  0
    7.1035    5.7049   31.5690 C   0  0  0  0  0  0  0  0  0  0  0  0
    7.5794    6.4253   30.7044 O   0  5  0  0  0  0  0  0  0  0  0  0
    5.6938    3.5866   31.4415 C   0  0  0  0  0  0  0  0  0  0  0  0
    4.7490    4.2287   30.4189 C   0  0  0  0  0  0  0  0  0  0  0  0
    3.3070    3.8650   30.7554 C   0  0  0  0  0  0  0  0  0  0  0  0
    3.0348    2.4519   30.3609 N   0  0  0  0  0  0  0  0  0  0  0  0
    2.1796    1.7281   31.0424 C   0  0  0  0  0  0  0  0  0  0  0  0
    1.1002    2.2765   31.5425 N   0  0  0  0  0  0  0  0  0  0  0  0
    2.4019    0.4522   31.2196 N   0  3  0  0  0  0  0  0  0  0  0  0
    6.6248    6.1243   32.6122 O   0  0  0  0  0  0  0  0  0  0  0  0
  2  1  1  1  0  0  0
  2  5  1  0  0  0  0
  2  3  1  0  0  0  0
  3  4  1  0  0  0  0
  3 12  2  0  0  0  0
  5  6  1  0  0  0  0
  6  7  1  0  0  0  0
  7  8  1  0  0  0  0
  8  9  1  0  0  0  0
  9 10  1  0  0  0  0
  9 11  2  0  0  0  0
M  CHG  3   1   1   4  -1  11   1
M  END
>  <CHROM.1>
175.99613652,179.22074178,115.32714090,-167.22123852,-75.48375145,148.39482099
4.92376030,3.69720931,31.30549744,-0.56573188,0.22843859,2.96117245

>  <Name>
1koc cryst

>  <RI>
0

>  <Rbt.Current_Directory>
/home/itssahil/PROJECTS/Mol_Feturizer/New_Systems/rnas/1koc

>  <Rbt.Executable>
rbdock ($Id: //depot/dev/client3/rdock/2013.1/src/exe/rbdock.cxx#4 $)

>  <Rbt.Library>
libRbt.so (2013.1, Build901 2013/11/27)

>  <Rbt.Parameter_File>
/export/apps/rDock/src/rDock_2013.1_src/data/scripts/dock_solv.prm

>  <Rbt.Receptor>
prm/pocket_docking_4.prm

>  <SCORE>
-32.9064

>  <SCORE.INTER>
-30.0037

>  <SCORE.INTER.CONST>
1

>  <SCORE.INTER.POLAR>
-6.31708

>  <SCORE.INTER.ROT>
5

>  <SCORE.INTER.SOLV>
22.3431

>  <SCORE.INTER.VDW>
-13.3265

>  <SCORE.INTER.norm>
-2.50031

>  <SCORE.INTRA>
-2.90274

>  <SCORE.INTRA.DIHEDRAL>
-1.03432

>  <SCORE.INTRA.DIHEDRAL.0>
6.04201

>  <SCORE.INTRA.POLAR>
0

>  <SCORE.INTRA.POLAR.0>
0

>  <SCORE.INTRA.REPUL>
0

>  <SCORE.INTRA.REPUL.0>
0

>  <SCORE.INTRA.SOLV>
-1.10384

>  <SCORE.INTRA.SOLV.lig_0>
-71.0481

>  <SCORE.INTRA.VDW>
-1.83366

>  <SCORE.INTRA.VDW.0>
0.968882

>  <SCORE.INTRA.norm>
-0.241895

>  <SCORE.RESTR>
0

>  <SCORE.RESTR.CAVITY>
0

>  <SCORE.RESTR.norm>
0

>  <SCORE.SYSTEM>
0

>  <SCORE.SYSTEM.CONST>
0

>  <SCORE.SYSTEM.DIHEDRAL>
0

>  <SCORE.SYSTEM.SOLV>
0

>  <SCORE.SYSTEM.norm>
0

>  <SCORE.heavy>
12

>  <SCORE.norm>
-2.7422

>  <SYMMETRIC_BONDS>
11 12 2
5 6 2

>  <RMSD>
2.840

$$$$
1koc cryst
 OpenBabel11021811393D
libRbt.so/2013.1/901 2013/11/27
 12 11  0  0  0  0  0  0  0  0999 V2000
    4.3826    6.7550   27.5118 N   0  3  0  0  0  0  0  0  0  0  0  0
    4.9941    6.4649   28.8439 C   0  0  2  0  0  0  0  0  0  0  0  0
    6.5065    6.7541   28.7762 C   0  0  0  0  0  0  0  0  0  0  0  0
    7.1743    6.1255   27.9687 O   0  5  0  0  0  0  0  0  0  0  0  0
    4.7310    4.9797   29.2118 C   0  0  0  0  0  0  0  0  0  0  0  0
    3.3127    4.7909   29.7627 C   0  0  0  0  0  0  0  0  0  0  0  0
    3.1862    3.4055   30.3868 C   0  0  0  0  0  0  0  0  0  0  0  0
    1.9112    3.3098   31.1558 N   0  0  0  0  0  0  0  0  0  0  0  0
    1.1403    2.2565   31.0297 C   0  0  0  0  0  0  0  0  0  0  0  0
    1.6664    1.0672   30.8718 N   0  0  0  0  0  0  0  0  0  0  0  0
   -0.1593    2.3922   31.0666 N   0  3  0  0  0  0  0  0  0  0  0  0
    6.9732    7.5881   29.5377 O   0  0  0  0  0  0  0  0  0  0  0  0
  2  1  1  6  0  0  0
  2  5  1  0  0  0  0
  2  3  1  0  0  0  0
  3  4  1  0  0  0  0
  3 12  2  0  0  0  0
  5  6  1  0  0  0  0
  6  7  1  0  0  0  0
  7  8  1  0  0  0  0
  8  9  1  0  0  0  0
  9 10  1  0  0  0  0
  9 11  2  0  0  0  0
M  CHG  3   1   1   4  -1  11   1
M  END
>  <CHROM.1>
-50.59116764,-80.05778050,-59.92900932,-167.93111323,168.95845505,134.35326775
3.80646367,4.66239176,29.65418133,0.78625643,-0.06774242,-0.55772256

>  <Name>
1koc cryst

>  <RI>
0

>  <Rbt.Current_Directory>
/home/itssahil/PROJECTS/Mol_Feturizer/New_Systems/rnas/1koc

>  <Rbt.Executable>
rbdock ($Id: //depot/dev/client3/rdock/2013.1/src/exe/rbdock.cxx#4 $)

>  <Rbt.Library>
libRbt.so (2013.1, Build901 2013/11/27)

>  <Rbt.Parameter_File>
/export/apps/rDock/src/rDock_2013.1_src/data/scripts/dock_solv.prm

>  <Rbt.Receptor>
prm/pocket_docking_6.prm

>  <SCORE>
-37.0907

>  <SCORE.INTER>
-34.2299

>  <SCORE.INTER.CONST>
1

>  <SCORE.INTER.POLAR>
-6.33523

>  <SCORE.INTER.ROT>
5

>  <SCORE.INTER.SOLV>
23.5254

>  <SCORE.INTER.VDW>
-16.4776

>  <SCORE.INTER.norm>
-2.85249

>  <SCORE.INTRA>
-2.86082

>  <SCORE.INTRA.DIHEDRAL>
-0.0515634

>  <SCORE.INTRA.DIHEDRAL.0>
6.04201

>  <SCORE.INTRA.POLAR>
0

>  <SCORE.INTRA.POLAR.0>
0

>  <SCORE.INTRA.REPUL>
0

>  <SCORE.INTRA.REPUL.0>
0

>  <SCORE.INTRA.SOLV>
-1.58878

>  <SCORE.INTRA.SOLV.lig_0>
-71.0481

>  <SCORE.INTRA.VDW>
-2.04064

>  <SCORE.INTRA.VDW.0>
0.968882

>  <SCORE.INTRA.norm>
-0.238401

>  <SCORE.RESTR>
0

>  <SCORE.RESTR.CAVITY>
0

>  <SCORE.RESTR.norm>
0

>  <SCORE.SYSTEM>
0

>  <SCORE.SYSTEM.CONST>
0

>  <SCORE.SYSTEM.DIHEDRAL>
0

>  <SCORE.SYSTEM.SOLV>
0

>  <SCORE.SYSTEM.norm>
0

>  <SCORE.heavy>
12

>  <SCORE.norm>
-3.09089

>  <SYMMETRIC_BONDS>
11 12 2
5 6 2

>  <RMSD>
2.843

$$$$
1koc cryst
 OpenBabel11021811393D
libRbt.so/2013.1/901 2013/11/27
 12 11  0  0  0  0  0  0  0  0999 V2000
    4.2769    7.0130   27.3684 N   0  3  0  0  0  0  0  0  0  0  0  0
    4.9353    6.8705   28.7022 C   0  0  2  0  0  0  0  0  0  0  0  0
    6.2180    7.7246   28.7232 C   0  0  0  0  0  0  0  0  0  0  0  0
    6.9985    7.6090   27.7901 O   0  5  0  0  0  0  0  0  0  0  0  0
    5.2635    5.3734   28.9499 C   0  0  0  0  0  0  0  0  0  0  0  0
    3.9988    4.5830   29.3058 C   0  0  0  0  0  0  0  0  0  0  0  0
    4.3521    3.4623   30.2774 C   0  0  0  0  0  0  0  0  0  0  0  0
    3.3350    2.3742   30.1885 N   0  0  0  0  0  0  0  0  0  0  0  0
    2.2512    2.4202   30.9253 C   0  0  0  0  0  0  0  0  0  0  0  0
    1.6694    3.5670   31.1747 N   0  0  0  0  0  0  0  0  0  0  0  0
    1.7454    1.3163   31.4095 N   0  3  0  0  0  0  0  0  0  0  0  0
    6.4045    8.4695   29.6738 O   0  0  0  0  0  0  0  0  0  0  0  0
  2  1  1  6  0  0  0
  2  5  1  0  0  0  0
  2  3  1  0  0  0  0
  3  4  1  0  0  0  0
  3 12  2  0  0  0  0
  5  6  1  0  0  0  0
  6  7  1  0  0  0  0
  7  8  1  0  0  0  0
  8  9  1  0  0  0  0
  9 10  1  0  0  0  0
  9 11  2  0  0  0  0
M  CHG  3   1   1   4  -1  11   1
M  END
>  <CHROM.1>
-35.83156039,-75.21828717,-49.34993792,-147.18693130,-156.15038063,-87.83245265
4.26834148,5.07652276,29.52166445,0.95380142,-0.38467022,-0.70178626

>  <Name>
1koc cryst

>  <RI>
0

>  <Rbt.Current_Directory>
/home/itssahil/PROJECTS/Mol_Feturizer/New_Systems/rnas/1koc

>  <Rbt.Executable>
rbdock ($Id: //depot/dev/client3/rdock/2013.1/src/exe/rbdock.cxx#4 $)

>  <Rbt.Library>
libRbt.so (2013.1, Build901 2013/11/27)

>  <Rbt.Parameter_File>
/export/apps/rDock/src/rDock_2013.1_src/data/scripts/dock_solv.prm

>  <Rbt.Receptor>
prm/pocket_docking_7.prm

>  <SCORE>
-30.1927

>  <SCORE.INTER>
-30.7368

>  <SCORE.INTER.CONST>
1

>  <SCORE.INTER.POLAR>
-5.72887

>  <SCORE.INTER.ROT>
5

>  <SCORE.INTER.SOLV>
23.207

>  <SCORE.INTER.VDW>
-16.064

>  <SCORE.INTER.norm>
-2.5614

>  <SCORE.INTRA>
0.544148

>  <SCORE.INTRA.DIHEDRAL>
4.82925

>  <SCORE.INTRA.DIHEDRAL.0>
6.04201

>  <SCORE.INTRA.POLAR>
0

>  <SCORE.INTRA.POLAR.0>
0

>  <SCORE.INTRA.REPUL>
0

>  <SCORE.INTRA.REPUL.0>
0

>  <SCORE.INTRA.SOLV>
-0.932817

>  <SCORE.INTRA.SOLV.lig_0>
-71.0481

>  <SCORE.INTRA.VDW>
-1.40407

>  <SCORE.INTRA.VDW.0>
0.968882

>  <SCORE.INTRA.norm>
0.0453457

>  <SCORE.RESTR>
0

>  <SCORE.RESTR.CAVITY>
0

>  <SCORE.RESTR.norm>
0

>  <SCORE.SYSTEM>
0

>  <SCORE.SYSTEM.CONST>
0

>  <SCORE.SYSTEM.DIHEDRAL>
0

>  <SCORE.SYSTEM.SOLV>
0

>  <SCORE.SYSTEM.norm>
0

>  <SCORE.heavy>
12

>  <SCORE.norm>
-2.51606

>  <SYMMETRIC_BONDS>
11 12 2
5 6 2

>  <RMSD>
2.856

$$$$
1koc cryst
 OpenBabel11021811393D
libRbt.so/2013.1/901 2013/11/27
 12 11  0  0  0  0  0  0  0  0999 V2000
    4.3529    7.2464   27.3149 N   0  3  0  0  0  0  0  0  0  0  0  0
    4.8715    7.1567   28.7134 C   0  0  2  0  0  0  0  0  0  0  0  0
    6.2552    7.8321   28.7805 C   0  0  0  0  0  0  0  0  0  0  0  0
    6.8883    7.7387   29.8215 O   0  5  0  0  0  0  0  0  0  0  0  0
    4.9644    5.6631   29.1265 C   0  0  0  0  0  0  0  0  0  0  0  0
    3.5904    5.1161   29.5311 C   0  0  0  0  0  0  0  0  0  0  0  0
    3.7432    3.6998   30.0748 C   0  0  0  0  0  0  0  0  0  0  0  0
    2.5025    3.2980   30.7998 N   0  0  0  0  0  0  0  0  0  0  0  0
    2.2651    2.0335   31.0537 C   0  0  0  0  0  0  0  0  0  0  0  0
    3.2496    1.2232   31.3538 N   0  0  0  0  0  0  0  0  0  0  0  0
    1.0398    1.5797   31.0123 N   0  3  0  0  0  0  0  0  0  0  0  0
    6.6536    8.4393   27.7977 O   0  0  0  0  0  0  0  0  0  0  0  0
  2  1  1  6  0  0  0
  2  5  1  0  0  0  0
  2  3  1  0  0  0  0
  3  4  1  0  0  0  0
  3 12  2  0  0  0  0
  5  6  1  0  0  0  0
  6  7  1  0  0  0  0
  7  8  1  0  0  0  0
  8  9  1  0  0  0  0
  9 10  1  0  0  0  0
  9 11  2  0  0  0  0
M  CHG  3   1   1   4  -1  11   1
M  END
>  <CHROM.1>
-52.04731996,-79.51314744,-173.02263852,-173.80973251,164.91020404,162.63485255
4.19021997,5.08650126,29.59546660,0.96896477,-0.46121578,-0.71566847

>  <Name>
1koc cryst

>  <RI>
0

>  <Rbt.Current_Directory>
/home/itssahil/PROJECTS/Mol_Feturizer/New_Systems/rnas/1koc

>  <Rbt.Executable>
rbdock ($Id: //depot/dev/client3/rdock/2013.1/src/exe/rbdock.cxx#4 $)

>  <Rbt.Library>
libRbt.so (2013.1, Build901 2013/11/27)

>  <Rbt.Parameter_File>
/export/apps/rDock/src/rDock_2013.1_src/data/scripts/dock_solv.prm

>  <Rbt.Receptor>
prm/pocket_docking_6.prm

>  <SCORE>
-30.0785

>  <SCORE.INTER>
-27.7536

>  <SCORE.INTER.CONST>
1

>  <SCORE.INTER.POLAR>
-5.37657

>  <SCORE.INTER.ROT>
5

>  <SCORE.INTER.SOLV>
22.2619

>  <SCORE.INTER.VDW>
-14.9345

>  <SCORE.INTER.norm>
-2.3128

>  <SCORE.INTRA>
-2.3249

>  <SCORE.INTRA.DIHEDRAL>
-0.239568

>  <SCORE.INTRA.DIHEDRAL.0>
6.04201

>  <SCORE.INTRA.POLAR>
0

>  <SCORE.INTRA.POLAR.0>
0

>  <SCORE.INTRA.REPUL>
0

>  <SCORE.INTRA.REPUL.0>
0

>  <SCORE.INTRA.SOLV>
-1.24215

>  <SCORE.INTRA.SOLV.lig_0>
-71.0481

>  <SCORE.INTRA.VDW>
-1.58404

>  <SCORE.INTRA.VDW.0>
0.968882

>  <SCORE.INTRA.norm>
-0.193741

>  <SCORE.RESTR>
0

>  <SCORE.RESTR.CAVITY>
0

>  <SCORE.RESTR.norm>
0

>  <SCORE.SYSTEM>
0

>  <SCORE.SYSTEM.CONST>
0

>  <SCORE.SYSTEM.DIHEDRAL>
0

>  <SCORE.SYSTEM.SOLV>
0

>  <SCORE.SYSTEM.norm>
0

>  <SCORE.heavy>
12

>  <SCORE.norm>
-2.50654

>  <SYMMETRIC_BONDS>
11 12 2
5 6 2

>  <RMSD>
2.858

$$$$
1koc cryst
 OpenBabel11021811393D
libRbt.so/2013.1/901 2013/11/27
 12 11  0  0  0  0  0  0  0  0999 V2000
    4.0124    6.8190   26.9697 N   0  3  0  0  0  0  0  0  0  0  0  0
    4.2862    6.8808   28.4374 C   0  0  2  0  0  0  0  0  0  0  0  0
    5.5721    7.6965   28.6747 C   0  0  0  0  0  0  0  0  0  0  0  0
    6.6397    7.1024   28.6518 O   0  5  0  0  0  0  0  0  0  0  0  0
    4.4375    5.4371   28.9877 C   0  0  0  0  0  0  0  0  0  0  0  0
    3.1467    4.9686   29.6697 C   0  0  0  0  0  0  0  0  0  0  0  0
    3.4797    3.9373   30.7423 C   0  0  0  0  0  0  0  0  0  0  0  0
    2.2349    3.2414   31.1810 N   0  0  0  0  0  0  0  0  0  0  0  0
    2.1573    1.9331   31.1346 C   0  0  0  0  0  0  0  0  0  0  0  0
    3.2079    1.1985   31.4040 N   0  0  0  0  0  0  0  0  0  0  0  0
    1.0253    1.3583   30.8231 N   0  3  0  0  0  0  0  0  0  0  0  0
    5.4688    8.8956   28.8861 O   0  0  0  0  0  0  0  0  0  0  0  0
  2  1  1  6  0  0  0
  2  5  1  0  0  0  0
  2  3  1  0  0  0  0
  3  4  1  0  0  0  0
  3 12  2  0  0  0  0
  5  6  1  0  0  0  0
  6  7  1  0  0  0  0
  7  8  1  0  0  0  0
  8  9  1  0  0  0  0
  9 10  1  0  0  0  0
  9 11  2  0  0  0  0
M  CHG  3   1   1   4  -1  11   1
M  END
>  <CHROM.1>
-176.75443523,-99.93639873,-87.85288646,-152.39507372,-166.54247759,124.96725376
3.80258357,4.95189016,29.60425811,1.04252066,-0.48063606,-0.71162093

>  <Name>
1koc cryst

>  <RI>
0

>  <Rbt.Current_Directory>
/home/itssahil/PROJECTS/Mol_Feturizer/New_Systems/rnas/1koc

>  <Rbt.Executable>
rbdock ($Id: //depot/dev/client3/rdock/2013.1/src/exe/rbdock.cxx#4 $)

>  <Rbt.Library>
libRbt.so (2013.1, Build901 2013/11/27)

>  <Rbt.Parameter_File>
/export/apps/rDock/src/rDock_2013.1_src/data/scripts/dock_solv.prm

>  <Rbt.Receptor>
prm/pocket_docking_5.prm

>  <SCORE>
-31.6059

>  <SCORE.INTER>
-31.2038

>  <SCORE.INTER.CONST>
1

>  <SCORE.INTER.POLAR>
-6.71011

>  <SCORE.INTER.ROT>
5

>  <SCORE.INTER.SOLV>
27.1954

>  <SCORE.INTER.VDW>
-14.434

>  <SCORE.INTER.norm>
-2.60032

>  <SCORE.INTRA>
-0.402077

>  <SCORE.INTRA.DIHEDRAL>
4.61273

>  <SCORE.INTRA.DIHEDRAL.0>
6.04201

>  <SCORE.INTRA.POLAR>
0

>  <SCORE.INTRA.POLAR.0>
0

>  <SCORE.INTRA.REPUL>
0

>  <SCORE.INTRA.REPUL.0>
0

>  <SCORE.INTRA.SOLV>
-1.87448

>  <SCORE.INTRA.SOLV.lig_0>
-71.0481

>  <SCORE.INTRA.VDW>
-1.77121

>  <SCORE.INTRA.VDW.0>
0.968882

>  <SCORE.INTRA.norm>
-0.0335064

>  <SCORE.RESTR>
0

>  <SCORE.RESTR.CAVITY>
0

>  <SCORE.RESTR.norm>
0

>  <SCORE.SYSTEM>
0

>  <SCORE.SYSTEM.CONST>
0

>  <SCORE.SYSTEM.DIHEDRAL>
0

>  <SCORE.SYSTEM.SOLV>
0

>  <SCORE.SYSTEM.norm>
0

>  <SCORE.heavy>
12

>  <SCORE.norm>
-2.63382

>  <SYMMETRIC_BONDS>
11 12 2
5 6 2

>  <RMSD>
2.876

$$$$
1koc cryst
 OpenBabel11021811393D
libRbt.so/2013.1/901 2013/11/27
 12 11  0  0  0  0  0  0  0  0999 V2000
    6.4411    6.6015   27.7206 N   0  3  0  0  0  0  0  0  0  0  0  0
    5.4838    7.1509   28.7279 C   0  0  2  0  0  0  0  0  0  0  0  0
    6.0383    8.4809   29.2749 C   0  0  0  0  0  0  0  0  0  0  0  0
    6.7884    9.1266   28.5584 O   0  5  0  0  0  0  0  0  0  0  0  0
    5.2994    6.1167   29.8710 C   0  0  0  0  0  0  0  0  0  0  0  0
    4.5468    4.8759   29.3762 C   0  0  0  0  0  0  0  0  0  0  0  0
    4.3924    3.8805   30.5209 C   0  0  0  0  0  0  0  0  0  0  0  0
    3.6266    2.6873   30.0559 N   0  0  0  0  0  0  0  0  0  0  0  0
    2.5017    2.3541   30.6418 C   0  0  0  0  0  0  0  0  0  0  0  0
    1.6823    3.2798   31.0749 N   0  0  0  0  0  0  0  0  0  0  0  0
    2.1934    1.0925   30.7902 N   0  3  0  0  0  0  0  0  0  0  0  0
    5.7144    8.8257   30.4016 O   0  0  0  0  0  0  0  0  0  0  0  0
  2  1  1  6  0  0  0
  2  5  1  0  0  0  0
  2  3  1  0  0  0  0
  3  4  1  0  0  0  0
  3 12  2  0  0  0  0
  5  6  1  0  0  0  0
  6  7  1  0  0  0  0
  7  8  1  0  0  0  0
  8  9  1  0  0  0  0
  9 10  1  0  0  0  0
  9 11  2  0  0  0  0
M  CHG  3   1   1   4  -1  11   1
M  END
>  <CHROM.1>
-33.22442542,-68.82029126,26.53458789,179.63542153,178.39207955,-120.86749303
4.56646108,5.36920677,29.73438495,-0.73889800,-0.80815768,-2.74871349

>  <Name>
1koc cryst

>  <RI>
0

>  <Rbt.Current_Directory>
/home/itssahil/PROJECTS/Mol_Feturizer/New_Systems/rnas/1koc

>  <Rbt.Executable>
rbdock ($Id: //depot/dev/client3/rdock/2013.1/src/exe/rbdock.cxx#4 $)

>  <Rbt.Library>
libRbt.so (2013.1, Build901 2013/11/27)

>  <Rbt.Parameter_File>
/export/apps/rDock/src/rDock_2013.1_src/data/scripts/dock_solv.prm

>  <Rbt.Receptor>
prm/pocket_docking_7.prm

>  <SCORE>
-23.7966

>  <SCORE.INTER>
-21.6905

>  <SCORE.INTER.CONST>
1

>  <SCORE.INTER.POLAR>
-4.37998

>  <SCORE.INTER.ROT>
5

>  <SCORE.INTER.SOLV>
16.2991

>  <SCORE.INTER.VDW>
-12.2267

>  <SCORE.INTER.norm>
-1.80754

>  <SCORE.INTRA>
-2.10611

>  <SCORE.INTRA.DIHEDRAL>
-0.815559

>  <SCORE.INTRA.DIHEDRAL.0>
6.04201

>  <SCORE.INTRA.POLAR>
0

>  <SCORE.INTRA.POLAR.0>
0

>  <SCORE.INTRA.REPUL>
0

>  <SCORE.INTRA.REPUL.0>
0

>  <SCORE.INTRA.SOLV>
-0.790272

>  <SCORE.INTRA.SOLV.lig_0>
-71.0481

>  <SCORE.INTRA.VDW>
-1.3032

>  <SCORE.INTRA.VDW.0>
0.968882

>  <SCORE.INTRA.norm>
-0.17551

>  <SCORE.RESTR>
0

>  <SCORE.RESTR.CAVITY>
0

>  <SCORE.RESTR.norm>
0

>  <SCORE.SYSTEM>
0

>  <SCORE.SYSTEM.CONST>
0

>  <SCORE.SYSTEM.DIHEDRAL>
0

>  <SCORE.SYSTEM.SOLV>
0

>  <SCORE.SYSTEM.norm>
0

>  <SCORE.heavy>
12

>  <SCORE.norm>
-1.98305

>  <SYMMETRIC_BONDS>
11 12 2
5 6 2

>  <RMSD>
2.879

$$$$
1koc cryst
 OpenBabel11021811393D
libRbt.so/2013.1/901 2013/11/27
 12 11  0  0  0  0  0  0  0  0999 V2000
    7.2944    4.9168   32.8654 N   0  3  0  0  0  0  0  0  0  0  0  0
    6.9769    4.1567   31.6187 C   0  0  2  0  0  0  0  0  0  0  0  0
    7.3573    5.0148   30.3963 C   0  0  0  0  0  0  0  0  0  0  0  0
    7.1273    6.2139   30.4444 O   0  5  0  0  0  0  0  0  0  0  0  0
    5.4630    3.8134   31.6040 C   0  0  0  0  0  0  0  0  0  0  0  0
    5.0733    3.0929   30.3079 C   0  0  0  0  0  0  0  0  0  0  0  0
    3.5541    3.0378   30.1899 C   0  0  0  0  0  0  0  0  0  0  0  0
    3.0762    1.6458   30.4353 N   0  0  0  0  0  0  0  0  0  0  0  0
    2.1247    1.4175   31.3083 C   0  0  0  0  0  0  0  0  0  0  0  0
    1.1385    2.2682   31.4490 N   0  0  0  0  0  0  0  0  0  0  0  0
    2.1568    0.3338   32.0386 N   0  3  0  0  0  0  0  0  0  0  0  0
    7.8601    4.4599   29.4307 O   0  0  0  0  0  0  0  0  0  0  0  0
  2  1  1  1  0  0  0
  2  5  1  0  0  0  0
  2  3  1  0  0  0  0
  3  4  1  0  0  0  0
  3 12  2  0  0  0  0
  5  6  1  0  0  0  0
  6  7  1  0  0  0  0
  7  8  1  0  0  0  0
  8  9  1  0  0  0  0
  9 10  1  0  0  0  0
  9 11  2  0  0  0  0
M  CHG  3   1   1   4  -1  11   1
M  END
>  <CHROM.1>
62.50659375,177.14100125,-39.44193678,-167.96767433,-107.51398973,128.56291786
4.93831409,3.37508967,31.03459985,-0.08474567,0.59945243,1.59866931

>  <Name>
1koc cryst

>  <RI>
0

>  <Rbt.Current_Directory>
/home/itssahil/PROJECTS/Mol_Feturizer/New_Systems/rnas/1koc

>  <Rbt.Executable>
rbdock ($Id: //depot/dev/client3/rdock/2013.1/src/exe/rbdock.cxx#4 $)

>  <Rbt.Library>
libRbt.so (2013.1, Build901 2013/11/27)

>  <Rbt.Parameter_File>
/export/apps/rDock/src/rDock_2013.1_src/data/scripts/dock_solv.prm

>  <Rbt.Receptor>
prm/pocket_docking_8.prm

>  <SCORE>
-30.143

>  <SCORE.INTER>
-29.0778

>  <SCORE.INTER.CONST>
1

>  <SCORE.INTER.POLAR>
-5.92008

>  <SCORE.INTER.ROT>
5

>  <SCORE.INTER.SOLV>
20.2217

>  <SCORE.INTER.VDW>
-13.3255

>  <SCORE.INTER.norm>
-2.42315

>  <SCORE.INTRA>
-1.06522

>  <SCORE.INTRA.DIHEDRAL>
2.9785

>  <SCORE.INTRA.DIHEDRAL.0>
6.04201

>  <SCORE.INTRA.POLAR>
0

>  <SCORE.INTRA.POLAR.0>
0

>  <SCORE.INTRA.REPUL>
0

>  <SCORE.INTRA.REPUL.0>
0

>  <SCORE.INTRA.SOLV>
-1.11875

>  <SCORE.INTRA.SOLV.lig_0>
-71.0481

>  <SCORE.INTRA.VDW>
-1.99509

>  <SCORE.INTRA.VDW.0>
0.968882

>  <SCORE.INTRA.norm>
-0.088768

>  <SCORE.RESTR>
0

>  <SCORE.RESTR.CAVITY>
0

>  <SCORE.RESTR.norm>
0

>  <SCORE.SYSTEM>
0

>  <SCORE.SYSTEM.CONST>
0

>  <SCORE.SYSTEM.DIHEDRAL>
0

>  <SCORE.SYSTEM.SOLV>
0

>  <SCORE.SYSTEM.norm>
0

>  <SCORE.heavy>
12

>  <SCORE.norm>
-2.51191

>  <SYMMETRIC_BONDS>
11 12 2
5 6 2

>  <RMSD>
2.903

$$$$
1koc cryst
 OpenBabel11021811393D
libRbt.so/2013.1/901 2013/11/27
 12 11  0  0  0  0  0  0  0  0999 V2000
    7.9778    3.3935   32.3513 N   0  3  0  0  0  0  0  0  0  0  0  0
    7.1649    3.7819   31.1591 C   0  0  2  0  0  0  0  0  0  0  0  0
    7.1322    5.3191   31.0525 C   0  0  0  0  0  0  0  0  0  0  0  0
    6.9775    5.9614   32.0804 O   0  5  0  0  0  0  0  0  0  0  0  0
    5.7308    3.2074   31.3124 C   0  0  0  0  0  0  0  0  0  0  0  0
    4.9471    3.3231   29.9997 C   0  0  0  0  0  0  0  0  0  0  0  0
    3.4525    3.2251   30.2855 C   0  0  0  0  0  0  0  0  0  0  0  0
    3.0640    1.7964   30.4707 N   0  0  0  0  0  0  0  0  0  0  0  0
    2.0943    1.4761   31.2933 C   0  0  0  0  0  0  0  0  0  0  0  0
    1.0454    2.2517   31.4129 N   0  0  0  0  0  0  0  0  0  0  0  0
    2.1714    0.3752   31.9940 N   0  3  0  0  0  0  0  0  0  0  0  0
    7.2504    5.8274   29.9476 O   0  0  0  0  0  0  0  0  0  0  0  0
  2  1  1  1  0  0  0
  2  5  1  0  0  0  0
  2  3  1  0  0  0  0
  3  4  1  0  0  0  0
  3 12  2  0  0  0  0
  5  6  1  0  0  0  0
  6  7  1  0  0  0  0
  7  8  1  0  0  0  0
  8  9  1  0  0  0  0
  9 10  1  0  0  0  0
  9 11  2  0  0  0  0
M  CHG  3   1   1   4  -1  11   1
M  END
>  <CHROM.1>
-176.43832277,-168.18862619,-42.21443504,-160.20554469,-79.62558779,147.72514616
4.92909672,3.32136633,31.14587192,-0.48091102,0.33022962,2.58359462

>  <Name>
1koc cryst

>  <RI>
0

>  <Rbt.Current_Directory>
/home/itssahil/PROJECTS/Mol_Feturizer/New_Systems/rnas/1koc

>  <Rbt.Executable>
rbdock ($Id: //depot/dev/client3/rdock/2013.1/src/exe/rbdock.cxx#4 $)

>  <Rbt.Library>
libRbt.so (2013.1, Build901 2013/11/27)

>  <Rbt.Parameter_File>
/export/apps/rDock/src/rDock_2013.1_src/data/scripts/dock_solv.prm

>  <Rbt.Receptor>
prm/pocket_docking_4.prm

>  <SCORE>
-35.2933

>  <SCORE.INTER>
-32.9251

>  <SCORE.INTER.CONST>
1

>  <SCORE.INTER.POLAR>
-6.57197

>  <SCORE.INTER.ROT>
5

>  <SCORE.INTER.SOLV>
23.2655

>  <SCORE.INTER.VDW>
-14.732

>  <SCORE.INTER.norm>
-2.74375

>  <SCORE.INTRA>
-2.37477

>  <SCORE.INTRA.DIHEDRAL>
0.743336

>  <SCORE.INTRA.DIHEDRAL.0>
6.04201

>  <SCORE.INTRA.POLAR>
0

>  <SCORE.INTRA.POLAR.0>
0

>  <SCORE.INTRA.REPUL>
0

>  <SCORE.INTRA.REPUL.0>
0

>  <SCORE.INTRA.SOLV>
-1.18205

>  <SCORE.INTRA.SOLV.lig_0>
-71.0481

>  <SCORE.INTRA.VDW>
-2.15542

>  <SCORE.INTRA.VDW.0>
0.968882

>  <SCORE.INTRA.norm>
-0.197898

>  <SCORE.RESTR>
0.00651296

>  <SCORE.RESTR.CAVITY>
0.00651296

>  <SCORE.RESTR.norm>
0.000542747

>  <SCORE.SYSTEM>
0

>  <SCORE.SYSTEM.CONST>
0

>  <SCORE.SYSTEM.DIHEDRAL>
0

>  <SCORE.SYSTEM.SOLV>
0

>  <SCORE.SYSTEM.norm>
0

>  <SCORE.heavy>
12

>  <SCORE.norm>
-2.94111

>  <SYMMETRIC_BONDS>
11 12 2
5 6 2

>  <RMSD>
2.918

$$$$
1koc cryst
 OpenBabel11021811393D
libRbt.so/2013.1/901 2013/11/27
 12 11  0  0  0  0  0  0  0  0999 V2000
    4.3751    7.2908   27.2913 N   0  3  0  0  0  0  0  0  0  0  0  0
    4.8018    7.2796   28.7233 C   0  0  2  0  0  0  0  0  0  0  0  0
    6.0810    8.1262   28.8731 C   0  0  0  0  0  0  0  0  0  0  0  0
    6.3741    8.8870   27.9630 O   0  5  0  0  0  0  0  0  0  0  0  0
    5.0536    5.8135   29.1676 C   0  0  0  0  0  0  0  0  0  0  0  0
    3.7536    5.1472   29.6331 C   0  0  0  0  0  0  0  0  0  0  0  0
    4.0649    3.7790   30.2298 C   0  0  0  0  0  0  0  0  0  0  0  0
    2.9566    3.3561   31.1349 N   0  0  0  0  0  0  0  0  0  0  0  0
    2.3889    2.1839   30.9822 C   0  0  0  0  0  0  0  0  0  0  0  0
    3.1017    1.1461   30.6206 N   0  0  0  0  0  0  0  0  0  0  0  0
    1.1064    2.0484   31.1965 N   0  3  0  0  0  0  0  0  0  0  0  0
    6.7508    7.9925   29.8863 O   0  0  0  0  0  0  0  0  0  0  0  0
  2  1  1  6  0  0  0
  2  5  1  0  0  0  0
  2  3  1  0  0  0  0
  3  4  1  0  0  0  0
  3 12  2  0  0  0  0
  5  6  1  0  0  0  0
  6  7  1  0  0  0  0
  7  8  1  0  0  0  0
  8  9  1  0  0  0  0
  9 10  1  0  0  0  0
  9 11  2  0  0  0  0
M  CHG  3   1   1   4  -1  11   1
M  END
>  <CHROM.1>
-166.89829101,-85.72163773,15.99827603,-172.66521086,158.28847994,127.69830826
4.22393510,5.25575351,29.61924273,0.95554324,-0.59227585,-0.76355379

>  <Name>
1koc cryst

>  <RI>
0

>  <Rbt.Current_Directory>
/home/itssahil/PROJECTS/Mol_Feturizer/New_Systems/rnas/1koc

>  <Rbt.Executable>
rbdock ($Id: //depot/dev/client3/rdock/2013.1/src/exe/rbdock.cxx#4 $)

>  <Rbt.Library>
libRbt.so (2013.1, Build901 2013/11/27)

>  <Rbt.Parameter_File>
/export/apps/rDock/src/rDock_2013.1_src/data/scripts/dock_solv.prm

>  <Rbt.Receptor>
prm/pocket_docking_6.prm

>  <SCORE>
-29.3769

>  <SCORE.INTER>
-27.9042

>  <SCORE.INTER.CONST>
1

>  <SCORE.INTER.POLAR>
-5.14855

>  <SCORE.INTER.ROT>
5

>  <SCORE.INTER.SOLV>
22.9387

>  <SCORE.INTER.VDW>
-16.0205

>  <SCORE.INTER.norm>
-2.32535

>  <SCORE.INTRA>
-1.47269

>  <SCORE.INTRA.DIHEDRAL>
1.63511

>  <SCORE.INTRA.DIHEDRAL.0>
6.04201

>  <SCORE.INTRA.POLAR>
0

>  <SCORE.INTRA.POLAR.0>
0

>  <SCORE.INTRA.REPUL>
0

>  <SCORE.INTRA.REPUL.0>
0

>  <SCORE.INTRA.SOLV>
-1.26593

>  <SCORE.INTRA.SOLV.lig_0>
-71.0481

>  <SCORE.INTRA.VDW>
-1.65728

>  <SCORE.INTRA.VDW.0>
0.968882

>  <SCORE.INTRA.norm>
-0.122725

>  <SCORE.RESTR>
0

>  <SCORE.RESTR.CAVITY>
0

>  <SCORE.RESTR.norm>
0

>  <SCORE.SYSTEM>
0

>  <SCORE.SYSTEM.CONST>
0

>  <SCORE.SYSTEM.DIHEDRAL>
0

>  <SCORE.SYSTEM.SOLV>
0

>  <SCORE.SYSTEM.norm>
0

>  <SCORE.heavy>
12

>  <SCORE.norm>
-2.44807

>  <SYMMETRIC_BONDS>
11 12 2
5 6 2

>  <RMSD>
2.922

$$$$
1koc cryst
 OpenBabel11021811393D
libRbt.so/2013.1/901 2013/11/27
 12 11  0  0  0  0  0  0  0  0999 V2000
    6.9342    4.7759   30.0906 N   0  3  0  0  0  0  0  0  0  0  0  0
    6.5919    4.7092   31.5436 C   0  0  2  0  0  0  0  0  0  0  0  0
    7.7515    5.3112   32.3612 C   0  0  0  0  0  0  0  0  0  0  0  0
    7.4824    5.8567   33.4209 O   0  5  0  0  0  0  0  0  0  0  0  0
    6.3455    3.2287   31.9406 C   0  0  0  0  0  0  0  0  0  0  0  0
    4.8626    2.8618   31.8091 C   0  0  0  0  0  0  0  0  0  0  0  0
    4.5095    2.6773   30.3373 C   0  0  0  0  0  0  0  0  0  0  0  0
    3.1164    2.1582   30.2109 N   0  0  0  0  0  0  0  0  0  0  0  0
    2.1343    2.7347   30.8613 C   0  0  0  0  0  0  0  0  0  0  0  0
    2.1222    4.0344   31.0241 N   0  0  0  0  0  0  0  0  0  0  0  0
    1.1598    2.0102   31.3454 N   0  3  0  0  0  0  0  0  0  0  0  0
    8.8845    5.2276   31.9110 O   0  0  0  0  0  0  0  0  0  0  0  0
  2  1  1  6  0  0  0
  2  5  1  0  0  0  0
  2  3  1  0  0  0  0
  3  4  1  0  0  0  0
  3 12  2  0  0  0  0
  5  6  1  0  0  0  0
  6  7  1  0  0  0  0
  7  8  1  0  0  0  0
  8  9  1  0  0  0  0
  9 10  1  0  0  0  0
  9 11  2  0  0  0  0
M  CHG  3   1   1   4  -1  11   1
M  END
>  <CHROM.1>
-175.06269283,-92.01623163,149.70763913,75.80920922,173.07950295,49.26213231
5.15745948,3.81584867,31.38717566,-0.39347353,-0.26797654,-2.14989921

>  <Name>
1koc cryst

>  <RI>
0

>  <Rbt.Current_Directory>
/home/itssahil/PROJECTS/Mol_Feturizer/New_Systems/rnas/1koc

>  <Rbt.Executable>
rbdock ($Id: //depot/dev/client3/rdock/2013.1/src/exe/rbdock.cxx#4 $)

>  <Rbt.Library>
libRbt.so (2013.1, Build901 2013/11/27)

>  <Rbt.Parameter_File>
/export/apps/rDock/src/rDock_2013.1_src/data/scripts/dock_solv.prm

>  <Rbt.Receptor>
prm/pocket_docking_4.prm

>  <SCORE>
-17.201

>  <SCORE.INTER>
-16.8436

>  <SCORE.INTER.CONST>
1

>  <SCORE.INTER.POLAR>
-3.28042

>  <SCORE.INTER.ROT>
5

>  <SCORE.INTER.SOLV>
14.7696

>  <SCORE.INTER.VDW>
-12.1509

>  <SCORE.INTER.norm>
-1.40364

>  <SCORE.INTRA>
-0.357321

>  <SCORE.INTRA.DIHEDRAL>
1.47817

>  <SCORE.INTRA.DIHEDRAL.0>
6.04201

>  <SCORE.INTRA.POLAR>
0

>  <SCORE.INTRA.POLAR.0>
0

>  <SCORE.INTRA.REPUL>
0

>  <SCORE.INTRA.REPUL.0>
0

>  <SCORE.INTRA.SOLV>
0.402519

>  <SCORE.INTRA.SOLV.lig_0>
-71.0481

>  <SCORE.INTRA.VDW>
-1.29767

>  <SCORE.INTRA.VDW.0>
0.968882

>  <SCORE.INTRA.norm>
-0.0297768

>  <SCORE.RESTR>
0

>  <SCORE.RESTR.CAVITY>
0

>  <SCORE.RESTR.norm>
0

>  <SCORE.SYSTEM>
0

>  <SCORE.SYSTEM.CONST>
0

>  <SCORE.SYSTEM.DIHEDRAL>
0

>  <SCORE.SYSTEM.SOLV>
0

>  <SCORE.SYSTEM.norm>
0

>  <SCORE.heavy>
12

>  <SCORE.norm>
-1.43341

>  <SYMMETRIC_BONDS>
11 12 2
5 6 2

>  <RMSD>
2.946

$$$$
1koc cryst
 OpenBabel11021811393D
libRbt.so/2013.1/901 2013/11/27
 12 11  0  0  0  0  0  0  0  0999 V2000
    4.5406    7.6718   30.3436 N   0  3  0  0  0  0  0  0  0  0  0  0
    4.7584    6.6819   29.2456 C   0  0  2  0  0  0  0  0  0  0  0  0
    5.0733    7.4397   27.9410 C   0  0  0  0  0  0  0  0  0  0  0  0
    6.2025    7.8827   27.7942 O   0  5  0  0  0  0  0  0  0  0  0  0
    3.4831    5.8112   29.0855 C   0  0  0  0  0  0  0  0  0  0  0  0
    3.2359    4.9596   30.3363 C   0  0  0  0  0  0  0  0  0  0  0  0
    2.1049    3.9727   30.0683 C   0  0  0  0  0  0  0  0  0  0  0  0
    1.9762    3.0252   31.2137 N   0  0  0  0  0  0  0  0  0  0  0  0
    2.6120    1.8785   31.1980 C   0  0  0  0  0  0  0  0  0  0  0  0
    3.8073    1.7924   30.6689 N   0  0  0  0  0  0  0  0  0  0  0  0
    2.0534    0.8167   31.7171 N   0  3  0  0  0  0  0  0  0  0  0  0
    4.1806    7.5744   27.1175 O   0  0  0  0  0  0  0  0  0  0  0  0
  2  1  1  1  0  0  0
  2  5  1  0  0  0  0
  2  3  1  0  0  0  0
  3  4  1  0  0  0  0
  3 12  2  0  0  0  0
  5  6  1  0  0  0  0
  6  7  1  0  0  0  0
  7  8  1  0  0  0  0
  8  9  1  0  0  0  0
  9 10  1  0  0  0  0
  9 11  2  0  0  0  0
M  CHG  3   1   1   4  -1  11   1
M  END
>  <CHROM.1>
-54.45810101,-64.98366686,78.25197884,-171.69540883,172.73391751,-92.60642230
3.68034506,4.97070337,29.74371179,0.99369441,0.82732840,-0.03037779

>  <Name>
1koc cryst

>  <RI>
0

>  <Rbt.Current_Directory>
/home/itssahil/PROJECTS/Mol_Feturizer/New_Systems/rnas/1koc

>  <Rbt.Executable>
rbdock ($Id: //depot/dev/client3/rdock/2013.1/src/exe/rbdock.cxx#4 $)

>  <Rbt.Library>
libRbt.so (2013.1, Build901 2013/11/27)

>  <Rbt.Parameter_File>
/export/apps/rDock/src/rDock_2013.1_src/data/scripts/dock_solv.prm

>  <Rbt.Receptor>
prm/pocket_docking_8.prm

>  <SCORE>
-33.5482

>  <SCORE.INTER>
-31.1354

>  <SCORE.INTER.CONST>
1

>  <SCORE.INTER.POLAR>
-6.13281

>  <SCORE.INTER.ROT>
5

>  <SCORE.INTER.SOLV>
22.6966

>  <SCORE.INTER.VDW>
-14.8131

>  <SCORE.INTER.norm>
-2.59462

>  <SCORE.INTRA>
-2.4128

>  <SCORE.INTRA.DIHEDRAL>
-1.95479

>  <SCORE.INTRA.DIHEDRAL.0>
6.04201

>  <SCORE.INTRA.POLAR>
0

>  <SCORE.INTRA.POLAR.0>
0

>  <SCORE.INTRA.REPUL>
0

>  <SCORE.INTRA.REPUL.0>
0

>  <SCORE.INTRA.SOLV>
-0.68389

>  <SCORE.INTRA.SOLV.lig_0>
-71.0481

>  <SCORE.INTRA.VDW>
-1.09346

>  <SCORE.INTRA.VDW.0>
0.968882

>  <SCORE.INTRA.norm>
-0.201066

>  <SCORE.RESTR>
0

>  <SCORE.RESTR.CAVITY>
0

>  <SCORE.RESTR.norm>
0

>  <SCORE.SYSTEM>
0

>  <SCORE.SYSTEM.CONST>
0

>  <SCORE.SYSTEM.DIHEDRAL>
0

>  <SCORE.SYSTEM.SOLV>
0

>  <SCORE.SYSTEM.norm>
0

>  <SCORE.heavy>
12

>  <SCORE.norm>
-2.79568

>  <SYMMETRIC_BONDS>
11 12 2
5 6 2

>  <RMSD>
2.962

$$$$
1koc cryst
 OpenBabel11021811393D
libRbt.so/2013.1/901 2013/11/27
 12 11  0  0  0  0  0  0  0  0999 V2000
    5.7027    6.9741   27.7102 N   0  3  0  0  0  0  0  0  0  0  0  0
    5.8785    5.9381   28.7726 C   0  0  2  0  0  0  0  0  0  0  0  0
    6.9709    4.9450   28.3301 C   0  0  0  0  0  0  0  0  0  0  0  0
    7.0251    4.6427   27.1474 O   0  5  0  0  0  0  0  0  0  0  0  0
    4.5271    5.2087   29.0002 C   0  0  0  0  0  0  0  0  0  0  0  0
    4.5933    4.2959   30.2304 C   0  0  0  0  0  0  0  0  0  0  0  0
    3.1819    3.9037   30.6533 C   0  0  0  0  0  0  0  0  0  0  0  0
    2.9341    2.4693   30.3256 N   0  0  0  0  0  0  0  0  0  0  0  0
    2.0992    1.7608   31.0472 C   0  0  0  0  0  0  0  0  0  0  0  0
    1.0136    2.3104   31.5324 N   0  0  0  0  0  0  0  0  0  0  0  0
    2.3480    0.4987   31.2797 N   0  3  0  0  0  0  0  0  0  0  0  0
    7.7257    4.4953   29.1794 O   0  0  0  0  0  0  0  0  0  0  0  0
  2  1  1  6  0  0  0
  2  5  1  0  0  0  0
  2  3  1  0  0  0  0
  3  4  1  0  0  0  0
  3 12  2  0  0  0  0
  5  6  1  0  0  0  0
  6  7  1  0  0  0  0
  7  8  1  0  0  0  0
  8  9  1  0  0  0  0
  9 10  1  0  0  0  0
  9 11  2  0  0  0  0
M  CHG  3   1   1   4  -1  11   1
M  END
>  <CHROM.1>
63.09150545,-170.87692371,-37.29811529,164.40380281,108.06963932,150.88246031
4.50185376,3.95363612,29.57854975,0.74413681,0.35999777,-0.31926933

>  <Name>
1koc cryst

>  <RI>
0

>  <Rbt.Current_Directory>
/home/itssahil/PROJECTS/Mol_Feturizer/New_Systems/rnas/1koc

>  <Rbt.Executable>
rbdock ($Id: //depot/dev/client3/rdock/2013.1/src/exe/rbdock.cxx#4 $)

>  <Rbt.Library>
libRbt.so (2013.1, Build901 2013/11/27)

>  <Rbt.Parameter_File>
/export/apps/rDock/src/rDock_2013.1_src/data/scripts/dock_solv.prm

>  <Rbt.Receptor>
prm/pocket_docking_8.prm

>  <SCORE>
-29.5656

>  <SCORE.INTER>
-28.7891

>  <SCORE.INTER.CONST>
1

>  <SCORE.INTER.POLAR>
-5.41657

>  <SCORE.INTER.ROT>
5

>  <SCORE.INTER.SOLV>
22.036

>  <SCORE.INTER.VDW>
-15.4162

>  <SCORE.INTER.norm>
-2.39909

>  <SCORE.INTRA>
-0.776547

>  <SCORE.INTRA.DIHEDRAL>
3.67509

>  <SCORE.INTRA.DIHEDRAL.0>
6.04201

>  <SCORE.INTRA.POLAR>
0

>  <SCORE.INTRA.POLAR.0>
0

>  <SCORE.INTRA.REPUL>
0

>  <SCORE.INTRA.REPUL.0>
0

>  <SCORE.INTRA.SOLV>
-1.28958

>  <SCORE.INTRA.SOLV.lig_0>
-71.0481

>  <SCORE.INTRA.VDW>
-1.9693

>  <SCORE.INTRA.VDW.0>
0.968882

>  <SCORE.INTRA.norm>
-0.0647123

>  <SCORE.RESTR>
0

>  <SCORE.RESTR.CAVITY>
0

>  <SCORE.RESTR.norm>
0

>  <SCORE.SYSTEM>
0

>  <SCORE.SYSTEM.CONST>
0

>  <SCORE.SYSTEM.DIHEDRAL>
0

>  <SCORE.SYSTEM.SOLV>
0

>  <SCORE.SYSTEM.norm>
0

>  <SCORE.heavy>
12

>  <SCORE.norm>
-2.4638

>  <SYMMETRIC_BONDS>
11 12 2
5 6 2

>  <RMSD>
2.975

$$$$
1koc cryst
 OpenBabel11021811393D
libRbt.so/2013.1/901 2013/11/27
 12 11  0  0  0  0  0  0  0  0999 V2000
    6.8399    2.3026   31.9382 N   0  3  0  0  0  0  0  0  0  0  0  0
    7.0098    3.3670   30.9033 C   0  0  2  0  0  0  0  0  0  0  0  0
    7.5438    4.6448   31.5797 C   0  0  0  0  0  0  0  0  0  0  0  0
    7.0443    4.9817   32.6427 O   0  5  0  0  0  0  0  0  0  0  0  0
    5.6421    3.6338   30.2189 C   0  0  0  0  0  0  0  0  0  0  0  0
    4.5789    4.0346   31.2484 C   0  0  0  0  0  0  0  0  0  0  0  0
    3.1907    3.8818   30.6365 C   0  0  0  0  0  0  0  0  0  0  0  0
    2.9332    2.4479   30.3142 N   0  0  0  0  0  0  0  0  0  0  0  0
    2.1014    1.7450   31.0447 C   0  0  0  0  0  0  0  0  0  0  0  0
    1.0227    2.3008   31.5383 N   0  0  0  0  0  0  0  0  0  0  0  0
    2.3462    0.4822   31.2779 N   0  3  0  0  0  0  0  0  0  0  0  0
    8.4325    5.2701   31.0206 O   0  0  0  0  0  0  0  0  0  0  0  0
  2  1  1  1  0  0  0
  2  5  1  0  0  0  0
  2  3  1  0  0  0  0
  3  4  1  0  0  0  0
  3 12  2  0  0  0  0
  5  6  1  0  0  0  0
  6  7  1  0  0  0  0
  7  8  1  0  0  0  0
  8  9  1  0  0  0  0
  9 10  1  0  0  0  0
  9 11  2  0  0  0  0
M  CHG  3   1   1   4  -1  11   1
M  END
>  <CHROM.1>
58.50886605,57.35504385,-43.53086770,-163.11564524,63.82639489,106.91064230
4.89156271,3.22743709,31.22567847,-0.43088657,0.13279904,3.01867133

>  <Name>
1koc cryst

>  <RI>
0

>  <Rbt.Current_Directory>
/home/itssahil/PROJECTS/Mol_Feturizer/New_Systems/rnas/1koc

>  <Rbt.Executable>
rbdock ($Id: //depot/dev/client3/rdock/2013.1/src/exe/rbdock.cxx#4 $)

>  <Rbt.Library>
libRbt.so (2013.1, Build901 2013/11/27)

>  <Rbt.Parameter_File>
/export/apps/rDock/src/rDock_2013.1_src/data/scripts/dock_solv.prm

>  <Rbt.Receptor>
prm/pocket_docking_6.prm

>  <SCORE>
-31.9035

>  <SCORE.INTER>
-29.9687

>  <SCORE.INTER.CONST>
1

>  <SCORE.INTER.POLAR>
-6.35965

>  <SCORE.INTER.ROT>
5

>  <SCORE.INTER.SOLV>
23.8582

>  <SCORE.INTER.VDW>
-13.6663

>  <SCORE.INTER.norm>
-2.49739

>  <SCORE.INTRA>
-1.93483

>  <SCORE.INTRA.DIHEDRAL>
-1.40646

>  <SCORE.INTRA.DIHEDRAL.0>
6.04201

>  <SCORE.INTRA.POLAR>
0

>  <SCORE.INTRA.POLAR.0>
0

>  <SCORE.INTRA.REPUL>
0

>  <SCORE.INTRA.REPUL.0>
0

>  <SCORE.INTRA.SOLV>
0.614474

>  <SCORE.INTRA.SOLV.lig_0>
-71.0481

>  <SCORE.INTRA.VDW>
-1.53883

>  <SCORE.INTRA.VDW.0>
0.968882

>  <SCORE.INTRA.norm>
-0.161235

>  <SCORE.RESTR>
0

>  <SCORE.RESTR.CAVITY>
0

>  <SCORE.RESTR.norm>
0

>  <SCORE.SYSTEM>
0

>  <SCORE.SYSTEM.CONST>
0

>  <SCORE.SYSTEM.DIHEDRAL>
0

>  <SCORE.SYSTEM.SOLV>
0

>  <SCORE.SYSTEM.norm>
0

>  <SCORE.heavy>
12

>  <SCORE.norm>
-2.65862

>  <SYMMETRIC_BONDS>
11 12 2
5 6 2

>  <RMSD>
2.978

$$$$
1koc cryst
 OpenBabel11021811393D
libRbt.so/2013.1/901 2013/11/27
 12 11  0  0  0  0  0  0  0  0999 V2000
    7.9563    3.2982   32.3694 N   0  3  0  0  0  0  0  0  0  0  0  0
    7.1790    3.6702   31.1486 C   0  0  2  0  0  0  0  0  0  0  0  0
    7.1946    5.2033   30.9908 C   0  0  0  0  0  0  0  0  0  0  0  0
    7.1027    5.8840   32.0013 O   0  5  0  0  0  0  0  0  0  0  0  0
    5.7255    3.1436   31.2910 C   0  0  0  0  0  0  0  0  0  0  0  0
    4.9712    3.2392   29.9596 C   0  0  0  0  0  0  0  0  0  0  0  0
    3.4699    3.1644   30.2154 C   0  0  0  0  0  0  0  0  0  0  0  0
    3.0634    1.7464   30.4394 N   0  0  0  0  0  0  0  0  0  0  0  0
    2.1076    1.4591   31.2901 C   0  0  0  0  0  0  0  0  0  0  0  0
    1.0739    2.2538   31.4164 N   0  0  0  0  0  0  0  0  0  0  0  0
    2.1833    0.3720   32.0122 N   0  3  0  0  0  0  0  0  0  0  0  0
    7.2863    5.6705   29.8654 O   0  0  0  0  0  0  0  0  0  0  0  0
  2  1  1  1  0  0  0
  2  5  1  0  0  0  0
  2  3  1  0  0  0  0
  3  4  1  0  0  0  0
  3 12  2  0  0  0  0
  5  6  1  0  0  0  0
  6  7  1  0  0  0  0
  7  8  1  0  0  0  0
  8  9  1  0  0  0  0
  9 10  1  0  0  0  0
  9 11  2  0  0  0  0
M  CHG  3   1   1   4  -1  11   1
M  END
>  <CHROM.1>
-175.79482526,-168.23084388,-38.81403705,-161.41430327,-78.94972852,145.05940516
4.95427133,3.25232593,31.11669257,-0.45448256,0.34267767,2.52671322

>  <Name>
1koc cryst

>  <RI>
0

>  <Rbt.Current_Directory>
/home/itssahil/PROJECTS/Mol_Feturizer/New_Systems/rnas/1koc

>  <Rbt.Executable>
rbdock ($Id: //depot/dev/client3/rdock/2013.1/src/exe/rbdock.cxx#4 $)

>  <Rbt.Library>
libRbt.so (2013.1, Build901 2013/11/27)

>  <Rbt.Parameter_File>
/export/apps/rDock/src/rDock_2013.1_src/data/scripts/dock_solv.prm

>  <Rbt.Receptor>
prm/pocket_docking_6.prm

>  <SCORE>
-35.4016

>  <SCORE.INTER>
-32.9267

>  <SCORE.INTER.CONST>
1

>  <SCORE.INTER.POLAR>
-6.6684

>  <SCORE.INTER.ROT>
5

>  <SCORE.INTER.SOLV>
23.7899

>  <SCORE.INTER.VDW>
-14.5865

>  <SCORE.INTER.norm>
-2.74389

>  <SCORE.INTRA>
-2.47489

>  <SCORE.INTRA.DIHEDRAL>
0.505161

>  <SCORE.INTRA.DIHEDRAL.0>
6.04201

>  <SCORE.INTRA.POLAR>
0

>  <SCORE.INTRA.POLAR.0>
0

>  <SCORE.INTRA.REPUL>
0

>  <SCORE.INTRA.REPUL.0>
0

>  <SCORE.INTRA.SOLV>
-1.13669

>  <SCORE.INTRA.SOLV.lig_0>
-71.0481

>  <SCORE.INTRA.VDW>
-2.15913

>  <SCORE.INTRA.VDW.0>
0.968882

>  <SCORE.INTRA.norm>
-0.206241

>  <SCORE.RESTR>
0

>  <SCORE.RESTR.CAVITY>
0

>  <SCORE.RESTR.norm>
0

>  <SCORE.SYSTEM>
0

>  <SCORE.SYSTEM.CONST>
0

>  <SCORE.SYSTEM.DIHEDRAL>
0

>  <SCORE.SYSTEM.SOLV>
0

>  <SCORE.SYSTEM.norm>
0

>  <SCORE.heavy>
12

>  <SCORE.norm>
-2.95013

>  <SYMMETRIC_BONDS>
11 12 2
5 6 2

>  <RMSD>
2.982

$$$$
1koc cryst
 OpenBabel11021811393D
libRbt.so/2013.1/901 2013/11/27
 12 11  0  0  0  0  0  0  0  0999 V2000
    4.3401    7.5072   27.3096 N   0  3  0  0  0  0  0  0  0  0  0  0
    4.8863    7.3423   28.6907 C   0  0  2  0  0  0  0  0  0  0  0  0
    6.2525    8.0502   28.7786 C   0  0  0  0  0  0  0  0  0  0  0  0
    7.0392    7.8933   27.8568 O   0  5  0  0  0  0  0  0  0  0  0  0
    5.0265    5.8284   29.0048 C   0  0  0  0  0  0  0  0  0  0  0  0
    3.8984    5.3494   29.9260 C   0  0  0  0  0  0  0  0  0  0  0  0
    4.0808    3.8664   30.2300 C   0  0  0  0  0  0  0  0  0  0  0  0
    3.0046    3.4016   31.1531 N   0  0  0  0  0  0  0  0  0  0  0  0
    2.4744    2.2114   31.0046 C   0  0  0  0  0  0  0  0  0  0  0  0
    3.2153    1.2003   30.6243 N   0  0  0  0  0  0  0  0  0  0  0  0
    1.2016    2.0311   31.2417 N   0  3  0  0  0  0  0  0  0  0  0  0
    6.4940    8.7263   29.7675 O   0  0  0  0  0  0  0  0  0  0  0  0
  2  1  1  6  0  0  0
  2  5  1  0  0  0  0
  2  3  1  0  0  0  0
  3  4  1  0  0  0  0
  3 12  2  0  0  0  0
  5  6  1  0  0  0  0
  6  7  1  0  0  0  0
  7  8  1  0  0  0  0
  8  9  1  0  0  0  0
  9 10  1  0  0  0  0
  9 11  2  0  0  0  0
M  CHG  3   1   1   4  -1  11   1
M  END
>  <CHROM.1>
-54.80448791,-103.31240214,-44.02198009,-179.10909292,178.62691300,142.03628882
4.31529501,5.28646755,29.60983523,0.95581719,-0.55681685,-0.76135543

>  <Name>
1koc cryst

>  <RI>
0

>  <Rbt.Current_Directory>
/home/itssahil/PROJECTS/Mol_Feturizer/New_Systems/rnas/1koc

>  <Rbt.Executable>
rbdock ($Id: //depot/dev/client3/rdock/2013.1/src/exe/rbdock.cxx#4 $)

>  <Rbt.Library>
libRbt.so (2013.1, Build901 2013/11/27)

>  <Rbt.Parameter_File>
/export/apps/rDock/src/rDock_2013.1_src/data/scripts/dock_solv.prm

>  <Rbt.Receptor>
prm/pocket_docking_6.prm

>  <SCORE>
-29.3979

>  <SCORE.INTER>
-27.2502

>  <SCORE.INTER.CONST>
1

>  <SCORE.INTER.POLAR>
-5.184

>  <SCORE.INTER.ROT>
5

>  <SCORE.INTER.SOLV>
22.8836

>  <SCORE.INTER.VDW>
-15.448

>  <SCORE.INTER.norm>
-2.27085

>  <SCORE.INTRA>
-2.14761

>  <SCORE.INTRA.DIHEDRAL>
1.69037

>  <SCORE.INTRA.DIHEDRAL.0>
6.04201

>  <SCORE.INTRA.POLAR>
0

>  <SCORE.INTRA.POLAR.0>
0

>  <SCORE.INTRA.REPUL>
0

>  <SCORE.INTRA.REPUL.0>
0

>  <SCORE.INTRA.SOLV>
-1.72

>  <SCORE.INTRA.SOLV.lig_0>
-71.0481

>  <SCORE.INTRA.VDW>
-2.13279

>  <SCORE.INTRA.VDW.0>
0.968882

>  <SCORE.INTRA.norm>
-0.178968

>  <SCORE.RESTR>
0

>  <SCORE.RESTR.CAVITY>
0

>  <SCORE.RESTR.norm>
0

>  <SCORE.SYSTEM>
0

>  <SCORE.SYSTEM.CONST>
0

>  <SCORE.SYSTEM.DIHEDRAL>
0

>  <SCORE.SYSTEM.SOLV>
0

>  <SCORE.SYSTEM.norm>
0

>  <SCORE.heavy>
12

>  <SCORE.norm>
-2.44982

>  <SYMMETRIC_BONDS>
11 12 2
5 6 2

>  <RMSD>
2.985

$$$$
1koc cryst
 OpenBabel11021811393D
libRbt.so/2013.1/901 2013/11/27
 12 11  0  0  0  0  0  0  0  0999 V2000
    4.3666    7.1971   27.3094 N   0  3  0  0  0  0  0  0  0  0  0  0
    5.0282    7.0767   28.6437 C   0  0  2  0  0  0  0  0  0  0  0  0
    6.4550    7.6522   28.5509 C   0  0  0  0  0  0  0  0  0  0  0  0
    7.2158    7.1670   27.7271 O   0  5  0  0  0  0  0  0  0  0  0  0
    5.0609    5.5821   29.0622 C   0  0  0  0  0  0  0  0  0  0  0  0
    3.6858    5.1174   29.5562 C   0  0  0  0  0  0  0  0  0  0  0  0
    3.7808    3.6806   30.0578 C   0  0  0  0  0  0  0  0  0  0  0  0
    2.5187    3.3033   30.7585 N   0  0  0  0  0  0  0  0  0  0  0  0
    2.2705    2.0475   31.0433 C   0  0  0  0  0  0  0  0  0  0  0  0
    3.2437    1.2446   31.3957 N   0  0  0  0  0  0  0  0  0  0  0  0
    1.0457    1.5951   30.9804 N   0  3  0  0  0  0  0  0  0  0  0  0
    6.7666    8.5579   29.3098 O   0  0  0  0  0  0  0  0  0  0  0  0
  2  1  1  6  0  0  0
  2  5  1  0  0  0  0
  2  3  1  0  0  0  0
  3  4  1  0  0  0  0
  3 12  2  0  0  0  0
  5  6  1  0  0  0  0
  6  7  1  0  0  0  0
  7  8  1  0  0  0  0
  8  9  1  0  0  0  0
  9 10  1  0  0  0  0
  9 11  2  0  0  0  0
M  CHG  3   1   1   4  -1  11   1
M  END
>  <CHROM.1>
68.64628063,-76.69919817,-57.62415154,-175.67808975,170.01590814,166.75861268
4.27662524,5.01914010,29.51314697,0.98119987,-0.28686498,-0.63303043

>  <Name>
1koc cryst

>  <RI>
0

>  <Rbt.Current_Directory>
/home/itssahil/PROJECTS/Mol_Feturizer/New_Systems/rnas/1koc

>  <Rbt.Executable>
rbdock ($Id: //depot/dev/client3/rdock/2013.1/src/exe/rbdock.cxx#4 $)

>  <Rbt.Library>
libRbt.so (2013.1, Build901 2013/11/27)

>  <Rbt.Parameter_File>
/export/apps/rDock/src/rDock_2013.1_src/data/scripts/dock_solv.prm

>  <Rbt.Receptor>
prm/pocket_docking_8.prm

>  <SCORE>
-30.6212

>  <SCORE.INTER>
-27.4784

>  <SCORE.INTER.CONST>
1

>  <SCORE.INTER.POLAR>
-5.37219

>  <SCORE.INTER.ROT>
5

>  <SCORE.INTER.SOLV>
22.5297

>  <SCORE.INTER.VDW>
-14.8548

>  <SCORE.INTER.norm>
-2.28986

>  <SCORE.INTRA>
-3.14286

>  <SCORE.INTRA.DIHEDRAL>
-1.04815

>  <SCORE.INTRA.DIHEDRAL.0>
6.04201

>  <SCORE.INTRA.POLAR>
0

>  <SCORE.INTRA.POLAR.0>
0

>  <SCORE.INTRA.REPUL>
0

>  <SCORE.INTRA.REPUL.0>
0

>  <SCORE.INTRA.SOLV>
-1.507

>  <SCORE.INTRA.SOLV.lig_0>
-71.0481

>  <SCORE.INTRA.VDW>
-1.86529

>  <SCORE.INTRA.VDW.0>
0.968882

>  <SCORE.INTRA.norm>
-0.261905

>  <SCORE.RESTR>
0

>  <SCORE.RESTR.CAVITY>
0

>  <SCORE.RESTR.norm>
0

>  <SCORE.SYSTEM>
0

>  <SCORE.SYSTEM.CONST>
0

>  <SCORE.SYSTEM.DIHEDRAL>
0

>  <SCORE.SYSTEM.SOLV>
0

>  <SCORE.SYSTEM.norm>
0

>  <SCORE.heavy>
12

>  <SCORE.norm>
-2.55177

>  <SYMMETRIC_BONDS>
11 12 2
5 6 2

>  <RMSD>
3.015

$$$$
1koc cryst
 OpenBabel11021811393D
libRbt.so/2013.1/901 2013/11/27
 12 11  0  0  0  0  0  0  0  0999 V2000
    8.1533    3.4052   32.3296 N   0  3  0  0  0  0  0  0  0  0  0  0
    7.2926    3.8268   31.1832 C   0  0  2  0  0  0  0  0  0  0  0  0
    7.2266    5.3661   31.1438 C   0  0  0  0  0  0  0  0  0  0  0  0
    7.8608    5.9445   30.2741 O   0  5  0  0  0  0  0  0  0  0  0  0
    5.8759    3.2168   31.3597 C   0  0  0  0  0  0  0  0  0  0  0  0
    5.0631    3.3257   30.0641 C   0  0  0  0  0  0  0  0  0  0  0  0
    3.5791    3.1660   30.3760 C   0  0  0  0  0  0  0  0  0  0  0  0
    3.2793    1.7408   30.7002 N   0  0  0  0  0  0  0  0  0  0  0  0
    2.1505    1.4191   31.2851 C   0  0  0  0  0  0  0  0  0  0  0  0
    1.0469    2.0602   30.9903 N   0  0  0  0  0  0  0  0  0  0  0  0
    2.1246    0.4507   32.1629 N   0  3  0  0  0  0  0  0  0  0  0  0
    6.5547    5.9406   31.9875 O   0  0  0  0  0  0  0  0  0  0  0  0
  2  1  1  1  0  0  0
  2  5  1  0  0  0  0
  2  3  1  0  0  0  0
  3  4  1  0  0  0  0
  3 12  2  0  0  0  0
  5  6  1  0  0  0  0
  6  7  1  0  0  0  0
  7  8  1  0  0  0  0
  8  9  1  0  0  0  0
  9 10  1  0  0  0  0
  9 11  2  0  0  0  0
M  CHG  3   1   1   4  -1  11   1
M  END
>  <CHROM.1>
179.32317480,-166.11276487,105.82762721,-161.14694243,-72.99328302,164.65797054
5.02894321,3.31467721,31.18555313,-0.49871117,0.29618934,2.66073299

>  <Name>
1koc cryst

>  <RI>
0

>  <Rbt.Current_Directory>
/home/itssahil/PROJECTS/Mol_Feturizer/New_Systems/rnas/1koc

>  <Rbt.Executable>
rbdock ($Id: //depot/dev/client3/rdock/2013.1/src/exe/rbdock.cxx#4 $)

>  <Rbt.Library>
libRbt.so (2013.1, Build901 2013/11/27)

>  <Rbt.Parameter_File>
/export/apps/rDock/src/rDock_2013.1_src/data/scripts/dock_solv.prm

>  <Rbt.Receptor>
prm/pocket_docking_7.prm

>  <SCORE>
-33.6003

>  <SCORE.INTER>
-31.223

>  <SCORE.INTER.CONST>
1

>  <SCORE.INTER.POLAR>
-6.27769

>  <SCORE.INTER.ROT>
5

>  <SCORE.INTER.SOLV>
22.403

>  <SCORE.INTER.VDW>
-14.2907

>  <SCORE.INTER.norm>
-2.60192

>  <SCORE.INTRA>
-2.44016

>  <SCORE.INTRA.DIHEDRAL>
0.039124

>  <SCORE.INTRA.DIHEDRAL.0>
6.04201

>  <SCORE.INTRA.POLAR>
0

>  <SCORE.INTRA.POLAR.0>
0

>  <SCORE.INTRA.REPUL>
0

>  <SCORE.INTRA.REPUL.0>
0

>  <SCORE.INTRA.SOLV>
-1.26349

>  <SCORE.INTRA.SOLV.lig_0>
-71.0481

>  <SCORE.INTRA.VDW>
-1.82798

>  <SCORE.INTRA.VDW.0>
0.968882

>  <SCORE.INTRA.norm>
-0.203347

>  <SCORE.RESTR>
0.0628884

>  <SCORE.RESTR.CAVITY>
0.0628884

>  <SCORE.RESTR.norm>
0.0052407

>  <SCORE.SYSTEM>
0

>  <SCORE.SYSTEM.CONST>
0

>  <SCORE.SYSTEM.DIHEDRAL>
0

>  <SCORE.SYSTEM.SOLV>
0

>  <SCORE.SYSTEM.norm>
0

>  <SCORE.heavy>
12

>  <SCORE.norm>
-2.80002

>  <SYMMETRIC_BONDS>
11 12 2
5 6 2

>  <RMSD>
3.062

$$$$
1koc cryst
 OpenBabel11021811393D
libRbt.so/2013.1/901 2013/11/27
 12 11  0  0  0  0  0  0  0  0999 V2000
    6.2403    2.5289   33.0261 N   0  3  0  0  0  0  0  0  0  0  0  0
    6.7735    3.0443   31.7288 C   0  0  2  0  0  0  0  0  0  0  0  0
    7.1976    4.5151   31.9087 C   0  0  0  0  0  0  0  0  0  0  0  0
    8.0302    4.9694   31.1383 O   0  5  0  0  0  0  0  0  0  0  0  0
    5.6746    2.9148   30.6399 C   0  0  0  0  0  0  0  0  0  0  0  0
    4.4164    3.6996   31.0298 C   0  0  0  0  0  0  0  0  0  0  0  0
    3.2536    3.2784   30.1380 C   0  0  0  0  0  0  0  0  0  0  0  0
    2.9067    1.8506   30.3970 N   0  0  0  0  0  0  0  0  0  0  0  0
    1.9729    1.5439   31.2652 C   0  0  0  0  0  0  0  0  0  0  0  0
    0.9098    2.2995   31.3874 N   0  0  0  0  0  0  0  0  0  0  0  0
    2.1003    0.4766   32.0092 N   0  3  0  0  0  0  0  0  0  0  0  0
    6.6936    5.1581   32.8174 O   0  0  0  0  0  0  0  0  0  0  0  0
  2  1  1  1  0  0  0
  2  5  1  0  0  0  0
  2  3  1  0  0  0  0
  3  4  1  0  0  0  0
  3 12  2  0  0  0  0
  5  6  1  0  0  0  0
  6  7  1  0  0  0  0
  7  8  1  0  0  0  0
  8  9  1  0  0  0  0
  9 10  1  0  0  0  0
  9 11  2  0  0  0  0
M  CHG  3   1   1   4  -1  11   1
M  END
>  <CHROM.1>
-69.88022238,58.93147981,156.51674678,-165.88569273,65.38089037,93.45081104
4.67220539,3.00911609,31.49684089,-0.25111355,0.42177180,2.37516493

>  <Name>
1koc cryst

>  <RI>
0

>  <Rbt.Current_Directory>
/home/itssahil/PROJECTS/Mol_Feturizer/New_Systems/rnas/1koc

>  <Rbt.Executable>
rbdock ($Id: //depot/dev/client3/rdock/2013.1/src/exe/rbdock.cxx#4 $)

>  <Rbt.Library>
libRbt.so (2013.1, Build901 2013/11/27)

>  <Rbt.Parameter_File>
/export/apps/rDock/src/rDock_2013.1_src/data/scripts/dock_solv.prm

>  <Rbt.Receptor>
prm/pocket_docking_8.prm

>  <SCORE>
-32.2648

>  <SCORE.INTER>
-30.0659

>  <SCORE.INTER.CONST>
1

>  <SCORE.INTER.POLAR>
-5.69747

>  <SCORE.INTER.ROT>
5

>  <SCORE.INTER.SOLV>
26.304

>  <SCORE.INTER.VDW>
-16.7537

>  <SCORE.INTER.norm>
-2.5055

>  <SCORE.INTRA>
-2.19887

>  <SCORE.INTRA.DIHEDRAL>
-1.45333

>  <SCORE.INTRA.DIHEDRAL.0>
6.04201

>  <SCORE.INTRA.POLAR>
0

>  <SCORE.INTRA.POLAR.0>
0

>  <SCORE.INTRA.REPUL>
0

>  <SCORE.INTRA.REPUL.0>
0

>  <SCORE.INTRA.SOLV>
0.645114

>  <SCORE.INTRA.SOLV.lig_0>
-71.0481

>  <SCORE.INTRA.VDW>
-1.79476

>  <SCORE.INTRA.VDW.0>
0.968882

>  <SCORE.INTRA.norm>
-0.183239

>  <SCORE.RESTR>
0

>  <SCORE.RESTR.CAVITY>
0

>  <SCORE.RESTR.norm>
0

>  <SCORE.SYSTEM>
0

>  <SCORE.SYSTEM.CONST>
0

>  <SCORE.SYSTEM.DIHEDRAL>
0

>  <SCORE.SYSTEM.SOLV>
0

>  <SCORE.SYSTEM.norm>
0

>  <SCORE.heavy>
12

>  <SCORE.norm>
-2.68873

>  <SYMMETRIC_BONDS>
11 12 2
5 6 2

>  <RMSD>
3.084

$$$$
1koc cryst
 OpenBabel11021811393D
libRbt.so/2013.1/901 2013/11/27
 12 11  0  0  0  0  0  0  0  0999 V2000
    6.8649    2.2757   31.7997 N   0  3  0  0  0  0  0  0  0  0  0  0
    7.0344    3.2258   30.6589 C   0  0  2  0  0  0  0  0  0  0  0  0
    7.4360    4.6076   31.2112 C   0  0  0  0  0  0  0  0  0  0  0  0
    8.2942    5.2370   30.6109 O   0  5  0  0  0  0  0  0  0  0  0  0
    5.7019    3.3127   29.8671 C   0  0  0  0  0  0  0  0  0  0  0  0
    4.5485    3.7554   30.7751 C   0  0  0  0  0  0  0  0  0  0  0  0
    3.2173    3.4481   30.0981 C   0  0  0  0  0  0  0  0  0  0  0  0
    2.8631    2.0132   30.3028 N   0  0  0  0  0  0  0  0  0  0  0  0
    1.9813    1.6729   31.2118 C   0  0  0  0  0  0  0  0  0  0  0  0
    0.9412    2.4352   31.4420 N   0  0  0  0  0  0  0  0  0  0  0  0
    2.1374    0.5653   31.8884 N   0  3  0  0  0  0  0  0  0  0  0  0
    6.8894    5.0080   32.2281 O   0  0  0  0  0  0  0  0  0  0  0  0
  2  1  1  1  0  0  0
  2  5  1  0  0  0  0
  2  3  1  0  0  0  0
  3  4  1  0  0  0  0
  3 12  2  0  0  0  0
  5  6  1  0  0  0  0
  6  7  1  0  0  0  0
  7  8  1  0  0  0  0
  8  9  1  0  0  0  0
  9 10  1  0  0  0  0
  9 11  2  0  0  0  0
M  CHG  3   1   1   4  -1  11   1
M  END
>  <CHROM.1>
-66.96331693,57.64505732,138.92234582,-163.75307993,81.43027948,101.37501989
4.82498015,3.10655709,31.04431308,-0.40778050,0.17252927,2.73309811

>  <Name>
1koc cryst

>  <RI>
0

>  <Rbt.Current_Directory>
/home/itssahil/PROJECTS/Mol_Feturizer/New_Systems/rnas/1koc

>  <Rbt.Executable>
rbdock ($Id: //depot/dev/client3/rdock/2013.1/src/exe/rbdock.cxx#4 $)

>  <Rbt.Library>
libRbt.so (2013.1, Build901 2013/11/27)

>  <Rbt.Parameter_File>
/export/apps/rDock/src/rDock_2013.1_src/data/scripts/dock_solv.prm

>  <Rbt.Receptor>
prm/pocket_docking_6.prm

>  <SCORE>
-33.0829

>  <SCORE.INTER>
-31.6312

>  <SCORE.INTER.CONST>
1

>  <SCORE.INTER.POLAR>
-6.5103

>  <SCORE.INTER.ROT>
5

>  <SCORE.INTER.SOLV>
23.0373

>  <SCORE.INTER.VDW>
-13.9989

>  <SCORE.INTER.norm>
-2.63594

>  <SCORE.INTRA>
-1.45163

>  <SCORE.INTRA.DIHEDRAL>
0.143213

>  <SCORE.INTRA.DIHEDRAL.0>
6.04201

>  <SCORE.INTRA.POLAR>
0

>  <SCORE.INTRA.POLAR.0>
0

>  <SCORE.INTRA.REPUL>
0

>  <SCORE.INTRA.REPUL.0>
0

>  <SCORE.INTRA.SOLV>
0.514597

>  <SCORE.INTRA.SOLV.lig_0>
-71.0481

>  <SCORE.INTRA.VDW>
-1.78054

>  <SCORE.INTRA.VDW.0>
0.968882

>  <SCORE.INTRA.norm>
-0.120969

>  <SCORE.RESTR>
0

>  <SCORE.RESTR.CAVITY>
0

>  <SCORE.RESTR.norm>
0

>  <SCORE.SYSTEM>
0

>  <SCORE.SYSTEM.CONST>
0

>  <SCORE.SYSTEM.DIHEDRAL>
0

>  <SCORE.SYSTEM.SOLV>
0

>  <SCORE.SYSTEM.norm>
0

>  <SCORE.heavy>
12

>  <SCORE.norm>
-2.75691

>  <SYMMETRIC_BONDS>
11 12 2
5 6 2

>  <RMSD>
3.128

$$$$
1koc cryst
 OpenBabel11021811393D
libRbt.so/2013.1/901 2013/11/27
 12 11  0  0  0  0  0  0  0  0999 V2000
    6.1162    2.2959   33.3114 N   0  3  0  0  0  0  0  0  0  0  0  0
    6.0140    2.9959   31.9951 C   0  0  2  0  0  0  0  0  0  0  0  0
    7.3085    3.7955   31.7494 C   0  0  0  0  0  0  0  0  0  0  0  0
    7.2072    4.9191   31.2802 O   0  5  0  0  0  0  0  0  0  0  0  0
    4.7784    3.9357   32.0135 C   0  0  0  0  0  0  0  0  0  0  0  0
    4.3278    4.2823   30.5895 C   0  0  0  0  0  0  0  0  0  0  0  0
    2.8612    3.9057   30.4108 C   0  0  0  0  0  0  0  0  0  0  0  0
    2.7346    2.4300   30.2305 N   0  0  0  0  0  0  0  0  0  0  0  0
    2.0004    1.7235   31.0560 C   0  0  0  0  0  0  0  0  0  0  0  0
    0.8896    2.2190   31.5425 N   0  0  0  0  0  0  0  0  0  0  0  0
    2.3752    0.5169   31.3917 N   0  3  0  0  0  0  0  0  0  0  0  0
    8.3770    3.2693   32.0226 O   0  0  0  0  0  0  0  0  0  0  0  0
  2  1  1  1  0  0  0
  2  5  1  0  0  0  0
  2  3  1  0  0  0  0
  3  4  1  0  0  0  0
  3 12  2  0  0  0  0
  5  6  1  0  0  0  0
  6  7  1  0  0  0  0
  7  8  1  0  0  0  0
  8  9  1  0  0  0  0
  9 10  1  0  0  0  0
  9 11  2  0  0  0  0
M  CHG  3   1   1   4  -1  11   1
M  END
>  <CHROM.1>
167.66394682,-159.58945337,-138.13260825,124.18761403,-76.91281171,121.66926408
4.59338741,2.99241231,31.49787148,-0.18266524,0.29741026,2.60769165

>  <Name>
1koc cryst

>  <RI>
0

>  <Rbt.Current_Directory>
/home/itssahil/PROJECTS/Mol_Feturizer/New_Systems/rnas/1koc

>  <Rbt.Executable>
rbdock ($Id: //depot/dev/client3/rdock/2013.1/src/exe/rbdock.cxx#4 $)

>  <Rbt.Library>
libRbt.so (2013.1, Build901 2013/11/27)

>  <Rbt.Parameter_File>
/export/apps/rDock/src/rDock_2013.1_src/data/scripts/dock_solv.prm

>  <Rbt.Receptor>
prm/pocket_docking_5.prm

>  <SCORE>
-29.9061

>  <SCORE.INTER>
-31.0402

>  <SCORE.INTER.CONST>
1

>  <SCORE.INTER.POLAR>
-6.23765

>  <SCORE.INTER.ROT>
5

>  <SCORE.INTER.SOLV>
30.0249

>  <SCORE.INTER.VDW>
-16.8429

>  <SCORE.INTER.norm>
-2.58668

>  <SCORE.INTRA>
1.13403

>  <SCORE.INTRA.DIHEDRAL>
6.14719

>  <SCORE.INTRA.DIHEDRAL.0>
6.04201

>  <SCORE.INTRA.POLAR>
0

>  <SCORE.INTRA.POLAR.0>
0

>  <SCORE.INTRA.REPUL>
0

>  <SCORE.INTRA.REPUL.0>
0

>  <SCORE.INTRA.SOLV>
-0.821975

>  <SCORE.INTRA.SOLV.lig_0>
-71.0481

>  <SCORE.INTRA.VDW>
-1.52857

>  <SCORE.INTRA.VDW.0>
0.968882

>  <SCORE.INTRA.norm>
0.0945028

>  <SCORE.RESTR>
0

>  <SCORE.RESTR.CAVITY>
0

>  <SCORE.RESTR.norm>
0

>  <SCORE.SYSTEM>
0

>  <SCORE.SYSTEM.CONST>
0

>  <SCORE.SYSTEM.DIHEDRAL>
0

>  <SCORE.SYSTEM.SOLV>
0

>  <SCORE.SYSTEM.norm>
0

>  <SCORE.heavy>
12

>  <SCORE.norm>
-2.49218

>  <SYMMETRIC_BONDS>
11 12 2
5 6 2

>  <RMSD>
3.145

$$$$
1koc cryst
 OpenBabel11021811393D
libRbt.so/2013.1/901 2013/11/27
 12 11  0  0  0  0  0  0  0  0999 V2000
    2.2419    9.1531   32.4797 N   0  3  0  0  0  0  0  0  0  0  0  0
    3.2700    8.1619   32.9194 C   0  0  2  0  0  0  0  0  0  0  0  0
    4.6439    8.8574   32.9824 C   0  0  0  0  0  0  0  0  0  0  0  0
    4.8806    9.7331   32.1637 O   0  5  0  0  0  0  0  0  0  0  0  0
    3.2954    6.9768   31.9169 C   0  0  0  0  0  0  0  0  0  0  0  0
    4.2435    5.8705   32.3944 C   0  0  0  0  0  0  0  0  0  0  0  0
    4.4290    4.8412   31.2849 C   0  0  0  0  0  0  0  0  0  0  0  0
    3.1180    4.2102   30.9538 N   0  0  0  0  0  0  0  0  0  0  0  0
    2.3565    4.7206   30.0162 C   0  0  0  0  0  0  0  0  0  0  0  0
    2.8921    5.2463   28.9426 N   0  0  0  0  0  0  0  0  0  0  0  0
    1.0563    4.7008   30.1504 N   0  3  0  0  0  0  0  0  0  0  0  0
    5.4388    8.4970   33.8377 O   0  0  0  0  0  0  0  0  0  0  0  0
  2  1  1  6  0  0  0
  2  5  1  0  0  0  0
  2  3  1  0  0  0  0
  3  4  1  0  0  0  0
  3 12  2  0  0  0  0
  5  6  1  0  0  0  0
  6  7  1  0  0  0  0
  7  8  1  0  0  0  0
  8  9  1  0  0  0  0
  9 10  1  0  0  0  0
  9 11  2  0  0  0  0
M  CHG  3   1   1   4  -1  11   1
M  END
>  <CHROM.1>
-166.97847620,-174.76323590,-34.03119748,-170.34020971,-61.59366824,91.08249292
3.46040331,6.77963324,31.65526026,1.16902690,-0.48579908,0.38802537

>  <Name>
1koc cryst

>  <RI>
0

>  <Rbt.Current_Directory>
/home/itssahil/PROJECTS/Mol_Feturizer/New_Systems/rnas/1koc

>  <Rbt.Executable>
rbdock ($Id: //depot/dev/client3/rdock/2013.1/src/exe/rbdock.cxx#4 $)

>  <Rbt.Library>
libRbt.so (2013.1, Build901 2013/11/27)

>  <Rbt.Parameter_File>
/export/apps/rDock/src/rDock_2013.1_src/data/scripts/dock_solv.prm

>  <Rbt.Receptor>
prm/pocket_docking_5.prm

>  <SCORE>
-36.8273

>  <SCORE.INTER>
-33.8136

>  <SCORE.INTER.CONST>
1

>  <SCORE.INTER.POLAR>
-5.60869

>  <SCORE.INTER.ROT>
5

>  <SCORE.INTER.SOLV>
24.8178

>  <SCORE.INTER.VDW>
-19.0527

>  <SCORE.INTER.norm>
-2.8178

>  <SCORE.INTRA>
-3.01377

>  <SCORE.INTRA.DIHEDRAL>
-1.72458

>  <SCORE.INTRA.DIHEDRAL.0>
6.04201

>  <SCORE.INTRA.POLAR>
0

>  <SCORE.INTRA.POLAR.0>
0

>  <SCORE.INTRA.REPUL>
0

>  <SCORE.INTRA.REPUL.0>
0

>  <SCORE.INTRA.SOLV>
-0.281433

>  <SCORE.INTRA.SOLV.lig_0>
-71.0481

>  <SCORE.INTRA.VDW>
-2.01076

>  <SCORE.INTRA.VDW.0>
0.968882

>  <SCORE.INTRA.norm>
-0.251147

>  <SCORE.RESTR>
0

>  <SCORE.RESTR.CAVITY>
0

>  <SCORE.RESTR.norm>
0

>  <SCORE.SYSTEM>
0

>  <SCORE.SYSTEM.CONST>
0

>  <SCORE.SYSTEM.DIHEDRAL>
0

>  <SCORE.SYSTEM.SOLV>
0

>  <SCORE.SYSTEM.norm>
0

>  <SCORE.heavy>
12

>  <SCORE.norm>
-3.06894

>  <SYMMETRIC_BONDS>
11 12 2
5 6 2

>  <RMSD>
3.147

$$$$
1koc cryst
 OpenBabel11021811393D
libRbt.so/2013.1/901 2013/11/27
 12 11  0  0  0  0  0  0  0  0999 V2000
    7.1595    2.0018   30.8272 N   0  3  0  0  0  0  0  0  0  0  0  0
    6.3387    3.2504   30.8276 C   0  0  2  0  0  0  0  0  0  0  0  0
    7.2515    4.4517   31.1424 C   0  0  0  0  0  0  0  0  0  0  0  0
    7.7621    4.5081   32.2510 O   0  5  0  0  0  0  0  0  0  0  0  0
    5.2127    3.1186   31.8883 C   0  0  0  0  0  0  0  0  0  0  0  0
    3.9399    3.8431   31.4346 C   0  0  0  0  0  0  0  0  0  0  0  0
    3.4213    3.2097   30.1482 C   0  0  0  0  0  0  0  0  0  0  0  0
    3.0180    1.7964   30.4052 N   0  0  0  0  0  0  0  0  0  0  0  0
    2.0893    1.5242   31.2902 C   0  0  0  0  0  0  0  0  0  0  0  0
    1.0627    2.3242   31.4386 N   0  0  0  0  0  0  0  0  0  0  0  0
    2.1851    0.4471   32.0247 N   0  3  0  0  0  0  0  0  0  0  0  0
    7.4159    5.2989   30.2771 O   0  0  0  0  0  0  0  0  0  0  0  0
  2  1  1  1  0  0  0
  2  5  1  0  0  0  0
  2  3  1  0  0  0  0
  3  4  1  0  0  0  0
  3 12  2  0  0  0  0
  5  6  1  0  0  0  0
  6  7  1  0  0  0  0
  7  8  1  0  0  0  0
  8  9  1  0  0  0  0
  9 10  1  0  0  0  0
  9 11  2  0  0  0  0
M  CHG  3   1   1   4  -1  11   1
M  END
>  <CHROM.1>
49.51983318,-146.24455333,-65.70463933,61.80649663,63.99972764,59.36463879
4.75701713,2.95266568,31.16989514,-0.44588714,0.05200038,2.95784605

>  <Name>
1koc cryst

>  <RI>
0

>  <Rbt.Current_Directory>
/home/itssahil/PROJECTS/Mol_Feturizer/New_Systems/rnas/1koc

>  <Rbt.Executable>
rbdock ($Id: //depot/dev/client3/rdock/2013.1/src/exe/rbdock.cxx#4 $)

>  <Rbt.Library>
libRbt.so (2013.1, Build901 2013/11/27)

>  <Rbt.Parameter_File>
/export/apps/rDock/src/rDock_2013.1_src/data/scripts/dock_solv.prm

>  <Rbt.Receptor>
prm/pocket_docking_5.prm

>  <SCORE>
-36.1413

>  <SCORE.INTER>
-35.1223

>  <SCORE.INTER.CONST>
1

>  <SCORE.INTER.POLAR>
-7.10669

>  <SCORE.INTER.ROT>
5

>  <SCORE.INTER.SOLV>
22.2737

>  <SCORE.INTER.VDW>
-14.0838

>  <SCORE.INTER.norm>
-2.92686

>  <SCORE.INTRA>
-1.07785

>  <SCORE.INTRA.DIHEDRAL>
0.808739

>  <SCORE.INTRA.DIHEDRAL.0>
6.04201

>  <SCORE.INTRA.POLAR>
0

>  <SCORE.INTRA.POLAR.0>
0

>  <SCORE.INTRA.REPUL>
0

>  <SCORE.INTRA.REPUL.0>
0

>  <SCORE.INTRA.SOLV>
0.0136416

>  <SCORE.INTRA.SOLV.lig_0>
-71.0481

>  <SCORE.INTRA.VDW>
-1.48904

>  <SCORE.INTRA.VDW.0>
0.968882

>  <SCORE.INTRA.norm>
-0.089821

>  <SCORE.RESTR>
0.0588974

>  <SCORE.RESTR.CAVITY>
0.0588974

>  <SCORE.RESTR.norm>
0.00490812

>  <SCORE.SYSTEM>
0

>  <SCORE.SYSTEM.CONST>
0

>  <SCORE.SYSTEM.DIHEDRAL>
0

>  <SCORE.SYSTEM.SOLV>
0

>  <SCORE.SYSTEM.norm>
0

>  <SCORE.heavy>
12

>  <SCORE.norm>
-3.01177

>  <SYMMETRIC_BONDS>
11 12 2
5 6 2

>  <RMSD>
3.153

$$$$
1koc cryst
 OpenBabel11021811393D
libRbt.so/2013.1/901 2013/11/27
 12 11  0  0  0  0  0  0  0  0999 V2000
    6.1342    2.2813   33.2681 N   0  3  0  0  0  0  0  0  0  0  0  0
    6.0747    2.8099   31.8717 C   0  0  2  0  0  0  0  0  0  0  0  0
    7.3856    3.5590   31.5618 C   0  0  0  0  0  0  0  0  0  0  0  0
    7.9434    3.3223   30.5007 O   0  5  0  0  0  0  0  0  0  0  0  0
    4.8517    3.7568   31.7380 C   0  0  0  0  0  0  0  0  0  0  0  0
    4.4738    3.9654   30.2668 C   0  0  0  0  0  0  0  0  0  0  0  0
    2.9957    3.6485   30.0681 C   0  0  0  0  0  0  0  0  0  0  0  0
    2.7567    2.1906   30.2774 N   0  0  0  0  0  0  0  0  0  0  0  0
    1.9038    1.7841   31.1868 C   0  0  0  0  0  0  0  0  0  0  0  0
    0.8060    2.4619   31.4136 N   0  0  0  0  0  0  0  0  0  0  0  0
    2.1469    0.6947   31.8673 N   0  3  0  0  0  0  0  0  0  0  0  0
    7.8153    4.3459   32.3921 O   0  0  0  0  0  0  0  0  0  0  0  0
  2  1  1  1  0  0  0
  2  5  1  0  0  0  0
  2  3  1  0  0  0  0
  3  4  1  0  0  0  0
  3 12  2  0  0  0  0
  5  6  1  0  0  0  0
  6  7  1  0  0  0  0
  7  8  1  0  0  0  0
  8  9  1  0  0  0  0
  9 10  1  0  0  0  0
  9 11  2  0  0  0  0
M  CHG  3   1   1   4  -1  11   1
M  END
>  <CHROM.1>
46.65782775,-161.65679848,133.23250403,126.87208008,-67.27615070,122.23199664
4.61533366,2.87606794,31.40537243,-0.08082206,0.28014593,2.25198502

>  <Name>
1koc cryst

>  <RI>
0

>  <Rbt.Current_Directory>
/home/itssahil/PROJECTS/Mol_Feturizer/New_Systems/rnas/1koc

>  <Rbt.Executable>
rbdock ($Id: //depot/dev/client3/rdock/2013.1/src/exe/rbdock.cxx#4 $)

>  <Rbt.Library>
libRbt.so (2013.1, Build901 2013/11/27)

>  <Rbt.Parameter_File>
/export/apps/rDock/src/rDock_2013.1_src/data/scripts/dock_solv.prm

>  <Rbt.Receptor>
prm/pocket_docking_7.prm

>  <SCORE>
-33.3399

>  <SCORE.INTER>
-33.003

>  <SCORE.INTER.CONST>
1

>  <SCORE.INTER.POLAR>
-6.47859

>  <SCORE.INTER.ROT>
5

>  <SCORE.INTER.SOLV>
28.8055

>  <SCORE.INTER.VDW>
-16.9418

>  <SCORE.INTER.norm>
-2.75025

>  <SCORE.INTRA>
-0.336983

>  <SCORE.INTRA.DIHEDRAL>
5.04537

>  <SCORE.INTRA.DIHEDRAL.0>
6.04201

>  <SCORE.INTRA.POLAR>
0

>  <SCORE.INTRA.POLAR.0>
0

>  <SCORE.INTRA.REPUL>
0

>  <SCORE.INTRA.REPUL.0>
0

>  <SCORE.INTRA.SOLV>
-0.691319

>  <SCORE.INTRA.SOLV.lig_0>
-71.0481

>  <SCORE.INTRA.VDW>
-2.51401

>  <SCORE.INTRA.VDW.0>
0.968882

>  <SCORE.INTRA.norm>
-0.0280819

>  <SCORE.RESTR>
0

>  <SCORE.RESTR.CAVITY>
0

>  <SCORE.RESTR.norm>
0

>  <SCORE.SYSTEM>
0

>  <SCORE.SYSTEM.CONST>
0

>  <SCORE.SYSTEM.DIHEDRAL>
0

>  <SCORE.SYSTEM.SOLV>
0

>  <SCORE.SYSTEM.norm>
0

>  <SCORE.heavy>
12

>  <SCORE.norm>
-2.77833

>  <SYMMETRIC_BONDS>
11 12 2
5 6 2

>  <RMSD>
3.268

$$$$
1koc cryst
 OpenBabel11021811393D
libRbt.so/2013.1/901 2013/11/27
 12 11  0  0  0  0  0  0  0  0999 V2000
    7.2129    3.4275   32.4479 N   0  3  0  0  0  0  0  0  0  0  0  0
    6.1175    3.4184   31.4315 C   0  0  2  0  0  0  0  0  0  0  0  0
    6.7294    3.6220   30.0317 C   0  0  0  0  0  0  0  0  0  0  0  0
    7.5523    4.5142   29.8904 O   0  5  0  0  0  0  0  0  0  0  0  0
    5.1068    4.5492   31.7631 C   0  0  0  0  0  0  0  0  0  0  0  0
    4.0046    4.6329   30.7005 C   0  0  0  0  0  0  0  0  0  0  0  0
    3.3606    3.2624   30.5219 C   0  0  0  0  0  0  0  0  0  0  0  0
    2.0407    3.2276   31.2167 N   0  0  0  0  0  0  0  0  0  0  0  0
    1.2225    2.2195   31.0321 C   0  0  0  0  0  0  0  0  0  0  0  0
    1.6919    1.0052   30.8865 N   0  0  0  0  0  0  0  0  0  0  0  0
   -0.0679    2.4256   30.9980 N   0  3  0  0  0  0  0  0  0  0  0  0
    6.3586    2.8928   29.1239 O   0  0  0  0  0  0  0  0  0  0  0  0
  2  1  1  1  0  0  0
  2  5  1  0  0  0  0
  2  3  1  0  0  0  0
  3  4  1  0  0  0  0
  3 12  2  0  0  0  0
  5  6  1  0  0  0  0
  6  7  1  0  0  0  0
  7  8  1  0  0  0  0
  8  9  1  0  0  0  0
  9 10  1  0  0  0  0
  9 11  2  0  0  0  0
M  CHG  3   1   1   4  -1  11   1
M  END
>  <CHROM.1>
-75.74322766,176.73161364,-46.74385070,53.28336206,102.90125574,169.88833974
4.29203952,3.25034699,30.84942987,0.09462758,0.25165989,1.03292799

>  <Name>
1koc cryst

>  <RI>
0

>  <Rbt.Current_Directory>
/home/itssahil/PROJECTS/Mol_Feturizer/New_Systems/rnas/1koc

>  <Rbt.Executable>
rbdock ($Id: //depot/dev/client3/rdock/2013.1/src/exe/rbdock.cxx#4 $)

>  <Rbt.Library>
libRbt.so (2013.1, Build901 2013/11/27)

>  <Rbt.Parameter_File>
/export/apps/rDock/src/rDock_2013.1_src/data/scripts/dock_solv.prm

>  <Rbt.Receptor>
prm/pocket_docking_7.prm

>  <SCORE>
-27.0833

>  <SCORE.INTER>
-27.5494

>  <SCORE.INTER.CONST>
1

>  <SCORE.INTER.POLAR>
-5.69941

>  <SCORE.INTER.ROT>
5

>  <SCORE.INTER.SOLV>
21.3834

>  <SCORE.INTER.VDW>
-13.4294

>  <SCORE.INTER.norm>
-2.29579

>  <SCORE.INTRA>
0.466132

>  <SCORE.INTRA.DIHEDRAL>
2.68501

>  <SCORE.INTRA.DIHEDRAL.0>
6.04201

>  <SCORE.INTRA.POLAR>
0

>  <SCORE.INTRA.POLAR.0>
0

>  <SCORE.INTRA.REPUL>
0

>  <SCORE.INTRA.REPUL.0>
0

>  <SCORE.INTRA.SOLV>
-0.276638

>  <SCORE.INTRA.SOLV.lig_0>
-71.0481

>  <SCORE.INTRA.VDW>
-0.738054

>  <SCORE.INTRA.VDW.0>
0.968882

>  <SCORE.INTRA.norm>
0.0388444

>  <SCORE.RESTR>
0

>  <SCORE.RESTR.CAVITY>
0

>  <SCORE.RESTR.norm>
0

>  <SCORE.SYSTEM>
0

>  <SCORE.SYSTEM.CONST>
0

>  <SCORE.SYSTEM.DIHEDRAL>
0

>  <SCORE.SYSTEM.SOLV>
0

>  <SCORE.SYSTEM.norm>
0

>  <SCORE.heavy>
12

>  <SCORE.norm>
-2.25694

>  <SYMMETRIC_BONDS>
11 12 2
5 6 2

>  <RMSD>
3.316

$$$$
1koc cryst
 OpenBabel11021811393D
libRbt.so/2013.1/901 2013/11/27
 12 11  0  0  0  0  0  0  0  0999 V2000
    5.8481    2.4628   33.1860 N   0  3  0  0  0  0  0  0  0  0  0  0
    5.9590    2.9354   31.7728 C   0  0  2  0  0  0  0  0  0  0  0  0
    7.4458    3.1578   31.4326 C   0  0  0  0  0  0  0  0  0  0  0  0
    8.0511    4.0223   32.0483 O   0  5  0  0  0  0  0  0  0  0  0  0
    5.1520    4.2519   31.6120 C   0  0  0  0  0  0  0  0  0  0  0  0
    3.6482    3.9688   31.5160 C   0  0  0  0  0  0  0  0  0  0  0  0
    3.3403    3.2822   30.1898 C   0  0  0  0  0  0  0  0  0  0  0  0
    2.9996    1.8491   30.4275 N   0  0  0  0  0  0  0  0  0  0  0  0
    2.0534    1.5262   31.2760 C   0  0  0  0  0  0  0  0  0  0  0  0
    0.9827    2.2726   31.3879 N   0  0  0  0  0  0  0  0  0  0  0  0
    2.1759    0.4518   32.0106 N   0  3  0  0  0  0  0  0  0  0  0  0
    7.9505    2.4705   30.5573 O   0  0  0  0  0  0  0  0  0  0  0  0
  2  1  1  1  0  0  0
  2  5  1  0  0  0  0
  2  3  1  0  0  0  0
  3  4  1  0  0  0  0
  3 12  2  0  0  0  0
  5  6  1  0  0  0  0
  6  7  1  0  0  0  0
  7  8  1  0  0  0  0
  8  9  1  0  0  0  0
  9 10  1  0  0  0  0
  9 11  2  0  0  0  0
M  CHG  3   1   1   4  -1  11   1
M  END
>  <CHROM.1>
-55.47236876,-77.56170572,-63.79128945,-69.52112378,108.23097913,53.96911694
4.63959652,2.69262288,31.48452403,-0.22221418,0.16035691,2.75705101

>  <Name>
1koc cryst

>  <RI>
0

>  <Rbt.Current_Directory>
/home/itssahil/PROJECTS/Mol_Feturizer/New_Systems/rnas/1koc

>  <Rbt.Executable>
rbdock ($Id: //depot/dev/client3/rdock/2013.1/src/exe/rbdock.cxx#4 $)

>  <Rbt.Library>
libRbt.so (2013.1, Build901 2013/11/27)

>  <Rbt.Parameter_File>
/export/apps/rDock/src/rDock_2013.1_src/data/scripts/dock_solv.prm

>  <Rbt.Receptor>
prm/pocket_docking_7.prm

>  <SCORE>
-34.3455

>  <SCORE.INTER>
-34.7857

>  <SCORE.INTER.CONST>
1

>  <SCORE.INTER.POLAR>
-6.68901

>  <SCORE.INTER.ROT>
5

>  <SCORE.INTER.SOLV>
28.2094

>  <SCORE.INTER.VDW>
-17.2302

>  <SCORE.INTER.norm>
-2.89881

>  <SCORE.INTRA>
0.440162

>  <SCORE.INTRA.DIHEDRAL>
3.8497

>  <SCORE.INTRA.DIHEDRAL.0>
6.04201

>  <SCORE.INTRA.POLAR>
0

>  <SCORE.INTRA.POLAR.0>
0

>  <SCORE.INTRA.REPUL>
0.0431493

>  <SCORE.INTRA.REPUL.0>
0

>  <SCORE.INTRA.SOLV>
0.314581

>  <SCORE.INTRA.SOLV.lig_0>
-71.0481

>  <SCORE.INTRA.VDW>
-1.85773

>  <SCORE.INTRA.VDW.0>
0.968882

>  <SCORE.INTRA.norm>
0.0366802

>  <SCORE.RESTR>
0

>  <SCORE.RESTR.CAVITY>
0

>  <SCORE.RESTR.norm>
0

>  <SCORE.SYSTEM>
0

>  <SCORE.SYSTEM.CONST>
0

>  <SCORE.SYSTEM.DIHEDRAL>
0

>  <SCORE.SYSTEM.SOLV>
0

>  <SCORE.SYSTEM.norm>
0

>  <SCORE.heavy>
12

>  <SCORE.norm>
-2.86213

>  <SYMMETRIC_BONDS>
11 12 2
5 6 2

>  <RMSD>
3.324

$$$$
1koc cryst
 OpenBabel11021811393D
libRbt.so/2013.1/901 2013/11/27
 12 11  0  0  0  0  0  0  0  0999 V2000
    7.6449    3.2066   31.8813 N   0  3  0  0  0  0  0  0  0  0  0  0
    7.3743    3.1655   30.4123 C   0  0  2  0  0  0  0  0  0  0  0  0
    7.4176    4.6011   29.8531 C   0  0  0  0  0  0  0  0  0  0  0  0
    7.3859    5.5272   30.6496 O   0  5  0  0  0  0  0  0  0  0  0  0
    5.9839    2.5190   30.1692 C   0  0  0  0  0  0  0  0  0  0  0  0
    4.8788    3.2998   30.8903 C   0  0  0  0  0  0  0  0  0  0  0  0
    3.5464    3.0702   30.1854 C   0  0  0  0  0  0  0  0  0  0  0  0
    3.0804    1.6729   30.4237 N   0  0  0  0  0  0  0  0  0  0  0  0
    2.1330    1.4318   31.2978 C   0  0  0  0  0  0  0  0  0  0  0  0
    1.1403    2.2737   31.4459 N   0  0  0  0  0  0  0  0  0  0  0  0
    2.1758    0.3441   32.0215 N   0  3  0  0  0  0  0  0  0  0  0  0
    7.4701    4.7513   28.6415 O   0  0  0  0  0  0  0  0  0  0  0  0
  2  1  1  1  0  0  0
  2  5  1  0  0  0  0
  2  3  1  0  0  0  0
  3  4  1  0  0  0  0
  3 12  2  0  0  0  0
  5  6  1  0  0  0  0
  6  7  1  0  0  0  0
  7  8  1  0  0  0  0
  8  9  1  0  0  0  0
  9 10  1  0  0  0  0
  9 11  2  0  0  0  0
M  CHG  3   1   1   4  -1  11   1
M  END
>  <CHROM.1>
61.35733523,58.26819711,-14.15445744,155.05688939,70.83532242,102.76297485
5.02226128,2.98822483,30.68741801,-0.49129419,0.19476623,2.40599307

>  <Name>
1koc cryst

>  <RI>
0

>  <Rbt.Current_Directory>
/home/itssahil/PROJECTS/Mol_Feturizer/New_Systems/rnas/1koc

>  <Rbt.Executable>
rbdock ($Id: //depot/dev/client3/rdock/2013.1/src/exe/rbdock.cxx#4 $)

>  <Rbt.Library>
libRbt.so (2013.1, Build901 2013/11/27)

>  <Rbt.Parameter_File>
/export/apps/rDock/src/rDock_2013.1_src/data/scripts/dock_solv.prm

>  <Rbt.Receptor>
prm/pocket_docking_6.prm

>  <SCORE>
-31.2637

>  <SCORE.INTER>
-30.0699

>  <SCORE.INTER.CONST>
1

>  <SCORE.INTER.POLAR>
-6.08363

>  <SCORE.INTER.ROT>
5

>  <SCORE.INTER.SOLV>
21.5777

>  <SCORE.INTER.VDW>
-13.8937

>  <SCORE.INTER.norm>
-2.50582

>  <SCORE.INTRA>
-1.19385

>  <SCORE.INTRA.DIHEDRAL>
0.0950064

>  <SCORE.INTRA.DIHEDRAL.0>
6.04201

>  <SCORE.INTRA.POLAR>
0

>  <SCORE.INTRA.POLAR.0>
0

>  <SCORE.INTRA.REPUL>
0

>  <SCORE.INTRA.REPUL.0>
0

>  <SCORE.INTRA.SOLV>
0.578934

>  <SCORE.INTRA.SOLV.lig_0>
-71.0481

>  <SCORE.INTRA.VDW>
-1.53082

>  <SCORE.INTRA.VDW.0>
0.968882

>  <SCORE.INTRA.norm>
-0.0994873

>  <SCORE.RESTR>
0

>  <SCORE.RESTR.CAVITY>
0

>  <SCORE.RESTR.norm>
0

>  <SCORE.SYSTEM>
0

>  <SCORE.SYSTEM.CONST>
0

>  <SCORE.SYSTEM.DIHEDRAL>
0

>  <SCORE.SYSTEM.SOLV>
0

>  <SCORE.SYSTEM.norm>
0

>  <SCORE.heavy>
12

>  <SCORE.norm>
-2.60531

>  <SYMMETRIC_BONDS>
11 12 2
5 6 2

>  <RMSD>
3.352

$$$$
1koc cryst
 OpenBabel11021811393D
libRbt.so/2013.1/901 2013/11/27
 12 11  0  0  0  0  0  0  0  0999 V2000
    4.4937    7.0662   27.2419 N   0  3  0  0  0  0  0  0  0  0  0  0
    5.2791    6.8170   28.4885 C   0  0  2  0  0  0  0  0  0  0  0  0
    6.7552    6.5807   28.1136 C   0  0  0  0  0  0  0  0  0  0  0  0
    7.5752    7.4177   28.4602 O   0  5  0  0  0  0  0  0  0  0  0  0
    4.6903    5.5819   29.2221 C   0  0  0  0  0  0  0  0  0  0  0  0
    3.3567    5.9249   29.8964 C   0  0  0  0  0  0  0  0  0  0  0  0
    3.1506    5.0254   31.1102 C   0  0  0  0  0  0  0  0  0  0  0  0
    2.9743    3.6108   30.6693 N   0  0  0  0  0  0  0  0  0  0  0  0
    3.8579    2.7001   31.0003 C   0  0  0  0  0  0  0  0  0  0  0  0
    4.4435    2.7417   32.1713 N   0  0  0  0  0  0  0  0  0  0  0  0
    4.1526    1.7428   30.1603 N   0  3  0  0  0  0  0  0  0  0  0  0
    7.0397    5.5762   27.4785 O   0  0  0  0  0  0  0  0  0  0  0  0
  2  1  1  6  0  0  0
  2  5  1  0  0  0  0
  2  3  1  0  0  0  0
  3  4  1  0  0  0  0
  3 12  2  0  0  0  0
  5  6  1  0  0  0  0
  6  7  1  0  0  0  0
  7  8  1  0  0  0  0
  8  9  1  0  0  0  0
  9 10  1  0  0  0  0
  9 11  2  0  0  0  0
M  CHG  3   1   1   4  -1  11   1
M  END
>  <CHROM.1>
174.38590679,-73.83756624,112.70000007,-151.99493129,-66.48523108,115.38224548
4.82494847,5.05462436,29.47039458,1.06481790,0.34140388,-0.50458519

>  <Name>
1koc cryst

>  <RI>
0

>  <Rbt.Current_Directory>
/home/itssahil/PROJECTS/Mol_Feturizer/New_Systems/rnas/1koc

>  <Rbt.Executable>
rbdock ($Id: //depot/dev/client3/rdock/2013.1/src/exe/rbdock.cxx#4 $)

>  <Rbt.Library>
libRbt.so (2013.1, Build901 2013/11/27)

>  <Rbt.Parameter_File>
/export/apps/rDock/src/rDock_2013.1_src/data/scripts/dock_solv.prm

>  <Rbt.Receptor>
prm/pocket_docking_5.prm

>  <SCORE>
-26.5252

>  <SCORE.INTER>
-24.4659

>  <SCORE.INTER.CONST>
1

>  <SCORE.INTER.POLAR>
-5.08613

>  <SCORE.INTER.ROT>
5

>  <SCORE.INTER.SOLV>
22.222

>  <SCORE.INTER.VDW>
-13.6975

>  <SCORE.INTER.norm>
-2.03883

>  <SCORE.INTRA>
-2.05931

>  <SCORE.INTRA.DIHEDRAL>
1.01448

>  <SCORE.INTRA.DIHEDRAL.0>
6.04201

>  <SCORE.INTRA.POLAR>
0

>  <SCORE.INTRA.POLAR.0>
0

>  <SCORE.INTRA.REPUL>
0

>  <SCORE.INTRA.REPUL.0>
0

>  <SCORE.INTRA.SOLV>
-0.921645

>  <SCORE.INTRA.SOLV.lig_0>
-71.0481

>  <SCORE.INTRA.VDW>
-2.10573

>  <SCORE.INTRA.VDW.0>
0.968882

>  <SCORE.INTRA.norm>
-0.171609

>  <SCORE.RESTR>
0

>  <SCORE.RESTR.CAVITY>
0

>  <SCORE.RESTR.norm>
0

>  <SCORE.SYSTEM>
0

>  <SCORE.SYSTEM.CONST>
0

>  <SCORE.SYSTEM.DIHEDRAL>
0

>  <SCORE.SYSTEM.SOLV>
0

>  <SCORE.SYSTEM.norm>
0

>  <SCORE.heavy>
12

>  <SCORE.norm>
-2.21044

>  <SYMMETRIC_BONDS>
11 12 2
5 6 2

>  <RMSD>
3.379

$$$$
1koc cryst
 OpenBabel11021811393D
libRbt.so/2013.1/901 2013/11/27
 12 11  0  0  0  0  0  0  0  0999 V2000
    6.8266    5.9976   27.9190 N   0  3  0  0  0  0  0  0  0  0  0  0
    6.6015    4.9138   28.9227 C   0  0  2  0  0  0  0  0  0  0  0  0
    7.3127    3.6321   28.4463 C   0  0  0  0  0  0  0  0  0  0  0  0
    7.7660    2.8793   29.2953 O   0  5  0  0  0  0  0  0  0  0  0  0
    5.0756    4.6740   29.0788 C   0  0  0  0  0  0  0  0  0  0  0  0
    4.7965    3.4603   29.9732 C   0  0  0  0  0  0  0  0  0  0  0  0
    3.2925    3.3033   30.1683 C   0  0  0  0  0  0  0  0  0  0  0  0
    2.9609    1.8715   30.4257 N   0  0  0  0  0  0  0  0  0  0  0  0
    2.0221    1.5542   31.2845 C   0  0  0  0  0  0  0  0  0  0  0  0
    0.9483    2.2964   31.3945 N   0  0  0  0  0  0  0  0  0  0  0  0
    2.1551    0.4895   32.0313 N   0  3  0  0  0  0  0  0  0  0  0  0
    7.4026    3.4301   27.2445 O   0  0  0  0  0  0  0  0  0  0  0  0
  2  1  1  6  0  0  0
  2  5  1  0  0  0  0
  2  3  1  0  0  0  0
  3  4  1  0  0  0  0
  3 12  2  0  0  0  0
  5  6  1  0  0  0  0
  6  7  1  0  0  0  0
  7  8  1  0  0  0  0
  8  9  1  0  0  0  0
  9 10  1  0  0  0  0
  9 11  2  0  0  0  0
M  CHG  3   1   1   4  -1  11   1
M  END
>  <CHROM.1>
-178.59494408,173.30816051,147.58125257,176.79469981,152.61220358,142.40483211
4.77006948,3.20927136,29.66776368,0.58764475,0.36768648,-0.34898409

>  <Name>
1koc cryst

>  <RI>
0

>  <Rbt.Current_Directory>
/home/itssahil/PROJECTS/Mol_Feturizer/New_Systems/rnas/1koc

>  <Rbt.Executable>
rbdock ($Id: //depot/dev/client3/rdock/2013.1/src/exe/rbdock.cxx#4 $)

>  <Rbt.Library>
libRbt.so (2013.1, Build901 2013/11/27)

>  <Rbt.Parameter_File>
/export/apps/rDock/src/rDock_2013.1_src/data/scripts/dock_solv.prm

>  <Rbt.Receptor>
prm/pocket_docking_8.prm

>  <SCORE>
-31.5048

>  <SCORE.INTER>
-29.3625

>  <SCORE.INTER.CONST>
1

>  <SCORE.INTER.POLAR>
-5.61338

>  <SCORE.INTER.ROT>
5

>  <SCORE.INTER.SOLV>
20.6298

>  <SCORE.INTER.VDW>
-14.6737

>  <SCORE.INTER.norm>
-2.44688

>  <SCORE.INTRA>
-2.14229

>  <SCORE.INTRA.DIHEDRAL>
0.0038281

>  <SCORE.INTRA.DIHEDRAL.0>
6.04201

>  <SCORE.INTRA.POLAR>
0

>  <SCORE.INTRA.POLAR.0>
0

>  <SCORE.INTRA.REPUL>
0

>  <SCORE.INTRA.REPUL.0>
0

>  <SCORE.INTRA.SOLV>
-1.13573

>  <SCORE.INTRA.SOLV.lig_0>
-71.0481

>  <SCORE.INTRA.VDW>
-1.57634

>  <SCORE.INTRA.VDW.0>
0.968882

>  <SCORE.INTRA.norm>
-0.178524

>  <SCORE.RESTR>
0

>  <SCORE.RESTR.CAVITY>
0

>  <SCORE.RESTR.norm>
0

>  <SCORE.SYSTEM>
0

>  <SCORE.SYSTEM.CONST>
0

>  <SCORE.SYSTEM.DIHEDRAL>
0

>  <SCORE.SYSTEM.SOLV>
0

>  <SCORE.SYSTEM.norm>
0

>  <SCORE.heavy>
12

>  <SCORE.norm>
-2.6254

>  <SYMMETRIC_BONDS>
11 12 2
5 6 2

>  <RMSD>
3.382

$$$$
1koc cryst
 OpenBabel11021811393D
libRbt.so/2013.1/901 2013/11/27
 12 11  0  0  0  0  0  0  0  0999 V2000
    8.1119    2.3590   30.7363 N   0  3  0  0  0  0  0  0  0  0  0  0
    7.4973    3.6931   30.4620 C   0  0  2  0  0  0  0  0  0  0  0  0
    8.2633    4.7715   31.2531 C   0  0  0  0  0  0  0  0  0  0  0  0
    8.2662    4.6933   32.4725 O   0  5  0  0  0  0  0  0  0  0  0  0
    6.0020    3.6595   30.8782 C   0  0  0  0  0  0  0  0  0  0  0  0
    5.2051    2.6925   29.9945 C   0  0  0  0  0  0  0  0  0  0  0  0
    3.7167    2.8344   30.2935 C   0  0  0  0  0  0  0  0  0  0  0  0
    3.1100    1.4870   30.5004 N   0  0  0  0  0  0  0  0  0  0  0  0
    2.1312    1.3272   31.3583 C   0  0  0  0  0  0  0  0  0  0  0  0
    1.2258    2.2617   31.5100 N   0  0  0  0  0  0  0  0  0  0  0  0
    2.0549    0.2284   32.0623 N   0  3  0  0  0  0  0  0  0  0  0  0
    8.8231    5.6612   30.6301 O   0  0  0  0  0  0  0  0  0  0  0  0
  2  1  1  1  0  0  0
  2  5  1  0  0  0  0
  2  3  1  0  0  0  0
  3  4  1  0  0  0  0
  3 12  2  0  0  0  0
  5  6  1  0  0  0  0
  6  7  1  0  0  0  0
  7  8  1  0  0  0  0
  8  9  1  0  0  0  0
  9 10  1  0  0  0  0
  9 11  2  0  0  0  0
M  CHG  3   1   1   4  -1  11   1
M  END
>  <CHROM.1>
64.27578576,-65.80021905,-61.84258517,-171.82550591,-131.48136008,146.10327125
5.37986942,2.94754115,31.03308313,-0.45910256,-0.07956817,-3.04957133

>  <Name>
1koc cryst

>  <RI>
0

>  <Rbt.Current_Directory>
/home/itssahil/PROJECTS/Mol_Feturizer/New_Systems/rnas/1koc

>  <Rbt.Executable>
rbdock ($Id: //depot/dev/client3/rdock/2013.1/src/exe/rbdock.cxx#4 $)

>  <Rbt.Library>
libRbt.so (2013.1, Build901 2013/11/27)

>  <Rbt.Parameter_File>
/export/apps/rDock/src/rDock_2013.1_src/data/scripts/dock_solv.prm

>  <Rbt.Receptor>
prm/pocket_docking_8.prm

>  <SCORE>
-30.4666

>  <SCORE.INTER>
-29.4356

>  <SCORE.INTER.CONST>
1

>  <SCORE.INTER.POLAR>
-6.18601

>  <SCORE.INTER.ROT>
5

>  <SCORE.INTER.SOLV>
21.7923

>  <SCORE.INTER.VDW>
-13.2012

>  <SCORE.INTER.norm>
-2.45297

>  <SCORE.INTRA>
-1.03099

>  <SCORE.INTRA.DIHEDRAL>
2.88342

>  <SCORE.INTRA.DIHEDRAL.0>
6.04201

>  <SCORE.INTRA.POLAR>
0

>  <SCORE.INTRA.POLAR.0>
0

>  <SCORE.INTRA.REPUL>
0

>  <SCORE.INTRA.REPUL.0>
0

>  <SCORE.INTRA.SOLV>
-1.28303

>  <SCORE.INTRA.SOLV.lig_0>
-71.0481

>  <SCORE.INTRA.VDW>
-1.83118

>  <SCORE.INTRA.VDW.0>
0.968882

>  <SCORE.INTRA.norm>
-0.0859154

>  <SCORE.RESTR>
0

>  <SCORE.RESTR.CAVITY>
0

>  <SCORE.RESTR.norm>
0

>  <SCORE.SYSTEM>
0

>  <SCORE.SYSTEM.CONST>
0

>  <SCORE.SYSTEM.DIHEDRAL>
0

>  <SCORE.SYSTEM.SOLV>
0

>  <SCORE.SYSTEM.norm>
0

>  <SCORE.heavy>
12

>  <SCORE.norm>
-2.53889

>  <SYMMETRIC_BONDS>
11 12 2
5 6 2

>  <RMSD>
3.407

$$$$
1koc cryst
 OpenBabel11021811393D
libRbt.so/2013.1/901 2013/11/27
 12 11  0  0  0  0  0  0  0  0999 V2000
    7.5579    1.7632   30.8898 N   0  3  0  0  0  0  0  0  0  0  0  0
    6.8687    3.0880   30.8386 C   0  0  2  0  0  0  0  0  0  0  0  0
    7.8521    4.1839   31.2939 C   0  0  0  0  0  0  0  0  0  0  0  0
    8.8436    3.8397   31.9196 O   0  5  0  0  0  0  0  0  0  0  0  0
    5.6201    3.0476   31.7603 C   0  0  0  0  0  0  0  0  0  0  0  0
    4.6117    4.1351   31.3711 C   0  0  0  0  0  0  0  0  0  0  0  0
    4.0153    3.8147   30.0049 C   0  0  0  0  0  0  0  0  0  0  0  0
    3.1745    2.5853   30.0940 N   0  0  0  0  0  0  0  0  0  0  0  0
    2.1165    2.5624   30.8684 C   0  0  0  0  0  0  0  0  0  0  0  0
    1.3731    3.6324   31.0040 N   0  0  0  0  0  0  0  0  0  0  0  0
    1.7985    1.4655   31.5046 N   0  3  0  0  0  0  0  0  0  0  0  0
    7.5934    5.3466   31.0207 O   0  0  0  0  0  0  0  0  0  0  0  0
  2  1  1  1  0  0  0
  2  5  1  0  0  0  0
  2  3  1  0  0  0  0
  3  4  1  0  0  0  0
  3 12  2  0  0  0  0
  5  6  1  0  0  0  0
  6  7  1  0  0  0  0
  7  8  1  0  0  0  0
  8  9  1  0  0  0  0
  9 10  1  0  0  0  0
  9 11  2  0  0  0  0
M  CHG  3   1   1   4  -1  11   1
M  END
>  <CHROM.1>
44.30421264,-159.00239328,-17.96274679,67.75951770,67.20942560,61.99182182
5.13130391,3.26045637,31.05467602,-0.18037715,0.07775893,3.09108125

>  <Name>
1koc cryst

>  <RI>
0

>  <Rbt.Current_Directory>
/home/itssahil/PROJECTS/Mol_Feturizer/New_Systems/rnas/1koc

>  <Rbt.Executable>
rbdock ($Id: //depot/dev/client3/rdock/2013.1/src/exe/rbdock.cxx#4 $)

>  <Rbt.Library>
libRbt.so (2013.1, Build901 2013/11/27)

>  <Rbt.Parameter_File>
/export/apps/rDock/src/rDock_2013.1_src/data/scripts/dock_solv.prm

>  <Rbt.Receptor>
prm/pocket_docking_7.prm

>  <SCORE>
-29.4163

>  <SCORE.INTER>
-27.78

>  <SCORE.INTER.CONST>
1

>  <SCORE.INTER.POLAR>
-5.74587

>  <SCORE.INTER.ROT>
5

>  <SCORE.INTER.SOLV>
20.8031

>  <SCORE.INTER.VDW>
-13.2348

>  <SCORE.INTER.norm>
-2.315

>  <SCORE.INTRA>
-1.63627

>  <SCORE.INTRA.DIHEDRAL>
-0.189783

>  <SCORE.INTRA.DIHEDRAL.0>
6.04201

>  <SCORE.INTRA.POLAR>
0

>  <SCORE.INTRA.POLAR.0>
0

>  <SCORE.INTRA.REPUL>
0

>  <SCORE.INTRA.REPUL.0>
0

>  <SCORE.INTRA.SOLV>
-0.00261141

>  <SCORE.INTRA.SOLV.lig_0>
-71.0481

>  <SCORE.INTRA.VDW>
-1.54007

>  <SCORE.INTRA.VDW.0>
0.968882

>  <SCORE.INTRA.norm>
-0.136356

>  <SCORE.RESTR>
0

>  <SCORE.RESTR.CAVITY>
0

>  <SCORE.RESTR.norm>
0

>  <SCORE.SYSTEM>
0

>  <SCORE.SYSTEM.CONST>
0

>  <SCORE.SYSTEM.DIHEDRAL>
0

>  <SCORE.SYSTEM.SOLV>
0

>  <SCORE.SYSTEM.norm>
0

>  <SCORE.heavy>
12

>  <SCORE.norm>
-2.45136

>  <SYMMETRIC_BONDS>
11 12 2
5 6 2

>  <RMSD>
3.509

$$$$
1koc cryst
 OpenBabel11021811393D
libRbt.so/2013.1/901 2013/11/27
 12 11  0  0  0  0  0  0  0  0999 V2000
    7.2827    1.8941   30.7081 N   0  3  0  0  0  0  0  0  0  0  0  0
    6.6605    3.2340   30.4836 C   0  0  2  0  0  0  0  0  0  0  0  0
    7.7752    4.2911   30.3594 C   0  0  0  0  0  0  0  0  0  0  0  0
    7.5342    5.3052   29.7218 O   0  5  0  0  0  0  0  0  0  0  0  0
    5.7170    3.5621   31.6720 C   0  0  0  0  0  0  0  0  0  0  0  0
    4.4696    2.6708   31.6484 C   0  0  0  0  0  0  0  0  0  0  0  0
    3.4521    3.2403   30.6660 C   0  0  0  0  0  0  0  0  0  0  0  0
    2.0931    3.2332   31.2818 N   0  0  0  0  0  0  0  0  0  0  0  0
    1.2811    2.2233   31.0805 C   0  0  0  0  0  0  0  0  0  0  0  0
    1.7507    1.0030   31.0011 N   0  0  0  0  0  0  0  0  0  0  0  0
   -0.0037    2.4338   30.9634 N   0  3  0  0  0  0  0  0  0  0  0  0
    8.8516    4.0657   30.8922 O   0  0  0  0  0  0  0  0  0  0  0  0
  2  1  1  1  0  0  0
  2  5  1  0  0  0  0
  2  3  1  0  0  0  0
  3  4  1  0  0  0  0
  3 12  2  0  0  0  0
  5  6  1  0  0  0  0
  6  7  1  0  0  0  0
  7  8  1  0  0  0  0
  8  9  1  0  0  0  0
  9 10  1  0  0  0  0
  9 11  2  0  0  0  0
M  CHG  3   1   1   4  -1  11   1
M  END
>  <CHROM.1>
-55.00291176,-70.23816513,154.20906094,-81.52857157,-134.71512586,-93.74088364
4.74803552,3.07108628,30.87140163,-0.26490279,-0.03097956,2.94708954

>  <Name>
1koc cryst

>  <RI>
0

>  <Rbt.Current_Directory>
/home/itssahil/PROJECTS/Mol_Feturizer/New_Systems/rnas/1koc

>  <Rbt.Executable>
rbdock ($Id: //depot/dev/client3/rdock/2013.1/src/exe/rbdock.cxx#4 $)

>  <Rbt.Library>
libRbt.so (2013.1, Build901 2013/11/27)

>  <Rbt.Parameter_File>
/export/apps/rDock/src/rDock_2013.1_src/data/scripts/dock_solv.prm

>  <Rbt.Receptor>
prm/pocket_docking_6.prm

>  <SCORE>
-28.5577

>  <SCORE.INTER>
-28.7345

>  <SCORE.INTER.CONST>
1

>  <SCORE.INTER.POLAR>
-6.1403

>  <SCORE.INTER.ROT>
5

>  <SCORE.INTER.SOLV>
18.6791

>  <SCORE.INTER.VDW>
-11.8484

>  <SCORE.INTER.norm>
-2.39455

>  <SCORE.INTRA>
0.176885

>  <SCORE.INTRA.DIHEDRAL>
4.32517

>  <SCORE.INTRA.DIHEDRAL.0>
6.04201

>  <SCORE.INTRA.POLAR>
0

>  <SCORE.INTRA.POLAR.0>
0

>  <SCORE.INTRA.REPUL>
0

>  <SCORE.INTRA.REPUL.0>
0

>  <SCORE.INTRA.SOLV>
-0.388277

>  <SCORE.INTRA.SOLV.lig_0>
-71.0481

>  <SCORE.INTRA.VDW>
-1.79156

>  <SCORE.INTRA.VDW.0>
0.968882

>  <SCORE.INTRA.norm>
0.0147404

>  <SCORE.RESTR>
0

>  <SCORE.RESTR.CAVITY>
0

>  <SCORE.RESTR.norm>
0

>  <SCORE.SYSTEM>
0

>  <SCORE.SYSTEM.CONST>
0

>  <SCORE.SYSTEM.DIHEDRAL>
0

>  <SCORE.SYSTEM.SOLV>
0

>  <SCORE.SYSTEM.norm>
0

>  <SCORE.heavy>
12

>  <SCORE.norm>
-2.37981

>  <SYMMETRIC_BONDS>
11 12 2
5 6 2

>  <RMSD>
3.634

$$$$
1koc cryst
 OpenBabel11021811393D
libRbt.so/2013.1/901 2013/11/27
 12 11  0  0  0  0  0  0  0  0999 V2000
    7.7768    5.5331   29.3772 N   0  3  0  0  0  0  0  0  0  0  0  0
    7.2745    4.1794   29.7619 C   0  0  2  0  0  0  0  0  0  0  0  0
    7.7846    3.1450   28.7394 C   0  0  0  0  0  0  0  0  0  0  0  0
    8.3756    2.1634   29.1639 O   0  5  0  0  0  0  0  0  0  0  0  0
    5.7226    4.2037   29.7968 C   0  0  0  0  0  0  0  0  0  0  0  0
    5.1586    2.8378   30.2054 C   0  0  0  0  0  0  0  0  0  0  0  0
    3.6353    2.9001   30.2318 C   0  0  0  0  0  0  0  0  0  0  0  0
    3.0762    1.5403   30.4856 N   0  0  0  0  0  0  0  0  0  0  0  0
    2.1133    1.3739   31.3603 C   0  0  0  0  0  0  0  0  0  0  0  0
    1.1793    2.2822   31.4961 N   0  0  0  0  0  0  0  0  0  0  0  0
    2.0818    0.2945   32.0970 N   0  3  0  0  0  0  0  0  0  0  0  0
    7.5868    3.3555   27.5520 O   0  0  0  0  0  0  0  0  0  0  0  0
  2  1  1  6  0  0  0
  2  5  1  0  0  0  0
  2  3  1  0  0  0  0
  3  4  1  0  0  0  0
  3 12  2  0  0  0  0
  5  6  1  0  0  0  0
  6  7  1  0  0  0  0
  7  8  1  0  0  0  0
  8  9  1  0  0  0  0
  9 10  1  0  0  0  0
  9 11  2  0  0  0  0
M  CHG  3   1   1   4  -1  11   1
M  END
>  <CHROM.1>
-179.93269490,-179.26759969,126.93476997,179.88155034,173.99251590,134.41552977
5.15626133,2.82565678,30.01719291,0.37089028,0.41988044,0.00018232

>  <Name>
1koc cryst

>  <RI>
0

>  <Rbt.Current_Directory>
/home/itssahil/PROJECTS/Mol_Feturizer/New_Systems/rnas/1koc

>  <Rbt.Executable>
rbdock ($Id: //depot/dev/client3/rdock/2013.1/src/exe/rbdock.cxx#4 $)

>  <Rbt.Library>
libRbt.so (2013.1, Build901 2013/11/27)

>  <Rbt.Parameter_File>
/export/apps/rDock/src/rDock_2013.1_src/data/scripts/dock_solv.prm

>  <Rbt.Receptor>
prm/pocket_docking_7.prm

>  <SCORE>
-28.1397

>  <SCORE.INTER>
-24.2631

>  <SCORE.INTER.CONST>
1

>  <SCORE.INTER.POLAR>
-4.99197

>  <SCORE.INTER.ROT>
5

>  <SCORE.INTER.SOLV>
18.2016

>  <SCORE.INTER.VDW>
-12.536

>  <SCORE.INTER.norm>
-2.02193

>  <SCORE.INTRA>
-3.87657

>  <SCORE.INTRA.DIHEDRAL>
-2.45344

>  <SCORE.INTRA.DIHEDRAL.0>
6.04201

>  <SCORE.INTRA.POLAR>
0

>  <SCORE.INTRA.POLAR.0>
0

>  <SCORE.INTRA.REPUL>
0

>  <SCORE.INTRA.REPUL.0>
0

>  <SCORE.INTRA.SOLV>
-1.46722

>  <SCORE.INTRA.SOLV.lig_0>
-71.0481

>  <SCORE.INTRA.VDW>
-1.91624

>  <SCORE.INTRA.VDW.0>
0.968882

>  <SCORE.INTRA.norm>
-0.323047

>  <SCORE.RESTR>
0

>  <SCORE.RESTR.CAVITY>
0

>  <SCORE.RESTR.norm>
0

>  <SCORE.SYSTEM>
0

>  <SCORE.SYSTEM.CONST>
0

>  <SCORE.SYSTEM.DIHEDRAL>
0

>  <SCORE.SYSTEM.SOLV>
0

>  <SCORE.SYSTEM.norm>
0

>  <SCORE.heavy>
12

>  <SCORE.norm>
-2.34497

>  <SYMMETRIC_BONDS>
11 12 2
5 6 2

>  <RMSD>
3.694

$$$$
1koc cryst
 OpenBabel11021811393D
libRbt.so/2013.1/901 2013/11/27
 12 11  0  0  0  0  0  0  0  0999 V2000
    3.0150    9.7914   32.0123 N   0  3  0  0  0  0  0  0  0  0  0  0
    4.4181    9.4425   31.6347 C   0  0  2  0  0  0  0  0  0  0  0  0
    4.9672   10.5256   30.6856 C   0  0  0  0  0  0  0  0  0  0  0  0
    4.7347   10.4120   29.4914 O   0  5  0  0  0  0  0  0  0  0  0  0
    4.4289    8.0495   30.9494 C   0  0  0  0  0  0  0  0  0  0  0  0
    4.3767    6.9231   31.9884 C   0  0  0  0  0  0  0  0  0  0  0  0
    4.6821    5.5901   31.3140 C   0  0  0  0  0  0  0  0  0  0  0  0
    3.4178    4.8257   31.1055 N   0  0  0  0  0  0  0  0  0  0  0  0
    2.6160    5.1314   30.1139 C   0  0  0  0  0  0  0  0  0  0  0  0
    3.1062    5.5218   28.9635 N   0  0  0  0  0  0  0  0  0  0  0  0
    1.3214    5.0416   30.2714 N   0  3  0  0  0  0  0  0  0  0  0  0
    5.6185   11.4418   31.1647 O   0  0  0  0  0  0  0  0  0  0  0  0
  2  1  1  6  0  0  0
  2  5  1  0  0  0  0
  2  3  1  0  0  0  0
  3  4  1  0  0  0  0
  3 12  2  0  0  0  0
  5  6  1  0  0  0  0
  6  7  1  0  0  0  0
  7  8  1  0  0  0  0
  8  9  1  0  0  0  0
  9 10  1  0  0  0  0
  9 11  2  0  0  0  0
M  CHG  3   1   1   4  -1  11   1
M  END
>  <CHROM.1>
-36.53454436,-80.23822454,-85.68553498,-168.18727225,-102.80641720,78.40196604
3.85380876,7.74642856,30.79751360,-0.82200834,1.03807933,2.57304102

>  <Name>
1koc cryst

>  <RI>
0

>  <Rbt.Current_Directory>
/home/itssahil/PROJECTS/Mol_Feturizer/New_Systems/rnas/1koc

>  <Rbt.Executable>
rbdock ($Id: //depot/dev/client3/rdock/2013.1/src/exe/rbdock.cxx#4 $)

>  <Rbt.Library>
libRbt.so (2013.1, Build901 2013/11/27)

>  <Rbt.Parameter_File>
/export/apps/rDock/src/rDock_2013.1_src/data/scripts/dock_solv.prm

>  <Rbt.Receptor>
prm/pocket_docking_7.prm

>  <SCORE>
-26.8847

>  <SCORE.INTER>
-27.0211

>  <SCORE.INTER.CONST>
1

>  <SCORE.INTER.POLAR>
-5.24107

>  <SCORE.INTER.ROT>
5

>  <SCORE.INTER.SOLV>
23.4471

>  <SCORE.INTER.VDW>
-15.2929

>  <SCORE.INTER.norm>
-2.25176

>  <SCORE.INTRA>
0.136358

>  <SCORE.INTRA.DIHEDRAL>
4.95034

>  <SCORE.INTRA.DIHEDRAL.0>
6.04201

>  <SCORE.INTRA.POLAR>
0

>  <SCORE.INTRA.POLAR.0>
0

>  <SCORE.INTRA.REPUL>
0

>  <SCORE.INTRA.REPUL.0>
0

>  <SCORE.INTRA.SOLV>
-0.913122

>  <SCORE.INTRA.SOLV.lig_0>
-71.0481

>  <SCORE.INTRA.VDW>
-1.88225

>  <SCORE.INTRA.VDW.0>
0.968882

>  <SCORE.INTRA.norm>
0.0113632

>  <SCORE.RESTR>
0

>  <SCORE.RESTR.CAVITY>
0

>  <SCORE.RESTR.norm>
0

>  <SCORE.SYSTEM>
0

>  <SCORE.SYSTEM.CONST>
0

>  <SCORE.SYSTEM.DIHEDRAL>
0

>  <SCORE.SYSTEM.SOLV>
0

>  <SCORE.SYSTEM.norm>
0

>  <SCORE.heavy>
12

>  <SCORE.norm>
-2.24039

>  <SYMMETRIC_BONDS>
11 12 2
5 6 2

>  <RMSD>
3.915

$$$$
1koc cryst
 OpenBabel11021811393D
libRbt.so/2013.1/901 2013/11/27
 12 11  0  0  0  0  0  0  0  0999 V2000
    4.2145    6.4576   27.8659 N   0  3  0  0  0  0  0  0  0  0  0  0
    4.2742    5.6956   29.1499 C   0  0  2  0  0  0  0  0  0  0  0  0
    3.0286    4.7944   29.2578 C   0  0  0  0  0  0  0  0  0  0  0  0
    1.9670    5.2322   28.8403 O   0  5  0  0  0  0  0  0  0  0  0  0
    4.3358    6.6981   30.3338 C   0  0  0  0  0  0  0  0  0  0  0  0
    4.1314    5.9820   31.6741 C   0  0  0  0  0  0  0  0  0  0  0  0
    5.4432    5.3452   32.1195 C   0  0  0  0  0  0  0  0  0  0  0  0
    5.6817    4.0865   31.3547 N   0  0  0  0  0  0  0  0  0  0  0  0
    6.3933    3.1182   31.8799 C   0  0  0  0  0  0  0  0  0  0  0  0
    6.3184    2.8636   33.1627 N   0  0  0  0  0  0  0  0  0  0  0  0
    7.1775    2.4000   31.1197 N   0  3  0  0  0  0  0  0  0  0  0  0
    3.1531    3.6894   29.7645 O   0  0  0  0  0  0  0  0  0  0  0  0
  2  1  1  6  0  0  0
  2  5  1  0  0  0  0
  2  3  1  0  0  0  0
  3  4  1  0  0  0  0
  3 12  2  0  0  0  0
  5  6  1  0  0  0  0
  6  7  1  0  0  0  0
  7  8  1  0  0  0  0
  8  9  1  0  0  0  0
  9 10  1  0  0  0  0
  9 11  2  0  0  0  0
M  CHG  3   1   1   4  -1  11   1
M  END
>  <CHROM.1>
-79.70076817,169.25189569,-37.34621632,81.26153252,-77.64350117,-152.56455330
4.67607730,4.68061251,30.51027814,-2.87995697,0.89321852,-2.79866690

>  <Name>
1koc cryst

>  <RI>
0

>  <Rbt.Current_Directory>
/home/itssahil/PROJECTS/Mol_Feturizer/New_Systems/rnas/1koc

>  <Rbt.Executable>
rbdock ($Id: //depot/dev/client3/rdock/2013.1/src/exe/rbdock.cxx#4 $)

>  <Rbt.Library>
libRbt.so (2013.1, Build901 2013/11/27)

>  <Rbt.Parameter_File>
/export/apps/rDock/src/rDock_2013.1_src/data/scripts/dock_solv.prm

>  <Rbt.Receptor>
prm/pocket_docking_5.prm

>  <SCORE>
-22.009

>  <SCORE.INTER>
-22.7634

>  <SCORE.INTER.CONST>
1

>  <SCORE.INTER.POLAR>
-4.91583

>  <SCORE.INTER.ROT>
5

>  <SCORE.INTER.SOLV>
27.1857

>  <SCORE.INTER.VDW>
-14.7847

>  <SCORE.INTER.norm>
-1.89695

>  <SCORE.INTRA>
0.754428

>  <SCORE.INTRA.DIHEDRAL>
1.45742

>  <SCORE.INTRA.DIHEDRAL.0>
6.04201

>  <SCORE.INTRA.POLAR>
0

>  <SCORE.INTRA.POLAR.0>
0

>  <SCORE.INTRA.REPUL>
0

>  <SCORE.INTRA.REPUL.0>
0

>  <SCORE.INTRA.SOLV>
2.37147

>  <SCORE.INTRA.SOLV.lig_0>
-71.0481

>  <SCORE.INTRA.VDW>
-1.16002

>  <SCORE.INTRA.VDW.0>
0.968882

>  <SCORE.INTRA.norm>
0.062869

>  <SCORE.RESTR>
0

>  <SCORE.RESTR.CAVITY>
0

>  <SCORE.RESTR.norm>
0

>  <SCORE.SYSTEM>
0

>  <SCORE.SYSTEM.CONST>
0

>  <SCORE.SYSTEM.DIHEDRAL>
0

>  <SCORE.SYSTEM.SOLV>
0

>  <SCORE.SYSTEM.norm>
0

>  <SCORE.heavy>
12

>  <SCORE.norm>
-1.83408

>  <SYMMETRIC_BONDS>
11 12 2
5 6 2

>  <RMSD>
3.926

$$$$
1koc cryst
 OpenBabel11021811393D
libRbt.so/2013.1/901 2013/11/27
 12 11  0  0  0  0  0  0  0  0999 V2000
    2.1140    8.9836   32.4555 N   0  3  0  0  0  0  0  0  0  0  0  0
    2.7333    7.6718   32.8139 C   0  0  2  0  0  0  0  0  0  0  0  0
    3.6803    7.8740   34.0130 C   0  0  0  0  0  0  0  0  0  0  0  0
    3.6060    7.0829   34.9412 O   0  5  0  0  0  0  0  0  0  0  0  0
    3.5066    7.1218   31.5851 C   0  0  0  0  0  0  0  0  0  0  0  0
    3.9971    5.6912   31.8371 C   0  0  0  0  0  0  0  0  0  0  0  0
    4.8307    5.2195   30.6507 C   0  0  0  0  0  0  0  0  0  0  0  0
    4.0108    5.2637   29.4049 N   0  0  0  0  0  0  0  0  0  0  0  0
    4.5807    5.4902   28.2458 C   0  0  0  0  0  0  0  0  0  0  0  0
    5.7718    5.0088   27.9894 N   0  0  0  0  0  0  0  0  0  0  0  0
    3.9561    6.1953   27.3394 N   0  3  0  0  0  0  0  0  0  0  0  0
    4.4539    8.8197   33.9893 O   0  0  0  0  0  0  0  0  0  0  0  0
  2  1  1  6  0  0  0
  2  5  1  0  0  0  0
  2  3  1  0  0  0  0
  3  4  1  0  0  0  0
  3 12  2  0  0  0  0
  5  6  1  0  0  0  0
  6  7  1  0  0  0  0
  7  8  1  0  0  0  0
  8  9  1  0  0  0  0
  9 10  1  0  0  0  0
  9 11  2  0  0  0  0
M  CHG  3   1   1   4  -1  11   1
M  END
>  <CHROM.1>
18.89465543,-172.15700973,133.28773632,-176.18390974,-59.10458375,149.60111259
3.92614376,6.73610784,31.25970721,1.91105534,-0.89830183,1.39871491

>  <Name>
1koc cryst

>  <RI>
0

>  <Rbt.Current_Directory>
/home/itssahil/PROJECTS/Mol_Feturizer/New_Systems/rnas/1koc

>  <Rbt.Executable>
rbdock ($Id: //depot/dev/client3/rdock/2013.1/src/exe/rbdock.cxx#4 $)

>  <Rbt.Library>
libRbt.so (2013.1, Build901 2013/11/27)

>  <Rbt.Parameter_File>
/export/apps/rDock/src/rDock_2013.1_src/data/scripts/dock_solv.prm

>  <Rbt.Receptor>
prm/pocket_docking_7.prm

>  <SCORE>
-29.8513

>  <SCORE.INTER>
-28.3595

>  <SCORE.INTER.CONST>
1

>  <SCORE.INTER.POLAR>
-5.22993

>  <SCORE.INTER.ROT>
5

>  <SCORE.INTER.SOLV>
29.9893

>  <SCORE.INTER.VDW>
-18.4031

>  <SCORE.INTER.norm>
-2.36329

>  <SCORE.INTRA>
-1.49174

>  <SCORE.INTRA.DIHEDRAL>
0.475519

>  <SCORE.INTRA.DIHEDRAL.0>
6.04201

>  <SCORE.INTRA.POLAR>
0

>  <SCORE.INTRA.POLAR.0>
0

>  <SCORE.INTRA.REPUL>
0

>  <SCORE.INTRA.REPUL.0>
0

>  <SCORE.INTRA.SOLV>
-1.04811

>  <SCORE.INTRA.SOLV.lig_0>
-71.0481

>  <SCORE.INTRA.VDW>
-1.20545

>  <SCORE.INTRA.VDW.0>
0.968882

>  <SCORE.INTRA.norm>
-0.124312

>  <SCORE.RESTR>
0

>  <SCORE.RESTR.CAVITY>
0

>  <SCORE.RESTR.norm>
0

>  <SCORE.SYSTEM>
0

>  <SCORE.SYSTEM.CONST>
0

>  <SCORE.SYSTEM.DIHEDRAL>
0

>  <SCORE.SYSTEM.SOLV>
0

>  <SCORE.SYSTEM.norm>
0

>  <SCORE.heavy>
12

>  <SCORE.norm>
-2.48761

>  <SYMMETRIC_BONDS>
11 12 2
5 6 2

>  <RMSD>
3.983

$$$$
1koc cryst
 OpenBabel11021811393D
libRbt.so/2013.1/901 2013/11/27
 12 11  0  0  0  0  0  0  0  0999 V2000
    2.0525    8.9537   32.5669 N   0  3  0  0  0  0  0  0  0  0  0  0
    2.3168    7.6330   33.2141 C   0  0  2  0  0  0  0  0  0  0  0  0
    3.6473    7.7103   33.9883 C   0  0  0  0  0  0  0  0  0  0  0  0
    4.3846    8.6592   33.7668 O   0  5  0  0  0  0  0  0  0  0  0  0
    2.3766    6.5333   32.1199 C   0  0  0  0  0  0  0  0  0  0  0  0
    3.4648    6.8433   31.0852 C   0  0  0  0  0  0  0  0  0  0  0  0
    3.7621    5.5929   30.2649 C   0  0  0  0  0  0  0  0  0  0  0  0
    5.1144    5.7031   29.6439 N   0  0  0  0  0  0  0  0  0  0  0  0
    5.2495    5.6535   28.3404 C   0  0  0  0  0  0  0  0  0  0  0  0
    4.3459    6.1937   27.5610 N   0  0  0  0  0  0  0  0  0  0  0  0
    6.2932    5.0668   27.8156 N   0  3  0  0  0  0  0  0  0  0  0  0
    3.9122    6.8169   34.7789 O   0  0  0  0  0  0  0  0  0  0  0  0
  2  1  1  6  0  0  0
  2  5  1  0  0  0  0
  2  3  1  0  0  0  0
  3  4  1  0  0  0  0
  3 12  2  0  0  0  0
  5  6  1  0  0  0  0
  6  7  1  0  0  0  0
  7  8  1  0  0  0  0
  8  9  1  0  0  0  0
  9 10  1  0  0  0  0
  9 11  2  0  0  0  0
M  CHG  3   1   1   4  -1  11   1
M  END
>  <CHROM.1>
-140.27875662,58.29667503,-13.81919327,164.47482607,-158.61175262,-120.68367978
3.92335117,6.80946900,31.24778334,1.95640290,-0.51635607,1.36588979

>  <Name>
1koc cryst

>  <RI>
0

>  <Rbt.Current_Directory>
/home/itssahil/PROJECTS/Mol_Feturizer/New_Systems/rnas/1koc

>  <Rbt.Executable>
rbdock ($Id: //depot/dev/client3/rdock/2013.1/src/exe/rbdock.cxx#4 $)

>  <Rbt.Library>
libRbt.so (2013.1, Build901 2013/11/27)

>  <Rbt.Parameter_File>
/export/apps/rDock/src/rDock_2013.1_src/data/scripts/dock_solv.prm

>  <Rbt.Receptor>
prm/pocket_docking_7.prm

>  <SCORE>
-26.4118

>  <SCORE.INTER>
-27.45

>  <SCORE.INTER.CONST>
1

>  <SCORE.INTER.POLAR>
-4.66836

>  <SCORE.INTER.ROT>
5

>  <SCORE.INTER.SOLV>
26.4977

>  <SCORE.INTER.VDW>
-18.5048

>  <SCORE.INTER.norm>
-2.2875

>  <SCORE.INTRA>
1.03823

>  <SCORE.INTRA.DIHEDRAL>
2.59291

>  <SCORE.INTRA.DIHEDRAL.0>
6.04201

>  <SCORE.INTRA.POLAR>
0

>  <SCORE.INTRA.POLAR.0>
0

>  <SCORE.INTRA.REPUL>
0

>  <SCORE.INTRA.REPUL.0>
0

>  <SCORE.INTRA.SOLV>
0.342731

>  <SCORE.INTRA.SOLV.lig_0>
-71.0481

>  <SCORE.INTRA.VDW>
-0.429597

>  <SCORE.INTRA.VDW.0>
0.968882

>  <SCORE.INTRA.norm>
0.0865188

>  <SCORE.RESTR>
0

>  <SCORE.RESTR.CAVITY>
0

>  <SCORE.RESTR.norm>
0

>  <SCORE.SYSTEM>
0

>  <SCORE.SYSTEM.CONST>
0

>  <SCORE.SYSTEM.DIHEDRAL>
0

>  <SCORE.SYSTEM.SOLV>
0

>  <SCORE.SYSTEM.norm>
0

>  <SCORE.heavy>
12

>  <SCORE.norm>
-2.20099

>  <SYMMETRIC_BONDS>
11 12 2
5 6 2

>  <RMSD>
4.154

$$$$
1koc cryst
 OpenBabel11021811393D
libRbt.so/2013.1/901 2013/11/27
 12 11  0  0  0  0  0  0  0  0999 V2000
    6.3361    1.3058   29.0945 N   0  3  0  0  0  0  0  0  0  0  0  0
    6.8261    2.6839   29.4005 C   0  0  2  0  0  0  0  0  0  0  0  0
    8.3419    2.7498   29.1299 C   0  0  0  0  0  0  0  0  0  0  0  0
    9.0044    1.7435   29.3337 O   0  5  0  0  0  0  0  0  0  0  0  0
    6.5142    3.0167   30.8845 C   0  0  0  0  0  0  0  0  0  0  0  0
    5.0828    3.5429   31.0427 C   0  0  0  0  0  0  0  0  0  0  0  0
    4.0908    2.4162   30.7757 C   0  0  0  0  0  0  0  0  0  0  0  0
    2.7256    2.8273   31.2155 N   0  0  0  0  0  0  0  0  0  0  0  0
    1.7444    1.9572   31.2267 C   0  0  0  0  0  0  0  0  0  0  0  0
    1.9711    0.7093   31.5542 N   0  0  0  0  0  0  0  0  0  0  0  0
    0.5332    2.3372   30.9145 N   0  3  0  0  0  0  0  0  0  0  0  0
    8.8163    3.8046   28.7354 O   0  0  0  0  0  0  0  0  0  0  0  0
  2  1  1  1  0  0  0
  2  5  1  0  0  0  0
  2  3  1  0  0  0  0
  3  4  1  0  0  0  0
  3 12  2  0  0  0  0
  5  6  1  0  0  0  0
  6  7  1  0  0  0  0
  7  8  1  0  0  0  0
  8  9  1  0  0  0  0
  9 10  1  0  0  0  0
  9 11  2  0  0  0  0
M  CHG  3   1   1   4  -1  11   1
M  END
>  <CHROM.1>
-32.83789561,-84.38060221,-33.00376095,68.93760265,167.55886893,-171.93366743
5.15309693,2.39122020,30.26237065,-0.04270966,-0.30872358,-2.94651625

>  <Name>
1koc cryst

>  <RI>
0

>  <Rbt.Current_Directory>
/home/itssahil/PROJECTS/Mol_Feturizer/New_Systems/rnas/1koc

>  <Rbt.Executable>
rbdock ($Id: //depot/dev/client3/rdock/2013.1/src/exe/rbdock.cxx#4 $)

>  <Rbt.Library>
libRbt.so (2013.1, Build901 2013/11/27)

>  <Rbt.Parameter_File>
/export/apps/rDock/src/rDock_2013.1_src/data/scripts/dock_solv.prm

>  <Rbt.Receptor>
prm/pocket_docking_8.prm

>  <SCORE>
-25.2579

>  <SCORE.INTER>
-25.0762

>  <SCORE.INTER.CONST>
1

>  <SCORE.INTER.POLAR>
-5.17756

>  <SCORE.INTER.ROT>
5

>  <SCORE.INTER.SOLV>
21.089

>  <SCORE.INTER.VDW>
-13.422

>  <SCORE.INTER.norm>
-2.08969

>  <SCORE.INTRA>
-0.207626

>  <SCORE.INTRA.DIHEDRAL>
1.63625

>  <SCORE.INTRA.DIHEDRAL.0>
6.04201

>  <SCORE.INTRA.POLAR>
0

>  <SCORE.INTRA.POLAR.0>
0

>  <SCORE.INTRA.REPUL>
0

>  <SCORE.INTRA.REPUL.0>
0

>  <SCORE.INTRA.SOLV>
-0.0247218

>  <SCORE.INTRA.SOLV.lig_0>
-71.0481

>  <SCORE.INTRA.VDW>
-1.01339

>  <SCORE.INTRA.VDW.0>
0.968882

>  <SCORE.INTRA.norm>
-0.0173022

>  <SCORE.RESTR>
0.0260066

>  <SCORE.RESTR.CAVITY>
0.0260066

>  <SCORE.RESTR.norm>
0.00216722

>  <SCORE.SYSTEM>
0

>  <SCORE.SYSTEM.CONST>
0

>  <SCORE.SYSTEM.DIHEDRAL>
0

>  <SCORE.SYSTEM.SOLV>
0

>  <SCORE.SYSTEM.norm>
0

>  <SCORE.heavy>
12

>  <SCORE.norm>
-2.10482

>  <SYMMETRIC_BONDS>
11 12 2
5 6 2

>  <RMSD>
4.401

$$$$
1koc cryst
 OpenBabel11021811393D
libRbt.so/2013.1/901 2013/11/27
 12 11  0  0  0  0  0  0  0  0999 V2000
    2.7492    8.5262   32.1476 N   0  3  0  0  0  0  0  0  0  0  0  0
    2.8090    7.0738   31.8015 C   0  0  2  0  0  0  0  0  0  0  0  0
    3.3631    6.2920   33.0086 C   0  0  0  0  0  0  0  0  0  0  0  0
    3.8767    5.2033   32.7990 O   0  5  0  0  0  0  0  0  0  0  0  0
    3.7166    6.8847   30.5562 C   0  0  0  0  0  0  0  0  0  0  0  0
    3.3446    5.6091   29.7911 C   0  0  0  0  0  0  0  0  0  0  0  0
    4.3531    5.3707   28.6726 C   0  0  0  0  0  0  0  0  0  0  0  0
    4.0777    6.2963   27.5352 N   0  0  0  0  0  0  0  0  0  0  0  0
    4.8269    7.3564   27.3490 C   0  0  0  0  0  0  0  0  0  0  0  0
    6.1126    7.3090   27.5956 N   0  0  0  0  0  0  0  0  0  0  0  0
    4.2900    8.4647   26.9105 N   0  3  0  0  0  0  0  0  0  0  0  0
    3.2554    6.7872   34.1206 O   0  0  0  0  0  0  0  0  0  0  0  0
  2  1  1  1  0  0  0
  2  5  1  0  0  0  0
  2  3  1  0  0  0  0
  3  4  1  0  0  0  0
  3 12  2  0  0  0  0
  5  6  1  0  0  0  0
  6  7  1  0  0  0  0
  7  8  1  0  0  0  0
  8  9  1  0  0  0  0
  9 10  1  0  0  0  0
  9 11  2  0  0  0  0
M  CHG  3   1   1   4  -1  11   1
M  END
>  <CHROM.1>
61.16972793,-154.64949853,-157.19122953,-173.54690380,-76.61246985,103.10588972
3.90199068,6.80638893,30.20386450,2.47300863,-1.22622914,2.53947398

>  <Name>
1koc cryst

>  <RI>
0

>  <Rbt.Current_Directory>
/home/itssahil/PROJECTS/Mol_Feturizer/New_Systems/rnas/1koc

>  <Rbt.Executable>
rbdock ($Id: //depot/dev/client3/rdock/2013.1/src/exe/rbdock.cxx#4 $)

>  <Rbt.Library>
libRbt.so (2013.1, Build901 2013/11/27)

>  <Rbt.Parameter_File>
/export/apps/rDock/src/rDock_2013.1_src/data/scripts/dock_solv.prm

>  <Rbt.Receptor>
prm/pocket_docking_6.prm

>  <SCORE>
-30.4374

>  <SCORE.INTER>
-28.5284

>  <SCORE.INTER.CONST>
1

>  <SCORE.INTER.POLAR>
-4.97557

>  <SCORE.INTER.ROT>
5

>  <SCORE.INTER.SOLV>
24.1236

>  <SCORE.INTER.VDW>
-17.4083

>  <SCORE.INTER.norm>
-2.37737

>  <SCORE.INTRA>
-1.90898

>  <SCORE.INTRA.DIHEDRAL>
0.490805

>  <SCORE.INTRA.DIHEDRAL.0>
6.04201

>  <SCORE.INTRA.POLAR>
0

>  <SCORE.INTRA.POLAR.0>
0

>  <SCORE.INTRA.REPUL>
0

>  <SCORE.INTRA.REPUL.0>
0

>  <SCORE.INTRA.SOLV>
-0.569168

>  <SCORE.INTRA.SOLV.lig_0>
-71.0481

>  <SCORE.INTRA.VDW>
-1.8698

>  <SCORE.INTRA.VDW.0>
0.968882

>  <SCORE.INTRA.norm>
-0.159082

>  <SCORE.RESTR>
0

>  <SCORE.RESTR.CAVITY>
0

>  <SCORE.RESTR.norm>
0

>  <SCORE.SYSTEM>
0

>  <SCORE.SYSTEM.CONST>
0

>  <SCORE.SYSTEM.DIHEDRAL>
0

>  <SCORE.SYSTEM.SOLV>
0

>  <SCORE.SYSTEM.norm>
0

>  <SCORE.heavy>
12

>  <SCORE.norm>
-2.53645

>  <SYMMETRIC_BONDS>
11 12 2
5 6 2

>  <RMSD>
4.689

$$$$
1koc cryst
 OpenBabel11021811393D
libRbt.so/2013.1/901 2013/11/27
 12 11  0  0  0  0  0  0  0  0999 V2000
    2.1766    8.2902   32.3277 N   0  3  0  0  0  0  0  0  0  0  0  0
    2.8544    6.9594   32.2784 C   0  0  2  0  0  0  0  0  0  0  0  0
    3.7378    6.7988   33.5311 C   0  0  0  0  0  0  0  0  0  0  0  0
    4.8306    6.2687   33.3972 O   0  5  0  0  0  0  0  0  0  0  0  0
    3.7080    6.8711   30.9846 C   0  0  0  0  0  0  0  0  0  0  0  0
    3.1078    5.8651   29.9954 C   0  0  0  0  0  0  0  0  0  0  0  0
    4.1472    5.5024   28.9404 C   0  0  0  0  0  0  0  0  0  0  0  0
    3.9323    6.3234   27.7131 N   0  0  0  0  0  0  0  0  0  0  0  0
    4.7398    7.3180   27.4331 C   0  0  0  0  0  0  0  0  0  0  0  0
    6.0189    7.2266   27.7008 N   0  0  0  0  0  0  0  0  0  0  0  0
    4.2680    8.4041   26.8795 N   0  3  0  0  0  0  0  0  0  0  0  0
    3.3047    7.1965   34.6023 O   0  0  0  0  0  0  0  0  0  0  0  0
  2  1  1  1  0  0  0
  2  5  1  0  0  0  0
  2  3  1  0  0  0  0
  3  4  1  0  0  0  0
  3 12  2  0  0  0  0
  5  6  1  0  0  0  0
  6  7  1  0  0  0  0
  7  8  1  0  0  0  0
  8  9  1  0  0  0  0
  9 10  1  0  0  0  0
  9 11  2  0  0  0  0
M  CHG  3   1   1   4  -1  11   1
M  END
>  <CHROM.1>
-83.72563677,-110.60341425,-140.33495302,-163.83932664,-97.25338699,105.39823532
3.89968294,6.96003727,30.48961660,1.85119523,-0.73365065,1.77941235

>  <Name>
1koc cryst

>  <RI>
0

>  <Rbt.Current_Directory>
/home/itssahil/PROJECTS/Mol_Feturizer/New_Systems/rnas/1koc

>  <Rbt.Executable>
rbdock ($Id: //depot/dev/client3/rdock/2013.1/src/exe/rbdock.cxx#4 $)

>  <Rbt.Library>
libRbt.so (2013.1, Build901 2013/11/27)

>  <Rbt.Parameter_File>
/export/apps/rDock/src/rDock_2013.1_src/data/scripts/dock_solv.prm

>  <Rbt.Receptor>
prm/pocket_docking_8.prm

>  <SCORE>
-33.2827

>  <SCORE.INTER>
-35.3451

>  <SCORE.INTER.CONST>
1

>  <SCORE.INTER.POLAR>
-6.31394

>  <SCORE.INTER.ROT>
5

>  <SCORE.INTER.SOLV>
25.2203

>  <SCORE.INTER.VDW>
-17.8571

>  <SCORE.INTER.norm>
-2.94543

>  <SCORE.INTRA>
2.06246

>  <SCORE.INTRA.DIHEDRAL>
8.24549

>  <SCORE.INTRA.DIHEDRAL.0>
6.04201

>  <SCORE.INTRA.POLAR>
0

>  <SCORE.INTRA.POLAR.0>
0

>  <SCORE.INTRA.REPUL>
0

>  <SCORE.INTRA.REPUL.0>
0

>  <SCORE.INTRA.SOLV>
-1.23468

>  <SCORE.INTRA.SOLV.lig_0>
-71.0481

>  <SCORE.INTRA.VDW>
-1.44294

>  <SCORE.INTRA.VDW.0>
0.968882

>  <SCORE.INTRA.norm>
0.171872

>  <SCORE.RESTR>
0

>  <SCORE.RESTR.CAVITY>
0

>  <SCORE.RESTR.norm>
0

>  <SCORE.SYSTEM>
0

>  <SCORE.SYSTEM.CONST>
0

>  <SCORE.SYSTEM.DIHEDRAL>
0

>  <SCORE.SYSTEM.SOLV>
0

>  <SCORE.SYSTEM.norm>
0

>  <SCORE.heavy>
12

>  <SCORE.norm>
-2.77356

>  <SYMMETRIC_BONDS>
11 12 2
5 6 2

>  <RMSD>
4.716

$$$$
1koc cryst
 OpenBabel11021811393D
libRbt.so/2013.1/901 2013/11/27
 12 11  0  0  0  0  0  0  0  0999 V2000
    6.1707    2.6110   32.9824 N   0  3  0  0  0  0  0  0  0  0  0  0
    6.2990    3.6184   31.8863 C   0  0  2  0  0  0  0  0  0  0  0  0
    5.6526    4.9414   32.3416 C   0  0  0  0  0  0  0  0  0  0  0  0
    6.3921    5.8656   32.6449 O   0  5  0  0  0  0  0  0  0  0  0  0
    5.6029    3.0731   30.6103 C   0  0  0  0  0  0  0  0  0  0  0  0
    6.2377    3.6577   29.3430 C   0  0  0  0  0  0  0  0  0  0  0  0
    6.0767    5.1740   29.3427 C   0  0  0  0  0  0  0  0  0  0  0  0
    5.5928    5.6326   28.0078 N   0  0  0  0  0  0  0  0  0  0  0  0
    4.8925    6.7362   27.9016 C   0  0  0  0  0  0  0  0  0  0  0  0
    5.1606    7.7655   28.6663 N   0  0  0  0  0  0  0  0  0  0  0  0
    3.9254    6.8123   27.0255 N   0  3  0  0  0  0  0  0  0  0  0  0
    4.4333    5.0057   32.3904 O   0  0  0  0  0  0  0  0  0  0  0  0
  2  1  1  1  0  0  0
  2  5  1  0  0  0  0
  2  3  1  0  0  0  0
  3  4  1  0  0  0  0
  3 12  2  0  0  0  0
  5  6  1  0  0  0  0
  6  7  1  0  0  0  0
  7  8  1  0  0  0  0
  8  9  1  0  0  0  0
  9 10  1  0  0  0  0
  9 11  2  0  0  0  0
M  CHG  3   1   1   4  -1  11   1
M  END
>  <CHROM.1>
-43.02276866,-152.38149679,105.77048607,-61.26374711,-133.36349800,152.72852921
5.52141135,5.08271195,30.28461320,-0.68339956,1.31261797,-1.87292147

>  <Name>
1koc cryst

>  <RI>
0

>  <Rbt.Current_Directory>
/home/itssahil/PROJECTS/Mol_Feturizer/New_Systems/rnas/1koc

>  <Rbt.Executable>
rbdock ($Id: //depot/dev/client3/rdock/2013.1/src/exe/rbdock.cxx#4 $)

>  <Rbt.Library>
libRbt.so (2013.1, Build901 2013/11/27)

>  <Rbt.Parameter_File>
/export/apps/rDock/src/rDock_2013.1_src/data/scripts/dock_solv.prm

>  <Rbt.Receptor>
prm/pocket_docking_8.prm

>  <SCORE>
-17.0903

>  <SCORE.INTER>
-18.3598

>  <SCORE.INTER.CONST>
1

>  <SCORE.INTER.POLAR>
-4.44086

>  <SCORE.INTER.ROT>
5

>  <SCORE.INTER.SOLV>
22.3236

>  <SCORE.INTER.VDW>
-11.8115

>  <SCORE.INTER.norm>
-1.52998

>  <SCORE.INTRA>
1.26946

>  <SCORE.INTRA.DIHEDRAL>
5.19403

>  <SCORE.INTRA.DIHEDRAL.0>
6.04201

>  <SCORE.INTRA.POLAR>
0

>  <SCORE.INTRA.POLAR.0>
0

>  <SCORE.INTRA.REPUL>
0

>  <SCORE.INTRA.REPUL.0>
0

>  <SCORE.INTRA.SOLV>
-0.393254

>  <SCORE.INTRA.SOLV.lig_0>
-71.0481

>  <SCORE.INTRA.VDW>
-1.13093

>  <SCORE.INTRA.VDW.0>
0.968882

>  <SCORE.INTRA.norm>
0.105788

>  <SCORE.RESTR>
0

>  <SCORE.RESTR.CAVITY>
0

>  <SCORE.RESTR.norm>
0

>  <SCORE.SYSTEM>
0

>  <SCORE.SYSTEM.CONST>
0

>  <SCORE.SYSTEM.DIHEDRAL>
0

>  <SCORE.SYSTEM.SOLV>
0

>  <SCORE.SYSTEM.norm>
0

>  <SCORE.heavy>
12

>  <SCORE.norm>
-1.42419

>  <SYMMETRIC_BONDS>
11 12 2
5 6 2

>  <RMSD>
4.865

$$$$
1koc cryst
 OpenBabel11021811393D
libRbt.so/2013.1/901 2013/11/27
 12 11  0  0  0  0  0  0  0  0999 V2000
    5.7827    2.4489   33.2643 N   0  3  0  0  0  0  0  0  0  0  0  0
    5.6525    2.8690   31.8362 C   0  0  2  0  0  0  0  0  0  0  0  0
    7.0443    3.2523   31.2964 C   0  0  0  0  0  0  0  0  0  0  0  0
    7.6908    4.0826   31.9174 O   0  5  0  0  0  0  0  0  0  0  0  0
    4.6743    4.0712   31.7469 C   0  0  0  0  0  0  0  0  0  0  0  0
    3.9531    4.0962   30.3941 C   0  0  0  0  0  0  0  0  0  0  0  0
    3.4751    5.5129   30.0950 C   0  0  0  0  0  0  0  0  0  0  0  0
    4.6455    6.3947   29.8145 N   0  0  0  0  0  0  0  0  0  0  0  0
    5.1538    6.4550   28.6072 C   0  0  0  0  0  0  0  0  0  0  0  0
    4.3735    6.3874   27.5572 N   0  0  0  0  0  0  0  0  0  0  0  0
    6.4447    6.5881   28.4497 N   0  3  0  0  0  0  0  0  0  0  0  0
    7.4355    2.7200   30.2683 O   0  0  0  0  0  0  0  0  0  0  0  0
  2  1  1  1  0  0  0
  2  5  1  0  0  0  0
  2  3  1  0  0  0  0
  3  4  1  0  0  0  0
  3 12  2  0  0  0  0
  5  6  1  0  0  0  0
  6  7  1  0  0  0  0
  7  8  1  0  0  0  0
  8  9  1  0  0  0  0
  9 10  1  0  0  0  0
  9 11  2  0  0  0  0
M  CHG  3   1   1   4  -1  11   1
M  END
>  <CHROM.1>
-179.71381495,-150.98405429,-53.76787536,-156.75233672,69.67534637,85.07481781
5.56087440,4.56938789,30.44902260,1.24976585,-0.18652227,2.27104563

>  <Name>
1koc cryst

>  <RI>
0

>  <Rbt.Current_Directory>
/home/itssahil/PROJECTS/Mol_Feturizer/New_Systems/rnas/1koc

>  <Rbt.Executable>
rbdock ($Id: //depot/dev/client3/rdock/2013.1/src/exe/rbdock.cxx#4 $)

>  <Rbt.Library>
libRbt.so (2013.1, Build901 2013/11/27)

>  <Rbt.Parameter_File>
/export/apps/rDock/src/rDock_2013.1_src/data/scripts/dock_solv.prm

>  <Rbt.Receptor>
prm/pocket_docking_5.prm

>  <SCORE>
-23.3056

>  <SCORE.INTER>
-21.3417

>  <SCORE.INTER.CONST>
1

>  <SCORE.INTER.POLAR>
-4.18061

>  <SCORE.INTER.ROT>
5

>  <SCORE.INTER.SOLV>
19.6778

>  <SCORE.INTER.VDW>
-13.785

>  <SCORE.INTER.norm>
-1.77848

>  <SCORE.INTRA>
-1.96382

>  <SCORE.INTRA.DIHEDRAL>
2.17211

>  <SCORE.INTRA.DIHEDRAL.0>
6.04201

>  <SCORE.INTRA.POLAR>
0

>  <SCORE.INTRA.POLAR.0>
0

>  <SCORE.INTRA.REPUL>
0

>  <SCORE.INTRA.REPUL.0>
0

>  <SCORE.INTRA.SOLV>
-0.803706

>  <SCORE.INTRA.SOLV.lig_0>
-71.0481

>  <SCORE.INTRA.VDW>
-2.64802

>  <SCORE.INTRA.VDW.0>
0.968882

>  <SCORE.INTRA.norm>
-0.163652

>  <SCORE.RESTR>
0

>  <SCORE.RESTR.CAVITY>
0

>  <SCORE.RESTR.norm>
0

>  <SCORE.SYSTEM>
0

>  <SCORE.SYSTEM.CONST>
0

>  <SCORE.SYSTEM.DIHEDRAL>
0

>  <SCORE.SYSTEM.SOLV>
0

>  <SCORE.SYSTEM.norm>
0

>  <SCORE.heavy>
12

>  <SCORE.norm>
-1.94213

>  <SYMMETRIC_BONDS>
11 12 2
5 6 2

>  <RMSD>
4.885

$$$$
1koc cryst
 OpenBabel11021811393D
libRbt.so/2013.1/901 2013/11/27
 12 11  0  0  0  0  0  0  0  0999 V2000
    3.1590    1.7050   30.8009 N   0  3  0  0  0  0  0  0  0  0  0  0
    3.7278    2.9740   30.2540 C   0  0  2  0  0  0  0  0  0  0  0  0
    5.1286    3.1976   30.8567 C   0  0  0  0  0  0  0  0  0  0  0  0
    5.1998    3.5567   32.0225 O   0  5  0  0  0  0  0  0  0  0  0  0
    2.7790    4.1507   30.6081 C   0  0  0  0  0  0  0  0  0  0  0  0
    2.6145    5.1038   29.4184 C   0  0  0  0  0  0  0  0  0  0  0  0
    3.9824    5.6134   28.9778 C   0  0  0  0  0  0  0  0  0  0  0  0
    3.8519    6.3819   27.7056 N   0  0  0  0  0  0  0  0  0  0  0  0
    4.6875    7.3548   27.4320 C   0  0  0  0  0  0  0  0  0  0  0  0
    5.9470    7.2620   27.7800 N   0  0  0  0  0  0  0  0  0  0  0  0
    4.2637    8.4205   26.8046 N   0  3  0  0  0  0  0  0  0  0  0  0
    6.1037    3.0178   30.1426 O   0  0  0  0  0  0  0  0  0  0  0  0
  2  1  1  1  0  0  0
  2  5  1  0  0  0  0
  2  3  1  0  0  0  0
  3  4  1  0  0  0  0
  3 12  2  0  0  0  0
  5  6  1  0  0  0  0
  6  7  1  0  0  0  0
  7  8  1  0  0  0  0
  8  9  1  0  0  0  0
  9 10  1  0  0  0  0
  9 11  2  0  0  0  0
M  CHG  3   1   1   4  -1  11   1
M  END
>  <CHROM.1>
-163.08506395,-137.81098946,-74.00026677,-56.77160047,171.91362445,150.73169355
4.30097281,4.87984336,29.40277431,1.63488348,0.09979598,2.49123816

>  <Name>
1koc cryst

>  <RI>
0

>  <Rbt.Current_Directory>
/home/itssahil/PROJECTS/Mol_Feturizer/New_Systems/rnas/1koc

>  <Rbt.Executable>
rbdock ($Id: //depot/dev/client3/rdock/2013.1/src/exe/rbdock.cxx#4 $)

>  <Rbt.Library>
libRbt.so (2013.1, Build901 2013/11/27)

>  <Rbt.Parameter_File>
/export/apps/rDock/src/rDock_2013.1_src/data/scripts/dock_solv.prm

>  <Rbt.Receptor>
prm/pocket_docking_5.prm

>  <SCORE>
-36.7

>  <SCORE.INTER>
-36.4994

>  <SCORE.INTER.CONST>
1

>  <SCORE.INTER.POLAR>
-6.22726

>  <SCORE.INTER.ROT>
5

>  <SCORE.INTER.SOLV>
21.7987

>  <SCORE.INTER.VDW>
-17.7749

>  <SCORE.INTER.norm>
-3.04161

>  <SCORE.INTRA>
-0.200694

>  <SCORE.INTRA.DIHEDRAL>
2.45825

>  <SCORE.INTRA.DIHEDRAL.0>
6.04201

>  <SCORE.INTRA.POLAR>
0

>  <SCORE.INTRA.POLAR.0>
0

>  <SCORE.INTRA.REPUL>
0

>  <SCORE.INTRA.REPUL.0>
0

>  <SCORE.INTRA.SOLV>
-0.792125

>  <SCORE.INTRA.SOLV.lig_0>
-71.0481

>  <SCORE.INTRA.VDW>
-1.03376

>  <SCORE.INTRA.VDW.0>
0.968882

>  <SCORE.INTRA.norm>
-0.0167245

>  <SCORE.RESTR>
0

>  <SCORE.RESTR.CAVITY>
0

>  <SCORE.RESTR.norm>
0

>  <SCORE.SYSTEM>
0

>  <SCORE.SYSTEM.CONST>
0

>  <SCORE.SYSTEM.DIHEDRAL>
0

>  <SCORE.SYSTEM.SOLV>
0

>  <SCORE.SYSTEM.norm>
0

>  <SCORE.heavy>
12

>  <SCORE.norm>
-3.05834

>  <SYMMETRIC_BONDS>
11 12 2
5 6 2

>  <RMSD>
5.254

$$$$
1koc cryst
 OpenBabel11021811393D
libRbt.so/2013.1/901 2013/11/27
 12 11  0  0  0  0  0  0  0  0999 V2000
    3.9146    2.4508   30.4441 N   0  3  0  0  0  0  0  0  0  0  0  0
    4.4030    3.8343   30.7274 C   0  0  2  0  0  0  0  0  0  0  0  0
    5.5550    3.7613   31.7486 C   0  0  0  0  0  0  0  0  0  0  0  0
    6.5955    4.3433   31.4809 O   0  5  0  0  0  0  0  0  0  0  0  0
    3.2277    4.6855   31.2792 C   0  0  0  0  0  0  0  0  0  0  0  0
    3.7057    6.0816   31.6955 C   0  0  0  0  0  0  0  0  0  0  0  0
    2.5010    6.9650   32.0009 C   0  0  0  0  0  0  0  0  0  0  0  0
    2.7921    7.8295   33.1817 N   0  0  0  0  0  0  0  0  0  0  0  0
    3.1729    9.0729   33.0131 C   0  0  0  0  0  0  0  0  0  0  0  0
    2.6756    9.7901   32.0361 N   0  0  0  0  0  0  0  0  0  0  0  0
    4.0491    9.6018   33.8263 N   0  3  0  0  0  0  0  0  0  0  0  0
    5.3832    3.1176   32.7731 O   0  0  0  0  0  0  0  0  0  0  0  0
  2  1  1  1  0  0  0
  2  5  1  0  0  0  0
  2  3  1  0  0  0  0
  3  4  1  0  0  0  0
  3 12  2  0  0  0  0
  5  6  1  0  0  0  0
  6  7  1  0  0  0  0
  7  8  1  0  0  0  0
  8  9  1  0  0  0  0
  9 10  1  0  0  0  0
  9 11  2  0  0  0  0
M  CHG  3   1   1   4  -1  11   1
M  END
>  <CHROM.1>
130.54984299,175.26809097,128.95036196,170.23067250,141.06593425,98.69182850
4.00857045,5.94614316,32.02258953,1.24740343,0.44362236,-2.73329912

>  <Name>
1koc cryst

>  <RI>
0

>  <Rbt.Current_Directory>
/home/itssahil/PROJECTS/Mol_Feturizer/New_Systems/rnas/1koc

>  <Rbt.Executable>
rbdock ($Id: //depot/dev/client3/rdock/2013.1/src/exe/rbdock.cxx#4 $)

>  <Rbt.Library>
libRbt.so (2013.1, Build901 2013/11/27)

>  <Rbt.Parameter_File>
/export/apps/rDock/src/rDock_2013.1_src/data/scripts/dock_solv.prm

>  <Rbt.Receptor>
prm/pocket_docking_5.prm

>  <SCORE>
-22.2587

>  <SCORE.INTER>
-23.1633

>  <SCORE.INTER.CONST>
1

>  <SCORE.INTER.POLAR>
-3.75819

>  <SCORE.INTER.ROT>
5

>  <SCORE.INTER.SOLV>
21.7809

>  <SCORE.INTER.VDW>
-17.1086

>  <SCORE.INTER.norm>
-1.93028

>  <SCORE.INTRA>
0.904613

>  <SCORE.INTRA.DIHEDRAL>
5.1988

>  <SCORE.INTRA.DIHEDRAL.0>
6.04201

>  <SCORE.INTRA.POLAR>
0

>  <SCORE.INTRA.POLAR.0>
0

>  <SCORE.INTRA.REPUL>
0

>  <SCORE.INTRA.REPUL.0>
0

>  <SCORE.INTRA.SOLV>
-1.21411

>  <SCORE.INTRA.SOLV.lig_0>
-71.0481

>  <SCORE.INTRA.VDW>
-1.08773

>  <SCORE.INTRA.VDW.0>
0.968882

>  <SCORE.INTRA.norm>
0.0753844

>  <SCORE.RESTR>
0

>  <SCORE.RESTR.CAVITY>
0

>  <SCORE.RESTR.norm>
0

>  <SCORE.SYSTEM>
0

>  <SCORE.SYSTEM.CONST>
0

>  <SCORE.SYSTEM.DIHEDRAL>
0

>  <SCORE.SYSTEM.SOLV>
0

>  <SCORE.SYSTEM.norm>
0

>  <SCORE.heavy>
12

>  <SCORE.norm>
-1.85489

>  <SYMMETRIC_BONDS>
11 12 2
5 6 2

>  <RMSD>
5.277

$$$$
1koc cryst
 OpenBabel11021811393D
libRbt.so/2013.1/901 2013/11/27
 12 11  0  0  0  0  0  0  0  0999 V2000
   -1.2839    0.5518   28.9704 N   0  3  0  0  0  0  0  0  0  0  0  0
   -2.4176    1.2623   29.6359 C   0  0  2  0  0  0  0  0  0  0  0  0
   -2.9887    2.3157   28.6666 C   0  0  0  0  0  0  0  0  0  0  0  0
   -4.1643    2.6266   28.7864 O   0  5  0  0  0  0  0  0  0  0  0  0
   -1.9036    1.9311   30.9392 C   0  0  0  0  0  0  0  0  0  0  0  0
   -1.1123    3.2073   30.6294 C   0  0  0  0  0  0  0  0  0  0  0  0
    0.3557    2.8586   30.4097 C   0  0  0  0  0  0  0  0  0  0  0  0
    0.8752    2.0906   31.5787 N   0  0  0  0  0  0  0  0  0  0  0  0
    1.9199    1.3092   31.4451 C   0  0  0  0  0  0  0  0  0  0  0  0
    2.9047    1.6518   30.6522 N   0  0  0  0  0  0  0  0  0  0  0  0
    1.9820    0.1853   32.1097 N   0  3  0  0  0  0  0  0  0  0  0  0
   -2.2475    2.7847   27.8157 O   0  0  0  0  0  0  0  0  0  0  0  0
  2  1  1  6  0  0  0
  2  5  1  0  0  0  0
  2  3  1  0  0  0  0
  3  4  1  0  0  0  0
  3 12  2  0  0  0  0
  5  6  1  0  0  0  0
  6  7  1  0  0  0  0
  7  8  1  0  0  0  0
  8  9  1  0  0  0  0
  9 10  1  0  0  0  0
  9 11  2  0  0  0  0
M  CHG  3   1   1   4  -1  11   1
M  END
>  <CHROM.1>
-60.66850278,76.64535589,152.65316706,-88.60171341,-53.95269901,156.79779952
-0.64777809,1.87165046,30.11835091,2.98292304,-0.48854929,0.04627287

>  <Name>
1koc cryst

>  <RI>
0

>  <Rbt.Current_Directory>
/home/itssahil/PROJECTS/Mol_Feturizer/New_Systems/rnas/1koc

>  <Rbt.Executable>
rbdock ($Id: //depot/dev/client3/rdock/2013.1/src/exe/rbdock.cxx#4 $)

>  <Rbt.Library>
libRbt.so (2013.1, Build901 2013/11/27)

>  <Rbt.Parameter_File>
/export/apps/rDock/src/rDock_2013.1_src/data/scripts/dock_solv.prm

>  <Rbt.Receptor>
prm/blind_docking_100.prm

>  <SCORE>
-27.6965

>  <SCORE.INTER>
-28.7296

>  <SCORE.INTER.CONST>
1

>  <SCORE.INTER.POLAR>
-8.24867

>  <SCORE.INTER.ROT>
5

>  <SCORE.INTER.SOLV>
33.3065

>  <SCORE.INTER.VDW>
-9.69298

>  <SCORE.INTER.norm>
-2.39413

>  <SCORE.INTRA>
1.02335

>  <SCORE.INTRA.DIHEDRAL>
1.30631

>  <SCORE.INTRA.DIHEDRAL.0>
6.04201

>  <SCORE.INTRA.POLAR>
0

>  <SCORE.INTRA.POLAR.0>
0

>  <SCORE.INTRA.REPUL>
0

>  <SCORE.INTRA.REPUL.0>
0

>  <SCORE.INTRA.SOLV>
2.64904

>  <SCORE.INTRA.SOLV.lig_0>
-71.0481

>  <SCORE.INTRA.VDW>
-0.954327

>  <SCORE.INTRA.VDW.0>
0.968882

>  <SCORE.INTRA.norm>
0.085279

>  <SCORE.RESTR>
0.00974893

>  <SCORE.RESTR.CAVITY>
0.00974893

>  <SCORE.RESTR.norm>
0.000812411

>  <SCORE.SYSTEM>
0

>  <SCORE.SYSTEM.CONST>
0

>  <SCORE.SYSTEM.DIHEDRAL>
0

>  <SCORE.SYSTEM.SOLV>
0

>  <SCORE.SYSTEM.norm>
0

>  <SCORE.heavy>
12

>  <SCORE.norm>
-2.30804

>  <SYMMETRIC_BONDS>
11 12 2
5 6 2

>  <RMSD>
6.689

$$$$
1koc cryst
 OpenBabel11021811393D
libRbt.so/2013.1/901 2013/11/27
 12 11  0  0  0  0  0  0  0  0999 V2000
   -2.0215    1.3662   28.8064 N   0  3  0  0  0  0  0  0  0  0  0  0
   -2.3228    1.6828   30.2353 C   0  0  2  0  0  0  0  0  0  0  0  0
   -3.7932    2.1302   30.3515 C   0  0  0  0  0  0  0  0  0  0  0  0
   -4.4644    2.1624   29.3310 O   0  5  0  0  0  0  0  0  0  0  0  0
   -1.3639    2.8029   30.7211 C   0  0  0  0  0  0  0  0  0  0  0  0
    0.0788    2.2922   30.8135 C   0  0  0  0  0  0  0  0  0  0  0  0
    1.0466    3.4537   30.6152 C   0  0  0  0  0  0  0  0  0  0  0  0
    2.4209    3.0453   31.0287 N   0  0  0  0  0  0  0  0  0  0  0  0
    3.4487    3.3069   30.2574 C   0  0  0  0  0  0  0  0  0  0  0  0
    3.4929    4.4213   29.5702 N   0  0  0  0  0  0  0  0  0  0  0  0
    4.4366    2.4546   30.1771 N   0  3  0  0  0  0  0  0  0  0  0  0
   -4.2199    2.4432   31.4530 O   0  0  0  0  0  0  0  0  0  0  0  0
  2  1  1  6  0  0  0
  2  5  1  0  0  0  0
  2  3  1  0  0  0  0
  3  4  1  0  0  0  0
  3 12  2  0  0  0  0
  5  6  1  0  0  0  0
  6  7  1  0  0  0  0
  7  8  1  0  0  0  0
  8  9  1  0  0  0  0
  9 10  1  0  0  0  0
  9 11  2  0  0  0  0
M  CHG  3   1   1   4  -1  11   1
M  END
>  <CHROM.1>
58.10739737,-68.67230182,0.00871645,152.58031754,166.22695688,133.05569380
-0.26568108,2.62251609,30.24791920,-3.05794378,0.14896906,1.11591881

>  <Name>
1koc cryst

>  <RI>
0

>  <Rbt.Current_Directory>
/home/itssahil/PROJECTS/Mol_Feturizer/New_Systems/rnas/1koc

>  <Rbt.Executable>
rbdock ($Id: //depot/dev/client3/rdock/2013.1/src/exe/rbdock.cxx#4 $)

>  <Rbt.Library>
libRbt.so (2013.1, Build901 2013/11/27)

>  <Rbt.Parameter_File>
/export/apps/rDock/src/rDock_2013.1_src/data/scripts/dock_solv.prm

>  <Rbt.Receptor>
prm/blind_docking_80.prm

>  <SCORE>
-22.4579

>  <SCORE.INTER>
-20.9063

>  <SCORE.INTER.CONST>
1

>  <SCORE.INTER.POLAR>
-3.31177

>  <SCORE.INTER.ROT>
5

>  <SCORE.INTER.SOLV>
22.3617

>  <SCORE.INTER.VDW>
-17.2855

>  <SCORE.INTER.norm>
-1.74219

>  <SCORE.INTRA>
-1.5852

>  <SCORE.INTRA.DIHEDRAL>
1.00879

>  <SCORE.INTRA.DIHEDRAL.0>
6.04201

>  <SCORE.INTRA.POLAR>
0

>  <SCORE.INTRA.POLAR.0>
0

>  <SCORE.INTRA.REPUL>
0

>  <SCORE.INTRA.REPUL.0>
0

>  <SCORE.INTRA.SOLV>
-0.82338

>  <SCORE.INTRA.SOLV.lig_0>
-71.0481

>  <SCORE.INTRA.VDW>
-1.6779

>  <SCORE.INTRA.VDW.0>
0.968882

>  <SCORE.INTRA.norm>
-0.1321

>  <SCORE.RESTR>
0.0336297

>  <SCORE.RESTR.CAVITY>
0.0336297

>  <SCORE.RESTR.norm>
0.00280248

>  <SCORE.SYSTEM>
0

>  <SCORE.SYSTEM.CONST>
0

>  <SCORE.SYSTEM.DIHEDRAL>
0

>  <SCORE.SYSTEM.SOLV>
0

>  <SCORE.SYSTEM.norm>
0

>  <SCORE.heavy>
12

>  <SCORE.norm>
-1.87149

>  <SYMMETRIC_BONDS>
11 12 2
5 6 2

>  <RMSD>
6.786

$$$$
1koc cryst
 OpenBabel11021811393D
libRbt.so/2013.1/901 2013/11/27
 12 11  0  0  0  0  0  0  0  0999 V2000
   -3.7040    1.2185   29.1023 N   0  3  0  0  0  0  0  0  0  0  0  0
   -2.9997    1.5893   30.3669 C   0  0  2  0  0  0  0  0  0  0  0  0
   -3.8750    2.5817   31.1572 C   0  0  0  0  0  0  0  0  0  0  0  0
   -3.5092    2.9009   32.2785 O   0  5  0  0  0  0  0  0  0  0  0  0
   -1.6253    2.2210   30.0172 C   0  0  0  0  0  0  0  0  0  0  0  0
   -0.7389    2.3378   31.2628 C   0  0  0  0  0  0  0  0  0  0  0  0
    0.5753    3.0172   30.8939 C   0  0  0  0  0  0  0  0  0  0  0  0
    1.4455    2.0652   30.1437 N   0  0  0  0  0  0  0  0  0  0  0  0
    2.3633    1.3716   30.7732 C   0  0  0  0  0  0  0  0  0  0  0  0
    2.1401    0.9256   31.9845 N   0  0  0  0  0  0  0  0  0  0  0  0
    3.5047    1.1192   30.1881 N   0  3  0  0  0  0  0  0  0  0  0  0
   -4.8991    2.9964   30.6351 O   0  0  0  0  0  0  0  0  0  0  0  0
  2  1  1  6  0  0  0
  2  5  1  0  0  0  0
  2  3  1  0  0  0  0
  3  4  1  0  0  0  0
  3 12  2  0  0  0  0
  5  6  1  0  0  0  0
  6  7  1  0  0  0  0
  7  8  1  0  0  0  0
  8  9  1  0  0  0  0
  9 10  1  0  0  0  0
  9 11  2  0  0  0  0
M  CHG  3   1   1   4  -1  11   1
M  END
>  <CHROM.1>
177.02478768,-167.62648121,173.52928180,-177.51103552,-74.68209041,-95.64563242
-0.95682015,2.01135074,30.71570740,3.10031674,-0.14166913,1.15143613

>  <Name>
1koc cryst

>  <RI>
0

>  <Rbt.Current_Directory>
/home/itssahil/PROJECTS/Mol_Feturizer/New_Systems/rnas/1koc

>  <Rbt.Executable>
rbdock ($Id: //depot/dev/client3/rdock/2013.1/src/exe/rbdock.cxx#4 $)

>  <Rbt.Library>
libRbt.so (2013.1, Build901 2013/11/27)

>  <Rbt.Parameter_File>
/export/apps/rDock/src/rDock_2013.1_src/data/scripts/dock_solv.prm

>  <Rbt.Receptor>
prm/blind_docking_40.prm

>  <SCORE>
16.4895

>  <SCORE.INTER>
18.5414

>  <SCORE.INTER.CONST>
1

>  <SCORE.INTER.POLAR>
-6.47974

>  <SCORE.INTER.ROT>
5

>  <SCORE.INTER.SOLV>
32.8807

>  <SCORE.INTER.VDW>
16.0665

>  <SCORE.INTER.norm>
1.54512

>  <SCORE.INTRA>
-2.45521

>  <SCORE.INTRA.DIHEDRAL>
-1.24487

>  <SCORE.INTRA.DIHEDRAL.0>
6.04201

>  <SCORE.INTRA.POLAR>
0

>  <SCORE.INTRA.POLAR.0>
0

>  <SCORE.INTRA.REPUL>
0

>  <SCORE.INTRA.REPUL.0>
0

>  <SCORE.INTRA.SOLV>
-0.314462

>  <SCORE.INTRA.SOLV.lig_0>
-71.0481

>  <SCORE.INTRA.VDW>
-1.67554

>  <SCORE.INTRA.VDW.0>
0.968882

>  <SCORE.INTRA.norm>
-0.204601

>  <SCORE.RESTR>
0.40325

>  <SCORE.RESTR.CAVITY>
0.40325

>  <SCORE.RESTR.norm>
0.0336042

>  <SCORE.SYSTEM>
0

>  <SCORE.SYSTEM.CONST>
0

>  <SCORE.SYSTEM.DIHEDRAL>
0

>  <SCORE.SYSTEM.SOLV>
0

>  <SCORE.SYSTEM.norm>
0

>  <SCORE.heavy>
12

>  <SCORE.norm>
1.37412

>  <SYMMETRIC_BONDS>
11 12 2
5 6 2

>  <RMSD>
6.830

$$$$
1koc cryst
 OpenBabel11021811393D
libRbt.so/2013.1/901 2013/11/27
 12 11  0  0  0  0  0  0  0  0999 V2000
   -5.3769    2.3382   30.9005 N   0  3  0  0  0  0  0  0  0  0  0  0
   -3.9292    2.1347   31.2099 C   0  0  2  0  0  0  0  0  0  0  0  0
   -3.4862    3.1807   32.2515 C   0  0  0  0  0  0  0  0  0  0  0  0
   -4.1549    4.1973   32.3626 O   0  5  0  0  0  0  0  0  0  0  0  0
   -3.1052    2.2736   29.9015 C   0  0  0  0  0  0  0  0  0  0  0  0
   -1.6743    1.7574   30.0934 C   0  0  0  0  0  0  0  0  0  0  0  0
   -0.7871    2.8866   30.6058 C   0  0  0  0  0  0  0  0  0  0  0  0
    0.4590    2.3224   31.2018 N   0  0  0  0  0  0  0  0  0  0  0  0
    1.6341    2.7107   30.7681 C   0  0  0  0  0  0  0  0  0  0  0  0
    1.8267    3.9544   30.4045 N   0  0  0  0  0  0  0  0  0  0  0  0
    2.6199    1.8547   30.7029 N   0  3  0  0  0  0  0  0  0  0  0  0
   -2.4827    2.9547   32.9112 O   0  0  0  0  0  0  0  0  0  0  0  0
  2  1  1  6  0  0  0
  2  5  1  0  0  0  0
  2  3  1  0  0  0  0
  3  4  1  0  0  0  0
  3 12  2  0  0  0  0
  5  6  1  0  0  0  0
  6  7  1  0  0  0  0
  7  8  1  0  0  0  0
  8  9  1  0  0  0  0
  9 10  1  0  0  0  0
  9 11  2  0  0  0  0
M  CHG  3   1   1   4  -1  11   1
M  END
>  <CHROM.1>
-60.24743147,-166.73809027,-21.39814554,-88.11912487,162.01611234,124.34150502
-1.54808814,2.72558183,31.11939993,3.01603019,0.06624070,0.88775785

>  <Name>
1koc cryst

>  <RI>
0

>  <Rbt.Current_Directory>
/home/itssahil/PROJECTS/Mol_Feturizer/New_Systems/rnas/1koc

>  <Rbt.Executable>
rbdock ($Id: //depot/dev/client3/rdock/2013.1/src/exe/rbdock.cxx#4 $)

>  <Rbt.Library>
libRbt.so (2013.1, Build901 2013/11/27)

>  <Rbt.Parameter_File>
/export/apps/rDock/src/rDock_2013.1_src/data/scripts/dock_solv.prm

>  <Rbt.Receptor>
prm/blind_docking_100.prm

>  <SCORE>
-23.3759

>  <SCORE.INTER>
-22.9274

>  <SCORE.INTER.CONST>
1

>  <SCORE.INTER.POLAR>
-3.08069

>  <SCORE.INTER.ROT>
5

>  <SCORE.INTER.SOLV>
29.1474

>  <SCORE.INTER.VDW>
-21.6651

>  <SCORE.INTER.norm>
-1.91062

>  <SCORE.INTRA>
-0.448449

>  <SCORE.INTRA.DIHEDRAL>
1.88414

>  <SCORE.INTRA.DIHEDRAL.0>
6.04201

>  <SCORE.INTRA.POLAR>
0

>  <SCORE.INTRA.POLAR.0>
0

>  <SCORE.INTRA.REPUL>
0

>  <SCORE.INTRA.REPUL.0>
0

>  <SCORE.INTRA.SOLV>
0.680306

>  <SCORE.INTRA.SOLV.lig_0>
-71.0481

>  <SCORE.INTRA.VDW>
-1.73067

>  <SCORE.INTRA.VDW.0>
0.968882

>  <SCORE.INTRA.norm>
-0.0373707

>  <SCORE.RESTR>
0

>  <SCORE.RESTR.CAVITY>
0

>  <SCORE.RESTR.norm>
0

>  <SCORE.SYSTEM>
0

>  <SCORE.SYSTEM.CONST>
0

>  <SCORE.SYSTEM.DIHEDRAL>
0

>  <SCORE.SYSTEM.SOLV>
0

>  <SCORE.SYSTEM.norm>
0

>  <SCORE.heavy>
12

>  <SCORE.norm>
-1.94799

>  <SYMMETRIC_BONDS>
11 12 2
5 6 2

>  <RMSD>
6.870

$$$$
1koc cryst
 OpenBabel11021811393D
libRbt.so/2013.1/901 2013/11/27
 12 11  0  0  0  0  0  0  0  0999 V2000
   -3.6187    2.4153   28.9463 N   0  3  0  0  0  0  0  0  0  0  0  0
   -2.2449    1.8275   28.9575 C   0  0  2  0  0  0  0  0  0  0  0  0
   -2.3218    0.3617   28.4873 C   0  0  0  0  0  0  0  0  0  0  0  0
   -3.4214   -0.0946   28.2123 O   0  5  0  0  0  0  0  0  0  0  0  0
   -1.6649    1.9177   30.3947 C   0  0  0  0  0  0  0  0  0  0  0  0
   -0.9185    3.2401   30.6064 C   0  0  0  0  0  0  0  0  0  0  0  0
    0.5830    3.0061   30.4813 C   0  0  0  0  0  0  0  0  0  0  0  0
    1.0585    2.1497   31.6068 N   0  0  0  0  0  0  0  0  0  0  0  0
    2.0395    1.2993   31.4219 C   0  0  0  0  0  0  0  0  0  0  0  0
    3.0369    1.6028   30.6287 N   0  0  0  0  0  0  0  0  0  0  0  0
    2.0256    0.1451   32.0355 N   0  3  0  0  0  0  0  0  0  0  0  0
   -1.2853   -0.2821   28.4208 O   0  0  0  0  0  0  0  0  0  0  0  0
  2  1  1  1  0  0  0
  2  5  1  0  0  0  0
  2  3  1  0  0  0  0
  3  4  1  0  0  0  0
  3 12  2  0  0  0  0
  5  6  1  0  0  0  0
  6  7  1  0  0  0  0
  7  8  1  0  0  0  0
  8  9  1  0  0  0  0
  9 10  1  0  0  0  0
  9 11  2  0  0  0  0
M  CHG  3   1   1   4  -1  11   1
M  END
>  <CHROM.1>
-73.62887691,-89.44150770,-1.22040254,-100.64525115,-66.72683631,146.38441250
-0.57757980,1.44659066,30.01069997,2.89434862,0.43963312,-2.76468350

>  <Name>
1koc cryst

>  <RI>
0

>  <Rbt.Current_Directory>
/home/itssahil/PROJECTS/Mol_Feturizer/New_Systems/rnas/1koc

>  <Rbt.Executable>
rbdock ($Id: //depot/dev/client3/rdock/2013.1/src/exe/rbdock.cxx#4 $)

>  <Rbt.Library>
libRbt.so (2013.1, Build901 2013/11/27)

>  <Rbt.Parameter_File>
/export/apps/rDock/src/rDock_2013.1_src/data/scripts/dock_solv.prm

>  <Rbt.Receptor>
prm/blind_docking_40.prm

>  <SCORE>
-32.6574

>  <SCORE.INTER>
-33.0523

>  <SCORE.INTER.CONST>
1

>  <SCORE.INTER.POLAR>
-7.68919

>  <SCORE.INTER.ROT>
5

>  <SCORE.INTER.SOLV>
33.1225

>  <SCORE.INTER.VDW>
-14.3784

>  <SCORE.INTER.norm>
-2.75436

>  <SCORE.INTRA>
0.394939

>  <SCORE.INTRA.DIHEDRAL>
5.1835

>  <SCORE.INTRA.DIHEDRAL.0>
6.04201

>  <SCORE.INTRA.POLAR>
0

>  <SCORE.INTRA.POLAR.0>
0

>  <SCORE.INTRA.REPUL>
0

>  <SCORE.INTRA.REPUL.0>
0

>  <SCORE.INTRA.SOLV>
-0.749148

>  <SCORE.INTRA.SOLV.lig_0>
-71.0481

>  <SCORE.INTRA.VDW>
-1.82224

>  <SCORE.INTRA.VDW.0>
0.968882

>  <SCORE.INTRA.norm>
0.0329116

>  <SCORE.RESTR>
0

>  <SCORE.RESTR.CAVITY>
0

>  <SCORE.RESTR.norm>
0

>  <SCORE.SYSTEM>
0

>  <SCORE.SYSTEM.CONST>
0

>  <SCORE.SYSTEM.DIHEDRAL>
0

>  <SCORE.SYSTEM.SOLV>
0

>  <SCORE.SYSTEM.norm>
0

>  <SCORE.heavy>
12

>  <SCORE.norm>
-2.72145

>  <SYMMETRIC_BONDS>
11 12 2
5 6 2

>  <RMSD>
6.886

$$$$
1koc cryst
 OpenBabel11021811393D
libRbt.so/2013.1/901 2013/11/27
 12 11  0  0  0  0  0  0  0  0999 V2000
   -3.7117    0.6486   29.4864 N   0  3  0  0  0  0  0  0  0  0  0  0
   -2.9074    1.5155   30.3998 C   0  0  2  0  0  0  0  0  0  0  0  0
   -3.8217    2.6057   30.9923 C   0  0  0  0  0  0  0  0  0  0  0  0
   -4.7464    3.0132   30.3054 O   0  5  0  0  0  0  0  0  0  0  0  0
   -1.7376    2.1495   29.5998 C   0  0  0  0  0  0  0  0  0  0  0  0
   -0.8840    3.0552   30.4953 C   0  0  0  0  0  0  0  0  0  0  0  0
    0.1864    2.2231   31.1930 C   0  0  0  0  0  0  0  0  0  0  0  0
    1.5354    2.5939   30.6744 N   0  0  0  0  0  0  0  0  0  0  0  0
    2.5828    1.8642   30.9746 C   0  0  0  0  0  0  0  0  0  0  0  0
    2.4755    0.5623   31.0726 N   0  0  0  0  0  0  0  0  0  0  0  0
    3.7410    2.4372   31.1722 N   0  3  0  0  0  0  0  0  0  0  0  0
   -3.5770    3.0222   32.1148 O   0  0  0  0  0  0  0  0  0  0  0  0
  2  1  1  6  0  0  0
  2  5  1  0  0  0  0
  2  3  1  0  0  0  0
  3  4  1  0  0  0  0
  3 12  2  0  0  0  0
  5  6  1  0  0  0  0
  6  7  1  0  0  0  0
  7  8  1  0  0  0  0
  8  9  1  0  0  0  0
  9 10  1  0  0  0  0
  9 11  2  0  0  0  0
M  CHG  3   1   1   4  -1  11   1
M  END
>  <CHROM.1>
-41.26822977,179.76726515,-31.72625235,86.71105620,112.08198076,-169.17992217
-0.91454417,2.12239416,30.69628248,3.13505795,-0.09402587,0.53669553

>  <Name>
1koc cryst

>  <RI>
0

>  <Rbt.Current_Directory>
/home/itssahil/PROJECTS/Mol_Feturizer/New_Systems/rnas/1koc

>  <Rbt.Executable>
rbdock ($Id: //depot/dev/client3/rdock/2013.1/src/exe/rbdock.cxx#4 $)

>  <Rbt.Library>
libRbt.so (2013.1, Build901 2013/11/27)

>  <Rbt.Parameter_File>
/export/apps/rDock/src/rDock_2013.1_src/data/scripts/dock_solv.prm

>  <Rbt.Receptor>
prm/blind_docking_40.prm

>  <SCORE>
-25.1149

>  <SCORE.INTER>
-26.3723

>  <SCORE.INTER.CONST>
1

>  <SCORE.INTER.POLAR>
-5.08704

>  <SCORE.INTER.ROT>
5

>  <SCORE.INTER.SOLV>
30.7431

>  <SCORE.INTER.VDW>
-17.8057

>  <SCORE.INTER.norm>
-2.19769

>  <SCORE.INTRA>
1.10076

>  <SCORE.INTRA.DIHEDRAL>
6.00795

>  <SCORE.INTRA.DIHEDRAL.0>
6.04201

>  <SCORE.INTRA.POLAR>
0

>  <SCORE.INTRA.POLAR.0>
0

>  <SCORE.INTRA.REPUL>
0

>  <SCORE.INTRA.REPUL.0>
0

>  <SCORE.INTRA.SOLV>
-0.749739

>  <SCORE.INTRA.SOLV.lig_0>
-71.0481

>  <SCORE.INTRA.VDW>
-1.52834

>  <SCORE.INTRA.VDW.0>
0.968882

>  <SCORE.INTRA.norm>
0.0917304

>  <SCORE.RESTR>
0.156575

>  <SCORE.RESTR.CAVITY>
0.156575

>  <SCORE.RESTR.norm>
0.0130479

>  <SCORE.SYSTEM>
0

>  <SCORE.SYSTEM.CONST>
0

>  <SCORE.SYSTEM.DIHEDRAL>
0

>  <SCORE.SYSTEM.SOLV>
0

>  <SCORE.SYSTEM.norm>
0

>  <SCORE.heavy>
12

>  <SCORE.norm>
-2.09291

>  <SYMMETRIC_BONDS>
11 12 2
5 6 2

>  <RMSD>
6.886

$$$$
1koc cryst
 OpenBabel11021811393D
libRbt.so/2013.1/901 2013/11/27
 12 11  0  0  0  0  0  0  0  0999 V2000
   -3.6038    2.4172   28.9750 N   0  3  0  0  0  0  0  0  0  0  0  0
   -2.2011    1.9730   28.7142 C   0  0  2  0  0  0  0  0  0  0  0  0
   -2.2317    0.6366   27.9470 C   0  0  0  0  0  0  0  0  0  0  0  0
   -1.5262   -0.2740   28.3545 O   0  5  0  0  0  0  0  0  0  0  0  0
   -1.4571    1.8168   30.0678 C   0  0  0  0  0  0  0  0  0  0  0  0
   -0.8507    3.1501   30.5210 C   0  0  0  0  0  0  0  0  0  0  0  0
    0.6707    3.0490   30.5141 C   0  0  0  0  0  0  0  0  0  0  0  0
    1.1253    2.1619   31.6244 N   0  0  0  0  0  0  0  0  0  0  0  0
    2.0803    1.2862   31.4224 C   0  0  0  0  0  0  0  0  0  0  0  0
    3.0830    1.5724   30.6296 N   0  0  0  0  0  0  0  0  0  0  0  0
    2.0349    0.1237   32.0186 N   0  3  0  0  0  0  0  0  0  0  0  0
   -2.9486    0.5489   26.9613 O   0  0  0  0  0  0  0  0  0  0  0  0
  2  1  1  1  0  0  0
  2  5  1  0  0  0  0
  2  3  1  0  0  0  0
  3  4  1  0  0  0  0
  3 12  2  0  0  0  0
  5  6  1  0  0  0  0
  6  7  1  0  0  0  0
  7  8  1  0  0  0  0
  8  9  1  0  0  0  0
  9 10  1  0  0  0  0
  9 11  2  0  0  0  0
M  CHG  3   1   1   4  -1  11   1
M  END
>  <CHROM.1>
-62.80606728,-86.31533527,-131.41784844,-114.19328062,-70.84240860,137.64237008
-0.50303640,1.51879894,29.80876108,2.80803796,0.49743525,-2.58775126

>  <Name>
1koc cryst

>  <RI>
0

>  <Rbt.Current_Directory>
/home/itssahil/PROJECTS/Mol_Feturizer/New_Systems/rnas/1koc

>  <Rbt.Executable>
rbdock ($Id: //depot/dev/client3/rdock/2013.1/src/exe/rbdock.cxx#4 $)

>  <Rbt.Library>
libRbt.so (2013.1, Build901 2013/11/27)

>  <Rbt.Parameter_File>
/export/apps/rDock/src/rDock_2013.1_src/data/scripts/dock_solv.prm

>  <Rbt.Receptor>
prm/blind_docking_60.prm

>  <SCORE>
-33.7775

>  <SCORE.INTER>
-34.8793

>  <SCORE.INTER.CONST>
1

>  <SCORE.INTER.POLAR>
-7.61069

>  <SCORE.INTER.ROT>
5

>  <SCORE.INTER.SOLV>
32.0165

>  <SCORE.INTER.VDW>
-15.4894

>  <SCORE.INTER.norm>
-2.90661

>  <SCORE.INTRA>
1.10185

>  <SCORE.INTRA.DIHEDRAL>
5.90662

>  <SCORE.INTRA.DIHEDRAL.0>
6.04201

>  <SCORE.INTRA.POLAR>
0

>  <SCORE.INTRA.POLAR.0>
0

>  <SCORE.INTRA.REPUL>
0

>  <SCORE.INTRA.REPUL.0>
0

>  <SCORE.INTRA.SOLV>
-1.0049

>  <SCORE.INTRA.SOLV.lig_0>
-71.0481

>  <SCORE.INTRA.VDW>
-1.34901

>  <SCORE.INTRA.VDW.0>
0.968882

>  <SCORE.INTRA.norm>
0.0918205

>  <SCORE.RESTR>
0

>  <SCORE.RESTR.CAVITY>
0

>  <SCORE.RESTR.norm>
0

>  <SCORE.SYSTEM>
0

>  <SCORE.SYSTEM.CONST>
0

>  <SCORE.SYSTEM.DIHEDRAL>
0

>  <SCORE.SYSTEM.SOLV>
0

>  <SCORE.SYSTEM.norm>
0

>  <SCORE.heavy>
12

>  <SCORE.norm>
-2.81479

>  <SYMMETRIC_BONDS>
11 12 2
5 6 2

>  <RMSD>
6.895

$$$$
1koc cryst
 OpenBabel11021811393D
libRbt.so/2013.1/901 2013/11/27
 12 11  0  0  0  0  0  0  0  0999 V2000
   -3.3479    3.3257   32.3275 N   0  3  0  0  0  0  0  0  0  0  0  0
   -3.2152    2.7487   30.9555 C   0  0  2  0  0  0  0  0  0  0  0  0
   -4.1877    1.5614   30.8135 C   0  0  0  0  0  0  0  0  0  0  0  0
   -5.1653    1.5310   31.5460 O   0  5  0  0  0  0  0  0  0  0  0  0
   -1.7480    2.2912   30.7359 C   0  0  0  0  0  0  0  0  0  0  0  0
   -0.7956    3.4921   30.6973 C   0  0  0  0  0  0  0  0  0  0  0  0
    0.6298    3.0074   30.4564 C   0  0  0  0  0  0  0  0  0  0  0  0
    1.0737    2.1508   31.5945 N   0  0  0  0  0  0  0  0  0  0  0  0
    2.0434    1.2833   31.4304 C   0  0  0  0  0  0  0  0  0  0  0  0
    3.0578    1.5653   30.6510 N   0  0  0  0  0  0  0  0  0  0  0  0
    2.0010    0.1336   32.0511 N   0  3  0  0  0  0  0  0  0  0  0  0
   -3.9346    0.6989   29.9857 O   0  0  0  0  0  0  0  0  0  0  0  0
  2  1  1  1  0  0  0
  2  5  1  0  0  0  0
  2  3  1  0  0  0  0
  3  4  1  0  0  0  0
  3 12  2  0  0  0  0
  5  6  1  0  0  0  0
  6  7  1  0  0  0  0
  7  8  1  0  0  0  0
  8  9  1  0  0  0  0
  9 10  1  0  0  0  0
  9 11  2  0  0  0  0
M  CHG  3   1   1   4  -1  11   1
M  END
>  <CHROM.1>
-160.19273798,-67.17034790,23.70468433,-179.01984124,-63.28227319,157.42812008
-1.13958403,1.96845709,31.13562603,-3.06783426,0.01680288,-3.11297446

>  <Name>
1koc cryst

>  <RI>
0

>  <Rbt.Current_Directory>
/home/itssahil/PROJECTS/Mol_Feturizer/New_Systems/rnas/1koc

>  <Rbt.Executable>
rbdock ($Id: //depot/dev/client3/rdock/2013.1/src/exe/rbdock.cxx#4 $)

>  <Rbt.Library>
libRbt.so (2013.1, Build901 2013/11/27)

>  <Rbt.Parameter_File>
/export/apps/rDock/src/rDock_2013.1_src/data/scripts/dock_solv.prm

>  <Rbt.Receptor>
prm/blind_docking_40.prm

>  <SCORE>
-25.6899

>  <SCORE.INTER>
-23.4862

>  <SCORE.INTER.CONST>
1

>  <SCORE.INTER.POLAR>
-5.77211

>  <SCORE.INTER.ROT>
5

>  <SCORE.INTER.SOLV>
37.3937

>  <SCORE.INTER.VDW>
-15.815

>  <SCORE.INTER.norm>
-1.95718

>  <SCORE.INTRA>
-2.2037

>  <SCORE.INTRA.DIHEDRAL>
-1.47638

>  <SCORE.INTRA.DIHEDRAL.0>
6.04201

>  <SCORE.INTRA.POLAR>
0

>  <SCORE.INTRA.POLAR.0>
0

>  <SCORE.INTRA.REPUL>
0

>  <SCORE.INTRA.REPUL.0>
0

>  <SCORE.INTRA.SOLV>
-0.661285

>  <SCORE.INTRA.SOLV.lig_0>
-71.0481

>  <SCORE.INTRA.VDW>
-1.13487

>  <SCORE.INTRA.VDW.0>
0.968882

>  <SCORE.INTRA.norm>
-0.183642

>  <SCORE.RESTR>
0

>  <SCORE.RESTR.CAVITY>
0

>  <SCORE.RESTR.norm>
0

>  <SCORE.SYSTEM>
0

>  <SCORE.SYSTEM.CONST>
0

>  <SCORE.SYSTEM.DIHEDRAL>
0

>  <SCORE.SYSTEM.SOLV>
0

>  <SCORE.SYSTEM.norm>
0

>  <SCORE.heavy>
12

>  <SCORE.norm>
-2.14082

>  <SYMMETRIC_BONDS>
11 12 2
5 6 2

>  <RMSD>
6.907

$$$$
1koc cryst
 OpenBabel11021811393D
libRbt.so/2013.1/901 2013/11/27
 12 11  0  0  0  0  0  0  0  0999 V2000
   -3.8973    2.4677   29.6980 N   0  3  0  0  0  0  0  0  0  0  0  0
   -3.3557    2.1239   31.0476 C   0  0  2  0  0  0  0  0  0  0  0  0
   -4.3584    2.5847   32.1236 C   0  0  0  0  0  0  0  0  0  0  0  0
   -4.1158    3.6191   32.7271 O   0  5  0  0  0  0  0  0  0  0  0  0
   -1.9817    2.8214   31.2371 C   0  0  0  0  0  0  0  0  0  0  0  0
   -1.0009    2.4175   30.1300 C   0  0  0  0  0  0  0  0  0  0  0  0
    0.3951    2.9263   30.4724 C   0  0  0  0  0  0  0  0  0  0  0  0
    0.9560    2.1420   31.6111 N   0  0  0  0  0  0  0  0  0  0  0  0
    1.9654    1.3272   31.4191 C   0  0  0  0  0  0  0  0  0  0  0  0
    2.9135    1.6376   30.5702 N   0  0  0  0  0  0  0  0  0  0  0  0
    2.0293    0.2020   32.0814 N   0  3  0  0  0  0  0  0  0  0  0  0
   -5.3433    1.8928   32.3343 O   0  0  0  0  0  0  0  0  0  0  0  0
  2  1  1  6  0  0  0
  2  5  1  0  0  0  0
  2  3  1  0  0  0  0
  3  4  1  0  0  0  0
  3 12  2  0  0  0  0
  5  6  1  0  0  0  0
  6  7  1  0  0  0  0
  7  8  1  0  0  0  0
  8  9  1  0  0  0  0
  9 10  1  0  0  0  0
  9 11  2  0  0  0  0
M  CHG  3   1   1   4  -1  11   1
M  END
>  <CHROM.1>
-61.25654142,-57.20194336,-101.77724640,-170.49754144,71.14913494,111.15099876
-1.32902957,2.17290754,31.28044875,3.14002636,-0.19483986,1.95163421

>  <Name>
1koc cryst

>  <RI>
0

>  <Rbt.Current_Directory>
/home/itssahil/PROJECTS/Mol_Feturizer/New_Systems/rnas/1koc

>  <Rbt.Executable>
rbdock ($Id: //depot/dev/client3/rdock/2013.1/src/exe/rbdock.cxx#4 $)

>  <Rbt.Library>
libRbt.so (2013.1, Build901 2013/11/27)

>  <Rbt.Parameter_File>
/export/apps/rDock/src/rDock_2013.1_src/data/scripts/dock_solv.prm

>  <Rbt.Receptor>
prm/blind_docking_60.prm

>  <SCORE>
-36.5928

>  <SCORE.INTER>
-34.4522

>  <SCORE.INTER.CONST>
1

>  <SCORE.INTER.POLAR>
-6.09291

>  <SCORE.INTER.ROT>
5

>  <SCORE.INTER.SOLV>
33.8383

>  <SCORE.INTER.VDW>
-20.8712

>  <SCORE.INTER.norm>
-2.87102

>  <SCORE.INTRA>
-2.15024

>  <SCORE.INTRA.DIHEDRAL>
-1.73621

>  <SCORE.INTRA.DIHEDRAL.0>
6.04201

>  <SCORE.INTRA.POLAR>
0

>  <SCORE.INTRA.POLAR.0>
0

>  <SCORE.INTRA.REPUL>
0

>  <SCORE.INTRA.REPUL.0>
0

>  <SCORE.INTRA.SOLV>
-0.737286

>  <SCORE.INTRA.SOLV.lig_0>
-71.0481

>  <SCORE.INTRA.VDW>
-0.91349

>  <SCORE.INTRA.VDW.0>
0.968882

>  <SCORE.INTRA.norm>
-0.179187

>  <SCORE.RESTR>
0.00969838

>  <SCORE.RESTR.CAVITY>
0.00969838

>  <SCORE.RESTR.norm>
0.000808198

>  <SCORE.SYSTEM>
0

>  <SCORE.SYSTEM.CONST>
0

>  <SCORE.SYSTEM.DIHEDRAL>
0

>  <SCORE.SYSTEM.SOLV>
0

>  <SCORE.SYSTEM.norm>
0

>  <SCORE.heavy>
12

>  <SCORE.norm>
-3.0494

>  <SYMMETRIC_BONDS>
11 12 2
5 6 2

>  <RMSD>
6.930

$$$$
1koc cryst
 OpenBabel11021811393D
libRbt.so/2013.1/901 2013/11/27
 12 11  0  0  0  0  0  0  0  0999 V2000
   -4.0570    3.7045   32.4635 N   0  3  0  0  0  0  0  0  0  0  0  0
   -3.4125    3.0905   31.2633 C   0  0  2  0  0  0  0  0  0  0  0  0
   -4.1492    1.7835   30.9106 C   0  0  0  0  0  0  0  0  0  0  0  0
   -3.7493    1.1417   29.9508 O   0  5  0  0  0  0  0  0  0  0  0  0
   -1.9165    2.8156   31.5741 C   0  0  0  0  0  0  0  0  0  0  0  0
   -1.1299    2.5286   30.2897 C   0  0  0  0  0  0  0  0  0  0  0  0
    0.3395    2.8767   30.5008 C   0  0  0  0  0  0  0  0  0  0  0  0
    0.8925    2.0778   31.6332 N   0  0  0  0  0  0  0  0  0  0  0  0
    1.9240    1.2902   31.4452 C   0  0  0  0  0  0  0  0  0  0  0  0
    2.8834    1.6415   30.6254 N   0  0  0  0  0  0  0  0  0  0  0  0
    1.9985    0.1511   32.0822 N   0  3  0  0  0  0  0  0  0  0  0  0
   -5.1049    1.4522   31.5963 O   0  0  0  0  0  0  0  0  0  0  0  0
  2  1  1  1  0  0  0
  2  5  1  0  0  0  0
  2  3  1  0  0  0  0
  3  4  1  0  0  0  0
  3 12  2  0  0  0  0
  5  6  1  0  0  0  0
  6  7  1  0  0  0  0
  7  8  1  0  0  0  0
  8  9  1  0  0  0  0
  9 10  1  0  0  0  0
  9 11  2  0  0  0  0
M  CHG  3   1   1   4  -1  11   1
M  END
>  <CHROM.1>
-62.43930225,-165.42619384,-179.72081237,154.78689400,58.74769224,121.93408253
-1.30303360,2.03665877,31.22193994,-2.99513085,0.02042966,-2.88776275

>  <Name>
1koc cryst

>  <RI>
0

>  <Rbt.Current_Directory>
/home/itssahil/PROJECTS/Mol_Feturizer/New_Systems/rnas/1koc

>  <Rbt.Executable>
rbdock ($Id: //depot/dev/client3/rdock/2013.1/src/exe/rbdock.cxx#4 $)

>  <Rbt.Library>
libRbt.so (2013.1, Build901 2013/11/27)

>  <Rbt.Parameter_File>
/export/apps/rDock/src/rDock_2013.1_src/data/scripts/dock_solv.prm

>  <Rbt.Receptor>
prm/blind_docking_40.prm

>  <SCORE>
-31.0703

>  <SCORE.INTER>
-29.5384

>  <SCORE.INTER.CONST>
1

>  <SCORE.INTER.POLAR>
-5.21889

>  <SCORE.INTER.ROT>
5

>  <SCORE.INTER.SOLV>
36.1827

>  <SCORE.INTER.VDW>
-21.2902

>  <SCORE.INTER.norm>
-2.46154

>  <SCORE.INTRA>
-1.53189

>  <SCORE.INTRA.DIHEDRAL>
0.434668

>  <SCORE.INTRA.DIHEDRAL.0>
6.04201

>  <SCORE.INTRA.POLAR>
0

>  <SCORE.INTRA.POLAR.0>
0

>  <SCORE.INTRA.REPUL>
0

>  <SCORE.INTRA.REPUL.0>
0

>  <SCORE.INTRA.SOLV>
-0.757402

>  <SCORE.INTRA.SOLV.lig_0>
-71.0481

>  <SCORE.INTRA.VDW>
-1.37052

>  <SCORE.INTRA.VDW.0>
0.968882

>  <SCORE.INTRA.norm>
-0.127657

>  <SCORE.RESTR>
0

>  <SCORE.RESTR.CAVITY>
0

>  <SCORE.RESTR.norm>
0

>  <SCORE.SYSTEM>
0

>  <SCORE.SYSTEM.CONST>
0

>  <SCORE.SYSTEM.DIHEDRAL>
0

>  <SCORE.SYSTEM.SOLV>
0

>  <SCORE.SYSTEM.norm>
0

>  <SCORE.heavy>
12

>  <SCORE.norm>
-2.58919

>  <SYMMETRIC_BONDS>
11 12 2
5 6 2

>  <RMSD>
6.989

$$$$
1koc cryst
 OpenBabel11021811393D
libRbt.so/2013.1/901 2013/11/27
 12 11  0  0  0  0  0  0  0  0999 V2000
   -1.7848    0.3054   28.6537 N   0  3  0  0  0  0  0  0  0  0  0  0
   -2.8457    1.2508   29.1158 C   0  0  2  0  0  0  0  0  0  0  0  0
   -3.1749    2.2333   27.9748 C   0  0  0  0  0  0  0  0  0  0  0  0
   -4.3514    2.4302   27.7101 O   0  5  0  0  0  0  0  0  0  0  0  0
   -2.3381    2.0108   30.3708 C   0  0  0  0  0  0  0  0  0  0  0  0
   -1.0026    2.7097   30.0898 C   0  0  0  0  0  0  0  0  0  0  0  0
    0.0276    2.2818   31.1292 C   0  0  0  0  0  0  0  0  0  0  0  0
    1.3972    2.6556   30.6700 N   0  0  0  0  0  0  0  0  0  0  0  0
    2.4276    1.9087   30.9864 C   0  0  0  0  0  0  0  0  0  0  0  0
    2.3070    0.6055   31.0433 N   0  0  0  0  0  0  0  0  0  0  0  0
    3.5822    2.4660   31.2415 N   0  3  0  0  0  0  0  0  0  0  0  0
   -2.2488    2.7625   27.3786 O   0  0  0  0  0  0  0  0  0  0  0  0
  2  1  1  6  0  0  0
  2  5  1  0  0  0  0
  2  3  1  0  0  0  0
  3  4  1  0  0  0  0
  3 12  2  0  0  0  0
  5  6  1  0  0  0  0
  6  7  1  0  0  0  0
  7  8  1  0  0  0  0
  8  9  1  0  0  0  0
  9 10  1  0  0  0  0
  9 11  2  0  0  0  0
M  CHG  3   1   1   4  -1  11   1
M  END
>  <CHROM.1>
66.94359442,55.09168889,132.64494856,-125.78018808,165.06608189,-147.34780636
-0.63636276,1.94743528,29.67383133,3.08331836,-0.47028382,-0.09299577

>  <Name>
1koc cryst

>  <RI>
0

>  <Rbt.Current_Directory>
/home/itssahil/PROJECTS/Mol_Feturizer/New_Systems/rnas/1koc

>  <Rbt.Executable>
rbdock ($Id: //depot/dev/client3/rdock/2013.1/src/exe/rbdock.cxx#4 $)

>  <Rbt.Library>
libRbt.so (2013.1, Build901 2013/11/27)

>  <Rbt.Parameter_File>
/export/apps/rDock/src/rDock_2013.1_src/data/scripts/dock_solv.prm

>  <Rbt.Receptor>
prm/blind_docking_100.prm

>  <SCORE>
-35.4416

>  <SCORE.INTER>
-36.8128

>  <SCORE.INTER.CONST>
1

>  <SCORE.INTER.POLAR>
-7.2476

>  <SCORE.INTER.ROT>
5

>  <SCORE.INTER.SOLV>
29.0197

>  <SCORE.INTER.VDW>
-16.9898

>  <SCORE.INTER.norm>
-3.06774

>  <SCORE.INTRA>
1.37125

>  <SCORE.INTRA.DIHEDRAL>
4.38279

>  <SCORE.INTRA.DIHEDRAL.0>
6.04201

>  <SCORE.INTRA.POLAR>
0

>  <SCORE.INTRA.POLAR.0>
0

>  <SCORE.INTRA.REPUL>
0

>  <SCORE.INTRA.REPUL.0>
0

>  <SCORE.INTRA.SOLV>
0.951141

>  <SCORE.INTRA.SOLV.lig_0>
-71.0481

>  <SCORE.INTRA.VDW>
-1.29571

>  <SCORE.INTRA.VDW.0>
0.968882

>  <SCORE.INTRA.norm>
0.114271

>  <SCORE.RESTR>
0

>  <SCORE.RESTR.CAVITY>
0

>  <SCORE.RESTR.norm>
0

>  <SCORE.SYSTEM>
0

>  <SCORE.SYSTEM.CONST>
0

>  <SCORE.SYSTEM.DIHEDRAL>
0

>  <SCORE.SYSTEM.SOLV>
0

>  <SCORE.SYSTEM.norm>
0

>  <SCORE.heavy>
12

>  <SCORE.norm>
-2.95347

>  <SYMMETRIC_BONDS>
11 12 2
5 6 2

>  <RMSD>
7.021

$$$$
1koc cryst
 OpenBabel11021811393D
libRbt.so/2013.1/901 2013/11/27
 12 11  0  0  0  0  0  0  0  0999 V2000
   -3.8672    2.5090   28.8254 N   0  3  0  0  0  0  0  0  0  0  0  0
   -2.4629    1.9986   28.8393 C   0  0  2  0  0  0  0  0  0  0  0  0
   -2.3966    0.6881   28.0308 C   0  0  0  0  0  0  0  0  0  0  0  0
   -3.1908    0.5398   27.1142 O   0  5  0  0  0  0  0  0  0  0  0  0
   -2.0213    1.7647   30.3091 C   0  0  0  0  0  0  0  0  0  0  0  0
   -1.3666    3.0212   30.8951 C   0  0  0  0  0  0  0  0  0  0  0  0
    0.1166    3.0377   30.5420 C   0  0  0  0  0  0  0  0  0  0  0  0
    0.8614    2.1036   31.4359 N   0  0  0  0  0  0  0  0  0  0  0  0
    2.0235    1.6207   31.0669 C   0  0  0  0  0  0  0  0  0  0  0  0
    2.8609    2.3619   30.3847 N   0  0  0  0  0  0  0  0  0  0  0  0
    2.3507    0.3958   31.3853 N   0  3  0  0  0  0  0  0  0  0  0  0
   -1.5634   -0.1480   28.3470 O   0  0  0  0  0  0  0  0  0  0  0  0
  2  1  1  1  0  0  0
  2  5  1  0  0  0  0
  2  3  1  0  0  0  0
  3  4  1  0  0  0  0
  3 12  2  0  0  0  0
  5  6  1  0  0  0  0
  6  7  1  0  0  0  0
  7  8  1  0  0  0  0
  8  9  1  0  0  0  0
  9 10  1  0  0  0  0
  9 11  2  0  0  0  0
M  CHG  3   1   1   4  -1  11   1
M  END
>  <CHROM.1>
-58.36593999,-90.45532085,29.16537630,-85.76307684,-77.93601614,157.76659874
-0.73256953,1.64359826,29.75129755,2.77491928,0.36633005,-2.47933445

>  <Name>
1koc cryst

>  <RI>
0

>  <Rbt.Current_Directory>
/home/itssahil/PROJECTS/Mol_Feturizer/New_Systems/rnas/1koc

>  <Rbt.Executable>
rbdock ($Id: //depot/dev/client3/rdock/2013.1/src/exe/rbdock.cxx#4 $)

>  <Rbt.Library>
libRbt.so (2013.1, Build901 2013/11/27)

>  <Rbt.Parameter_File>
/export/apps/rDock/src/rDock_2013.1_src/data/scripts/dock_solv.prm

>  <Rbt.Receptor>
prm/blind_docking_80.prm

>  <SCORE>
-27.2536

>  <SCORE.INTER>
-27.1837

>  <SCORE.INTER.CONST>
1

>  <SCORE.INTER.POLAR>
-5.34185

>  <SCORE.INTER.ROT>
5

>  <SCORE.INTER.SOLV>
30.0636

>  <SCORE.INTER.VDW>
-17.2708

>  <SCORE.INTER.norm>
-2.26531

>  <SCORE.INTRA>
-0.0798307

>  <SCORE.INTRA.DIHEDRAL>
3.56647

>  <SCORE.INTRA.DIHEDRAL.0>
6.04201

>  <SCORE.INTRA.POLAR>
0

>  <SCORE.INTRA.POLAR.0>
0

>  <SCORE.INTRA.REPUL>
0

>  <SCORE.INTRA.REPUL.0>
0

>  <SCORE.INTRA.SOLV>
-0.773944

>  <SCORE.INTRA.SOLV.lig_0>
-71.0481

>  <SCORE.INTRA.VDW>
-1.4761

>  <SCORE.INTRA.VDW.0>
0.968882

>  <SCORE.INTRA.norm>
-0.00665256

>  <SCORE.RESTR>
0.00989498

>  <SCORE.RESTR.CAVITY>
0.00989498

>  <SCORE.RESTR.norm>
0.000824582

>  <SCORE.SYSTEM>
0

>  <SCORE.SYSTEM.CONST>
0

>  <SCORE.SYSTEM.DIHEDRAL>
0

>  <SCORE.SYSTEM.SOLV>
0

>  <SCORE.SYSTEM.norm>
0

>  <SCORE.heavy>
12

>  <SCORE.norm>
-2.27114

>  <SYMMETRIC_BONDS>
11 12 2
5 6 2

>  <RMSD>
7.021

$$$$
1koc cryst
 OpenBabel11021811393D
libRbt.so/2013.1/901 2013/11/27
 12 11  0  0  0  0  0  0  0  0999 V2000
   -4.7030    3.0438   28.9396 N   0  3  0  0  0  0  0  0  0  0  0  0
   -3.9429    2.1819   29.8947 C   0  0  2  0  0  0  0  0  0  0  0  0
   -4.2674    2.6216   31.3359 C   0  0  0  0  0  0  0  0  0  0  0  0
   -4.8493    1.8275   32.0596 O   0  5  0  0  0  0  0  0  0  0  0  0
   -2.4239    2.3175   29.6039 C   0  0  0  0  0  0  0  0  0  0  0  0
   -1.6134    2.3447   30.9051 C   0  0  0  0  0  0  0  0  0  0  0  0
   -0.1344    2.5287   30.5831 C   0  0  0  0  0  0  0  0  0  0  0  0
    0.6982    2.0025   31.7038 N   0  0  0  0  0  0  0  0  0  0  0  0
    1.7556    1.2682   31.4539 C   0  0  0  0  0  0  0  0  0  0  0  0
    2.5059    1.5230   30.4108 N   0  0  0  0  0  0  0  0  0  0  0  0
    2.0660    0.2803   32.2516 N   0  3  0  0  0  0  0  0  0  0  0  0
   -3.9403    3.7450   31.6881 O   0  0  0  0  0  0  0  0  0  0  0  0
  2  1  1  6  0  0  0
  2  5  1  0  0  0  0
  2  3  1  0  0  0  0
  3  4  1  0  0  0  0
  3 12  2  0  0  0  0
  5  6  1  0  0  0  0
  6  7  1  0  0  0  0
  7  8  1  0  0  0  0
  8  9  1  0  0  0  0
  9 10  1  0  0  0  0
  9 11  2  0  0  0  0
M  CHG  3   1   1   4  -1  11   1
M  END
>  <CHROM.1>
54.34646528,140.81453847,115.41083684,-177.98147218,-156.45109872,135.91189825
-1.58063488,2.14695583,30.90002462,-2.96173888,-0.19457624,1.83984827

>  <Name>
1koc cryst

>  <RI>
0

>  <Rbt.Current_Directory>
/home/itssahil/PROJECTS/Mol_Feturizer/New_Systems/rnas/1koc

>  <Rbt.Executable>
rbdock ($Id: //depot/dev/client3/rdock/2013.1/src/exe/rbdock.cxx#4 $)

>  <Rbt.Library>
libRbt.so (2013.1, Build901 2013/11/27)

>  <Rbt.Parameter_File>
/export/apps/rDock/src/rDock_2013.1_src/data/scripts/dock_solv.prm

>  <Rbt.Receptor>
prm/blind_docking_100.prm

>  <SCORE>
-24.1856

>  <SCORE.INTER>
-25.9583

>  <SCORE.INTER.CONST>
1

>  <SCORE.INTER.POLAR>
-5.49425

>  <SCORE.INTER.ROT>
5

>  <SCORE.INTER.SOLV>
33.5946

>  <SCORE.INTER.VDW>
-17.1229

>  <SCORE.INTER.norm>
-2.1632

>  <SCORE.INTRA>
1.62114

>  <SCORE.INTRA.DIHEDRAL>
3.09668

>  <SCORE.INTRA.DIHEDRAL.0>
6.04201

>  <SCORE.INTRA.POLAR>
0

>  <SCORE.INTRA.POLAR.0>
0

>  <SCORE.INTRA.REPUL>
0

>  <SCORE.INTRA.REPUL.0>
0

>  <SCORE.INTRA.SOLV>
-0.812807

>  <SCORE.INTRA.SOLV.lig_0>
-71.0481

>  <SCORE.INTRA.VDW>
0.479207

>  <SCORE.INTRA.VDW.0>
0.968882

>  <SCORE.INTRA.norm>
0.135095

>  <SCORE.RESTR>
0.151617

>  <SCORE.RESTR.CAVITY>
0.151617

>  <SCORE.RESTR.norm>
0.0126347

>  <SCORE.SYSTEM>
0

>  <SCORE.SYSTEM.CONST>
0

>  <SCORE.SYSTEM.DIHEDRAL>
0

>  <SCORE.SYSTEM.SOLV>
0

>  <SCORE.SYSTEM.norm>
0

>  <SCORE.heavy>
12

>  <SCORE.norm>
-2.01547

>  <SYMMETRIC_BONDS>
11 12 2
5 6 2

>  <RMSD>
7.044

$$$$
1koc cryst
 OpenBabel11021811393D
libRbt.so/2013.1/901 2013/11/27
 12 11  0  0  0  0  0  0  0  0999 V2000
   -4.6752    3.0371   28.8989 N   0  3  0  0  0  0  0  0  0  0  0  0
   -3.9298    2.1605   29.8521 C   0  0  2  0  0  0  0  0  0  0  0  0
   -4.2635    2.5888   31.2946 C   0  0  0  0  0  0  0  0  0  0  0  0
   -4.8201    1.7772   32.0188 O   0  5  0  0  0  0  0  0  0  0  0  0
   -2.4075    2.2874   29.5756 C   0  0  0  0  0  0  0  0  0  0  0  0
   -1.6129    2.3567   30.8851 C   0  0  0  0  0  0  0  0  0  0  0  0
   -0.1293    2.5243   30.5753 C   0  0  0  0  0  0  0  0  0  0  0  0
    0.6882    1.9761   31.6967 N   0  0  0  0  0  0  0  0  0  0  0  0
    1.7422    1.2370   31.4469 C   0  0  0  0  0  0  0  0  0  0  0  0
    2.5046    1.5001   30.4146 N   0  0  0  0  0  0  0  0  0  0  0  0
    2.0372    0.2358   32.2339 N   0  3  0  0  0  0  0  0  0  0  0  0
   -3.9686    3.7210   31.6473 O   0  0  0  0  0  0  0  0  0  0  0  0
  2  1  1  6  0  0  0
  2  5  1  0  0  0  0
  2  3  1  0  0  0  0
  3  4  1  0  0  0  0
  3 12  2  0  0  0  0
  5  6  1  0  0  0  0
  6  7  1  0  0  0  0
  7  8  1  0  0  0  0
  8  9  1  0  0  0  0
  9 10  1  0  0  0  0
  9 11  2  0  0  0  0
M  CHG  3   1   1   4  -1  11   1
M  END
>  <CHROM.1>
-67.59230706,138.37451713,117.66980371,-178.25362496,-153.83050738,136.32206708
-1.57937528,2.12328329,30.87580287,-2.95268000,-0.19241922,1.85540435

>  <Name>
1koc cryst

>  <RI>
0

>  <Rbt.Current_Directory>
/home/itssahil/PROJECTS/Mol_Feturizer/New_Systems/rnas/1koc

>  <Rbt.Executable>
rbdock ($Id: //depot/dev/client3/rdock/2013.1/src/exe/rbdock.cxx#4 $)

>  <Rbt.Library>
libRbt.so (2013.1, Build901 2013/11/27)

>  <Rbt.Parameter_File>
/export/apps/rDock/src/rDock_2013.1_src/data/scripts/dock_solv.prm

>  <Rbt.Receptor>
prm/blind_docking_100.prm

>  <SCORE>
-24.0915

>  <SCORE.INTER>
-26.3422

>  <SCORE.INTER.CONST>
1

>  <SCORE.INTER.POLAR>
-5.54148

>  <SCORE.INTER.ROT>
5

>  <SCORE.INTER.SOLV>
33.6953

>  <SCORE.INTER.VDW>
-17.255

>  <SCORE.INTER.norm>
-2.19518

>  <SCORE.INTRA>
2.1168

>  <SCORE.INTRA.DIHEDRAL>
3.80043

>  <SCORE.INTRA.DIHEDRAL.0>
6.04201

>  <SCORE.INTRA.POLAR>
0

>  <SCORE.INTRA.POLAR.0>
0

>  <SCORE.INTRA.REPUL>
0

>  <SCORE.INTRA.REPUL.0>
0

>  <SCORE.INTRA.SOLV>
-0.771486

>  <SCORE.INTRA.SOLV.lig_0>
-71.0481

>  <SCORE.INTRA.VDW>
0.60233

>  <SCORE.INTRA.VDW.0>
0.968882

>  <SCORE.INTRA.norm>
0.1764

>  <SCORE.RESTR>
0.133894

>  <SCORE.RESTR.CAVITY>
0.133894

>  <SCORE.RESTR.norm>
0.0111579

>  <SCORE.SYSTEM>
0

>  <SCORE.SYSTEM.CONST>
0

>  <SCORE.SYSTEM.DIHEDRAL>
0

>  <SCORE.SYSTEM.SOLV>
0

>  <SCORE.SYSTEM.norm>
0

>  <SCORE.heavy>
12

>  <SCORE.norm>
-2.00763

>  <SYMMETRIC_BONDS>
11 12 2
5 6 2

>  <RMSD>
7.048

$$$$
1koc cryst
 OpenBabel11021811393D
libRbt.so/2013.1/901 2013/11/27
 12 11  0  0  0  0  0  0  0  0999 V2000
   -4.0612    1.6922   30.4606 N   0  3  0  0  0  0  0  0  0  0  0  0
   -3.0365    2.2792   29.5450 C   0  0  2  0  0  0  0  0  0  0  0  0
   -3.2319    1.6953   28.1321 C   0  0  0  0  0  0  0  0  0  0  0  0
   -3.4447    2.4741   27.2149 O   0  5  0  0  0  0  0  0  0  0  0  0
   -1.6202    1.9496   30.0887 C   0  0  0  0  0  0  0  0  0  0  0  0
   -0.8997    3.2195   30.5567 C   0  0  0  0  0  0  0  0  0  0  0  0
    0.6086    3.0058   30.4913 C   0  0  0  0  0  0  0  0  0  0  0  0
    1.0450    2.1228   31.6121 N   0  0  0  0  0  0  0  0  0  0  0  0
    2.0341    1.2786   31.4422 C   0  0  0  0  0  0  0  0  0  0  0  0
    3.0588    1.6028   30.6932 N   0  0  0  0  0  0  0  0  0  0  0  0
    2.0006    0.1098   32.0266 N   0  3  0  0  0  0  0  0  0  0  0  0
   -3.1771    0.4826   27.9919 O   0  0  0  0  0  0  0  0  0  0  0  0
  2  1  1  1  0  0  0
  2  5  1  0  0  0  0
  2  3  1  0  0  0  0
  3  4  1  0  0  0  0
  3 12  2  0  0  0  0
  5  6  1  0  0  0  0
  6  7  1  0  0  0  0
  7  8  1  0  0  0  0
  8  9  1  0  0  0  0
  9 10  1  0  0  0  0
  9 11  2  0  0  0  0
M  CHG  3   1   1   4  -1  11   1
M  END
>  <CHROM.1>
-122.32195943,-112.87555465,121.64216409,-154.97480589,-74.44401862,145.63585220
-0.91017041,1.79493612,30.02978156,2.67881184,0.09712476,-1.63454128

>  <Name>
1koc cryst

>  <RI>
0

>  <Rbt.Current_Directory>
/home/itssahil/PROJECTS/Mol_Feturizer/New_Systems/rnas/1koc

>  <Rbt.Executable>
rbdock ($Id: //depot/dev/client3/rdock/2013.1/src/exe/rbdock.cxx#4 $)

>  <Rbt.Library>
libRbt.so (2013.1, Build901 2013/11/27)

>  <Rbt.Parameter_File>
/export/apps/rDock/src/rDock_2013.1_src/data/scripts/dock_solv.prm

>  <Rbt.Receptor>
prm/blind_docking_100.prm

>  <SCORE>
-26.8721

>  <SCORE.INTER>
-29.2744

>  <SCORE.INTER.CONST>
1

>  <SCORE.INTER.POLAR>
-6.56891

>  <SCORE.INTER.ROT>
5

>  <SCORE.INTER.SOLV>
31.9363

>  <SCORE.INTER.VDW>
-15.1987

>  <SCORE.INTER.norm>
-2.43953

>  <SCORE.INTRA>
2.40226

>  <SCORE.INTRA.DIHEDRAL>
8.97043

>  <SCORE.INTRA.DIHEDRAL.0>
6.04201

>  <SCORE.INTRA.POLAR>
0

>  <SCORE.INTRA.POLAR.0>
0

>  <SCORE.INTRA.REPUL>
0

>  <SCORE.INTRA.REPUL.0>
0

>  <SCORE.INTRA.SOLV>
-1.5512

>  <SCORE.INTRA.SOLV.lig_0>
-71.0481

>  <SCORE.INTRA.VDW>
-1.30735

>  <SCORE.INTRA.VDW.0>
0.968882

>  <SCORE.INTRA.norm>
0.200189

>  <SCORE.RESTR>
0

>  <SCORE.RESTR.CAVITY>
0

>  <SCORE.RESTR.norm>
0

>  <SCORE.SYSTEM>
0

>  <SCORE.SYSTEM.CONST>
0

>  <SCORE.SYSTEM.DIHEDRAL>
0

>  <SCORE.SYSTEM.SOLV>
0

>  <SCORE.SYSTEM.norm>
0

>  <SCORE.heavy>
12

>  <SCORE.norm>
-2.23934

>  <SYMMETRIC_BONDS>
11 12 2
5 6 2

>  <RMSD>
7.067

$$$$
1koc cryst
 OpenBabel11021811393D
libRbt.so/2013.1/901 2013/11/27
 12 11  0  0  0  0  0  0  0  0999 V2000
   -3.4970    0.2052   29.2023 N   0  3  0  0  0  0  0  0  0  0  0  0
   -3.0254    1.2997   30.1037 C   0  0  2  0  0  0  0  0  0  0  0  0
   -4.0395    2.4595   30.0590 C   0  0  0  0  0  0  0  0  0  0  0  0
   -4.7779    2.5375   29.0886 O   0  5  0  0  0  0  0  0  0  0  0  0
   -1.6224    1.7735   29.6374 C   0  0  0  0  0  0  0  0  0  0  0  0
   -1.1067    2.9189   30.5165 C   0  0  0  0  0  0  0  0  0  0  0  0
    0.4175    2.9442   30.4821 C   0  0  0  0  0  0  0  0  0  0  0  0
    0.9640    2.1455   31.6178 N   0  0  0  0  0  0  0  0  0  0  0  0
    1.9668    1.3226   31.4254 C   0  0  0  0  0  0  0  0  0  0  0  0
    2.9229    1.6306   30.5846 N   0  0  0  0  0  0  0  0  0  0  0  0
    2.0159    0.1916   32.0791 N   0  3  0  0  0  0  0  0  0  0  0  0
   -4.0539    3.2546   30.9868 O   0  0  0  0  0  0  0  0  0  0  0  0
  2  1  1  6  0  0  0
  2  5  1  0  0  0  0
  2  3  1  0  0  0  0
  3  4  1  0  0  0  0
  3 12  2  0  0  0  0
  5  6  1  0  0  0  0
  6  7  1  0  0  0  0
  7  8  1  0  0  0  0
  8  9  1  0  0  0  0
  9 10  1  0  0  0  0
  9 11  2  0  0  0  0
M  CHG  3   1   1   4  -1  11   1
M  END
>  <CHROM.1>
59.04249190,178.84065606,-21.71866787,154.67059381,-92.95024020,136.16555995
-1.16370509,1.85918321,30.47279035,3.08807990,-0.26780605,0.23090505

>  <Name>
1koc cryst

>  <RI>
0

>  <Rbt.Current_Directory>
/home/itssahil/PROJECTS/Mol_Feturizer/New_Systems/rnas/1koc

>  <Rbt.Executable>
rbdock ($Id: //depot/dev/client3/rdock/2013.1/src/exe/rbdock.cxx#4 $)

>  <Rbt.Library>
libRbt.so (2013.1, Build901 2013/11/27)

>  <Rbt.Parameter_File>
/export/apps/rDock/src/rDock_2013.1_src/data/scripts/dock_solv.prm

>  <Rbt.Receptor>
prm/blind_docking_80.prm

>  <SCORE>
-33.0877

>  <SCORE.INTER>
-32.3121

>  <SCORE.INTER.CONST>
1

>  <SCORE.INTER.POLAR>
-6.36568

>  <SCORE.INTER.ROT>
5

>  <SCORE.INTER.SOLV>
34.1092

>  <SCORE.INTER.VDW>
-18.6256

>  <SCORE.INTER.norm>
-2.69268

>  <SCORE.INTRA>
-0.78359

>  <SCORE.INTRA.DIHEDRAL>
2.90895

>  <SCORE.INTRA.DIHEDRAL.0>
6.04201

>  <SCORE.INTRA.POLAR>
0

>  <SCORE.INTRA.POLAR.0>
0

>  <SCORE.INTRA.REPUL>
0

>  <SCORE.INTRA.REPUL.0>
0

>  <SCORE.INTRA.SOLV>
-0.929858

>  <SCORE.INTRA.SOLV.lig_0>
-71.0481

>  <SCORE.INTRA.VDW>
-1.77313

>  <SCORE.INTRA.VDW.0>
0.968882

>  <SCORE.INTRA.norm>
-0.0652992

>  <SCORE.RESTR>
0.00799299

>  <SCORE.RESTR.CAVITY>
0.00799299

>  <SCORE.RESTR.norm>
0.000666082

>  <SCORE.SYSTEM>
0

>  <SCORE.SYSTEM.CONST>
0

>  <SCORE.SYSTEM.DIHEDRAL>
0

>  <SCORE.SYSTEM.SOLV>
0

>  <SCORE.SYSTEM.norm>
0

>  <SCORE.heavy>
12

>  <SCORE.norm>
-2.75731

>  <SYMMETRIC_BONDS>
11 12 2
5 6 2

>  <RMSD>
7.092

$$$$
1koc cryst
 OpenBabel11021811393D
libRbt.so/2013.1/901 2013/11/27
 12 11  0  0  0  0  0  0  0  0999 V2000
   -3.6007    1.1228   29.9058 N   0  3  0  0  0  0  0  0  0  0  0  0
   -3.6349    2.0542   31.0738 C   0  0  2  0  0  0  0  0  0  0  0  0
   -4.5780    3.2298   30.7516 C   0  0  0  0  0  0  0  0  0  0  0  0
   -4.8373    4.0184   31.6482 O   0  5  0  0  0  0  0  0  0  0  0  0
   -2.1963    2.5620   31.3616 C   0  0  0  0  0  0  0  0  0  0  0  0
   -1.2932    2.3851   30.1352 C   0  0  0  0  0  0  0  0  0  0  0  0
    0.0763    2.9937   30.4160 C   0  0  0  0  0  0  0  0  0  0  0  0
    0.7479    2.2449   31.5182 N   0  0  0  0  0  0  0  0  0  0  0  0
    1.7953    1.4969   31.2670 C   0  0  0  0  0  0  0  0  0  0  0  0
    2.6736    1.8690   30.3691 N   0  0  0  0  0  0  0  0  0  0  0  0
    1.9674    0.3769   31.9189 N   0  3  0  0  0  0  0  0  0  0  0  0
   -5.0332    3.3163   29.6209 O   0  0  0  0  0  0  0  0  0  0  0  0
  2  1  1  6  0  0  0
  2  5  1  0  0  0  0
  2  3  1  0  0  0  0
  3  4  1  0  0  0  0
  3 12  2  0  0  0  0
  5  6  1  0  0  0  0
  6  7  1  0  0  0  0
  7  8  1  0  0  0  0
  8  9  1  0  0  0  0
  9 10  1  0  0  0  0
  9 11  2  0  0  0  0
M  CHG  3   1   1   4  -1  11   1
M  END
>  <CHROM.1>
47.52760649,19.98923199,172.46544687,175.53664267,64.45455857,110.39482912
-1.49410705,2.28249624,30.81702445,2.93583541,-0.13472755,0.22476862

>  <Name>
1koc cryst

>  <RI>
0

>  <Rbt.Current_Directory>
/home/itssahil/PROJECTS/Mol_Feturizer/New_Systems/rnas/1koc

>  <Rbt.Executable>
rbdock ($Id: //depot/dev/client3/rdock/2013.1/src/exe/rbdock.cxx#4 $)

>  <Rbt.Library>
libRbt.so (2013.1, Build901 2013/11/27)

>  <Rbt.Parameter_File>
/export/apps/rDock/src/rDock_2013.1_src/data/scripts/dock_solv.prm

>  <Rbt.Receptor>
prm/blind_docking_80.prm

>  <SCORE>
-31.2382

>  <SCORE.INTER>
-32.9145

>  <SCORE.INTER.CONST>
1

>  <SCORE.INTER.POLAR>
-5.73078

>  <SCORE.INTER.ROT>
5

>  <SCORE.INTER.SOLV>
32.5427

>  <SCORE.INTER.VDW>
-20.6213

>  <SCORE.INTER.norm>
-2.74287

>  <SCORE.INTRA>
1.63669

>  <SCORE.INTRA.DIHEDRAL>
1.77631

>  <SCORE.INTRA.DIHEDRAL.0>
6.04201

>  <SCORE.INTRA.POLAR>
0

>  <SCORE.INTRA.POLAR.0>
0

>  <SCORE.INTRA.REPUL>
0

>  <SCORE.INTRA.REPUL.0>
0

>  <SCORE.INTRA.SOLV>
0.578525

>  <SCORE.INTRA.SOLV.lig_0>
-71.0481

>  <SCORE.INTRA.VDW>
0.459272

>  <SCORE.INTRA.VDW.0>
0.968882

>  <SCORE.INTRA.norm>
0.136391

>  <SCORE.RESTR>
0.0396104

>  <SCORE.RESTR.CAVITY>
0.0396104

>  <SCORE.RESTR.norm>
0.00330087

>  <SCORE.SYSTEM>
0

>  <SCORE.SYSTEM.CONST>
0

>  <SCORE.SYSTEM.DIHEDRAL>
0

>  <SCORE.SYSTEM.SOLV>
0

>  <SCORE.SYSTEM.norm>
0

>  <SCORE.heavy>
12

>  <SCORE.norm>
-2.60318

>  <SYMMETRIC_BONDS>
11 12 2
5 6 2

>  <RMSD>
7.100

$$$$
1koc cryst
 OpenBabel11021811393D
libRbt.so/2013.1/901 2013/11/27
 12 11  0  0  0  0  0  0  0  0999 V2000
   -3.7540    1.5386   29.7540 N   0  3  0  0  0  0  0  0  0  0  0  0
   -3.3882    1.9250   31.1503 C   0  0  2  0  0  0  0  0  0  0  0  0
   -4.5853    2.6438   31.8027 C   0  0  0  0  0  0  0  0  0  0  0  0
   -4.5368    3.8606   31.9041 O   0  5  0  0  0  0  0  0  0  0  0  0
   -2.1417    2.8496   31.1122 C   0  0  0  0  0  0  0  0  0  0  0  0
   -1.0655    2.2863   30.1766 C   0  0  0  0  0  0  0  0  0  0  0  0
    0.2887    2.8904   30.5319 C   0  0  0  0  0  0  0  0  0  0  0  0
    0.9077    2.1243   31.6527 N   0  0  0  0  0  0  0  0  0  0  0  0
    1.9216    1.3240   31.4260 C   0  0  0  0  0  0  0  0  0  0  0  0
    2.8295    1.6426   30.5371 N   0  0  0  0  0  0  0  0  0  0  0  0
    2.0304    0.2053   32.0935 N   0  3  0  0  0  0  0  0  0  0  0  0
   -5.5230    1.9680   32.1994 O   0  0  0  0  0  0  0  0  0  0  0  0
  2  1  1  6  0  0  0
  2  5  1  0  0  0  0
  2  3  1  0  0  0  0
  3  4  1  0  0  0  0
  3 12  2  0  0  0  0
  5  6  1  0  0  0  0
  6  7  1  0  0  0  0
  7  8  1  0  0  0  0
  8  9  1  0  0  0  0
  9 10  1  0  0  0  0
  9 11  2  0  0  0  0
M  CHG  3   1   1   4  -1  11   1
M  END
>  <CHROM.1>
-51.08218615,-46.10288366,-103.28620093,-159.36946426,83.99431968,106.68668098
-1.42823118,2.08591568,31.18439485,-3.05803690,-0.15346960,2.29786738

>  <Name>
1koc cryst

>  <RI>
0

>  <Rbt.Current_Directory>
/home/itssahil/PROJECTS/Mol_Feturizer/New_Systems/rnas/1koc

>  <Rbt.Executable>
rbdock ($Id: //depot/dev/client3/rdock/2013.1/src/exe/rbdock.cxx#4 $)

>  <Rbt.Library>
libRbt.so (2013.1, Build901 2013/11/27)

>  <Rbt.Parameter_File>
/export/apps/rDock/src/rDock_2013.1_src/data/scripts/dock_solv.prm

>  <Rbt.Receptor>
prm/blind_docking_80.prm

>  <SCORE>
-34.0914

>  <SCORE.INTER>
-34.0876

>  <SCORE.INTER.CONST>
1

>  <SCORE.INTER.POLAR>
-5.78647

>  <SCORE.INTER.ROT>
5

>  <SCORE.INTER.SOLV>
33.2031

>  <SCORE.INTER.VDW>
-21.4379

>  <SCORE.INTER.norm>
-2.84063

>  <SCORE.INTRA>
-0.0825073

>  <SCORE.INTRA.DIHEDRAL>
1.77051

>  <SCORE.INTRA.DIHEDRAL.0>
6.04201

>  <SCORE.INTRA.POLAR>
0

>  <SCORE.INTRA.POLAR.0>
0

>  <SCORE.INTRA.REPUL>
0

>  <SCORE.INTRA.REPUL.0>
0

>  <SCORE.INTRA.SOLV>
-0.584705

>  <SCORE.INTRA.SOLV.lig_0>
-71.0481

>  <SCORE.INTRA.VDW>
-0.675409

>  <SCORE.INTRA.VDW.0>
0.968882

>  <SCORE.INTRA.norm>
-0.00687561

>  <SCORE.RESTR>
0.0786559

>  <SCORE.RESTR.CAVITY>
0.0786559

>  <SCORE.RESTR.norm>
0.00655466

>  <SCORE.SYSTEM>
0

>  <SCORE.SYSTEM.CONST>
0

>  <SCORE.SYSTEM.DIHEDRAL>
0

>  <SCORE.SYSTEM.SOLV>
0

>  <SCORE.SYSTEM.norm>
0

>  <SCORE.heavy>
12

>  <SCORE.norm>
-2.84095

>  <SYMMETRIC_BONDS>
11 12 2
5 6 2

>  <RMSD>
7.102

$$$$
1koc cryst
 OpenBabel11021811393D
libRbt.so/2013.1/901 2013/11/27
 12 11  0  0  0  0  0  0  0  0999 V2000
   -4.1061    1.9982   29.9359 N   0  3  0  0  0  0  0  0  0  0  0  0
   -3.5986    2.1131   31.3366 C   0  0  2  0  0  0  0  0  0  0  0  0
   -4.6354    2.8742   32.1859 C   0  0  0  0  0  0  0  0  0  0  0  0
   -4.2466    3.8243   32.8485 O   0  5  0  0  0  0  0  0  0  0  0  0
   -2.2377    2.8601   31.3249 C   0  0  0  0  0  0  0  0  0  0  0  0
   -1.2836    2.2519   30.2902 C   0  0  0  0  0  0  0  0  0  0  0  0
    0.1137    2.8325   30.4790 C   0  0  0  0  0  0  0  0  0  0  0  0
    0.8013    2.1427   31.6093 N   0  0  0  0  0  0  0  0  0  0  0  0
    1.8325    1.3655   31.3806 C   0  0  0  0  0  0  0  0  0  0  0  0
    2.6940    1.6692   30.4417 N   0  0  0  0  0  0  0  0  0  0  0  0
    2.0052    0.2850   32.0958 N   0  3  0  0  0  0  0  0  0  0  0  0
   -5.7952    2.4894   32.1691 O   0  0  0  0  0  0  0  0  0  0  0  0
  2  1  1  6  0  0  0
  2  5  1  0  0  0  0
  2  3  1  0  0  0  0
  3  4  1  0  0  0  0
  3 12  2  0  0  0  0
  5  6  1  0  0  0  0
  6  7  1  0  0  0  0
  7  8  1  0  0  0  0
  8  9  1  0  0  0  0
  9 10  1  0  0  0  0
  9 11  2  0  0  0  0
M  CHG  3   1   1   4  -1  11   1
M  END
>  <CHROM.1>
63.61376349,-49.74981093,-128.81066036,-169.71143355,79.90906997,111.82084736
-1.54925439,2.21360446,31.33223413,3.03773519,-0.19421027,1.49799028

>  <Name>
1koc cryst

>  <RI>
0

>  <Rbt.Current_Directory>
/home/itssahil/PROJECTS/Mol_Feturizer/New_Systems/rnas/1koc

>  <Rbt.Executable>
rbdock ($Id: //depot/dev/client3/rdock/2013.1/src/exe/rbdock.cxx#4 $)

>  <Rbt.Library>
libRbt.so (2013.1, Build901 2013/11/27)

>  <Rbt.Parameter_File>
/export/apps/rDock/src/rDock_2013.1_src/data/scripts/dock_solv.prm

>  <Rbt.Receptor>
prm/blind_docking_100.prm

>  <SCORE>
-36.5076

>  <SCORE.INTER>
-35.5364

>  <SCORE.INTER.CONST>
1

>  <SCORE.INTER.POLAR>
-5.66122

>  <SCORE.INTER.ROT>
5

>  <SCORE.INTER.SOLV>
32.8028

>  <SCORE.INTER.VDW>
-22.6878

>  <SCORE.INTER.norm>
-2.96136

>  <SCORE.INTRA>
-0.971253

>  <SCORE.INTRA.DIHEDRAL>
-0.41107

>  <SCORE.INTRA.DIHEDRAL.0>
6.04201

>  <SCORE.INTRA.POLAR>
0

>  <SCORE.INTRA.POLAR.0>
0

>  <SCORE.INTRA.REPUL>
0

>  <SCORE.INTRA.REPUL.0>
0

>  <SCORE.INTRA.SOLV>
-0.479037

>  <SCORE.INTRA.SOLV.lig_0>
-71.0481

>  <SCORE.INTRA.VDW>
-0.5262

>  <SCORE.INTRA.VDW.0>
0.968882

>  <SCORE.INTRA.norm>
-0.0809377

>  <SCORE.RESTR>
0

>  <SCORE.RESTR.CAVITY>
0

>  <SCORE.RESTR.norm>
0

>  <SCORE.SYSTEM>
0

>  <SCORE.SYSTEM.CONST>
0

>  <SCORE.SYSTEM.DIHEDRAL>
0

>  <SCORE.SYSTEM.SOLV>
0

>  <SCORE.SYSTEM.norm>
0

>  <SCORE.heavy>
12

>  <SCORE.norm>
-3.0423

>  <SYMMETRIC_BONDS>
11 12 2
5 6 2

>  <RMSD>
7.112

$$$$
1koc cryst
 OpenBabel11021811393D
libRbt.so/2013.1/901 2013/11/27
 12 11  0  0  0  0  0  0  0  0999 V2000
   -3.9492    1.7963   29.7850 N   0  3  0  0  0  0  0  0  0  0  0  0
   -3.6373    2.1655   31.1989 C   0  0  2  0  0  0  0  0  0  0  0  0
   -4.7518    3.0847   31.7359 C   0  0  0  0  0  0  0  0  0  0  0  0
   -5.1407    2.9051   32.8802 O   0  5  0  0  0  0  0  0  0  0  0  0
   -2.2601    2.8806   31.2458 C   0  0  0  0  0  0  0  0  0  0  0  0
   -1.2650    2.2250   30.2810 C   0  0  0  0  0  0  0  0  0  0  0  0
    0.1147    2.8466   30.4681 C   0  0  0  0  0  0  0  0  0  0  0  0
    0.8236    2.1779   31.5979 N   0  0  0  0  0  0  0  0  0  0  0  0
    1.8495    1.3952   31.3642 C   0  0  0  0  0  0  0  0  0  0  0  0
    2.6928    1.6797   30.4030 N   0  0  0  0  0  0  0  0  0  0  0  0
    2.0351    0.3284   32.0966 N   0  3  0  0  0  0  0  0  0  0  0  0
   -5.2050    3.9430   30.9934 O   0  0  0  0  0  0  0  0  0  0  0  0
  2  1  1  6  0  0  0
  2  5  1  0  0  0  0
  2  3  1  0  0  0  0
  3  4  1  0  0  0  0
  3 12  2  0  0  0  0
  5  6  1  0  0  0  0
  6  7  1  0  0  0  0
  7  8  1  0  0  0  0
  8  9  1  0  0  0  0
  9 10  1  0  0  0  0
  9 11  2  0  0  0  0
M  CHG  3   1   1   4  -1  11   1
M  END
>  <CHROM.1>
-172.29097294,-39.17343859,139.03459504,-173.58354337,84.13027789,109.50521655
-1.56629861,2.27079409,31.15845358,-3.12893210,-0.23363537,1.76871706

>  <Name>
1koc cryst

>  <RI>
0

>  <Rbt.Current_Directory>
/home/itssahil/PROJECTS/Mol_Feturizer/New_Systems/rnas/1koc

>  <Rbt.Executable>
rbdock ($Id: //depot/dev/client3/rdock/2013.1/src/exe/rbdock.cxx#4 $)

>  <Rbt.Library>
libRbt.so (2013.1, Build901 2013/11/27)

>  <Rbt.Parameter_File>
/export/apps/rDock/src/rDock_2013.1_src/data/scripts/dock_solv.prm

>  <Rbt.Receptor>
prm/pocket_docking_8.prm

>  <SCORE>
-35.0754

>  <SCORE.INTER>
-34.4319

>  <SCORE.INTER.CONST>
1

>  <SCORE.INTER.POLAR>
-5.85911

>  <SCORE.INTER.ROT>
5

>  <SCORE.INTER.SOLV>
32.1451

>  <SCORE.INTER.VDW>
-21.0726

>  <SCORE.INTER.norm>
-2.86932

>  <SCORE.INTRA>
-0.719577

>  <SCORE.INTRA.DIHEDRAL>
1.0262

>  <SCORE.INTRA.DIHEDRAL.0>
6.04201

>  <SCORE.INTRA.POLAR>
0

>  <SCORE.INTRA.POLAR.0>
0

>  <SCORE.INTRA.REPUL>
0

>  <SCORE.INTRA.REPUL.0>
0

>  <SCORE.INTRA.SOLV>
-0.351098

>  <SCORE.INTRA.SOLV.lig_0>
-71.0481

>  <SCORE.INTRA.VDW>
-1.05713

>  <SCORE.INTRA.VDW.0>
0.968882

>  <SCORE.INTRA.norm>
-0.0599647

>  <SCORE.RESTR>
0.0759925

>  <SCORE.RESTR.CAVITY>
0.0759925

>  <SCORE.RESTR.norm>
0.00633271

>  <SCORE.SYSTEM>
0

>  <SCORE.SYSTEM.CONST>
0

>  <SCORE.SYSTEM.DIHEDRAL>
0

>  <SCORE.SYSTEM.SOLV>
0

>  <SCORE.SYSTEM.norm>
0

>  <SCORE.heavy>
12

>  <SCORE.norm>
-2.92295

>  <SYMMETRIC_BONDS>
11 12 2
5 6 2

>  <RMSD>
7.112

$$$$
1koc cryst
 OpenBabel11021811393D
libRbt.so/2013.1/901 2013/11/27
 12 11  0  0  0  0  0  0  0  0999 V2000
   -2.9166    2.1391   26.9199 N   0  3  0  0  0  0  0  0  0  0  0  0
   -2.1248    1.7243   28.1174 C   0  0  2  0  0  0  0  0  0  0  0  0
   -2.1363    0.1865   28.2194 C   0  0  0  0  0  0  0  0  0  0  0  0
   -3.1706   -0.3987   27.9348 O   0  5  0  0  0  0  0  0  0  0  0  0
   -2.7469    2.3674   29.3861 C   0  0  0  0  0  0  0  0  0  0  0  0
   -1.9163    2.0424   30.6332 C   0  0  0  0  0  0  0  0  0  0  0  0
   -0.5202    2.6382   30.4878 C   0  0  0  0  0  0  0  0  0  0  0  0
    0.3416    2.1940   31.6220 N   0  0  0  0  0  0  0  0  0  0  0  0
    1.5368    1.7057   31.3925 C   0  0  0  0  0  0  0  0  0  0  0  0
    2.2739    2.1896   30.4237 N   0  0  0  0  0  0  0  0  0  0  0  0
    1.9978    0.7349   32.1367 N   0  3  0  0  0  0  0  0  0  0  0  0
   -1.1183   -0.3788   28.5898 O   0  0  0  0  0  0  0  0  0  0  0  0
  2  1  1  6  0  0  0
  2  5  1  0  0  0  0
  2  3  1  0  0  0  0
  3  4  1  0  0  0  0
  3 12  2  0  0  0  0
  5  6  1  0  0  0  0
  6  7  1  0  0  0  0
  7  8  1  0  0  0  0
  8  9  1  0  0  0  0
  9 10  1  0  0  0  0
  9 11  2  0  0  0  0
M  CHG  3   1   1   4  -1  11   1
M  END
>  <CHROM.1>
39.10059200,-176.43383626,-38.33950908,62.65720565,-173.48523391,131.13100263
-0.86882377,1.41433303,29.63015892,2.76856059,0.61419184,-2.73746280

>  <Name>
1koc cryst

>  <RI>
0

>  <Rbt.Current_Directory>
/home/itssahil/PROJECTS/Mol_Feturizer/New_Systems/rnas/1koc

>  <Rbt.Executable>
rbdock ($Id: //depot/dev/client3/rdock/2013.1/src/exe/rbdock.cxx#4 $)

>  <Rbt.Library>
libRbt.so (2013.1, Build901 2013/11/27)

>  <Rbt.Parameter_File>
/export/apps/rDock/src/rDock_2013.1_src/data/scripts/dock_solv.prm

>  <Rbt.Receptor>
prm/blind_docking_40.prm

>  <SCORE>
-29.8636

>  <SCORE.INTER>
-27.4405

>  <SCORE.INTER.CONST>
1

>  <SCORE.INTER.POLAR>
-6.23603

>  <SCORE.INTER.ROT>
5

>  <SCORE.INTER.SOLV>
32.4334

>  <SCORE.INTER.VDW>
-15.2514

>  <SCORE.INTER.norm>
-2.28671

>  <SCORE.INTRA>
-2.42305

>  <SCORE.INTRA.DIHEDRAL>
-1.39812

>  <SCORE.INTRA.DIHEDRAL.0>
6.04201

>  <SCORE.INTRA.POLAR>
0

>  <SCORE.INTRA.POLAR.0>
0

>  <SCORE.INTRA.REPUL>
0

>  <SCORE.INTRA.REPUL.0>
0

>  <SCORE.INTRA.SOLV>
-0.575902

>  <SCORE.INTRA.SOLV.lig_0>
-71.0481

>  <SCORE.INTRA.VDW>
-1.43603

>  <SCORE.INTRA.VDW.0>
0.968882

>  <SCORE.INTRA.norm>
-0.20192

>  <SCORE.RESTR>
0

>  <SCORE.RESTR.CAVITY>
0

>  <SCORE.RESTR.norm>
0

>  <SCORE.SYSTEM>
0

>  <SCORE.SYSTEM.CONST>
0

>  <SCORE.SYSTEM.DIHEDRAL>
0

>  <SCORE.SYSTEM.SOLV>
0

>  <SCORE.SYSTEM.norm>
0

>  <SCORE.heavy>
12

>  <SCORE.norm>
-2.48863

>  <SYMMETRIC_BONDS>
11 12 2
5 6 2

>  <RMSD>
7.131

$$$$
1koc cryst
 OpenBabel11021811393D
libRbt.so/2013.1/901 2013/11/27
 12 11  0  0  0  0  0  0  0  0999 V2000
   -4.4934    1.8029   30.1020 N   0  3  0  0  0  0  0  0  0  0  0  0
   -3.2685    2.4761   29.5736 C   0  0  2  0  0  0  0  0  0  0  0  0
   -3.2464    2.3458   28.0380 C   0  0  0  0  0  0  0  0  0  0  0  0
   -2.1765    2.4919   27.4662 O   0  5  0  0  0  0  0  0  0  0  0  0
   -2.0130    1.8144   30.2029 C   0  0  0  0  0  0  0  0  0  0  0  0
   -1.0058    2.8730   30.6673 C   0  0  0  0  0  0  0  0  0  0  0  0
    0.0879    2.2097   31.4973 C   0  0  0  0  0  0  0  0  0  0  0  0
    1.0626    1.5256   30.5983 N   0  0  0  0  0  0  0  0  0  0  0  0
    2.1792    1.0376   31.0828 C   0  0  0  0  0  0  0  0  0  0  0  0
    2.2012    0.4943   32.2746 N   0  0  0  0  0  0  0  0  0  0  0  0
    3.2750    1.0884   30.3718 N   0  3  0  0  0  0  0  0  0  0  0  0
   -4.2975    2.1142   27.4594 O   0  0  0  0  0  0  0  0  0  0  0  0
  2  1  1  1  0  0  0
  2  5  1  0  0  0  0
  2  3  1  0  0  0  0
  3  4  1  0  0  0  0
  3 12  2  0  0  0  0
  5  6  1  0  0  0  0
  6  7  1  0  0  0  0
  7  8  1  0  0  0  0
  8  9  1  0  0  0  0
  9 10  1  0  0  0  0
  9 11  2  0  0  0  0
M  CHG  3   1   1   4  -1  11   1
M  END
>  <CHROM.1>
170.35778131,-135.11541988,-159.92170906,169.92956601,78.00929185,171.07212557
-0.98768252,1.83410083,29.93605621,2.70538695,0.13348909,-1.45438042

>  <Name>
1koc cryst

>  <RI>
0

>  <Rbt.Current_Directory>
/home/itssahil/PROJECTS/Mol_Feturizer/New_Systems/rnas/1koc

>  <Rbt.Executable>
rbdock ($Id: //depot/dev/client3/rdock/2013.1/src/exe/rbdock.cxx#4 $)

>  <Rbt.Library>
libRbt.so (2013.1, Build901 2013/11/27)

>  <Rbt.Parameter_File>
/export/apps/rDock/src/rDock_2013.1_src/data/scripts/dock_solv.prm

>  <Rbt.Receptor>
prm/blind_docking_100.prm

>  <SCORE>
-24.1326

>  <SCORE.INTER>
-24.2227

>  <SCORE.INTER.CONST>
1

>  <SCORE.INTER.POLAR>
-7.65064

>  <SCORE.INTER.ROT>
5

>  <SCORE.INTER.SOLV>
34.1339

>  <SCORE.INTER.VDW>
-8.95764

>  <SCORE.INTER.norm>
-2.01856

>  <SCORE.INTRA>
-0.25942

>  <SCORE.INTRA.DIHEDRAL>
3.54439

>  <SCORE.INTRA.DIHEDRAL.0>
6.04201

>  <SCORE.INTRA.POLAR>
0

>  <SCORE.INTRA.POLAR.0>
0

>  <SCORE.INTRA.REPUL>
0

>  <SCORE.INTRA.REPUL.0>
0

>  <SCORE.INTRA.SOLV>
-1.11157

>  <SCORE.INTRA.SOLV.lig_0>
-71.0481

>  <SCORE.INTRA.VDW>
-1.47583

>  <SCORE.INTRA.VDW.0>
0.968882

>  <SCORE.INTRA.norm>
-0.0216183

>  <SCORE.RESTR>
0.3496

>  <SCORE.RESTR.CAVITY>
0.3496

>  <SCORE.RESTR.norm>
0.0291334

>  <SCORE.SYSTEM>
0

>  <SCORE.SYSTEM.CONST>
0

>  <SCORE.SYSTEM.DIHEDRAL>
0

>  <SCORE.SYSTEM.SOLV>
0

>  <SCORE.SYSTEM.norm>
0

>  <SCORE.heavy>
12

>  <SCORE.norm>
-2.01105

>  <SYMMETRIC_BONDS>
11 12 2
5 6 2

>  <RMSD>
7.133

$$$$
1koc cryst
 OpenBabel11021811393D
libRbt.so/2013.1/901 2013/11/27
 12 11  0  0  0  0  0  0  0  0999 V2000
   -5.1196    1.6008   31.8091 N   0  3  0  0  0  0  0  0  0  0  0  0
   -3.8653    2.4065   31.7076 C   0  0  2  0  0  0  0  0  0  0  0  0
   -4.1774    3.8705   32.0746 C   0  0  0  0  0  0  0  0  0  0  0  0
   -5.2021    4.3663   31.6305 O   0  5  0  0  0  0  0  0  0  0  0  0
   -3.3113    2.3050   30.2609 C   0  0  0  0  0  0  0  0  0  0  0  0
   -1.8562    1.8216   30.2600 C   0  0  0  0  0  0  0  0  0  0  0  0
   -0.9394    2.9571   30.7017 C   0  0  0  0  0  0  0  0  0  0  0  0
    0.3401    2.4001   31.2296 N   0  0  0  0  0  0  0  0  0  0  0  0
    1.4886    2.8079   30.7454 C   0  0  0  0  0  0  0  0  0  0  0  0
    1.6495    4.0584   30.3897 N   0  0  0  0  0  0  0  0  0  0  0  0
    2.4796    1.9646   30.6214 N   0  3  0  0  0  0  0  0  0  0  0  0
   -3.3842    4.4739   32.7818 O   0  0  0  0  0  0  0  0  0  0  0  0
  2  1  1  6  0  0  0
  2  5  1  0  0  0  0
  2  3  1  0  0  0  0
  3  4  1  0  0  0  0
  3 12  2  0  0  0  0
  5  6  1  0  0  0  0
  6  7  1  0  0  0  0
  7  8  1  0  0  0  0
  8  9  1  0  0  0  0
  9 10  1  0  0  0  0
  9 11  2  0  0  0  0
M  CHG  3   1   1   4  -1  11   1
M  END
>  <CHROM.1>
-102.08764718,-125.25594615,-42.74064746,-75.18019061,157.29535891,126.21166851
-1.83524314,2.91784095,31.19704679,3.01887159,0.15532201,0.33398776

>  <Name>
1koc cryst

>  <RI>
0

>  <Rbt.Current_Directory>
/home/itssahil/PROJECTS/Mol_Feturizer/New_Systems/rnas/1koc

>  <Rbt.Executable>
rbdock ($Id: //depot/dev/client3/rdock/2013.1/src/exe/rbdock.cxx#4 $)

>  <Rbt.Library>
libRbt.so (2013.1, Build901 2013/11/27)

>  <Rbt.Parameter_File>
/export/apps/rDock/src/rDock_2013.1_src/data/scripts/dock_solv.prm

>  <Rbt.Receptor>
prm/blind_docking_60.prm

>  <SCORE>
-22.0391

>  <SCORE.INTER>
-24.0012

>  <SCORE.INTER.CONST>
1

>  <SCORE.INTER.POLAR>
-3.90391

>  <SCORE.INTER.ROT>
5

>  <SCORE.INTER.SOLV>
33.0399

>  <SCORE.INTER.VDW>
-20.9344

>  <SCORE.INTER.norm>
-2.0001

>  <SCORE.INTRA>
1.96209

>  <SCORE.INTRA.DIHEDRAL>
7.93916

>  <SCORE.INTRA.DIHEDRAL.0>
6.04201

>  <SCORE.INTRA.POLAR>
0

>  <SCORE.INTRA.POLAR.0>
0

>  <SCORE.INTRA.REPUL>
0

>  <SCORE.INTRA.REPUL.0>
0

>  <SCORE.INTRA.SOLV>
-0.952217

>  <SCORE.INTRA.SOLV.lig_0>
-71.0481

>  <SCORE.INTRA.VDW>
-1.53138

>  <SCORE.INTRA.VDW.0>
0.968882

>  <SCORE.INTRA.norm>
0.163507

>  <SCORE.RESTR>
0

>  <SCORE.RESTR.CAVITY>
0

>  <SCORE.RESTR.norm>
0

>  <SCORE.SYSTEM>
0

>  <SCORE.SYSTEM.CONST>
0

>  <SCORE.SYSTEM.DIHEDRAL>
0

>  <SCORE.SYSTEM.SOLV>
0

>  <SCORE.SYSTEM.norm>
0

>  <SCORE.heavy>
12

>  <SCORE.norm>
-1.83659

>  <SYMMETRIC_BONDS>
11 12 2
5 6 2

>  <RMSD>
7.138

$$$$
1koc cryst
 OpenBabel11021811393D
libRbt.so/2013.1/901 2013/11/27
 12 11  0  0  0  0  0  0  0  0999 V2000
   -4.9283    2.4950   29.7346 N   0  3  0  0  0  0  0  0  0  0  0  0
   -3.4395    2.5342   29.6122 C   0  0  2  0  0  0  0  0  0  0  0  0
   -3.0141    1.7016   28.3869 C   0  0  0  0  0  0  0  0  0  0  0  0
   -3.5282    0.6038   28.2339 O   0  5  0  0  0  0  0  0  0  0  0  0
   -2.8073    1.9680   30.9121 C   0  0  0  0  0  0  0  0  0  0  0  0
   -1.6509    2.8521   31.3935 C   0  0  0  0  0  0  0  0  0  0  0  0
   -0.4036    2.5584   30.5670 C   0  0  0  0  0  0  0  0  0  0  0  0
    0.6898    2.0671   31.4555 N   0  0  0  0  0  0  0  0  0  0  0  0
    1.9402    2.1395   31.0672 C   0  0  0  0  0  0  0  0  0  0  0  0
    2.3544    3.1602   30.3583 N   0  0  0  0  0  0  0  0  0  0  0  0
    2.7794    1.1915   31.3928 N   0  3  0  0  0  0  0  0  0  0  0  0
   -2.1758    2.1684   27.6300 O   0  0  0  0  0  0  0  0  0  0  0  0
  2  1  1  1  0  0  0
  2  5  1  0  0  0  0
  2  3  1  0  0  0  0
  3  4  1  0  0  0  0
  3 12  2  0  0  0  0
  5  6  1  0  0  0  0
  6  7  1  0  0  0  0
  7  8  1  0  0  0  0
  8  9  1  0  0  0  0
  9 10  1  0  0  0  0
  9 11  2  0  0  0  0
M  CHG  3   1   1   4  -1  11   1
M  END
>  <CHROM.1>
-65.14259828,-134.96558935,-45.50381593,-78.76372868,-119.46057274,-159.04781738
-1.19119628,2.11106632,30.04894856,2.80607417,0.05936512,-1.84971085

>  <Name>
1koc cryst

>  <RI>
0

>  <Rbt.Current_Directory>
/home/itssahil/PROJECTS/Mol_Feturizer/New_Systems/rnas/1koc

>  <Rbt.Executable>
rbdock ($Id: //depot/dev/client3/rdock/2013.1/src/exe/rbdock.cxx#4 $)

>  <Rbt.Library>
libRbt.so (2013.1, Build901 2013/11/27)

>  <Rbt.Parameter_File>
/export/apps/rDock/src/rDock_2013.1_src/data/scripts/dock_solv.prm

>  <Rbt.Receptor>
prm/blind_docking_100.prm

>  <SCORE>
-24.3253

>  <SCORE.INTER>
-26.2399

>  <SCORE.INTER.CONST>
1

>  <SCORE.INTER.POLAR>
-5.00234

>  <SCORE.INTER.ROT>
5

>  <SCORE.INTER.SOLV>
27.5245

>  <SCORE.INTER.VDW>
-16.927

>  <SCORE.INTER.norm>
-2.18666

>  <SCORE.INTRA>
1.91453

>  <SCORE.INTRA.DIHEDRAL>
8.71669

>  <SCORE.INTRA.DIHEDRAL.0>
6.04201

>  <SCORE.INTRA.POLAR>
0

>  <SCORE.INTRA.POLAR.0>
0

>  <SCORE.INTRA.REPUL>
0

>  <SCORE.INTRA.REPUL.0>
0

>  <SCORE.INTRA.SOLV>
-0.711361

>  <SCORE.INTRA.SOLV.lig_0>
-71.0481

>  <SCORE.INTRA.VDW>
-2.08813

>  <SCORE.INTRA.VDW.0>
0.968882

>  <SCORE.INTRA.norm>
0.159544

>  <SCORE.RESTR>
0

>  <SCORE.RESTR.CAVITY>
0

>  <SCORE.RESTR.norm>
0

>  <SCORE.SYSTEM>
0

>  <SCORE.SYSTEM.CONST>
0

>  <SCORE.SYSTEM.DIHEDRAL>
0

>  <SCORE.SYSTEM.SOLV>
0

>  <SCORE.SYSTEM.norm>
0

>  <SCORE.heavy>
12

>  <SCORE.norm>
-2.02711

>  <SYMMETRIC_BONDS>
11 12 2
5 6 2

>  <RMSD>
7.145

$$$$
1koc cryst
 OpenBabel11021811393D
libRbt.so/2013.1/901 2013/11/27
 12 11  0  0  0  0  0  0  0  0999 V2000
   -2.8966    3.2454   32.5845 N   0  3  0  0  0  0  0  0  0  0  0  0
   -3.3440    2.9948   31.1810 C   0  0  2  0  0  0  0  0  0  0  0  0
   -4.8418    2.6312   31.1885 C   0  0  0  0  0  0  0  0  0  0  0  0
   -5.2362    1.8455   32.0371 O   0  5  0  0  0  0  0  0  0  0  0  0
   -2.4981    1.8423   30.5757 C   0  0  0  0  0  0  0  0  0  0  0  0
   -1.2013    2.3766   29.9562 C   0  0  0  0  0  0  0  0  0  0  0  0
   -0.0726    2.2903   30.9777 C   0  0  0  0  0  0  0  0  0  0  0  0
    1.0465    3.1911   30.5746 N   0  0  0  0  0  0  0  0  0  0  0  0
    2.2803    2.9061   30.9155 C   0  0  0  0  0  0  0  0  0  0  0  0
    2.6871    1.6613   30.9461 N   0  0  0  0  0  0  0  0  0  0  0  0
    3.1104    3.8685   31.2215 N   0  3  0  0  0  0  0  0  0  0  0  0
   -5.5657    3.1333   30.3417 O   0  0  0  0  0  0  0  0  0  0  0  0
  2  1  1  1  0  0  0
  2  5  1  0  0  0  0
  2  3  1  0  0  0  0
  3  4  1  0  0  0  0
  3 12  2  0  0  0  0
  5  6  1  0  0  0  0
  6  7  1  0  0  0  0
  7  8  1  0  0  0  0
  8  9  1  0  0  0  0
  9 10  1  0  0  0  0
  9 11  2  0  0  0  0
M  CHG  3   1   1   4  -1  11   1
M  END
>  <CHROM.1>
44.90994656,-86.74711798,-44.00500255,94.13505067,-161.42908881,-151.17141133
-1.36797299,2.67683489,31.07265612,-3.12572237,-0.05818145,-2.26154727

>  <Name>
1koc cryst

>  <RI>
0

>  <Rbt.Current_Directory>
/home/itssahil/PROJECTS/Mol_Feturizer/New_Systems/rnas/1koc

>  <Rbt.Executable>
rbdock ($Id: //depot/dev/client3/rdock/2013.1/src/exe/rbdock.cxx#4 $)

>  <Rbt.Library>
libRbt.so (2013.1, Build901 2013/11/27)

>  <Rbt.Parameter_File>
/export/apps/rDock/src/rDock_2013.1_src/data/scripts/dock_solv.prm

>  <Rbt.Receptor>
prm/blind_docking_80.prm

>  <SCORE>
-16.4224

>  <SCORE.INTER>
-16.8314

>  <SCORE.INTER.CONST>
1

>  <SCORE.INTER.POLAR>
-2.59506

>  <SCORE.INTER.ROT>
5

>  <SCORE.INTER.SOLV>
28.3345

>  <SCORE.INTER.VDW>
-18.9489

>  <SCORE.INTER.norm>
-1.40262

>  <SCORE.INTRA>
0.395154

>  <SCORE.INTRA.DIHEDRAL>
4.97002

>  <SCORE.INTRA.DIHEDRAL.0>
6.04201

>  <SCORE.INTRA.POLAR>
0

>  <SCORE.INTRA.POLAR.0>
0

>  <SCORE.INTRA.REPUL>
0

>  <SCORE.INTRA.REPUL.0>
0

>  <SCORE.INTRA.SOLV>
-0.315558

>  <SCORE.INTRA.SOLV.lig_0>
-71.0481

>  <SCORE.INTRA.VDW>
-1.93208

>  <SCORE.INTRA.VDW.0>
0.968882

>  <SCORE.INTRA.norm>
0.0329295

>  <SCORE.RESTR>
0.0138134

>  <SCORE.RESTR.CAVITY>
0.0138134

>  <SCORE.RESTR.norm>
0.00115112

>  <SCORE.SYSTEM>
0

>  <SCORE.SYSTEM.CONST>
0

>  <SCORE.SYSTEM.DIHEDRAL>
0

>  <SCORE.SYSTEM.SOLV>
0

>  <SCORE.SYSTEM.norm>
0

>  <SCORE.heavy>
12

>  <SCORE.norm>
-1.36854

>  <SYMMETRIC_BONDS>
11 12 2
5 6 2

>  <RMSD>
7.156

$$$$
1koc cryst
 OpenBabel11021811393D
libRbt.so/2013.1/901 2013/11/27
 12 11  0  0  0  0  0  0  0  0999 V2000
   -4.1059    2.6179   29.8813 N   0  3  0  0  0  0  0  0  0  0  0  0
   -3.7521    2.3068   31.2994 C   0  0  2  0  0  0  0  0  0  0  0  0
   -4.8135    2.9262   32.2295 C   0  0  0  0  0  0  0  0  0  0  0  0
   -5.8831    2.3465   32.3441 O   0  5  0  0  0  0  0  0  0  0  0  0
   -2.3429    2.8797   31.6094 C   0  0  0  0  0  0  0  0  0  0  0  0
   -1.2806    2.2551   30.6972 C   0  0  0  0  0  0  0  0  0  0  0  0
    0.0637    2.2347   31.4164 C   0  0  0  0  0  0  0  0  0  0  0  0
    1.0764    1.5275   30.5793 N   0  0  0  0  0  0  0  0  0  0  0  0
    2.1831    1.0773   31.1198 C   0  0  0  0  0  0  0  0  0  0  0  0
    2.1737    0.5858   32.3340 N   0  0  0  0  0  0  0  0  0  0  0  0
    3.3007    1.1141   30.4426 N   0  3  0  0  0  0  0  0  0  0  0  0
   -4.5454    3.9723   32.8015 O   0  0  0  0  0  0  0  0  0  0  0  0
  2  1  1  6  0  0  0
  2  5  1  0  0  0  0
  2  3  1  0  0  0  0
  3  4  1  0  0  0  0
  3 12  2  0  0  0  0
  5  6  1  0  0  0  0
  6  7  1  0  0  0  0
  7  8  1  0  0  0  0
  8  9  1  0  0  0  0
  9 10  1  0  0  0  0
  9 11  2  0  0  0  0
M  CHG  3   1   1   4  -1  11   1
M  END
>  <CHROM.1>
-61.99837550,-60.53451821,78.09868587,-151.01248205,175.37357778,-161.83620627
-1.50002570,2.15208019,31.37745135,3.03637936,-0.24692765,1.55874129

>  <Name>
1koc cryst

>  <RI>
0

>  <Rbt.Current_Directory>
/home/itssahil/PROJECTS/Mol_Feturizer/New_Systems/rnas/1koc

>  <Rbt.Executable>
rbdock ($Id: //depot/dev/client3/rdock/2013.1/src/exe/rbdock.cxx#4 $)

>  <Rbt.Library>
libRbt.so (2013.1, Build901 2013/11/27)

>  <Rbt.Parameter_File>
/export/apps/rDock/src/rDock_2013.1_src/data/scripts/dock_solv.prm

>  <Rbt.Receptor>
prm/blind_docking_80.prm

>  <SCORE>
-25.9151

>  <SCORE.INTER>
-24.9083

>  <SCORE.INTER.CONST>
1

>  <SCORE.INTER.POLAR>
-6.36527

>  <SCORE.INTER.ROT>
5

>  <SCORE.INTER.SOLV>
33.0269

>  <SCORE.INTER.VDW>
-13.3302

>  <SCORE.INTER.norm>
-2.07569

>  <SCORE.INTRA>
-1.20343

>  <SCORE.INTRA.DIHEDRAL>
0.375856

>  <SCORE.INTRA.DIHEDRAL.0>
6.04201

>  <SCORE.INTRA.POLAR>
0

>  <SCORE.INTRA.POLAR.0>
0

>  <SCORE.INTRA.REPUL>
0

>  <SCORE.INTRA.REPUL.0>
0

>  <SCORE.INTRA.SOLV>
-1.15534

>  <SCORE.INTRA.SOLV.lig_0>
-71.0481

>  <SCORE.INTRA.VDW>
-0.813682

>  <SCORE.INTRA.VDW.0>
0.968882

>  <SCORE.INTRA.norm>
-0.100286

>  <SCORE.RESTR>
0.196621

>  <SCORE.RESTR.CAVITY>
0.196621

>  <SCORE.RESTR.norm>
0.0163851

>  <SCORE.SYSTEM>
0

>  <SCORE.SYSTEM.CONST>
0

>  <SCORE.SYSTEM.DIHEDRAL>
0

>  <SCORE.SYSTEM.SOLV>
0

>  <SCORE.SYSTEM.norm>
0

>  <SCORE.heavy>
12

>  <SCORE.norm>
-2.15959

>  <SYMMETRIC_BONDS>
11 12 2
5 6 2

>  <RMSD>
7.160

$$$$
1koc cryst
 OpenBabel11021811393D
libRbt.so/2013.1/901 2013/11/27
 12 11  0  0  0  0  0  0  0  0999 V2000
   -4.0155    1.7469   30.0022 N   0  3  0  0  0  0  0  0  0  0  0  0
   -3.7333    2.2465   31.3820 C   0  0  2  0  0  0  0  0  0  0  0  0
   -4.8593    3.2088   31.8080 C   0  0  0  0  0  0  0  0  0  0  0  0
   -5.3473    3.0634   32.9188 O   0  5  0  0  0  0  0  0  0  0  0  0
   -2.3578    2.9663   31.3908 C   0  0  0  0  0  0  0  0  0  0  0  0
   -1.3244    2.1915   30.5646 C   0  0  0  0  0  0  0  0  0  0  0  0
    0.0019    2.9437   30.5683 C   0  0  0  0  0  0  0  0  0  0  0  0
    1.0115    2.1882   31.3660 N   0  0  0  0  0  0  0  0  0  0  0  0
    2.2591    2.1279   30.9668 C   0  0  0  0  0  0  0  0  0  0  0  0
    2.8184    3.1607   30.3867 N   0  0  0  0  0  0  0  0  0  0  0  0
    2.9504    1.0340   31.1526 N   0  3  0  0  0  0  0  0  0  0  0  0
   -5.2224    4.0653   31.0156 O   0  0  0  0  0  0  0  0  0  0  0  0
  2  1  1  6  0  0  0
  2  5  1  0  0  0  0
  2  3  1  0  0  0  0
  3  4  1  0  0  0  0
  3 12  2  0  0  0  0
  5  6  1  0  0  0  0
  6  7  1  0  0  0  0
  7  8  1  0  0  0  0
  8  9  1  0  0  0  0
  9 10  1  0  0  0  0
  9 11  2  0  0  0  0
M  CHG  3   1   1   4  -1  11   1
M  END
>  <CHROM.1>
-50.95362909,-41.80779946,133.17481352,178.64755682,110.46027308,141.17875698
-1.48865038,2.56839213,31.10991300,2.98556128,0.01225720,0.56706960

>  <Name>
1koc cryst

>  <RI>
0

>  <Rbt.Current_Directory>
/home/itssahil/PROJECTS/Mol_Feturizer/New_Systems/rnas/1koc

>  <Rbt.Executable>
rbdock ($Id: //depot/dev/client3/rdock/2013.1/src/exe/rbdock.cxx#4 $)

>  <Rbt.Library>
libRbt.so (2013.1, Build901 2013/11/27)

>  <Rbt.Parameter_File>
/export/apps/rDock/src/rDock_2013.1_src/data/scripts/dock_solv.prm

>  <Rbt.Receptor>
prm/blind_docking_100.prm

>  <SCORE>
-26.7502

>  <SCORE.INTER>
-27.3215

>  <SCORE.INTER.CONST>
1

>  <SCORE.INTER.POLAR>
-3.96412

>  <SCORE.INTER.ROT>
5

>  <SCORE.INTER.SOLV>
28.3513

>  <SCORE.INTER.VDW>
-21.3843

>  <SCORE.INTER.norm>
-2.27679

>  <SCORE.INTRA>
0.571305

>  <SCORE.INTRA.DIHEDRAL>
3.8818

>  <SCORE.INTRA.DIHEDRAL.0>
6.04201

>  <SCORE.INTRA.POLAR>
0

>  <SCORE.INTRA.POLAR.0>
0

>  <SCORE.INTRA.REPUL>
0

>  <SCORE.INTRA.REPUL.0>
0

>  <SCORE.INTRA.SOLV>
-0.601241

>  <SCORE.INTRA.SOLV.lig_0>
-71.0481

>  <SCORE.INTRA.VDW>
-1.06898

>  <SCORE.INTRA.VDW.0>
0.968882

>  <SCORE.INTRA.norm>
0.0476088

>  <SCORE.RESTR>
0

>  <SCORE.RESTR.CAVITY>
0

>  <SCORE.RESTR.norm>
0

>  <SCORE.SYSTEM>
0

>  <SCORE.SYSTEM.CONST>
0

>  <SCORE.SYSTEM.DIHEDRAL>
0

>  <SCORE.SYSTEM.SOLV>
0

>  <SCORE.SYSTEM.norm>
0

>  <SCORE.heavy>
12

>  <SCORE.norm>
-2.22918

>  <SYMMETRIC_BONDS>
11 12 2
5 6 2

>  <RMSD>
7.167

$$$$
1koc cryst
 OpenBabel11021811393D
libRbt.so/2013.1/901 2013/11/27
 12 11  0  0  0  0  0  0  0  0999 V2000
   -3.9191    0.9353   29.5979 N   0  3  0  0  0  0  0  0  0  0  0  0
   -3.1048    2.1367   29.2428 C   0  0  2  0  0  0  0  0  0  0  0  0
   -3.3130    2.4617   27.7506 C   0  0  0  0  0  0  0  0  0  0  0  0
   -2.3579    2.8873   27.1184 O   0  5  0  0  0  0  0  0  0  0  0  0
   -1.6097    1.8442   29.5417 C   0  0  0  0  0  0  0  0  0  0  0  0
   -1.0311    2.8735   30.5198 C   0  0  0  0  0  0  0  0  0  0  0  0
    0.0992    2.2382   31.3221 C   0  0  0  0  0  0  0  0  0  0  0  0
    1.4114    2.5473   30.6826 N   0  0  0  0  0  0  0  0  0  0  0  0
    2.4669    1.8175   30.9525 C   0  0  0  0  0  0  0  0  0  0  0  0
    2.3471    0.5271   31.1438 N   0  0  0  0  0  0  0  0  0  0  0  0
    3.6453    2.3785   31.0264 N   0  3  0  0  0  0  0  0  0  0  0  0
   -4.4228    2.2913   27.2683 O   0  0  0  0  0  0  0  0  0  0  0  0
  2  1  1  6  0  0  0
  2  5  1  0  0  0  0
  2  3  1  0  0  0  0
  3  4  1  0  0  0  0
  3 12  2  0  0  0  0
  5  6  1  0  0  0  0
  6  7  1  0  0  0  0
  7  8  1  0  0  0  0
  8  9  1  0  0  0  0
  9 10  1  0  0  0  0
  9 11  2  0  0  0  0
M  CHG  3   1   1   4  -1  11   1
M  END
>  <CHROM.1>
52.10147849,-122.67515030,-144.07098336,151.57661378,95.40231995,-160.48169823
-0.82139019,2.05320565,29.66982155,2.74710828,-0.22611154,-0.98781730

>  <Name>
1koc cryst

>  <RI>
0

>  <Rbt.Current_Directory>
/home/itssahil/PROJECTS/Mol_Feturizer/New_Systems/rnas/1koc

>  <Rbt.Executable>
rbdock ($Id: //depot/dev/client3/rdock/2013.1/src/exe/rbdock.cxx#4 $)

>  <Rbt.Library>
libRbt.so (2013.1, Build901 2013/11/27)

>  <Rbt.Parameter_File>
/export/apps/rDock/src/rDock_2013.1_src/data/scripts/dock_solv.prm

>  <Rbt.Receptor>
prm/blind_docking_40.prm

>  <SCORE>
-27.3723

>  <SCORE.INTER>
-29.9114

>  <SCORE.INTER.CONST>
1

>  <SCORE.INTER.POLAR>
-6.65677

>  <SCORE.INTER.ROT>
5

>  <SCORE.INTER.SOLV>
31.9792

>  <SCORE.INTER.VDW>
-15.3447

>  <SCORE.INTER.norm>
-2.49261

>  <SCORE.INTRA>
2.48847

>  <SCORE.INTRA.DIHEDRAL>
8.98126

>  <SCORE.INTRA.DIHEDRAL.0>
6.04201

>  <SCORE.INTRA.POLAR>
0

>  <SCORE.INTRA.POLAR.0>
0

>  <SCORE.INTRA.REPUL>
0

>  <SCORE.INTRA.REPUL.0>
0

>  <SCORE.INTRA.SOLV>
-1.26163

>  <SCORE.INTRA.SOLV.lig_0>
-71.0481

>  <SCORE.INTRA.VDW>
-1.37135

>  <SCORE.INTRA.VDW.0>
0.968882

>  <SCORE.INTRA.norm>
0.207372

>  <SCORE.RESTR>
0.0506156

>  <SCORE.RESTR.CAVITY>
0.0506156

>  <SCORE.RESTR.norm>
0.00421797

>  <SCORE.SYSTEM>
0

>  <SCORE.SYSTEM.CONST>
0

>  <SCORE.SYSTEM.DIHEDRAL>
0

>  <SCORE.SYSTEM.SOLV>
0

>  <SCORE.SYSTEM.norm>
0

>  <SCORE.heavy>
12

>  <SCORE.norm>
-2.28102

>  <SYMMETRIC_BONDS>
11 12 2
5 6 2

>  <RMSD>
7.174

$$$$
1koc cryst
 OpenBabel11021811393D
libRbt.so/2013.1/901 2013/11/27
 12 11  0  0  0  0  0  0  0  0999 V2000
   -3.6520    2.5786   29.8604 N   0  3  0  0  0  0  0  0  0  0  0  0
   -3.4447    2.0238   31.2323 C   0  0  2  0  0  0  0  0  0  0  0  0
   -4.7387    2.2072   32.0492 C   0  0  0  0  0  0  0  0  0  0  0  0
   -5.5557    1.2986   32.0397 O   0  5  0  0  0  0  0  0  0  0  0  0
   -2.2564    2.7622   31.9052 C   0  0  0  0  0  0  0  0  0  0  0  0
   -1.2727    3.2946   30.8566 C   0  0  0  0  0  0  0  0  0  0  0  0
   -0.2797    2.1993   30.4836 C   0  0  0  0  0  0  0  0  0  0  0  0
    0.5761    1.8682   31.6601 N   0  0  0  0  0  0  0  0  0  0  0  0
    1.7109    1.2322   31.4943 C   0  0  0  0  0  0  0  0  0  0  0  0
    2.4555    1.4715   30.4434 N   0  0  0  0  0  0  0  0  0  0  0  0
    2.1043    0.3589   32.3839 N   0  3  0  0  0  0  0  0  0  0  0  0
   -4.8968    3.2538   32.6599 O   0  0  0  0  0  0  0  0  0  0  0  0
  2  1  1  6  0  0  0
  2  5  1  0  0  0  0
  2  3  1  0  0  0  0
  3  4  1  0  0  0  0
  3 12  2  0  0  0  0
  5  6  1  0  0  0  0
  6  7  1  0  0  0  0
  7  8  1  0  0  0  0
  8  9  1  0  0  0  0
  9 10  1  0  0  0  0
  9 11  2  0  0  0  0
M  CHG  3   1   1   4  -1  11   1
M  END
>  <CHROM.1>
-56.47634126,-26.96764119,91.60622434,-85.43074632,-65.84441908,-161.77924125
-1.60896610,2.04179142,31.40982885,-3.10727720,-0.17359901,2.13460726

>  <Name>
1koc cryst

>  <RI>
0

>  <Rbt.Current_Directory>
/home/itssahil/PROJECTS/Mol_Feturizer/New_Systems/rnas/1koc

>  <Rbt.Executable>
rbdock ($Id: //depot/dev/client3/rdock/2013.1/src/exe/rbdock.cxx#4 $)

>  <Rbt.Library>
libRbt.so (2013.1, Build901 2013/11/27)

>  <Rbt.Parameter_File>
/export/apps/rDock/src/rDock_2013.1_src/data/scripts/dock_solv.prm

>  <Rbt.Receptor>
prm/blind_docking_40.prm

>  <SCORE>
-15.9049

>  <SCORE.INTER>
-18.778

>  <SCORE.INTER.CONST>
1

>  <SCORE.INTER.POLAR>
-5.47651

>  <SCORE.INTER.ROT>
5

>  <SCORE.INTER.SOLV>
34.2871

>  <SCORE.INTER.VDW>
-12.626

>  <SCORE.INTER.norm>
-1.56483

>  <SCORE.INTRA>
2.58917

>  <SCORE.INTRA.DIHEDRAL>
2.85167

>  <SCORE.INTRA.DIHEDRAL.0>
6.04201

>  <SCORE.INTRA.POLAR>
0

>  <SCORE.INTRA.POLAR.0>
0

>  <SCORE.INTRA.REPUL>
0

>  <SCORE.INTRA.REPUL.0>
0

>  <SCORE.INTRA.SOLV>
0.481713

>  <SCORE.INTRA.SOLV.lig_0>
-71.0481

>  <SCORE.INTRA.VDW>
0.922476

>  <SCORE.INTRA.VDW.0>
0.968882

>  <SCORE.INTRA.norm>
0.215764

>  <SCORE.RESTR>
0.283891

>  <SCORE.RESTR.CAVITY>
0.283891

>  <SCORE.RESTR.norm>
0.0236576

>  <SCORE.SYSTEM>
0

>  <SCORE.SYSTEM.CONST>
0

>  <SCORE.SYSTEM.DIHEDRAL>
0

>  <SCORE.SYSTEM.SOLV>
0

>  <SCORE.SYSTEM.norm>
0

>  <SCORE.heavy>
12

>  <SCORE.norm>
-1.32541

>  <SYMMETRIC_BONDS>
11 12 2
5 6 2

>  <RMSD>
7.183

$$$$
1koc cryst
 OpenBabel11021811393D
libRbt.so/2013.1/901 2013/11/27
 12 11  0  0  0  0  0  0  0  0999 V2000
   -4.8940    2.1094   30.7754 N   0  3  0  0  0  0  0  0  0  0  0  0
   -3.6288    2.5377   30.1055 C   0  0  2  0  0  0  0  0  0  0  0  0
   -3.5296    1.8477   28.7309 C   0  0  0  0  0  0  0  0  0  0  0  0
   -3.4082    0.6320   28.7077 O   0  5  0  0  0  0  0  0  0  0  0  0
   -2.4225    2.1551   31.0047 C   0  0  0  0  0  0  0  0  0  0  0  0
   -1.3396    3.2399   30.9659 C   0  0  0  0  0  0  0  0  0  0  0  0
   -0.0289    2.6373   30.4722 C   0  0  0  0  0  0  0  0  0  0  0  0
    0.7038    2.0131   31.6123 N   0  0  0  0  0  0  0  0  0  0  0  0
    1.7736    1.2870   31.3928 C   0  0  0  0  0  0  0  0  0  0  0  0
    2.6100    1.6136   30.4390 N   0  0  0  0  0  0  0  0  0  0  0  0
    2.0098    0.2351   32.1320 N   0  3  0  0  0  0  0  0  0  0  0  0
   -3.5652    2.5441   27.7274 O   0  0  0  0  0  0  0  0  0  0  0  0
  2  1  1  1  0  0  0
  2  5  1  0  0  0  0
  2  3  1  0  0  0  0
  3  4  1  0  0  0  0
  3 12  2  0  0  0  0
  5  6  1  0  0  0  0
  6  7  1  0  0  0  0
  7  8  1  0  0  0  0
  8  9  1  0  0  0  0
  9 10  1  0  0  0  0
  9 11  2  0  0  0  0
M  CHG  3   1   1   4  -1  11   1
M  END
>  <CHROM.1>
-95.27174127,-141.95342682,-65.57743284,-121.33374427,-84.64804991,171.31701311
-1.32519507,1.87900252,30.34194322,2.82618594,0.16384527,-1.69532797

>  <Name>
1koc cryst

>  <RI>
0

>  <Rbt.Current_Directory>
/home/itssahil/PROJECTS/Mol_Feturizer/New_Systems/rnas/1koc

>  <Rbt.Executable>
rbdock ($Id: //depot/dev/client3/rdock/2013.1/src/exe/rbdock.cxx#4 $)

>  <Rbt.Library>
libRbt.so (2013.1, Build901 2013/11/27)

>  <Rbt.Parameter_File>
/export/apps/rDock/src/rDock_2013.1_src/data/scripts/dock_solv.prm

>  <Rbt.Receptor>
prm/blind_docking_40.prm

>  <SCORE>
-21.6602

>  <SCORE.INTER>
-25.2618

>  <SCORE.INTER.CONST>
1

>  <SCORE.INTER.POLAR>
-5.67613

>  <SCORE.INTER.ROT>
5

>  <SCORE.INTER.SOLV>
31.436

>  <SCORE.INTER.VDW>
-15.3327

>  <SCORE.INTER.norm>
-2.10515

>  <SCORE.INTRA>
3.56953

>  <SCORE.INTRA.DIHEDRAL>
11.418

>  <SCORE.INTRA.DIHEDRAL.0>
6.04201

>  <SCORE.INTRA.POLAR>
0

>  <SCORE.INTRA.POLAR.0>
0

>  <SCORE.INTRA.REPUL>
0

>  <SCORE.INTRA.REPUL.0>
0

>  <SCORE.INTRA.SOLV>
-1.218

>  <SCORE.INTRA.SOLV.lig_0>
-71.0481

>  <SCORE.INTRA.VDW>
-1.53048

>  <SCORE.INTRA.VDW.0>
0.968882

>  <SCORE.INTRA.norm>
0.297461

>  <SCORE.RESTR>
0.0319959

>  <SCORE.RESTR.CAVITY>
0.0319959

>  <SCORE.RESTR.norm>
0.00266633

>  <SCORE.SYSTEM>
0

>  <SCORE.SYSTEM.CONST>
0

>  <SCORE.SYSTEM.DIHEDRAL>
0

>  <SCORE.SYSTEM.SOLV>
0

>  <SCORE.SYSTEM.norm>
0

>  <SCORE.heavy>
12

>  <SCORE.norm>
-1.80502

>  <SYMMETRIC_BONDS>
11 12 2
5 6 2

>  <RMSD>
7.198

$$$$
1koc cryst
 OpenBabel11021811393D
libRbt.so/2013.1/901 2013/11/27
 12 11  0  0  0  0  0  0  0  0999 V2000
   -4.5998    3.8375   32.1993 N   0  3  0  0  0  0  0  0  0  0  0  0
   -3.7323    3.0635   31.2606 C   0  0  2  0  0  0  0  0  0  0  0  0
   -4.4066    1.7125   30.9515 C   0  0  0  0  0  0  0  0  0  0  0  0
   -5.3003    1.3352   31.6944 O   0  5  0  0  0  0  0  0  0  0  0  0
   -2.3401    2.8501   31.9137 C   0  0  0  0  0  0  0  0  0  0  0  0
   -1.2927    2.4590   30.8645 C   0  0  0  0  0  0  0  0  0  0  0  0
    0.0555    2.2425   31.5431 C   0  0  0  0  0  0  0  0  0  0  0  0
    1.0001    1.5817   30.5957 N   0  0  0  0  0  0  0  0  0  0  0  0
    2.1161    1.0524   31.0362 C   0  0  0  0  0  0  0  0  0  0  0  0
    2.1500    0.4561   32.2020 N   0  0  0  0  0  0  0  0  0  0  0  0
    3.1991    1.1151   30.3068 N   0  3  0  0  0  0  0  0  0  0  0  0
   -4.0126    1.0737   29.9872 O   0  0  0  0  0  0  0  0  0  0  0  0
  2  1  1  1  0  0  0
  2  5  1  0  0  0  0
  2  3  1  0  0  0  0
  3  4  1  0  0  0  0
  3 12  2  0  0  0  0
  5  6  1  0  0  0  0
  6  7  1  0  0  0  0
  7  8  1  0  0  0  0
  8  9  1  0  0  0  0
  9 10  1  0  0  0  0
  9 11  2  0  0  0  0
M  CHG  3   1   1   4  -1  11   1
M  END
>  <CHROM.1>
-67.44698777,-162.49876717,-16.79693169,-179.35424227,167.77418248,-165.94522388
-1.44304255,1.89433119,31.22374306,2.95709230,-0.05312226,0.55929970

>  <Name>
1koc cryst

>  <RI>
0

>  <Rbt.Current_Directory>
/home/itssahil/PROJECTS/Mol_Feturizer/New_Systems/rnas/1koc

>  <Rbt.Executable>
rbdock ($Id: //depot/dev/client3/rdock/2013.1/src/exe/rbdock.cxx#4 $)

>  <Rbt.Library>
libRbt.so (2013.1, Build901 2013/11/27)

>  <Rbt.Parameter_File>
/export/apps/rDock/src/rDock_2013.1_src/data/scripts/dock_solv.prm

>  <Rbt.Receptor>
prm/blind_docking_40.prm

>  <SCORE>
-19.9607

>  <SCORE.INTER>
-17.3522

>  <SCORE.INTER.CONST>
1

>  <SCORE.INTER.POLAR>
-5.84341

>  <SCORE.INTER.ROT>
5

>  <SCORE.INTER.SOLV>
36.4787

>  <SCORE.INTER.VDW>
-11.183

>  <SCORE.INTER.norm>
-1.44602

>  <SCORE.INTRA>
-2.80964

>  <SCORE.INTRA.DIHEDRAL>
-0.924185

>  <SCORE.INTRA.DIHEDRAL.0>
6.04201

>  <SCORE.INTRA.POLAR>
0

>  <SCORE.INTRA.POLAR.0>
0

>  <SCORE.INTRA.REPUL>
0

>  <SCORE.INTRA.REPUL.0>
0

>  <SCORE.INTRA.SOLV>
-1.20969

>  <SCORE.INTRA.SOLV.lig_0>
-71.0481

>  <SCORE.INTRA.VDW>
-1.7427

>  <SCORE.INTRA.VDW.0>
0.968882

>  <SCORE.INTRA.norm>
-0.234136

>  <SCORE.RESTR>
0.201154

>  <SCORE.RESTR.CAVITY>
0.201154

>  <SCORE.RESTR.norm>
0.0167629

>  <SCORE.SYSTEM>
0

>  <SCORE.SYSTEM.CONST>
0

>  <SCORE.SYSTEM.DIHEDRAL>
0

>  <SCORE.SYSTEM.SOLV>
0

>  <SCORE.SYSTEM.norm>
0

>  <SCORE.heavy>
12

>  <SCORE.norm>
-1.66339

>  <SYMMETRIC_BONDS>
11 12 2
5 6 2

>  <RMSD>
7.202

$$$$
1koc cryst
 OpenBabel11021811393D
libRbt.so/2013.1/901 2013/11/27
 12 11  0  0  0  0  0  0  0  0999 V2000
   -3.2305    0.1865   28.3790 N   0  3  0  0  0  0  0  0  0  0  0  0
   -2.8621    0.9499   29.6096 C   0  0  2  0  0  0  0  0  0  0  0  0
   -4.0787    1.7756   30.0718 C   0  0  0  0  0  0  0  0  0  0  0  0
   -4.2152    1.9730   31.2699 O   0  5  0  0  0  0  0  0  0  0  0  0
   -1.6550    1.8733   29.2930 C   0  0  0  0  0  0  0  0  0  0  0  0
   -1.2041    2.6395   30.5422 C   0  0  0  0  0  0  0  0  0  0  0  0
    0.3029    2.8657   30.4876 C   0  0  0  0  0  0  0  0  0  0  0  0
    0.9634    2.1597   31.6241 N   0  0  0  0  0  0  0  0  0  0  0  0
    1.9543    1.3303   31.4010 C   0  0  0  0  0  0  0  0  0  0  0  0
    2.8236    1.5784   30.4529 N   0  0  0  0  0  0  0  0  0  0  0  0
    2.0791    0.2530   32.1309 N   0  3  0  0  0  0  0  0  0  0  0  0
   -4.8579    2.1861   29.2246 O   0  0  0  0  0  0  0  0  0  0  0  0
  2  1  1  6  0  0  0
  2  5  1  0  0  0  0
  2  3  1  0  0  0  0
  3  4  1  0  0  0  0
  3 12  2  0  0  0  0
  5  6  1  0  0  0  0
  6  7  1  0  0  0  0
  7  8  1  0  0  0  0
  8  9  1  0  0  0  0
  9 10  1  0  0  0  0
  9 11  2  0  0  0  0
M  CHG  3   1   1   4  -1  11   1
M  END
>  <CHROM.1>
-63.97775083,-177.80666245,148.20054348,147.74027294,-116.85273347,126.89560875
-1.17336680,1.61894296,30.36040380,-2.94518297,-0.19388625,0.89509666

>  <Name>
1koc cryst

>  <RI>
0

>  <Rbt.Current_Directory>
/home/itssahil/PROJECTS/Mol_Feturizer/New_Systems/rnas/1koc

>  <Rbt.Executable>
rbdock ($Id: //depot/dev/client3/rdock/2013.1/src/exe/rbdock.cxx#4 $)

>  <Rbt.Library>
libRbt.so (2013.1, Build901 2013/11/27)

>  <Rbt.Parameter_File>
/export/apps/rDock/src/rDock_2013.1_src/data/scripts/dock_solv.prm

>  <Rbt.Receptor>
prm/pocket_docking_7.prm

>  <SCORE>
-27.834

>  <SCORE.INTER>
-28.4311

>  <SCORE.INTER.CONST>
1

>  <SCORE.INTER.POLAR>
-5.25332

>  <SCORE.INTER.ROT>
5

>  <SCORE.INTER.SOLV>
33.2293

>  <SCORE.INTER.VDW>
-19.4528

>  <SCORE.INTER.norm>
-2.36925

>  <SCORE.INTRA>
0.557541

>  <SCORE.INTRA.DIHEDRAL>
6.37155

>  <SCORE.INTRA.DIHEDRAL.0>
6.04201

>  <SCORE.INTRA.POLAR>
0

>  <SCORE.INTRA.POLAR.0>
0

>  <SCORE.INTRA.REPUL>
0

>  <SCORE.INTRA.REPUL.0>
0

>  <SCORE.INTRA.SOLV>
-1.18996

>  <SCORE.INTRA.SOLV.lig_0>
-71.0481

>  <SCORE.INTRA.VDW>
-2.03325

>  <SCORE.INTRA.VDW.0>
0.968882

>  <SCORE.INTRA.norm>
0.0464618

>  <SCORE.RESTR>
0.0395476

>  <SCORE.RESTR.CAVITY>
0.0395476

>  <SCORE.RESTR.norm>
0.00329563

>  <SCORE.SYSTEM>
0

>  <SCORE.SYSTEM.CONST>
0

>  <SCORE.SYSTEM.DIHEDRAL>
0

>  <SCORE.SYSTEM.SOLV>
0

>  <SCORE.SYSTEM.norm>
0

>  <SCORE.heavy>
12

>  <SCORE.norm>
-2.3195

>  <SYMMETRIC_BONDS>
11 12 2
5 6 2

>  <RMSD>
7.225

$$$$
1koc cryst
 OpenBabel11021811393D
libRbt.so/2013.1/901 2013/11/27
 12 11  0  0  0  0  0  0  0  0999 V2000
   -4.3438    2.1237   30.0995 N   0  3  0  0  0  0  0  0  0  0  0  0
   -3.8501    2.2584   31.5034 C   0  0  2  0  0  0  0  0  0  0  0  0
   -4.8653    3.0860   32.3158 C   0  0  0  0  0  0  0  0  0  0  0  0
   -4.4695    4.1081   32.8558 O   0  5  0  0  0  0  0  0  0  0  0  0
   -2.4593    2.9482   31.4894 C   0  0  0  0  0  0  0  0  0  0  0  0
   -1.5387    2.3123   30.4411 C   0  0  0  0  0  0  0  0  0  0  0  0
   -0.1944    3.0318   30.4366 C   0  0  0  0  0  0  0  0  0  0  0  0
    0.7674    2.3155   31.3243 N   0  0  0  0  0  0  0  0  0  0  0  0
    2.0507    2.3270   31.0546 C   0  0  0  0  0  0  0  0  0  0  0  0
    2.6103    3.3976   30.5480 N   0  0  0  0  0  0  0  0  0  0  0  0
    2.7768    1.2673   31.2969 N   0  3  0  0  0  0  0  0  0  0  0  0
   -6.0153    2.6801   32.3943 O   0  0  0  0  0  0  0  0  0  0  0  0
  2  1  1  6  0  0  0
  2  5  1  0  0  0  0
  2  3  1  0  0  0  0
  3  4  1  0  0  0  0
  3 12  2  0  0  0  0
  5  6  1  0  0  0  0
  6  7  1  0  0  0  0
  7  8  1  0  0  0  0
  8  9  1  0  0  0  0
  9 10  1  0  0  0  0
  9 11  2  0  0  0  0
M  CHG  3   1   1   4  -1  11   1
M  END
>  <CHROM.1>
62.89921158,-47.17654192,-122.18762287,178.88024429,94.22264576,148.99352999
-1.63400823,2.65079581,31.30146625,2.98321521,0.02433100,0.90806954

>  <Name>
1koc cryst

>  <RI>
0

>  <Rbt.Current_Directory>
/home/itssahil/PROJECTS/Mol_Feturizer/New_Systems/rnas/1koc

>  <Rbt.Executable>
rbdock ($Id: //depot/dev/client3/rdock/2013.1/src/exe/rbdock.cxx#4 $)

>  <Rbt.Library>
libRbt.so (2013.1, Build901 2013/11/27)

>  <Rbt.Parameter_File>
/export/apps/rDock/src/rDock_2013.1_src/data/scripts/dock_solv.prm

>  <Rbt.Receptor>
prm/blind_docking_40.prm

>  <SCORE>
-28.3284

>  <SCORE.INTER>
-28.5661

>  <SCORE.INTER.CONST>
1

>  <SCORE.INTER.POLAR>
-3.85057

>  <SCORE.INTER.ROT>
5

>  <SCORE.INTER.SOLV>
27.605

>  <SCORE.INTER.VDW>
-22.3438

>  <SCORE.INTER.norm>
-2.38051

>  <SCORE.INTRA>
0.237721

>  <SCORE.INTRA.DIHEDRAL>
1.35647

>  <SCORE.INTRA.DIHEDRAL.0>
6.04201

>  <SCORE.INTRA.POLAR>
0

>  <SCORE.INTRA.POLAR.0>
0

>  <SCORE.INTRA.REPUL>
0

>  <SCORE.INTRA.REPUL.0>
0

>  <SCORE.INTRA.SOLV>
-0.58746

>  <SCORE.INTRA.SOLV.lig_0>
-71.0481

>  <SCORE.INTRA.VDW>
-0.146785

>  <SCORE.INTRA.VDW.0>
0.968882

>  <SCORE.INTRA.norm>
0.0198101

>  <SCORE.RESTR>
0

>  <SCORE.RESTR.CAVITY>
0

>  <SCORE.RESTR.norm>
0

>  <SCORE.SYSTEM>
0

>  <SCORE.SYSTEM.CONST>
0

>  <SCORE.SYSTEM.DIHEDRAL>
0

>  <SCORE.SYSTEM.SOLV>
0

>  <SCORE.SYSTEM.norm>
0

>  <SCORE.heavy>
12

>  <SCORE.norm>
-2.3607

>  <SYMMETRIC_BONDS>
11 12 2
5 6 2

>  <RMSD>
7.239

$$$$
1koc cryst
 OpenBabel11021811393D
libRbt.so/2013.1/901 2013/11/27
 12 11  0  0  0  0  0  0  0  0999 V2000
   -4.9167    2.9951   32.0734 N   0  3  0  0  0  0  0  0  0  0  0  0
   -3.8081    3.0034   31.0715 C   0  0  2  0  0  0  0  0  0  0  0  0
   -4.1283    1.9853   29.9595 C   0  0  0  0  0  0  0  0  0  0  0  0
   -3.8677    0.8097   30.1669 O   0  5  0  0  0  0  0  0  0  0  0  0
   -2.4763    2.6439   31.7837 C   0  0  0  0  0  0  0  0  0  0  0  0
   -1.3350    2.4859   30.7722 C   0  0  0  0  0  0  0  0  0  0  0  0
   -0.0257    2.2360   31.5126 C   0  0  0  0  0  0  0  0  0  0  0  0
    0.9680    1.6132   30.5902 N   0  0  0  0  0  0  0  0  0  0  0  0
    2.0764    1.0963   31.0636 C   0  0  0  0  0  0  0  0  0  0  0  0
    2.0768    0.4768   32.2178 N   0  0  0  0  0  0  0  0  0  0  0  0
    3.1855    1.1949   30.3788 N   0  3  0  0  0  0  0  0  0  0  0  0
   -4.6166    2.3973   28.9178 O   0  0  0  0  0  0  0  0  0  0  0  0
  2  1  1  1  0  0  0
  2  5  1  0  0  0  0
  2  3  1  0  0  0  0
  3  4  1  0  0  0  0
  3 12  2  0  0  0  0
  5  6  1  0  0  0  0
  6  7  1  0  0  0  0
  7  8  1  0  0  0  0
  8  9  1  0  0  0  0
  9 10  1  0  0  0  0
  9 11  2  0  0  0  0
M  CHG  3   1   1   4  -1  11   1
M  END
>  <CHROM.1>
58.62818214,173.67885223,-82.17866060,175.83600069,160.01386868,-167.93681513
-1.41967519,1.89669414,30.88184251,3.12018864,0.20466910,-1.86522049

>  <Name>
1koc cryst

>  <RI>
0

>  <Rbt.Current_Directory>
/home/itssahil/PROJECTS/Mol_Feturizer/New_Systems/rnas/1koc

>  <Rbt.Executable>
rbdock ($Id: //depot/dev/client3/rdock/2013.1/src/exe/rbdock.cxx#4 $)

>  <Rbt.Library>
libRbt.so (2013.1, Build901 2013/11/27)

>  <Rbt.Parameter_File>
/export/apps/rDock/src/rDock_2013.1_src/data/scripts/dock_solv.prm

>  <Rbt.Receptor>
prm/blind_docking_40.prm

>  <SCORE>
-23.4489

>  <SCORE.INTER>
-21.4079

>  <SCORE.INTER.CONST>
1

>  <SCORE.INTER.POLAR>
-6.45213

>  <SCORE.INTER.ROT>
5

>  <SCORE.INTER.SOLV>
32.6112

>  <SCORE.INTER.VDW>
-10.5686

>  <SCORE.INTER.norm>
-1.784

>  <SCORE.INTRA>
-2.24422

>  <SCORE.INTRA.DIHEDRAL>
-1.00183

>  <SCORE.INTRA.DIHEDRAL.0>
6.04201

>  <SCORE.INTRA.POLAR>
0

>  <SCORE.INTRA.POLAR.0>
0

>  <SCORE.INTRA.REPUL>
0

>  <SCORE.INTRA.REPUL.0>
0

>  <SCORE.INTRA.SOLV>
-1.30709

>  <SCORE.INTRA.SOLV.lig_0>
-71.0481

>  <SCORE.INTRA.VDW>
-1.08976

>  <SCORE.INTRA.VDW.0>
0.968882

>  <SCORE.INTRA.norm>
-0.187018

>  <SCORE.RESTR>
0.203286

>  <SCORE.RESTR.CAVITY>
0.203286

>  <SCORE.RESTR.norm>
0.0169405

>  <SCORE.SYSTEM>
0

>  <SCORE.SYSTEM.CONST>
0

>  <SCORE.SYSTEM.DIHEDRAL>
0

>  <SCORE.SYSTEM.SOLV>
0

>  <SCORE.SYSTEM.norm>
0

>  <SCORE.heavy>
12

>  <SCORE.norm>
-1.95407

>  <SYMMETRIC_BONDS>
11 12 2
5 6 2

>  <RMSD>
7.243

$$$$
1koc cryst
 OpenBabel11021811393D
libRbt.so/2013.1/901 2013/11/27
 12 11  0  0  0  0  0  0  0  0999 V2000
   -2.9980    2.2838   26.7558 N   0  3  0  0  0  0  0  0  0  0  0  0
   -2.1876    1.7126   27.8737 C   0  0  2  0  0  0  0  0  0  0  0  0
   -2.3582    0.1808   27.8862 C   0  0  0  0  0  0  0  0  0  0  0  0
   -3.3867   -0.2848   27.4188 O   0  5  0  0  0  0  0  0  0  0  0  0
   -2.6629    2.3329   29.2151 C   0  0  0  0  0  0  0  0  0  0  0  0
   -1.7970    1.8489   30.3842 C   0  0  0  0  0  0  0  0  0  0  0  0
   -0.4965    2.6441   30.4214 C   0  0  0  0  0  0  0  0  0  0  0  0
    0.3310    2.2090   31.5842 N   0  0  0  0  0  0  0  0  0  0  0  0
    1.5259    1.7036   31.3933 C   0  0  0  0  0  0  0  0  0  0  0  0
    2.2929    2.1632   30.4359 N   0  0  0  0  0  0  0  0  0  0  0  0
    1.9566    0.7401   32.1646 N   0  3  0  0  0  0  0  0  0  0  0  0
   -1.4662   -0.4991   28.3713 O   0  0  0  0  0  0  0  0  0  0  0  0
  2  1  1  6  0  0  0
  2  5  1  0  0  0  0
  2  3  1  0  0  0  0
  3  4  1  0  0  0  0
  3 12  2  0  0  0  0
  5  6  1  0  0  0  0
  6  7  1  0  0  0  0
  7  8  1  0  0  0  0
  8  9  1  0  0  0  0
  9 10  1  0  0  0  0
  9 11  2  0  0  0  0
M  CHG  3   1   1   4  -1  11   1
M  END
>  <CHROM.1>
171.58659789,-176.15324909,-26.12082782,80.01544731,178.12755969,119.60181684
-0.93382002,1.40862067,29.46814226,2.83170168,0.67938834,-2.86035545

>  <Name>
1koc cryst

>  <RI>
0

>  <Rbt.Current_Directory>
/home/itssahil/PROJECTS/Mol_Feturizer/New_Systems/rnas/1koc

>  <Rbt.Executable>
rbdock ($Id: //depot/dev/client3/rdock/2013.1/src/exe/rbdock.cxx#4 $)

>  <Rbt.Library>
libRbt.so (2013.1, Build901 2013/11/27)

>  <Rbt.Parameter_File>
/export/apps/rDock/src/rDock_2013.1_src/data/scripts/dock_solv.prm

>  <Rbt.Receptor>
prm/blind_docking_80.prm

>  <SCORE>
-28.9335

>  <SCORE.INTER>
-26.4067

>  <SCORE.INTER.CONST>
1

>  <SCORE.INTER.POLAR>
-6.36171

>  <SCORE.INTER.ROT>
5

>  <SCORE.INTER.SOLV>
32.0985

>  <SCORE.INTER.VDW>
-14.0316

>  <SCORE.INTER.norm>
-2.20055

>  <SCORE.INTRA>
-2.68474

>  <SCORE.INTRA.DIHEDRAL>
-0.839934

>  <SCORE.INTRA.DIHEDRAL.0>
6.04201

>  <SCORE.INTRA.POLAR>
0

>  <SCORE.INTRA.POLAR.0>
0

>  <SCORE.INTRA.REPUL>
0

>  <SCORE.INTRA.REPUL.0>
0

>  <SCORE.INTRA.SOLV>
-0.833685

>  <SCORE.INTRA.SOLV.lig_0>
-71.0481

>  <SCORE.INTRA.VDW>
-1.84793

>  <SCORE.INTRA.VDW.0>
0.968882

>  <SCORE.INTRA.norm>
-0.223728

>  <SCORE.RESTR>
0.157873

>  <SCORE.RESTR.CAVITY>
0.157873

>  <SCORE.RESTR.norm>
0.0131561

>  <SCORE.SYSTEM>
0

>  <SCORE.SYSTEM.CONST>
0

>  <SCORE.SYSTEM.DIHEDRAL>
0

>  <SCORE.SYSTEM.SOLV>
0

>  <SCORE.SYSTEM.norm>
0

>  <SCORE.heavy>
12

>  <SCORE.norm>
-2.41113

>  <SYMMETRIC_BONDS>
11 12 2
5 6 2

>  <RMSD>
7.262

$$$$
1koc cryst
 OpenBabel11021811393D
libRbt.so/2013.1/901 2013/11/27
 12 11  0  0  0  0  0  0  0  0999 V2000
   -4.8627    2.3077   30.2966 N   0  3  0  0  0  0  0  0  0  0  0  0
   -3.5254    2.4717   29.6504 C   0  0  2  0  0  0  0  0  0  0  0  0
   -3.4002    1.4632   28.4916 C   0  0  0  0  0  0  0  0  0  0  0  0
   -3.2049    1.9027   27.3684 O   0  5  0  0  0  0  0  0  0  0  0  0
   -2.4160    2.2366   30.7105 C   0  0  0  0  0  0  0  0  0  0  0  0
   -1.0244    2.4873   30.1176 C   0  0  0  0  0  0  0  0  0  0  0  0
    0.0337    2.3053   31.2004 C   0  0  0  0  0  0  0  0  0  0  0  0
    1.3813    2.6396   30.6542 N   0  0  0  0  0  0  0  0  0  0  0  0
    2.4210    1.9019   30.9616 C   0  0  0  0  0  0  0  0  0  0  0  0
    2.2946    0.6052   31.0980 N   0  0  0  0  0  0  0  0  0  0  0  0
    3.5906    2.4616   31.1279 N   0  3  0  0  0  0  0  0  0  0  0  0
   -3.5124    0.2726   28.7430 O   0  0  0  0  0  0  0  0  0  0  0  0
  2  1  1  1  0  0  0
  2  5  1  0  0  0  0
  2  3  1  0  0  0  0
  3  4  1  0  0  0  0
  3 12  2  0  0  0  0
  5  6  1  0  0  0  0
  6  7  1  0  0  0  0
  7  8  1  0  0  0  0
  8  9  1  0  0  0  0
  9 10  1  0  0  0  0
  9 11  2  0  0  0  0
M  CHG  3   1   1   4  -1  11   1
M  END
>  <CHROM.1>
30.21008703,-176.15550568,120.77374387,177.60300046,-176.10554535,-138.93448348
-1.03123983,1.90724621,30.03272510,2.87439331,0.14146202,-2.15142399

>  <Name>
1koc cryst

>  <RI>
0

>  <Rbt.Current_Directory>
/home/itssahil/PROJECTS/Mol_Feturizer/New_Systems/rnas/1koc

>  <Rbt.Executable>
rbdock ($Id: //depot/dev/client3/rdock/2013.1/src/exe/rbdock.cxx#4 $)

>  <Rbt.Library>
libRbt.so (2013.1, Build901 2013/11/27)

>  <Rbt.Parameter_File>
/export/apps/rDock/src/rDock_2013.1_src/data/scripts/dock_solv.prm

>  <Rbt.Receptor>
prm/blind_docking_40.prm

>  <SCORE>
-29.0745

>  <SCORE.INTER>
-26.4976

>  <SCORE.INTER.CONST>
1

>  <SCORE.INTER.POLAR>
-5.22489

>  <SCORE.INTER.ROT>
5

>  <SCORE.INTER.SOLV>
26.442

>  <SCORE.INTER.VDW>
-15.9961

>  <SCORE.INTER.norm>
-2.20813

>  <SCORE.INTRA>
-2.57688

>  <SCORE.INTRA.DIHEDRAL>
-0.696033

>  <SCORE.INTRA.DIHEDRAL.0>
6.04201

>  <SCORE.INTRA.POLAR>
0

>  <SCORE.INTRA.POLAR.0>
0

>  <SCORE.INTRA.REPUL>
0

>  <SCORE.INTRA.REPUL.0>
0

>  <SCORE.INTRA.SOLV>
-1.35762

>  <SCORE.INTRA.SOLV.lig_0>
-71.0481

>  <SCORE.INTRA.VDW>
-1.55006

>  <SCORE.INTRA.VDW.0>
0.968882

>  <SCORE.INTRA.norm>
-0.21474

>  <SCORE.RESTR>
0

>  <SCORE.RESTR.CAVITY>
0

>  <SCORE.RESTR.norm>
0

>  <SCORE.SYSTEM>
0

>  <SCORE.SYSTEM.CONST>
0

>  <SCORE.SYSTEM.DIHEDRAL>
0

>  <SCORE.SYSTEM.SOLV>
0

>  <SCORE.SYSTEM.norm>
0

>  <SCORE.heavy>
12

>  <SCORE.norm>
-2.42287

>  <SYMMETRIC_BONDS>
11 12 2
5 6 2

>  <RMSD>
7.265

$$$$
1koc cryst
 OpenBabel11021811393D
libRbt.so/2013.1/901 2013/11/27
 12 11  0  0  0  0  0  0  0  0999 V2000
   -4.8627    2.3214   30.3018 N   0  3  0  0  0  0  0  0  0  0  0  0
   -3.5205    2.3255   29.6450 C   0  0  2  0  0  0  0  0  0  0  0  0
   -3.4015    1.0856   28.7373 C   0  0  0  0  0  0  0  0  0  0  0  0
   -3.5313   -0.0152   29.2514 O   0  5  0  0  0  0  0  0  0  0  0  0
   -2.4190    2.3178   30.7390 C   0  0  0  0  0  0  0  0  0  0  0  0
   -1.0261    2.4850   30.1204 C   0  0  0  0  0  0  0  0  0  0  0  0
    0.0369    2.3223   31.2014 C   0  0  0  0  0  0  0  0  0  0  0  0
    1.3819    2.6482   30.6436 N   0  0  0  0  0  0  0  0  0  0  0  0
    2.4222    1.9123   30.9531 C   0  0  0  0  0  0  0  0  0  0  0  0
    2.2945    0.6174   31.1046 N   0  0  0  0  0  0  0  0  0  0  0  0
    3.5936    2.4718   31.1063 N   0  3  0  0  0  0  0  0  0  0  0  0
   -3.1721    1.2554   27.5491 O   0  0  0  0  0  0  0  0  0  0  0  0
  2  1  1  1  0  0  0
  2  5  1  0  0  0  0
  2  3  1  0  0  0  0
  3  4  1  0  0  0  0
  3 12  2  0  0  0  0
  5  6  1  0  0  0  0
  6  7  1  0  0  0  0
  7  8  1  0  0  0  0
  8  9  1  0  0  0  0
  9 10  1  0  0  0  0
  9 11  2  0  0  0  0
M  CHG  3   1   1   4  -1  11   1
M  END
>  <CHROM.1>
-96.66055580,-173.44359739,-58.55545905,-173.92354651,-173.08711732,-138.55845323
-1.02946768,1.79818497,30.11229829,2.90923313,0.15669870,-2.41499912

>  <Name>
1koc cryst

>  <RI>
0

>  <Rbt.Current_Directory>
/home/itssahil/PROJECTS/Mol_Feturizer/New_Systems/rnas/1koc

>  <Rbt.Executable>
rbdock ($Id: //depot/dev/client3/rdock/2013.1/src/exe/rbdock.cxx#4 $)

>  <Rbt.Library>
libRbt.so (2013.1, Build901 2013/11/27)

>  <Rbt.Parameter_File>
/export/apps/rDock/src/rDock_2013.1_src/data/scripts/dock_solv.prm

>  <Rbt.Receptor>
prm/blind_docking_40.prm

>  <SCORE>
-29.3471

>  <SCORE.INTER>
-27.3869

>  <SCORE.INTER.CONST>
1

>  <SCORE.INTER.POLAR>
-5.22543

>  <SCORE.INTER.ROT>
5

>  <SCORE.INTER.SOLV>
27.0449

>  <SCORE.INTER.VDW>
-16.7882

>  <SCORE.INTER.norm>
-2.28224

>  <SCORE.INTRA>
-1.96024

>  <SCORE.INTRA.DIHEDRAL>
0.286115

>  <SCORE.INTRA.DIHEDRAL.0>
6.04201

>  <SCORE.INTRA.POLAR>
0

>  <SCORE.INTRA.POLAR.0>
0

>  <SCORE.INTRA.REPUL>
0

>  <SCORE.INTRA.REPUL.0>
0

>  <SCORE.INTRA.SOLV>
-1.34125

>  <SCORE.INTRA.SOLV.lig_0>
-71.0481

>  <SCORE.INTRA.VDW>
-1.43267

>  <SCORE.INTRA.VDW.0>
0.968882

>  <SCORE.INTRA.norm>
-0.163353

>  <SCORE.RESTR>
0

>  <SCORE.RESTR.CAVITY>
0

>  <SCORE.RESTR.norm>
0

>  <SCORE.SYSTEM>
0

>  <SCORE.SYSTEM.CONST>
0

>  <SCORE.SYSTEM.DIHEDRAL>
0

>  <SCORE.SYSTEM.SOLV>
0

>  <SCORE.SYSTEM.norm>
0

>  <SCORE.heavy>
12

>  <SCORE.norm>
-2.44559

>  <SYMMETRIC_BONDS>
11 12 2
5 6 2

>  <RMSD>
7.268

$$$$
1koc cryst
 OpenBabel11021811393D
libRbt.so/2013.1/901 2013/11/27
 12 11  0  0  0  0  0  0  0  0999 V2000
   -4.9084    2.4211   29.8569 N   0  3  0  0  0  0  0  0  0  0  0  0
   -3.5016    2.6754   29.4220 C   0  0  2  0  0  0  0  0  0  0  0  0
   -3.3883    2.4114   27.9078 C   0  0  0  0  0  0  0  0  0  0  0  0
   -2.2794    2.4689   27.3978 O   0  5  0  0  0  0  0  0  0  0  0  0
   -2.5470    1.7457   30.2186 C   0  0  0  0  0  0  0  0  0  0  0  0
   -1.6762    2.5510   31.1901 C   0  0  0  0  0  0  0  0  0  0  0  0
   -0.3108    2.8073   30.5615 C   0  0  0  0  0  0  0  0  0  0  0  0
    0.7646    2.2819   31.4524 N   0  0  0  0  0  0  0  0  0  0  0  0
    2.0119    2.2704   31.0475 C   0  0  0  0  0  0  0  0  0  0  0  0
    2.4740    3.2433   30.3020 N   0  0  0  0  0  0  0  0  0  0  0  0
    2.7999    1.2864   31.3933 N   0  3  0  0  0  0  0  0  0  0  0  0
   -4.4095    2.1679   27.2825 O   0  0  0  0  0  0  0  0  0  0  0  0
  2  1  1  1  0  0  0
  2  5  1  0  0  0  0
  2  3  1  0  0  0  0
  3  4  1  0  0  0  0
  3 12  2  0  0  0  0
  5  6  1  0  0  0  0
  6  7  1  0  0  0  0
  7  8  1  0  0  0  0
  8  9  1  0  0  0  0
  9 10  1  0  0  0  0
  9 11  2  0  0  0  0
M  CHG  3   1   1   4  -1  11   1
M  END
>  <CHROM.1>
-59.22707860,-111.41583821,-174.37046771,-97.69310028,-123.47514738,172.96899608
-1.25883636,2.35399460,29.82802466,2.74034999,-0.02130659,-1.48141349

>  <Name>
1koc cryst

>  <RI>
0

>  <Rbt.Current_Directory>
/home/itssahil/PROJECTS/Mol_Feturizer/New_Systems/rnas/1koc

>  <Rbt.Executable>
rbdock ($Id: //depot/dev/client3/rdock/2013.1/src/exe/rbdock.cxx#4 $)

>  <Rbt.Library>
libRbt.so (2013.1, Build901 2013/11/27)

>  <Rbt.Parameter_File>
/export/apps/rDock/src/rDock_2013.1_src/data/scripts/dock_solv.prm

>  <Rbt.Receptor>
prm/blind_docking_80.prm

>  <SCORE>
-23.2382

>  <SCORE.INTER>
-27.0328

>  <SCORE.INTER.CONST>
1

>  <SCORE.INTER.POLAR>
-5.34621

>  <SCORE.INTER.ROT>
5

>  <SCORE.INTER.SOLV>
27.2239

>  <SCORE.INTER.VDW>
-16.2091

>  <SCORE.INTER.norm>
-2.25273

>  <SCORE.INTRA>
3.79192

>  <SCORE.INTRA.DIHEDRAL>
12.0128

>  <SCORE.INTRA.DIHEDRAL.0>
6.04201

>  <SCORE.INTRA.POLAR>
0

>  <SCORE.INTRA.POLAR.0>
0

>  <SCORE.INTRA.REPUL>
0

>  <SCORE.INTRA.REPUL.0>
0

>  <SCORE.INTRA.SOLV>
-0.958141

>  <SCORE.INTRA.SOLV.lig_0>
-71.0481

>  <SCORE.INTRA.VDW>
-1.73542

>  <SCORE.INTRA.VDW.0>
0.968882

>  <SCORE.INTRA.norm>
0.315993

>  <SCORE.RESTR>
0.00269145

>  <SCORE.RESTR.CAVITY>
0.00269145

>  <SCORE.RESTR.norm>
0.000224287

>  <SCORE.SYSTEM>
0

>  <SCORE.SYSTEM.CONST>
0

>  <SCORE.SYSTEM.DIHEDRAL>
0

>  <SCORE.SYSTEM.SOLV>
0

>  <SCORE.SYSTEM.norm>
0

>  <SCORE.heavy>
12

>  <SCORE.norm>
-1.93651

>  <SYMMETRIC_BONDS>
11 12 2
5 6 2

>  <RMSD>
7.268

$$$$
1koc cryst
 OpenBabel11021811393D
libRbt.so/2013.1/901 2013/11/27
 12 11  0  0  0  0  0  0  0  0999 V2000
   -4.6864    1.9704   31.3919 N   0  3  0  0  0  0  0  0  0  0  0  0
   -3.6669    2.3114   30.3541 C   0  0  2  0  0  0  0  0  0  0  0  0
   -3.6513    1.2040   29.2822 C   0  0  0  0  0  0  0  0  0  0  0  0
   -3.5432    1.5406   28.1125 O   0  5  0  0  0  0  0  0  0  0  0  0
   -2.2765    2.4449   31.0316 C   0  0  0  0  0  0  0  0  0  0  0  0
   -1.1461    2.2390   30.0164 C   0  0  0  0  0  0  0  0  0  0  0  0
    0.1077    2.9646   30.4922 C   0  0  0  0  0  0  0  0  0  0  0  0
    0.7542    2.1918   31.5928 N   0  0  0  0  0  0  0  0  0  0  0  0
    1.8106    1.4535   31.3504 C   0  0  0  0  0  0  0  0  0  0  0  0
    2.7097    1.8500   30.4842 N   0  0  0  0  0  0  0  0  0  0  0  0
    1.9705    0.3188   31.9793 N   0  3  0  0  0  0  0  0  0  0  0  0
   -3.7588    0.0422   29.6454 O   0  0  0  0  0  0  0  0  0  0  0  0
  2  1  1  1  0  0  0
  2  5  1  0  0  0  0
  2  3  1  0  0  0  0
  3  4  1  0  0  0  0
  3 12  2  0  0  0  0
  5  6  1  0  0  0  0
  6  7  1  0  0  0  0
  7  8  1  0  0  0  0
  8  9  1  0  0  0  0
  9 10  1  0  0  0  0
  9 11  2  0  0  0  0
M  CHG  3   1   1   4  -1  11   1
M  END
>  <CHROM.1>
-26.70606234,157.49379228,139.53090562,154.43354183,76.04855928,101.74670978
-1.29508462,1.68411528,30.49353361,2.92059630,0.06055078,-1.87355326

>  <Name>
1koc cryst

>  <RI>
0

>  <Rbt.Current_Directory>
/home/itssahil/PROJECTS/Mol_Feturizer/New_Systems/rnas/1koc

>  <Rbt.Executable>
rbdock ($Id: //depot/dev/client3/rdock/2013.1/src/exe/rbdock.cxx#4 $)

>  <Rbt.Library>
libRbt.so (2013.1, Build901 2013/11/27)

>  <Rbt.Parameter_File>
/export/apps/rDock/src/rDock_2013.1_src/data/scripts/dock_solv.prm

>  <Rbt.Receptor>
prm/blind_docking_100.prm

>  <SCORE>
-30.2111

>  <SCORE.INTER>
-31.2838

>  <SCORE.INTER.CONST>
1

>  <SCORE.INTER.POLAR>
-5.58239

>  <SCORE.INTER.ROT>
5

>  <SCORE.INTER.SOLV>
33.6762

>  <SCORE.INTER.VDW>
-20.4067

>  <SCORE.INTER.norm>
-2.60698

>  <SCORE.INTRA>
1.07274

>  <SCORE.INTRA.DIHEDRAL>
4.36736

>  <SCORE.INTRA.DIHEDRAL.0>
6.04201

>  <SCORE.INTRA.POLAR>
0

>  <SCORE.INTRA.POLAR.0>
0

>  <SCORE.INTRA.REPUL>
0

>  <SCORE.INTRA.REPUL.0>
0

>  <SCORE.INTRA.SOLV>
-0.743312

>  <SCORE.INTRA.SOLV.lig_0>
-71.0481

>  <SCORE.INTRA.VDW>
-0.739283

>  <SCORE.INTRA.VDW.0>
0.968882

>  <SCORE.INTRA.norm>
0.089395

>  <SCORE.RESTR>
0

>  <SCORE.RESTR.CAVITY>
0

>  <SCORE.RESTR.norm>
0

>  <SCORE.SYSTEM>
0

>  <SCORE.SYSTEM.CONST>
0

>  <SCORE.SYSTEM.DIHEDRAL>
0

>  <SCORE.SYSTEM.SOLV>
0

>  <SCORE.SYSTEM.norm>
0

>  <SCORE.heavy>
12

>  <SCORE.norm>
-2.51759

>  <SYMMETRIC_BONDS>
11 12 2
5 6 2

>  <RMSD>
7.272

$$$$
1koc cryst
 OpenBabel11021811393D
libRbt.so/2013.1/901 2013/11/27
 12 11  0  0  0  0  0  0  0  0999 V2000
   -4.1419    1.8462   29.8343 N   0  3  0  0  0  0  0  0  0  0  0  0
   -3.8710    2.2342   31.2517 C   0  0  2  0  0  0  0  0  0  0  0  0
   -4.9903    3.1758   31.7376 C   0  0  0  0  0  0  0  0  0  0  0  0
   -5.4025    4.0242   30.9608 O   0  5  0  0  0  0  0  0  0  0  0  0
   -2.4869    2.9328   31.3320 C   0  0  0  0  0  0  0  0  0  0  0  0
   -1.4731    2.2569   30.4012 C   0  0  0  0  0  0  0  0  0  0  0  0
   -0.1701    3.0488   30.4024 C   0  0  0  0  0  0  0  0  0  0  0  0
    0.8048    2.4203   31.3410 N   0  0  0  0  0  0  0  0  0  0  0  0
    2.0796    2.3738   31.0371 C   0  0  0  0  0  0  0  0  0  0  0  0
    2.6427    3.3665   30.3942 N   0  0  0  0  0  0  0  0  0  0  0  0
    2.7938    1.3344   31.3813 N   0  3  0  0  0  0  0  0  0  0  0  0
   -5.4080    3.0416   32.8781 O   0  0  0  0  0  0  0  0  0  0  0  0
  2  1  1  6  0  0  0
  2  5  1  0  0  0  0
  2  3  1  0  0  0  0
  3  4  1  0  0  0  0
  3 12  2  0  0  0  0
  5  6  1  0  0  0  0
  6  7  1  0  0  0  0
  7  8  1  0  0  0  0
  8  9  1  0  0  0  0
  9 10  1  0  0  0  0
  9 11  2  0  0  0  0
M  CHG  3   1   1   4  -1  11   1
M  END
>  <CHROM.1>
-50.10901055,-38.67522696,-40.32358738,174.49072166,97.89090619,142.08152965
-1.63864618,2.66407069,31.06397368,3.05717495,-0.07825088,1.42246041

>  <Name>
1koc cryst

>  <RI>
0

>  <Rbt.Current_Directory>
/home/itssahil/PROJECTS/Mol_Feturizer/New_Systems/rnas/1koc

>  <Rbt.Executable>
rbdock ($Id: //depot/dev/client3/rdock/2013.1/src/exe/rbdock.cxx#4 $)

>  <Rbt.Library>
libRbt.so (2013.1, Build901 2013/11/27)

>  <Rbt.Parameter_File>
/export/apps/rDock/src/rDock_2013.1_src/data/scripts/dock_solv.prm

>  <Rbt.Receptor>
prm/blind_docking_40.prm

>  <SCORE>
-26.9835

>  <SCORE.INTER>
-27.386

>  <SCORE.INTER.CONST>
1

>  <SCORE.INTER.POLAR>
-4.05416

>  <SCORE.INTER.ROT>
5

>  <SCORE.INTER.SOLV>
26.9795

>  <SCORE.INTER.VDW>
-20.67

>  <SCORE.INTER.norm>
-2.28217

>  <SCORE.INTRA>
0.40249

>  <SCORE.INTRA.DIHEDRAL>
3.07198

>  <SCORE.INTRA.DIHEDRAL.0>
6.04201

>  <SCORE.INTRA.POLAR>
0

>  <SCORE.INTRA.POLAR.0>
0

>  <SCORE.INTRA.REPUL>
0

>  <SCORE.INTRA.REPUL.0>
0

>  <SCORE.INTRA.SOLV>
-0.421316

>  <SCORE.INTRA.SOLV.lig_0>
-71.0481

>  <SCORE.INTRA.VDW>
-0.922843

>  <SCORE.INTRA.VDW.0>
0.968882

>  <SCORE.INTRA.norm>
0.0335408

>  <SCORE.RESTR>
0

>  <SCORE.RESTR.CAVITY>
0

>  <SCORE.RESTR.norm>
0

>  <SCORE.SYSTEM>
0

>  <SCORE.SYSTEM.CONST>
0

>  <SCORE.SYSTEM.DIHEDRAL>
0

>  <SCORE.SYSTEM.SOLV>
0

>  <SCORE.SYSTEM.norm>
0

>  <SCORE.heavy>
12

>  <SCORE.norm>
-2.24862

>  <SYMMETRIC_BONDS>
11 12 2
5 6 2

>  <RMSD>
7.282

$$$$
1koc cryst
 OpenBabel11021811393D
libRbt.so/2013.1/901 2013/11/27
 12 11  0  0  0  0  0  0  0  0999 V2000
   -2.5989    0.0514   27.1333 N   0  3  0  0  0  0  0  0  0  0  0  0
   -2.8230    1.0285   28.2415 C   0  0  2  0  0  0  0  0  0  0  0  0
   -3.2240    2.3890   27.6384 C   0  0  0  0  0  0  0  0  0  0  0  0
   -2.3344    3.1146   27.2199 O   0  5  0  0  0  0  0  0  0  0  0  0
   -1.5213    1.1564   29.0778 C   0  0  0  0  0  0  0  0  0  0  0  0
   -1.6421    2.2756   30.1187 C   0  0  0  0  0  0  0  0  0  0  0  0
   -0.2827    2.9361   30.3203 C   0  0  0  0  0  0  0  0  0  0  0  0
    0.4259    2.2985   31.4681 N   0  0  0  0  0  0  0  0  0  0  0  0
    1.5971    1.7354   31.2920 C   0  0  0  0  0  0  0  0  0  0  0  0
    2.4615    2.2550   30.4559 N   0  0  0  0  0  0  0  0  0  0  0  0
    1.9063    0.6533   31.9571 N   0  3  0  0  0  0  0  0  0  0  0  0
   -4.4088    2.6875   27.6149 O   0  0  0  0  0  0  0  0  0  0  0  0
  2  1  1  6  0  0  0
  2  5  1  0  0  0  0
  2  3  1  0  0  0  0
  3  4  1  0  0  0  0
  3 12  2  0  0  0  0
  5  6  1  0  0  0  0
  6  7  1  0  0  0  0
  7  8  1  0  0  0  0
  8  9  1  0  0  0  0
  9 10  1  0  0  0  0
  9 11  2  0  0  0  0
M  CHG  3   1   1   4  -1  11   1
M  END
>  <CHROM.1>
65.37844706,172.87233572,-81.20313672,-146.59188583,-93.80242784,121.22896887
-1.02590443,1.86042675,29.35355931,-3.01797841,-0.64869468,0.25034888

>  <Name>
1koc cryst

>  <RI>
0

>  <Rbt.Current_Directory>
/home/itssahil/PROJECTS/Mol_Feturizer/New_Systems/rnas/1koc

>  <Rbt.Executable>
rbdock ($Id: //depot/dev/client3/rdock/2013.1/src/exe/rbdock.cxx#4 $)

>  <Rbt.Library>
libRbt.so (2013.1, Build901 2013/11/27)

>  <Rbt.Parameter_File>
/export/apps/rDock/src/rDock_2013.1_src/data/scripts/dock_solv.prm

>  <Rbt.Receptor>
prm/blind_docking_100.prm

>  <SCORE>
-32.917

>  <SCORE.INTER>
-33.1664

>  <SCORE.INTER.CONST>
1

>  <SCORE.INTER.POLAR>
-6.64737

>  <SCORE.INTER.ROT>
5

>  <SCORE.INTER.SOLV>
31.0214

>  <SCORE.INTER.VDW>
-17.2268

>  <SCORE.INTER.norm>
-2.76386

>  <SCORE.INTRA>
0.249377

>  <SCORE.INTRA.DIHEDRAL>
4.56541

>  <SCORE.INTRA.DIHEDRAL.0>
6.04201

>  <SCORE.INTRA.POLAR>
0

>  <SCORE.INTRA.POLAR.0>
0

>  <SCORE.INTRA.REPUL>
0

>  <SCORE.INTRA.REPUL.0>
0

>  <SCORE.INTRA.SOLV>
-0.871132

>  <SCORE.INTRA.SOLV.lig_0>
-71.0481

>  <SCORE.INTRA.VDW>
-1.59776

>  <SCORE.INTRA.VDW.0>
0.968882

>  <SCORE.INTRA.norm>
0.0207814

>  <SCORE.RESTR>
0

>  <SCORE.RESTR.CAVITY>
0

>  <SCORE.RESTR.norm>
0

>  <SCORE.SYSTEM>
0

>  <SCORE.SYSTEM.CONST>
0

>  <SCORE.SYSTEM.DIHEDRAL>
0

>  <SCORE.SYSTEM.SOLV>
0

>  <SCORE.SYSTEM.norm>
0

>  <SCORE.heavy>
12

>  <SCORE.norm>
-2.74308

>  <SYMMETRIC_BONDS>
11 12 2
5 6 2

>  <RMSD>
7.284

$$$$
1koc cryst
 OpenBabel11021811393D
libRbt.so/2013.1/901 2013/11/27
 12 11  0  0  0  0  0  0  0  0999 V2000
   -4.1782    2.5720   29.7824 N   0  3  0  0  0  0  0  0  0  0  0  0
   -3.8884    2.2022   31.2009 C   0  0  2  0  0  0  0  0  0  0  0  0
   -5.0070    2.7582   32.1037 C   0  0  0  0  0  0  0  0  0  0  0  0
   -6.0255    2.0947   32.2280 O   0  5  0  0  0  0  0  0  0  0  0  0
   -2.5084    2.7861   31.6069 C   0  0  0  0  0  0  0  0  0  0  0  0
   -1.4049    2.3048   30.6575 C   0  0  0  0  0  0  0  0  0  0  0  0
   -0.0744    2.2583   31.4010 C   0  0  0  0  0  0  0  0  0  0  0  0
    0.9491    1.5637   30.5666 N   0  0  0  0  0  0  0  0  0  0  0  0
    2.0655    1.1384   31.1074 C   0  0  0  0  0  0  0  0  0  0  0  0
    2.0683    0.6562   32.3254 N   0  0  0  0  0  0  0  0  0  0  0  0
    3.1803    1.1909   30.4269 N   0  3  0  0  0  0  0  0  0  0  0  0
   -4.8328    3.8397   32.6453 O   0  0  0  0  0  0  0  0  0  0  0  0
  2  1  1  6  0  0  0
  2  5  1  0  0  0  0
  2  3  1  0  0  0  0
  3  4  1  0  0  0  0
  3 12  2  0  0  0  0
  5  6  1  0  0  0  0
  6  7  1  0  0  0  0
  7  8  1  0  0  0  0
  8  9  1  0  0  0  0
  9 10  1  0  0  0  0
  9 11  2  0  0  0  0
M  CHG  3   1   1   4  -1  11   1
M  END
>  <CHROM.1>
63.47679691,-56.35910267,84.26176505,-151.29159873,169.85306051,-164.44149452
-1.64328128,2.11263050,31.31825519,3.06309486,-0.22193922,1.61844337

>  <Name>
1koc cryst

>  <RI>
0

>  <Rbt.Current_Directory>
/home/itssahil/PROJECTS/Mol_Feturizer/New_Systems/rnas/1koc

>  <Rbt.Executable>
rbdock ($Id: //depot/dev/client3/rdock/2013.1/src/exe/rbdock.cxx#4 $)

>  <Rbt.Library>
libRbt.so (2013.1, Build901 2013/11/27)

>  <Rbt.Parameter_File>
/export/apps/rDock/src/rDock_2013.1_src/data/scripts/dock_solv.prm

>  <Rbt.Receptor>
prm/blind_docking_100.prm

>  <SCORE>
-24.8724

>  <SCORE.INTER>
-24.0366

>  <SCORE.INTER.CONST>
1

>  <SCORE.INTER.POLAR>
-6.35109

>  <SCORE.INTER.ROT>
5

>  <SCORE.INTER.SOLV>
32.7163

>  <SCORE.INTER.VDW>
-12.6929

>  <SCORE.INTER.norm>
-2.00305

>  <SCORE.INTRA>
-1.05376

>  <SCORE.INTRA.DIHEDRAL>
0.69649

>  <SCORE.INTRA.DIHEDRAL.0>
6.04201

>  <SCORE.INTRA.POLAR>
0

>  <SCORE.INTRA.POLAR.0>
0

>  <SCORE.INTRA.REPUL>
0

>  <SCORE.INTRA.REPUL.0>
0

>  <SCORE.INTRA.SOLV>
-1.11177

>  <SCORE.INTRA.SOLV.lig_0>
-71.0481

>  <SCORE.INTRA.VDW>
-0.846118

>  <SCORE.INTRA.VDW.0>
0.968882

>  <SCORE.INTRA.norm>
-0.0878131

>  <SCORE.RESTR>
0.21798

>  <SCORE.RESTR.CAVITY>
0.21798

>  <SCORE.RESTR.norm>
0.018165

>  <SCORE.SYSTEM>
0

>  <SCORE.SYSTEM.CONST>
0

>  <SCORE.SYSTEM.DIHEDRAL>
0

>  <SCORE.SYSTEM.SOLV>
0

>  <SCORE.SYSTEM.norm>
0

>  <SCORE.heavy>
12

>  <SCORE.norm>
-2.0727

>  <SYMMETRIC_BONDS>
11 12 2
5 6 2

>  <RMSD>
7.303

$$$$
1koc cryst
 OpenBabel11021811393D
libRbt.so/2013.1/901 2013/11/27
 12 11  0  0  0  0  0  0  0  0999 V2000
   -3.7743    0.8913   29.8784 N   0  3  0  0  0  0  0  0  0  0  0  0
   -2.9656    1.7956   29.0060 C   0  0  2  0  0  0  0  0  0  0  0  0
   -3.1623    1.3820   27.5343 C   0  0  0  0  0  0  0  0  0  0  0  0
   -3.4180    2.2586   26.7223 O   0  5  0  0  0  0  0  0  0  0  0  0
   -1.4712    1.6933   29.4141 C   0  0  0  0  0  0  0  0  0  0  0  0
   -1.0984    2.7875   30.4214 C   0  0  0  0  0  0  0  0  0  0  0  0
    0.0480    2.3032   31.3023 C   0  0  0  0  0  0  0  0  0  0  0  0
    1.3541    2.6081   30.6484 N   0  0  0  0  0  0  0  0  0  0  0  0
    2.4114    1.8782   30.9110 C   0  0  0  0  0  0  0  0  0  0  0  0
    2.2922    0.5888   31.1090 N   0  0  0  0  0  0  0  0  0  0  0  0
    3.5911    2.4381   30.9707 N   0  3  0  0  0  0  0  0  0  0  0  0
   -3.0659    0.1986   27.2455 O   0  0  0  0  0  0  0  0  0  0  0  0
  2  1  1  1  0  0  0
  2  5  1  0  0  0  0
  2  3  1  0  0  0  0
  3  4  1  0  0  0  0
  3 12  2  0  0  0  0
  5  6  1  0  0  0  0
  6  7  1  0  0  0  0
  7  8  1  0  0  0  0
  8  9  1  0  0  0  0
  9 10  1  0  0  0  0
  9 11  2  0  0  0  0
M  CHG  3   1   1   4  -1  11   1
M  END
>  <CHROM.1>
179.87866747,-94.03460789,131.74974614,151.96740228,87.19222093,-153.57322277
-0.77663061,1.70891093,29.59464165,2.64402467,-0.04914945,-1.69060953

>  <Name>
1koc cryst

>  <RI>
0

>  <Rbt.Current_Directory>
/home/itssahil/PROJECTS/Mol_Feturizer/New_Systems/rnas/1koc

>  <Rbt.Executable>
rbdock ($Id: //depot/dev/client3/rdock/2013.1/src/exe/rbdock.cxx#4 $)

>  <Rbt.Library>
libRbt.so (2013.1, Build901 2013/11/27)

>  <Rbt.Parameter_File>
/export/apps/rDock/src/rDock_2013.1_src/data/scripts/dock_solv.prm

>  <Rbt.Receptor>
prm/blind_docking_60.prm

>  <SCORE>
-23.469

>  <SCORE.INTER>
-23.5894

>  <SCORE.INTER.CONST>
1

>  <SCORE.INTER.POLAR>
-5.10083

>  <SCORE.INTER.ROT>
5

>  <SCORE.INTER.SOLV>
30.0713

>  <SCORE.INTER.VDW>
-15.6806

>  <SCORE.INTER.norm>
-1.96578

>  <SCORE.INTRA>
0.0236366

>  <SCORE.INTRA.DIHEDRAL>
5.60208

>  <SCORE.INTRA.DIHEDRAL.0>
6.04201

>  <SCORE.INTRA.POLAR>
0

>  <SCORE.INTRA.POLAR.0>
0

>  <SCORE.INTRA.REPUL>
0

>  <SCORE.INTRA.REPUL.0>
0

>  <SCORE.INTRA.SOLV>
-0.992758

>  <SCORE.INTRA.SOLV.lig_0>
-71.0481

>  <SCORE.INTRA.VDW>
-2.28102

>  <SCORE.INTRA.VDW.0>
0.968882

>  <SCORE.INTRA.norm>
0.00196971

>  <SCORE.RESTR>
0.0968025

>  <SCORE.RESTR.CAVITY>
0.0968025

>  <SCORE.RESTR.norm>
0.00806688

>  <SCORE.SYSTEM>
0

>  <SCORE.SYSTEM.CONST>
0

>  <SCORE.SYSTEM.DIHEDRAL>
0

>  <SCORE.SYSTEM.SOLV>
0

>  <SCORE.SYSTEM.norm>
0

>  <SCORE.heavy>
12

>  <SCORE.norm>
-1.95575

>  <SYMMETRIC_BONDS>
11 12 2
5 6 2

>  <RMSD>
7.328

$$$$
1koc cryst
 OpenBabel11021811393D
libRbt.so/2013.1/901 2013/11/27
 12 11  0  0  0  0  0  0  0  0999 V2000
   -4.0642    1.4558   30.1314 N   0  3  0  0  0  0  0  0  0  0  0  0
   -3.2042    1.2700   28.9237 C   0  0  2  0  0  0  0  0  0  0  0  0
   -2.8020   -0.2140   28.8167 C   0  0  0  0  0  0  0  0  0  0  0  0
   -1.7771   -0.4873   28.2102 O   0  5  0  0  0  0  0  0  0  0  0  0
   -1.9494    2.1755   29.0487 C   0  0  0  0  0  0  0  0  0  0  0  0
   -1.3912    2.1505   30.4766 C   0  0  0  0  0  0  0  0  0  0  0  0
    0.0248    2.7162   30.4826 C   0  0  0  0  0  0  0  0  0  0  0  0
    0.7981    2.1360   31.6190 N   0  0  0  0  0  0  0  0  0  0  0  0
    1.8411    1.3751   31.3890 C   0  0  0  0  0  0  0  0  0  0  0  0
    2.6376    1.6320   30.3812 N   0  0  0  0  0  0  0  0  0  0  0  0
    2.0909    0.3582   32.1715 N   0  3  0  0  0  0  0  0  0  0  0  0
   -3.5284   -1.0513   29.3310 O   0  0  0  0  0  0  0  0  0  0  0  0
  2  1  1  1  0  0  0
  2  5  1  0  0  0  0
  2  3  1  0  0  0  0
  3  4  1  0  0  0  0
  3 12  2  0  0  0  0
  5  6  1  0  0  0  0
  6  7  1  0  0  0  0
  7  8  1  0  0  0  0
  8  9  1  0  0  0  0
  9 10  1  0  0  0  0
  9 11  2  0  0  0  0
M  CHG  3   1   1   4  -1  11   1
M  END
>  <CHROM.1>
55.95424110,41.62398662,-155.34412251,164.39950784,-153.12665648,115.62172636
-0.94838247,1.10221557,30.10420604,2.83111290,0.31959446,-2.81654201

>  <Name>
1koc cryst

>  <RI>
0

>  <Rbt.Current_Directory>
/home/itssahil/PROJECTS/Mol_Feturizer/New_Systems/rnas/1koc

>  <Rbt.Executable>
rbdock ($Id: //depot/dev/client3/rdock/2013.1/src/exe/rbdock.cxx#4 $)

>  <Rbt.Library>
libRbt.so (2013.1, Build901 2013/11/27)

>  <Rbt.Parameter_File>
/export/apps/rDock/src/rDock_2013.1_src/data/scripts/dock_solv.prm

>  <Rbt.Receptor>
prm/blind_docking_80.prm

>  <SCORE>
-32.5014

>  <SCORE.INTER>
-33.2537

>  <SCORE.INTER.CONST>
1

>  <SCORE.INTER.POLAR>
-6.84242

>  <SCORE.INTER.ROT>
5

>  <SCORE.INTER.SOLV>
37.5887

>  <SCORE.INTER.VDW>
-18.824

>  <SCORE.INTER.norm>
-2.77114

>  <SCORE.INTRA>
0.496089

>  <SCORE.INTRA.DIHEDRAL>
1.80354

>  <SCORE.INTRA.DIHEDRAL.0>
6.04201

>  <SCORE.INTRA.POLAR>
0

>  <SCORE.INTRA.POLAR.0>
0

>  <SCORE.INTRA.REPUL>
0

>  <SCORE.INTRA.REPUL.0>
0

>  <SCORE.INTRA.SOLV>
0.250849

>  <SCORE.INTRA.SOLV.lig_0>
-71.0481

>  <SCORE.INTRA.VDW>
-0.531107

>  <SCORE.INTRA.VDW.0>
0.968882

>  <SCORE.INTRA.norm>
0.0413407

>  <SCORE.RESTR>
0.256157

>  <SCORE.RESTR.CAVITY>
0.256157

>  <SCORE.RESTR.norm>
0.0213464

>  <SCORE.SYSTEM>
0

>  <SCORE.SYSTEM.CONST>
0

>  <SCORE.SYSTEM.DIHEDRAL>
0

>  <SCORE.SYSTEM.SOLV>
0

>  <SCORE.SYSTEM.norm>
0

>  <SCORE.heavy>
12

>  <SCORE.norm>
-2.70845

>  <SYMMETRIC_BONDS>
11 12 2
5 6 2

>  <RMSD>
7.375

$$$$
1koc cryst
 OpenBabel11021811393D
libRbt.so/2013.1/901 2013/11/27
 12 11  0  0  0  0  0  0  0  0999 V2000
   -4.0720    2.8336   32.7378 N   0  3  0  0  0  0  0  0  0  0  0  0
   -3.8830    3.0624   31.2733 C   0  0  2  0  0  0  0  0  0  0  0  0
   -5.1183    2.5333   30.5185 C   0  0  0  0  0  0  0  0  0  0  0  0
   -6.1148    2.2606   31.1710 O   0  5  0  0  0  0  0  0  0  0  0  0
   -2.5950    2.3321   30.8066 C   0  0  0  0  0  0  0  0  0  0  0  0
   -1.3568    3.2132   31.0101 C   0  0  0  0  0  0  0  0  0  0  0  0
   -0.1209    2.4874   30.4898 C   0  0  0  0  0  0  0  0  0  0  0  0
    0.6712    1.9498   31.6343 N   0  0  0  0  0  0  0  0  0  0  0  0
    1.7425    1.2260   31.4149 C   0  0  0  0  0  0  0  0  0  0  0  0
    2.5309    1.5008   30.4056 N   0  0  0  0  0  0  0  0  0  0  0  0
    2.0285    0.2283   32.2097 N   0  3  0  0  0  0  0  0  0  0  0  0
   -5.0448    2.3989   29.3062 O   0  0  0  0  0  0  0  0  0  0  0  0
  2  1  1  1  0  0  0
  2  5  1  0  0  0  0
  2  3  1  0  0  0  0
  3  4  1  0  0  0  0
  3 12  2  0  0  0  0
  5  6  1  0  0  0  0
  6  7  1  0  0  0  0
  7  8  1  0  0  0  0
  8  9  1  0  0  0  0
  9 10  1  0  0  0  0
  9 11  2  0  0  0  0
M  CHG  3   1   1   4  -1  11   1
M  END
>  <CHROM.1>
-63.06901511,-86.23980165,13.06025739,-177.72218398,-103.66977603,176.39540781
-1.78395196,2.15144973,31.11076487,3.05811023,0.17804241,-1.42918224

>  <Name>
1koc cryst

>  <RI>
0

>  <Rbt.Current_Directory>
/home/itssahil/PROJECTS/Mol_Feturizer/New_Systems/rnas/1koc

>  <Rbt.Executable>
rbdock ($Id: //depot/dev/client3/rdock/2013.1/src/exe/rbdock.cxx#4 $)

>  <Rbt.Library>
libRbt.so (2013.1, Build901 2013/11/27)

>  <Rbt.Parameter_File>
/export/apps/rDock/src/rDock_2013.1_src/data/scripts/dock_solv.prm

>  <Rbt.Receptor>
prm/blind_docking_60.prm

>  <SCORE>
-28.1699

>  <SCORE.INTER>
-28.5248

>  <SCORE.INTER.CONST>
1

>  <SCORE.INTER.POLAR>
-5.95657

>  <SCORE.INTER.ROT>
5

>  <SCORE.INTER.SOLV>
34.986

>  <SCORE.INTER.VDW>
-17.7566

>  <SCORE.INTER.norm>
-2.37707

>  <SCORE.INTRA>
-0.0579011

>  <SCORE.INTRA.DIHEDRAL>
4.08652

>  <SCORE.INTRA.DIHEDRAL.0>
6.04201

>  <SCORE.INTRA.POLAR>
0

>  <SCORE.INTRA.POLAR.0>
0

>  <SCORE.INTRA.REPUL>
0

>  <SCORE.INTRA.REPUL.0>
0

>  <SCORE.INTRA.SOLV>
-1.10567

>  <SCORE.INTRA.SOLV.lig_0>
-71.0481

>  <SCORE.INTRA.VDW>
-1.54832

>  <SCORE.INTRA.VDW.0>
0.968882

>  <SCORE.INTRA.norm>
-0.00482509

>  <SCORE.RESTR>
0.412776

>  <SCORE.RESTR.CAVITY>
0.412776

>  <SCORE.RESTR.norm>
0.034398

>  <SCORE.SYSTEM>
0

>  <SCORE.SYSTEM.CONST>
0

>  <SCORE.SYSTEM.DIHEDRAL>
0

>  <SCORE.SYSTEM.SOLV>
0

>  <SCORE.SYSTEM.norm>
0

>  <SCORE.heavy>
12

>  <SCORE.norm>
-2.34749

>  <SYMMETRIC_BONDS>
11 12 2
5 6 2

>  <RMSD>
7.391

$$$$
1koc cryst
 OpenBabel11021811393D
libRbt.so/2013.1/901 2013/11/27
 12 11  0  0  0  0  0  0  0  0999 V2000
   -3.1126    2.1968   27.9316 N   0  3  0  0  0  0  0  0  0  0  0  0
   -2.2577    1.2058   28.6526 C   0  0  2  0  0  0  0  0  0  0  0  0
   -2.6940   -0.2179   28.2546 C   0  0  0  0  0  0  0  0  0  0  0  0
   -3.0469   -0.4070   27.1002 O   0  5  0  0  0  0  0  0  0  0  0  0
   -2.4076    1.4228   30.1825 C   0  0  0  0  0  0  0  0  0  0  0  0
   -1.8399    2.7830   30.6049 C   0  0  0  0  0  0  0  0  0  0  0  0
   -0.3399    2.8183   30.3333 C   0  0  0  0  0  0  0  0  0  0  0  0
    0.4009    2.2642   31.5040 N   0  0  0  0  0  0  0  0  0  0  0  0
    1.5832    1.7207   31.3413 C   0  0  0  0  0  0  0  0  0  0  0  0
    2.4222    2.2129   30.4639 N   0  0  0  0  0  0  0  0  0  0  0  0
    1.9291    0.6859   32.0613 N   0  3  0  0  0  0  0  0  0  0  0  0
   -2.6792   -1.0905   29.1100 O   0  0  0  0  0  0  0  0  0  0  0  0
  2  1  1  6  0  0  0
  2  5  1  0  0  0  0
  2  3  1  0  0  0  0
  3  4  1  0  0  0  0
  3 12  2  0  0  0  0
  5  6  1  0  0  0  0
  6  7  1  0  0  0  0
  7  8  1  0  0  0  0
  8  9  1  0  0  0  0
  9 10  1  0  0  0  0
  9 11  2  0  0  0  0
M  CHG  3   1   1   4  -1  11   1
M  END
>  <CHROM.1>
-150.76937835,-65.79622986,36.50255371,-63.79821858,-87.17713826,153.68706888
-1.00466954,1.29252432,29.77625259,2.75770897,0.55815706,-2.92412099

>  <Name>
1koc cryst

>  <RI>
0

>  <Rbt.Current_Directory>
/home/itssahil/PROJECTS/Mol_Feturizer/New_Systems/rnas/1koc

>  <Rbt.Executable>
rbdock ($Id: //depot/dev/client3/rdock/2013.1/src/exe/rbdock.cxx#4 $)

>  <Rbt.Library>
libRbt.so (2013.1, Build901 2013/11/27)

>  <Rbt.Parameter_File>
/export/apps/rDock/src/rDock_2013.1_src/data/scripts/dock_solv.prm

>  <Rbt.Receptor>
prm/blind_docking_60.prm

>  <SCORE>
-22.789

>  <SCORE.INTER>
-23.1016

>  <SCORE.INTER.CONST>
1

>  <SCORE.INTER.POLAR>
-5.053

>  <SCORE.INTER.ROT>
5

>  <SCORE.INTER.SOLV>
31.6454

>  <SCORE.INTER.VDW>
-16.0395

>  <SCORE.INTER.norm>
-1.92513

>  <SCORE.INTRA>
0.173933

>  <SCORE.INTRA.DIHEDRAL>
1.67395

>  <SCORE.INTRA.DIHEDRAL.0>
6.04201

>  <SCORE.INTRA.POLAR>
0

>  <SCORE.INTRA.POLAR.0>
0

>  <SCORE.INTRA.REPUL>
0

>  <SCORE.INTRA.REPUL.0>
0

>  <SCORE.INTRA.SOLV>
-0.283943

>  <SCORE.INTRA.SOLV.lig_0>
-71.0481

>  <SCORE.INTRA.VDW>
-0.521071

>  <SCORE.INTRA.VDW.0>
0.968882

>  <SCORE.INTRA.norm>
0.0144945

>  <SCORE.RESTR>
0.138709

>  <SCORE.RESTR.CAVITY>
0.138709

>  <SCORE.RESTR.norm>
0.0115591

>  <SCORE.SYSTEM>
0

>  <SCORE.SYSTEM.CONST>
0

>  <SCORE.SYSTEM.DIHEDRAL>
0

>  <SCORE.SYSTEM.SOLV>
0

>  <SCORE.SYSTEM.norm>
0

>  <SCORE.heavy>
12

>  <SCORE.norm>
-1.89908

>  <SYMMETRIC_BONDS>
11 12 2
5 6 2

>  <RMSD>
7.406

$$$$
1koc cryst
 OpenBabel11021811393D
libRbt.so/2013.1/901 2013/11/27
 12 11  0  0  0  0  0  0  0  0999 V2000
   -3.7966    1.5068   30.1335 N   0  3  0  0  0  0  0  0  0  0  0  0
   -2.8115    1.2953   29.0301 C   0  0  2  0  0  0  0  0  0  0  0  0
   -3.0797   -0.0725   28.3724 C   0  0  0  0  0  0  0  0  0  0  0  0
   -3.1942   -0.1108   27.1565 O   0  5  0  0  0  0  0  0  0  0  0  0
   -1.3739    1.3563   29.6131 C   0  0  0  0  0  0  0  0  0  0  0  0
   -1.1240    2.6904   30.3263 C   0  0  0  0  0  0  0  0  0  0  0  0
    0.3764    2.9226   30.4665 C   0  0  0  0  0  0  0  0  0  0  0  0
    0.9106    2.1167   31.6029 N   0  0  0  0  0  0  0  0  0  0  0  0
    1.9379    1.3215   31.4243 C   0  0  0  0  0  0  0  0  0  0  0  0
    2.9091    1.6674   30.6161 N   0  0  0  0  0  0  0  0  0  0  0  0
    1.9965    0.1803   32.0593 N   0  3  0  0  0  0  0  0  0  0  0  0
   -3.1773   -1.0545   29.0931 O   0  0  0  0  0  0  0  0  0  0  0  0
  2  1  1  1  0  0  0
  2  5  1  0  0  0  0
  2  3  1  0  0  0  0
  3  4  1  0  0  0  0
  3 12  2  0  0  0  0
  5  6  1  0  0  0  0
  6  7  1  0  0  0  0
  7  8  1  0  0  0  0
  8  9  1  0  0  0  0
  9 10  1  0  0  0  0
  9 11  2  0  0  0  0
M  CHG  3   1   1   4  -1  11   1
M  END
>  <CHROM.1>
-31.00123446,-57.23820194,128.92662483,-160.98320611,-78.83845476,127.51575424
-0.88289218,1.12789129,30.00764851,2.77049147,0.37263207,-2.76866978

>  <Name>
1koc cryst

>  <RI>
0

>  <Rbt.Current_Directory>
/home/itssahil/PROJECTS/Mol_Feturizer/New_Systems/rnas/1koc

>  <Rbt.Executable>
rbdock ($Id: //depot/dev/client3/rdock/2013.1/src/exe/rbdock.cxx#4 $)

>  <Rbt.Library>
libRbt.so (2013.1, Build901 2013/11/27)

>  <Rbt.Parameter_File>
/export/apps/rDock/src/rDock_2013.1_src/data/scripts/dock_solv.prm

>  <Rbt.Receptor>
prm/blind_docking_60.prm

>  <SCORE>
-35.6651

>  <SCORE.INTER>
-34.3633

>  <SCORE.INTER.CONST>
1

>  <SCORE.INTER.POLAR>
-7.10699

>  <SCORE.INTER.ROT>
5

>  <SCORE.INTER.SOLV>
35.3969

>  <SCORE.INTER.VDW>
-17.9512

>  <SCORE.INTER.norm>
-2.86361

>  <SCORE.INTRA>
-1.34528

>  <SCORE.INTRA.DIHEDRAL>
1.77216

>  <SCORE.INTRA.DIHEDRAL.0>
6.04201

>  <SCORE.INTRA.POLAR>
0

>  <SCORE.INTRA.POLAR.0>
0

>  <SCORE.INTRA.REPUL>
0

>  <SCORE.INTRA.REPUL.0>
0

>  <SCORE.INTRA.SOLV>
-0.958982

>  <SCORE.INTRA.SOLV.lig_0>
-71.0481

>  <SCORE.INTRA.VDW>
-1.75187

>  <SCORE.INTRA.VDW.0>
0.968882

>  <SCORE.INTRA.norm>
-0.112106

>  <SCORE.RESTR>
0.043459

>  <SCORE.RESTR.CAVITY>
0.043459

>  <SCORE.RESTR.norm>
0.00362158

>  <SCORE.SYSTEM>
0

>  <SCORE.SYSTEM.CONST>
0

>  <SCORE.SYSTEM.DIHEDRAL>
0

>  <SCORE.SYSTEM.SOLV>
0

>  <SCORE.SYSTEM.norm>
0

>  <SCORE.heavy>
12

>  <SCORE.norm>
-2.97209

>  <SYMMETRIC_BONDS>
11 12 2
5 6 2

>  <RMSD>
7.416

$$$$
1koc cryst
 OpenBabel11021811393D
libRbt.so/2013.1/901 2013/11/27
 12 11  0  0  0  0  0  0  0  0999 V2000
   -3.0811    1.2637   26.9092 N   0  3  0  0  0  0  0  0  0  0  0  0
   -2.3324    0.9130   28.1539 C   0  0  2  0  0  0  0  0  0  0  0  0
   -3.1927   -0.0408   29.0058 C   0  0  0  0  0  0  0  0  0  0  0  0
   -3.0462   -1.2430   28.8440 O   0  5  0  0  0  0  0  0  0  0  0  0
   -2.0089    2.2141   28.9365 C   0  0  0  0  0  0  0  0  0  0  0  0
   -1.4053    1.8962   30.3096 C   0  0  0  0  0  0  0  0  0  0  0  0
   -0.0983    2.6620   30.4839 C   0  0  0  0  0  0  0  0  0  0  0  0
    0.6789    2.0872   31.6204 N   0  0  0  0  0  0  0  0  0  0  0  0
    1.7441    1.3574   31.3910 C   0  0  0  0  0  0  0  0  0  0  0  0
    2.5434    1.6490   30.3950 N   0  0  0  0  0  0  0  0  0  0  0  0
    2.0131    0.3370   32.1625 N   0  3  0  0  0  0  0  0  0  0  0  0
   -3.9893    0.4443   29.7954 O   0  0  0  0  0  0  0  0  0  0  0  0
  2  1  1  6  0  0  0
  2  5  1  0  0  0  0
  2  3  1  0  0  0  0
  3  4  1  0  0  0  0
  3 12  2  0  0  0  0
  5  6  1  0  0  0  0
  6  7  1  0  0  0  0
  7  8  1  0  0  0  0
  8  9  1  0  0  0  0
  9 10  1  0  0  0  0
  9 11  2  0  0  0  0
M  CHG  3   1   1   4  -1  11   1
M  END
>  <CHROM.1>
74.11480687,172.51615739,91.91421867,127.60760531,-164.34262286,106.10478601
-1.02071210,1.10974403,29.81596239,-2.99287514,0.54312335,2.53913005

>  <Name>
1koc cryst

>  <RI>
0

>  <Rbt.Current_Directory>
/home/itssahil/PROJECTS/Mol_Feturizer/New_Systems/rnas/1koc

>  <Rbt.Executable>
rbdock ($Id: //depot/dev/client3/rdock/2013.1/src/exe/rbdock.cxx#4 $)

>  <Rbt.Library>
libRbt.so (2013.1, Build901 2013/11/27)

>  <Rbt.Parameter_File>
/export/apps/rDock/src/rDock_2013.1_src/data/scripts/dock_solv.prm

>  <Rbt.Receptor>
prm/blind_docking_100.prm

>  <SCORE>
-25.0949

>  <SCORE.INTER>
-25.7545

>  <SCORE.INTER.CONST>
1

>  <SCORE.INTER.POLAR>
-5.80274

>  <SCORE.INTER.ROT>
5

>  <SCORE.INTER.SOLV>
36.285

>  <SCORE.INTER.VDW>
-16.8555

>  <SCORE.INTER.norm>
-2.14621

>  <SCORE.INTRA>
0.597103

>  <SCORE.INTRA.DIHEDRAL>
4.80746

>  <SCORE.INTRA.DIHEDRAL.0>
6.04201

>  <SCORE.INTRA.POLAR>
0

>  <SCORE.INTRA.POLAR.0>
0

>  <SCORE.INTRA.REPUL>
0

>  <SCORE.INTRA.REPUL.0>
0

>  <SCORE.INTRA.SOLV>
-1.32865

>  <SCORE.INTRA.SOLV.lig_0>
-71.0481

>  <SCORE.INTRA.VDW>
-1.1423

>  <SCORE.INTRA.VDW.0>
0.968882

>  <SCORE.INTRA.norm>
0.0497586

>  <SCORE.RESTR>
0.0624847

>  <SCORE.RESTR.CAVITY>
0.0624847

>  <SCORE.RESTR.norm>
0.00520706

>  <SCORE.SYSTEM>
0

>  <SCORE.SYSTEM.CONST>
0

>  <SCORE.SYSTEM.DIHEDRAL>
0

>  <SCORE.SYSTEM.SOLV>
0

>  <SCORE.SYSTEM.norm>
0

>  <SCORE.heavy>
12

>  <SCORE.norm>
-2.09124

>  <SYMMETRIC_BONDS>
11 12 2
5 6 2

>  <RMSD>
7.437

$$$$
1koc cryst
 OpenBabel11021811393D
libRbt.so/2013.1/901 2013/11/27
 12 11  0  0  0  0  0  0  0  0999 V2000
   -3.6178    0.3073   29.2872 N   0  3  0  0  0  0  0  0  0  0  0  0
   -3.3462    1.3031   30.3677 C   0  0  2  0  0  0  0  0  0  0  0  0
   -4.6770    1.9465   30.8041 C   0  0  0  0  0  0  0  0  0  0  0  0
   -5.3061    2.5821   29.9714 O   0  5  0  0  0  0  0  0  0  0  0  0
   -2.3614    2.3776   29.8332 C   0  0  0  0  0  0  0  0  0  0  0  0
   -1.4248    2.8684   30.9434 C   0  0  0  0  0  0  0  0  0  0  0  0
    0.0249    2.6549   30.5218 C   0  0  0  0  0  0  0  0  0  0  0  0
    0.8005    2.0654   31.6519 N   0  0  0  0  0  0  0  0  0  0  0  0
    1.8455    1.3098   31.4137 C   0  0  0  0  0  0  0  0  0  0  0  0
    2.6407    1.5791   30.4082 N   0  0  0  0  0  0  0  0  0  0  0  0
    2.0985    0.2858   32.1859 N   0  3  0  0  0  0  0  0  0  0  0  0
   -5.0390    1.8037   31.9625 O   0  0  0  0  0  0  0  0  0  0  0  0
  2  1  1  6  0  0  0
  2  5  1  0  0  0  0
  2  3  1  0  0  0  0
  3  4  1  0  0  0  0
  3 12  2  0  0  0  0
  5  6  1  0  0  0  0
  6  7  1  0  0  0  0
  7  8  1  0  0  0  0
  8  9  1  0  0  0  0
  9 10  1  0  0  0  0
  9 11  2  0  0  0  0
M  CHG  3   1   1   4  -1  11   1
M  END
>  <CHROM.1>
-166.20656292,-145.91898832,-61.96309444,123.15160843,-134.91113892,152.00507160
-1.53616722,1.72429028,30.76949848,-3.02923702,-0.08952918,1.39851196

>  <Name>
1koc cryst

>  <RI>
0

>  <Rbt.Current_Directory>
/home/itssahil/PROJECTS/Mol_Feturizer/New_Systems/rnas/1koc

>  <Rbt.Executable>
rbdock ($Id: //depot/dev/client3/rdock/2013.1/src/exe/rbdock.cxx#4 $)

>  <Rbt.Library>
libRbt.so (2013.1, Build901 2013/11/27)

>  <Rbt.Parameter_File>
/export/apps/rDock/src/rDock_2013.1_src/data/scripts/dock_solv.prm

>  <Rbt.Receptor>
prm/blind_docking_40.prm

>  <SCORE>
-21.4882

>  <SCORE.INTER>
-24.5877

>  <SCORE.INTER.CONST>
1

>  <SCORE.INTER.POLAR>
-5.0169

>  <SCORE.INTER.ROT>
5

>  <SCORE.INTER.SOLV>
36.5434

>  <SCORE.INTER.VDW>
-18.7833

>  <SCORE.INTER.norm>
-2.04897

>  <SCORE.INTRA>
3.01356

>  <SCORE.INTRA.DIHEDRAL>
11.769

>  <SCORE.INTRA.DIHEDRAL.0>
6.04201

>  <SCORE.INTRA.POLAR>
0

>  <SCORE.INTRA.POLAR.0>
0

>  <SCORE.INTRA.REPUL>
0

>  <SCORE.INTRA.REPUL.0>
0

>  <SCORE.INTRA.SOLV>
-1.79031

>  <SCORE.INTRA.SOLV.lig_0>
-71.0481

>  <SCORE.INTRA.VDW>
-1.97579

>  <SCORE.INTRA.VDW.0>
0.968882

>  <SCORE.INTRA.norm>
0.25113

>  <SCORE.RESTR>
0.0858832

>  <SCORE.RESTR.CAVITY>
0.0858832

>  <SCORE.RESTR.norm>
0.00715693

>  <SCORE.SYSTEM>
0

>  <SCORE.SYSTEM.CONST>
0

>  <SCORE.SYSTEM.DIHEDRAL>
0

>  <SCORE.SYSTEM.SOLV>
0

>  <SCORE.SYSTEM.norm>
0

>  <SCORE.heavy>
12

>  <SCORE.norm>
-1.79069

>  <SYMMETRIC_BONDS>
11 12 2
5 6 2

>  <RMSD>
7.439

$$$$
1koc cryst
 OpenBabel11021811393D
libRbt.so/2013.1/901 2013/11/27
 12 11  0  0  0  0  0  0  0  0999 V2000
   -2.3464    1.2410   26.8990 N   0  3  0  0  0  0  0  0  0  0  0  0
   -2.1700    0.9406   28.3521 C   0  0  2  0  0  0  0  0  0  0  0  0
   -3.2274   -0.0946   28.7831 C   0  0  0  0  0  0  0  0  0  0  0  0
   -3.8188    0.0950   29.8355 O   0  5  0  0  0  0  0  0  0  0  0  0
   -2.3192    2.2549   29.1649 C   0  0  0  0  0  0  0  0  0  0  0  0
   -1.6369    2.1378   30.5329 C   0  0  0  0  0  0  0  0  0  0  0  0
   -0.1743    2.5518   30.4126 C   0  0  0  0  0  0  0  0  0  0  0  0
    0.5966    2.0370   31.5818 N   0  0  0  0  0  0  0  0  0  0  0  0
    1.7104    1.3698   31.3976 C   0  0  0  0  0  0  0  0  0  0  0  0
    2.5244    1.6977   30.4250 N   0  0  0  0  0  0  0  0  0  0  0  0
    2.0131    0.3759   32.1908 N   0  3  0  0  0  0  0  0  0  0  0  0
   -3.4204   -1.0625   28.0626 O   0  0  0  0  0  0  0  0  0  0  0  0
  2  1  1  6  0  0  0
  2  5  1  0  0  0  0
  2  3  1  0  0  0  0
  3  4  1  0  0  0  0
  3 12  2  0  0  0  0
  5  6  1  0  0  0  0
  6  7  1  0  0  0  0
  7  8  1  0  0  0  0
  8  9  1  0  0  0  0
  9 10  1  0  0  0  0
  9 11  2  0  0  0  0
M  CHG  3   1   1   4  -1  11   1
M  END
>  <CHROM.1>
154.13290823,-158.05900103,-135.57660166,88.41031768,-161.75116256,129.46444567
-1.01657678,1.10887066,29.77900319,-2.89685600,0.54797059,2.33369928

>  <Name>
1koc cryst

>  <RI>
0

>  <Rbt.Current_Directory>
/home/itssahil/PROJECTS/Mol_Feturizer/New_Systems/rnas/1koc

>  <Rbt.Executable>
rbdock ($Id: //depot/dev/client3/rdock/2013.1/src/exe/rbdock.cxx#4 $)

>  <Rbt.Library>
libRbt.so (2013.1, Build901 2013/11/27)

>  <Rbt.Parameter_File>
/export/apps/rDock/src/rDock_2013.1_src/data/scripts/dock_solv.prm

>  <Rbt.Receptor>
prm/blind_docking_40.prm

>  <SCORE>
-27.4086

>  <SCORE.INTER>
-28.2008

>  <SCORE.INTER.CONST>
1

>  <SCORE.INTER.POLAR>
-6.07031

>  <SCORE.INTER.ROT>
5

>  <SCORE.INTER.SOLV>
37.3908

>  <SCORE.INTER.VDW>
-17.9631

>  <SCORE.INTER.norm>
-2.35006

>  <SCORE.INTRA>
0.647712

>  <SCORE.INTRA.DIHEDRAL>
4.29653

>  <SCORE.INTRA.DIHEDRAL.0>
6.04201

>  <SCORE.INTRA.POLAR>
0

>  <SCORE.INTRA.POLAR.0>
0

>  <SCORE.INTRA.REPUL>
0

>  <SCORE.INTRA.REPUL.0>
0

>  <SCORE.INTRA.SOLV>
-1.34023

>  <SCORE.INTRA.SOLV.lig_0>
-71.0481

>  <SCORE.INTRA.VDW>
-0.830436

>  <SCORE.INTRA.VDW.0>
0.968882

>  <SCORE.INTRA.norm>
0.053976

>  <SCORE.RESTR>
0.144441

>  <SCORE.RESTR.CAVITY>
0.144441

>  <SCORE.RESTR.norm>
0.0120368

>  <SCORE.SYSTEM>
0

>  <SCORE.SYSTEM.CONST>
0

>  <SCORE.SYSTEM.DIHEDRAL>
0

>  <SCORE.SYSTEM.SOLV>
0

>  <SCORE.SYSTEM.norm>
0

>  <SCORE.heavy>
12

>  <SCORE.norm>
-2.28405

>  <SYMMETRIC_BONDS>
11 12 2
5 6 2

>  <RMSD>
7.445

$$$$
1koc cryst
 OpenBabel11021811393D
libRbt.so/2013.1/901 2013/11/27
 12 11  0  0  0  0  0  0  0  0999 V2000
   -5.6977    1.7711   31.8660 N   0  3  0  0  0  0  0  0  0  0  0  0
   -4.4253    2.4586   32.2418 C   0  0  2  0  0  0  0  0  0  0  0  0
   -4.6977    3.9670   32.4024 C   0  0  0  0  0  0  0  0  0  0  0  0
   -5.5212    4.4824   31.6613 O   0  5  0  0  0  0  0  0  0  0  0  0
   -3.3638    2.2027   31.1381 C   0  0  0  0  0  0  0  0  0  0  0  0
   -2.0340    2.8833   31.4834 C   0  0  0  0  0  0  0  0  0  0  0  0
   -0.9506    2.4072   30.5219 C   0  0  0  0  0  0  0  0  0  0  0  0
    0.3721    2.3977   31.2123 N   0  0  0  0  0  0  0  0  0  0  0  0
    1.4025    3.0062   30.6758 C   0  0  0  0  0  0  0  0  0  0  0  0
    1.2398    4.1286   30.0203 N   0  0  0  0  0  0  0  0  0  0  0  0
    2.5987    2.4937   30.7996 N   0  3  0  0  0  0  0  0  0  0  0  0
   -4.0728    4.5829   33.2530 O   0  0  0  0  0  0  0  0  0  0  0  0
  2  1  1  6  0  0  0
  2  5  1  0  0  0  0
  2  3  1  0  0  0  0
  3  4  1  0  0  0  0
  3 12  2  0  0  0  0
  5  6  1  0  0  0  0
  6  7  1  0  0  0  0
  7  8  1  0  0  0  0
  8  9  1  0  0  0  0
  9 10  1  0  0  0  0
  9 11  2  0  0  0  0
M  CHG  3   1   1   4  -1  11   1
M  END
>  <CHROM.1>
100.38265817,-179.66373351,-34.86809234,169.71905429,-148.59790570,-127.99441601
-2.10971570,3.06899466,31.43937740,3.04377232,0.21439734,0.21124470

>  <Name>
1koc cryst

>  <RI>
0

>  <Rbt.Current_Directory>
/home/itssahil/PROJECTS/Mol_Feturizer/New_Systems/rnas/1koc

>  <Rbt.Executable>
rbdock ($Id: //depot/dev/client3/rdock/2013.1/src/exe/rbdock.cxx#4 $)

>  <Rbt.Library>
libRbt.so (2013.1, Build901 2013/11/27)

>  <Rbt.Parameter_File>
/export/apps/rDock/src/rDock_2013.1_src/data/scripts/dock_solv.prm

>  <Rbt.Receptor>
prm/blind_docking_40.prm

>  <SCORE>
-29.1733

>  <SCORE.INTER>
-29.0488

>  <SCORE.INTER.CONST>
1

>  <SCORE.INTER.POLAR>
-3.94933

>  <SCORE.INTER.ROT>
5

>  <SCORE.INTER.SOLV>
32.9196

>  <SCORE.INTER.VDW>
-24.1079

>  <SCORE.INTER.norm>
-2.42073

>  <SCORE.INTRA>
-0.12453

>  <SCORE.INTRA.DIHEDRAL>
3.51266

>  <SCORE.INTRA.DIHEDRAL.0>
6.04201

>  <SCORE.INTRA.POLAR>
0

>  <SCORE.INTRA.POLAR.0>
0

>  <SCORE.INTRA.REPUL>
0

>  <SCORE.INTRA.REPUL.0>
0

>  <SCORE.INTRA.SOLV>
-1.15079

>  <SCORE.INTRA.SOLV.lig_0>
-71.0481

>  <SCORE.INTRA.VDW>
-1.30547

>  <SCORE.INTRA.VDW.0>
0.968882

>  <SCORE.INTRA.norm>
-0.0103775

>  <SCORE.RESTR>
0

>  <SCORE.RESTR.CAVITY>
0

>  <SCORE.RESTR.norm>
0

>  <SCORE.SYSTEM>
0

>  <SCORE.SYSTEM.CONST>
0

>  <SCORE.SYSTEM.DIHEDRAL>
0

>  <SCORE.SYSTEM.SOLV>
0

>  <SCORE.SYSTEM.norm>
0

>  <SCORE.heavy>
12

>  <SCORE.norm>
-2.43111

>  <SYMMETRIC_BONDS>
11 12 2
5 6 2

>  <RMSD>
7.446

$$$$
1koc cryst
 OpenBabel11021811393D
libRbt.so/2013.1/901 2013/11/27
 12 11  0  0  0  0  0  0  0  0999 V2000
   -1.7710    0.1266   28.3337 N   0  3  0  0  0  0  0  0  0  0  0  0
   -2.8883    1.1128   28.4424 C   0  0  2  0  0  0  0  0  0  0  0  0
   -3.3472    1.5104   27.0258 C   0  0  0  0  0  0  0  0  0  0  0  0
   -3.8716    2.6043   26.8796 O   0  5  0  0  0  0  0  0  0  0  0  0
   -2.3955    2.3546   29.2331 C   0  0  0  0  0  0  0  0  0  0  0  0
   -1.5018    1.9412   30.4084 C   0  0  0  0  0  0  0  0  0  0  0  0
   -0.3020    2.8783   30.4934 C   0  0  0  0  0  0  0  0  0  0  0  0
    0.7356    2.2939   31.3924 N   0  0  0  0  0  0  0  0  0  0  0  0
    1.9966    2.2906   31.0325 C   0  0  0  0  0  0  0  0  0  0  0  0
    2.4942    3.2973   30.3579 N   0  0  0  0  0  0  0  0  0  0  0  0
    2.7627    1.2809   31.3522 N   0  3  0  0  0  0  0  0  0  0  0  0
   -3.1780    0.7133   26.1152 O   0  0  0  0  0  0  0  0  0  0  0  0
  2  1  1  6  0  0  0
  2  5  1  0  0  0  0
  2  3  1  0  0  0  0
  3  4  1  0  0  0  0
  3 12  2  0  0  0  0
  5  6  1  0  0  0  0
  6  7  1  0  0  0  0
  7  8  1  0  0  0  0
  8  9  1  0  0  0  0
  9 10  1  0  0  0  0
  9 11  2  0  0  0  0
M  CHG  3   1   1   4  -1  11   1
M  END
>  <CHROM.1>
-36.60921905,-39.94685749,-153.94985097,137.60212556,-165.75872852,134.41549625
-0.90705956,1.84203107,29.23900745,-2.70435610,-0.50219971,0.54757874

>  <Name>
1koc cryst

>  <RI>
0

>  <Rbt.Current_Directory>
/home/itssahil/PROJECTS/Mol_Feturizer/New_Systems/rnas/1koc

>  <Rbt.Executable>
rbdock ($Id: //depot/dev/client3/rdock/2013.1/src/exe/rbdock.cxx#4 $)

>  <Rbt.Library>
libRbt.so (2013.1, Build901 2013/11/27)

>  <Rbt.Parameter_File>
/export/apps/rDock/src/rDock_2013.1_src/data/scripts/dock_solv.prm

>  <Rbt.Receptor>
prm/blind_docking_40.prm

>  <SCORE>
-15.4311

>  <SCORE.INTER>
-17.6411

>  <SCORE.INTER.CONST>
1

>  <SCORE.INTER.POLAR>
-3.72788

>  <SCORE.INTER.ROT>
5

>  <SCORE.INTER.SOLV>
28.7091

>  <SCORE.INTER.VDW>
-15.8375

>  <SCORE.INTER.norm>
-1.47009

>  <SCORE.INTRA>
2.20996

>  <SCORE.INTRA.DIHEDRAL>
5.51848

>  <SCORE.INTRA.DIHEDRAL.0>
6.04201

>  <SCORE.INTRA.POLAR>
0

>  <SCORE.INTRA.POLAR.0>
0

>  <SCORE.INTRA.REPUL>
0

>  <SCORE.INTRA.REPUL.0>
0

>  <SCORE.INTRA.SOLV>
-0.162698

>  <SCORE.INTRA.SOLV.lig_0>
-71.0481

>  <SCORE.INTRA.VDW>
-0.467925

>  <SCORE.INTRA.VDW.0>
0.968882

>  <SCORE.INTRA.norm>
0.184164

>  <SCORE.RESTR>
0

>  <SCORE.RESTR.CAVITY>
0

>  <SCORE.RESTR.norm>
0

>  <SCORE.SYSTEM>
0

>  <SCORE.SYSTEM.CONST>
0

>  <SCORE.SYSTEM.DIHEDRAL>
0

>  <SCORE.SYSTEM.SOLV>
0

>  <SCORE.SYSTEM.norm>
0

>  <SCORE.heavy>
12

>  <SCORE.norm>
-1.28593

>  <SYMMETRIC_BONDS>
11 12 2
5 6 2

>  <RMSD>
7.473

$$$$
1koc cryst
 OpenBabel11021811393D
libRbt.so/2013.1/901 2013/11/27
 12 11  0  0  0  0  0  0  0  0999 V2000
   -3.7962    0.8833   29.7972 N   0  3  0  0  0  0  0  0  0  0  0  0
   -3.1112    1.8518   28.8885 C   0  0  2  0  0  0  0  0  0  0  0  0
   -3.3358    1.4151   27.4276 C   0  0  0  0  0  0  0  0  0  0  0  0
   -3.8088    2.2321   26.6518 O   0  5  0  0  0  0  0  0  0  0  0  0
   -1.5969    1.8852   29.2292 C   0  0  0  0  0  0  0  0  0  0  0  0
   -1.3594    2.4604   30.6305 C   0  0  0  0  0  0  0  0  0  0  0  0
    0.1367    2.4945   30.9230 C   0  0  0  0  0  0  0  0  0  0  0  0
    0.7368    3.7361   30.3535 N   0  0  0  0  0  0  0  0  0  0  0  0
    1.9851    4.0452   30.6103 C   0  0  0  0  0  0  0  0  0  0  0  0
    2.8923    3.1052   30.7081 N   0  0  0  0  0  0  0  0  0  0  0  0
    2.3278    5.2972   30.7645 N   0  3  0  0  0  0  0  0  0  0  0  0
   -3.0429    0.2716   27.1114 O   0  0  0  0  0  0  0  0  0  0  0  0
  2  1  1  1  0  0  0
  2  5  1  0  0  0  0
  2  3  1  0  0  0  0
  3  4  1  0  0  0  0
  3 12  2  0  0  0  0
  5  6  1  0  0  0  0
  6  7  1  0  0  0  0
  7  8  1  0  0  0  0
  8  9  1  0  0  0  0
  9 10  1  0  0  0  0
  9 11  2  0  0  0  0
M  CHG  3   1   1   4  -1  11   1
M  END
>  <CHROM.1>
176.47631934,-65.93290262,125.85535829,-179.27503848,84.26642181,172.60807652
-1.00389020,2.46355196,29.42265407,2.86207203,-0.56803637,-1.25756986

>  <Name>
1koc cryst

>  <RI>
0

>  <Rbt.Current_Directory>
/home/itssahil/PROJECTS/Mol_Feturizer/New_Systems/rnas/1koc

>  <Rbt.Executable>
rbdock ($Id: //depot/dev/client3/rdock/2013.1/src/exe/rbdock.cxx#4 $)

>  <Rbt.Library>
libRbt.so (2013.1, Build901 2013/11/27)

>  <Rbt.Parameter_File>
/export/apps/rDock/src/rDock_2013.1_src/data/scripts/dock_solv.prm

>  <Rbt.Receptor>
prm/blind_docking_40.prm

>  <SCORE>
-18.202

>  <SCORE.INTER>
-15.7418

>  <SCORE.INTER.CONST>
1

>  <SCORE.INTER.POLAR>
-2.36426

>  <SCORE.INTER.ROT>
5

>  <SCORE.INTER.SOLV>
26.4355

>  <SCORE.INTER.VDW>
-18.3588

>  <SCORE.INTER.norm>
-1.31181

>  <SCORE.INTRA>
-2.46022

>  <SCORE.INTRA.DIHEDRAL>
-0.49493

>  <SCORE.INTRA.DIHEDRAL.0>
6.04201

>  <SCORE.INTRA.POLAR>
0

>  <SCORE.INTRA.POLAR.0>
0

>  <SCORE.INTRA.REPUL>
0

>  <SCORE.INTRA.REPUL.0>
0

>  <SCORE.INTRA.SOLV>
-0.93393

>  <SCORE.INTRA.SOLV.lig_0>
-71.0481

>  <SCORE.INTRA.VDW>
-1.74579

>  <SCORE.INTRA.VDW.0>
0.968882

>  <SCORE.INTRA.norm>
-0.205018

>  <SCORE.RESTR>
0

>  <SCORE.RESTR.CAVITY>
0

>  <SCORE.RESTR.norm>
0

>  <SCORE.SYSTEM>
0

>  <SCORE.SYSTEM.CONST>
0

>  <SCORE.SYSTEM.DIHEDRAL>
0

>  <SCORE.SYSTEM.SOLV>
0

>  <SCORE.SYSTEM.norm>
0

>  <SCORE.heavy>
12

>  <SCORE.norm>
-1.51683

>  <SYMMETRIC_BONDS>
11 12 2
5 6 2

>  <RMSD>
7.555

$$$$
1koc cryst
 OpenBabel11021811393D
libRbt.so/2013.1/901 2013/11/27
 12 11  0  0  0  0  0  0  0  0999 V2000
   -2.8631    0.6036   25.9143 N   0  3  0  0  0  0  0  0  0  0  0  0
   -3.0758    1.2354   27.2516 C   0  0  2  0  0  0  0  0  0  0  0  0
   -3.1025    2.7674   27.0851 C   0  0  0  0  0  0  0  0  0  0  0  0
   -4.1917    3.3181   27.0256 O   0  5  0  0  0  0  0  0  0  0  0  0
   -1.9306    0.8027   28.2064 C   0  0  0  0  0  0  0  0  0  0  0  0
   -2.2751    1.1289   29.6644 C   0  0  0  0  0  0  0  0  0  0  0  0
   -1.7923    2.5352   30.0021 C   0  0  0  0  0  0  0  0  0  0  0  0
   -0.7986    2.4772   31.1136 N   0  0  0  0  0  0  0  0  0  0  0  0
    0.4674    2.7297   30.8827 C   0  0  0  0  0  0  0  0  0  0  0  0
    0.8107    3.6474   30.0133 N   0  0  0  0  0  0  0  0  0  0  0  0
    1.3919    2.0664   31.5263 N   0  3  0  0  0  0  0  0  0  0  0  0
   -2.0378    3.3621   27.0086 O   0  0  0  0  0  0  0  0  0  0  0  0
  2  1  1  6  0  0  0
  2  5  1  0  0  0  0
  2  3  1  0  0  0  0
  3  4  1  0  0  0  0
  3 12  2  0  0  0  0
  5  6  1  0  0  0  0
  6  7  1  0  0  0  0
  7  8  1  0  0  0  0
  8  9  1  0  0  0  0
  9 10  1  0  0  0  0
  9 11  2  0  0  0  0
M  CHG  3   1   1   4  -1  11   1
M  END
>  <CHROM.1>
-18.57951313,-165.93226586,98.33360885,-89.47908560,-119.50740615,109.62302752
-1.59876428,2.22707901,28.77954640,-3.13781669,-0.85825457,-0.14784465

>  <Name>
1koc cryst

>  <RI>
0

>  <Rbt.Current_Directory>
/home/itssahil/PROJECTS/Mol_Feturizer/New_Systems/rnas/1koc

>  <Rbt.Executable>
rbdock ($Id: //depot/dev/client3/rdock/2013.1/src/exe/rbdock.cxx#4 $)

>  <Rbt.Library>
libRbt.so (2013.1, Build901 2013/11/27)

>  <Rbt.Parameter_File>
/export/apps/rDock/src/rDock_2013.1_src/data/scripts/dock_solv.prm

>  <Rbt.Receptor>
prm/blind_docking_40.prm

>  <SCORE>
-28.831

>  <SCORE.INTER>
-32.1399

>  <SCORE.INTER.CONST>
1

>  <SCORE.INTER.POLAR>
-6.89756

>  <SCORE.INTER.ROT>
5

>  <SCORE.INTER.SOLV>
32.6963

>  <SCORE.INTER.VDW>
-16.2668

>  <SCORE.INTER.norm>
-2.67832

>  <SCORE.INTRA>
3.28332

>  <SCORE.INTRA.DIHEDRAL>
9.36042

>  <SCORE.INTRA.DIHEDRAL.0>
6.04201

>  <SCORE.INTRA.POLAR>
0

>  <SCORE.INTRA.POLAR.0>
0

>  <SCORE.INTRA.REPUL>
0

>  <SCORE.INTRA.REPUL.0>
0

>  <SCORE.INTRA.SOLV>
0.0715326

>  <SCORE.INTRA.SOLV.lig_0>
-71.0481

>  <SCORE.INTRA.VDW>
-1.43266

>  <SCORE.INTRA.VDW.0>
0.968882

>  <SCORE.INTRA.norm>
0.27361

>  <SCORE.RESTR>
0.0255068

>  <SCORE.RESTR.CAVITY>
0.0255068

>  <SCORE.RESTR.norm>
0.00212557

>  <SCORE.SYSTEM>
0

>  <SCORE.SYSTEM.CONST>
0

>  <SCORE.SYSTEM.DIHEDRAL>
0

>  <SCORE.SYSTEM.SOLV>
0

>  <SCORE.SYSTEM.norm>
0

>  <SCORE.heavy>
12

>  <SCORE.norm>
-2.40259

>  <SYMMETRIC_BONDS>
11 12 2
5 6 2

>  <RMSD>
7.557

$$$$
1koc cryst
 OpenBabel11021811393D
libRbt.so/2013.1/901 2013/11/27
 12 11  0  0  0  0  0  0  0  0999 V2000
   -5.0393    1.8309   31.7415 N   0  3  0  0  0  0  0  0  0  0  0  0
   -4.2951    2.8395   30.9280 C   0  0  2  0  0  0  0  0  0  0  0  0
   -5.1632    3.2528   29.7234 C   0  0  0  0  0  0  0  0  0  0  0  0
   -6.3420    3.5027   29.9258 O   0  5  0  0  0  0  0  0  0  0  0  0
   -2.9520    2.2207   30.4554 C   0  0  0  0  0  0  0  0  0  0  0  0
   -1.7963    2.6485   31.3677 C   0  0  0  0  0  0  0  0  0  0  0  0
   -0.4818    2.5713   30.5989 C   0  0  0  0  0  0  0  0  0  0  0  0
    0.6213    2.1679   31.5191 N   0  0  0  0  0  0  0  0  0  0  0  0
    1.8645    2.1695   31.1018 C   0  0  0  0  0  0  0  0  0  0  0  0
    2.2812    3.0907   30.2690 N   0  0  0  0  0  0  0  0  0  0  0  0
    2.6939    1.2507   31.5222 N   0  3  0  0  0  0  0  0  0  0  0  0
   -4.6402    3.3018   28.6200 O   0  0  0  0  0  0  0  0  0  0  0  0
  2  1  1  6  0  0  0
  2  5  1  0  0  0  0
  2  3  1  0  0  0  0
  3  4  1  0  0  0  0
  3 12  2  0  0  0  0
  5  6  1  0  0  0  0
  6  7  1  0  0  0  0
  7  8  1  0  0  0  0
  8  9  1  0  0  0  0
  9 10  1  0  0  0  0
  9 11  2  0  0  0  0
M  CHG  3   1   1   4  -1  11   1
M  END
>  <CHROM.1>
57.91667289,-97.94882327,45.48425725,-155.33497762,-146.02228212,-173.09531198
-1.94700185,2.55501930,30.65654440,2.97303004,0.02734815,-1.00835172

>  <Name>
1koc cryst

>  <RI>
0

>  <Rbt.Current_Directory>
/home/itssahil/PROJECTS/Mol_Feturizer/New_Systems/rnas/1koc

>  <Rbt.Executable>
rbdock ($Id: //depot/dev/client3/rdock/2013.1/src/exe/rbdock.cxx#4 $)

>  <Rbt.Library>
libRbt.so (2013.1, Build901 2013/11/27)

>  <Rbt.Parameter_File>
/export/apps/rDock/src/rDock_2013.1_src/data/scripts/dock_solv.prm

>  <Rbt.Receptor>
prm/blind_docking_40.prm

>  <SCORE>
-24.015

>  <SCORE.INTER>
-25.4664

>  <SCORE.INTER.CONST>
1

>  <SCORE.INTER.POLAR>
-4.26391

>  <SCORE.INTER.ROT>
5

>  <SCORE.INTER.SOLV>
29.1377

>  <SCORE.INTER.VDW>
-19.4105

>  <SCORE.INTER.norm>
-2.1222

>  <SCORE.INTRA>
1.44488

>  <SCORE.INTRA.DIHEDRAL>
6.56377

>  <SCORE.INTRA.DIHEDRAL.0>
6.04201

>  <SCORE.INTRA.POLAR>
0

>  <SCORE.INTRA.POLAR.0>
0

>  <SCORE.INTRA.REPUL>
0

>  <SCORE.INTRA.REPUL.0>
0

>  <SCORE.INTRA.SOLV>
-1.44416

>  <SCORE.INTRA.SOLV.lig_0>
-71.0481

>  <SCORE.INTRA.VDW>
-1.11492

>  <SCORE.INTRA.VDW.0>
0.968882

>  <SCORE.INTRA.norm>
0.120407

>  <SCORE.RESTR>
0.00656719

>  <SCORE.RESTR.CAVITY>
0.00656719

>  <SCORE.RESTR.norm>
0.000547266

>  <SCORE.SYSTEM>
0

>  <SCORE.SYSTEM.CONST>
0

>  <SCORE.SYSTEM.DIHEDRAL>
0

>  <SCORE.SYSTEM.SOLV>
0

>  <SCORE.SYSTEM.norm>
0

>  <SCORE.heavy>
12

>  <SCORE.norm>
-2.00125

>  <SYMMETRIC_BONDS>
11 12 2
5 6 2

>  <RMSD>
7.618

$$$$
1koc cryst
 OpenBabel11021811393D
libRbt.so/2013.1/901 2013/11/27
 12 11  0  0  0  0  0  0  0  0999 V2000
   -1.8819    1.0462   27.0127 N   0  3  0  0  0  0  0  0  0  0  0  0
   -3.1515    1.5207   27.6417 C   0  0  2  0  0  0  0  0  0  0  0  0
   -3.9260    2.3805   26.6237 C   0  0  0  0  0  0  0  0  0  0  0  0
   -4.5612    1.8044   25.7532 O   0  5  0  0  0  0  0  0  0  0  0  0
   -2.8124    2.3421   28.9147 C   0  0  0  0  0  0  0  0  0  0  0  0
   -1.6440    1.7125   29.6824 C   0  0  0  0  0  0  0  0  0  0  0  0
   -0.7283    2.8109   30.2116 C   0  0  0  0  0  0  0  0  0  0  0  0
    0.0902    2.2873   31.3440 N   0  0  0  0  0  0  0  0  0  0  0  0
    1.3627    2.0210   31.1725 C   0  0  0  0  0  0  0  0  0  0  0  0
    2.0964    2.7745   30.3915 N   0  0  0  0  0  0  0  0  0  0  0  0
    1.9037    1.0022   31.7873 N   0  3  0  0  0  0  0  0  0  0  0  0
   -3.8628    3.5968   26.7233 O   0  0  0  0  0  0  0  0  0  0  0  0
  2  1  1  6  0  0  0
  2  5  1  0  0  0  0
  2  3  1  0  0  0  0
  3  4  1  0  0  0  0
  3 12  2  0  0  0  0
  5  6  1  0  0  0  0
  6  7  1  0  0  0  0
  7  8  1  0  0  0  0
  8  9  1  0  0  0  0
  9 10  1  0  0  0  0
  9 11  2  0  0  0  0
M  CHG  3   1   1   4  -1  11   1
M  END
>  <CHROM.1>
-16.80379330,-39.01193901,78.90279803,140.28981512,159.16453039,105.69233137
-1.39537862,2.09677360,28.91722998,-2.72902223,-0.61617795,0.70212910

>  <Name>
1koc cryst

>  <RI>
0

>  <Rbt.Current_Directory>
/home/itssahil/PROJECTS/Mol_Feturizer/New_Systems/rnas/1koc

>  <Rbt.Executable>
rbdock ($Id: //depot/dev/client3/rdock/2013.1/src/exe/rbdock.cxx#4 $)

>  <Rbt.Library>
libRbt.so (2013.1, Build901 2013/11/27)

>  <Rbt.Parameter_File>
/export/apps/rDock/src/rDock_2013.1_src/data/scripts/dock_solv.prm

>  <Rbt.Receptor>
prm/blind_docking_100.prm

>  <SCORE>
-10.3827

>  <SCORE.INTER>
-14.7985

>  <SCORE.INTER.CONST>
1

>  <SCORE.INTER.POLAR>
-4.03125

>  <SCORE.INTER.ROT>
5

>  <SCORE.INTER.SOLV>
29.7336

>  <SCORE.INTER.VDW>
-13.2727

>  <SCORE.INTER.norm>
-1.23321

>  <SCORE.INTRA>
4.41581

>  <SCORE.INTRA.DIHEDRAL>
7.76761

>  <SCORE.INTRA.DIHEDRAL.0>
6.04201

>  <SCORE.INTRA.POLAR>
0

>  <SCORE.INTRA.POLAR.0>
0

>  <SCORE.INTRA.REPUL>
0

>  <SCORE.INTRA.REPUL.0>
0

>  <SCORE.INTRA.SOLV>
-0.316067

>  <SCORE.INTRA.SOLV.lig_0>
-71.0481

>  <SCORE.INTRA.VDW>
0.690037

>  <SCORE.INTRA.VDW.0>
0.968882

>  <SCORE.INTRA.norm>
0.367984

>  <SCORE.RESTR>
0

>  <SCORE.RESTR.CAVITY>
0

>  <SCORE.RESTR.norm>
0

>  <SCORE.SYSTEM>
0

>  <SCORE.SYSTEM.CONST>
0

>  <SCORE.SYSTEM.DIHEDRAL>
0

>  <SCORE.SYSTEM.SOLV>
0

>  <SCORE.SYSTEM.norm>
0

>  <SCORE.heavy>
12

>  <SCORE.norm>
-0.865227

>  <SYMMETRIC_BONDS>
11 12 2
5 6 2

>  <RMSD>
7.657

$$$$
1koc cryst
 OpenBabel11021811393D
libRbt.so/2013.1/901 2013/11/27
 12 11  0  0  0  0  0  0  0  0999 V2000
   -2.7505    1.9592   27.3894 N   0  3  0  0  0  0  0  0  0  0  0  0
   -2.2217    0.9628   28.3694 C   0  0  2  0  0  0  0  0  0  0  0  0
   -2.7423   -0.4380   27.9922 C   0  0  0  0  0  0  0  0  0  0  0  0
   -3.0060   -0.6542   26.8188 O   0  5  0  0  0  0  0  0  0  0  0  0
   -2.6845    1.3589   29.7973 C   0  0  0  0  0  0  0  0  0  0  0  0
   -1.9393    2.6036   30.2933 C   0  0  0  0  0  0  0  0  0  0  0  0
   -0.4769    2.2562   30.5500 C   0  0  0  0  0  0  0  0  0  0  0  0
    0.3822    3.4459   30.2797 N   0  0  0  0  0  0  0  0  0  0  0  0
    1.6054    3.4986   30.7495 C   0  0  0  0  0  0  0  0  0  0  0  0
    2.3372    2.4139   30.8114 N   0  0  0  0  0  0  0  0  0  0  0  0
    2.0994    4.6395   31.1534 N   0  3  0  0  0  0  0  0  0  0  0  0
   -2.8792   -1.2655   28.8808 O   0  0  0  0  0  0  0  0  0  0  0  0
  2  1  1  6  0  0  0
  2  5  1  0  0  0  0
  2  3  1  0  0  0  0
  3  4  1  0  0  0  0
  3 12  2  0  0  0  0
  5  6  1  0  0  0  0
  6  7  1  0  0  0  0
  7  8  1  0  0  0  0
  8  9  1  0  0  0  0
  9 10  1  0  0  0  0
  9 11  2  0  0  0  0
M  CHG  3   1   1   4  -1  11   1
M  END
>  <CHROM.1>
-70.41360637,-71.82426469,27.46401130,-69.34738261,148.38720701,162.43439977
-1.01629925,1.74307062,29.39625858,2.48845387,0.51833733,-3.03954390

>  <Name>
1koc cryst

>  <RI>
0

>  <Rbt.Current_Directory>
/home/itssahil/PROJECTS/Mol_Feturizer/New_Systems/rnas/1koc

>  <Rbt.Executable>
rbdock ($Id: //depot/dev/client3/rdock/2013.1/src/exe/rbdock.cxx#4 $)

>  <Rbt.Library>
libRbt.so (2013.1, Build901 2013/11/27)

>  <Rbt.Parameter_File>
/export/apps/rDock/src/rDock_2013.1_src/data/scripts/dock_solv.prm

>  <Rbt.Receptor>
prm/blind_docking_80.prm

>  <SCORE>
-19.9878

>  <SCORE.INTER>
-19.5379

>  <SCORE.INTER.CONST>
1

>  <SCORE.INTER.POLAR>
-3.23056

>  <SCORE.INTER.ROT>
5

>  <SCORE.INTER.SOLV>
28.3014

>  <SCORE.INTER.VDW>
-18.6239

>  <SCORE.INTER.norm>
-1.62816

>  <SCORE.INTRA>
-0.449857

>  <SCORE.INTRA.DIHEDRAL>
1.50331

>  <SCORE.INTRA.DIHEDRAL.0>
6.04201

>  <SCORE.INTRA.POLAR>
0

>  <SCORE.INTRA.POLAR.0>
0

>  <SCORE.INTRA.REPUL>
0

>  <SCORE.INTRA.REPUL.0>
0

>  <SCORE.INTRA.SOLV>
-0.610814

>  <SCORE.INTRA.SOLV.lig_0>
-71.0481

>  <SCORE.INTRA.VDW>
-0.896106

>  <SCORE.INTRA.VDW.0>
0.968882

>  <SCORE.INTRA.norm>
-0.0374881

>  <SCORE.RESTR>
0

>  <SCORE.RESTR.CAVITY>
0

>  <SCORE.RESTR.norm>
0

>  <SCORE.SYSTEM>
0

>  <SCORE.SYSTEM.CONST>
0

>  <SCORE.SYSTEM.DIHEDRAL>
0

>  <SCORE.SYSTEM.SOLV>
0

>  <SCORE.SYSTEM.norm>
0

>  <SCORE.heavy>
12

>  <SCORE.norm>
-1.66565

>  <SYMMETRIC_BONDS>
11 12 2
5 6 2

>  <RMSD>
7.679

$$$$
1koc cryst
 OpenBabel11021811393D
libRbt.so/2013.1/901 2013/11/27
 12 11  0  0  0  0  0  0  0  0999 V2000
   -4.9868    1.8163   31.6413 N   0  3  0  0  0  0  0  0  0  0  0  0
   -4.3875    2.8564   30.7515 C   0  0  2  0  0  0  0  0  0  0  0  0
   -5.3140    3.0752   29.5394 C   0  0  0  0  0  0  0  0  0  0  0  0
   -4.7958    3.2589   28.4482 O   0  5  0  0  0  0  0  0  0  0  0  0
   -2.9806    2.3853   30.2944 C   0  0  0  0  0  0  0  0  0  0  0  0
   -1.8859    2.9511   31.2067 C   0  0  0  0  0  0  0  0  0  0  0  0
   -0.5158    2.6524   30.6080 C   0  0  0  0  0  0  0  0  0  0  0  0
    0.4020    2.1450   31.6694 N   0  0  0  0  0  0  0  0  0  0  0  0
    1.5943    1.6987   31.3547 C   0  0  0  0  0  0  0  0  0  0  0  0
    2.2802    2.2660   30.3936 N   0  0  0  0  0  0  0  0  0  0  0  0
    2.1036    0.6862   32.0060 N   0  3  0  0  0  0  0  0  0  0  0  0
   -6.5221    3.0670   29.7227 O   0  0  0  0  0  0  0  0  0  0  0  0
  2  1  1  1  0  0  0
  2  5  1  0  0  0  0
  2  3  1  0  0  0  0
  3  4  1  0  0  0  0
  3 12  2  0  0  0  0
  5  6  1  0  0  0  0
  6  7  1  0  0  0  0
  7  8  1  0  0  0  0
  8  9  1  0  0  0  0
  9 10  1  0  0  0  0
  9 11  2  0  0  0  0
M  CHG  3   1   1   4  -1  11   1
M  END
>  <CHROM.1>
50.40789809,-94.62337119,-141.52373194,-171.21745011,-134.67153678,173.20378187
-2.09345927,2.38104775,30.64848866,2.89391074,0.05004516,-1.07698943

>  <Name>
1koc cryst

>  <RI>
0

>  <Rbt.Current_Directory>
/home/itssahil/PROJECTS/Mol_Feturizer/New_Systems/rnas/1koc

>  <Rbt.Executable>
rbdock ($Id: //depot/dev/client3/rdock/2013.1/src/exe/rbdock.cxx#4 $)

>  <Rbt.Library>
libRbt.so (2013.1, Build901 2013/11/27)

>  <Rbt.Parameter_File>
/export/apps/rDock/src/rDock_2013.1_src/data/scripts/dock_solv.prm

>  <Rbt.Receptor>
prm/blind_docking_80.prm

>  <SCORE>
-22.7712

>  <SCORE.INTER>
-24.1489

>  <SCORE.INTER.CONST>
1

>  <SCORE.INTER.POLAR>
-4.77572

>  <SCORE.INTER.ROT>
5

>  <SCORE.INTER.SOLV>
31.2553

>  <SCORE.INTER.VDW>
-17.532

>  <SCORE.INTER.norm>
-2.01241

>  <SCORE.INTRA>
1.07948

>  <SCORE.INTRA.DIHEDRAL>
5.85947

>  <SCORE.INTRA.DIHEDRAL.0>
6.04201

>  <SCORE.INTRA.POLAR>
0

>  <SCORE.INTRA.POLAR.0>
0

>  <SCORE.INTRA.REPUL>
0

>  <SCORE.INTRA.REPUL.0>
0

>  <SCORE.INTRA.SOLV>
-1.47144

>  <SCORE.INTRA.SOLV.lig_0>
-71.0481

>  <SCORE.INTRA.VDW>
-1.11454

>  <SCORE.INTRA.VDW.0>
0.968882

>  <SCORE.INTRA.norm>
0.0899564

>  <SCORE.RESTR>
0.298175

>  <SCORE.RESTR.CAVITY>
0.298175

>  <SCORE.RESTR.norm>
0.0248479

>  <SCORE.SYSTEM>
0

>  <SCORE.SYSTEM.CONST>
0

>  <SCORE.SYSTEM.DIHEDRAL>
0

>  <SCORE.SYSTEM.SOLV>
0

>  <SCORE.SYSTEM.norm>
0

>  <SCORE.heavy>
12

>  <SCORE.norm>
-1.8976

>  <SYMMETRIC_BONDS>
11 12 2
5 6 2

>  <RMSD>
7.753

$$$$
1koc cryst
 OpenBabel11021811393D
libRbt.so/2013.1/901 2013/11/27
 12 11  0  0  0  0  0  0  0  0999 V2000
   -4.3755    3.7672   32.9966 N   0  3  0  0  0  0  0  0  0  0  0  0
   -4.4671    3.7493   31.5053 C   0  0  2  0  0  0  0  0  0  0  0  0
   -5.9033    3.3697   31.0946 C   0  0  0  0  0  0  0  0  0  0  0  0
   -6.1430    2.1925   30.8717 O   0  5  0  0  0  0  0  0  0  0  0  0
   -3.4429    2.7259   30.9452 C   0  0  0  0  0  0  0  0  0  0  0  0
   -2.0452    2.9697   31.5265 C   0  0  0  0  0  0  0  0  0  0  0  0
   -0.9911    2.4147   30.5748 C   0  0  0  0  0  0  0  0  0  0  0  0
    0.3407    2.3969   31.2473 N   0  0  0  0  0  0  0  0  0  0  0  0
    1.3694    2.9922   30.6932 C   0  0  0  0  0  0  0  0  0  0  0  0
    1.2085    4.1120   30.0328 N   0  0  0  0  0  0  0  0  0  0  0  0
    2.5623    2.4691   30.8040 N   0  3  0  0  0  0  0  0  0  0  0  0
   -6.7347    4.2602   30.9987 O   0  0  0  0  0  0  0  0  0  0  0  0
  2  1  1  1  0  0  0
  2  5  1  0  0  0  0
  2  3  1  0  0  0  0
  3  4  1  0  0  0  0
  3 12  2  0  0  0  0
  5  6  1  0  0  0  0
  6  7  1  0  0  0  0
  7  8  1  0  0  0  0
  8  9  1  0  0  0  0
  9 10  1  0  0  0  0
  9 11  2  0  0  0  0
M  CHG  3   1   1   4  -1  11   1
M  END
>  <CHROM.1>
70.32782721,-51.06504033,-93.62681694,-155.61184601,-168.64262936,-125.30652809
-2.38309405,3.12671025,31.13209429,-3.02937746,-0.03469321,-2.48542706

>  <Name>
1koc cryst

>  <RI>
0

>  <Rbt.Current_Directory>
/home/itssahil/PROJECTS/Mol_Feturizer/New_Systems/rnas/1koc

>  <Rbt.Executable>
rbdock ($Id: //depot/dev/client3/rdock/2013.1/src/exe/rbdock.cxx#4 $)

>  <Rbt.Library>
libRbt.so (2013.1, Build901 2013/11/27)

>  <Rbt.Parameter_File>
/export/apps/rDock/src/rDock_2013.1_src/data/scripts/dock_solv.prm

>  <Rbt.Receptor>
prm/blind_docking_60.prm

>  <SCORE>
-24.8152

>  <SCORE.INTER>
-23.6895

>  <SCORE.INTER.CONST>
1

>  <SCORE.INTER.POLAR>
-3.7347

>  <SCORE.INTER.ROT>
5

>  <SCORE.INTER.SOLV>
28.0623

>  <SCORE.INTER.VDW>
-19.6315

>  <SCORE.INTER.norm>
-1.97413

>  <SCORE.INTRA>
-1.15115

>  <SCORE.INTRA.DIHEDRAL>
0.587972

>  <SCORE.INTRA.DIHEDRAL.0>
6.04201

>  <SCORE.INTRA.POLAR>
0

>  <SCORE.INTRA.POLAR.0>
0

>  <SCORE.INTRA.REPUL>
0

>  <SCORE.INTRA.REPUL.0>
0

>  <SCORE.INTRA.SOLV>
-0.904814

>  <SCORE.INTRA.SOLV.lig_0>
-71.0481

>  <SCORE.INTRA.VDW>
-0.99273

>  <SCORE.INTRA.VDW.0>
0.968882

>  <SCORE.INTRA.norm>
-0.0959292

>  <SCORE.RESTR>
0.0255016

>  <SCORE.RESTR.CAVITY>
0.0255016

>  <SCORE.RESTR.norm>
0.00212514

>  <SCORE.SYSTEM>
0

>  <SCORE.SYSTEM.CONST>
0

>  <SCORE.SYSTEM.DIHEDRAL>
0

>  <SCORE.SYSTEM.SOLV>
0

>  <SCORE.SYSTEM.norm>
0

>  <SCORE.heavy>
12

>  <SCORE.norm>
-2.06793

>  <SYMMETRIC_BONDS>
11 12 2
5 6 2

>  <RMSD>
7.764

$$$$
1koc cryst
 OpenBabel11021811393D
libRbt.so/2013.1/901 2013/11/27
 12 11  0  0  0  0  0  0  0  0999 V2000
   -5.0872    1.8931   31.7636 N   0  3  0  0  0  0  0  0  0  0  0  0
   -4.1883    2.5078   30.7404 C   0  0  2  0  0  0  0  0  0  0  0  0
   -5.0465    3.0697   29.5901 C   0  0  0  0  0  0  0  0  0  0  0  0
   -4.5406    3.1413   28.4802 O   0  5  0  0  0  0  0  0  0  0  0  0
   -3.2005    1.4300   30.2180 C   0  0  0  0  0  0  0  0  0  0  0  0
   -1.9115    2.0720   29.6916 C   0  0  0  0  0  0  0  0  0  0  0  0
   -1.1130    2.6465   30.8566 C   0  0  0  0  0  0  0  0  0  0  0  0
    0.0737    3.3895   30.3410 N   0  0  0  0  0  0  0  0  0  0  0  0
    1.2728    3.1193   30.7978 C   0  0  0  0  0  0  0  0  0  0  0  0
    1.6033    1.8883   31.1000 N   0  0  0  0  0  0  0  0  0  0  0  0
    2.1449    4.0815   30.9478 N   0  3  0  0  0  0  0  0  0  0  0  0
   -6.1879    3.4286   29.8386 O   0  0  0  0  0  0  0  0  0  0  0  0
  2  1  1  1  0  0  0
  2  5  1  0  0  0  0
  2  3  1  0  0  0  0
  3  4  1  0  0  0  0
  3 12  2  0  0  0  0
  5  6  1  0  0  0  0
  6  7  1  0  0  0  0
  7  8  1  0  0  0  0
  8  9  1  0  0  0  0
  9 10  1  0  0  0  0
  9 11  2  0  0  0  0
M  CHG  3   1   1   4  -1  11   1
M  END
>  <CHROM.1>
179.54472038,-154.43410410,-152.75024724,69.60638758,-174.43936481,-127.63405262
-2.19216853,2.72359035,30.37935743,3.08867793,-0.11883822,-0.83147862

>  <Name>
1koc cryst

>  <RI>
0

>  <Rbt.Current_Directory>
/home/itssahil/PROJECTS/Mol_Feturizer/New_Systems/rnas/1koc

>  <Rbt.Executable>
rbdock ($Id: //depot/dev/client3/rdock/2013.1/src/exe/rbdock.cxx#4 $)

>  <Rbt.Library>
libRbt.so (2013.1, Build901 2013/11/27)

>  <Rbt.Parameter_File>
/export/apps/rDock/src/rDock_2013.1_src/data/scripts/dock_solv.prm

>  <Rbt.Receptor>
prm/blind_docking_60.prm

>  <SCORE>
-27.2488

>  <SCORE.INTER>
-25.5798

>  <SCORE.INTER.CONST>
1

>  <SCORE.INTER.POLAR>
-3.95493

>  <SCORE.INTER.ROT>
5

>  <SCORE.INTER.SOLV>
26.7624

>  <SCORE.INTER.VDW>
-19.7243

>  <SCORE.INTER.norm>
-2.13165

>  <SCORE.INTRA>
-1.66899

>  <SCORE.INTRA.DIHEDRAL>
-0.139298

>  <SCORE.INTRA.DIHEDRAL.0>
6.04201

>  <SCORE.INTRA.POLAR>
0

>  <SCORE.INTRA.POLAR.0>
0

>  <SCORE.INTRA.REPUL>
0

>  <SCORE.INTRA.REPUL.0>
0

>  <SCORE.INTRA.SOLV>
-0.776256

>  <SCORE.INTRA.SOLV.lig_0>
-71.0481

>  <SCORE.INTRA.VDW>
-1.21122

>  <SCORE.INTRA.VDW.0>
0.968882

>  <SCORE.INTRA.norm>
-0.139083

>  <SCORE.RESTR>
0

>  <SCORE.RESTR.CAVITY>
0

>  <SCORE.RESTR.norm>
0

>  <SCORE.SYSTEM>
0

>  <SCORE.SYSTEM.CONST>
0

>  <SCORE.SYSTEM.DIHEDRAL>
0

>  <SCORE.SYSTEM.SOLV>
0

>  <SCORE.SYSTEM.norm>
0

>  <SCORE.heavy>
12

>  <SCORE.norm>
-2.27073

>  <SYMMETRIC_BONDS>
11 12 2
5 6 2

>  <RMSD>
7.812

$$$$
1koc cryst
 OpenBabel11021811393D
libRbt.so/2013.1/901 2013/11/27
 12 11  0  0  0  0  0  0  0  0999 V2000
   -4.3685    3.7983   32.9317 N   0  3  0  0  0  0  0  0  0  0  0  0
   -4.6001    3.4941   31.4872 C   0  0  2  0  0  0  0  0  0  0  0  0
   -5.9940    2.8565   31.3252 C   0  0  0  0  0  0  0  0  0  0  0  0
   -6.7784    3.3836   30.5507 O   0  5  0  0  0  0  0  0  0  0  0  0
   -3.4900    2.5316   30.9858 C   0  0  0  0  0  0  0  0  0  0  0  0
   -2.1024    3.0134   31.4253 C   0  0  0  0  0  0  0  0  0  0  0  0
   -1.0352    2.3702   30.5465 C   0  0  0  0  0  0  0  0  0  0  0  0
    0.2761    2.3703   31.2584 N   0  0  0  0  0  0  0  0  0  0  0  0
    1.3189    2.9588   30.7235 C   0  0  0  0  0  0  0  0  0  0  0  0
    1.1740    4.0651   30.0372 N   0  0  0  0  0  0  0  0  0  0  0  0
    2.5096    2.4424   30.8797 N   0  3  0  0  0  0  0  0  0  0  0  0
   -6.2579    1.8618   31.9841 O   0  0  0  0  0  0  0  0  0  0  0  0
  2  1  1  1  0  0  0
  2  5  1  0  0  0  0
  2  3  1  0  0  0  0
  3  4  1  0  0  0  0
  3 12  2  0  0  0  0
  5  6  1  0  0  0  0
  6  7  1  0  0  0  0
  7  8  1  0  0  0  0
  8  9  1  0  0  0  0
  9 10  1  0  0  0  0
  9 11  2  0  0  0  0
M  CHG  3   1   1   4  -1  11   1
M  END
>  <CHROM.1>
-165.85971009,-47.17919646,124.38771178,-160.28539589,-157.43225615,-122.04205390
-2.44138426,2.93958951,31.20412217,-3.04609589,0.06726135,-0.99346324

>  <Name>
1koc cryst

>  <RI>
0

>  <Rbt.Current_Directory>
/home/itssahil/PROJECTS/Mol_Feturizer/New_Systems/rnas/1koc

>  <Rbt.Executable>
rbdock ($Id: //depot/dev/client3/rdock/2013.1/src/exe/rbdock.cxx#4 $)

>  <Rbt.Library>
libRbt.so (2013.1, Build901 2013/11/27)

>  <Rbt.Parameter_File>
/export/apps/rDock/src/rDock_2013.1_src/data/scripts/dock_solv.prm

>  <Rbt.Receptor>
prm/blind_docking_40.prm

>  <SCORE>
-28.8277

>  <SCORE.INTER>
-27.7568

>  <SCORE.INTER.CONST>
1

>  <SCORE.INTER.POLAR>
-3.75127

>  <SCORE.INTER.ROT>
5

>  <SCORE.INTER.SOLV>
29.1321

>  <SCORE.INTER.VDW>
-22.6443

>  <SCORE.INTER.norm>
-2.31307

>  <SCORE.INTRA>
-1.07092

>  <SCORE.INTRA.DIHEDRAL>
1.63405

>  <SCORE.INTRA.DIHEDRAL.0>
6.04201

>  <SCORE.INTRA.POLAR>
0

>  <SCORE.INTRA.POLAR.0>
0

>  <SCORE.INTRA.REPUL>
0

>  <SCORE.INTRA.REPUL.0>
0

>  <SCORE.INTRA.SOLV>
-0.785713

>  <SCORE.INTRA.SOLV.lig_0>
-71.0481

>  <SCORE.INTRA.VDW>
-1.49509

>  <SCORE.INTRA.VDW.0>
0.968882

>  <SCORE.INTRA.norm>
-0.0892432

>  <SCORE.RESTR>
0

>  <SCORE.RESTR.CAVITY>
0

>  <SCORE.RESTR.norm>
0

>  <SCORE.SYSTEM>
0

>  <SCORE.SYSTEM.CONST>
0

>  <SCORE.SYSTEM.DIHEDRAL>
0

>  <SCORE.SYSTEM.SOLV>
0

>  <SCORE.SYSTEM.norm>
0

>  <SCORE.heavy>
12

>  <SCORE.norm>
-2.40231

>  <SYMMETRIC_BONDS>
11 12 2
5 6 2

>  <RMSD>
7.868

$$$$
1koc cryst
 OpenBabel11021811393D
libRbt.so/2013.1/901 2013/11/27
 12 11  0  0  0  0  0  0  0  0999 V2000
   -4.5816    3.5923   32.9035 N   0  3  0  0  0  0  0  0  0  0  0  0
   -4.5933    3.5137   31.4114 C   0  0  2  0  0  0  0  0  0  0  0  0
   -5.9827    3.0377   30.9441 C   0  0  0  0  0  0  0  0  0  0  0  0
   -6.6500    2.3696   31.7197 O   0  5  0  0  0  0  0  0  0  0  0  0
   -3.4861    2.5303   30.9452 C   0  0  0  0  0  0  0  0  0  0  0  0
   -2.1076    2.9719   31.4505 C   0  0  0  0  0  0  0  0  0  0  0  0
   -1.0218    2.3817   30.5574 C   0  0  0  0  0  0  0  0  0  0  0  0
    0.2875    2.3971   31.2727 N   0  0  0  0  0  0  0  0  0  0  0  0
    1.3297    2.9811   30.7318 C   0  0  0  0  0  0  0  0  0  0  0  0
    1.1829    4.0764   30.0284 N   0  0  0  0  0  0  0  0  0  0  0  0
    2.5218    2.4712   30.8989 N   0  3  0  0  0  0  0  0  0  0  0  0
   -6.3515    3.3380   29.8184 O   0  0  0  0  0  0  0  0  0  0  0  0
  2  1  1  1  0  0  0
  2  5  1  0  0  0  0
  2  3  1  0  0  0  0
  3  4  1  0  0  0  0
  3 12  2  0  0  0  0
  5  6  1  0  0  0  0
  6  7  1  0  0  0  0
  7  8  1  0  0  0  0
  8  9  1  0  0  0  0
  9 10  1  0  0  0  0
  9 11  2  0  0  0  0
M  CHG  3   1   1   4  -1  11   1
M  END
>  <CHROM.1>
-49.65054189,-57.84967258,-25.52041979,-156.85004608,-160.65622171,-124.81739992
-2.45389327,2.97983822,31.08120492,-3.06973638,0.02935787,-1.38744458

>  <Name>
1koc cryst

>  <RI>
0

>  <Rbt.Current_Directory>
/home/itssahil/PROJECTS/Mol_Feturizer/New_Systems/rnas/1koc

>  <Rbt.Executable>
rbdock ($Id: //depot/dev/client3/rdock/2013.1/src/exe/rbdock.cxx#4 $)

>  <Rbt.Library>
libRbt.so (2013.1, Build901 2013/11/27)

>  <Rbt.Parameter_File>
/export/apps/rDock/src/rDock_2013.1_src/data/scripts/dock_solv.prm

>  <Rbt.Receptor>
prm/blind_docking_80.prm

>  <SCORE>
-29.53

>  <SCORE.INTER>
-27.8192

>  <SCORE.INTER.CONST>
1

>  <SCORE.INTER.POLAR>
-3.77124

>  <SCORE.INTER.ROT>
5

>  <SCORE.INTER.SOLV>
27.7837

>  <SCORE.INTER.VDW>
-22.1699

>  <SCORE.INTER.norm>
-2.31826

>  <SCORE.INTRA>
-1.71088

>  <SCORE.INTRA.DIHEDRAL>
0.948977

>  <SCORE.INTRA.DIHEDRAL.0>
6.04201

>  <SCORE.INTRA.POLAR>
0

>  <SCORE.INTRA.POLAR.0>
0

>  <SCORE.INTRA.REPUL>
0

>  <SCORE.INTRA.REPUL.0>
0

>  <SCORE.INTRA.SOLV>
-0.790113

>  <SCORE.INTRA.SOLV.lig_0>
-71.0481

>  <SCORE.INTRA.VDW>
-1.79031

>  <SCORE.INTRA.VDW.0>
0.968882

>  <SCORE.INTRA.norm>
-0.142573

>  <SCORE.RESTR>
0

>  <SCORE.RESTR.CAVITY>
0

>  <SCORE.RESTR.norm>
0

>  <SCORE.SYSTEM>
0

>  <SCORE.SYSTEM.CONST>
0

>  <SCORE.SYSTEM.DIHEDRAL>
0

>  <SCORE.SYSTEM.SOLV>
0

>  <SCORE.SYSTEM.norm>
0

>  <SCORE.heavy>
12

>  <SCORE.norm>
-2.46084

>  <SYMMETRIC_BONDS>
11 12 2
5 6 2

>  <RMSD>
7.870

$$$$
1koc cryst
 OpenBabel11021811393D
libRbt.so/2013.1/901 2013/11/27
 12 11  0  0  0  0  0  0  0  0999 V2000
   -5.2408    1.8158   31.8835 N   0  3  0  0  0  0  0  0  0  0  0  0
   -4.6071    2.9517   31.1480 C   0  0  2  0  0  0  0  0  0  0  0  0
   -5.6312    3.5447   30.1605 C   0  0  0  0  0  0  0  0  0  0  0  0
   -6.0034    2.8436   29.2316 O   0  5  0  0  0  0  0  0  0  0  0  0
   -3.3508    2.4336   30.3972 C   0  0  0  0  0  0  0  0  0  0  0  0
   -2.0941    2.5711   31.2647 C   0  0  0  0  0  0  0  0  0  0  0  0
   -0.8539    2.3307   30.4107 C   0  0  0  0  0  0  0  0  0  0  0  0
    0.3741    2.4905   31.2431 N   0  0  0  0  0  0  0  0  0  0  0  0
    1.4322    3.0898   30.7523 C   0  0  0  0  0  0  0  0  0  0  0  0
    1.2978    4.1086   29.9400 N   0  0  0  0  0  0  0  0  0  0  0  0
    2.6273    2.6724   31.0787 N   0  3  0  0  0  0  0  0  0  0  0  0
   -6.0170    4.6900   30.3417 O   0  0  0  0  0  0  0  0  0  0  0  0
  2  1  1  6  0  0  0
  2  5  1  0  0  0  0
  2  3  1  0  0  0  0
  3  4  1  0  0  0  0
  3 12  2  0  0  0  0
  5  6  1  0  0  0  0
  6  7  1  0  0  0  0
  7  8  1  0  0  0  0
  8  9  1  0  0  0  0
  9 10  1  0  0  0  0
  9 11  2  0  0  0  0
M  CHG  3   1   1   4  -1  11   1
M  END
>  <CHROM.1>
68.87772919,-91.26441831,-65.67930445,-168.35470038,178.85082217,-140.02594432
-2.34817554,2.95561597,30.66359099,3.09732469,-0.01838566,-0.67421034

>  <Name>
1koc cryst

>  <RI>
0

>  <Rbt.Current_Directory>
/home/itssahil/PROJECTS/Mol_Feturizer/New_Systems/rnas/1koc

>  <Rbt.Executable>
rbdock ($Id: //depot/dev/client3/rdock/2013.1/src/exe/rbdock.cxx#4 $)

>  <Rbt.Library>
libRbt.so (2013.1, Build901 2013/11/27)

>  <Rbt.Parameter_File>
/export/apps/rDock/src/rDock_2013.1_src/data/scripts/dock_solv.prm

>  <Rbt.Receptor>
prm/blind_docking_80.prm

>  <SCORE>
-37.6206

>  <SCORE.INTER>
-35.1961

>  <SCORE.INTER.CONST>
1

>  <SCORE.INTER.POLAR>
-5.88664

>  <SCORE.INTER.ROT>
5

>  <SCORE.INTER.SOLV>
29.055

>  <SCORE.INTER.VDW>
-20.4603

>  <SCORE.INTER.norm>
-2.93301

>  <SCORE.INTRA>
-2.42447

>  <SCORE.INTRA.DIHEDRAL>
0.878649

>  <SCORE.INTRA.DIHEDRAL.0>
6.04201

>  <SCORE.INTRA.POLAR>
0

>  <SCORE.INTRA.POLAR.0>
0

>  <SCORE.INTRA.REPUL>
0

>  <SCORE.INTRA.REPUL.0>
0

>  <SCORE.INTRA.SOLV>
-1.62695

>  <SCORE.INTRA.SOLV.lig_0>
-71.0481

>  <SCORE.INTRA.VDW>
-2.05032

>  <SCORE.INTRA.VDW.0>
0.968882

>  <SCORE.INTRA.norm>
-0.202039

>  <SCORE.RESTR>
0

>  <SCORE.RESTR.CAVITY>
0

>  <SCORE.RESTR.norm>
0

>  <SCORE.SYSTEM>
0

>  <SCORE.SYSTEM.CONST>
0

>  <SCORE.SYSTEM.DIHEDRAL>
0

>  <SCORE.SYSTEM.SOLV>
0

>  <SCORE.SYSTEM.norm>
0

>  <SCORE.heavy>
12

>  <SCORE.norm>
-3.13505

>  <SYMMETRIC_BONDS>
11 12 2
5 6 2

>  <RMSD>
7.888

$$$$
1koc cryst
 OpenBabel11021811393D
libRbt.so/2013.1/901 2013/11/27
 12 11  0  0  0  0  0  0  0  0999 V2000
   -4.9228    2.5004   32.5264 N   0  3  0  0  0  0  0  0  0  0  0  0
   -4.4930    2.9443   31.1658 C   0  0  2  0  0  0  0  0  0  0  0  0
   -5.6546    2.7272   30.1763 C   0  0  0  0  0  0  0  0  0  0  0  0
   -6.7860    2.6453   30.6303 O   0  5  0  0  0  0  0  0  0  0  0  0
   -3.2420    2.1311   30.7372 C   0  0  0  0  0  0  0  0  0  0  0  0
   -1.9634    2.7296   31.3356 C   0  0  0  0  0  0  0  0  0  0  0  0
   -0.7551    2.2650   30.5300 C   0  0  0  0  0  0  0  0  0  0  0  0
    0.4951    2.4987   31.3101 N   0  0  0  0  0  0  0  0  0  0  0  0
    1.4991    3.1479   30.7713 C   0  0  0  0  0  0  0  0  0  0  0  0
    1.2779    4.1493   29.9563 N   0  0  0  0  0  0  0  0  0  0  0  0
    2.7270    2.7981   31.0523 N   0  3  0  0  0  0  0  0  0  0  0  0
   -5.3942    2.6353   28.9859 O   0  0  0  0  0  0  0  0  0  0  0  0
  2  1  1  1  0  0  0
  2  5  1  0  0  0  0
  2  3  1  0  0  0  0
  3  4  1  0  0  0  0
  3 12  2  0  0  0  0
  5  6  1  0  0  0  0
  6  7  1  0  0  0  0
  7  8  1  0  0  0  0
  8  9  1  0  0  0  0
  9 10  1  0  0  0  0
  9 11  2  0  0  0  0
M  CHG  3   1   1   4  -1  11   1
M  END
>  <CHROM.1>
-149.18332123,-82.34290797,21.42816998,-159.51807632,-163.58937313,-128.13199898
-2.27476371,2.76592310,30.78319580,-3.14128989,-0.06623975,-1.31690992

>  <Name>
1koc cryst

>  <RI>
0

>  <Rbt.Current_Directory>
/home/itssahil/PROJECTS/Mol_Feturizer/New_Systems/rnas/1koc

>  <Rbt.Executable>
rbdock ($Id: //depot/dev/client3/rdock/2013.1/src/exe/rbdock.cxx#4 $)

>  <Rbt.Library>
libRbt.so (2013.1, Build901 2013/11/27)

>  <Rbt.Parameter_File>
/export/apps/rDock/src/rDock_2013.1_src/data/scripts/dock_solv.prm

>  <Rbt.Receptor>
prm/blind_docking_100.prm

>  <SCORE>
-29.1369

>  <SCORE.INTER>
-28.9856

>  <SCORE.INTER.CONST>
1

>  <SCORE.INTER.POLAR>
-4.22631

>  <SCORE.INTER.ROT>
5

>  <SCORE.INTER.SOLV>
27.443

>  <SCORE.INTER.VDW>
-21.317

>  <SCORE.INTER.norm>
-2.41547

>  <SCORE.INTRA>
-0.151282

>  <SCORE.INTRA.DIHEDRAL>
3.39973

>  <SCORE.INTRA.DIHEDRAL.0>
6.04201

>  <SCORE.INTRA.POLAR>
0

>  <SCORE.INTRA.POLAR.0>
0

>  <SCORE.INTRA.REPUL>
0

>  <SCORE.INTRA.REPUL.0>
0

>  <SCORE.INTRA.SOLV>
-1.06575

>  <SCORE.INTRA.SOLV.lig_0>
-71.0481

>  <SCORE.INTRA.VDW>
-1.31827

>  <SCORE.INTRA.VDW.0>
0.968882

>  <SCORE.INTRA.norm>
-0.0126069

>  <SCORE.RESTR>
0

>  <SCORE.RESTR.CAVITY>
0

>  <SCORE.RESTR.norm>
0

>  <SCORE.SYSTEM>
0

>  <SCORE.SYSTEM.CONST>
0

>  <SCORE.SYSTEM.DIHEDRAL>
0

>  <SCORE.SYSTEM.SOLV>
0

>  <SCORE.SYSTEM.norm>
0

>  <SCORE.heavy>
12

>  <SCORE.norm>
-2.42807

>  <SYMMETRIC_BONDS>
11 12 2
5 6 2

>  <RMSD>
7.892

$$$$
1koc cryst
 OpenBabel11021811393D
libRbt.so/2013.1/901 2013/11/27
 12 11  0  0  0  0  0  0  0  0999 V2000
   -4.9698    3.0575   29.5163 N   0  3  0  0  0  0  0  0  0  0  0  0
   -4.8660    2.6505   30.9503 C   0  0  2  0  0  0  0  0  0  0  0  0
   -5.9372    3.4021   31.7647 C   0  0  0  0  0  0  0  0  0  0  0  0
   -5.9898    4.6181   31.6572 O   0  5  0  0  0  0  0  0  0  0  0  0
   -3.4416    2.9819   31.4712 C   0  0  0  0  0  0  0  0  0  0  0  0
   -2.4119    1.9792   30.9373 C   0  0  0  0  0  0  0  0  0  0  0  0
   -1.2322    2.7311   30.3306 C   0  0  0  0  0  0  0  0  0  0  0  0
   -0.0178    2.5362   31.1752 N   0  0  0  0  0  0  0  0  0  0  0  0
    1.1540    2.9467   30.7532 C   0  0  0  0  0  0  0  0  0  0  0  0
    1.2563    4.0523   30.0581 N   0  0  0  0  0  0  0  0  0  0  0  0
    2.2264    2.2527   31.0313 N   0  3  0  0  0  0  0  0  0  0  0  0
   -6.6777    2.7535   32.4888 O   0  0  0  0  0  0  0  0  0  0  0  0
  2  1  1  6  0  0  0
  2  5  1  0  0  0  0
  2  3  1  0  0  0  0
  3  4  1  0  0  0  0
  3 12  2  0  0  0  0
  5  6  1  0  0  0  0
  6  7  1  0  0  0  0
  7  8  1  0  0  0  0
  8  9  1  0  0  0  0
  9 10  1  0  0  0  0
  9 11  2  0  0  0  0
M  CHG  3   1   1   4  -1  11   1
M  END
>  <CHROM.1>
70.14845109,-75.05795350,-52.24822690,129.64983137,111.23383533,171.06256455
-2.57520999,3.01313749,30.99205145,3.09420113,-0.11890081,2.24677582

>  <Name>
1koc cryst

>  <RI>
0

>  <Rbt.Current_Directory>
/home/itssahil/PROJECTS/Mol_Feturizer/New_Systems/rnas/1koc

>  <Rbt.Executable>
rbdock ($Id: //depot/dev/client3/rdock/2013.1/src/exe/rbdock.cxx#4 $)

>  <Rbt.Library>
libRbt.so (2013.1, Build901 2013/11/27)

>  <Rbt.Parameter_File>
/export/apps/rDock/src/rDock_2013.1_src/data/scripts/dock_solv.prm

>  <Rbt.Receptor>
prm/blind_docking_100.prm

>  <SCORE>
-23.8923

>  <SCORE.INTER>
-26.1284

>  <SCORE.INTER.CONST>
1

>  <SCORE.INTER.POLAR>
-4.40018

>  <SCORE.INTER.ROT>
5

>  <SCORE.INTER.SOLV>
26.2513

>  <SCORE.INTER.VDW>
-18.4354

>  <SCORE.INTER.norm>
-2.17737

>  <SCORE.INTRA>
2.23607

>  <SCORE.INTRA.DIHEDRAL>
9.37735

>  <SCORE.INTRA.DIHEDRAL.0>
6.04201

>  <SCORE.INTRA.POLAR>
0

>  <SCORE.INTRA.POLAR.0>
0

>  <SCORE.INTRA.REPUL>
0

>  <SCORE.INTRA.REPUL.0>
0

>  <SCORE.INTRA.SOLV>
-0.794093

>  <SCORE.INTRA.SOLV.lig_0>
-71.0481

>  <SCORE.INTRA.VDW>
-2.05555

>  <SCORE.INTRA.VDW.0>
0.968882

>  <SCORE.INTRA.norm>
0.186339

>  <SCORE.RESTR>
0

>  <SCORE.RESTR.CAVITY>
0

>  <SCORE.RESTR.norm>
0

>  <SCORE.SYSTEM>
0

>  <SCORE.SYSTEM.CONST>
0

>  <SCORE.SYSTEM.DIHEDRAL>
0

>  <SCORE.SYSTEM.SOLV>
0

>  <SCORE.SYSTEM.norm>
0

>  <SCORE.heavy>
12

>  <SCORE.norm>
-1.99103

>  <SYMMETRIC_BONDS>
11 12 2
5 6 2

>  <RMSD>
7.897

$$$$
1koc cryst
 OpenBabel11021811393D
libRbt.so/2013.1/901 2013/11/27
 12 11  0  0  0  0  0  0  0  0999 V2000
   -5.2702    1.7943   31.8884 N   0  3  0  0  0  0  0  0  0  0  0  0
   -4.6207    2.9210   31.1526 C   0  0  2  0  0  0  0  0  0  0  0  0
   -5.6311    3.5170   30.1530 C   0  0  0  0  0  0  0  0  0  0  0  0
   -5.9819    2.8228   29.2105 O   0  5  0  0  0  0  0  0  0  0  0  0
   -3.3621    2.3887   30.4158 C   0  0  0  0  0  0  0  0  0  0  0  0
   -2.0990    2.5995   31.2588 C   0  0  0  0  0  0  0  0  0  0  0  0
   -0.8644    2.3070   30.4131 C   0  0  0  0  0  0  0  0  0  0  0  0
    0.3678    2.4838   31.2358 N   0  0  0  0  0  0  0  0  0  0  0  0
    1.4117    3.1024   30.7387 C   0  0  0  0  0  0  0  0  0  0  0  0
    1.2537    4.1220   29.9316 N   0  0  0  0  0  0  0  0  0  0  0  0
    2.6162    2.7036   31.0534 N   0  3  0  0  0  0  0  0  0  0  0  0
   -6.0280    4.6577   30.3385 O   0  0  0  0  0  0  0  0  0  0  0  0
  2  1  1  6  0  0  0
  2  5  1  0  0  0  0
  2  3  1  0  0  0  0
  3  4  1  0  0  0  0
  3 12  2  0  0  0  0
  5  6  1  0  0  0  0
  6  7  1  0  0  0  0
  7  8  1  0  0  0  0
  8  9  1  0  0  0  0
  9 10  1  0  0  0  0
  9 11  2  0  0  0  0
M  CHG  3   1   1   4  -1  11   1
M  END
>  <CHROM.1>
-170.30366229,-94.76164660,-67.01191007,-169.66010622,-178.86633196,-136.88613520
-2.36024998,2.94575240,30.65823164,3.10314687,-0.02054131,-0.67737590

>  <Name>
1koc cryst

>  <RI>
0

>  <Rbt.Current_Directory>
/home/itssahil/PROJECTS/Mol_Feturizer/New_Systems/rnas/1koc

>  <Rbt.Executable>
rbdock ($Id: //depot/dev/client3/rdock/2013.1/src/exe/rbdock.cxx#4 $)

>  <Rbt.Library>
libRbt.so (2013.1, Build901 2013/11/27)

>  <Rbt.Parameter_File>
/export/apps/rDock/src/rDock_2013.1_src/data/scripts/dock_solv.prm

>  <Rbt.Receptor>
prm/blind_docking_60.prm

>  <SCORE>
-37.6124

>  <SCORE.INTER>
-35.3631

>  <SCORE.INTER.CONST>
1

>  <SCORE.INTER.POLAR>
-5.90149

>  <SCORE.INTER.ROT>
5

>  <SCORE.INTER.SOLV>
29.201

>  <SCORE.INTER.VDW>
-20.5708

>  <SCORE.INTER.norm>
-2.94693

>  <SCORE.INTRA>
-2.24924

>  <SCORE.INTRA.DIHEDRAL>
1.26549

>  <SCORE.INTRA.DIHEDRAL.0>
6.04201

>  <SCORE.INTRA.POLAR>
0

>  <SCORE.INTRA.POLAR.0>
0

>  <SCORE.INTRA.REPUL>
0

>  <SCORE.INTRA.REPUL.0>
0

>  <SCORE.INTRA.SOLV>
-1.65808

>  <SCORE.INTRA.SOLV.lig_0>
-71.0481

>  <SCORE.INTRA.VDW>
-2.05294

>  <SCORE.INTRA.VDW.0>
0.968882

>  <SCORE.INTRA.norm>
-0.187436

>  <SCORE.RESTR>
0

>  <SCORE.RESTR.CAVITY>
0

>  <SCORE.RESTR.norm>
0

>  <SCORE.SYSTEM>
0

>  <SCORE.SYSTEM.CONST>
0

>  <SCORE.SYSTEM.DIHEDRAL>
0

>  <SCORE.SYSTEM.SOLV>
0

>  <SCORE.SYSTEM.norm>
0

>  <SCORE.heavy>
12

>  <SCORE.norm>
-3.13436

>  <SYMMETRIC_BONDS>
11 12 2
5 6 2

>  <RMSD>
7.901

$$$$
1koc cryst
 OpenBabel11021811393D
libRbt.so/2013.1/901 2013/11/27
 12 11  0  0  0  0  0  0  0  0999 V2000
   -5.2433    1.8123   31.8884 N   0  3  0  0  0  0  0  0  0  0  0  0
   -4.6267    2.9546   31.1482 C   0  0  2  0  0  0  0  0  0  0  0  0
   -5.6609    3.5306   30.1613 C   0  0  0  0  0  0  0  0  0  0  0  0
   -6.0273    2.8208   29.2365 O   0  5  0  0  0  0  0  0  0  0  0  0
   -3.3650    2.4516   30.3963 C   0  0  0  0  0  0  0  0  0  0  0  0
   -2.1048    2.6332   31.2505 C   0  0  0  0  0  0  0  0  0  0  0  0
   -0.8693    2.3233   30.4124 C   0  0  0  0  0  0  0  0  0  0  0  0
    0.3608    2.4942   31.2393 N   0  0  0  0  0  0  0  0  0  0  0  0
    1.4146    3.0947   30.7408 C   0  0  0  0  0  0  0  0  0  0  0  0
    1.2730    4.1073   29.9219 N   0  0  0  0  0  0  0  0  0  0  0  0
    2.6126    2.6848   31.0660 N   0  3  0  0  0  0  0  0  0  0  0  0
   -6.0601    4.6719   30.3384 O   0  0  0  0  0  0  0  0  0  0  0  0
  2  1  1  6  0  0  0
  2  5  1  0  0  0  0
  2  3  1  0  0  0  0
  3  4  1  0  0  0  0
  3 12  2  0  0  0  0
  5  6  1  0  0  0  0
  6  7  1  0  0  0  0
  7  8  1  0  0  0  0
  8  9  1  0  0  0  0
  9 10  1  0  0  0  0
  9 11  2  0  0  0  0
M  CHG  3   1   1   4  -1  11   1
M  END
>  <CHROM.1>
-51.60451470,-92.33658191,-65.54569208,-171.74723700,-179.82498650,-137.17160571
-2.36712236,2.95830481,30.65928696,3.09965849,-0.01804587,-0.68162344

>  <Name>
1koc cryst

>  <RI>
0

>  <Rbt.Current_Directory>
/home/itssahil/PROJECTS/Mol_Feturizer/New_Systems/rnas/1koc

>  <Rbt.Executable>
rbdock ($Id: //depot/dev/client3/rdock/2013.1/src/exe/rbdock.cxx#4 $)

>  <Rbt.Library>
libRbt.so (2013.1, Build901 2013/11/27)

>  <Rbt.Parameter_File>
/export/apps/rDock/src/rDock_2013.1_src/data/scripts/dock_solv.prm

>  <Rbt.Receptor>
prm/blind_docking_80.prm

>  <SCORE>
-37.7559

>  <SCORE.INTER>
-35.2321

>  <SCORE.INTER.CONST>
1

>  <SCORE.INTER.POLAR>
-5.88781

>  <SCORE.INTER.ROT>
5

>  <SCORE.INTER.SOLV>
29.114

>  <SCORE.INTER.VDW>
-20.5001

>  <SCORE.INTER.norm>
-2.93601

>  <SCORE.INTRA>
-2.52378

>  <SCORE.INTRA.DIHEDRAL>
0.727739

>  <SCORE.INTRA.DIHEDRAL.0>
6.04201

>  <SCORE.INTRA.POLAR>
0

>  <SCORE.INTRA.POLAR.0>
0

>  <SCORE.INTRA.REPUL>
0

>  <SCORE.INTRA.REPUL.0>
0

>  <SCORE.INTRA.SOLV>
-1.61932

>  <SCORE.INTRA.SOLV.lig_0>
-71.0481

>  <SCORE.INTRA.VDW>
-2.07799

>  <SCORE.INTRA.VDW.0>
0.968882

>  <SCORE.INTRA.norm>
-0.210315

>  <SCORE.RESTR>
0

>  <SCORE.RESTR.CAVITY>
0

>  <SCORE.RESTR.norm>
0

>  <SCORE.SYSTEM>
0

>  <SCORE.SYSTEM.CONST>
0

>  <SCORE.SYSTEM.DIHEDRAL>
0

>  <SCORE.SYSTEM.SOLV>
0

>  <SCORE.SYSTEM.norm>
0

>  <SCORE.heavy>
12

>  <SCORE.norm>
-3.14633

>  <SYMMETRIC_BONDS>
11 12 2
5 6 2

>  <RMSD>
7.904

$$$$
1koc cryst
 OpenBabel11021811393D
libRbt.so/2013.1/901 2013/11/27
 12 11  0  0  0  0  0  0  0  0999 V2000
   -5.3186    1.7977   31.9507 N   0  3  0  0  0  0  0  0  0  0  0  0
   -4.6571    2.9221   31.2220 C   0  0  2  0  0  0  0  0  0  0  0  0
   -5.6640    3.5412   30.2329 C   0  0  0  0  0  0  0  0  0  0  0  0
   -6.0555    2.8486   29.3055 O   0  5  0  0  0  0  0  0  0  0  0  0
   -3.4096    2.3794   30.4742 C   0  0  0  0  0  0  0  0  0  0  0  0
   -2.1288    2.6415   31.2753 C   0  0  0  0  0  0  0  0  0  0  0  0
   -0.9122    2.3032   30.4207 C   0  0  0  0  0  0  0  0  0  0  0  0
    0.3334    2.4576   31.2275 N   0  0  0  0  0  0  0  0  0  0  0  0
    1.3713    3.0845   30.7281 C   0  0  0  0  0  0  0  0  0  0  0  0
    1.2037    4.1228   29.9471 N   0  0  0  0  0  0  0  0  0  0  0  0
    2.5793    2.6752   31.0143 N   0  3  0  0  0  0  0  0  0  0  0  0
   -6.0177    4.6972   30.4112 O   0  0  0  0  0  0  0  0  0  0  0  0
  2  1  1  6  0  0  0
  2  5  1  0  0  0  0
  2  3  1  0  0  0  0
  3  4  1  0  0  0  0
  3 12  2  0  0  0  0
  5  6  1  0  0  0  0
  6  7  1  0  0  0  0
  7  8  1  0  0  0  0
  8  9  1  0  0  0  0
  9 10  1  0  0  0  0
  9 11  2  0  0  0  0
M  CHG  3   1   1   4  -1  11   1
M  END
>  <CHROM.1>
-49.13191071,-98.20053219,-65.14173357,-170.95091421,-175.75406012,-134.32353856
-2.39937031,2.95003423,30.69315039,3.10805144,-0.00849753,-0.65662838

>  <Name>
1koc cryst

>  <RI>
0

>  <Rbt.Current_Directory>
/home/itssahil/PROJECTS/Mol_Feturizer/New_Systems/rnas/1koc

>  <Rbt.Executable>
rbdock ($Id: //depot/dev/client3/rdock/2013.1/src/exe/rbdock.cxx#4 $)

>  <Rbt.Library>
libRbt.so (2013.1, Build901 2013/11/27)

>  <Rbt.Parameter_File>
/export/apps/rDock/src/rDock_2013.1_src/data/scripts/dock_solv.prm

>  <Rbt.Receptor>
prm/blind_docking_60.prm

>  <SCORE>
-37.5483

>  <SCORE.INTER>
-35.4875

>  <SCORE.INTER.CONST>
1

>  <SCORE.INTER.POLAR>
-5.83955

>  <SCORE.INTER.ROT>
5

>  <SCORE.INTER.SOLV>
29.3178

>  <SCORE.INTER.VDW>
-20.8991

>  <SCORE.INTER.norm>
-2.95729

>  <SCORE.INTRA>
-2.06079

>  <SCORE.INTRA.DIHEDRAL>
1.71969

>  <SCORE.INTRA.DIHEDRAL.0>
6.04201

>  <SCORE.INTRA.POLAR>
0

>  <SCORE.INTRA.POLAR.0>
0

>  <SCORE.INTRA.REPUL>
0

>  <SCORE.INTRA.REPUL.0>
0

>  <SCORE.INTRA.SOLV>
-1.67271

>  <SCORE.INTRA.SOLV.lig_0>
-71.0481

>  <SCORE.INTRA.VDW>
-2.08428

>  <SCORE.INTRA.VDW.0>
0.968882

>  <SCORE.INTRA.norm>
-0.171732

>  <SCORE.RESTR>
0

>  <SCORE.RESTR.CAVITY>
0

>  <SCORE.RESTR.norm>
0

>  <SCORE.SYSTEM>
0

>  <SCORE.SYSTEM.CONST>
0

>  <SCORE.SYSTEM.DIHEDRAL>
0

>  <SCORE.SYSTEM.SOLV>
0

>  <SCORE.SYSTEM.norm>
0

>  <SCORE.heavy>
12

>  <SCORE.norm>
-3.12902

>  <SYMMETRIC_BONDS>
11 12 2
5 6 2

>  <RMSD>
7.919

$$$$
1koc cryst
 OpenBabel11021811393D
libRbt.so/2013.1/901 2013/11/27
 12 11  0  0  0  0  0  0  0  0999 V2000
   -4.5891    2.7287   32.7881 N   0  3  0  0  0  0  0  0  0  0  0  0
   -4.5047    3.1078   31.3452 C   0  0  2  0  0  0  0  0  0  0  0  0
   -5.8226    2.7210   30.6461 C   0  0  0  0  0  0  0  0  0  0  0  0
   -5.8652    2.7878   29.4268 O   0  5  0  0  0  0  0  0  0  0  0  0
   -3.2990    2.3756   30.6968 C   0  0  0  0  0  0  0  0  0  0  0  0
   -1.9806    2.7879   31.3620 C   0  0  0  0  0  0  0  0  0  0  0  0
   -0.8075    2.3026   30.5175 C   0  0  0  0  0  0  0  0  0  0  0  0
    0.4668    2.4691   31.2757 N   0  0  0  0  0  0  0  0  0  0  0  0
    1.4781    3.1071   30.7373 C   0  0  0  0  0  0  0  0  0  0  0  0
    1.2698    4.1444   29.9648 N   0  0  0  0  0  0  0  0  0  0  0  0
    2.7004    2.7100   30.9760 N   0  3  0  0  0  0  0  0  0  0  0  0
   -6.7684    2.3763   31.3389 O   0  0  0  0  0  0  0  0  0  0  0  0
  2  1  1  1  0  0  0
  2  5  1  0  0  0  0
  2  3  1  0  0  0  0
  3  4  1  0  0  0  0
  3 12  2  0  0  0  0
  5  6  1  0  0  0  0
  6  7  1  0  0  0  0
  7  8  1  0  0  0  0
  8  9  1  0  0  0  0
  9 10  1  0  0  0  0
  9 11  2  0  0  0  0
M  CHG  3   1   1   4  -1  11   1
M  END
>  <CHROM.1>
-167.16792146,-61.54856945,-170.11854642,-167.52998039,-169.39258479,-127.50144527
-2.31185334,2.80259398,30.94578487,-3.08908773,-0.04401322,-1.33629112

>  <Name>
1koc cryst

>  <RI>
0

>  <Rbt.Current_Directory>
/home/itssahil/PROJECTS/Mol_Feturizer/New_Systems/rnas/1koc

>  <Rbt.Executable>
rbdock ($Id: //depot/dev/client3/rdock/2013.1/src/exe/rbdock.cxx#4 $)

>  <Rbt.Library>
libRbt.so (2013.1, Build901 2013/11/27)

>  <Rbt.Parameter_File>
/export/apps/rDock/src/rDock_2013.1_src/data/scripts/dock_solv.prm

>  <Rbt.Receptor>
prm/blind_docking_40.prm

>  <SCORE>
-30.582

>  <SCORE.INTER>
-28.081

>  <SCORE.INTER.CONST>
1

>  <SCORE.INTER.POLAR>
-3.84209

>  <SCORE.INTER.ROT>
5

>  <SCORE.INTER.SOLV>
28.2006

>  <SCORE.INTER.VDW>
-22.2472

>  <SCORE.INTER.norm>
-2.34008

>  <SCORE.INTRA>
-2.50104

>  <SCORE.INTRA.DIHEDRAL>
-1.1629

>  <SCORE.INTRA.DIHEDRAL.0>
6.04201

>  <SCORE.INTRA.POLAR>
0

>  <SCORE.INTRA.POLAR.0>
0

>  <SCORE.INTRA.REPUL>
0

>  <SCORE.INTRA.REPUL.0>
0

>  <SCORE.INTRA.SOLV>
-0.787366

>  <SCORE.INTRA.SOLV.lig_0>
-71.0481

>  <SCORE.INTRA.VDW>
-1.52591

>  <SCORE.INTRA.VDW.0>
0.968882

>  <SCORE.INTRA.norm>
-0.20842

>  <SCORE.RESTR>
0

>  <SCORE.RESTR.CAVITY>
0

>  <SCORE.RESTR.norm>
0

>  <SCORE.SYSTEM>
0

>  <SCORE.SYSTEM.CONST>
0

>  <SCORE.SYSTEM.DIHEDRAL>
0

>  <SCORE.SYSTEM.SOLV>
0

>  <SCORE.SYSTEM.norm>
0

>  <SCORE.heavy>
12

>  <SCORE.norm>
-2.5485

>  <SYMMETRIC_BONDS>
11 12 2
5 6 2

>  <RMSD>
7.921

$$$$
1koc cryst
 OpenBabel11021811393D
libRbt.so/2013.1/901 2013/11/27
 12 11  0  0  0  0  0  0  0  0999 V2000
   -5.3113    1.8049   31.9557 N   0  3  0  0  0  0  0  0  0  0  0  0
   -4.6458    2.8836   31.1641 C   0  0  2  0  0  0  0  0  0  0  0  0
   -5.6413    3.4285   30.1212 C   0  0  0  0  0  0  0  0  0  0  0  0
   -5.2454    3.5777   28.9749 O   0  5  0  0  0  0  0  0  0  0  0  0
   -3.3835    2.3018   30.4726 C   0  0  0  0  0  0  0  0  0  0  0  0
   -2.1164    2.6302   31.2710 C   0  0  0  0  0  0  0  0  0  0  0  0
   -0.8847    2.3038   30.4336 C   0  0  0  0  0  0  0  0  0  0  0  0
    0.3496    2.4990   31.2489 N   0  0  0  0  0  0  0  0  0  0  0  0
    1.3955    3.0979   30.7322 C   0  0  0  0  0  0  0  0  0  0  0  0
    1.2408    4.0942   29.8958 N   0  0  0  0  0  0  0  0  0  0  0  0
    2.5987    2.7030   31.0567 N   0  3  0  0  0  0  0  0  0  0  0  0
   -6.7760    3.6976   30.4864 O   0  0  0  0  0  0  0  0  0  0  0  0
  2  1  1  6  0  0  0
  2  5  1  0  0  0  0
  2  3  1  0  0  0  0
  3  4  1  0  0  0  0
  3 12  2  0  0  0  0
  5  6  1  0  0  0  0
  6  7  1  0  0  0  0
  7  8  1  0  0  0  0
  8  9  1  0  0  0  0
  9 10  1  0  0  0  0
  9 11  2  0  0  0  0
M  CHG  3   1   1   4  -1  11   1
M  END
>  <CHROM.1>
-53.64502466,-98.41155018,-133.66813900,-168.39087096,-174.69602149,-136.74029158
-2.37807543,2.91308723,30.66047881,3.11555058,-0.01308002,-0.87524066

>  <Name>
1koc cryst

>  <RI>
0

>  <Rbt.Current_Directory>
/home/itssahil/PROJECTS/Mol_Feturizer/New_Systems/rnas/1koc

>  <Rbt.Executable>
rbdock ($Id: //depot/dev/client3/rdock/2013.1/src/exe/rbdock.cxx#4 $)

>  <Rbt.Library>
libRbt.so (2013.1, Build901 2013/11/27)

>  <Rbt.Parameter_File>
/export/apps/rDock/src/rDock_2013.1_src/data/scripts/dock_solv.prm

>  <Rbt.Receptor>
prm/blind_docking_40.prm

>  <SCORE>
-31.9059

>  <SCORE.INTER>
-30.7922

>  <SCORE.INTER.CONST>
1

>  <SCORE.INTER.POLAR>
-4.93198

>  <SCORE.INTER.ROT>
5

>  <SCORE.INTER.SOLV>
28.0041

>  <SCORE.INTER.VDW>
-20.3562

>  <SCORE.INTER.norm>
-2.56602

>  <SCORE.INTRA>
-1.11419

>  <SCORE.INTRA.DIHEDRAL>
1.80055

>  <SCORE.INTRA.DIHEDRAL.0>
6.04201

>  <SCORE.INTRA.POLAR>
0

>  <SCORE.INTRA.POLAR.0>
0

>  <SCORE.INTRA.REPUL>
0

>  <SCORE.INTRA.REPUL.0>
0

>  <SCORE.INTRA.SOLV>
-1.42877

>  <SCORE.INTRA.SOLV.lig_0>
-71.0481

>  <SCORE.INTRA.VDW>
-1.30008

>  <SCORE.INTRA.VDW.0>
0.968882

>  <SCORE.INTRA.norm>
-0.0928494

>  <SCORE.RESTR>
0.000512201

>  <SCORE.RESTR.CAVITY>
0.000512201

>  <SCORE.RESTR.norm>
4.26834e-05

>  <SCORE.SYSTEM>
0

>  <SCORE.SYSTEM.CONST>
0

>  <SCORE.SYSTEM.DIHEDRAL>
0

>  <SCORE.SYSTEM.SOLV>
0

>  <SCORE.SYSTEM.norm>
0

>  <SCORE.heavy>
12

>  <SCORE.norm>
-2.65882

>  <SYMMETRIC_BONDS>
11 12 2
5 6 2

>  <RMSD>
7.949

$$$$
1koc cryst
 OpenBabel11021811393D
libRbt.so/2013.1/901 2013/11/27
 12 11  0  0  0  0  0  0  0  0999 V2000
   -2.4908    1.1923   27.1026 N   0  3  0  0  0  0  0  0  0  0  0  0
   -2.5122    0.5200   28.4369 C   0  0  2  0  0  0  0  0  0  0  0  0
   -3.2418   -0.8314   28.3069 C   0  0  0  0  0  0  0  0  0  0  0  0
   -3.3238   -1.5361   29.3018 O   0  5  0  0  0  0  0  0  0  0  0  0
   -3.2317    1.4409   29.4589 C   0  0  0  0  0  0  0  0  0  0  0  0
   -2.2959    1.8223   30.6120 C   0  0  0  0  0  0  0  0  0  0  0  0
   -1.0664    2.5348   30.0591 C   0  0  0  0  0  0  0  0  0  0  0  0
    0.0454    2.4726   31.0521 N   0  0  0  0  0  0  0  0  0  0  0  0
    1.2126    3.0007   30.7719 C   0  0  0  0  0  0  0  0  0  0  0  0
    1.2875    4.1068   30.0742 N   0  0  0  0  0  0  0  0  0  0  0  0
    2.3069    2.4241   31.1947 N   0  3  0  0  0  0  0  0  0  0  0  0
   -3.6952   -1.1443   27.2161 O   0  0  0  0  0  0  0  0  0  0  0  0
  2  1  1  6  0  0  0
  2  5  1  0  0  0  0
  2  3  1  0  0  0  0
  3  4  1  0  0  0  0
  3 12  2  0  0  0  0
  5  6  1  0  0  0  0
  6  7  1  0  0  0  0
  7  8  1  0  0  0  0
  8  9  1  0  0  0  0
  9 10  1  0  0  0  0
  9 11  2  0  0  0  0
M  CHG  3   1   1   4  -1  11   1
M  END
>  <CHROM.1>
50.57899662,-119.41807949,178.20560664,58.74728553,-159.70552545,178.58912680
-1.39968585,1.33420448,29.43630992,3.13979714,0.77631927,2.20725882

>  <Name>
1koc cryst

>  <RI>
0

>  <Rbt.Current_Directory>
/home/itssahil/PROJECTS/Mol_Feturizer/New_Systems/rnas/1koc

>  <Rbt.Executable>
rbdock ($Id: //depot/dev/client3/rdock/2013.1/src/exe/rbdock.cxx#4 $)

>  <Rbt.Library>
libRbt.so (2013.1, Build901 2013/11/27)

>  <Rbt.Parameter_File>
/export/apps/rDock/src/rDock_2013.1_src/data/scripts/dock_solv.prm

>  <Rbt.Receptor>
prm/blind_docking_40.prm

>  <SCORE>
-29.1825

>  <SCORE.INTER>
-29.7778

>  <SCORE.INTER.CONST>
1

>  <SCORE.INTER.POLAR>
-5.08334

>  <SCORE.INTER.ROT>
5

>  <SCORE.INTER.SOLV>
31.8692

>  <SCORE.INTER.VDW>
-20.4638

>  <SCORE.INTER.norm>
-2.48149

>  <SCORE.INTRA>
0.59535

>  <SCORE.INTRA.DIHEDRAL>
4.1698

>  <SCORE.INTRA.DIHEDRAL.0>
6.04201

>  <SCORE.INTRA.POLAR>
0

>  <SCORE.INTRA.POLAR.0>
0

>  <SCORE.INTRA.REPUL>
0

>  <SCORE.INTRA.REPUL.0>
0

>  <SCORE.INTRA.SOLV>
-0.810907

>  <SCORE.INTRA.SOLV.lig_0>
-71.0481

>  <SCORE.INTRA.VDW>
-1.0841

>  <SCORE.INTRA.VDW.0>
0.968882

>  <SCORE.INTRA.norm>
0.0496125

>  <SCORE.RESTR>
0

>  <SCORE.RESTR.CAVITY>
0

>  <SCORE.RESTR.norm>
0

>  <SCORE.SYSTEM>
0

>  <SCORE.SYSTEM.CONST>
0

>  <SCORE.SYSTEM.DIHEDRAL>
0

>  <SCORE.SYSTEM.SOLV>
0

>  <SCORE.SYSTEM.norm>
0

>  <SCORE.heavy>
12

>  <SCORE.norm>
-2.43187

>  <SYMMETRIC_BONDS>
11 12 2
5 6 2

>  <RMSD>
7.966

$$$$
1koc cryst
 OpenBabel11021811393D
libRbt.so/2013.1/901 2013/11/27
 12 11  0  0  0  0  0  0  0  0999 V2000
   -4.0487    1.0003   29.9543 N   0  3  0  0  0  0  0  0  0  0  0  0
   -3.1793    0.5640   28.8200 C   0  0  2  0  0  0  0  0  0  0  0  0
   -3.4850   -0.9103   28.4909 C   0  0  0  0  0  0  0  0  0  0  0  0
   -3.5353   -1.2360   27.3143 O   0  5  0  0  0  0  0  0  0  0  0  0
   -1.6906    0.7439   29.2219 C   0  0  0  0  0  0  0  0  0  0  0  0
   -1.3525    2.2237   29.4380 C   0  0  0  0  0  0  0  0  0  0  0  0
   -1.2422    2.5106   30.9315 C   0  0  0  0  0  0  0  0  0  0  0  0
    0.1690    2.3278   31.3804 N   0  0  0  0  0  0  0  0  0  0  0  0
    1.1483    2.9218   30.7418 C   0  0  0  0  0  0  0  0  0  0  0  0
    0.9813    4.1220   30.2444 N   0  0  0  0  0  0  0  0  0  0  0  0
    2.2986    2.3161   30.6049 N   0  3  0  0  0  0  0  0  0  0  0  0
   -3.6744   -1.6850   29.4168 O   0  0  0  0  0  0  0  0  0  0  0  0
  2  1  1  1  0  0  0
  2  5  1  0  0  0  0
  2  3  1  0  0  0  0
  3  4  1  0  0  0  0
  3 12  2  0  0  0  0
  5  6  1  0  0  0  0
  6  7  1  0  0  0  0
  7  8  1  0  0  0  0
  8  9  1  0  0  0  0
  9 10  1  0  0  0  0
  9 11  2  0  0  0  0
M  CHG  3   1   1   4  -1  11   1
M  END
>  <CHROM.1>
-21.56076273,-64.58168679,139.18846204,104.76332132,91.20068466,51.16988211
-1.47484128,1.23815550,29.72609575,2.40895849,-0.06458105,-2.57488136

>  <Name>
1koc cryst

>  <RI>
0

>  <Rbt.Current_Directory>
/home/itssahil/PROJECTS/Mol_Feturizer/New_Systems/rnas/1koc

>  <Rbt.Executable>
rbdock ($Id: //depot/dev/client3/rdock/2013.1/src/exe/rbdock.cxx#4 $)

>  <Rbt.Library>
libRbt.so (2013.1, Build901 2013/11/27)

>  <Rbt.Parameter_File>
/export/apps/rDock/src/rDock_2013.1_src/data/scripts/dock_solv.prm

>  <Rbt.Receptor>
prm/blind_docking_40.prm

>  <SCORE>
-21.6288

>  <SCORE.INTER>
-24.6484

>  <SCORE.INTER.CONST>
1

>  <SCORE.INTER.POLAR>
-4.83978

>  <SCORE.INTER.ROT>
5

>  <SCORE.INTER.SOLV>
35.5064

>  <SCORE.INTER.VDW>
-19.0685

>  <SCORE.INTER.norm>
-2.05403

>  <SCORE.INTRA>
3.01965

>  <SCORE.INTRA.DIHEDRAL>
8.18249

>  <SCORE.INTRA.DIHEDRAL.0>
6.04201

>  <SCORE.INTRA.POLAR>
0

>  <SCORE.INTRA.POLAR.0>
0

>  <SCORE.INTRA.REPUL>
0

>  <SCORE.INTRA.REPUL.0>
0

>  <SCORE.INTRA.SOLV>
0.376614

>  <SCORE.INTRA.SOLV.lig_0>
-71.0481

>  <SCORE.INTRA.VDW>
-1.2599

>  <SCORE.INTRA.VDW.0>
0.968882

>  <SCORE.INTRA.norm>
0.251637

>  <SCORE.RESTR>
0

>  <SCORE.RESTR.CAVITY>
0

>  <SCORE.RESTR.norm>
0

>  <SCORE.SYSTEM>
0

>  <SCORE.SYSTEM.CONST>
0

>  <SCORE.SYSTEM.DIHEDRAL>
0

>  <SCORE.SYSTEM.SOLV>
0

>  <SCORE.SYSTEM.norm>
0

>  <SCORE.heavy>
12

>  <SCORE.norm>
-1.8024

>  <SYMMETRIC_BONDS>
11 12 2
5 6 2

>  <RMSD>
8.005

$$$$
1koc cryst
 OpenBabel11021811393D
libRbt.so/2013.1/901 2013/11/27
 12 11  0  0  0  0  0  0  0  0999 V2000
   -1.1512    2.6255   30.6675 N   0  3  0  0  0  0  0  0  0  0  0  0
   -2.6313    2.6851   30.4711 C   0  0  2  0  0  0  0  0  0  0  0  0
   -3.3108    2.9077   31.8365 C   0  0  0  0  0  0  0  0  0  0  0  0
   -4.5292    2.9963   31.8622 O   0  5  0  0  0  0  0  0  0  0  0  0
   -3.1123    1.3586   29.8237 C   0  0  0  0  0  0  0  0  0  0  0  0
   -2.4543    1.1421   28.4558 C   0  0  0  0  0  0  0  0  0  0  0  0
   -3.2533    0.1157   27.6602 C   0  0  0  0  0  0  0  0  0  0  0  0
   -3.4745   -1.1066   28.4867 N   0  0  0  0  0  0  0  0  0  0  0  0
   -3.6431   -2.2727   27.9109 C   0  0  0  0  0  0  0  0  0  0  0  0
   -2.9807   -2.5741   26.8217 N   0  0  0  0  0  0  0  0  0  0  0  0
   -4.4720   -3.1410   28.4284 N   0  3  0  0  0  0  0  0  0  0  0  0
   -2.6041    2.9970   32.8294 O   0  0  0  0  0  0  0  0  0  0  0  0
  2  1  1  1  0  0  0
  2  5  1  0  0  0  0
  2  3  1  0  0  0  0
  3  4  1  0  0  0  0
  3 12  2  0  0  0  0
  5  6  1  0  0  0  0
  6  7  1  0  0  0  0
  7  8  1  0  0  0  0
  8  9  1  0  0  0  0
  9 10  1  0  0  0  0
  9 11  2  0  0  0  0
M  CHG  3   1   1   4  -1  11   1
M  END
>  <CHROM.1>
-47.08855582,-60.70754064,179.24426630,-161.67836038,-51.09675606,-152.99291464
-3.11596898,0.63250139,29.62576324,-1.42682560,-0.67994805,-2.39087229

>  <Name>
1koc cryst

>  <RI>
0

>  <Rbt.Current_Directory>
/home/itssahil/PROJECTS/Mol_Feturizer/New_Systems/rnas/1koc

>  <Rbt.Executable>
rbdock ($Id: //depot/dev/client3/rdock/2013.1/src/exe/rbdock.cxx#4 $)

>  <Rbt.Library>
libRbt.so (2013.1, Build901 2013/11/27)

>  <Rbt.Parameter_File>
/export/apps/rDock/src/rDock_2013.1_src/data/scripts/dock_solv.prm

>  <Rbt.Receptor>
prm/blind_docking_100.prm

>  <SCORE>
-11.0083

>  <SCORE.INTER>
-10.0679

>  <SCORE.INTER.CONST>
1

>  <SCORE.INTER.POLAR>
-1.28346

>  <SCORE.INTER.ROT>
5

>  <SCORE.INTER.SOLV>
35.6111

>  <SCORE.INTER.VDW>
-21.2374

>  <SCORE.INTER.norm>
-0.838989

>  <SCORE.INTRA>
-0.940389

>  <SCORE.INTRA.DIHEDRAL>
-0.611308

>  <SCORE.INTRA.DIHEDRAL.0>
6.04201

>  <SCORE.INTRA.POLAR>
0

>  <SCORE.INTRA.POLAR.0>
0

>  <SCORE.INTRA.REPUL>
0

>  <SCORE.INTRA.REPUL.0>
0

>  <SCORE.INTRA.SOLV>
-0.39613

>  <SCORE.INTRA.SOLV.lig_0>
-71.0481

>  <SCORE.INTRA.VDW>
-0.43667

>  <SCORE.INTRA.VDW.0>
0.968882

>  <SCORE.INTRA.norm>
-0.0783658

>  <SCORE.RESTR>
0

>  <SCORE.RESTR.CAVITY>
0

>  <SCORE.RESTR.norm>
0

>  <SCORE.SYSTEM>
0

>  <SCORE.SYSTEM.CONST>
0

>  <SCORE.SYSTEM.DIHEDRAL>
0

>  <SCORE.SYSTEM.SOLV>
0

>  <SCORE.SYSTEM.norm>
0

>  <SCORE.heavy>
12

>  <SCORE.norm>
-0.917355

>  <SYMMETRIC_BONDS>
11 12 2
5 6 2

>  <RMSD>
8.070

$$$$
1koc cryst
 OpenBabel11021811393D
libRbt.so/2013.1/901 2013/11/27
 12 11  0  0  0  0  0  0  0  0999 V2000
   -5.3813    1.6805   32.0651 N   0  3  0  0  0  0  0  0  0  0  0  0
   -4.8728    2.9509   31.4648 C   0  0  2  0  0  0  0  0  0  0  0  0
   -6.0025    3.6078   30.6476 C   0  0  0  0  0  0  0  0  0  0  0  0
   -6.1890    4.8071   30.7892 O   0  5  0  0  0  0  0  0  0  0  0  0
   -3.6501    2.6333   30.5624 C   0  0  0  0  0  0  0  0  0  0  0  0
   -2.3495    2.6377   31.3742 C   0  0  0  0  0  0  0  0  0  0  0  0
   -1.1607    2.4535   30.4373 C   0  0  0  0  0  0  0  0  0  0  0  0
    0.1066    2.4280   31.2245 N   0  0  0  0  0  0  0  0  0  0  0  0
    1.1946    2.9804   30.7442 C   0  0  0  0  0  0  0  0  0  0  0  0
    1.1208    4.0806   30.0369 N   0  0  0  0  0  0  0  0  0  0  0  0
    2.3594    2.4342   30.9760 N   0  3  0  0  0  0  0  0  0  0  0  0
   -6.6680    2.9020   29.9045 O   0  0  0  0  0  0  0  0  0  0  0  0
  2  1  1  6  0  0  0
  2  5  1  0  0  0  0
  2  3  1  0  0  0  0
  3  4  1  0  0  0  0
  3 12  2  0  0  0  0
  5  6  1  0  0  0  0
  6  7  1  0  0  0  0
  7  8  1  0  0  0  0
  8  9  1  0  0  0  0
  9 10  1  0  0  0  0
  9 11  2  0  0  0  0
M  CHG  3   1   1   4  -1  11   1
M  END
>  <CHROM.1>
74.17768161,-87.43075892,134.28880217,-174.69861012,-178.81223201,-143.11742256
-2.63162514,2.95547976,30.86124547,3.11565821,0.03644898,-0.53195201

>  <Name>
1koc cryst

>  <RI>
0

>  <Rbt.Current_Directory>
/home/itssahil/PROJECTS/Mol_Feturizer/New_Systems/rnas/1koc

>  <Rbt.Executable>
rbdock ($Id: //depot/dev/client3/rdock/2013.1/src/exe/rbdock.cxx#4 $)

>  <Rbt.Library>
libRbt.so (2013.1, Build901 2013/11/27)

>  <Rbt.Parameter_File>
/export/apps/rDock/src/rDock_2013.1_src/data/scripts/dock_solv.prm

>  <Rbt.Receptor>
prm/blind_docking_40.prm

>  <SCORE>
-34.1258

>  <SCORE.INTER>
-31.6389

>  <SCORE.INTER.CONST>
1

>  <SCORE.INTER.POLAR>
-5.41025

>  <SCORE.INTER.ROT>
5

>  <SCORE.INTER.SOLV>
29.804

>  <SCORE.INTER.VDW>
-19.9264

>  <SCORE.INTER.norm>
-2.63658

>  <SCORE.INTRA>
-2.74149

>  <SCORE.INTRA.DIHEDRAL>
0.216421

>  <SCORE.INTRA.DIHEDRAL.0>
6.04201

>  <SCORE.INTRA.POLAR>
0

>  <SCORE.INTRA.POLAR.0>
0

>  <SCORE.INTRA.REPUL>
0

>  <SCORE.INTRA.REPUL.0>
0

>  <SCORE.INTRA.SOLV>
-1.48187

>  <SCORE.INTRA.SOLV.lig_0>
-71.0481

>  <SCORE.INTRA.VDW>
-2.10876

>  <SCORE.INTRA.VDW.0>
0.968882

>  <SCORE.INTRA.norm>
-0.228457

>  <SCORE.RESTR>
0.254629

>  <SCORE.RESTR.CAVITY>
0.254629

>  <SCORE.RESTR.norm>
0.0212191

>  <SCORE.SYSTEM>
0

>  <SCORE.SYSTEM.CONST>
0

>  <SCORE.SYSTEM.DIHEDRAL>
0

>  <SCORE.SYSTEM.SOLV>
0

>  <SCORE.SYSTEM.norm>
0

>  <SCORE.heavy>
12

>  <SCORE.norm>
-2.84382

>  <SYMMETRIC_BONDS>
11 12 2
5 6 2

>  <RMSD>
8.078

$$$$
1koc cryst
 OpenBabel11021811393D
libRbt.so/2013.1/901 2013/11/27
 12 11  0  0  0  0  0  0  0  0999 V2000
   -0.2388    2.5812   31.0272 N   0  3  0  0  0  0  0  0  0  0  0  0
   -1.4719    2.4798   30.1894 C   0  0  2  0  0  0  0  0  0  0  0  0
   -2.7091    2.6335   31.0956 C   0  0  0  0  0  0  0  0  0  0  0  0
   -3.8060    2.6986   30.5611 O   0  5  0  0  0  0  0  0  0  0  0  0
   -1.4835    1.1063   29.4658 C   0  0  0  0  0  0  0  0  0  0  0  0
   -2.5699    1.0615   28.3848 C   0  0  0  0  0  0  0  0  0  0  0  0
   -2.6926   -0.3577   27.8410 C   0  0  0  0  0  0  0  0  0  0  0  0
   -3.6136   -0.3735   26.6672 N   0  0  0  0  0  0  0  0  0  0  0  0
   -3.9801   -1.5120   26.1294 C   0  0  0  0  0  0  0  0  0  0  0  0
   -4.1863   -2.5633   26.8833 N   0  0  0  0  0  0  0  0  0  0  0  0
   -4.1456   -1.5979   24.8356 N   0  3  0  0  0  0  0  0  0  0  0  0
   -2.5399    2.6948   32.3043 O   0  0  0  0  0  0  0  0  0  0  0  0
  2  1  1  1  0  0  0
  2  5  1  0  0  0  0
  2  3  1  0  0  0  0
  3  4  1  0  0  0  0
  3 12  2  0  0  0  0
  5  6  1  0  0  0  0
  6  7  1  0  0  0  0
  7  8  1  0  0  0  0
  8  9  1  0  0  0  0
  9 10  1  0  0  0  0
  9 11  2  0  0  0  0
M  CHG  3   1   1   4  -1  11   1
M  END
>  <CHROM.1>
-172.80910233,-168.60097548,173.44344974,-171.62303654,-172.45959453,-172.60591297
-2.78107694,0.73712897,28.79627264,-1.26958722,-0.08994965,-2.22870391

>  <Name>
1koc cryst

>  <RI>
0

>  <Rbt.Current_Directory>
/home/itssahil/PROJECTS/Mol_Feturizer/New_Systems/rnas/1koc

>  <Rbt.Executable>
rbdock ($Id: //depot/dev/client3/rdock/2013.1/src/exe/rbdock.cxx#4 $)

>  <Rbt.Library>
libRbt.so (2013.1, Build901 2013/11/27)

>  <Rbt.Parameter_File>
/export/apps/rDock/src/rDock_2013.1_src/data/scripts/dock_solv.prm

>  <Rbt.Receptor>
prm/blind_docking_80.prm

>  <SCORE>
-20.482

>  <SCORE.INTER>
-17.786

>  <SCORE.INTER.CONST>
1

>  <SCORE.INTER.POLAR>
-3.02358

>  <SCORE.INTER.ROT>
5

>  <SCORE.INTER.SOLV>
32.1437

>  <SCORE.INTER.VDW>
-19.4266

>  <SCORE.INTER.norm>
-1.48217

>  <SCORE.INTRA>
-2.70507

>  <SCORE.INTRA.DIHEDRAL>
-1.52697

>  <SCORE.INTRA.DIHEDRAL.0>
6.04201

>  <SCORE.INTRA.POLAR>
0

>  <SCORE.INTRA.POLAR.0>
0

>  <SCORE.INTRA.REPUL>
0

>  <SCORE.INTRA.REPUL.0>
0

>  <SCORE.INTRA.SOLV>
-1.03337

>  <SCORE.INTRA.SOLV.lig_0>
-71.0481

>  <SCORE.INTRA.VDW>
-1.4249

>  <SCORE.INTRA.VDW.0>
0.968882

>  <SCORE.INTRA.norm>
-0.225422

>  <SCORE.RESTR>
0.00908564

>  <SCORE.RESTR.CAVITY>
0.00908564

>  <SCORE.RESTR.norm>
0.000757136

>  <SCORE.SYSTEM>
0

>  <SCORE.SYSTEM.CONST>
0

>  <SCORE.SYSTEM.DIHEDRAL>
0

>  <SCORE.SYSTEM.SOLV>
0

>  <SCORE.SYSTEM.norm>
0

>  <SCORE.heavy>
12

>  <SCORE.norm>
-1.70683

>  <SYMMETRIC_BONDS>
11 12 2
5 6 2

>  <RMSD>
8.079

$$$$
1koc cryst
 OpenBabel11021811393D
libRbt.so/2013.1/901 2013/11/27
 12 11  0  0  0  0  0  0  0  0999 V2000
   -4.7182    2.7139   32.8941 N   0  3  0  0  0  0  0  0  0  0  0  0
   -4.7021    3.1361   31.4608 C   0  0  2  0  0  0  0  0  0  0  0  0
   -6.0607    2.7911   30.8200 C   0  0  0  0  0  0  0  0  0  0  0  0
   -6.2557    3.1433   29.6663 O   0  5  0  0  0  0  0  0  0  0  0  0
   -3.5439    2.4062   30.7286 C   0  0  0  0  0  0  0  0  0  0  0  0
   -2.1817    2.9641   31.1574 C   0  0  0  0  0  0  0  0  0  0  0  0
   -1.0731    2.2583   30.3843 C   0  0  0  0  0  0  0  0  0  0  0  0
    0.0761    3.1883   30.1824 N   0  0  0  0  0  0  0  0  0  0  0  0
    1.1735    3.0459   30.8861 C   0  0  0  0  0  0  0  0  0  0  0  0
    1.6061    1.8504   31.2017 N   0  0  0  0  0  0  0  0  0  0  0  0
    1.8424    4.1012   31.2705 N   0  3  0  0  0  0  0  0  0  0  0  0
   -6.8856    2.1925   31.4940 O   0  0  0  0  0  0  0  0  0  0  0  0
  2  1  1  1  0  0  0
  2  5  1  0  0  0  0
  2  3  1  0  0  0  0
  3  4  1  0  0  0  0
  3 12  2  0  0  0  0
  5  6  1  0  0  0  0
  6  7  1  0  0  0  0
  7  8  1  0  0  0  0
  8  9  1  0  0  0  0
  9 10  1  0  0  0  0
  9 11  2  0  0  0  0
M  CHG  3   1   1   4  -1  11   1
M  END
>  <CHROM.1>
75.33259775,-71.91191716,175.52283867,-178.05850757,148.97611996,105.36179778
-2.56099772,2.81430131,31.04107350,-3.10820337,-0.03661464,-1.41623621

>  <Name>
1koc cryst

>  <RI>
0

>  <Rbt.Current_Directory>
/home/itssahil/PROJECTS/Mol_Feturizer/New_Systems/rnas/1koc

>  <Rbt.Executable>
rbdock ($Id: //depot/dev/client3/rdock/2013.1/src/exe/rbdock.cxx#4 $)

>  <Rbt.Library>
libRbt.so (2013.1, Build901 2013/11/27)

>  <Rbt.Parameter_File>
/export/apps/rDock/src/rDock_2013.1_src/data/scripts/dock_solv.prm

>  <Rbt.Receptor>
prm/blind_docking_100.prm

>  <SCORE>
-23.6055

>  <SCORE.INTER>
-21.8961

>  <SCORE.INTER.CONST>
1

>  <SCORE.INTER.POLAR>
-3.46206

>  <SCORE.INTER.ROT>
5

>  <SCORE.INTER.SOLV>
29.0718

>  <SCORE.INTER.VDW>
-19.6811

>  <SCORE.INTER.norm>
-1.82467

>  <SCORE.INTRA>
-1.70936

>  <SCORE.INTRA.DIHEDRAL>
1.35298

>  <SCORE.INTRA.DIHEDRAL.0>
6.04201

>  <SCORE.INTRA.POLAR>
0

>  <SCORE.INTRA.POLAR.0>
0

>  <SCORE.INTRA.REPUL>
0

>  <SCORE.INTRA.REPUL.0>
0

>  <SCORE.INTRA.SOLV>
-1.05203

>  <SCORE.INTRA.SOLV.lig_0>
-71.0481

>  <SCORE.INTRA.VDW>
-1.85984

>  <SCORE.INTRA.VDW.0>
0.968882

>  <SCORE.INTRA.norm>
-0.142447

>  <SCORE.RESTR>
0

>  <SCORE.RESTR.CAVITY>
0

>  <SCORE.RESTR.norm>
0

>  <SCORE.SYSTEM>
0

>  <SCORE.SYSTEM.CONST>
0

>  <SCORE.SYSTEM.DIHEDRAL>
0

>  <SCORE.SYSTEM.SOLV>
0

>  <SCORE.SYSTEM.norm>
0

>  <SCORE.heavy>
12

>  <SCORE.norm>
-1.96712

>  <SYMMETRIC_BONDS>
11 12 2
5 6 2

>  <RMSD>
8.081

$$$$
1koc cryst
 OpenBabel11021811393D
libRbt.so/2013.1/901 2013/11/27
 12 11  0  0  0  0  0  0  0  0999 V2000
   -5.5539    1.7622   32.0810 N   0  3  0  0  0  0  0  0  0  0  0  0
   -5.1120    3.1474   31.7366 C   0  0  2  0  0  0  0  0  0  0  0  0
   -5.8712    3.6193   30.4810 C   0  0  0  0  0  0  0  0  0  0  0  0
   -6.1979    2.7766   29.6587 O   0  5  0  0  0  0  0  0  0  0  0  0
   -3.5796    3.1454   31.4882 C   0  0  0  0  0  0  0  0  0  0  0  0
   -3.1916    2.0934   30.4425 C   0  0  0  0  0  0  0  0  0  0  0  0
   -1.7847    2.3776   29.9280 C   0  0  0  0  0  0  0  0  0  0  0  0
   -0.8244    2.4122   31.0695 N   0  0  0  0  0  0  0  0  0  0  0  0
    0.4330    2.7247   30.8666 C   0  0  0  0  0  0  0  0  0  0  0  0
    0.7540    3.6289   29.9748 N   0  0  0  0  0  0  0  0  0  0  0  0
    1.3709    2.1352   31.5607 N   0  3  0  0  0  0  0  0  0  0  0  0
   -6.1030    4.8127   30.3565 O   0  0  0  0  0  0  0  0  0  0  0  0
  2  1  1  6  0  0  0
  2  5  1  0  0  0  0
  2  3  1  0  0  0  0
  3  4  1  0  0  0  0
  3 12  2  0  0  0  0
  5  6  1  0  0  0  0
  6  7  1  0  0  0  0
  7  8  1  0  0  0  0
  8  9  1  0  0  0  0
  9 10  1  0  0  0  0
  9 11  2  0  0  0  0
M  CHG  3   1   1   4  -1  11   1
M  END
>  <CHROM.1>
-71.20323668,53.69603876,-30.95860732,163.75403915,56.49777240,-175.73244395
-2.97495028,2.87143679,30.81163164,3.07128221,0.05314414,-0.74101659

>  <Name>
1koc cryst

>  <RI>
0

>  <Rbt.Current_Directory>
/home/itssahil/PROJECTS/Mol_Feturizer/New_Systems/rnas/1koc

>  <Rbt.Executable>
rbdock ($Id: //depot/dev/client3/rdock/2013.1/src/exe/rbdock.cxx#4 $)

>  <Rbt.Library>
libRbt.so (2013.1, Build901 2013/11/27)

>  <Rbt.Parameter_File>
/export/apps/rDock/src/rDock_2013.1_src/data/scripts/dock_solv.prm

>  <Rbt.Receptor>
prm/blind_docking_60.prm

>  <SCORE>
-30.8174

>  <SCORE.INTER>
-29.5159

>  <SCORE.INTER.CONST>
1

>  <SCORE.INTER.POLAR>
-5.7575

>  <SCORE.INTER.ROT>
5

>  <SCORE.INTER.SOLV>
30.8369

>  <SCORE.INTER.VDW>
-17.6979

>  <SCORE.INTER.norm>
-2.45966

>  <SCORE.INTRA>
-1.30151

>  <SCORE.INTRA.DIHEDRAL>
-1.08404

>  <SCORE.INTRA.DIHEDRAL.0>
6.04201

>  <SCORE.INTRA.POLAR>
0

>  <SCORE.INTRA.POLAR.0>
0

>  <SCORE.INTRA.REPUL>
0

>  <SCORE.INTRA.REPUL.0>
0

>  <SCORE.INTRA.SOLV>
0.482976

>  <SCORE.INTRA.SOLV.lig_0>
-71.0481

>  <SCORE.INTRA.VDW>
-1.00098

>  <SCORE.INTRA.VDW.0>
0.968882

>  <SCORE.INTRA.norm>
-0.108459

>  <SCORE.RESTR>
0

>  <SCORE.RESTR.CAVITY>
0

>  <SCORE.RESTR.norm>
0

>  <SCORE.SYSTEM>
0

>  <SCORE.SYSTEM.CONST>
0

>  <SCORE.SYSTEM.DIHEDRAL>
0

>  <SCORE.SYSTEM.SOLV>
0

>  <SCORE.SYSTEM.norm>
0

>  <SCORE.heavy>
12

>  <SCORE.norm>
-2.56811

>  <SYMMETRIC_BONDS>
11 12 2
5 6 2

>  <RMSD>
8.153

$$$$
1koc cryst
 OpenBabel11021811393D
libRbt.so/2013.1/901 2013/11/27
 12 11  0  0  0  0  0  0  0  0999 V2000
   -5.2328    2.2254   31.5218 N   0  3  0  0  0  0  0  0  0  0  0  0
   -3.8392    1.9294   31.0712 C   0  0  2  0  0  0  0  0  0  0  0  0
   -2.8723    2.9254   31.7409 C   0  0  0  0  0  0  0  0  0  0  0  0
   -3.2893    3.5835   32.6823 O   0  5  0  0  0  0  0  0  0  0  0  0
   -3.7692    2.0457   29.5246 C   0  0  0  0  0  0  0  0  0  0  0  0
   -2.4500    1.4780   28.9879 C   0  0  0  0  0  0  0  0  0  0  0  0
   -2.4771    1.4739   27.4633 C   0  0  0  0  0  0  0  0  0  0  0  0
   -2.4431    0.0701   26.9590 N   0  0  0  0  0  0  0  0  0  0  0  0
   -3.3858   -0.3685   26.1599 C   0  0  0  0  0  0  0  0  0  0  0  0
   -3.9124    0.4251   25.2605 N   0  0  0  0  0  0  0  0  0  0  0  0
   -3.7991   -1.6049   26.2571 N   0  3  0  0  0  0  0  0  0  0  0  0
   -1.7381    3.0223   31.2965 O   0  0  0  0  0  0  0  0  0  0  0  0
  2  1  1  1  0  0  0
  2  5  1  0  0  0  0
  2  3  1  0  0  0  0
  3  4  1  0  0  0  0
  3 12  2  0  0  0  0
  5  6  1  0  0  0  0
  6  7  1  0  0  0  0
  7  8  1  0  0  0  0
  8  9  1  0  0  0  0
  9 10  1  0  0  0  0
  9 11  2  0  0  0  0
M  CHG  3   1   1   4  -1  11   1
M  END
>  <CHROM.1>
-66.39448021,-168.39430932,14.05276913,174.09880161,-114.84618718,123.77579985
-3.29810733,1.43211820,29.08820069,1.56558350,0.32396922,1.05734368

>  <Name>
1koc cryst

>  <RI>
0

>  <Rbt.Current_Directory>
/home/itssahil/PROJECTS/Mol_Feturizer/New_Systems/rnas/1koc

>  <Rbt.Executable>
rbdock ($Id: //depot/dev/client3/rdock/2013.1/src/exe/rbdock.cxx#4 $)

>  <Rbt.Library>
libRbt.so (2013.1, Build901 2013/11/27)

>  <Rbt.Parameter_File>
/export/apps/rDock/src/rDock_2013.1_src/data/scripts/dock_solv.prm

>  <Rbt.Receptor>
prm/blind_docking_40.prm

>  <SCORE>
-21.413

>  <SCORE.INTER>
-21.3755

>  <SCORE.INTER.CONST>
1

>  <SCORE.INTER.POLAR>
-2.56566

>  <SCORE.INTER.ROT>
5

>  <SCORE.INTER.SOLV>
29.1449

>  <SCORE.INTER.VDW>
-22.3464

>  <SCORE.INTER.norm>
-1.78129

>  <SCORE.INTRA>
-0.0375542

>  <SCORE.INTRA.DIHEDRAL>
3.5324

>  <SCORE.INTRA.DIHEDRAL.0>
6.04201

>  <SCORE.INTRA.POLAR>
0

>  <SCORE.INTRA.POLAR.0>
0

>  <SCORE.INTRA.REPUL>
0

>  <SCORE.INTRA.REPUL.0>
0

>  <SCORE.INTRA.SOLV>
-0.921972

>  <SCORE.INTRA.SOLV.lig_0>
-71.0481

>  <SCORE.INTRA.VDW>
-1.34277

>  <SCORE.INTRA.VDW.0>
0.968882

>  <SCORE.INTRA.norm>
-0.00312951

>  <SCORE.RESTR>
0

>  <SCORE.RESTR.CAVITY>
0

>  <SCORE.RESTR.norm>
0

>  <SCORE.SYSTEM>
0

>  <SCORE.SYSTEM.CONST>
0

>  <SCORE.SYSTEM.DIHEDRAL>
0

>  <SCORE.SYSTEM.SOLV>
0

>  <SCORE.SYSTEM.norm>
0

>  <SCORE.heavy>
12

>  <SCORE.norm>
-1.78442

>  <SYMMETRIC_BONDS>
11 12 2
5 6 2

>  <RMSD>
8.187

$$$$
1koc cryst
 OpenBabel11021811393D
libRbt.so/2013.1/901 2013/11/27
 12 11  0  0  0  0  0  0  0  0999 V2000
   -0.3605    2.7303   30.7188 N   0  3  0  0  0  0  0  0  0  0  0  0
   -1.6905    2.4599   30.0936 C   0  0  2  0  0  0  0  0  0  0  0  0
   -2.7603    2.3851   31.2007 C   0  0  0  0  0  0  0  0  0  0  0  0
   -2.4917    2.8686   32.2902 O   0  5  0  0  0  0  0  0  0  0  0  0
   -1.6190    1.1260   29.3026 C   0  0  0  0  0  0  0  0  0  0  0  0
   -2.7111    1.0624   28.2283 C   0  0  0  0  0  0  0  0  0  0  0  0
   -2.5353   -0.2017   27.3940 C   0  0  0  0  0  0  0  0  0  0  0  0
   -3.6416   -0.3107   26.3988 N   0  0  0  0  0  0  0  0  0  0  0  0
   -4.0509   -1.4880   25.9911 C   0  0  0  0  0  0  0  0  0  0  0  0
   -4.0855   -2.5001   26.8220 N   0  0  0  0  0  0  0  0  0  0  0  0
   -4.4310   -1.6521   24.7512 N   0  3  0  0  0  0  0  0  0  0  0  0
   -3.8226    1.8376   30.9459 O   0  0  0  0  0  0  0  0  0  0  0  0
  2  1  1  1  0  0  0
  2  5  1  0  0  0  0
  2  3  1  0  0  0  0
  3  4  1  0  0  0  0
  3 12  2  0  0  0  0
  5  6  1  0  0  0  0
  6  7  1  0  0  0  0
  7  8  1  0  0  0  0
  8  9  1  0  0  0  0
  9 10  1  0  0  0  0
  9 11  2  0  0  0  0
M  CHG  3   1   1   4  -1  11   1
M  END
>  <CHROM.1>
73.22341746,-157.89819429,18.24224911,175.08905610,176.68944440,-150.51907672
-2.84379319,0.69264185,28.69292377,-1.24589317,-0.40818774,-2.09527228

>  <Name>
1koc cryst

>  <RI>
0

>  <Rbt.Current_Directory>
/home/itssahil/PROJECTS/Mol_Feturizer/New_Systems/rnas/1koc

>  <Rbt.Executable>
rbdock ($Id: //depot/dev/client3/rdock/2013.1/src/exe/rbdock.cxx#4 $)

>  <Rbt.Library>
libRbt.so (2013.1, Build901 2013/11/27)

>  <Rbt.Parameter_File>
/export/apps/rDock/src/rDock_2013.1_src/data/scripts/dock_solv.prm

>  <Rbt.Receptor>
prm/blind_docking_100.prm

>  <SCORE>
-20.6528

>  <SCORE.INTER>
-18.5951

>  <SCORE.INTER.CONST>
1

>  <SCORE.INTER.POLAR>
-2.61104

>  <SCORE.INTER.ROT>
5

>  <SCORE.INTER.SOLV>
32.7162

>  <SCORE.INTER.VDW>
-21.532

>  <SCORE.INTER.norm>
-1.54959

>  <SCORE.INTRA>
-2.13032

>  <SCORE.INTRA.DIHEDRAL>
-0.507597

>  <SCORE.INTRA.DIHEDRAL.0>
6.04201

>  <SCORE.INTRA.POLAR>
0

>  <SCORE.INTRA.POLAR.0>
0

>  <SCORE.INTRA.REPUL>
0

>  <SCORE.INTRA.REPUL.0>
0

>  <SCORE.INTRA.SOLV>
-1.05481

>  <SCORE.INTRA.SOLV.lig_0>
-71.0481

>  <SCORE.INTRA.VDW>
-1.34911

>  <SCORE.INTRA.VDW.0>
0.968882

>  <SCORE.INTRA.norm>
-0.177527

>  <SCORE.RESTR>
0.0725332

>  <SCORE.RESTR.CAVITY>
0.0725332

>  <SCORE.RESTR.norm>
0.00604443

>  <SCORE.SYSTEM>
0

>  <SCORE.SYSTEM.CONST>
0

>  <SCORE.SYSTEM.DIHEDRAL>
0

>  <SCORE.SYSTEM.SOLV>
0

>  <SCORE.SYSTEM.norm>
0

>  <SCORE.heavy>
12

>  <SCORE.norm>
-1.72107

>  <SYMMETRIC_BONDS>
11 12 2
5 6 2

>  <RMSD>
8.189

$$$$
1koc cryst
 OpenBabel11021811393D
libRbt.so/2013.1/901 2013/11/27
 12 11  0  0  0  0  0  0  0  0999 V2000
   -5.1104    3.3000   29.9784 N   0  3  0  0  0  0  0  0  0  0  0  0
   -4.1453    2.2389   30.3972 C   0  0  2  0  0  0  0  0  0  0  0  0
   -3.6411    2.5512   31.8198 C   0  0  0  0  0  0  0  0  0  0  0  0
   -2.4361    2.6624   31.9889 O   0  5  0  0  0  0  0  0  0  0  0  0
   -2.9655    2.1979   29.3889 C   0  0  0  0  0  0  0  0  0  0  0  0
   -3.4739    2.2392   27.9430 C   0  0  0  0  0  0  0  0  0  0  0  0
   -2.5173    1.4661   27.0418 C   0  0  0  0  0  0  0  0  0  0  0  0
   -2.3484    0.0755   27.5555 N   0  0  0  0  0  0  0  0  0  0  0  0
   -3.1209   -0.8896   27.1177 C   0  0  0  0  0  0  0  0  0  0  0  0
   -3.5073   -0.9110   25.8662 N   0  0  0  0  0  0  0  0  0  0  0  0
   -3.5035   -1.8379   27.9319 N   0  3  0  0  0  0  0  0  0  0  0  0
   -4.4640    2.6627   32.7163 O   0  0  0  0  0  0  0  0  0  0  0  0
  2  1  1  6  0  0  0
  2  5  1  0  0  0  0
  2  3  1  0  0  0  0
  3  4  1  0  0  0  0
  3 12  2  0  0  0  0
  5  6  1  0  0  0  0
  6  7  1  0  0  0  0
  7  8  1  0  0  0  0
  8  9  1  0  0  0  0
  9 10  1  0  0  0  0
  9 11  2  0  0  0  0
M  CHG  3   1   1   4  -1  11   1
M  END
>  <CHROM.1>
68.69195349,-45.72471437,-123.29155829,-148.98428772,55.52351934,92.07563548
-3.46097356,1.31367976,29.15745530,2.49109896,-1.40823040,1.86114737

>  <Name>
1koc cryst

>  <RI>
0

>  <Rbt.Current_Directory>
/home/itssahil/PROJECTS/Mol_Feturizer/New_Systems/rnas/1koc

>  <Rbt.Executable>
rbdock ($Id: //depot/dev/client3/rdock/2013.1/src/exe/rbdock.cxx#4 $)

>  <Rbt.Library>
libRbt.so (2013.1, Build901 2013/11/27)

>  <Rbt.Parameter_File>
/export/apps/rDock/src/rDock_2013.1_src/data/scripts/dock_solv.prm

>  <Rbt.Receptor>
prm/blind_docking_60.prm

>  <SCORE>
-14.0106

>  <SCORE.INTER>
-14.4437

>  <SCORE.INTER.CONST>
1

>  <SCORE.INTER.POLAR>
-1.67978

>  <SCORE.INTER.ROT>
5

>  <SCORE.INTER.SOLV>
29.7848

>  <SCORE.INTER.VDW>
-20.8914

>  <SCORE.INTER.norm>
-1.20364

>  <SCORE.INTRA>
0.433025

>  <SCORE.INTRA.DIHEDRAL>
1.55759

>  <SCORE.INTRA.DIHEDRAL.0>
6.04201

>  <SCORE.INTRA.POLAR>
0

>  <SCORE.INTRA.POLAR.0>
0

>  <SCORE.INTRA.REPUL>
0

>  <SCORE.INTRA.REPUL.0>
0

>  <SCORE.INTRA.SOLV>
-0.117093

>  <SCORE.INTRA.SOLV.lig_0>
-71.0481

>  <SCORE.INTRA.VDW>
-0.287225

>  <SCORE.INTRA.VDW.0>
0.968882

>  <SCORE.INTRA.norm>
0.0360854

>  <SCORE.RESTR>
0

>  <SCORE.RESTR.CAVITY>
0

>  <SCORE.RESTR.norm>
0

>  <SCORE.SYSTEM>
0

>  <SCORE.SYSTEM.CONST>
0

>  <SCORE.SYSTEM.DIHEDRAL>
0

>  <SCORE.SYSTEM.SOLV>
0

>  <SCORE.SYSTEM.norm>
0

>  <SCORE.heavy>
12

>  <SCORE.norm>
-1.16755

>  <SYMMETRIC_BONDS>
11 12 2
5 6 2

>  <RMSD>
8.271

$$$$
1koc cryst
 OpenBabel11021811393D
libRbt.so/2013.1/901 2013/11/27
 12 11  0  0  0  0  0  0  0  0999 V2000
   -0.5198    2.5741   30.4649 N   0  3  0  0  0  0  0  0  0  0  0  0
   -1.7866    1.7935   30.3284 C   0  0  2  0  0  0  0  0  0  0  0  0
   -1.9247    1.3103   28.8714 C   0  0  0  0  0  0  0  0  0  0  0  0
   -2.3295    0.1733   28.6809 O   0  5  0  0  0  0  0  0  0  0  0  0
   -2.9854    2.6955   30.7279 C   0  0  0  0  0  0  0  0  0  0  0  0
   -3.0153    2.9345   32.2421 C   0  0  0  0  0  0  0  0  0  0  0  0
   -4.3971    3.4294   32.6550 C   0  0  0  0  0  0  0  0  0  0  0  0
   -5.4443    2.5020   32.1357 N   0  0  0  0  0  0  0  0  0  0  0  0
   -6.3279    2.9242   31.2635 C   0  0  0  0  0  0  0  0  0  0  0  0
   -5.9844    3.7858   30.3385 N   0  0  0  0  0  0  0  0  0  0  0  0
   -7.5563    2.4799   31.3134 N   0  3  0  0  0  0  0  0  0  0  0  0
   -1.6138    2.0780   27.9728 O   0  0  0  0  0  0  0  0  0  0  0  0
  2  1  1  6  0  0  0
  2  5  1  0  0  0  0
  2  3  1  0  0  0  0
  3  4  1  0  0  0  0
  3 12  2  0  0  0  0
  5  6  1  0  0  0  0
  6  7  1  0  0  0  0
  7  8  1  0  0  0  0
  8  9  1  0  0  0  0
  9 10  1  0  0  0  0
  9 11  2  0  0  0  0
M  CHG  3   1   1   4  -1  11   1
M  END
>  <CHROM.1>
61.92951528,-71.96228181,138.81243079,-162.29439678,52.34975345,-116.59308398
-3.64547849,2.39151451,30.55609915,-0.50261313,-0.02749050,1.10817751

>  <Name>
1koc cryst

>  <RI>
0

>  <Rbt.Current_Directory>
/home/itssahil/PROJECTS/Mol_Feturizer/New_Systems/rnas/1koc

>  <Rbt.Executable>
rbdock ($Id: //depot/dev/client3/rdock/2013.1/src/exe/rbdock.cxx#4 $)

>  <Rbt.Library>
libRbt.so (2013.1, Build901 2013/11/27)

>  <Rbt.Parameter_File>
/export/apps/rDock/src/rDock_2013.1_src/data/scripts/dock_solv.prm

>  <Rbt.Receptor>
prm/blind_docking_60.prm

>  <SCORE>
-28.7385

>  <SCORE.INTER>
-26.8875

>  <SCORE.INTER.CONST>
1

>  <SCORE.INTER.POLAR>
-4.12878

>  <SCORE.INTER.ROT>
5

>  <SCORE.INTER.SOLV>
26.6226

>  <SCORE.INTER.VDW>
-19.9699

>  <SCORE.INTER.norm>
-2.24062

>  <SCORE.INTRA>
-2.10746

>  <SCORE.INTRA.DIHEDRAL>
-0.652925

>  <SCORE.INTRA.DIHEDRAL.0>
6.04201

>  <SCORE.INTRA.POLAR>
0

>  <SCORE.INTRA.POLAR.0>
0

>  <SCORE.INTRA.REPUL>
0

>  <SCORE.INTRA.REPUL.0>
0

>  <SCORE.INTRA.SOLV>
-0.0696007

>  <SCORE.INTRA.SOLV.lig_0>
-71.0481

>  <SCORE.INTRA.VDW>
-1.7462

>  <SCORE.INTRA.VDW.0>
0.968882

>  <SCORE.INTRA.norm>
-0.175622

>  <SCORE.RESTR>
0.256439

>  <SCORE.RESTR.CAVITY>
0.256439

>  <SCORE.RESTR.norm>
0.0213699

>  <SCORE.SYSTEM>
0

>  <SCORE.SYSTEM.CONST>
0

>  <SCORE.SYSTEM.DIHEDRAL>
0

>  <SCORE.SYSTEM.SOLV>
0

>  <SCORE.SYSTEM.norm>
0

>  <SCORE.heavy>
12

>  <SCORE.norm>
-2.39488

>  <SYMMETRIC_BONDS>
11 12 2
5 6 2

>  <RMSD>
8.299

$$$$
1koc cryst
 OpenBabel11021811393D
libRbt.so/2013.1/901 2013/11/27
 12 11  0  0  0  0  0  0  0  0999 V2000
   -6.1062    2.4033   32.0404 N   0  3  0  0  0  0  0  0  0  0  0  0
   -4.6154    2.3284   31.9710 C   0  0  2  0  0  0  0  0  0  0  0  0
   -4.0265    3.7120   32.3089 C   0  0  0  0  0  0  0  0  0  0  0  0
   -4.7870    4.5711   32.7292 O   0  5  0  0  0  0  0  0  0  0  0  0
   -4.1945    1.8813   30.5452 C   0  0  0  0  0  0  0  0  0  0  0  0
   -2.6688    1.8849   30.3938 C   0  0  0  0  0  0  0  0  0  0  0  0
   -2.2553    0.8514   29.3518 C   0  0  0  0  0  0  0  0  0  0  0  0
   -2.8962    1.1671   28.0419 N   0  0  0  0  0  0  0  0  0  0  0  0
   -3.1090    0.2167   27.1637 C   0  0  0  0  0  0  0  0  0  0  0  0
   -3.4503   -0.9846   27.5591 N   0  0  0  0  0  0  0  0  0  0  0  0
   -2.9849    0.4697   25.8872 N   0  3  0  0  0  0  0  0  0  0  0  0
   -2.8311    3.8936   32.1318 O   0  0  0  0  0  0  0  0  0  0  0  0
  2  1  1  6  0  0  0
  2  5  1  0  0  0  0
  2  3  1  0  0  0  0
  3  4  1  0  0  0  0
  3 12  2  0  0  0  0
  5  6  1  0  0  0  0
  6  7  1  0  0  0  0
  7  8  1  0  0  0  0
  8  9  1  0  0  0  0
  9 10  1  0  0  0  0
  9 11  2  0  0  0  0
M  CHG  3   1   1   4  -1  11   1
M  END
>  <CHROM.1>
-44.57526588,175.98925404,8.91459523,151.94272242,59.13632046,-154.57297435
-3.69624752,1.87288211,30.00385150,1.82531097,0.39116317,0.89095573

>  <Name>
1koc cryst

>  <RI>
0

>  <Rbt.Current_Directory>
/home/itssahil/PROJECTS/Mol_Feturizer/New_Systems/rnas/1koc

>  <Rbt.Executable>
rbdock ($Id: //depot/dev/client3/rdock/2013.1/src/exe/rbdock.cxx#4 $)

>  <Rbt.Library>
libRbt.so (2013.1, Build901 2013/11/27)

>  <Rbt.Parameter_File>
/export/apps/rDock/src/rDock_2013.1_src/data/scripts/dock_solv.prm

>  <Rbt.Receptor>
prm/blind_docking_60.prm

>  <SCORE>
-18.0071

>  <SCORE.INTER>
-18.6098

>  <SCORE.INTER.CONST>
1

>  <SCORE.INTER.POLAR>
-1.97289

>  <SCORE.INTER.ROT>
5

>  <SCORE.INTER.SOLV>
29.329

>  <SCORE.INTER.VDW>
-22.5399

>  <SCORE.INTER.norm>
-1.55082

>  <SCORE.INTRA>
0.60279

>  <SCORE.INTRA.DIHEDRAL>
0.761231

>  <SCORE.INTRA.DIHEDRAL.0>
6.04201

>  <SCORE.INTRA.POLAR>
0

>  <SCORE.INTRA.POLAR.0>
0

>  <SCORE.INTRA.REPUL>
0

>  <SCORE.INTRA.REPUL.0>
0

>  <SCORE.INTRA.SOLV>
-0.217615

>  <SCORE.INTRA.SOLV.lig_0>
-71.0481

>  <SCORE.INTRA.VDW>
0.330982

>  <SCORE.INTRA.VDW.0>
0.968882

>  <SCORE.INTRA.norm>
0.0502325

>  <SCORE.RESTR>
0

>  <SCORE.RESTR.CAVITY>
0

>  <SCORE.RESTR.norm>
0

>  <SCORE.SYSTEM>
0

>  <SCORE.SYSTEM.CONST>
0

>  <SCORE.SYSTEM.DIHEDRAL>
0

>  <SCORE.SYSTEM.SOLV>
0

>  <SCORE.SYSTEM.norm>
0

>  <SCORE.heavy>
12

>  <SCORE.norm>
-1.50059

>  <SYMMETRIC_BONDS>
11 12 2
5 6 2

>  <RMSD>
8.329

$$$$
1koc cryst
 OpenBabel11021811393D
libRbt.so/2013.1/901 2013/11/27
 12 11  0  0  0  0  0  0  0  0999 V2000
   -3.0584    0.4624   26.1424 N   0  3  0  0  0  0  0  0  0  0  0  0
   -2.5837   -0.0628   27.4583 C   0  0  2  0  0  0  0  0  0  0  0  0
   -3.4530   -1.2702   27.8606 C   0  0  0  0  0  0  0  0  0  0  0  0
   -3.3761   -1.6732   29.0116 O   0  5  0  0  0  0  0  0  0  0  0  0
   -2.6788    1.0656   28.5204 C   0  0  0  0  0  0  0  0  0  0  0  0
   -1.4546    1.0588   29.4435 C   0  0  0  0  0  0  0  0  0  0  0  0
   -1.3264    2.4124   30.1336 C   0  0  0  0  0  0  0  0  0  0  0  0
   -0.1734    2.3921   31.0805 N   0  0  0  0  0  0  0  0  0  0  0  0
    0.9811    2.9043   30.7278 C   0  0  0  0  0  0  0  0  0  0  0  0
    1.0268    3.9779   29.9786 N   0  0  0  0  0  0  0  0  0  0  0  0
    2.0920    2.3445   31.1293 N   0  3  0  0  0  0  0  0  0  0  0  0
   -4.1707   -1.7779   27.0118 O   0  0  0  0  0  0  0  0  0  0  0  0
  2  1  1  6  0  0  0
  2  5  1  0  0  0  0
  2  3  1  0  0  0  0
  3  4  1  0  0  0  0
  3 12  2  0  0  0  0
  5  6  1  0  0  0  0
  6  7  1  0  0  0  0
  7  8  1  0  0  0  0
  8  9  1  0  0  0  0
  9 10  1  0  0  0  0
  9 11  2  0  0  0  0
M  CHG  3   1   1   4  -1  11   1
M  END
>  <CHROM.1>
-175.17993949,-139.22338284,-166.68746735,160.58486771,177.43059929,99.03704550
-1.51191653,0.98555551,29.01637938,3.14042750,0.84854137,2.27349599

>  <Name>
1koc cryst

>  <RI>
0

>  <Rbt.Current_Directory>
/home/itssahil/PROJECTS/Mol_Feturizer/New_Systems/rnas/1koc

>  <Rbt.Executable>
rbdock ($Id: //depot/dev/client3/rdock/2013.1/src/exe/rbdock.cxx#4 $)

>  <Rbt.Library>
libRbt.so (2013.1, Build901 2013/11/27)

>  <Rbt.Parameter_File>
/export/apps/rDock/src/rDock_2013.1_src/data/scripts/dock_solv.prm

>  <Rbt.Receptor>
prm/blind_docking_60.prm

>  <SCORE>
-27.2083

>  <SCORE.INTER>
-26.0711

>  <SCORE.INTER.CONST>
1

>  <SCORE.INTER.POLAR>
-4.8447

>  <SCORE.INTER.ROT>
5

>  <SCORE.INTER.SOLV>
33.9227

>  <SCORE.INTER.VDW>
-19.4726

>  <SCORE.INTER.norm>
-2.17259

>  <SCORE.INTRA>
-1.13718

>  <SCORE.INTRA.DIHEDRAL>
2.8585

>  <SCORE.INTRA.DIHEDRAL.0>
6.04201

>  <SCORE.INTRA.POLAR>
0

>  <SCORE.INTRA.POLAR.0>
0

>  <SCORE.INTRA.REPUL>
0

>  <SCORE.INTRA.REPUL.0>
0

>  <SCORE.INTRA.SOLV>
-1.36934

>  <SCORE.INTRA.SOLV.lig_0>
-71.0481

>  <SCORE.INTRA.VDW>
-1.88176

>  <SCORE.INTRA.VDW.0>
0.968882

>  <SCORE.INTRA.norm>
-0.094765

>  <SCORE.RESTR>
0

>  <SCORE.RESTR.CAVITY>
0

>  <SCORE.RESTR.norm>
0

>  <SCORE.SYSTEM>
0

>  <SCORE.SYSTEM.CONST>
0

>  <SCORE.SYSTEM.DIHEDRAL>
0

>  <SCORE.SYSTEM.SOLV>
0

>  <SCORE.SYSTEM.norm>
0

>  <SCORE.heavy>
12

>  <SCORE.norm>
-2.26736

>  <SYMMETRIC_BONDS>
11 12 2
5 6 2

>  <RMSD>
8.347

$$$$
1koc cryst
 OpenBabel11021811393D
libRbt.so/2013.1/901 2013/11/27
 12 11  0  0  0  0  0  0  0  0999 V2000
   -5.1141    1.6268   31.8018 N   0  3  0  0  0  0  0  0  0  0  0  0
   -3.7380    2.1121   31.4799 C   0  0  2  0  0  0  0  0  0  0  0  0
   -3.3755    3.2653   32.4360 C   0  0  0  0  0  0  0  0  0  0  0  0
   -2.4210    3.1114   33.1831 O   0  5  0  0  0  0  0  0  0  0  0  0
   -3.6984    2.5856   30.0020 C   0  0  0  0  0  0  0  0  0  0  0  0
   -2.9491    1.5797   29.1203 C   0  0  0  0  0  0  0  0  0  0  0  0
   -2.9486    2.0665   27.6753 C   0  0  0  0  0  0  0  0  0  0  0  0
   -2.5402    0.9562   26.7660 N   0  0  0  0  0  0  0  0  0  0  0  0
   -3.4135    0.4122   25.9529 C   0  0  0  0  0  0  0  0  0  0  0  0
   -4.3366    1.1484   25.3855 N   0  0  0  0  0  0  0  0  0  0  0  0
   -3.3603   -0.8698   25.7028 N   0  3  0  0  0  0  0  0  0  0  0  0
   -4.0623    4.2758   32.4140 O   0  0  0  0  0  0  0  0  0  0  0  0
  2  1  1  1  0  0  0
  2  5  1  0  0  0  0
  2  3  1  0  0  0  0
  3  4  1  0  0  0  0
  3 12  2  0  0  0  0
  5  6  1  0  0  0  0
  6  7  1  0  0  0  0
  7  8  1  0  0  0  0
  8  9  1  0  0  0  0
  9 10  1  0  0  0  0
  9 11  2  0  0  0  0
M  CHG  3   1   1   4  -1  11   1
M  END
>  <CHROM.1>
-73.27247307,-106.00238198,118.15183716,179.15132047,-165.66644348,110.43054021
-3.52590282,1.84187492,29.33497373,1.60298240,0.50505898,1.16165512

>  <Name>
1koc cryst

>  <RI>
0

>  <Rbt.Current_Directory>
/home/itssahil/PROJECTS/Mol_Feturizer/New_Systems/rnas/1koc

>  <Rbt.Executable>
rbdock ($Id: //depot/dev/client3/rdock/2013.1/src/exe/rbdock.cxx#4 $)

>  <Rbt.Library>
libRbt.so (2013.1, Build901 2013/11/27)

>  <Rbt.Parameter_File>
/export/apps/rDock/src/rDock_2013.1_src/data/scripts/dock_solv.prm

>  <Rbt.Receptor>
prm/blind_docking_60.prm

>  <SCORE>
-22.998

>  <SCORE.INTER>
-21.4717

>  <SCORE.INTER.CONST>
1

>  <SCORE.INTER.POLAR>
-3.90801

>  <SCORE.INTER.ROT>
5

>  <SCORE.INTER.SOLV>
34.3823

>  <SCORE.INTER.VDW>
-19.6819

>  <SCORE.INTER.norm>
-1.78931

>  <SCORE.INTRA>
-1.52628

>  <SCORE.INTRA.DIHEDRAL>
3.02882

>  <SCORE.INTRA.DIHEDRAL.0>
6.04201

>  <SCORE.INTRA.POLAR>
0

>  <SCORE.INTRA.POLAR.0>
0

>  <SCORE.INTRA.REPUL>
0

>  <SCORE.INTRA.REPUL.0>
0

>  <SCORE.INTRA.SOLV>
-1.74543

>  <SCORE.INTRA.SOLV.lig_0>
-71.0481

>  <SCORE.INTRA.VDW>
-2.16797

>  <SCORE.INTRA.VDW.0>
0.968882

>  <SCORE.INTRA.norm>
-0.12719

>  <SCORE.RESTR>
0

>  <SCORE.RESTR.CAVITY>
0

>  <SCORE.RESTR.norm>
0

>  <SCORE.SYSTEM>
0

>  <SCORE.SYSTEM.CONST>
0

>  <SCORE.SYSTEM.DIHEDRAL>
0

>  <SCORE.SYSTEM.SOLV>
0

>  <SCORE.SYSTEM.norm>
0

>  <SCORE.heavy>
12

>  <SCORE.norm>
-1.9165

>  <SYMMETRIC_BONDS>
11 12 2
5 6 2

>  <RMSD>
8.351

$$$$
1koc cryst
 OpenBabel11021811393D
libRbt.so/2013.1/901 2013/11/27
 12 11  0  0  0  0  0  0  0  0999 V2000
   -2.9014    0.3610   26.5985 N   0  3  0  0  0  0  0  0  0  0  0  0
   -2.6456   -0.2675   27.9298 C   0  0  2  0  0  0  0  0  0  0  0  0
   -3.5875   -1.4748   28.1048 C   0  0  0  0  0  0  0  0  0  0  0  0
   -3.6555   -1.9928   29.2094 O   0  5  0  0  0  0  0  0  0  0  0  0
   -2.8847    0.7867   29.0442 C   0  0  0  0  0  0  0  0  0  0  0  0
   -1.6457    1.6669   29.2459 C   0  0  0  0  0  0  0  0  0  0  0  0
   -1.8819    2.6244   30.4088 C   0  0  0  0  0  0  0  0  0  0  0  0
   -0.7548    2.5286   31.3819 N   0  0  0  0  0  0  0  0  0  0  0  0
    0.4819    2.6985   30.9802 C   0  0  0  0  0  0  0  0  0  0  0  0
    0.7596    3.5757   30.0478 N   0  0  0  0  0  0  0  0  0  0  0  0
    1.4435    1.9933   31.5158 N   0  3  0  0  0  0  0  0  0  0  0  0
   -4.2148   -1.8680   27.1326 O   0  0  0  0  0  0  0  0  0  0  0  0
  2  1  1  6  0  0  0
  2  5  1  0  0  0  0
  2  3  1  0  0  0  0
  3  4  1  0  0  0  0
  3 12  2  0  0  0  0
  5  6  1  0  0  0  0
  6  7  1  0  0  0  0
  7  8  1  0  0  0  0
  8  9  1  0  0  0  0
  9 10  1  0  0  0  0
  9 11  2  0  0  0  0
M  CHG  3   1   1   4  -1  11   1
M  END
>  <CHROM.1>
110.88693984,-83.24092497,-169.59728206,-176.15388510,127.98413906,54.65572414
-1.78329139,0.88114583,29.27455826,-3.09857414,0.90117959,2.19350009

>  <Name>
1koc cryst

>  <RI>
0

>  <Rbt.Current_Directory>
/home/itssahil/PROJECTS/Mol_Feturizer/New_Systems/rnas/1koc

>  <Rbt.Executable>
rbdock ($Id: //depot/dev/client3/rdock/2013.1/src/exe/rbdock.cxx#4 $)

>  <Rbt.Library>
libRbt.so (2013.1, Build901 2013/11/27)

>  <Rbt.Parameter_File>
/export/apps/rDock/src/rDock_2013.1_src/data/scripts/dock_solv.prm

>  <Rbt.Receptor>
prm/blind_docking_40.prm

>  <SCORE>
-24.1898

>  <SCORE.INTER>
-27.0521

>  <SCORE.INTER.CONST>
1

>  <SCORE.INTER.POLAR>
-5.3254

>  <SCORE.INTER.ROT>
5

>  <SCORE.INTER.SOLV>
34.7208

>  <SCORE.INTER.VDW>
-18.7903

>  <SCORE.INTER.norm>
-2.25435

>  <SCORE.INTRA>
2.86238

>  <SCORE.INTRA.DIHEDRAL>
7.81281

>  <SCORE.INTRA.DIHEDRAL.0>
6.04201

>  <SCORE.INTRA.POLAR>
0

>  <SCORE.INTRA.POLAR.0>
0

>  <SCORE.INTRA.REPUL>
0

>  <SCORE.INTRA.REPUL.0>
0

>  <SCORE.INTRA.SOLV>
-0.778985

>  <SCORE.INTRA.SOLV.lig_0>
-71.0481

>  <SCORE.INTRA.VDW>
-0.65453

>  <SCORE.INTRA.VDW.0>
0.968882

>  <SCORE.INTRA.norm>
0.238532

>  <SCORE.RESTR>
0

>  <SCORE.RESTR.CAVITY>
0

>  <SCORE.RESTR.norm>
0

>  <SCORE.SYSTEM>
0

>  <SCORE.SYSTEM.CONST>
0

>  <SCORE.SYSTEM.DIHEDRAL>
0

>  <SCORE.SYSTEM.SOLV>
0

>  <SCORE.SYSTEM.norm>
0

>  <SCORE.heavy>
12

>  <SCORE.norm>
-2.01581

>  <SYMMETRIC_BONDS>
11 12 2
5 6 2

>  <RMSD>
8.435

$$$$
1koc cryst
 OpenBabel11021811393D
libRbt.so/2013.1/901 2013/11/27
 12 11  0  0  0  0  0  0  0  0999 V2000
   -2.7636    0.5240   26.1277 N   0  3  0  0  0  0  0  0  0  0  0  0
   -3.0644    1.2564   27.3950 C   0  0  2  0  0  0  0  0  0  0  0  0
   -3.1355    2.7670   27.0976 C   0  0  0  0  0  0  0  0  0  0  0  0
   -4.2401    3.2813   27.0057 O   0  5  0  0  0  0  0  0  0  0  0  0
   -1.9542    0.9493   28.4357 C   0  0  0  0  0  0  0  0  0  0  0  0
   -2.0982    1.8403   29.6751 C   0  0  0  0  0  0  0  0  0  0  0  0
   -3.4598    1.6046   30.3195 C   0  0  0  0  0  0  0  0  0  0  0  0
   -3.5002    2.2422   31.6679 N   0  0  0  0  0  0  0  0  0  0  0  0
   -4.6172    2.7571   32.1227 C   0  0  0  0  0  0  0  0  0  0  0  0
   -5.7655    2.1864   31.8551 N   0  0  0  0  0  0  0  0  0  0  0  0
   -4.5852    3.8422   32.8510 N   0  3  0  0  0  0  0  0  0  0  0  0
   -2.0886    3.3811   26.9556 O   0  0  0  0  0  0  0  0  0  0  0  0
  2  1  1  6  0  0  0
  2  5  1  0  0  0  0
  2  3  1  0  0  0  0
  3  4  1  0  0  0  0
  3 12  2  0  0  0  0
  5  6  1  0  0  0  0
  6  7  1  0  0  0  0
  7  8  1  0  0  0  0
  8  9  1  0  0  0  0
  9 10  1  0  0  0  0
  9 11  2  0  0  0  0
M  CHG  3   1   1   4  -1  11   1
M  END
>  <CHROM.1>
-25.59823396,171.31173910,101.86775298,59.54149849,168.23454705,146.22853786
-3.45270740,2.22622768,29.27309036,-0.99171404,-0.92749580,1.87143504

>  <Name>
1koc cryst

>  <RI>
0

>  <Rbt.Current_Directory>
/home/itssahil/PROJECTS/Mol_Feturizer/New_Systems/rnas/1koc

>  <Rbt.Executable>
rbdock ($Id: //depot/dev/client3/rdock/2013.1/src/exe/rbdock.cxx#4 $)

>  <Rbt.Library>
libRbt.so (2013.1, Build901 2013/11/27)

>  <Rbt.Parameter_File>
/export/apps/rDock/src/rDock_2013.1_src/data/scripts/dock_solv.prm

>  <Rbt.Receptor>
prm/blind_docking_60.prm

>  <SCORE>
-36.1975

>  <SCORE.INTER>
-36.0559

>  <SCORE.INTER.CONST>
1

>  <SCORE.INTER.POLAR>
-5.68781

>  <SCORE.INTER.ROT>
5

>  <SCORE.INTER.SOLV>
30.8909

>  <SCORE.INTER.VDW>
-22.3082

>  <SCORE.INTER.norm>
-3.00466

>  <SCORE.INTRA>
-0.355099

>  <SCORE.INTRA.DIHEDRAL>
0.379286

>  <SCORE.INTRA.DIHEDRAL.0>
6.04201

>  <SCORE.INTRA.POLAR>
0

>  <SCORE.INTRA.POLAR.0>
0

>  <SCORE.INTRA.REPUL>
0

>  <SCORE.INTRA.REPUL.0>
0

>  <SCORE.INTRA.SOLV>
-0.707022

>  <SCORE.INTRA.SOLV.lig_0>
-71.0481

>  <SCORE.INTRA.VDW>
-0.191231

>  <SCORE.INTRA.VDW.0>
0.968882

>  <SCORE.INTRA.norm>
-0.0295916

>  <SCORE.RESTR>
0.213549

>  <SCORE.RESTR.CAVITY>
0.213549

>  <SCORE.RESTR.norm>
0.0177957

>  <SCORE.SYSTEM>
0

>  <SCORE.SYSTEM.CONST>
0

>  <SCORE.SYSTEM.DIHEDRAL>
0

>  <SCORE.SYSTEM.SOLV>
0

>  <SCORE.SYSTEM.norm>
0

>  <SCORE.heavy>
12

>  <SCORE.norm>
-3.01646

>  <SYMMETRIC_BONDS>
11 12 2
5 6 2

>  <RMSD>
8.466

$$$$
1koc cryst
 OpenBabel11021811393D
libRbt.so/2013.1/901 2013/11/27
 12 11  0  0  0  0  0  0  0  0999 V2000
   -5.4462    2.3446   30.9004 N   0  3  0  0  0  0  0  0  0  0  0  0
   -4.0269    2.1018   31.2998 C   0  0  2  0  0  0  0  0  0  0  0  0
   -3.6219    3.1354   32.3691 C   0  0  0  0  0  0  0  0  0  0  0  0
   -2.5284    3.0118   32.8999 O   0  5  0  0  0  0  0  0  0  0  0  0
   -3.1188    2.2183   30.0460 C   0  0  0  0  0  0  0  0  0  0  0  0
   -3.2806    0.9977   29.1324 C   0  0  0  0  0  0  0  0  0  0  0  0
   -2.6141    1.2722   27.7887 C   0  0  0  0  0  0  0  0  0  0  0  0
   -2.5226    0.0088   27.0002 N   0  0  0  0  0  0  0  0  0  0  0  0
   -3.4020   -0.2508   26.0628 C   0  0  0  0  0  0  0  0  0  0  0  0
   -3.8804    0.7156   25.3191 N   0  0  0  0  0  0  0  0  0  0  0  0
   -3.8000   -1.4803   25.8654 N   0  3  0  0  0  0  0  0  0  0  0  0
   -4.4133    4.0240   32.6472 O   0  0  0  0  0  0  0  0  0  0  0  0
  2  1  1  6  0  0  0
  2  5  1  0  0  0  0
  2  3  1  0  0  0  0
  3  4  1  0  0  0  0
  3 12  2  0  0  0  0
  5  6  1  0  0  0  0
  6  7  1  0  0  0  0
  7  8  1  0  0  0  0
  8  9  1  0  0  0  0
  9 10  1  0  0  0  0
  9 11  2  0  0  0  0
M  CHG  3   1   1   4  -1  11   1
M  END
>  <CHROM.1>
-60.32228707,-73.65804671,173.56860666,168.12278492,168.59837739,99.18841772
-3.58933425,1.51052706,29.27243928,1.63210368,-0.17442141,1.08037101

>  <Name>
1koc cryst

>  <RI>
0

>  <Rbt.Current_Directory>
/home/itssahil/PROJECTS/Mol_Feturizer/New_Systems/rnas/1koc

>  <Rbt.Executable>
rbdock ($Id: //depot/dev/client3/rdock/2013.1/src/exe/rbdock.cxx#4 $)

>  <Rbt.Library>
libRbt.so (2013.1, Build901 2013/11/27)

>  <Rbt.Parameter_File>
/export/apps/rDock/src/rDock_2013.1_src/data/scripts/dock_solv.prm

>  <Rbt.Receptor>
prm/blind_docking_60.prm

>  <SCORE>
-21.9418

>  <SCORE.INTER>
-19.0215

>  <SCORE.INTER.CONST>
1

>  <SCORE.INTER.POLAR>
-2.26461

>  <SCORE.INTER.ROT>
5

>  <SCORE.INTER.SOLV>
29.7177

>  <SCORE.INTER.VDW>
-21.9715

>  <SCORE.INTER.norm>
-1.58513

>  <SCORE.INTRA>
-2.92032

>  <SCORE.INTRA.DIHEDRAL>
-0.925165

>  <SCORE.INTRA.DIHEDRAL.0>
6.04201

>  <SCORE.INTRA.POLAR>
0

>  <SCORE.INTRA.POLAR.0>
0

>  <SCORE.INTRA.REPUL>
0

>  <SCORE.INTRA.REPUL.0>
0

>  <SCORE.INTRA.SOLV>
-0.960408

>  <SCORE.INTRA.SOLV.lig_0>
-71.0481

>  <SCORE.INTRA.VDW>
-1.97753

>  <SCORE.INTRA.VDW.0>
0.968882

>  <SCORE.INTRA.norm>
-0.24336

>  <SCORE.RESTR>
0

>  <SCORE.RESTR.CAVITY>
0

>  <SCORE.RESTR.norm>
0

>  <SCORE.SYSTEM>
0

>  <SCORE.SYSTEM.CONST>
0

>  <SCORE.SYSTEM.DIHEDRAL>
0

>  <SCORE.SYSTEM.SOLV>
0

>  <SCORE.SYSTEM.norm>
0

>  <SCORE.heavy>
12

>  <SCORE.norm>
-1.82849

>  <SYMMETRIC_BONDS>
11 12 2
5 6 2

>  <RMSD>
8.467

$$$$
1koc cryst
 OpenBabel11021811393D
libRbt.so/2013.1/901 2013/11/27
 12 11  0  0  0  0  0  0  0  0999 V2000
   -5.4885    2.3461   30.9067 N   0  3  0  0  0  0  0  0  0  0  0  0
   -4.0723    2.0978   31.3138 C   0  0  2  0  0  0  0  0  0  0  0  0
   -3.6757    3.1169   32.3999 C   0  0  0  0  0  0  0  0  0  0  0  0
   -2.5671    3.0148   32.9036 O   0  5  0  0  0  0  0  0  0  0  0  0
   -3.1545    2.2310   30.0688 C   0  0  0  0  0  0  0  0  0  0  0  0
   -3.2802    1.0047   29.1571 C   0  0  0  0  0  0  0  0  0  0  0  0
   -2.5726    1.2759   27.8340 C   0  0  0  0  0  0  0  0  0  0  0  0
   -2.5038    0.0215   27.0289 N   0  0  0  0  0  0  0  0  0  0  0  0
   -3.3951   -0.2157   26.0968 C   0  0  0  0  0  0  0  0  0  0  0  0
   -3.8688    0.7658   25.3698 N   0  0  0  0  0  0  0  0  0  0  0  0
   -3.8098   -1.4376   25.8878 N   0  3  0  0  0  0  0  0  0  0  0  0
   -4.4878    3.9729   32.7177 O   0  0  0  0  0  0  0  0  0  0  0  0
  2  1  1  6  0  0  0
  2  5  1  0  0  0  0
  2  3  1  0  0  0  0
  3  4  1  0  0  0  0
  3 12  2  0  0  0  0
  5  6  1  0  0  0  0
  6  7  1  0  0  0  0
  7  8  1  0  0  0  0
  8  9  1  0  0  0  0
  9 10  1  0  0  0  0
  9 11  2  0  0  0  0
M  CHG  3   1   1   4  -1  11   1
M  END
>  <CHROM.1>
-178.52415254,-75.23606656,176.14035160,169.70400740,171.15125285,96.91246754
-3.60816618,1.51864051,29.30180601,1.64205520,-0.15544426,1.08639291

>  <Name>
1koc cryst

>  <RI>
0

>  <Rbt.Current_Directory>
/home/itssahil/PROJECTS/Mol_Feturizer/New_Systems/rnas/1koc

>  <Rbt.Executable>
rbdock ($Id: //depot/dev/client3/rdock/2013.1/src/exe/rbdock.cxx#4 $)

>  <Rbt.Library>
libRbt.so (2013.1, Build901 2013/11/27)

>  <Rbt.Parameter_File>
/export/apps/rDock/src/rDock_2013.1_src/data/scripts/dock_solv.prm

>  <Rbt.Receptor>
prm/blind_docking_40.prm

>  <SCORE>
-21.9412

>  <SCORE.INTER>
-18.9165

>  <SCORE.INTER.CONST>
1

>  <SCORE.INTER.POLAR>
-2.24377

>  <SCORE.INTER.ROT>
5

>  <SCORE.INTER.SOLV>
29.6506

>  <SCORE.INTER.VDW>
-21.9486

>  <SCORE.INTER.norm>
-1.57637

>  <SCORE.INTRA>
-3.02477

>  <SCORE.INTRA.DIHEDRAL>
-1.10138

>  <SCORE.INTRA.DIHEDRAL.0>
6.04201

>  <SCORE.INTRA.POLAR>
0

>  <SCORE.INTRA.POLAR.0>
0

>  <SCORE.INTRA.REPUL>
0

>  <SCORE.INTRA.REPUL.0>
0

>  <SCORE.INTRA.SOLV>
-0.989246

>  <SCORE.INTRA.SOLV.lig_0>
-71.0481

>  <SCORE.INTRA.VDW>
-1.97946

>  <SCORE.INTRA.VDW.0>
0.968882

>  <SCORE.INTRA.norm>
-0.252064

>  <SCORE.RESTR>
0

>  <SCORE.RESTR.CAVITY>
0

>  <SCORE.RESTR.norm>
0

>  <SCORE.SYSTEM>
0

>  <SCORE.SYSTEM.CONST>
0

>  <SCORE.SYSTEM.DIHEDRAL>
0

>  <SCORE.SYSTEM.SOLV>
0

>  <SCORE.SYSTEM.norm>
0

>  <SCORE.heavy>
12

>  <SCORE.norm>
-1.82844

>  <SYMMETRIC_BONDS>
11 12 2
5 6 2

>  <RMSD>
8.479

$$$$
1koc cryst
 OpenBabel11021811393D
libRbt.so/2013.1/901 2013/11/27
 12 11  0  0  0  0  0  0  0  0999 V2000
   -5.8941    2.8359   30.0237 N   0  3  0  0  0  0  0  0  0  0  0  0
   -5.7283    2.8253   31.5087 C   0  0  2  0  0  0  0  0  0  0  0  0
   -6.6924    3.8553   32.1293 C   0  0  0  0  0  0  0  0  0  0  0  0
   -7.6692    3.4352   32.7313 O   0  5  0  0  0  0  0  0  0  0  0  0
   -4.2547    3.1664   31.8583 C   0  0  0  0  0  0  0  0  0  0  0  0
   -3.2811    2.3576   30.9930 C   0  0  0  0  0  0  0  0  0  0  0  0
   -1.8622    2.5257   31.5255 C   0  0  0  0  0  0  0  0  0  0  0  0
   -0.9433    2.9008   30.4115 N   0  0  0  0  0  0  0  0  0  0  0  0
    0.3388    3.0595   30.6368 C   0  0  0  0  0  0  0  0  0  0  0  0
    0.9587    2.2920   31.4986 N   0  0  0  0  0  0  0  0  0  0  0  0
    1.0034    3.9844   29.9952 N   0  3  0  0  0  0  0  0  0  0  0  0
   -6.4459    5.0432   31.9836 O   0  0  0  0  0  0  0  0  0  0  0  0
  2  1  1  6  0  0  0
  2  5  1  0  0  0  0
  2  3  1  0  0  0  0
  3  4  1  0  0  0  0
  3 12  2  0  0  0  0
  5  6  1  0  0  0  0
  6  7  1  0  0  0  0
  7  8  1  0  0  0  0
  8  9  1  0  0  0  0
  9 10  1  0  0  0  0
  9 11  2  0  0  0  0
M  CHG  3   1   1   4  -1  11   1
M  END
>  <CHROM.1>
-140.73809110,-46.70650721,107.46224558,-169.93292382,-129.68884214,-178.05213216
-3.37381161,3.20227820,31.24680283,3.04368269,0.15676507,0.04853499

>  <Name>
1koc cryst

>  <RI>
0

>  <Rbt.Current_Directory>
/home/itssahil/PROJECTS/Mol_Feturizer/New_Systems/rnas/1koc

>  <Rbt.Executable>
rbdock ($Id: //depot/dev/client3/rdock/2013.1/src/exe/rbdock.cxx#4 $)

>  <Rbt.Library>
libRbt.so (2013.1, Build901 2013/11/27)

>  <Rbt.Parameter_File>
/export/apps/rDock/src/rDock_2013.1_src/data/scripts/dock_solv.prm

>  <Rbt.Receptor>
prm/blind_docking_100.prm

>  <SCORE>
-26.4291

>  <SCORE.INTER>
-28.6727

>  <SCORE.INTER.CONST>
1

>  <SCORE.INTER.POLAR>
-4.87696

>  <SCORE.INTER.ROT>
5

>  <SCORE.INTER.SOLV>
26.2736

>  <SCORE.INTER.VDW>
-18.5498

>  <SCORE.INTER.norm>
-2.3894

>  <SCORE.INTRA>
2.24363

>  <SCORE.INTRA.DIHEDRAL>
6.21629

>  <SCORE.INTRA.DIHEDRAL.0>
6.04201

>  <SCORE.INTRA.POLAR>
0

>  <SCORE.INTRA.POLAR.0>
0

>  <SCORE.INTRA.REPUL>
0

>  <SCORE.INTRA.REPUL.0>
0

>  <SCORE.INTRA.SOLV>
-0.909792

>  <SCORE.INTRA.SOLV.lig_0>
-71.0481

>  <SCORE.INTRA.VDW>
-0.409615

>  <SCORE.INTRA.VDW.0>
0.968882

>  <SCORE.INTRA.norm>
0.186969

>  <SCORE.RESTR>
0

>  <SCORE.RESTR.CAVITY>
0

>  <SCORE.RESTR.norm>
0

>  <SCORE.SYSTEM>
0

>  <SCORE.SYSTEM.CONST>
0

>  <SCORE.SYSTEM.DIHEDRAL>
0

>  <SCORE.SYSTEM.SOLV>
0

>  <SCORE.SYSTEM.norm>
0

>  <SCORE.heavy>
12

>  <SCORE.norm>
-2.20243

>  <SYMMETRIC_BONDS>
11 12 2
5 6 2

>  <RMSD>
8.495

$$$$
1koc cryst
 OpenBabel11021811393D
libRbt.so/2013.1/901 2013/11/27
 12 11  0  0  0  0  0  0  0  0999 V2000
   -4.3591    3.5288   32.6137 N   0  3  0  0  0  0  0  0  0  0  0  0
   -3.9182    3.2233   31.2190 C   0  0  2  0  0  0  0  0  0  0  0  0
   -5.1262    2.7098   30.4112 C   0  0  0  0  0  0  0  0  0  0  0  0
   -6.1693    2.4996   31.0120 O   0  5  0  0  0  0  0  0  0  0  0  0
   -2.7899    2.1579   31.2642 C   0  0  0  0  0  0  0  0  0  0  0  0
   -2.0308    2.1015   29.9333 C   0  0  0  0  0  0  0  0  0  0  0  0
   -2.3142    0.7743   29.2382 C   0  0  0  0  0  0  0  0  0  0  0  0
   -3.0543    1.0159   27.9654 N   0  0  0  0  0  0  0  0  0  0  0  0
   -3.1560    0.0643   27.0688 C   0  0  0  0  0  0  0  0  0  0  0  0
   -3.2888   -1.1843   27.4419 N   0  0  0  0  0  0  0  0  0  0  0  0
   -3.1300    0.3628   25.7963 N   0  3  0  0  0  0  0  0  0  0  0  0
   -4.9866    2.5249   29.2114 O   0  0  0  0  0  0  0  0  0  0  0  0
  2  1  1  1  0  0  0
  2  5  1  0  0  0  0
  2  3  1  0  0  0  0
  3  4  1  0  0  0  0
  3 12  2  0  0  0  0
  5  6  1  0  0  0  0
  6  7  1  0  0  0  0
  7  8  1  0  0  0  0
  8  9  1  0  0  0  0
  9 10  1  0  0  0  0
  9 11  2  0  0  0  0
M  CHG  3   1   1   4  -1  11   1
M  END
>  <CHROM.1>
-58.37539589,-163.65818692,-7.27002700,-111.93256463,115.03386944,165.49463707
-3.72580525,1.64841414,29.43491779,-1.84258511,0.22062701,-2.09932588

>  <Name>
1koc cryst

>  <RI>
0

>  <Rbt.Current_Directory>
/home/itssahil/PROJECTS/Mol_Feturizer/New_Systems/rnas/1koc

>  <Rbt.Executable>
rbdock ($Id: //depot/dev/client3/rdock/2013.1/src/exe/rbdock.cxx#4 $)

>  <Rbt.Library>
libRbt.so (2013.1, Build901 2013/11/27)

>  <Rbt.Parameter_File>
/export/apps/rDock/src/rDock_2013.1_src/data/scripts/dock_solv.prm

>  <Rbt.Receptor>
prm/blind_docking_60.prm

>  <SCORE>
-18.1645

>  <SCORE.INTER>
-20.3062

>  <SCORE.INTER.CONST>
1

>  <SCORE.INTER.POLAR>
-2.44258

>  <SCORE.INTER.ROT>
5

>  <SCORE.INTER.SOLV>
26.1609

>  <SCORE.INTER.VDW>
-21.0492

>  <SCORE.INTER.norm>
-1.69218

>  <SCORE.INTRA>
2.13674

>  <SCORE.INTRA.DIHEDRAL>
9.57174

>  <SCORE.INTRA.DIHEDRAL.0>
6.04201

>  <SCORE.INTRA.POLAR>
-0.413845

>  <SCORE.INTRA.POLAR.0>
0

>  <SCORE.INTRA.REPUL>
0

>  <SCORE.INTRA.REPUL.0>
0

>  <SCORE.INTRA.SOLV>
1.87787

>  <SCORE.INTRA.SOLV.lig_0>
-71.0481

>  <SCORE.INTRA.VDW>
-2.18099

>  <SCORE.INTRA.VDW.0>
0.968882

>  <SCORE.INTRA.norm>
0.178062

>  <SCORE.RESTR>
0.00496228

>  <SCORE.RESTR.CAVITY>
0.00496228

>  <SCORE.RESTR.norm>
0.000413524

>  <SCORE.SYSTEM>
0

>  <SCORE.SYSTEM.CONST>
0

>  <SCORE.SYSTEM.DIHEDRAL>
0

>  <SCORE.SYSTEM.SOLV>
0

>  <SCORE.SYSTEM.norm>
0

>  <SCORE.heavy>
12

>  <SCORE.norm>
-1.51371

>  <SYMMETRIC_BONDS>
11 12 2
5 6 2

>  <RMSD>
8.530

$$$$
1koc cryst
 OpenBabel11021811393D
libRbt.so/2013.1/901 2013/11/27
 12 11  0  0  0  0  0  0  0  0999 V2000
   -3.6467    2.9870   27.9072 N   0  3  0  0  0  0  0  0  0  0  0  0
   -3.1113    1.8211   28.6732 C   0  0  2  0  0  0  0  0  0  0  0  0
   -2.1575    2.3352   29.7693 C   0  0  0  0  0  0  0  0  0  0  0  0
   -2.5611    2.3418   30.9227 O   0  5  0  0  0  0  0  0  0  0  0  0
   -2.3698    0.8685   27.6970 C   0  0  0  0  0  0  0  0  0  0  0  0
   -3.3353    0.2777   26.6628 C   0  0  0  0  0  0  0  0  0  0  0  0
   -2.9196   -1.1517   26.3325 C   0  0  0  0  0  0  0  0  0  0  0  0
   -4.0475   -2.0865   26.6160 N   0  0  0  0  0  0  0  0  0  0  0  0
   -4.1045   -2.7266   27.7591 C   0  0  0  0  0  0  0  0  0  0  0  0
   -3.7082   -2.1442   28.8635 N   0  0  0  0  0  0  0  0  0  0  0  0
   -4.5636   -3.9499   27.7984 N   0  3  0  0  0  0  0  0  0  0  0  0
   -1.0472    2.7232   29.4380 O   0  0  0  0  0  0  0  0  0  0  0  0
  2  1  1  6  0  0  0
  2  5  1  0  0  0  0
  2  3  1  0  0  0  0
  3  4  1  0  0  0  0
  3 12  2  0  0  0  0
  5  6  1  0  0  0  0
  6  7  1  0  0  0  0
  7  8  1  0  0  0  0
  8  9  1  0  0  0  0
  9 10  1  0  0  0  0
  9 11  2  0  0  0  0
M  CHG  3   1   1   4  -1  11   1
M  END
>  <CHROM.1>
71.86138500,-63.84726453,104.45942713,-145.10165645,122.43774612,-96.03934609
-3.14456383,0.12570440,28.21933660,0.12640688,-1.26909925,-1.08782396

>  <Name>
1koc cryst

>  <RI>
0

>  <Rbt.Current_Directory>
/home/itssahil/PROJECTS/Mol_Feturizer/New_Systems/rnas/1koc

>  <Rbt.Executable>
rbdock ($Id: //depot/dev/client3/rdock/2013.1/src/exe/rbdock.cxx#4 $)

>  <Rbt.Library>
libRbt.so (2013.1, Build901 2013/11/27)

>  <Rbt.Parameter_File>
/export/apps/rDock/src/rDock_2013.1_src/data/scripts/dock_solv.prm

>  <Rbt.Receptor>
prm/blind_docking_40.prm

>  <SCORE>
-15.1655

>  <SCORE.INTER>
-16.9234

>  <SCORE.INTER.CONST>
1

>  <SCORE.INTER.POLAR>
-3.3326

>  <SCORE.INTER.ROT>
5

>  <SCORE.INTER.SOLV>
31.5288

>  <SCORE.INTER.VDW>
-17.6165

>  <SCORE.INTER.norm>
-1.41028

>  <SCORE.INTRA>
1.75787

>  <SCORE.INTRA.DIHEDRAL>
7.12351

>  <SCORE.INTRA.DIHEDRAL.0>
6.04201

>  <SCORE.INTRA.POLAR>
0

>  <SCORE.INTRA.POLAR.0>
0

>  <SCORE.INTRA.REPUL>
0

>  <SCORE.INTRA.REPUL.0>
0

>  <SCORE.INTRA.SOLV>
-0.124123

>  <SCORE.INTRA.SOLV.lig_0>
-71.0481

>  <SCORE.INTRA.VDW>
-1.74182

>  <SCORE.INTRA.VDW.0>
0.968882

>  <SCORE.INTRA.norm>
0.146489

>  <SCORE.RESTR>
0

>  <SCORE.RESTR.CAVITY>
0

>  <SCORE.RESTR.norm>
0

>  <SCORE.SYSTEM>
0

>  <SCORE.SYSTEM.CONST>
0

>  <SCORE.SYSTEM.DIHEDRAL>
0

>  <SCORE.SYSTEM.SOLV>
0

>  <SCORE.SYSTEM.norm>
0

>  <SCORE.heavy>
12

>  <SCORE.norm>
-1.26379

>  <SYMMETRIC_BONDS>
11 12 2
5 6 2

>  <RMSD>
8.534

$$$$
1koc cryst
 OpenBabel11021811393D
libRbt.so/2013.1/901 2013/11/27
 12 11  0  0  0  0  0  0  0  0999 V2000
   -3.1700    2.4252   26.9407 N   0  3  0  0  0  0  0  0  0  0  0  0
   -2.6843    1.5124   28.0196 C   0  0  2  0  0  0  0  0  0  0  0  0
   -2.3267    0.1474   27.3996 C   0  0  0  0  0  0  0  0  0  0  0  0
   -1.5676   -0.5821   28.0198 O   0  5  0  0  0  0  0  0  0  0  0  0
   -3.7948    1.3583   29.0935 C   0  0  0  0  0  0  0  0  0  0  0  0
   -3.7077    2.4744   30.1411 C   0  0  0  0  0  0  0  0  0  0  0  0
   -2.6597    2.1130   31.1881 C   0  0  0  0  0  0  0  0  0  0  0  0
   -2.7825    3.0230   32.3641 N   0  0  0  0  0  0  0  0  0  0  0  0
   -3.9626    3.4339   32.7620 C   0  0  0  0  0  0  0  0  0  0  0  0
   -4.9980    2.6342   32.6958 N   0  0  0  0  0  0  0  0  0  0  0  0
   -4.1063    4.6453   33.2317 N   0  3  0  0  0  0  0  0  0  0  0  0
   -2.8067   -0.1410   26.3135 O   0  0  0  0  0  0  0  0  0  0  0  0
  2  1  1  6  0  0  0
  2  5  1  0  0  0  0
  2  3  1  0  0  0  0
  3  4  1  0  0  0  0
  3 12  2  0  0  0  0
  5  6  1  0  0  0  0
  6  7  1  0  0  0  0
  7  8  1  0  0  0  0
  8  9  1  0  0  0  0
  9 10  1  0  0  0  0
  9 11  2  0  0  0  0
M  CHG  3   1   1   4  -1  11   1
M  END
>  <CHROM.1>
65.73237840,-86.70194115,159.12047197,-82.55596441,-167.16592874,36.12716125
-3.22521537,1.93536329,29.82795084,1.14452916,1.00465136,-1.70926135

>  <Name>
1koc cryst

>  <RI>
0

>  <Rbt.Current_Directory>
/home/itssahil/PROJECTS/Mol_Feturizer/New_Systems/rnas/1koc

>  <Rbt.Executable>
rbdock ($Id: //depot/dev/client3/rdock/2013.1/src/exe/rbdock.cxx#4 $)

>  <Rbt.Library>
libRbt.so (2013.1, Build901 2013/11/27)

>  <Rbt.Parameter_File>
/export/apps/rDock/src/rDock_2013.1_src/data/scripts/dock_solv.prm

>  <Rbt.Receptor>
prm/blind_docking_40.prm

>  <SCORE>
-21.9595

>  <SCORE.INTER>
-22.4368

>  <SCORE.INTER.CONST>
1

>  <SCORE.INTER.POLAR>
-3.95684

>  <SCORE.INTER.ROT>
5

>  <SCORE.INTER.SOLV>
33.0555

>  <SCORE.INTER.VDW>
-19.7202

>  <SCORE.INTER.norm>
-1.86973

>  <SCORE.INTRA>
0.477277

>  <SCORE.INTRA.DIHEDRAL>
2.11808

>  <SCORE.INTRA.DIHEDRAL.0>
6.04201

>  <SCORE.INTRA.POLAR>
0

>  <SCORE.INTRA.POLAR.0>
0

>  <SCORE.INTRA.REPUL>
0

>  <SCORE.INTRA.REPUL.0>
0

>  <SCORE.INTRA.SOLV>
-0.174503

>  <SCORE.INTRA.SOLV.lig_0>
-71.0481

>  <SCORE.INTRA.VDW>
-0.49451

>  <SCORE.INTRA.VDW.0>
0.968882

>  <SCORE.INTRA.norm>
0.0397731

>  <SCORE.RESTR>
0

>  <SCORE.RESTR.CAVITY>
0

>  <SCORE.RESTR.norm>
0

>  <SCORE.SYSTEM>
0

>  <SCORE.SYSTEM.CONST>
0

>  <SCORE.SYSTEM.DIHEDRAL>
0

>  <SCORE.SYSTEM.SOLV>
0

>  <SCORE.SYSTEM.norm>
0

>  <SCORE.heavy>
12

>  <SCORE.norm>
-1.82996

>  <SYMMETRIC_BONDS>
11 12 2
5 6 2

>  <RMSD>
8.557

$$$$
1koc cryst
 OpenBabel11021811393D
libRbt.so/2013.1/901 2013/11/27
 12 11  0  0  0  0  0  0  0  0999 V2000
   -1.0248    2.1615   30.0320 N   0  3  0  0  0  0  0  0  0  0  0  0
   -2.3267    1.4526   30.2199 C   0  0  2  0  0  0  0  0  0  0  0  0
   -2.6376    0.6291   28.9547 C   0  0  0  0  0  0  0  0  0  0  0  0
   -2.8318    1.2340   27.9110 O   0  5  0  0  0  0  0  0  0  0  0  0
   -3.4419    2.4992   30.4864 C   0  0  0  0  0  0  0  0  0  0  0  0
   -3.0799    3.4010   31.6724 C   0  0  0  0  0  0  0  0  0  0  0  0
   -3.9513    3.0439   32.8716 C   0  0  0  0  0  0  0  0  0  0  0  0
   -5.2914    3.6852   32.7340 N   0  0  0  0  0  0  0  0  0  0  0  0
   -6.1261    3.2807   31.8069 C   0  0  0  0  0  0  0  0  0  0  0  0
   -6.1938    2.0124   31.4861 N   0  0  0  0  0  0  0  0  0  0  0  0
   -6.8981    4.1457   31.2031 N   0  3  0  0  0  0  0  0  0  0  0  0
   -2.6877   -0.5881   29.0515 O   0  0  0  0  0  0  0  0  0  0  0  0
  2  1  1  6  0  0  0
  2  5  1  0  0  0  0
  2  3  1  0  0  0  0
  3  4  1  0  0  0  0
  3 12  2  0  0  0  0
  5  6  1  0  0  0  0
  6  7  1  0  0  0  0
  7  8  1  0  0  0  0
  8  9  1  0  0  0  0
  9 10  1  0  0  0  0
  9 11  2  0  0  0  0
M  CHG  3   1   1   4  -1  11   1
M  END
>  <CHROM.1>
-155.37588480,-55.02596396,-64.71661564,-107.67433441,-80.59638408,68.96268827
-3.86654328,2.24517130,30.67587096,-0.82342356,-0.03090157,0.86697549

>  <Name>
1koc cryst

>  <RI>
0

>  <Rbt.Current_Directory>
/home/itssahil/PROJECTS/Mol_Feturizer/New_Systems/rnas/1koc

>  <Rbt.Executable>
rbdock ($Id: //depot/dev/client3/rdock/2013.1/src/exe/rbdock.cxx#4 $)

>  <Rbt.Library>
libRbt.so (2013.1, Build901 2013/11/27)

>  <Rbt.Parameter_File>
/export/apps/rDock/src/rDock_2013.1_src/data/scripts/dock_solv.prm

>  <Rbt.Receptor>
prm/blind_docking_60.prm

>  <SCORE>
-14.1167

>  <SCORE.INTER>
-15.7792

>  <SCORE.INTER.CONST>
1

>  <SCORE.INTER.POLAR>
-2.91369

>  <SCORE.INTER.ROT>
5

>  <SCORE.INTER.SOLV>
26.6837

>  <SCORE.INTER.VDW>
-16.6351

>  <SCORE.INTER.norm>
-1.31493

>  <SCORE.INTRA>
1.53193

>  <SCORE.INTRA.DIHEDRAL>
5.74519

>  <SCORE.INTRA.DIHEDRAL.0>
6.04201

>  <SCORE.INTRA.POLAR>
0

>  <SCORE.INTRA.POLAR.0>
0

>  <SCORE.INTRA.REPUL>
0

>  <SCORE.INTRA.REPUL.0>
0

>  <SCORE.INTRA.SOLV>
0.294882

>  <SCORE.INTRA.SOLV.lig_0>
-71.0481

>  <SCORE.INTRA.VDW>
-1.48811

>  <SCORE.INTRA.VDW.0>
0.968882

>  <SCORE.INTRA.norm>
0.127661

>  <SCORE.RESTR>
0.130559

>  <SCORE.RESTR.CAVITY>
0.130559

>  <SCORE.RESTR.norm>
0.0108799

>  <SCORE.SYSTEM>
0

>  <SCORE.SYSTEM.CONST>
0

>  <SCORE.SYSTEM.DIHEDRAL>
0

>  <SCORE.SYSTEM.SOLV>
0

>  <SCORE.SYSTEM.norm>
0

>  <SCORE.heavy>
12

>  <SCORE.norm>
-1.17639

>  <SYMMETRIC_BONDS>
11 12 2
5 6 2

>  <RMSD>
8.662

$$$$
1koc cryst
 OpenBabel11021811393D
libRbt.so/2013.1/901 2013/11/27
 12 11  0  0  0  0  0  0  0  0999 V2000
   -2.7256    1.0448   26.3820 N   0  3  0  0  0  0  0  0  0  0  0  0
   -2.3358    1.3372   27.7945 C   0  0  2  0  0  0  0  0  0  0  0  0
   -2.0550    0.0086   28.5235 C   0  0  0  0  0  0  0  0  0  0  0  0
   -0.9270   -0.4559   28.4534 O   0  5  0  0  0  0  0  0  0  0  0  0
   -3.4853    2.1166   28.4884 C   0  0  0  0  0  0  0  0  0  0  0  0
   -3.1820    2.3393   29.9748 C   0  0  0  0  0  0  0  0  0  0  0  0
   -4.3357    1.8073   30.8179 C   0  0  0  0  0  0  0  0  0  0  0  0
   -4.3238    2.4564   32.1614 N   0  0  0  0  0  0  0  0  0  0  0  0
   -5.0525    3.5231   32.3869 C   0  0  0  0  0  0  0  0  0  0  0  0
   -6.2330    3.6467   31.8327 N   0  0  0  0  0  0  0  0  0  0  0  0
   -4.6017    4.4658   33.1724 N   0  3  0  0  0  0  0  0  0  0  0  0
   -2.9716   -0.5271   29.1286 O   0  0  0  0  0  0  0  0  0  0  0  0
  2  1  1  6  0  0  0
  2  5  1  0  0  0  0
  2  3  1  0  0  0  0
  3  4  1  0  0  0  0
  3 12  2  0  0  0  0
  5  6  1  0  0  0  0
  6  7  1  0  0  0  0
  7  8  1  0  0  0  0
  8  9  1  0  0  0  0
  9 10  1  0  0  0  0
  9 11  2  0  0  0  0
M  CHG  3   1   1   4  -1  11   1
M  END
>  <CHROM.1>
69.10013925,175.30314939,87.21285343,-125.58631619,-158.37445109,94.25689947
-3.52547303,1.80847913,29.91111956,0.75867835,0.88028698,-1.51401072

>  <Name>
1koc cryst

>  <RI>
0

>  <Rbt.Current_Directory>
/home/itssahil/PROJECTS/Mol_Feturizer/New_Systems/rnas/1koc

>  <Rbt.Executable>
rbdock ($Id: //depot/dev/client3/rdock/2013.1/src/exe/rbdock.cxx#4 $)

>  <Rbt.Library>
libRbt.so (2013.1, Build901 2013/11/27)

>  <Rbt.Parameter_File>
/export/apps/rDock/src/rDock_2013.1_src/data/scripts/dock_solv.prm

>  <Rbt.Receptor>
prm/blind_docking_40.prm

>  <SCORE>
-21.2019

>  <SCORE.INTER>
-22.1827

>  <SCORE.INTER.CONST>
1

>  <SCORE.INTER.POLAR>
-3.68341

>  <SCORE.INTER.ROT>
5

>  <SCORE.INTER.SOLV>
33.4039

>  <SCORE.INTER.VDW>
-20.5784

>  <SCORE.INTER.norm>
-1.84856

>  <SCORE.INTRA>
0.980798

>  <SCORE.INTRA.DIHEDRAL>
5.23995

>  <SCORE.INTRA.DIHEDRAL.0>
6.04201

>  <SCORE.INTRA.POLAR>
0

>  <SCORE.INTRA.POLAR.0>
0

>  <SCORE.INTRA.REPUL>
0

>  <SCORE.INTRA.REPUL.0>
0

>  <SCORE.INTRA.SOLV>
-0.661492

>  <SCORE.INTRA.SOLV.lig_0>
-71.0481

>  <SCORE.INTRA.VDW>
-1.30843

>  <SCORE.INTRA.VDW.0>
0.968882

>  <SCORE.INTRA.norm>
0.0817331

>  <SCORE.RESTR>
0

>  <SCORE.RESTR.CAVITY>
0

>  <SCORE.RESTR.norm>
0

>  <SCORE.SYSTEM>
0

>  <SCORE.SYSTEM.CONST>
0

>  <SCORE.SYSTEM.DIHEDRAL>
0

>  <SCORE.SYSTEM.SOLV>
0

>  <SCORE.SYSTEM.norm>
0

>  <SCORE.heavy>
12

>  <SCORE.norm>
-1.76682

>  <SYMMETRIC_BONDS>
11 12 2
5 6 2

>  <RMSD>
8.706

$$$$
1koc cryst
 OpenBabel11021811393D
libRbt.so/2013.1/901 2013/11/27
 12 11  0  0  0  0  0  0  0  0999 V2000
   -2.7240    1.1852   26.4917 N   0  3  0  0  0  0  0  0  0  0  0  0
   -3.3549    1.7583   27.7191 C   0  0  2  0  0  0  0  0  0  0  0  0
   -4.0505    3.0843   27.3541 C   0  0  0  0  0  0  0  0  0  0  0  0
   -3.7713    3.6017   26.2830 O   0  5  0  0  0  0  0  0  0  0  0  0
   -2.2592    1.9863   28.7950 C   0  0  0  0  0  0  0  0  0  0  0  0
   -2.6982    1.4319   30.1554 C   0  0  0  0  0  0  0  0  0  0  0  0
   -2.9295    2.5840   31.1271 C   0  0  0  0  0  0  0  0  0  0  0  0
   -4.3116    3.1203   30.9585 N   0  0  0  0  0  0  0  0  0  0  0  0
   -4.9387    3.6632   31.9742 C   0  0  0  0  0  0  0  0  0  0  0  0
   -4.2794    4.3744   32.8548 N   0  0  0  0  0  0  0  0  0  0  0  0
   -6.2288    3.4988   32.1066 N   0  3  0  0  0  0  0  0  0  0  0  0
   -4.8397    3.5655   28.1534 O   0  0  0  0  0  0  0  0  0  0  0  0
  2  1  1  6  0  0  0
  2  5  1  0  0  0  0
  2  3  1  0  0  0  0
  3  4  1  0  0  0  0
  3 12  2  0  0  0  0
  5  6  1  0  0  0  0
  6  7  1  0  0  0  0
  7  8  1  0  0  0  0
  8  9  1  0  0  0  0
  9 10  1  0  0  0  0
  9 11  2  0  0  0  0
M  CHG  3   1   1   4  -1  11   1
M  END
>  <CHROM.1>
-93.89490690,-132.29077514,-14.90469834,-111.68682879,84.87284685,150.59374471
-3.88131965,2.83067599,29.47215105,-1.19926382,-0.68236170,1.54441932

>  <Name>
1koc cryst

>  <RI>
0

>  <Rbt.Current_Directory>
/home/itssahil/PROJECTS/Mol_Feturizer/New_Systems/rnas/1koc

>  <Rbt.Executable>
rbdock ($Id: //depot/dev/client3/rdock/2013.1/src/exe/rbdock.cxx#4 $)

>  <Rbt.Library>
libRbt.so (2013.1, Build901 2013/11/27)

>  <Rbt.Parameter_File>
/export/apps/rDock/src/rDock_2013.1_src/data/scripts/dock_solv.prm

>  <Rbt.Receptor>
prm/blind_docking_60.prm

>  <SCORE>
-23.0676

>  <SCORE.INTER>
-23.3633

>  <SCORE.INTER.CONST>
1

>  <SCORE.INTER.POLAR>
-3.75179

>  <SCORE.INTER.ROT>
5

>  <SCORE.INTER.SOLV>
24.6747

>  <SCORE.INTER.VDW>
-18.2278

>  <SCORE.INTER.norm>
-1.94694

>  <SCORE.INTRA>
0.295745

>  <SCORE.INTRA.DIHEDRAL>
12.0443

>  <SCORE.INTRA.DIHEDRAL.0>
6.04201

>  <SCORE.INTRA.POLAR>
-1.35417

>  <SCORE.INTRA.POLAR.0>
0

>  <SCORE.INTRA.REPUL>
0

>  <SCORE.INTRA.REPUL.0>
0

>  <SCORE.INTRA.SOLV>
2.01388

>  <SCORE.INTRA.SOLV.lig_0>
-71.0481

>  <SCORE.INTRA.VDW>
-2.12917

>  <SCORE.INTRA.VDW.0>
0.968882

>  <SCORE.INTRA.norm>
0.0246454

>  <SCORE.RESTR>
0

>  <SCORE.RESTR.CAVITY>
0

>  <SCORE.RESTR.norm>
0

>  <SCORE.SYSTEM>
0

>  <SCORE.SYSTEM.CONST>
0

>  <SCORE.SYSTEM.DIHEDRAL>
0

>  <SCORE.SYSTEM.SOLV>
0

>  <SCORE.SYSTEM.norm>
0

>  <SCORE.heavy>
12

>  <SCORE.norm>
-1.9223

>  <SYMMETRIC_BONDS>
11 12 2
5 6 2

>  <RMSD>
8.735

$$$$
1koc cryst
 OpenBabel11021811393D
libRbt.so/2013.1/901 2013/11/27
 12 11  0  0  0  0  0  0  0  0999 V2000
   -4.3759    3.8618   32.8370 N   0  3  0  0  0  0  0  0  0  0  0  0
   -4.5508    3.3974   31.4275 C   0  0  2  0  0  0  0  0  0  0  0  0
   -5.9792    3.7387   30.9596 C   0  0  0  0  0  0  0  0  0  0  0  0
   -6.7925    2.8293   30.8925 O   0  5  0  0  0  0  0  0  0  0  0  0
   -4.2979    1.8671   31.3611 C   0  0  0  0  0  0  0  0  0  0  0  0
   -3.8542    1.4418   29.9565 C   0  0  0  0  0  0  0  0  0  0  0  0
   -2.4981    2.0621   29.6384 C   0  0  0  0  0  0  0  0  0  0  0  0
   -1.9525    1.4718   28.3813 N   0  0  0  0  0  0  0  0  0  0  0  0
   -2.6839    1.4410   27.2933 C   0  0  0  0  0  0  0  0  0  0  0  0
   -3.4978    2.4292   27.0157 N   0  0  0  0  0  0  0  0  0  0  0  0
   -2.5974    0.4223   26.4788 N   0  3  0  0  0  0  0  0  0  0  0  0
   -6.2330    4.8975   30.6661 O   0  0  0  0  0  0  0  0  0  0  0  0
  2  1  1  1  0  0  0
  2  5  1  0  0  0  0
  2  3  1  0  0  0  0
  3  4  1  0  0  0  0
  3 12  2  0  0  0  0
  5  6  1  0  0  0  0
  6  7  1  0  0  0  0
  7  8  1  0  0  0  0
  8  9  1  0  0  0  0
  9 10  1  0  0  0  0
  9 11  2  0  0  0  0
M  CHG  3   1   1   4  -1  11   1
M  END
>  <CHROM.1>
-100.17100124,-154.94711524,-104.43663066,65.25407313,170.32460605,51.63826821
-4.12142511,2.50489821,29.74784180,-2.20481186,0.51769184,-1.75222256

>  <Name>
1koc cryst

>  <RI>
0

>  <Rbt.Current_Directory>
/home/itssahil/PROJECTS/Mol_Feturizer/New_Systems/rnas/1koc

>  <Rbt.Executable>
rbdock ($Id: //depot/dev/client3/rdock/2013.1/src/exe/rbdock.cxx#4 $)

>  <Rbt.Library>
libRbt.so (2013.1, Build901 2013/11/27)

>  <Rbt.Parameter_File>
/export/apps/rDock/src/rDock_2013.1_src/data/scripts/dock_solv.prm

>  <Rbt.Receptor>
prm/blind_docking_100.prm

>  <SCORE>
-20.2499

>  <SCORE.INTER>
-21.1218

>  <SCORE.INTER.CONST>
1

>  <SCORE.INTER.POLAR>
-3.05559

>  <SCORE.INTER.ROT>
5

>  <SCORE.INTER.SOLV>
26.8031

>  <SCORE.INTER.VDW>
-19.7636

>  <SCORE.INTER.norm>
-1.76015

>  <SCORE.INTRA>
0.871865

>  <SCORE.INTRA.DIHEDRAL>
2.49084

>  <SCORE.INTRA.DIHEDRAL.0>
6.04201

>  <SCORE.INTRA.POLAR>
0

>  <SCORE.INTRA.POLAR.0>
0

>  <SCORE.INTRA.REPUL>
0

>  <SCORE.INTRA.REPUL.0>
0

>  <SCORE.INTRA.SOLV>
-0.914939

>  <SCORE.INTRA.SOLV.lig_0>
-71.0481

>  <SCORE.INTRA.VDW>
0.0839163

>  <SCORE.INTRA.VDW.0>
0.968882

>  <SCORE.INTRA.norm>
0.0726555

>  <SCORE.RESTR>
0

>  <SCORE.RESTR.CAVITY>
0

>  <SCORE.RESTR.norm>
0

>  <SCORE.SYSTEM>
0

>  <SCORE.SYSTEM.CONST>
0

>  <SCORE.SYSTEM.DIHEDRAL>
0

>  <SCORE.SYSTEM.SOLV>
0

>  <SCORE.SYSTEM.norm>
0

>  <SCORE.heavy>
12

>  <SCORE.norm>
-1.68749

>  <SYMMETRIC_BONDS>
11 12 2
5 6 2

>  <RMSD>
8.747

$$$$
1koc cryst
 OpenBabel11021811393D
libRbt.so/2013.1/901 2013/11/27
 12 11  0  0  0  0  0  0  0  0999 V2000
   -3.2457    3.0731   26.8482 N   0  3  0  0  0  0  0  0  0  0  0  0
   -3.4336    1.9474   27.8127 C   0  0  2  0  0  0  0  0  0  0  0  0
   -3.5750    2.5230   29.2354 C   0  0  0  0  0  0  0  0  0  0  0  0
   -4.6802    2.9028   29.5924 O   0  5  0  0  0  0  0  0  0  0  0  0
   -2.2143    0.9907   27.7217 C   0  0  0  0  0  0  0  0  0  0  0  0
   -2.2724   -0.0824   28.8153 C   0  0  0  0  0  0  0  0  0  0  0  0
   -3.6980   -0.6084   28.9411 C   0  0  0  0  0  0  0  0  0  0  0  0
   -3.6946   -2.0998   28.8955 N   0  0  0  0  0  0  0  0  0  0  0  0
   -3.9752   -2.7279   27.7791 C   0  0  0  0  0  0  0  0  0  0  0  0
   -3.5864   -2.2369   26.6285 N   0  0  0  0  0  0  0  0  0  0  0  0
   -4.6416   -3.8519   27.8138 N   0  3  0  0  0  0  0  0  0  0  0  0
   -2.5776    2.5851   29.9388 O   0  0  0  0  0  0  0  0  0  0  0  0
  2  1  1  6  0  0  0
  2  5  1  0  0  0  0
  2  3  1  0  0  0  0
  3  4  1  0  0  0  0
  3 12  2  0  0  0  0
  5  6  1  0  0  0  0
  6  7  1  0  0  0  0
  7  8  1  0  0  0  0
  8  9  1  0  0  0  0
  9 10  1  0  0  0  0
  9 11  2  0  0  0  0
M  CHG  3   1   1   4  -1  11   1
M  END
>  <CHROM.1>
59.09896241,172.77483991,84.18216553,42.55624400,129.51034214,-98.75259375
-3.47449604,0.21635506,28.31471102,-1.03465234,-1.34377892,-2.45743538

>  <Name>
1koc cryst

>  <RI>
0

>  <Rbt.Current_Directory>
/home/itssahil/PROJECTS/Mol_Feturizer/New_Systems/rnas/1koc

>  <Rbt.Executable>
rbdock ($Id: //depot/dev/client3/rdock/2013.1/src/exe/rbdock.cxx#4 $)

>  <Rbt.Library>
libRbt.so (2013.1, Build901 2013/11/27)

>  <Rbt.Parameter_File>
/export/apps/rDock/src/rDock_2013.1_src/data/scripts/dock_solv.prm

>  <Rbt.Receptor>
prm/blind_docking_40.prm

>  <SCORE>
-12.0838

>  <SCORE.INTER>
-15.1873

>  <SCORE.INTER.CONST>
1

>  <SCORE.INTER.POLAR>
-3.21187

>  <SCORE.INTER.ROT>
5

>  <SCORE.INTER.SOLV>
29.1306

>  <SCORE.INTER.VDW>
-16.0622

>  <SCORE.INTER.norm>
-1.26561

>  <SCORE.INTRA>
3.04743

>  <SCORE.INTRA.DIHEDRAL>
3.95689

>  <SCORE.INTRA.DIHEDRAL.0>
6.04201

>  <SCORE.INTRA.POLAR>
0

>  <SCORE.INTRA.POLAR.0>
0

>  <SCORE.INTRA.REPUL>
0

>  <SCORE.INTRA.REPUL.0>
0

>  <SCORE.INTRA.SOLV>
0.577323

>  <SCORE.INTRA.SOLV.lig_0>
-71.0481

>  <SCORE.INTRA.VDW>
0.780325

>  <SCORE.INTRA.VDW.0>
0.968882

>  <SCORE.INTRA.norm>
0.253953

>  <SCORE.RESTR>
0.056034

>  <SCORE.RESTR.CAVITY>
0.056034

>  <SCORE.RESTR.norm>
0.0046695

>  <SCORE.SYSTEM>
0

>  <SCORE.SYSTEM.CONST>
0

>  <SCORE.SYSTEM.DIHEDRAL>
0

>  <SCORE.SYSTEM.SOLV>
0

>  <SCORE.SYSTEM.norm>
0

>  <SCORE.heavy>
12

>  <SCORE.norm>
-1.00699

>  <SYMMETRIC_BONDS>
11 12 2
5 6 2

>  <RMSD>
8.769

$$$$
1koc cryst
 OpenBabel11021811393D
libRbt.so/2013.1/901 2013/11/27
 12 11  0  0  0  0  0  0  0  0999 V2000
   -4.4778    2.2858   30.2016 N   0  3  0  0  0  0  0  0  0  0  0  0
   -3.2010    1.5264   30.0409 C   0  0  2  0  0  0  0  0  0  0  0  0
   -2.0609    2.3109   30.7193 C   0  0  0  0  0  0  0  0  0  0  0  0
   -2.3352    2.9874   31.6992 O   0  5  0  0  0  0  0  0  0  0  0  0
   -2.9131    1.3299   28.5280 C   0  0  0  0  0  0  0  0  0  0  0  0
   -3.0858   -0.1379   28.1197 C   0  0  0  0  0  0  0  0  0  0  0  0
   -3.1840   -0.2387   26.6015 C   0  0  0  0  0  0  0  0  0  0  0  0
   -3.4021   -1.6592   26.2003 N   0  0  0  0  0  0  0  0  0  0  0  0
   -4.3909   -1.9758   25.3993 C   0  0  0  0  0  0  0  0  0  0  0  0
   -4.7374   -1.1702   24.4261 N   0  0  0  0  0  0  0  0  0  0  0  0
   -5.0313   -3.1027   25.5688 N   0  3  0  0  0  0  0  0  0  0  0  0
   -0.9381    2.2321   30.2435 O   0  0  0  0  0  0  0  0  0  0  0  0
  2  1  1  6  0  0  0
  2  5  1  0  0  0  0
  2  3  1  0  0  0  0
  3  4  1  0  0  0  0
  3 12  2  0  0  0  0
  5  6  1  0  0  0  0
  6  7  1  0  0  0  0
  7  8  1  0  0  0  0
  8  9  1  0  0  0  0
  9 10  1  0  0  0  0
  9 11  2  0  0  0  0
M  CHG  3   1   1   4  -1  11   1
M  END
>  <CHROM.1>
-178.97706361,-109.97267823,31.45914623,164.26637060,-177.94518046,128.11900605
-3.34017775,0.37607915,28.15195154,1.28993689,0.00380631,0.88574374

>  <Name>
1koc cryst

>  <RI>
0

>  <Rbt.Current_Directory>
/home/itssahil/PROJECTS/Mol_Feturizer/New_Systems/rnas/1koc

>  <Rbt.Executable>
rbdock ($Id: //depot/dev/client3/rdock/2013.1/src/exe/rbdock.cxx#4 $)

>  <Rbt.Library>
libRbt.so (2013.1, Build901 2013/11/27)

>  <Rbt.Parameter_File>
/export/apps/rDock/src/rDock_2013.1_src/data/scripts/dock_solv.prm

>  <Rbt.Receptor>
prm/blind_docking_40.prm

>  <SCORE>
-20.1121

>  <SCORE.INTER>
-19.3848

>  <SCORE.INTER.CONST>
1

>  <SCORE.INTER.POLAR>
-2.42524

>  <SCORE.INTER.ROT>
5

>  <SCORE.INTER.SOLV>
30.7878

>  <SCORE.INTER.VDW>
-22.035

>  <SCORE.INTER.norm>
-1.6154

>  <SCORE.INTRA>
-0.727366

>  <SCORE.INTRA.DIHEDRAL>
3.19801

>  <SCORE.INTRA.DIHEDRAL.0>
6.04201

>  <SCORE.INTRA.POLAR>
0

>  <SCORE.INTRA.POLAR.0>
0

>  <SCORE.INTRA.REPUL>
0

>  <SCORE.INTRA.REPUL.0>
0

>  <SCORE.INTRA.SOLV>
-1.55833

>  <SCORE.INTRA.SOLV.lig_0>
-71.0481

>  <SCORE.INTRA.VDW>
-1.54721

>  <SCORE.INTRA.VDW.0>
0.968882

>  <SCORE.INTRA.norm>
-0.0606138

>  <SCORE.RESTR>
0

>  <SCORE.RESTR.CAVITY>
0

>  <SCORE.RESTR.norm>
0

>  <SCORE.SYSTEM>
0

>  <SCORE.SYSTEM.CONST>
0

>  <SCORE.SYSTEM.DIHEDRAL>
0

>  <SCORE.SYSTEM.SOLV>
0

>  <SCORE.SYSTEM.norm>
0

>  <SCORE.heavy>
12

>  <SCORE.norm>
-1.67601

>  <SYMMETRIC_BONDS>
11 12 2
5 6 2

>  <RMSD>
8.803

$$$$
1koc cryst
 OpenBabel11021811393D
libRbt.so/2013.1/901 2013/11/27
 12 11  0  0  0  0  0  0  0  0999 V2000
   -2.7174    0.6691   26.1807 N   0  3  0  0  0  0  0  0  0  0  0  0
   -3.3272    1.3912   27.3381 C   0  0  2  0  0  0  0  0  0  0  0  0
   -3.2722    2.9079   27.0694 C   0  0  0  0  0  0  0  0  0  0  0  0
   -4.3303    3.5121   26.9779 O   0  5  0  0  0  0  0  0  0  0  0  0
   -2.5475    1.0299   28.6310 C   0  0  0  0  0  0  0  0  0  0  0  0
   -3.4859    0.9677   29.8419 C   0  0  0  0  0  0  0  0  0  0  0  0
   -3.1725    2.1184   30.7919 C   0  0  0  0  0  0  0  0  0  0  0  0
   -4.3239    3.0664   30.8378 N   0  0  0  0  0  0  0  0  0  0  0  0
   -5.5105    2.6481   31.2074 C   0  0  0  0  0  0  0  0  0  0  0  0
   -5.6295    1.7424   32.1463 N   0  0  0  0  0  0  0  0  0  0  0  0
   -6.5805    3.1403   30.6403 N   0  3  0  0  0  0  0  0  0  0  0  0
   -2.1774    3.4371   26.9486 O   0  0  0  0  0  0  0  0  0  0  0  0
  2  1  1  6  0  0  0
  2  5  1  0  0  0  0
  2  3  1  0  0  0  0
  3  4  1  0  0  0  0
  3 12  2  0  0  0  0
  5  6  1  0  0  0  0
  6  7  1  0  0  0  0
  7  8  1  0  0  0  0
  8  9  1  0  0  0  0
  9 10  1  0  0  0  0
  9 11  2  0  0  0  0
M  CHG  3   1   1   4  -1  11   1
M  END
>  <CHROM.1>
-26.03565646,-145.21350913,117.18603412,-111.74899528,113.74140183,58.64319694
-3.93392945,2.22343959,29.02172949,-0.77613684,-0.81051131,2.11887943

>  <Name>
1koc cryst

>  <RI>
0

>  <Rbt.Current_Directory>
/home/itssahil/PROJECTS/Mol_Feturizer/New_Systems/rnas/1koc

>  <Rbt.Executable>
rbdock ($Id: //depot/dev/client3/rdock/2013.1/src/exe/rbdock.cxx#4 $)

>  <Rbt.Library>
libRbt.so (2013.1, Build901 2013/11/27)

>  <Rbt.Parameter_File>
/export/apps/rDock/src/rDock_2013.1_src/data/scripts/dock_solv.prm

>  <Rbt.Receptor>
prm/blind_docking_60.prm

>  <SCORE>
-27.6103

>  <SCORE.INTER>
-32.9066

>  <SCORE.INTER.CONST>
1

>  <SCORE.INTER.POLAR>
-6.34214

>  <SCORE.INTER.ROT>
5

>  <SCORE.INTER.SOLV>
28.6016

>  <SCORE.INTER.VDW>
-17.2645

>  <SCORE.INTER.norm>
-2.74222

>  <SCORE.INTRA>
5.11426

>  <SCORE.INTRA.DIHEDRAL>
13.9845

>  <SCORE.INTRA.DIHEDRAL.0>
6.04201

>  <SCORE.INTRA.POLAR>
0

>  <SCORE.INTRA.POLAR.0>
0

>  <SCORE.INTRA.REPUL>
0

>  <SCORE.INTRA.REPUL.0>
0

>  <SCORE.INTRA.SOLV>
0.199007

>  <SCORE.INTRA.SOLV.lig_0>
-71.0481

>  <SCORE.INTRA.VDW>
-1.97748

>  <SCORE.INTRA.VDW.0>
0.968882

>  <SCORE.INTRA.norm>
0.426188

>  <SCORE.RESTR>
0.182073

>  <SCORE.RESTR.CAVITY>
0.182073

>  <SCORE.RESTR.norm>
0.0151728

>  <SCORE.SYSTEM>
0

>  <SCORE.SYSTEM.CONST>
0

>  <SCORE.SYSTEM.DIHEDRAL>
0

>  <SCORE.SYSTEM.SOLV>
0

>  <SCORE.SYSTEM.norm>
0

>  <SCORE.heavy>
12

>  <SCORE.norm>
-2.30086

>  <SYMMETRIC_BONDS>
11 12 2
5 6 2

>  <RMSD>
8.827

$$$$
1koc cryst
 OpenBabel11021811393D
libRbt.so/2013.1/901 2013/11/27
 12 11  0  0  0  0  0  0  0  0999 V2000
   -1.3933    2.2241   30.0254 N   0  3  0  0  0  0  0  0  0  0  0  0
   -2.3679    2.0357   28.9085 C   0  0  2  0  0  0  0  0  0  0  0  0
   -3.7501    2.5505   29.3555 C   0  0  0  0  0  0  0  0  0  0  0  0
   -4.6618    2.5234   28.5423 O   0  5  0  0  0  0  0  0  0  0  0  0
   -2.4320    0.5294   28.5382 C   0  0  0  0  0  0  0  0  0  0  0  0
   -3.2164    0.3137   27.2386 C   0  0  0  0  0  0  0  0  0  0  0  0
   -2.8248   -1.0240   26.6204 C   0  0  0  0  0  0  0  0  0  0  0  0
   -3.9746   -1.9722   26.6925 N   0  0  0  0  0  0  0  0  0  0  0  0
   -4.1296   -2.7451   27.7405 C   0  0  0  0  0  0  0  0  0  0  0  0
   -3.8271   -2.3054   28.9369 N   0  0  0  0  0  0  0  0  0  0  0  0
   -4.5929   -3.9585   27.5923 N   0  3  0  0  0  0  0  0  0  0  0  0
   -3.8719    2.9726   30.4958 O   0  0  0  0  0  0  0  0  0  0  0  0
  2  1  1  1  0  0  0
  2  5  1  0  0  0  0
  2  3  1  0  0  0  0
  3  4  1  0  0  0  0
  3 12  2  0  0  0  0
  5  6  1  0  0  0  0
  6  7  1  0  0  0  0
  7  8  1  0  0  0  0
  8  9  1  0  0  0  0
  9 10  1  0  0  0  0
  9 11  2  0  0  0  0
M  CHG  3   1   1   4  -1  11   1
M  END
>  <CHROM.1>
59.14482672,-169.62457534,177.10368609,158.29008713,111.76664830,-89.37996843
-3.42037229,0.09672254,28.42970622,-1.39550037,-0.15007277,-2.73458559

>  <Name>
1koc cryst

>  <RI>
0

>  <Rbt.Current_Directory>
/home/itssahil/PROJECTS/Mol_Feturizer/New_Systems/rnas/1koc

>  <Rbt.Executable>
rbdock ($Id: //depot/dev/client3/rdock/2013.1/src/exe/rbdock.cxx#4 $)

>  <Rbt.Library>
libRbt.so (2013.1, Build901 2013/11/27)

>  <Rbt.Parameter_File>
/export/apps/rDock/src/rDock_2013.1_src/data/scripts/dock_solv.prm

>  <Rbt.Receptor>
prm/blind_docking_100.prm

>  <SCORE>
-15.117

>  <SCORE.INTER>
-18.8343

>  <SCORE.INTER.CONST>
1

>  <SCORE.INTER.POLAR>
-2.96325

>  <SCORE.INTER.ROT>
5

>  <SCORE.INTER.SOLV>
30.6406

>  <SCORE.INTER.VDW>
-19.8256

>  <SCORE.INTER.norm>
-1.56953

>  <SCORE.INTRA>
3.71732

>  <SCORE.INTRA.DIHEDRAL>
4.82185

>  <SCORE.INTRA.DIHEDRAL.0>
6.04201

>  <SCORE.INTRA.POLAR>
0

>  <SCORE.INTRA.POLAR.0>
0

>  <SCORE.INTRA.REPUL>
0

>  <SCORE.INTRA.REPUL.0>
0

>  <SCORE.INTRA.SOLV>
0.232349

>  <SCORE.INTRA.SOLV.lig_0>
-71.0481

>  <SCORE.INTRA.VDW>
1.19022

>  <SCORE.INTRA.VDW.0>
0.968882

>  <SCORE.INTRA.norm>
0.309777

>  <SCORE.RESTR>
0

>  <SCORE.RESTR.CAVITY>
0

>  <SCORE.RESTR.norm>
0

>  <SCORE.SYSTEM>
0

>  <SCORE.SYSTEM.CONST>
0

>  <SCORE.SYSTEM.DIHEDRAL>
0

>  <SCORE.SYSTEM.SOLV>
0

>  <SCORE.SYSTEM.norm>
0

>  <SCORE.heavy>
12

>  <SCORE.norm>
-1.25975

>  <SYMMETRIC_BONDS>
11 12 2
5 6 2

>  <RMSD>
8.834

$$$$
1koc cryst
 OpenBabel11021811393D
libRbt.so/2013.1/901 2013/11/27
 12 11  0  0  0  0  0  0  0  0999 V2000
   -4.4547    4.0844   32.7662 N   0  3  0  0  0  0  0  0  0  0  0  0
   -4.6799    3.3513   31.4837 C   0  0  2  0  0  0  0  0  0  0  0  0
   -5.9013    2.4248   31.6423 C   0  0  0  0  0  0  0  0  0  0  0  0
   -6.9684    2.7996   31.1797 O   0  5  0  0  0  0  0  0  0  0  0  0
   -3.4070    2.5337   31.1351 C   0  0  0  0  0  0  0  0  0  0  0  0
   -3.6426    1.6417   29.9105 C   0  0  0  0  0  0  0  0  0  0  0  0
   -2.3307    0.9845   29.4959 C   0  0  0  0  0  0  0  0  0  0  0  0
   -2.5968   -0.0991   28.5053 N   0  0  0  0  0  0  0  0  0  0  0  0
   -2.8276    0.1959   27.2485 C   0  0  0  0  0  0  0  0  0  0  0  0
   -2.1955    1.1902   26.6760 N   0  0  0  0  0  0  0  0  0  0  0  0
   -3.6885   -0.5081   26.5616 N   0  3  0  0  0  0  0  0  0  0  0  0
   -5.7535    1.3644   32.2313 O   0  0  0  0  0  0  0  0  0  0  0  0
  2  1  1  1  0  0  0
  2  5  1  0  0  0  0
  2  3  1  0  0  0  0
  3  4  1  0  0  0  0
  3 12  2  0  0  0  0
  5  6  1  0  0  0  0
  6  7  1  0  0  0  0
  7  8  1  0  0  0  0
  8  9  1  0  0  0  0
  9 10  1  0  0  0  0
  9 11  2  0  0  0  0
M  CHG  3   1   1   4  -1  11   1
M  END
>  <CHROM.1>
72.46850151,173.68274653,100.56950209,173.19708598,167.86224655,78.68905542
-4.05254036,1.67162099,29.91247759,-2.03033487,-0.24048998,-2.20821778

>  <Name>
1koc cryst

>  <RI>
0

>  <Rbt.Current_Directory>
/home/itssahil/PROJECTS/Mol_Feturizer/New_Systems/rnas/1koc

>  <Rbt.Executable>
rbdock ($Id: //depot/dev/client3/rdock/2013.1/src/exe/rbdock.cxx#4 $)

>  <Rbt.Library>
libRbt.so (2013.1, Build901 2013/11/27)

>  <Rbt.Parameter_File>
/export/apps/rDock/src/rDock_2013.1_src/data/scripts/dock_solv.prm

>  <Rbt.Receptor>
prm/blind_docking_100.prm

>  <SCORE>
-20.8903

>  <SCORE.INTER>
-18.224

>  <SCORE.INTER.CONST>
1

>  <SCORE.INTER.POLAR>
-2.49661

>  <SCORE.INTER.ROT>
5

>  <SCORE.INTER.SOLV>
31.8957

>  <SCORE.INTER.VDW>
-21.3926

>  <SCORE.INTER.norm>
-1.51867

>  <SCORE.INTRA>
-2.6663

>  <SCORE.INTRA.DIHEDRAL>
-1.37339

>  <SCORE.INTRA.DIHEDRAL.0>
6.04201

>  <SCORE.INTRA.POLAR>
0

>  <SCORE.INTRA.POLAR.0>
0

>  <SCORE.INTRA.REPUL>
0

>  <SCORE.INTRA.REPUL.0>
0

>  <SCORE.INTRA.SOLV>
-1.16788

>  <SCORE.INTRA.SOLV.lig_0>
-71.0481

>  <SCORE.INTRA.VDW>
-1.39566

>  <SCORE.INTRA.VDW.0>
0.968882

>  <SCORE.INTRA.norm>
-0.222191

>  <SCORE.RESTR>
0

>  <SCORE.RESTR.CAVITY>
0

>  <SCORE.RESTR.norm>
0

>  <SCORE.SYSTEM>
0

>  <SCORE.SYSTEM.CONST>
0

>  <SCORE.SYSTEM.DIHEDRAL>
0

>  <SCORE.SYSTEM.SOLV>
0

>  <SCORE.SYSTEM.norm>
0

>  <SCORE.heavy>
12

>  <SCORE.norm>
-1.74086

>  <SYMMETRIC_BONDS>
11 12 2
5 6 2

>  <RMSD>
8.840

$$$$
1koc cryst
 OpenBabel11021811393D
libRbt.so/2013.1/901 2013/11/27
 12 11  0  0  0  0  0  0  0  0999 V2000
   -3.3142    2.7396   27.0321 N   0  3  0  0  0  0  0  0  0  0  0  0
   -3.2535    1.7511   28.1511 C   0  0  2  0  0  0  0  0  0  0  0  0
   -2.4099    2.3416   29.2979 C   0  0  0  0  0  0  0  0  0  0  0  0
   -1.2802    2.7278   29.0378 O   0  5  0  0  0  0  0  0  0  0  0  0
   -2.6288    0.4294   27.6288 C   0  0  0  0  0  0  0  0  0  0  0  0
   -3.4788   -0.1765   26.5057 C   0  0  0  0  0  0  0  0  0  0  0  0
   -3.1157   -1.6463   26.3250 C   0  0  0  0  0  0  0  0  0  0  0  0
   -4.2561   -2.5072   26.7546 N   0  0  0  0  0  0  0  0  0  0  0  0
   -4.2598   -3.0534   27.9468 C   0  0  0  0  0  0  0  0  0  0  0  0
   -3.7684   -2.4043   28.9730 N   0  0  0  0  0  0  0  0  0  0  0  0
   -4.7606   -4.2493   28.1139 N   0  3  0  0  0  0  0  0  0  0  0  0
   -2.9008    2.3876   30.4160 O   0  0  0  0  0  0  0  0  0  0  0  0
  2  1  1  6  0  0  0
  2  5  1  0  0  0  0
  2  3  1  0  0  0  0
  3  4  1  0  0  0  0
  3 12  2  0  0  0  0
  5  6  1  0  0  0  0
  6  7  1  0  0  0  0
  7  8  1  0  0  0  0
  8  9  1  0  0  0  0
  9 10  1  0  0  0  0
  9 11  2  0  0  0  0
M  CHG  3   1   1   4  -1  11   1
M  END
>  <CHROM.1>
99.27291785,-60.99014861,-54.59721604,-161.95222360,111.63701576,-98.61189434
-3.29057361,-0.11961118,28.02450349,0.06376836,-1.27080811,-1.30181831

>  <Name>
1koc cryst

>  <RI>
0

>  <Rbt.Current_Directory>
/home/itssahil/PROJECTS/Mol_Feturizer/New_Systems/rnas/1koc

>  <Rbt.Executable>
rbdock ($Id: //depot/dev/client3/rdock/2013.1/src/exe/rbdock.cxx#4 $)

>  <Rbt.Library>
libRbt.so (2013.1, Build901 2013/11/27)

>  <Rbt.Parameter_File>
/export/apps/rDock/src/rDock_2013.1_src/data/scripts/dock_solv.prm

>  <Rbt.Receptor>
prm/blind_docking_60.prm

>  <SCORE>
-10.201

>  <SCORE.INTER>
-12.6439

>  <SCORE.INTER.CONST>
1

>  <SCORE.INTER.POLAR>
-3.89146

>  <SCORE.INTER.ROT>
5

>  <SCORE.INTER.SOLV>
31.4115

>  <SCORE.INTER.VDW>
-12.8616

>  <SCORE.INTER.norm>
-1.05366

>  <SCORE.INTRA>
2.44299

>  <SCORE.INTRA.DIHEDRAL>
6.57316

>  <SCORE.INTRA.DIHEDRAL.0>
6.04201

>  <SCORE.INTRA.POLAR>
0

>  <SCORE.INTRA.POLAR.0>
0

>  <SCORE.INTRA.REPUL>
0

>  <SCORE.INTRA.REPUL.0>
0

>  <SCORE.INTRA.SOLV>
-0.048373

>  <SCORE.INTRA.SOLV.lig_0>
-71.0481

>  <SCORE.INTRA.VDW>
-0.819405

>  <SCORE.INTRA.VDW.0>
0.968882

>  <SCORE.INTRA.norm>
0.203582

>  <SCORE.RESTR>
0

>  <SCORE.RESTR.CAVITY>
0

>  <SCORE.RESTR.norm>
0

>  <SCORE.SYSTEM>
0

>  <SCORE.SYSTEM.CONST>
0

>  <SCORE.SYSTEM.DIHEDRAL>
0

>  <SCORE.SYSTEM.SOLV>
0

>  <SCORE.SYSTEM.norm>
0

>  <SCORE.heavy>
12

>  <SCORE.norm>
-0.850079

>  <SYMMETRIC_BONDS>
11 12 2
5 6 2

>  <RMSD>
8.888

$$$$
1koc cryst
 OpenBabel11021811393D
libRbt.so/2013.1/901 2013/11/27
 12 11  0  0  0  0  0  0  0  0999 V2000
   -3.9204    3.2195   27.6832 N   0  3  0  0  0  0  0  0  0  0  0  0
   -3.4966    1.8751   28.1792 C   0  0  2  0  0  0  0  0  0  0  0  0
   -2.3894    2.0556   29.2360 C   0  0  0  0  0  0  0  0  0  0  0  0
   -1.3705    2.6425   28.9036 O   0  5  0  0  0  0  0  0  0  0  0  0
   -2.9858    1.0292   26.9819 C   0  0  0  0  0  0  0  0  0  0  0  0
   -2.5860   -0.3805   27.4333 C   0  0  0  0  0  0  0  0  0  0  0  0
   -3.7768   -1.3216   27.2876 C   0  0  0  0  0  0  0  0  0  0  0  0
   -3.9489   -2.1193   28.5368 N   0  0  0  0  0  0  0  0  0  0  0  0
   -4.4777   -3.3183   28.4882 C   0  0  0  0  0  0  0  0  0  0  0  0
   -4.2300   -4.1095   27.4740 N   0  0  0  0  0  0  0  0  0  0  0  0
   -5.2518   -3.7288   29.4583 N   0  3  0  0  0  0  0  0  0  0  0  0
   -2.5723    1.5959   30.3534 O   0  0  0  0  0  0  0  0  0  0  0  0
  2  1  1  6  0  0  0
  2  5  1  0  0  0  0
  2  3  1  0  0  0  0
  3  4  1  0  0  0  0
  3 12  2  0  0  0  0
  5  6  1  0  0  0  0
  6  7  1  0  0  0  0
  7  8  1  0  0  0  0
  8  9  1  0  0  0  0
  9 10  1  0  0  0  0
  9 11  2  0  0  0  0
M  CHG  3   1   1   4  -1  11   1
M  END
>  <CHROM.1>
-48.90390996,-177.93481143,-58.30440657,92.10359517,-132.08905184,-151.15291526
-3.42792564,-0.19749789,28.34832168,0.29328457,-1.25435881,-1.22161331

>  <Name>
1koc cryst

>  <RI>
0

>  <Rbt.Current_Directory>
/home/itssahil/PROJECTS/Mol_Feturizer/New_Systems/rnas/1koc

>  <Rbt.Executable>
rbdock ($Id: //depot/dev/client3/rdock/2013.1/src/exe/rbdock.cxx#4 $)

>  <Rbt.Library>
libRbt.so (2013.1, Build901 2013/11/27)

>  <Rbt.Parameter_File>
/export/apps/rDock/src/rDock_2013.1_src/data/scripts/dock_solv.prm

>  <Rbt.Receptor>
prm/blind_docking_80.prm

>  <SCORE>
12.4846

>  <SCORE.INTER>
10.9493

>  <SCORE.INTER.CONST>
1

>  <SCORE.INTER.POLAR>
-3.18293

>  <SCORE.INTER.ROT>
5

>  <SCORE.INTER.SOLV>
34.0288

>  <SCORE.INTER.VDW>
-0.366967

>  <SCORE.INTER.norm>
0.912442

>  <SCORE.INTRA>
0.754031

>  <SCORE.INTRA.DIHEDRAL>
6.08414

>  <SCORE.INTRA.DIHEDRAL.0>
6.04201

>  <SCORE.INTRA.POLAR>
0

>  <SCORE.INTRA.POLAR.0>
0

>  <SCORE.INTRA.REPUL>
0

>  <SCORE.INTRA.REPUL.0>
0

>  <SCORE.INTRA.SOLV>
-0.76965

>  <SCORE.INTRA.SOLV.lig_0>
-71.0481

>  <SCORE.INTRA.VDW>
-1.90321

>  <SCORE.INTRA.VDW.0>
0.968882

>  <SCORE.INTRA.norm>
0.062836

>  <SCORE.RESTR>
0.781272

>  <SCORE.RESTR.CAVITY>
0.781272

>  <SCORE.RESTR.norm>
0.065106

>  <SCORE.SYSTEM>
0

>  <SCORE.SYSTEM.CONST>
0

>  <SCORE.SYSTEM.DIHEDRAL>
0

>  <SCORE.SYSTEM.SOLV>
0

>  <SCORE.SYSTEM.norm>
0

>  <SCORE.heavy>
12

>  <SCORE.norm>
1.04038

>  <SYMMETRIC_BONDS>
11 12 2
5 6 2

>  <RMSD>
8.893

$$$$
1koc cryst
 OpenBabel11021811393D
libRbt.so/2013.1/901 2013/11/27
 12 11  0  0  0  0  0  0  0  0999 V2000
   -4.3344    1.7606   30.3260 N   0  3  0  0  0  0  0  0  0  0  0  0
   -2.9332    1.3151   30.0595 C   0  0  2  0  0  0  0  0  0  0  0  0
   -1.9569    2.3845   30.5873 C   0  0  0  0  0  0  0  0  0  0  0  0
   -0.7975    2.3406   30.2041 O   0  5  0  0  0  0  0  0  0  0  0  0
   -2.7487    1.1031   28.5326 C   0  0  0  0  0  0  0  0  0  0  0  0
   -3.1777   -0.3087   28.1159 C   0  0  0  0  0  0  0  0  0  0  0  0
   -3.2263   -0.4008   26.5947 C   0  0  0  0  0  0  0  0  0  0  0  0
   -3.5017   -1.8074   26.1801 N   0  0  0  0  0  0  0  0  0  0  0  0
   -4.4680   -2.0700   25.3333 C   0  0  0  0  0  0  0  0  0  0  0  0
   -4.7251   -1.2467   24.3473 N   0  0  0  0  0  0  0  0  0  0  0  0
   -5.1754   -3.1608   25.4699 N   0  3  0  0  0  0  0  0  0  0  0  0
   -2.3796    3.2204   31.3721 O   0  0  0  0  0  0  0  0  0  0  0  0
  2  1  1  6  0  0  0
  2  5  1  0  0  0  0
  2  3  1  0  0  0  0
  3  4  1  0  0  0  0
  3 12  2  0  0  0  0
  5  6  1  0  0  0  0
  6  7  1  0  0  0  0
  7  8  1  0  0  0  0
  8  9  1  0  0  0  0
  9 10  1  0  0  0  0
  9 11  2  0  0  0  0
M  CHG  3   1   1   4  -1  11   1
M  END
>  <CHROM.1>
-59.33695360,-86.27889488,-164.21463960,169.75033277,174.04410060,128.74838856
-3.31457859,0.26811692,28.10026731,1.24941977,0.26784463,0.95876613

>  <Name>
1koc cryst

>  <RI>
0

>  <Rbt.Current_Directory>
/home/itssahil/PROJECTS/Mol_Feturizer/New_Systems/rnas/1koc

>  <Rbt.Executable>
rbdock ($Id: //depot/dev/client3/rdock/2013.1/src/exe/rbdock.cxx#4 $)

>  <Rbt.Library>
libRbt.so (2013.1, Build901 2013/11/27)

>  <Rbt.Parameter_File>
/export/apps/rDock/src/rDock_2013.1_src/data/scripts/dock_solv.prm

>  <Rbt.Receptor>
prm/blind_docking_80.prm

>  <SCORE>
-21.7179

>  <SCORE.INTER>
-19.4001

>  <SCORE.INTER.CONST>
1

>  <SCORE.INTER.POLAR>
-2.4421

>  <SCORE.INTER.ROT>
5

>  <SCORE.INTER.SOLV>
32.5589

>  <SCORE.INTER.VDW>
-22.5794

>  <SCORE.INTER.norm>
-1.61668

>  <SCORE.INTRA>
-2.31779

>  <SCORE.INTRA.DIHEDRAL>
0.0299745

>  <SCORE.INTRA.DIHEDRAL.0>
6.04201

>  <SCORE.INTRA.POLAR>
0

>  <SCORE.INTRA.POLAR.0>
0

>  <SCORE.INTRA.REPUL>
0

>  <SCORE.INTRA.REPUL.0>
0

>  <SCORE.INTRA.SOLV>
-1.24291

>  <SCORE.INTRA.SOLV.lig_0>
-71.0481

>  <SCORE.INTRA.VDW>
-1.71133

>  <SCORE.INTRA.VDW.0>
0.968882

>  <SCORE.INTRA.norm>
-0.19315

>  <SCORE.RESTR>
0

>  <SCORE.RESTR.CAVITY>
0

>  <SCORE.RESTR.norm>
0

>  <SCORE.SYSTEM>
0

>  <SCORE.SYSTEM.CONST>
0

>  <SCORE.SYSTEM.DIHEDRAL>
0

>  <SCORE.SYSTEM.SOLV>
0

>  <SCORE.SYSTEM.norm>
0

>  <SCORE.heavy>
12

>  <SCORE.norm>
-1.80983

>  <SYMMETRIC_BONDS>
11 12 2
5 6 2

>  <RMSD>
8.904

$$$$
1koc cryst
 OpenBabel11021811393D
libRbt.so/2013.1/901 2013/11/27
 12 11  0  0  0  0  0  0  0  0999 V2000
   -3.2687    2.9774   26.9957 N   0  3  0  0  0  0  0  0  0  0  0  0
   -3.3736    1.8206   27.9358 C   0  0  2  0  0  0  0  0  0  0  0  0
   -3.0959    2.3119   29.3700 C   0  0  0  0  0  0  0  0  0  0  0  0
   -4.0512    2.6362   30.0594 O   0  5  0  0  0  0  0  0  0  0  0  0
   -2.3508    0.7304   27.5168 C   0  0  0  0  0  0  0  0  0  0  0  0
   -2.6871    0.1611   26.1335 C   0  0  0  0  0  0  0  0  0  0  0  0
   -3.8033   -0.8697   26.2618 C   0  0  0  0  0  0  0  0  0  0  0  0
   -3.4865   -1.8265   27.3620 N   0  0  0  0  0  0  0  0  0  0  0  0
   -4.2409   -2.8808   27.5592 C   0  0  0  0  0  0  0  0  0  0  0  0
   -4.7683   -3.5160   26.5422 N   0  0  0  0  0  0  0  0  0  0  0  0
   -4.4641   -3.3038   28.7758 N   0  3  0  0  0  0  0  0  0  0  0  0
   -1.9361    2.3667   29.7509 O   0  0  0  0  0  0  0  0  0  0  0  0
  2  1  1  6  0  0  0
  2  5  1  0  0  0  0
  2  3  1  0  0  0  0
  3  4  1  0  0  0  0
  3 12  2  0  0  0  0
  5  6  1  0  0  0  0
  6  7  1  0  0  0  0
  7  8  1  0  0  0  0
  8  9  1  0  0  0  0
  9 10  1  0  0  0  0
  9 11  2  0  0  0  0
M  CHG  3   1   1   4  -1  11   1
M  END
>  <CHROM.1>
165.30354425,-64.28029807,93.54177610,-80.10305760,-48.42166290,-172.89066912
-3.46739140,0.06481595,27.86550705,-0.70608150,-1.27323044,-2.02644153

>  <Name>
1koc cryst

>  <RI>
0

>  <Rbt.Current_Directory>
/home/itssahil/PROJECTS/Mol_Feturizer/New_Systems/rnas/1koc

>  <Rbt.Executable>
rbdock ($Id: //depot/dev/client3/rdock/2013.1/src/exe/rbdock.cxx#4 $)

>  <Rbt.Library>
libRbt.so (2013.1, Build901 2013/11/27)

>  <Rbt.Parameter_File>
/export/apps/rDock/src/rDock_2013.1_src/data/scripts/dock_solv.prm

>  <Rbt.Receptor>
prm/blind_docking_100.prm

>  <SCORE>
2.19158

>  <SCORE.INTER>
2.30476

>  <SCORE.INTER.CONST>
1

>  <SCORE.INTER.POLAR>
-1.9596

>  <SCORE.INTER.ROT>
5

>  <SCORE.INTER.SOLV>
29.0434

>  <SCORE.INTER.VDW>
-8.54596

>  <SCORE.INTER.norm>
0.192063

>  <SCORE.INTRA>
-0.113176

>  <SCORE.INTRA.DIHEDRAL>
-0.00551465

>  <SCORE.INTRA.DIHEDRAL.0>
6.04201

>  <SCORE.INTRA.POLAR>
0

>  <SCORE.INTRA.POLAR.0>
0

>  <SCORE.INTRA.REPUL>
0

>  <SCORE.INTRA.REPUL.0>
0

>  <SCORE.INTRA.SOLV>
-0.394694

>  <SCORE.INTRA.SOLV.lig_0>
-71.0481

>  <SCORE.INTRA.VDW>
0.0869283

>  <SCORE.INTRA.VDW.0>
0.968882

>  <SCORE.INTRA.norm>
-0.00943133

>  <SCORE.RESTR>
0

>  <SCORE.RESTR.CAVITY>
0

>  <SCORE.RESTR.norm>
0

>  <SCORE.SYSTEM>
0

>  <SCORE.SYSTEM.CONST>
0

>  <SCORE.SYSTEM.DIHEDRAL>
0

>  <SCORE.SYSTEM.SOLV>
0

>  <SCORE.SYSTEM.norm>
0

>  <SCORE.heavy>
12

>  <SCORE.norm>
0.182632

>  <SYMMETRIC_BONDS>
11 12 2
5 6 2

>  <RMSD>
8.930

$$$$
1koc cryst
 OpenBabel11021811393D
libRbt.so/2013.1/901 2013/11/27
 12 11  0  0  0  0  0  0  0  0999 V2000
   -3.4348    3.4000   26.7063 N   0  3  0  0  0  0  0  0  0  0  0  0
   -3.4367    2.0986   27.4406 C   0  0  2  0  0  0  0  0  0  0  0  0
   -2.8939    2.3246   28.8653 C   0  0  0  0  0  0  0  0  0  0  0  0
   -3.6864    2.2781   29.7942 O   0  5  0  0  0  0  0  0  0  0  0  0
   -2.5571    1.0781   26.6690 C   0  0  0  0  0  0  0  0  0  0  0  0
   -3.4188   -0.0051   26.0096 C   0  0  0  0  0  0  0  0  0  0  0  0
   -2.9212   -1.3830   26.4326 C   0  0  0  0  0  0  0  0  0  0  0  0
   -4.0818   -2.2837   26.6930 N   0  0  0  0  0  0  0  0  0  0  0  0
   -4.1917   -2.9052   27.8425 C   0  0  0  0  0  0  0  0  0  0  0  0
   -3.8150   -2.3172   28.9508 N   0  0  0  0  0  0  0  0  0  0  0  0
   -4.6841   -4.1155   27.8843 N   0  3  0  0  0  0  0  0  0  0  0  0
   -1.7010    2.5511   29.0033 O   0  0  0  0  0  0  0  0  0  0  0  0
  2  1  1  6  0  0  0
  2  5  1  0  0  0  0
  2  3  1  0  0  0  0
  3  4  1  0  0  0  0
  3 12  2  0  0  0  0
  5  6  1  0  0  0  0
  6  7  1  0  0  0  0
  7  8  1  0  0  0  0
  8  9  1  0  0  0  0
  9 10  1  0  0  0  0
  9 11  2  0  0  0  0
M  CHG  3   1   1   4  -1  11   1
M  END
>  <CHROM.1>
-82.48796235,-108.98894714,107.75808398,-126.28977375,139.58619412,-125.59106343
-3.41065396,0.08039344,27.70791141,-0.18894666,-1.35107011,-1.67824326

>  <Name>
1koc cryst

>  <RI>
0

>  <Rbt.Current_Directory>
/home/itssahil/PROJECTS/Mol_Feturizer/New_Systems/rnas/1koc

>  <Rbt.Executable>
rbdock ($Id: //depot/dev/client3/rdock/2013.1/src/exe/rbdock.cxx#4 $)

>  <Rbt.Library>
libRbt.so (2013.1, Build901 2013/11/27)

>  <Rbt.Parameter_File>
/export/apps/rDock/src/rDock_2013.1_src/data/scripts/dock_solv.prm

>  <Rbt.Receptor>
prm/blind_docking_60.prm

>  <SCORE>
-13.2375

>  <SCORE.INTER>
-17.2627

>  <SCORE.INTER.CONST>
1

>  <SCORE.INTER.POLAR>
-3.74197

>  <SCORE.INTER.ROT>
5

>  <SCORE.INTER.SOLV>
30.4093

>  <SCORE.INTER.VDW>
-16.105

>  <SCORE.INTER.norm>
-1.43856

>  <SCORE.INTRA>
4.0252

>  <SCORE.INTRA.DIHEDRAL>
13.3639

>  <SCORE.INTRA.DIHEDRAL.0>
6.04201

>  <SCORE.INTRA.POLAR>
0

>  <SCORE.INTRA.POLAR.0>
0

>  <SCORE.INTRA.REPUL>
0

>  <SCORE.INTRA.REPUL.0>
0

>  <SCORE.INTRA.SOLV>
-1.03851

>  <SCORE.INTRA.SOLV.lig_0>
-71.0481

>  <SCORE.INTRA.VDW>
-2.13749

>  <SCORE.INTRA.VDW.0>
0.968882

>  <SCORE.INTRA.norm>
0.335434

>  <SCORE.RESTR>
0

>  <SCORE.RESTR.CAVITY>
0

>  <SCORE.RESTR.norm>
0

>  <SCORE.SYSTEM>
0

>  <SCORE.SYSTEM.CONST>
0

>  <SCORE.SYSTEM.DIHEDRAL>
0

>  <SCORE.SYSTEM.SOLV>
0

>  <SCORE.SYSTEM.norm>
0

>  <SCORE.heavy>
12

>  <SCORE.norm>
-1.10312

>  <SYMMETRIC_BONDS>
11 12 2
5 6 2

>  <RMSD>
8.938

$$$$
1koc cryst
 OpenBabel11021811393D
libRbt.so/2013.1/901 2013/11/27
 12 11  0  0  0  0  0  0  0  0999 V2000
   -4.0114    3.7913   32.5339 N   0  3  0  0  0  0  0  0  0  0  0  0
   -4.4472    3.2077   31.2292 C   0  0  2  0  0  0  0  0  0  0  0  0
   -5.9376    2.8260   31.3223 C   0  0  0  0  0  0  0  0  0  0  0  0
   -6.2554    1.9458   32.1079 O   0  5  0  0  0  0  0  0  0  0  0  0
   -3.5760    1.9622   30.9129 C   0  0  0  0  0  0  0  0  0  0  0  0
   -3.7853    1.4954   29.4675 C   0  0  0  0  0  0  0  0  0  0  0  0
   -3.0237    0.1952   29.2343 C   0  0  0  0  0  0  0  0  0  0  0  0
   -3.1520   -0.2190   27.8066 N   0  0  0  0  0  0  0  0  0  0  0  0
   -2.8275    0.6119   26.8453 C   0  0  0  0  0  0  0  0  0  0  0  0
   -1.8148    1.4298   26.9921 N   0  0  0  0  0  0  0  0  0  0  0  0
   -3.5140    0.6211   25.7329 N   0  3  0  0  0  0  0  0  0  0  0  0
   -6.7329    3.4097   30.6011 O   0  0  0  0  0  0  0  0  0  0  0  0
  2  1  1  1  0  0  0
  2  5  1  0  0  0  0
  2  3  1  0  0  0  0
  3  4  1  0  0  0  0
  3 12  2  0  0  0  0
  5  6  1  0  0  0  0
  6  7  1  0  0  0  0
  7  8  1  0  0  0  0
  8  9  1  0  0  0  0
  9 10  1  0  0  0  0
  9 11  2  0  0  0  0
M  CHG  3   1   1   4  -1  11   1
M  END
>  <CHROM.1>
-54.89483940,-168.54051710,-64.69211333,-174.44243455,-176.42559278,54.12130098
-4.09481614,1.79355239,29.57481790,-2.01388821,0.08477807,-1.99881252

>  <Name>
1koc cryst

>  <RI>
0

>  <Rbt.Current_Directory>
/home/itssahil/PROJECTS/Mol_Feturizer/New_Systems/rnas/1koc

>  <Rbt.Executable>
rbdock ($Id: //depot/dev/client3/rdock/2013.1/src/exe/rbdock.cxx#4 $)

>  <Rbt.Library>
libRbt.so (2013.1, Build901 2013/11/27)

>  <Rbt.Parameter_File>
/export/apps/rDock/src/rDock_2013.1_src/data/scripts/dock_solv.prm

>  <Rbt.Receptor>
prm/blind_docking_60.prm

>  <SCORE>
-19.8937

>  <SCORE.INTER>
-16.7806

>  <SCORE.INTER.CONST>
1

>  <SCORE.INTER.POLAR>
-2.30955

>  <SCORE.INTER.ROT>
5

>  <SCORE.INTER.SOLV>
29.1975

>  <SCORE.INTER.VDW>
-20.1544

>  <SCORE.INTER.norm>
-1.39838

>  <SCORE.INTRA>
-3.12104

>  <SCORE.INTRA.DIHEDRAL>
-1.90522

>  <SCORE.INTRA.DIHEDRAL.0>
6.04201

>  <SCORE.INTRA.POLAR>
0

>  <SCORE.INTRA.POLAR.0>
0

>  <SCORE.INTRA.REPUL>
0

>  <SCORE.INTRA.REPUL.0>
0

>  <SCORE.INTRA.SOLV>
-1.03041

>  <SCORE.INTRA.SOLV.lig_0>
-71.0481

>  <SCORE.INTRA.VDW>
-1.65323

>  <SCORE.INTRA.VDW.0>
0.968882

>  <SCORE.INTRA.norm>
-0.260087

>  <SCORE.RESTR>
0.00789826

>  <SCORE.RESTR.CAVITY>
0.00789826

>  <SCORE.RESTR.norm>
0.000658188

>  <SCORE.SYSTEM>
0

>  <SCORE.SYSTEM.CONST>
0

>  <SCORE.SYSTEM.DIHEDRAL>
0

>  <SCORE.SYSTEM.SOLV>
0

>  <SCORE.SYSTEM.norm>
0

>  <SCORE.heavy>
12

>  <SCORE.norm>
-1.65781

>  <SYMMETRIC_BONDS>
11 12 2
5 6 2

>  <RMSD>
8.953

$$$$
1koc cryst
 OpenBabel11021811393D
libRbt.so/2013.1/901 2013/11/27
 12 11  0  0  0  0  0  0  0  0999 V2000
   -3.1674    3.0122   26.8253 N   0  3  0  0  0  0  0  0  0  0  0  0
   -3.5437    2.0760   27.9275 C   0  0  2  0  0  0  0  0  0  0  0  0
   -4.3149    2.8575   29.0092 C   0  0  0  0  0  0  0  0  0  0  0  0
   -5.3229    3.4600   28.6715 O   0  5  0  0  0  0  0  0  0  0  0  0
   -2.2558    1.4404   28.5169 C   0  0  0  0  0  0  0  0  0  0  0  0
   -2.3017   -0.0891   28.4207 C   0  0  0  0  0  0  0  0  0  0  0  0
   -3.6479   -0.5937   28.9286 C   0  0  0  0  0  0  0  0  0  0  0  0
   -3.6758   -2.0852   28.8963 N   0  0  0  0  0  0  0  0  0  0  0  0
   -3.9752   -2.7172   27.7870 C   0  0  0  0  0  0  0  0  0  0  0  0
   -3.5821   -2.2446   26.6302 N   0  0  0  0  0  0  0  0  0  0  0  0
   -4.6647   -3.8267   27.8351 N   0  3  0  0  0  0  0  0  0  0  0  0
   -3.8807    2.8506   30.1515 O   0  0  0  0  0  0  0  0  0  0  0  0
  2  1  1  6  0  0  0
  2  5  1  0  0  0  0
  2  3  1  0  0  0  0
  3  4  1  0  0  0  0
  3 12  2  0  0  0  0
  5  6  1  0  0  0  0
  6  7  1  0  0  0  0
  7  8  1  0  0  0  0
  8  9  1  0  0  0  0
  9 10  1  0  0  0  0
  9 11  2  0  0  0  0
M  CHG  3   1   1   4  -1  11   1
M  END
>  <CHROM.1>
-168.77952801,-122.09596289,56.75283067,-47.71741839,-177.41736456,-83.47790519
-3.70462138,0.35754091,28.27413323,-1.56392320,-1.07650978,-3.00415423

>  <Name>
1koc cryst

>  <RI>
0

>  <Rbt.Current_Directory>
/home/itssahil/PROJECTS/Mol_Feturizer/New_Systems/rnas/1koc

>  <Rbt.Executable>
rbdock ($Id: //depot/dev/client3/rdock/2013.1/src/exe/rbdock.cxx#4 $)

>  <Rbt.Library>
libRbt.so (2013.1, Build901 2013/11/27)

>  <Rbt.Parameter_File>
/export/apps/rDock/src/rDock_2013.1_src/data/scripts/dock_solv.prm

>  <Rbt.Receptor>
prm/blind_docking_80.prm

>  <SCORE>
-11.649

>  <SCORE.INTER>
-14.3079

>  <SCORE.INTER.CONST>
1

>  <SCORE.INTER.POLAR>
-3.20923

>  <SCORE.INTER.ROT>
5

>  <SCORE.INTER.SOLV>
28.9956

>  <SCORE.INTER.VDW>
-15.4397

>  <SCORE.INTER.norm>
-1.19233

>  <SCORE.INTRA>
2.65894

>  <SCORE.INTRA.DIHEDRAL>
3.46461

>  <SCORE.INTRA.DIHEDRAL.0>
6.04201

>  <SCORE.INTRA.POLAR>
0

>  <SCORE.INTRA.POLAR.0>
0

>  <SCORE.INTRA.REPUL>
0

>  <SCORE.INTRA.REPUL.0>
0

>  <SCORE.INTRA.SOLV>
-0.1325

>  <SCORE.INTRA.SOLV.lig_0>
-71.0481

>  <SCORE.INTRA.VDW>
0.992885

>  <SCORE.INTRA.VDW.0>
0.968882

>  <SCORE.INTRA.norm>
0.221578

>  <SCORE.RESTR>
0

>  <SCORE.RESTR.CAVITY>
0

>  <SCORE.RESTR.norm>
0

>  <SCORE.SYSTEM>
0

>  <SCORE.SYSTEM.CONST>
0

>  <SCORE.SYSTEM.DIHEDRAL>
0

>  <SCORE.SYSTEM.SOLV>
0

>  <SCORE.SYSTEM.norm>
0

>  <SCORE.heavy>
12

>  <SCORE.norm>
-0.970748

>  <SYMMETRIC_BONDS>
11 12 2
5 6 2

>  <RMSD>
8.965

$$$$
1koc cryst
 OpenBabel11021811393D
libRbt.so/2013.1/901 2013/11/27
 12 11  0  0  0  0  0  0  0  0999 V2000
   -1.2736    0.3946   28.5327 N   0  3  0  0  0  0  0  0  0  0  0  0
   -2.6054    1.0011   28.8348 C   0  0  2  0  0  0  0  0  0  0  0  0
   -2.9545    2.0211   27.7334 C   0  0  0  0  0  0  0  0  0  0  0  0
   -2.0468    2.6921   27.2656 O   0  5  0  0  0  0  0  0  0  0  0  0
   -2.5479    1.6874   30.2261 C   0  0  0  0  0  0  0  0  0  0  0  0
   -3.9446    1.7858   30.8509 C   0  0  0  0  0  0  0  0  0  0  0  0
   -4.0254    3.0286   31.7306 C   0  0  0  0  0  0  0  0  0  0  0  0
   -5.4249    3.2196   32.2115 N   0  0  0  0  0  0  0  0  0  0  0  0
   -6.2724    3.9357   31.5125 C   0  0  0  0  0  0  0  0  0  0  0  0
   -6.2418    3.9047   30.2033 N   0  0  0  0  0  0  0  0  0  0  0  0
   -7.1556    4.6804   32.1242 N   0  3  0  0  0  0  0  0  0  0  0  0
   -4.1212    2.1227   27.3844 O   0  0  0  0  0  0  0  0  0  0  0  0
  2  1  1  6  0  0  0
  2  5  1  0  0  0  0
  2  3  1  0  0  0  0
  3  4  1  0  0  0  0
  3 12  2  0  0  0  0
  5  6  1  0  0  0  0
  6  7  1  0  0  0  0
  7  8  1  0  0  0  0
  8  9  1  0  0  0  0
  9 10  1  0  0  0  0
  9 11  2  0  0  0  0
M  CHG  3   1   1   4  -1  11   1
M  END
>  <CHROM.1>
177.01632228,-155.55196684,-36.71109427,-149.16405807,173.31964641,-90.02122727
-4.04548933,2.54069590,29.85827110,-0.57969782,-0.63050077,1.69536813

>  <Name>
1koc cryst

>  <RI>
0

>  <Rbt.Current_Directory>
/home/itssahil/PROJECTS/Mol_Feturizer/New_Systems/rnas/1koc

>  <Rbt.Executable>
rbdock ($Id: //depot/dev/client3/rdock/2013.1/src/exe/rbdock.cxx#4 $)

>  <Rbt.Library>
libRbt.so (2013.1, Build901 2013/11/27)

>  <Rbt.Parameter_File>
/export/apps/rDock/src/rDock_2013.1_src/data/scripts/dock_solv.prm

>  <Rbt.Receptor>
prm/blind_docking_60.prm

>  <SCORE>
-23.566

>  <SCORE.INTER>
-23.5258

>  <SCORE.INTER.CONST>
1

>  <SCORE.INTER.POLAR>
-4.12353

>  <SCORE.INTER.ROT>
5

>  <SCORE.INTER.SOLV>
25.8422

>  <SCORE.INTER.VDW>
-17.4862

>  <SCORE.INTER.norm>
-1.96048

>  <SCORE.INTRA>
-0.660518

>  <SCORE.INTRA.DIHEDRAL>
2.61412

>  <SCORE.INTRA.DIHEDRAL.0>
6.04201

>  <SCORE.INTRA.POLAR>
0

>  <SCORE.INTRA.POLAR.0>
0

>  <SCORE.INTRA.REPUL>
0

>  <SCORE.INTRA.REPUL.0>
0

>  <SCORE.INTRA.SOLV>
0.214588

>  <SCORE.INTRA.SOLV.lig_0>
-71.0481

>  <SCORE.INTRA.VDW>
-2.07487

>  <SCORE.INTRA.VDW.0>
0.968882

>  <SCORE.INTRA.norm>
-0.0550432

>  <SCORE.RESTR>
0.620368

>  <SCORE.RESTR.CAVITY>
0.620368

>  <SCORE.RESTR.norm>
0.0516973

>  <SCORE.SYSTEM>
0

>  <SCORE.SYSTEM.CONST>
0

>  <SCORE.SYSTEM.DIHEDRAL>
0

>  <SCORE.SYSTEM.SOLV>
0

>  <SCORE.SYSTEM.norm>
0

>  <SCORE.heavy>
12

>  <SCORE.norm>
-1.96383

>  <SYMMETRIC_BONDS>
11 12 2
5 6 2

>  <RMSD>
8.966

$$$$
1koc cryst
 OpenBabel11021811393D
libRbt.so/2013.1/901 2013/11/27
 12 11  0  0  0  0  0  0  0  0999 V2000
   -3.2237    2.9479   27.0196 N   0  3  0  0  0  0  0  0  0  0  0  0
   -3.1832    1.7871   27.9597 C   0  0  2  0  0  0  0  0  0  0  0  0
   -2.6151    2.2565   29.3134 C   0  0  0  0  0  0  0  0  0  0  0  0
   -1.4535    2.6341   29.3471 O   0  5  0  0  0  0  0  0  0  0  0  0
   -2.2993    0.6673   27.3474 C   0  0  0  0  0  0  0  0  0  0  0  0
   -2.6966    0.3838   25.8939 C   0  0  0  0  0  0  0  0  0  0  0  0
   -3.8302   -0.6354   25.8626 C   0  0  0  0  0  0  0  0  0  0  0  0
   -3.4607   -1.8304   26.6761 N   0  0  0  0  0  0  0  0  0  0  0  0
   -4.2715   -2.8587   26.7468 C   0  0  0  0  0  0  0  0  0  0  0  0
   -4.9743   -3.2196   25.7020 N   0  0  0  0  0  0  0  0  0  0  0  0
   -4.3758   -3.5304   27.8634 N   0  3  0  0  0  0  0  0  0  0  0  0
   -3.3442    2.2203   30.2934 O   0  0  0  0  0  0  0  0  0  0  0  0
  2  1  1  6  0  0  0
  2  5  1  0  0  0  0
  2  3  1  0  0  0  0
  3  4  1  0  0  0  0
  3 12  2  0  0  0  0
  5  6  1  0  0  0  0
  6  7  1  0  0  0  0
  7  8  1  0  0  0  0
  8  9  1  0  0  0  0
  9 10  1  0  0  0  0
  9 11  2  0  0  0  0
M  CHG  3   1   1   4  -1  11   1
M  END
>  <CHROM.1>
153.88277001,-49.05790622,-65.23851478,-86.49157596,-51.85814955,-177.36733911
-3.31708242,0.08031152,27.50967459,-0.29714204,-1.25813869,-1.46873659

>  <Name>
1koc cryst

>  <RI>
0

>  <Rbt.Current_Directory>
/home/itssahil/PROJECTS/Mol_Feturizer/New_Systems/rnas/1koc

>  <Rbt.Executable>
rbdock ($Id: //depot/dev/client3/rdock/2013.1/src/exe/rbdock.cxx#4 $)

>  <Rbt.Library>
libRbt.so (2013.1, Build901 2013/11/27)

>  <Rbt.Parameter_File>
/export/apps/rDock/src/rDock_2013.1_src/data/scripts/dock_solv.prm

>  <Rbt.Receptor>
prm/blind_docking_100.prm

>  <SCORE>
-0.49589

>  <SCORE.INTER>
-2.83058

>  <SCORE.INTER.CONST>
1

>  <SCORE.INTER.POLAR>
-2.43345

>  <SCORE.INTER.ROT>
5

>  <SCORE.INTER.SOLV>
29.1634

>  <SCORE.INTER.VDW>
-10.43

>  <SCORE.INTER.norm>
-0.235881

>  <SCORE.INTRA>
2.28179

>  <SCORE.INTRA.DIHEDRAL>
1.99333

>  <SCORE.INTRA.DIHEDRAL.0>
6.04201

>  <SCORE.INTRA.POLAR>
0

>  <SCORE.INTRA.POLAR.0>
0

>  <SCORE.INTRA.REPUL>
0

>  <SCORE.INTRA.REPUL.0>
0

>  <SCORE.INTRA.SOLV>
-0.0752938

>  <SCORE.INTRA.SOLV.lig_0>
-71.0481

>  <SCORE.INTRA.VDW>
1.32277

>  <SCORE.INTRA.VDW.0>
0.968882

>  <SCORE.INTRA.norm>
0.190149

>  <SCORE.RESTR>
0.0528962

>  <SCORE.RESTR.CAVITY>
0.0528962

>  <SCORE.RESTR.norm>
0.00440801

>  <SCORE.SYSTEM>
0

>  <SCORE.SYSTEM.CONST>
0

>  <SCORE.SYSTEM.DIHEDRAL>
0

>  <SCORE.SYSTEM.SOLV>
0

>  <SCORE.SYSTEM.norm>
0

>  <SCORE.heavy>
12

>  <SCORE.norm>
-0.0413242

>  <SYMMETRIC_BONDS>
11 12 2
5 6 2

>  <RMSD>
8.981

$$$$
1koc cryst
 OpenBabel11021811393D
libRbt.so/2013.1/901 2013/11/27
 12 11  0  0  0  0  0  0  0  0999 V2000
   -2.6561    0.9549   26.4131 N   0  3  0  0  0  0  0  0  0  0  0  0
   -2.3485    0.9127   27.8747 C   0  0  2  0  0  0  0  0  0  0  0  0
   -2.7740   -0.4572   28.4384 C   0  0  0  0  0  0  0  0  0  0  0  0
   -2.1407   -0.9110   29.3796 O   0  5  0  0  0  0  0  0  0  0  0  0
   -3.1076    2.0641   28.5876 C   0  0  0  0  0  0  0  0  0  0  0  0
   -2.6542    2.2041   30.0456 C   0  0  0  0  0  0  0  0  0  0  0  0
   -3.8350    1.9481   30.9757 C   0  0  0  0  0  0  0  0  0  0  0  0
   -4.8728    3.0021   30.7800 N   0  0  0  0  0  0  0  0  0  0  0  0
   -5.3259    3.6825   31.8054 C   0  0  0  0  0  0  0  0  0  0  0  0
   -4.5235    4.0112   32.7874 N   0  0  0  0  0  0  0  0  0  0  0  0
   -6.5828    4.0393   31.8465 N   0  3  0  0  0  0  0  0  0  0  0  0
   -3.7157   -1.0338   27.9148 O   0  0  0  0  0  0  0  0  0  0  0  0
  2  1  1  6  0  0  0
  2  5  1  0  0  0  0
  2  3  1  0  0  0  0
  3  4  1  0  0  0  0
  3 12  2  0  0  0  0
  5  6  1  0  0  0  0
  6  7  1  0  0  0  0
  7  8  1  0  0  0  0
  8  9  1  0  0  0  0
  9 10  1  0  0  0  0
  9 11  2  0  0  0  0
M  CHG  3   1   1   4  -1  11   1
M  END
>  <CHROM.1>
-76.74559660,-170.95174538,149.27720087,-118.06469120,-64.59291487,-126.75347920
-3.72943184,1.69955089,29.71604082,0.57669752,1.04303813,-1.38688152

>  <Name>
1koc cryst

>  <RI>
0

>  <Rbt.Current_Directory>
/home/itssahil/PROJECTS/Mol_Feturizer/New_Systems/rnas/1koc

>  <Rbt.Executable>
rbdock ($Id: //depot/dev/client3/rdock/2013.1/src/exe/rbdock.cxx#4 $)

>  <Rbt.Library>
libRbt.so (2013.1, Build901 2013/11/27)

>  <Rbt.Parameter_File>
/export/apps/rDock/src/rDock_2013.1_src/data/scripts/dock_solv.prm

>  <Rbt.Receptor>
prm/blind_docking_100.prm

>  <SCORE>
-21.8046

>  <SCORE.INTER>
-22.0574

>  <SCORE.INTER.CONST>
1

>  <SCORE.INTER.POLAR>
-3.67211

>  <SCORE.INTER.ROT>
5

>  <SCORE.INTER.SOLV>
29.3724

>  <SCORE.INTER.VDW>
-19.1887

>  <SCORE.INTER.norm>
-1.83812

>  <SCORE.INTRA>
0.252806

>  <SCORE.INTRA.DIHEDRAL>
4.5202

>  <SCORE.INTRA.DIHEDRAL.0>
6.04201

>  <SCORE.INTRA.POLAR>
0

>  <SCORE.INTRA.POLAR.0>
0

>  <SCORE.INTRA.REPUL>
0

>  <SCORE.INTRA.REPUL.0>
0

>  <SCORE.INTRA.SOLV>
-0.0795176

>  <SCORE.INTRA.SOLV.lig_0>
-71.0481

>  <SCORE.INTRA.VDW>
-1.96753

>  <SCORE.INTRA.VDW.0>
0.968882

>  <SCORE.INTRA.norm>
0.0210672

>  <SCORE.RESTR>
0

>  <SCORE.RESTR.CAVITY>
0

>  <SCORE.RESTR.norm>
0

>  <SCORE.SYSTEM>
0

>  <SCORE.SYSTEM.CONST>
0

>  <SCORE.SYSTEM.DIHEDRAL>
0

>  <SCORE.SYSTEM.SOLV>
0

>  <SCORE.SYSTEM.norm>
0

>  <SCORE.heavy>
12

>  <SCORE.norm>
-1.81705

>  <SYMMETRIC_BONDS>
11 12 2
5 6 2

>  <RMSD>
8.986

$$$$
1koc cryst
 OpenBabel11021811393D
libRbt.so/2013.1/901 2013/11/27
 12 11  0  0  0  0  0  0  0  0999 V2000
   -5.4737    3.0338   32.7370 N   0  3  0  0  0  0  0  0  0  0  0  0
   -4.9617    3.2024   31.3434 C   0  0  2  0  0  0  0  0  0  0  0  0
   -6.1202    3.6568   30.4340 C   0  0  0  0  0  0  0  0  0  0  0  0
   -6.8373    2.7959   29.9466 O   0  5  0  0  0  0  0  0  0  0  0  0
   -4.3696    1.8538   30.8525 C   0  0  0  0  0  0  0  0  0  0  0  0
   -3.8113    1.9817   29.4302 C   0  0  0  0  0  0  0  0  0  0  0  0
   -2.3249    1.6415   29.4313 C   0  0  0  0  0  0  0  0  0  0  0  0
   -1.9969    0.7966   28.2461 N   0  0  0  0  0  0  0  0  0  0  0  0
   -2.5666    1.0315   27.0885 C   0  0  0  0  0  0  0  0  0  0  0  0
   -2.8210    2.2608   26.7142 N   0  0  0  0  0  0  0  0  0  0  0  0
   -2.8778    0.0352   26.3015 N   0  3  0  0  0  0  0  0  0  0  0  0
   -6.2644    4.8532   30.2310 O   0  0  0  0  0  0  0  0  0  0  0  0
  2  1  1  1  0  0  0
  2  5  1  0  0  0  0
  2  3  1  0  0  0  0
  3  4  1  0  0  0  0
  3 12  2  0  0  0  0
  5  6  1  0  0  0  0
  6  7  1  0  0  0  0
  7  8  1  0  0  0  0
  8  9  1  0  0  0  0
  9 10  1  0  0  0  0
  9 11  2  0  0  0  0
M  CHG  3   1   1   4  -1  11   1
M  END
>  <CHROM.1>
-63.76815079,-179.18041049,-85.78388577,120.38821573,137.73301834,38.49986346
-4.22672014,2.26555758,29.40111135,-2.37448058,0.64136153,-1.57950057

>  <Name>
1koc cryst

>  <RI>
0

>  <Rbt.Current_Directory>
/home/itssahil/PROJECTS/Mol_Feturizer/New_Systems/rnas/1koc

>  <Rbt.Executable>
rbdock ($Id: //depot/dev/client3/rdock/2013.1/src/exe/rbdock.cxx#4 $)

>  <Rbt.Library>
libRbt.so (2013.1, Build901 2013/11/27)

>  <Rbt.Parameter_File>
/export/apps/rDock/src/rDock_2013.1_src/data/scripts/dock_solv.prm

>  <Rbt.Receptor>
prm/blind_docking_60.prm

>  <SCORE>
-15.9592

>  <SCORE.INTER>
-19.4113

>  <SCORE.INTER.CONST>
1

>  <SCORE.INTER.POLAR>
-3.02451

>  <SCORE.INTER.ROT>
5

>  <SCORE.INTER.SOLV>
26.4566

>  <SCORE.INTER.VDW>
-18.6114

>  <SCORE.INTER.norm>
-1.61761

>  <SCORE.INTRA>
3.45158

>  <SCORE.INTRA.DIHEDRAL>
7.98603

>  <SCORE.INTRA.DIHEDRAL.0>
6.04201

>  <SCORE.INTRA.POLAR>
0

>  <SCORE.INTRA.POLAR.0>
0

>  <SCORE.INTRA.REPUL>
0

>  <SCORE.INTRA.REPUL.0>
0

>  <SCORE.INTRA.SOLV>
-0.871962

>  <SCORE.INTRA.SOLV.lig_0>
-71.0481

>  <SCORE.INTRA.VDW>
-0.105451

>  <SCORE.INTRA.VDW.0>
0.968882

>  <SCORE.INTRA.norm>
0.287632

>  <SCORE.RESTR>
0.000479507

>  <SCORE.RESTR.CAVITY>
0.000479507

>  <SCORE.RESTR.norm>
3.99589e-05

>  <SCORE.SYSTEM>
0

>  <SCORE.SYSTEM.CONST>
0

>  <SCORE.SYSTEM.DIHEDRAL>
0

>  <SCORE.SYSTEM.SOLV>
0

>  <SCORE.SYSTEM.norm>
0

>  <SCORE.heavy>
12

>  <SCORE.norm>
-1.32994

>  <SYMMETRIC_BONDS>
11 12 2
5 6 2

>  <RMSD>
8.992

$$$$
1koc cryst
 OpenBabel11021811393D
libRbt.so/2013.1/901 2013/11/27
 12 11  0  0  0  0  0  0  0  0999 V2000
   -2.6865    0.6169   26.2823 N   0  3  0  0  0  0  0  0  0  0  0  0
   -3.2753    1.3892   27.4180 C   0  0  2  0  0  0  0  0  0  0  0  0
   -3.2345    2.8920   27.0783 C   0  0  0  0  0  0  0  0  0  0  0  0
   -4.2982    3.4738   26.9259 O   0  5  0  0  0  0  0  0  0  0  0  0
   -2.4658    1.0918   28.7090 C   0  0  0  0  0  0  0  0  0  0  0  0
   -3.3782    1.0774   29.9411 C   0  0  0  0  0  0  0  0  0  0  0  0
   -3.9814    2.4625   30.1476 C   0  0  0  0  0  0  0  0  0  0  0  0
   -4.8490    2.4622   31.3615 N   0  0  0  0  0  0  0  0  0  0  0  0
   -6.0847    2.8955   31.2912 C   0  0  0  0  0  0  0  0  0  0  0  0
   -6.8033    2.6733   30.2186 N   0  0  0  0  0  0  0  0  0  0  0  0
   -6.6045    3.5480   32.2976 N   0  3  0  0  0  0  0  0  0  0  0  0
   -2.1445    3.4327   26.9652 O   0  0  0  0  0  0  0  0  0  0  0  0
  2  1  1  6  0  0  0
  2  5  1  0  0  0  0
  2  3  1  0  0  0  0
  3  4  1  0  0  0  0
  3 12  2  0  0  0  0
  5  6  1  0  0  0  0
  6  7  1  0  0  0  0
  7  8  1  0  0  0  0
  8  9  1  0  0  0  0
  9 10  1  0  0  0  0
  9 11  2  0  0  0  0
M  CHG  3   1   1   4  -1  11   1
M  END
>  <CHROM.1>
90.91468161,-145.04177451,114.13565229,-63.77764201,-178.86590188,-127.48131767
-4.16107059,2.33835361,29.02791135,-0.65122183,-0.75106421,2.07865384

>  <Name>
1koc cryst

>  <RI>
0

>  <Rbt.Current_Directory>
/home/itssahil/PROJECTS/Mol_Feturizer/New_Systems/rnas/1koc

>  <Rbt.Executable>
rbdock ($Id: //depot/dev/client3/rdock/2013.1/src/exe/rbdock.cxx#4 $)

>  <Rbt.Library>
libRbt.so (2013.1, Build901 2013/11/27)

>  <Rbt.Parameter_File>
/export/apps/rDock/src/rDock_2013.1_src/data/scripts/dock_solv.prm

>  <Rbt.Receptor>
prm/blind_docking_40.prm

>  <SCORE>
-26.4727

>  <SCORE.INTER>
-26.3746

>  <SCORE.INTER.CONST>
1

>  <SCORE.INTER.POLAR>
-4.99891

>  <SCORE.INTER.ROT>
5

>  <SCORE.INTER.SOLV>
25.9075

>  <SCORE.INTER.VDW>
-16.4892

>  <SCORE.INTER.norm>
-2.19788

>  <SCORE.INTRA>
-0.282936

>  <SCORE.INTRA.DIHEDRAL>
2.56995

>  <SCORE.INTRA.DIHEDRAL.0>
6.04201

>  <SCORE.INTRA.POLAR>
0

>  <SCORE.INTRA.POLAR.0>
0

>  <SCORE.INTRA.REPUL>
0

>  <SCORE.INTRA.REPUL.0>
0

>  <SCORE.INTRA.SOLV>
-0.0408686

>  <SCORE.INTRA.SOLV.lig_0>
-71.0481

>  <SCORE.INTRA.VDW>
-1.54748

>  <SCORE.INTRA.VDW.0>
0.968882

>  <SCORE.INTRA.norm>
-0.023578

>  <SCORE.RESTR>
0.184871

>  <SCORE.RESTR.CAVITY>
0.184871

>  <SCORE.RESTR.norm>
0.0154059

>  <SCORE.SYSTEM>
0

>  <SCORE.SYSTEM.CONST>
0

>  <SCORE.SYSTEM.DIHEDRAL>
0

>  <SCORE.SYSTEM.SOLV>
0

>  <SCORE.SYSTEM.norm>
0

>  <SCORE.heavy>
12

>  <SCORE.norm>
-2.20605

>  <SYMMETRIC_BONDS>
11 12 2
5 6 2

>  <RMSD>
8.999

$$$$
1koc cryst
 OpenBabel11021811393D
libRbt.so/2013.1/901 2013/11/27
 12 11  0  0  0  0  0  0  0  0999 V2000
   -3.3511    3.3220   26.7020 N   0  3  0  0  0  0  0  0  0  0  0  0
   -3.4527    1.9910   27.3736 C   0  0  2  0  0  0  0  0  0  0  0  0
   -2.8101    2.0832   28.7715 C   0  0  0  0  0  0  0  0  0  0  0  0
   -1.6183    2.3447   28.8379 O   0  5  0  0  0  0  0  0  0  0  0  0
   -2.7329    0.9259   26.5032 C   0  0  0  0  0  0  0  0  0  0  0  0
   -3.7216    0.2151   25.5715 C   0  0  0  0  0  0  0  0  0  0  0  0
   -3.6466   -1.2908   25.7985 C   0  0  0  0  0  0  0  0  0  0  0  0
   -3.3441   -1.5734   27.2320 N   0  0  0  0  0  0  0  0  0  0  0  0
   -4.0360   -2.4730   27.8890 C   0  0  0  0  0  0  0  0  0  0  0  0
   -4.4440   -3.5626   27.2870 N   0  0  0  0  0  0  0  0  0  0  0  0
   -4.3161   -2.2849   29.1519 N   0  3  0  0  0  0  0  0  0  0  0  0
   -3.5145    1.8804   29.7492 O   0  0  0  0  0  0  0  0  0  0  0  0
  2  1  1  6  0  0  0
  2  5  1  0  0  0  0
  2  3  1  0  0  0  0
  3  4  1  0  0  0  0
  3 12  2  0  0  0  0
  5  6  1  0  0  0  0
  6  7  1  0  0  0  0
  7  8  1  0  0  0  0
  8  9  1  0  0  0  0
  9 10  1  0  0  0  0
  9 11  2  0  0  0  0
M  CHG  3   1   1   4  -1  11   1
M  END
>  <CHROM.1>
39.29461714,-94.27925230,-62.52284191,-124.36507475,33.23877082,133.08415117
-3.41513078,0.15235695,27.59557506,0.05785497,-1.32650439,-1.41678197

>  <Name>
1koc cryst

>  <RI>
0

>  <Rbt.Current_Directory>
/home/itssahil/PROJECTS/Mol_Feturizer/New_Systems/rnas/1koc

>  <Rbt.Executable>
rbdock ($Id: //depot/dev/client3/rdock/2013.1/src/exe/rbdock.cxx#4 $)

>  <Rbt.Library>
libRbt.so (2013.1, Build901 2013/11/27)

>  <Rbt.Parameter_File>
/export/apps/rDock/src/rDock_2013.1_src/data/scripts/dock_solv.prm

>  <Rbt.Receptor>
prm/blind_docking_80.prm

>  <SCORE>
-0.974515

>  <SCORE.INTER>
-6.39325

>  <SCORE.INTER.CONST>
1

>  <SCORE.INTER.POLAR>
-2.41611

>  <SCORE.INTER.ROT>
5

>  <SCORE.INTER.SOLV>
30.7825

>  <SCORE.INTER.VDW>
-13.4026

>  <SCORE.INTER.norm>
-0.532771

>  <SCORE.INTRA>
5.17403

>  <SCORE.INTRA.DIHEDRAL>
9.83195

>  <SCORE.INTRA.DIHEDRAL.0>
6.04201

>  <SCORE.INTRA.POLAR>
0

>  <SCORE.INTRA.POLAR.0>
0

>  <SCORE.INTRA.REPUL>
0

>  <SCORE.INTRA.REPUL.0>
0

>  <SCORE.INTRA.SOLV>
0.371667

>  <SCORE.INTRA.SOLV.lig_0>
-71.0481

>  <SCORE.INTRA.VDW>
0.0722167

>  <SCORE.INTRA.VDW.0>
0.968882

>  <SCORE.INTRA.norm>
0.431169

>  <SCORE.RESTR>
0.244713

>  <SCORE.RESTR.CAVITY>
0.244713

>  <SCORE.RESTR.norm>
0.0203927

>  <SCORE.SYSTEM>
0

>  <SCORE.SYSTEM.CONST>
0

>  <SCORE.SYSTEM.DIHEDRAL>
0

>  <SCORE.SYSTEM.SOLV>
0

>  <SCORE.SYSTEM.norm>
0

>  <SCORE.heavy>
12

>  <SCORE.norm>
-0.0812096

>  <SYMMETRIC_BONDS>
11 12 2
5 6 2

>  <RMSD>
9.001

$$$$
1koc cryst
 OpenBabel11021811393D
libRbt.so/2013.1/901 2013/11/27
 12 11  0  0  0  0  0  0  0  0999 V2000
   -3.5078    3.4326   26.5948 N   0  3  0  0  0  0  0  0  0  0  0  0
   -3.5185    2.1306   27.3280 C   0  0  2  0  0  0  0  0  0  0  0  0
   -3.0065    2.3582   28.7638 C   0  0  0  0  0  0  0  0  0  0  0  0
   -3.8219    2.3324   29.6735 O   0  5  0  0  0  0  0  0  0  0  0  0
   -2.6180    1.1151   26.5742 C   0  0  0  0  0  0  0  0  0  0  0  0
   -3.4544   -0.0129   25.9587 C   0  0  0  0  0  0  0  0  0  0  0  0
   -2.9194   -1.3614   26.4282 C   0  0  0  0  0  0  0  0  0  0  0  0
   -4.0505   -2.3131   26.6314 N   0  0  0  0  0  0  0  0  0  0  0  0
   -4.2035   -2.9222   27.7826 C   0  0  0  0  0  0  0  0  0  0  0  0
   -3.9259   -2.3004   28.9017 N   0  0  0  0  0  0  0  0  0  0  0  0
   -4.6399   -4.1540   27.8150 N   0  3  0  0  0  0  0  0  0  0  0  0
   -1.8136    2.5653   28.9292 O   0  0  0  0  0  0  0  0  0  0  0  0
  2  1  1  6  0  0  0
  2  5  1  0  0  0  0
  2  3  1  0  0  0  0
  3  4  1  0  0  0  0
  3 12  2  0  0  0  0
  5  6  1  0  0  0  0
  6  7  1  0  0  0  0
  7  8  1  0  0  0  0
  8  9  1  0  0  0  0
  9 10  1  0  0  0  0
  9 11  2  0  0  0  0
M  CHG  3   1   1   4  -1  11   1
M  END
>  <CHROM.1>
38.66357598,-111.99523002,106.39013699,-125.60340276,143.70540557,-125.24579970
-3.46586162,0.09269435,27.63151978,-0.31530409,-1.36429745,-1.81803240

>  <Name>
1koc cryst

>  <RI>
0

>  <Rbt.Current_Directory>
/home/itssahil/PROJECTS/Mol_Feturizer/New_Systems/rnas/1koc

>  <Rbt.Executable>
rbdock ($Id: //depot/dev/client3/rdock/2013.1/src/exe/rbdock.cxx#4 $)

>  <Rbt.Library>
libRbt.so (2013.1, Build901 2013/11/27)

>  <Rbt.Parameter_File>
/export/apps/rDock/src/rDock_2013.1_src/data/scripts/dock_solv.prm

>  <Rbt.Receptor>
prm/blind_docking_100.prm

>  <SCORE>
-12.8416

>  <SCORE.INTER>
-16.737

>  <SCORE.INTER.CONST>
1

>  <SCORE.INTER.POLAR>
-3.71895

>  <SCORE.INTER.ROT>
5

>  <SCORE.INTER.SOLV>
30.0817

>  <SCORE.INTER.VDW>
-15.7221

>  <SCORE.INTER.norm>
-1.39475

>  <SCORE.INTRA>
3.80028

>  <SCORE.INTRA.DIHEDRAL>
12.9531

>  <SCORE.INTRA.DIHEDRAL.0>
6.04201

>  <SCORE.INTRA.POLAR>
0

>  <SCORE.INTRA.POLAR.0>
0

>  <SCORE.INTRA.REPUL>
0

>  <SCORE.INTRA.REPUL.0>
0

>  <SCORE.INTRA.SOLV>
-1.09081

>  <SCORE.INTRA.SOLV.lig_0>
-71.0481

>  <SCORE.INTRA.VDW>
-2.13087

>  <SCORE.INTRA.VDW.0>
0.968882

>  <SCORE.INTRA.norm>
0.31669

>  <SCORE.RESTR>
0.095172

>  <SCORE.RESTR.CAVITY>
0.095172

>  <SCORE.RESTR.norm>
0.007931

>  <SCORE.SYSTEM>
0

>  <SCORE.SYSTEM.CONST>
0

>  <SCORE.SYSTEM.DIHEDRAL>
0

>  <SCORE.SYSTEM.SOLV>
0

>  <SCORE.SYSTEM.norm>
0

>  <SCORE.heavy>
12

>  <SCORE.norm>
-1.07013

>  <SYMMETRIC_BONDS>
11 12 2
5 6 2

>  <RMSD>
9.004

$$$$
1koc cryst
 OpenBabel11021811393D
libRbt.so/2013.1/901 2013/11/27
 12 11  0  0  0  0  0  0  0  0999 V2000
   -7.5646    2.6137   30.7063 N   0  3  0  0  0  0  0  0  0  0  0  0
   -6.2615    2.7281   31.4286 C   0  0  2  0  0  0  0  0  0  0  0  0
   -6.2106    4.0829   32.1616 C   0  0  0  0  0  0  0  0  0  0  0  0
   -7.2269    4.7610   32.1831 O   0  5  0  0  0  0  0  0  0  0  0  0
   -5.1005    2.6092   30.4048 C   0  0  0  0  0  0  0  0  0  0  0  0
   -3.8627    1.9709   31.0462 C   0  0  0  0  0  0  0  0  0  0  0  0
   -2.6279    2.3003   30.2145 C   0  0  0  0  0  0  0  0  0  0  0  0
   -2.8734    1.9563   28.7835 N   0  0  0  0  0  0  0  0  0  0  0  0
   -1.9619    1.3162   28.0915 C   0  0  0  0  0  0  0  0  0  0  0  0
   -1.2258    0.3942   28.6609 N   0  0  0  0  0  0  0  0  0  0  0  0
   -1.7895    1.5952   26.8260 N   0  3  0  0  0  0  0  0  0  0  0  0
   -5.1572    4.4248   32.6780 O   0  0  0  0  0  0  0  0  0  0  0  0
  2  1  1  6  0  0  0
  2  5  1  0  0  0  0
  2  3  1  0  0  0  0
  3  4  1  0  0  0  0
  3 12  2  0  0  0  0
  5  6  1  0  0  0  0
  6  7  1  0  0  0  0
  7  8  1  0  0  0  0
  8  9  1  0  0  0  0
  9 10  1  0  0  0  0
  9 11  2  0  0  0  0
M  CHG  3   1   1   4  -1  11   1
M  END
>  <CHROM.1>
56.67045649,-149.10488733,7.93281538,-160.40633304,-51.43581028,-134.96566310
-4.34749537,2.56424299,30.24408428,2.38603642,-0.11065217,1.08321686

>  <Name>
1koc cryst

>  <RI>
0

>  <Rbt.Current_Directory>
/home/itssahil/PROJECTS/Mol_Feturizer/New_Systems/rnas/1koc

>  <Rbt.Executable>
rbdock ($Id: //depot/dev/client3/rdock/2013.1/src/exe/rbdock.cxx#4 $)

>  <Rbt.Library>
libRbt.so (2013.1, Build901 2013/11/27)

>  <Rbt.Parameter_File>
/export/apps/rDock/src/rDock_2013.1_src/data/scripts/dock_solv.prm

>  <Rbt.Receptor>
prm/blind_docking_100.prm

>  <SCORE>
-15.9159

>  <SCORE.INTER>
-15.5847

>  <SCORE.INTER.CONST>
1

>  <SCORE.INTER.POLAR>
-2.67801

>  <SCORE.INTER.ROT>
5

>  <SCORE.INTER.SOLV>
25.7713

>  <SCORE.INTER.VDW>
-16.9869

>  <SCORE.INTER.norm>
-1.29873

>  <SCORE.INTRA>
-0.331229

>  <SCORE.INTRA.DIHEDRAL>
1.85962

>  <SCORE.INTRA.DIHEDRAL.0>
6.04201

>  <SCORE.INTRA.POLAR>
0

>  <SCORE.INTRA.POLAR.0>
0

>  <SCORE.INTRA.REPUL>
0

>  <SCORE.INTRA.REPUL.0>
0

>  <SCORE.INTRA.SOLV>
-0.49756

>  <SCORE.INTRA.SOLV.lig_0>
-71.0481

>  <SCORE.INTRA.VDW>
-1.01226

>  <SCORE.INTRA.VDW.0>
0.968882

>  <SCORE.INTRA.norm>
-0.0276024

>  <SCORE.RESTR>
0

>  <SCORE.RESTR.CAVITY>
0

>  <SCORE.RESTR.norm>
0

>  <SCORE.SYSTEM>
0

>  <SCORE.SYSTEM.CONST>
0

>  <SCORE.SYSTEM.DIHEDRAL>
0

>  <SCORE.SYSTEM.SOLV>
0

>  <SCORE.SYSTEM.norm>
0

>  <SCORE.heavy>
12

>  <SCORE.norm>
-1.32633

>  <SYMMETRIC_BONDS>
11 12 2
5 6 2

>  <RMSD>
9.009

$$$$
1koc cryst
 OpenBabel11021811393D
libRbt.so/2013.1/901 2013/11/27
 12 11  0  0  0  0  0  0  0  0999 V2000
   -3.3238    3.1013   26.9426 N   0  3  0  0  0  0  0  0  0  0  0  0
   -3.3887    1.9040   27.8342 C   0  0  2  0  0  0  0  0  0  0  0  0
   -3.1073    2.3418   29.2849 C   0  0  0  0  0  0  0  0  0  0  0  0
   -4.0598    2.6524   29.9844 O   0  5  0  0  0  0  0  0  0  0  0  0
   -2.3434    0.8590   27.3592 C   0  0  0  0  0  0  0  0  0  0  0  0
   -2.6306    0.4049   25.9232 C   0  0  0  0  0  0  0  0  0  0  0  0
   -3.7940   -0.5808   25.9211 C   0  0  0  0  0  0  0  0  0  0  0  0
   -3.4508   -1.7726   26.7506 N   0  0  0  0  0  0  0  0  0  0  0  0
   -4.2530   -2.8095   26.7822 C   0  0  0  0  0  0  0  0  0  0  0  0
   -4.9015   -3.1768   25.7050 N   0  0  0  0  0  0  0  0  0  0  0  0
   -4.4030   -3.4835   27.8922 N   0  3  0  0  0  0  0  0  0  0  0  0
   -1.9474    2.3705   29.6685 O   0  0  0  0  0  0  0  0  0  0  0  0
  2  1  1  6  0  0  0
  2  5  1  0  0  0  0
  2  3  1  0  0  0  0
  3  4  1  0  0  0  0
  3 12  2  0  0  0  0
  5  6  1  0  0  0  0
  6  7  1  0  0  0  0
  7  8  1  0  0  0  0
  8  9  1  0  0  0  0
  9 10  1  0  0  0  0
  9 11  2  0  0  0  0
M  CHG  3   1   1   4  -1  11   1
M  END
>  <CHROM.1>
-73.13629302,-60.71654664,91.30237977,-76.91634838,-60.11923146,-173.18731325
-3.47501736,0.16323219,27.51198898,-0.68204971,-1.28837421,-1.87899179

>  <Name>
1koc cryst

>  <RI>
0

>  <Rbt.Current_Directory>
/home/itssahil/PROJECTS/Mol_Feturizer/New_Systems/rnas/1koc

>  <Rbt.Executable>
rbdock ($Id: //depot/dev/client3/rdock/2013.1/src/exe/rbdock.cxx#4 $)

>  <Rbt.Library>
libRbt.so (2013.1, Build901 2013/11/27)

>  <Rbt.Parameter_File>
/export/apps/rDock/src/rDock_2013.1_src/data/scripts/dock_solv.prm

>  <Rbt.Receptor>
prm/blind_docking_100.prm

>  <SCORE>
-0.860121

>  <SCORE.INTER>
0.274574

>  <SCORE.INTER.CONST>
1

>  <SCORE.INTER.POLAR>
-1.83256

>  <SCORE.INTER.ROT>
5

>  <SCORE.INTER.SOLV>
28.0568

>  <SCORE.INTER.VDW>
-9.99403

>  <SCORE.INTER.norm>
0.0228812

>  <SCORE.INTRA>
-1.1347

>  <SCORE.INTRA.DIHEDRAL>
-1.07762

>  <SCORE.INTRA.DIHEDRAL.0>
6.04201

>  <SCORE.INTRA.POLAR>
0

>  <SCORE.INTRA.POLAR.0>
0

>  <SCORE.INTRA.REPUL>
0

>  <SCORE.INTRA.REPUL.0>
0

>  <SCORE.INTRA.SOLV>
-0.386672

>  <SCORE.INTRA.SOLV.lig_0>
-71.0481

>  <SCORE.INTRA.VDW>
-0.402547

>  <SCORE.INTRA.VDW.0>
0.968882

>  <SCORE.INTRA.norm>
-0.0945579

>  <SCORE.RESTR>
0

>  <SCORE.RESTR.CAVITY>
0

>  <SCORE.RESTR.norm>
0

>  <SCORE.SYSTEM>
0

>  <SCORE.SYSTEM.CONST>
0

>  <SCORE.SYSTEM.DIHEDRAL>
0

>  <SCORE.SYSTEM.SOLV>
0

>  <SCORE.SYSTEM.norm>
0

>  <SCORE.heavy>
12

>  <SCORE.norm>
-0.0716767

>  <SYMMETRIC_BONDS>
11 12 2
5 6 2

>  <RMSD>
9.028

$$$$
1koc cryst
 OpenBabel11021811393D
libRbt.so/2013.1/901 2013/11/27
 12 11  0  0  0  0  0  0  0  0999 V2000
   -4.6834    3.7235   32.7090 N   0  3  0  0  0  0  0  0  0  0  0  0
   -5.1353    3.2909   31.3520 C   0  0  2  0  0  0  0  0  0  0  0  0
   -6.6715    3.1651   31.3504 C   0  0  0  0  0  0  0  0  0  0  0  0
   -7.2723    3.4971   30.3395 O   0  5  0  0  0  0  0  0  0  0  0  0
   -4.4688    1.9329   31.0029 C   0  0  0  0  0  0  0  0  0  0  0  0
   -2.9423    2.0656   30.9483 C   0  0  0  0  0  0  0  0  0  0  0  0
   -2.4846    2.1165   29.4948 C   0  0  0  0  0  0  0  0  0  0  0  0
   -2.3781    0.7325   28.9476 N   0  0  0  0  0  0  0  0  0  0  0  0
   -2.7155    0.4849   27.7048 C   0  0  0  0  0  0  0  0  0  0  0  0
   -2.4720    1.3651   26.7657 N   0  0  0  0  0  0  0  0  0  0  0  0
   -3.2932   -0.6474   27.3998 N   0  3  0  0  0  0  0  0  0  0  0  0
   -7.2215    2.7512   32.3601 O   0  0  0  0  0  0  0  0  0  0  0  0
  2  1  1  1  0  0  0
  2  5  1  0  0  0  0
  2  3  1  0  0  0  0
  3  4  1  0  0  0  0
  3 12  2  0  0  0  0
  5  6  1  0  0  0  0
  6  7  1  0  0  0  0
  7  8  1  0  0  0  0
  8  9  1  0  0  0  0
  9 10  1  0  0  0  0
  9 11  2  0  0  0  0
M  CHG  3   1   1   4  -1  11   1
M  END
>  <CHROM.1>
-33.69883220,-62.15901947,143.18549661,-102.70124487,-82.85153093,142.98369229
-4.32489360,2.04155294,30.04058913,-2.21382215,0.12750262,-2.05579048

>  <Name>
1koc cryst

>  <RI>
0

>  <Rbt.Current_Directory>
/home/itssahil/PROJECTS/Mol_Feturizer/New_Systems/rnas/1koc

>  <Rbt.Executable>
rbdock ($Id: //depot/dev/client3/rdock/2013.1/src/exe/rbdock.cxx#4 $)

>  <Rbt.Library>
libRbt.so (2013.1, Build901 2013/11/27)

>  <Rbt.Parameter_File>
/export/apps/rDock/src/rDock_2013.1_src/data/scripts/dock_solv.prm

>  <Rbt.Receptor>
prm/blind_docking_80.prm

>  <SCORE>
-17.0503

>  <SCORE.INTER>
-17.5698

>  <SCORE.INTER.CONST>
1

>  <SCORE.INTER.POLAR>
-1.91318

>  <SCORE.INTER.ROT>
5

>  <SCORE.INTER.SOLV>
25.3619

>  <SCORE.INTER.VDW>
-20.7233

>  <SCORE.INTER.norm>
-1.46415

>  <SCORE.INTRA>
0.519513

>  <SCORE.INTRA.DIHEDRAL>
5.58462

>  <SCORE.INTRA.DIHEDRAL.0>
6.04201

>  <SCORE.INTRA.POLAR>
0

>  <SCORE.INTRA.POLAR.0>
0

>  <SCORE.INTRA.REPUL>
0

>  <SCORE.INTRA.REPUL.0>
0

>  <SCORE.INTRA.SOLV>
-0.875734

>  <SCORE.INTRA.SOLV.lig_0>
-71.0481

>  <SCORE.INTRA.VDW>
-1.83493

>  <SCORE.INTRA.VDW.0>
0.968882

>  <SCORE.INTRA.norm>
0.0432927

>  <SCORE.RESTR>
0

>  <SCORE.RESTR.CAVITY>
0

>  <SCORE.RESTR.norm>
0

>  <SCORE.SYSTEM>
0

>  <SCORE.SYSTEM.CONST>
0

>  <SCORE.SYSTEM.DIHEDRAL>
0

>  <SCORE.SYSTEM.SOLV>
0

>  <SCORE.SYSTEM.norm>
0

>  <SCORE.heavy>
12

>  <SCORE.norm>
-1.42086

>  <SYMMETRIC_BONDS>
11 12 2
5 6 2

>  <RMSD>
9.030

$$$$
1koc cryst
 OpenBabel11021811393D
libRbt.so/2013.1/901 2013/11/27
 12 11  0  0  0  0  0  0  0  0999 V2000
   -4.6553    3.4632   32.9266 N   0  3  0  0  0  0  0  0  0  0  0  0
   -4.7135    3.3016   31.4422 C   0  0  2  0  0  0  0  0  0  0  0  0
   -6.1278    3.6690   30.9519 C   0  0  0  0  0  0  0  0  0  0  0  0
   -6.8615    2.7621   30.5883 O   0  5  0  0  0  0  0  0  0  0  0  0
   -4.3654    1.8335   31.0764 C   0  0  0  0  0  0  0  0  0  0  0  0
   -3.9528    1.7148   29.6045 C   0  0  0  0  0  0  0  0  0  0  0  0
   -2.6425    0.9420   29.5010 C   0  0  0  0  0  0  0  0  0  0  0  0
   -2.7627   -0.1239   28.4638 N   0  0  0  0  0  0  0  0  0  0  0  0
   -2.9529    0.1955   27.2062 C   0  0  0  0  0  0  0  0  0  0  0  0
   -2.3803    1.2596   26.7004 N   0  0  0  0  0  0  0  0  0  0  0  0
   -3.7134   -0.5537   26.4517 N   0  3  0  0  0  0  0  0  0  0  0  0
   -6.4495    4.8478   30.9372 O   0  0  0  0  0  0  0  0  0  0  0  0
  2  1  1  1  0  0  0
  2  5  1  0  0  0  0
  2  3  1  0  0  0  0
  3  4  1  0  0  0  0
  3 12  2  0  0  0  0
  5  6  1  0  0  0  0
  6  7  1  0  0  0  0
  7  8  1  0  0  0  0
  8  9  1  0  0  0  0
  9 10  1  0  0  0  0
  9 11  2  0  0  0  0
M  CHG  3   1   1   4  -1  11   1
M  END
>  <CHROM.1>
-144.56083585,-161.02583266,-107.16813924,130.19578009,131.48410059,64.11774492
-4.31245475,1.95174967,29.66303349,-2.12676836,0.55312505,-1.93566868

>  <Name>
1koc cryst

>  <RI>
0

>  <Rbt.Current_Directory>
/home/itssahil/PROJECTS/Mol_Feturizer/New_Systems/rnas/1koc

>  <Rbt.Executable>
rbdock ($Id: //depot/dev/client3/rdock/2013.1/src/exe/rbdock.cxx#4 $)

>  <Rbt.Library>
libRbt.so (2013.1, Build901 2013/11/27)

>  <Rbt.Parameter_File>
/export/apps/rDock/src/rDock_2013.1_src/data/scripts/dock_solv.prm

>  <Rbt.Receptor>
prm/blind_docking_40.prm

>  <SCORE>
-16.703

>  <SCORE.INTER>
-21.2668

>  <SCORE.INTER.CONST>
1

>  <SCORE.INTER.POLAR>
-3.37081

>  <SCORE.INTER.ROT>
5

>  <SCORE.INTER.SOLV>
27.7544

>  <SCORE.INTER.VDW>
-19.1266

>  <SCORE.INTER.norm>
-1.77223

>  <SCORE.INTRA>
4.54409

>  <SCORE.INTRA.DIHEDRAL>
11.6048

>  <SCORE.INTRA.DIHEDRAL.0>
6.04201

>  <SCORE.INTRA.POLAR>
0

>  <SCORE.INTRA.POLAR.0>
0

>  <SCORE.INTRA.REPUL>
0

>  <SCORE.INTRA.REPUL.0>
0

>  <SCORE.INTRA.SOLV>
-1.23876

>  <SCORE.INTRA.SOLV.lig_0>
-71.0481

>  <SCORE.INTRA.VDW>
-0.638928

>  <SCORE.INTRA.VDW.0>
0.968882

>  <SCORE.INTRA.norm>
0.378674

>  <SCORE.RESTR>
0.0196743

>  <SCORE.RESTR.CAVITY>
0.0196743

>  <SCORE.RESTR.norm>
0.00163953

>  <SCORE.SYSTEM>
0

>  <SCORE.SYSTEM.CONST>
0

>  <SCORE.SYSTEM.DIHEDRAL>
0

>  <SCORE.SYSTEM.SOLV>
0

>  <SCORE.SYSTEM.norm>
0

>  <SCORE.heavy>
12

>  <SCORE.norm>
-1.39192

>  <SYMMETRIC_BONDS>
11 12 2
5 6 2

>  <RMSD>
9.032

$$$$
1koc cryst
 OpenBabel11021811393D
libRbt.so/2013.1/901 2013/11/27
 12 11  0  0  0  0  0  0  0  0999 V2000
   -1.2137    2.0622   30.1592 N   0  3  0  0  0  0  0  0  0  0  0  0
   -2.5568    1.5245   29.7851 C   0  0  2  0  0  0  0  0  0  0  0  0
   -2.6159    1.3397   28.2561 C   0  0  0  0  0  0  0  0  0  0  0  0
   -2.0640    2.1757   27.5563 O   0  5  0  0  0  0  0  0  0  0  0  0
   -3.6525    2.5140   30.2653 C   0  0  0  0  0  0  0  0  0  0  0  0
   -3.7755    2.5014   31.7935 C   0  0  0  0  0  0  0  0  0  0  0  0
   -4.8222    3.5202   32.2311 C   0  0  0  0  0  0  0  0  0  0  0  0
   -6.0683    3.3437   31.4295 N   0  0  0  0  0  0  0  0  0  0  0  0
   -7.1376    2.8175   31.9767 C   0  0  0  0  0  0  0  0  0  0  0  0
   -7.4336    3.0717   33.2272 N   0  0  0  0  0  0  0  0  0  0  0  0
   -7.9152    2.0397   31.2703 N   0  3  0  0  0  0  0  0  0  0  0  0
   -3.2193    0.3750   27.8104 O   0  0  0  0  0  0  0  0  0  0  0  0
  2  1  1  6  0  0  0
  2  5  1  0  0  0  0
  2  3  1  0  0  0  0
  3  4  1  0  0  0  0
  3 12  2  0  0  0  0
  5  6  1  0  0  0  0
  6  7  1  0  0  0  0
  7  8  1  0  0  0  0
  8  9  1  0  0  0  0
  9 10  1  0  0  0  0
  9 11  2  0  0  0  0
M  CHG  3   1   1   4  -1  11   1
M  END
>  <CHROM.1>
-44.54780304,-70.63096974,-37.61430526,177.91610174,48.95938067,107.18389671
-4.36303089,2.27029306,30.46804395,-0.67309089,0.10094784,1.09680981

>  <Name>
1koc cryst

>  <RI>
0

>  <Rbt.Current_Directory>
/home/itssahil/PROJECTS/Mol_Feturizer/New_Systems/rnas/1koc

>  <Rbt.Executable>
rbdock ($Id: //depot/dev/client3/rdock/2013.1/src/exe/rbdock.cxx#4 $)

>  <Rbt.Library>
libRbt.so (2013.1, Build901 2013/11/27)

>  <Rbt.Parameter_File>
/export/apps/rDock/src/rDock_2013.1_src/data/scripts/dock_solv.prm

>  <Rbt.Receptor>
prm/blind_docking_100.prm

>  <SCORE>
-27.8668

>  <SCORE.INTER>
-25.3686

>  <SCORE.INTER.CONST>
1

>  <SCORE.INTER.POLAR>
-4.30106

>  <SCORE.INTER.ROT>
5

>  <SCORE.INTER.SOLV>
27.4964

>  <SCORE.INTER.VDW>
-18.6743

>  <SCORE.INTER.norm>
-2.11405

>  <SCORE.INTRA>
-2.57379

>  <SCORE.INTRA.DIHEDRAL>
-1.20129

>  <SCORE.INTRA.DIHEDRAL.0>
6.04201

>  <SCORE.INTRA.POLAR>
0

>  <SCORE.INTRA.POLAR.0>
0

>  <SCORE.INTRA.REPUL>
0

>  <SCORE.INTRA.REPUL.0>
0

>  <SCORE.INTRA.SOLV>
-0.694075

>  <SCORE.INTRA.SOLV.lig_0>
-71.0481

>  <SCORE.INTRA.VDW>
-1.62611

>  <SCORE.INTRA.VDW.0>
0.968882

>  <SCORE.INTRA.norm>
-0.214482

>  <SCORE.RESTR>
0.0756529

>  <SCORE.RESTR.CAVITY>
0.0756529

>  <SCORE.RESTR.norm>
0.00630441

>  <SCORE.SYSTEM>
0

>  <SCORE.SYSTEM.CONST>
0

>  <SCORE.SYSTEM.DIHEDRAL>
0

>  <SCORE.SYSTEM.SOLV>
0

>  <SCORE.SYSTEM.norm>
0

>  <SCORE.heavy>
12

>  <SCORE.norm>
-2.32223

>  <SYMMETRIC_BONDS>
11 12 2
5 6 2

>  <RMSD>
9.038

$$$$
1koc cryst
 OpenBabel11021811393D
libRbt.so/2013.1/901 2013/11/27
 12 11  0  0  0  0  0  0  0  0999 V2000
   -4.0983    2.7757   32.6416 N   0  3  0  0  0  0  0  0  0  0  0  0
   -4.6833    2.8914   31.2715 C   0  0  2  0  0  0  0  0  0  0  0  0
   -6.2204    2.8476   31.3761 C   0  0  0  0  0  0  0  0  0  0  0  0
   -6.7135    2.2407   32.3151 O   0  5  0  0  0  0  0  0  0  0  0  0
   -4.1553    1.7255   30.3929 C   0  0  0  0  0  0  0  0  0  0  0  0
   -2.7428    2.0211   29.8748 C   0  0  0  0  0  0  0  0  0  0  0  0
   -2.6618    1.6858   28.3896 C   0  0  0  0  0  0  0  0  0  0  0  0
   -2.5656    0.2080   28.2075 N   0  0  0  0  0  0  0  0  0  0  0  0
   -3.0327   -0.3561   27.1197 C   0  0  0  0  0  0  0  0  0  0  0  0
   -2.9315    0.2520   25.9639 N   0  0  0  0  0  0  0  0  0  0  0  0
   -3.5978   -1.5329   27.1873 N   0  3  0  0  0  0  0  0  0  0  0  0
   -6.8778    3.4097   30.5129 O   0  0  0  0  0  0  0  0  0  0  0  0
  2  1  1  1  0  0  0
  2  5  1  0  0  0  0
  2  3  1  0  0  0  0
  3  4  1  0  0  0  0
  3 12  2  0  0  0  0
  5  6  1  0  0  0  0
  6  7  1  0  0  0  0
  7  8  1  0  0  0  0
  8  9  1  0  0  0  0
  9 10  1  0  0  0  0
  9 11  2  0  0  0  0
M  CHG  3   1   1   4  -1  11   1
M  END
>  <CHROM.1>
-55.32309738,-79.95027207,-27.91918055,-134.28973780,-76.65528569,151.27886494
-4.20143637,1.50083879,29.62346835,-2.03176846,0.01830632,-2.13411157

>  <Name>
1koc cryst

>  <RI>
0

>  <Rbt.Current_Directory>
/home/itssahil/PROJECTS/Mol_Feturizer/New_Systems/rnas/1koc

>  <Rbt.Executable>
rbdock ($Id: //depot/dev/client3/rdock/2013.1/src/exe/rbdock.cxx#4 $)

>  <Rbt.Library>
libRbt.so (2013.1, Build901 2013/11/27)

>  <Rbt.Parameter_File>
/export/apps/rDock/src/rDock_2013.1_src/data/scripts/dock_solv.prm

>  <Rbt.Receptor>
prm/blind_docking_100.prm

>  <SCORE>
-22.4917

>  <SCORE.INTER>
-22.342

>  <SCORE.INTER.CONST>
1

>  <SCORE.INTER.POLAR>
-2.53966

>  <SCORE.INTER.ROT>
5

>  <SCORE.INTER.SOLV>
28.355

>  <SCORE.INTER.VDW>
-22.8142

>  <SCORE.INTER.norm>
-1.86184

>  <SCORE.INTRA>
-0.14968

>  <SCORE.INTRA.DIHEDRAL>
5.01716

>  <SCORE.INTRA.DIHEDRAL.0>
6.04201

>  <SCORE.INTRA.POLAR>
0

>  <SCORE.INTRA.POLAR.0>
0

>  <SCORE.INTRA.REPUL>
0

>  <SCORE.INTRA.REPUL.0>
0

>  <SCORE.INTRA.SOLV>
-1.11791

>  <SCORE.INTRA.SOLV.lig_0>
-71.0481

>  <SCORE.INTRA.VDW>
-2.09931

>  <SCORE.INTRA.VDW.0>
0.968882

>  <SCORE.INTRA.norm>
-0.0124734

>  <SCORE.RESTR>
0

>  <SCORE.RESTR.CAVITY>
0

>  <SCORE.RESTR.norm>
0

>  <SCORE.SYSTEM>
0

>  <SCORE.SYSTEM.CONST>
0

>  <SCORE.SYSTEM.DIHEDRAL>
0

>  <SCORE.SYSTEM.SOLV>
0

>  <SCORE.SYSTEM.norm>
0

>  <SCORE.heavy>
12

>  <SCORE.norm>
-1.87431

>  <SYMMETRIC_BONDS>
11 12 2
5 6 2

>  <RMSD>
9.038

$$$$
1koc cryst
 OpenBabel11021811393D
libRbt.so/2013.1/901 2013/11/27
 12 11  0  0  0  0  0  0  0  0999 V2000
   -3.0736    0.9354   26.1191 N   0  3  0  0  0  0  0  0  0  0  0  0
   -3.2987    1.7577   27.3463 C   0  0  2  0  0  0  0  0  0  0  0  0
   -3.2133    3.2507   26.9734 C   0  0  0  0  0  0  0  0  0  0  0  0
   -4.2593    3.8606   26.8083 O   0  5  0  0  0  0  0  0  0  0  0  0
   -2.2272    1.3907   28.4080 C   0  0  0  0  0  0  0  0  0  0  0  0
   -2.2206   -0.1170   28.6867 C   0  0  0  0  0  0  0  0  0  0  0  0
   -3.6481   -0.6017   28.9150 C   0  0  0  0  0  0  0  0  0  0  0  0
   -3.6854   -2.0932   28.9044 N   0  0  0  0  0  0  0  0  0  0  0  0
   -3.9770   -2.7396   27.8013 C   0  0  0  0  0  0  0  0  0  0  0  0
   -3.5684   -2.2868   26.6420 N   0  0  0  0  0  0  0  0  0  0  0  0
   -4.6742   -3.8439   27.8583 N   0  3  0  0  0  0  0  0  0  0  0  0
   -2.1077    3.7560   26.8482 O   0  0  0  0  0  0  0  0  0  0  0  0
  2  1  1  6  0  0  0
  2  5  1  0  0  0  0
  2  3  1  0  0  0  0
  3  4  1  0  0  0  0
  3 12  2  0  0  0  0
  5  6  1  0  0  0  0
  6  7  1  0  0  0  0
  7  8  1  0  0  0  0
  8  9  1  0  0  0  0
  9 10  1  0  0  0  0
  9 11  2  0  0  0  0
M  CHG  3   1   1   4  -1  11   1
M  END
>  <CHROM.1>
-133.72397931,-54.62344699,99.63849378,-47.88722055,168.31044835,-94.75720668
-3.33517849,0.25688316,27.56692293,1.23339843,-1.08175817,-0.46437095

>  <Name>
1koc cryst

>  <RI>
0

>  <Rbt.Current_Directory>
/home/itssahil/PROJECTS/Mol_Feturizer/New_Systems/rnas/1koc

>  <Rbt.Executable>
rbdock ($Id: //depot/dev/client3/rdock/2013.1/src/exe/rbdock.cxx#4 $)

>  <Rbt.Library>
libRbt.so (2013.1, Build901 2013/11/27)

>  <Rbt.Parameter_File>
/export/apps/rDock/src/rDock_2013.1_src/data/scripts/dock_solv.prm

>  <Rbt.Receptor>
prm/blind_docking_100.prm

>  <SCORE>
-24.6642

>  <SCORE.INTER>
-28.6379

>  <SCORE.INTER.CONST>
1

>  <SCORE.INTER.POLAR>
-6.14829

>  <SCORE.INTER.ROT>
5

>  <SCORE.INTER.SOLV>
31.3737

>  <SCORE.INTER.VDW>
-15.9889

>  <SCORE.INTER.norm>
-2.38649

>  <SCORE.INTRA>
3.81779

>  <SCORE.INTRA.DIHEDRAL>
1.74926

>  <SCORE.INTRA.DIHEDRAL.0>
6.04201

>  <SCORE.INTRA.POLAR>
0

>  <SCORE.INTRA.POLAR.0>
0

>  <SCORE.INTRA.REPUL>
0.0769248

>  <SCORE.INTRA.REPUL.0>
0

>  <SCORE.INTRA.SOLV>
4.0786

>  <SCORE.INTRA.SOLV.lig_0>
-71.0481

>  <SCORE.INTRA.VDW>
0.519238

>  <SCORE.INTRA.VDW.0>
0.968882

>  <SCORE.INTRA.norm>
0.318149

>  <SCORE.RESTR>
0.155961

>  <SCORE.RESTR.CAVITY>
0.155961

>  <SCORE.RESTR.norm>
0.0129967

>  <SCORE.SYSTEM>
0

>  <SCORE.SYSTEM.CONST>
0

>  <SCORE.SYSTEM.DIHEDRAL>
0

>  <SCORE.SYSTEM.SOLV>
0

>  <SCORE.SYSTEM.norm>
0

>  <SCORE.heavy>
12

>  <SCORE.norm>
-2.05535

>  <SYMMETRIC_BONDS>
11 12 2
5 6 2

>  <RMSD>
9.040

$$$$
1koc cryst
 OpenBabel11021811393D
libRbt.so/2013.1/901 2013/11/27
 12 11  0  0  0  0  0  0  0  0999 V2000
   -0.9879    0.0912   28.6962 N   0  3  0  0  0  0  0  0  0  0  0  0
   -2.4068    0.0910   29.1648 C   0  0  2  0  0  0  0  0  0  0  0  0
   -3.1271   -1.1424   28.5857 C   0  0  0  0  0  0  0  0  0  0  0  0
   -3.0010   -1.3713   27.3921 O   0  5  0  0  0  0  0  0  0  0  0  0
   -3.0958    1.4025   28.7005 C   0  0  0  0  0  0  0  0  0  0  0  0
   -3.1032    2.4485   29.8216 C   0  0  0  0  0  0  0  0  0  0  0  0
   -3.8804    1.9108   31.0182 C   0  0  0  0  0  0  0  0  0  0  0  0
   -3.6721    2.7987   32.1990 N   0  0  0  0  0  0  0  0  0  0  0  0
   -4.6598    3.5269   32.6613 C   0  0  0  0  0  0  0  0  0  0  0  0
   -5.8845    3.0620   32.6524 N   0  0  0  0  0  0  0  0  0  0  0  0
   -4.4216    4.7205   33.1381 N   0  3  0  0  0  0  0  0  0  0  0  0
   -3.8000   -1.8294   29.3397 O   0  0  0  0  0  0  0  0  0  0  0  0
  2  1  1  6  0  0  0
  2  5  1  0  0  0  0
  2  3  1  0  0  0  0
  3  4  1  0  0  0  0
  3 12  2  0  0  0  0
  5  6  1  0  0  0  0
  6  7  1  0  0  0  0
  7  8  1  0  0  0  0
  8  9  1  0  0  0  0
  9 10  1  0  0  0  0
  9 11  2  0  0  0  0
M  CHG  3   1   1   4  -1  11   1
M  END
>  <CHROM.1>
39.15028221,-97.55733273,-48.15392631,-60.92397157,169.08263340,111.16828592
-3.48758224,1.30306463,30.28217617,-1.20310628,0.52508168,0.56367092

>  <Name>
1koc cryst

>  <RI>
0

>  <Rbt.Current_Directory>
/home/itssahil/PROJECTS/Mol_Feturizer/New_Systems/rnas/1koc

>  <Rbt.Executable>
rbdock ($Id: //depot/dev/client3/rdock/2013.1/src/exe/rbdock.cxx#4 $)

>  <Rbt.Library>
libRbt.so (2013.1, Build901 2013/11/27)

>  <Rbt.Parameter_File>
/export/apps/rDock/src/rDock_2013.1_src/data/scripts/dock_solv.prm

>  <Rbt.Receptor>
prm/blind_docking_100.prm

>  <SCORE>
-21.4529

>  <SCORE.INTER>
-20.5354

>  <SCORE.INTER.CONST>
1

>  <SCORE.INTER.POLAR>
-4.01064

>  <SCORE.INTER.ROT>
5

>  <SCORE.INTER.SOLV>
38.3961

>  <SCORE.INTER.VDW>
-20.0535

>  <SCORE.INTER.norm>
-1.71128

>  <SCORE.INTRA>
-0.917485

>  <SCORE.INTRA.DIHEDRAL>
2.35584

>  <SCORE.INTRA.DIHEDRAL.0>
6.04201

>  <SCORE.INTRA.POLAR>
0

>  <SCORE.INTRA.POLAR.0>
0

>  <SCORE.INTRA.REPUL>
0

>  <SCORE.INTRA.REPUL.0>
0

>  <SCORE.INTRA.SOLV>
-1.05755

>  <SCORE.INTRA.SOLV.lig_0>
-71.0481

>  <SCORE.INTRA.VDW>
-1.56663

>  <SCORE.INTRA.VDW.0>
0.968882

>  <SCORE.INTRA.norm>
-0.0764571

>  <SCORE.RESTR>
0

>  <SCORE.RESTR.CAVITY>
0

>  <SCORE.RESTR.norm>
0

>  <SCORE.SYSTEM>
0

>  <SCORE.SYSTEM.CONST>
0

>  <SCORE.SYSTEM.DIHEDRAL>
0

>  <SCORE.SYSTEM.SOLV>
0

>  <SCORE.SYSTEM.norm>
0

>  <SCORE.heavy>
12

>  <SCORE.norm>
-1.78774

>  <SYMMETRIC_BONDS>
11 12 2
5 6 2

>  <RMSD>
9.045

$$$$
1koc cryst
 OpenBabel11021811393D
libRbt.so/2013.1/901 2013/11/27
 12 11  0  0  0  0  0  0  0  0999 V2000
   -4.9349    3.3153   29.8556 N   0  3  0  0  0  0  0  0  0  0  0  0
   -3.6670    2.6705   29.3979 C   0  0  2  0  0  0  0  0  0  0  0  0
   -3.6071    2.7168   27.8585 C   0  0  0  0  0  0  0  0  0  0  0  0
   -4.6322    2.4777   27.2380 O   0  5  0  0  0  0  0  0  0  0  0  0
   -3.6282    1.2052   29.9091 C   0  0  0  0  0  0  0  0  0  0  0  0
   -2.6364    0.3637   29.0972 C   0  0  0  0  0  0  0  0  0  0  0  0
   -3.3782   -0.3711   27.9861 C   0  0  0  0  0  0  0  0  0  0  0  0
   -3.4713   -1.8240   28.3128 N   0  0  0  0  0  0  0  0  0  0  0  0
   -3.9642   -2.6681   27.4386 C   0  0  0  0  0  0  0  0  0  0  0  0
   -3.7361   -2.5035   26.1592 N   0  0  0  0  0  0  0  0  0  0  0  0
   -4.6825   -3.6818   27.8452 N   0  3  0  0  0  0  0  0  0  0  0  0
   -2.5386    2.9784   27.3263 O   0  0  0  0  0  0  0  0  0  0  0  0
  2  1  1  6  0  0  0
  2  5  1  0  0  0  0
  2  3  1  0  0  0  0
  3  4  1  0  0  0  0
  3 12  2  0  0  0  0
  5  6  1  0  0  0  0
  6  7  1  0  0  0  0
  7  8  1  0  0  0  0
  8  9  1  0  0  0  0
  9 10  1  0  0  0  0
  9 11  2  0  0  0  0
M  CHG  3   1   1   4  -1  11   1
M  END
>  <CHROM.1>
164.36692471,160.31324067,-41.57958539,-95.35458654,-107.33322300,-173.83626393
-3.77060732,0.39305703,28.19174912,1.47827701,1.35639238,0.31720368

>  <Name>
1koc cryst

>  <RI>
0

>  <Rbt.Current_Directory>
/home/itssahil/PROJECTS/Mol_Feturizer/New_Systems/rnas/1koc

>  <Rbt.Executable>
rbdock ($Id: //depot/dev/client3/rdock/2013.1/src/exe/rbdock.cxx#4 $)

>  <Rbt.Library>
libRbt.so (2013.1, Build901 2013/11/27)

>  <Rbt.Parameter_File>
/export/apps/rDock/src/rDock_2013.1_src/data/scripts/dock_solv.prm

>  <Rbt.Receptor>
prm/blind_docking_80.prm

>  <SCORE>
-6.83438

>  <SCORE.INTER>
-10.1459

>  <SCORE.INTER.CONST>
1

>  <SCORE.INTER.POLAR>
-2.74901

>  <SCORE.INTER.ROT>
5

>  <SCORE.INTER.SOLV>
29.3917

>  <SCORE.INTER.VDW>
-14.3311

>  <SCORE.INTER.norm>
-0.845489

>  <SCORE.INTRA>
3.31149

>  <SCORE.INTRA.DIHEDRAL>
8.0464

>  <SCORE.INTRA.DIHEDRAL.0>
6.04201

>  <SCORE.INTRA.POLAR>
0

>  <SCORE.INTRA.POLAR.0>
0

>  <SCORE.INTRA.REPUL>
0

>  <SCORE.INTRA.REPUL.0>
0

>  <SCORE.INTRA.SOLV>
0.298614

>  <SCORE.INTRA.SOLV.lig_0>
-71.0481

>  <SCORE.INTRA.VDW>
-0.861018

>  <SCORE.INTRA.VDW.0>
0.968882

>  <SCORE.INTRA.norm>
0.275957

>  <SCORE.RESTR>
0

>  <SCORE.RESTR.CAVITY>
0

>  <SCORE.RESTR.norm>
0

>  <SCORE.SYSTEM>
0

>  <SCORE.SYSTEM.CONST>
0

>  <SCORE.SYSTEM.DIHEDRAL>
0

>  <SCORE.SYSTEM.SOLV>
0

>  <SCORE.SYSTEM.norm>
0

>  <SCORE.heavy>
12

>  <SCORE.norm>
-0.569531

>  <SYMMETRIC_BONDS>
11 12 2
5 6 2

>  <RMSD>
9.077

$$$$
1koc cryst
 OpenBabel11021811393D
libRbt.so/2013.1/901 2013/11/27
 12 11  0  0  0  0  0  0  0  0999 V2000
   -3.2265    2.9757   26.9267 N   0  3  0  0  0  0  0  0  0  0  0  0
   -3.3996    1.9283   27.9782 C   0  0  2  0  0  0  0  0  0  0  0  0
   -2.4352    2.2225   29.1440 C   0  0  0  0  0  0  0  0  0  0  0  0
   -2.8490    2.0658   30.2830 O   0  5  0  0  0  0  0  0  0  0  0  0
   -3.1105    0.5340   27.3597 C   0  0  0  0  0  0  0  0  0  0  0  0
   -3.2058   -0.5700   28.4194 C   0  0  0  0  0  0  0  0  0  0  0  0
   -3.8452   -1.8121   27.8085 C   0  0  0  0  0  0  0  0  0  0  0  0
   -4.1378   -2.8104   28.8780 N   0  0  0  0  0  0  0  0  0  0  0  0
   -4.7552   -3.9300   28.5866 C   0  0  0  0  0  0  0  0  0  0  0  0
   -4.5220   -4.5371   27.4495 N   0  0  0  0  0  0  0  0  0  0  0  0
   -5.6039   -4.4462   29.4364 N   0  3  0  0  0  0  0  0  0  0  0  0
   -1.3063    2.6091   28.8807 O   0  0  0  0  0  0  0  0  0  0  0  0
  2  1  1  6  0  0  0
  2  5  1  0  0  0  0
  2  3  1  0  0  0  0
  3  4  1  0  0  0  0
  3 12  2  0  0  0  0
  5  6  1  0  0  0  0
  6  7  1  0  0  0  0
  7  8  1  0  0  0  0
  8  9  1  0  0  0  0
  9 10  1  0  0  0  0
  9 11  2  0  0  0  0
M  CHG  3   1   1   4  -1  11   1
M  END
>  <CHROM.1>
7.54225028,177.11201237,139.21436130,141.97849744,-171.13245408,176.42840936
-3.53314570,-0.46779205,28.42479626,0.24554300,-1.22226564,-1.31633408

>  <Name>
1koc cryst

>  <RI>
0

>  <Rbt.Current_Directory>
/home/itssahil/PROJECTS/Mol_Feturizer/New_Systems/rnas/1koc

>  <Rbt.Executable>
rbdock ($Id: //depot/dev/client3/rdock/2013.1/src/exe/rbdock.cxx#4 $)

>  <Rbt.Library>
libRbt.so (2013.1, Build901 2013/11/27)

>  <Rbt.Parameter_File>
/export/apps/rDock/src/rDock_2013.1_src/data/scripts/dock_solv.prm

>  <Rbt.Receptor>
prm/blind_docking_40.prm

>  <SCORE>
14.2251

>  <SCORE.INTER>
12.0331

>  <SCORE.INTER.CONST>
1

>  <SCORE.INTER.POLAR>
-4.36063

>  <SCORE.INTER.ROT>
5

>  <SCORE.INTER.SOLV>
35.2609

>  <SCORE.INTER.VDW>
3.87055

>  <SCORE.INTER.norm>
1.00276

>  <SCORE.INTRA>
1.37904

>  <SCORE.INTRA.DIHEDRAL>
5.49483

>  <SCORE.INTRA.DIHEDRAL.0>
6.04201

>  <SCORE.INTRA.POLAR>
0

>  <SCORE.INTRA.POLAR.0>
0

>  <SCORE.INTRA.REPUL>
0

>  <SCORE.INTRA.REPUL.0>
0

>  <SCORE.INTRA.SOLV>
-1.29667

>  <SCORE.INTRA.SOLV.lig_0>
-71.0481

>  <SCORE.INTRA.VDW>
-0.72004

>  <SCORE.INTRA.VDW.0>
0.968882

>  <SCORE.INTRA.norm>
0.11492

>  <SCORE.RESTR>
0.812961

>  <SCORE.RESTR.CAVITY>
0.812961

>  <SCORE.RESTR.norm>
0.0677467

>  <SCORE.SYSTEM>
0

>  <SCORE.SYSTEM.CONST>
0

>  <SCORE.SYSTEM.DIHEDRAL>
0

>  <SCORE.SYSTEM.SOLV>
0

>  <SCORE.SYSTEM.norm>
0

>  <SCORE.heavy>
12

>  <SCORE.norm>
1.18543

>  <SYMMETRIC_BONDS>
11 12 2
5 6 2

>  <RMSD>
9.086

$$$$
1koc cryst
 OpenBabel11021811393D
libRbt.so/2013.1/901 2013/11/27
 12 11  0  0  0  0  0  0  0  0999 V2000
   -3.0541    2.4975   26.8654 N   0  3  0  0  0  0  0  0  0  0  0  0
   -2.2583    1.3368   27.3676 C   0  0  2  0  0  0  0  0  0  0  0  0
   -2.8868    0.0315   26.8415 C   0  0  0  0  0  0  0  0  0  0  0  0
   -2.4596   -1.0266   27.2786 O   0  5  0  0  0  0  0  0  0  0  0  0
   -2.2493    1.3599   28.9199 C   0  0  0  0  0  0  0  0  0  0  0  0
   -3.6275    0.9962   29.4849 C   0  0  0  0  0  0  0  0  0  0  0  0
   -3.8252    1.6816   30.8325 C   0  0  0  0  0  0  0  0  0  0  0  0
   -4.3613    3.0589   30.6274 N   0  0  0  0  0  0  0  0  0  0  0  0
   -5.2852    3.5348   31.4271 C   0  0  0  0  0  0  0  0  0  0  0  0
   -5.2731    3.2370   32.7027 N   0  0  0  0  0  0  0  0  0  0  0  0
   -6.2204    4.3143   30.9509 N   0  3  0  0  0  0  0  0  0  0  0  0
   -3.7739    0.1099   26.0048 O   0  0  0  0  0  0  0  0  0  0  0  0
  2  1  1  6  0  0  0
  2  5  1  0  0  0  0
  2  3  1  0  0  0  0
  3  4  1  0  0  0  0
  3 12  2  0  0  0  0
  5  6  1  0  0  0  0
  6  7  1  0  0  0  0
  7  8  1  0  0  0  0
  8  9  1  0  0  0  0
  9 10  1  0  0  0  0
  9 11  2  0  0  0  0
M  CHG  3   1   1   4  -1  11   1
M  END
>  <CHROM.1>
178.96752833,70.90507836,-171.65645582,-151.01934198,86.05874940,139.98803630
-3.80081753,1.78862121,29.09186040,0.70670011,1.01683849,-1.38045235

>  <Name>
1koc cryst

>  <RI>
0

>  <Rbt.Current_Directory>
/home/itssahil/PROJECTS/Mol_Feturizer/New_Systems/rnas/1koc

>  <Rbt.Executable>
rbdock ($Id: //depot/dev/client3/rdock/2013.1/src/exe/rbdock.cxx#4 $)

>  <Rbt.Library>
libRbt.so (2013.1, Build901 2013/11/27)

>  <Rbt.Parameter_File>
/export/apps/rDock/src/rDock_2013.1_src/data/scripts/dock_solv.prm

>  <Rbt.Receptor>
prm/blind_docking_80.prm

>  <SCORE>
-20.2563

>  <SCORE.INTER>
-21.0402

>  <SCORE.INTER.CONST>
1

>  <SCORE.INTER.POLAR>
-3.28607

>  <SCORE.INTER.ROT>
5

>  <SCORE.INTER.SOLV>
26.0882

>  <SCORE.INTER.VDW>
-18.7026

>  <SCORE.INTER.norm>
-1.75335

>  <SCORE.INTRA>
0.761924

>  <SCORE.INTRA.DIHEDRAL>
2.9048

>  <SCORE.INTRA.DIHEDRAL.0>
6.04201

>  <SCORE.INTRA.POLAR>
0

>  <SCORE.INTRA.POLAR.0>
0

>  <SCORE.INTRA.REPUL>
0

>  <SCORE.INTRA.REPUL.0>
0

>  <SCORE.INTRA.SOLV>
1.38284

>  <SCORE.INTRA.SOLV.lig_0>
-71.0481

>  <SCORE.INTRA.VDW>
-1.3819

>  <SCORE.INTRA.VDW.0>
0.968882

>  <SCORE.INTRA.norm>
0.0634937

>  <SCORE.RESTR>
0.0219905

>  <SCORE.RESTR.CAVITY>
0.0219905

>  <SCORE.RESTR.norm>
0.00183254

>  <SCORE.SYSTEM>
0

>  <SCORE.SYSTEM.CONST>
0

>  <SCORE.SYSTEM.DIHEDRAL>
0

>  <SCORE.SYSTEM.SOLV>
0

>  <SCORE.SYSTEM.norm>
0

>  <SCORE.heavy>
12

>  <SCORE.norm>
-1.68802

>  <SYMMETRIC_BONDS>
11 12 2
5 6 2

>  <RMSD>
9.122

$$$$
1koc cryst
 OpenBabel11021811393D
libRbt.so/2013.1/901 2013/11/27
 12 11  0  0  0  0  0  0  0  0999 V2000
   -2.7990   -0.1713   26.2815 N   0  3  0  0  0  0  0  0  0  0  0  0
   -2.6534   -0.2199   27.7679 C   0  0  2  0  0  0  0  0  0  0  0  0
   -3.5528   -1.3410   28.3244 C   0  0  0  0  0  0  0  0  0  0  0  0
   -3.5004   -1.5757   29.5225 O   0  5  0  0  0  0  0  0  0  0  0  0
   -3.0535    1.1569   28.3633 C   0  0  0  0  0  0  0  0  0  0  0  0
   -2.8643    1.1759   29.8847 C   0  0  0  0  0  0  0  0  0  0  0  0
   -2.5101    2.5877   30.3389 C   0  0  0  0  0  0  0  0  0  0  0  0
   -2.9301    2.7849   31.7570 N   0  0  0  0  0  0  0  0  0  0  0  0
   -4.0888    3.3335   32.0333 C   0  0  0  0  0  0  0  0  0  0  0  0
   -5.1322    3.0899   31.2797 N   0  0  0  0  0  0  0  0  0  0  0  0
   -4.2052    4.1234   33.0684 N   0  3  0  0  0  0  0  0  0  0  0  0
   -4.2685   -1.9524   27.5452 O   0  0  0  0  0  0  0  0  0  0  0  0
  2  1  1  6  0  0  0
  2  5  1  0  0  0  0
  2  3  1  0  0  0  0
  3  4  1  0  0  0  0
  3 12  2  0  0  0  0
  5  6  1  0  0  0  0
  6  7  1  0  0  0  0
  7  8  1  0  0  0  0
  8  9  1  0  0  0  0
  9 10  1  0  0  0  0
  9 11  2  0  0  0  0
M  CHG  3   1   1   4  -1  11   1
M  END
>  <CHROM.1>
-155.12019210,-177.62135774,175.83021222,149.17595180,153.94881839,-95.18276375
-3.48447555,1.07463131,29.66420512,-1.40391495,0.95477120,0.65547823

>  <Name>
1koc cryst

>  <RI>
0

>  <Rbt.Current_Directory>
/home/itssahil/PROJECTS/Mol_Feturizer/New_Systems/rnas/1koc

>  <Rbt.Executable>
rbdock ($Id: //depot/dev/client3/rdock/2013.1/src/exe/rbdock.cxx#4 $)

>  <Rbt.Library>
libRbt.so (2013.1, Build901 2013/11/27)

>  <Rbt.Parameter_File>
/export/apps/rDock/src/rDock_2013.1_src/data/scripts/dock_solv.prm

>  <Rbt.Receptor>
prm/blind_docking_80.prm

>  <SCORE>
-22.3207

>  <SCORE.INTER>
-23.2402

>  <SCORE.INTER.CONST>
1

>  <SCORE.INTER.POLAR>
-3.46357

>  <SCORE.INTER.ROT>
5

>  <SCORE.INTER.SOLV>
34.6364

>  <SCORE.INTER.VDW>
-22.427

>  <SCORE.INTER.norm>
-1.93668

>  <SCORE.INTRA>
0.91947

>  <SCORE.INTRA.DIHEDRAL>
4.138

>  <SCORE.INTRA.DIHEDRAL.0>
6.04201

>  <SCORE.INTRA.POLAR>
0

>  <SCORE.INTRA.POLAR.0>
0

>  <SCORE.INTRA.REPUL>
0

>  <SCORE.INTRA.REPUL.0>
0

>  <SCORE.INTRA.SOLV>
-0.363011

>  <SCORE.INTRA.SOLV.lig_0>
-71.0481

>  <SCORE.INTRA.VDW>
-0.968026

>  <SCORE.INTRA.VDW.0>
0.968882

>  <SCORE.INTRA.norm>
0.0766225

>  <SCORE.RESTR>
0

>  <SCORE.RESTR.CAVITY>
0

>  <SCORE.RESTR.norm>
0

>  <SCORE.SYSTEM>
0

>  <SCORE.SYSTEM.CONST>
0

>  <SCORE.SYSTEM.DIHEDRAL>
0

>  <SCORE.SYSTEM.SOLV>
0

>  <SCORE.SYSTEM.norm>
0

>  <SCORE.heavy>
12

>  <SCORE.norm>
-1.86006

>  <SYMMETRIC_BONDS>
11 12 2
5 6 2

>  <RMSD>
9.185

$$$$
1koc cryst
 OpenBabel11021811393D
libRbt.so/2013.1/901 2013/11/27
 12 11  0  0  0  0  0  0  0  0999 V2000
   -2.8360    0.8522   26.1533 N   0  3  0  0  0  0  0  0  0  0  0  0
   -3.3428    1.5997   27.3438 C   0  0  2  0  0  0  0  0  0  0  0  0
   -3.2714    3.1120   27.0553 C   0  0  0  0  0  0  0  0  0  0  0  0
   -2.1692    3.6109   26.8834 O   0  5  0  0  0  0  0  0  0  0  0  0
   -2.4801    1.2312   28.5808 C   0  0  0  0  0  0  0  0  0  0  0  0
   -2.4290   -0.2875   28.7850 C   0  0  0  0  0  0  0  0  0  0  0  0
   -3.8472   -0.8455   28.8330 C   0  0  0  0  0  0  0  0  0  0  0  0
   -3.8039   -2.3274   29.0017 N   0  0  0  0  0  0  0  0  0  0  0  0
   -3.9787   -3.1159   27.9686 C   0  0  0  0  0  0  0  0  0  0  0  0
   -3.5108   -2.7783   26.7925 N   0  0  0  0  0  0  0  0  0  0  0  0
   -4.6184   -4.2468   28.1131 N   0  3  0  0  0  0  0  0  0  0  0  0
   -4.3149    3.7470   27.0221 O   0  0  0  0  0  0  0  0  0  0  0  0
  2  1  1  6  0  0  0
  2  5  1  0  0  0  0
  2  3  1  0  0  0  0
  3  4  1  0  0  0  0
  3 12  2  0  0  0  0
  5  6  1  0  0  0  0
  6  7  1  0  0  0  0
  7  8  1  0  0  0  0
  8  9  1  0  0  0  0
  9 10  1  0  0  0  0
  9 11  2  0  0  0  0
M  CHG  3   1   1   4  -1  11   1
M  END
>  <CHROM.1>
-138.02077642,-53.97081574,-63.96423519,-53.26529074,178.76519185,-100.48253994
-3.38137304,0.03065909,27.67127071,0.81487382,-1.35894078,-0.91093994

>  <Name>
1koc cryst

>  <RI>
0

>  <Rbt.Current_Directory>
/home/itssahil/PROJECTS/Mol_Feturizer/New_Systems/rnas/1koc

>  <Rbt.Executable>
rbdock ($Id: //depot/dev/client3/rdock/2013.1/src/exe/rbdock.cxx#4 $)

>  <Rbt.Library>
libRbt.so (2013.1, Build901 2013/11/27)

>  <Rbt.Parameter_File>
/export/apps/rDock/src/rDock_2013.1_src/data/scripts/dock_solv.prm

>  <Rbt.Receptor>
prm/blind_docking_60.prm

>  <SCORE>
-24.0246

>  <SCORE.INTER>
-25.4278

>  <SCORE.INTER.CONST>
1

>  <SCORE.INTER.POLAR>
-6.22503

>  <SCORE.INTER.ROT>
5

>  <SCORE.INTER.SOLV>
33.0079

>  <SCORE.INTER.VDW>
-14.1377

>  <SCORE.INTER.norm>
-2.11898

>  <SCORE.INTRA>
1.18951

>  <SCORE.INTRA.DIHEDRAL>
0.583722

>  <SCORE.INTRA.DIHEDRAL.0>
6.04201

>  <SCORE.INTRA.POLAR>
0

>  <SCORE.INTRA.POLAR.0>
0

>  <SCORE.INTRA.REPUL>
0.0671368

>  <SCORE.INTRA.REPUL.0>
0

>  <SCORE.INTRA.SOLV>
2.31324

>  <SCORE.INTRA.SOLV.lig_0>
-71.0481

>  <SCORE.INTRA.VDW>
-0.594654

>  <SCORE.INTRA.VDW.0>
0.968882

>  <SCORE.INTRA.norm>
0.0991258

>  <SCORE.RESTR>
0.213679

>  <SCORE.RESTR.CAVITY>
0.213679

>  <SCORE.RESTR.norm>
0.0178066

>  <SCORE.SYSTEM>
0

>  <SCORE.SYSTEM.CONST>
0

>  <SCORE.SYSTEM.DIHEDRAL>
0

>  <SCORE.SYSTEM.SOLV>
0

>  <SCORE.SYSTEM.norm>
0

>  <SCORE.heavy>
12

>  <SCORE.norm>
-2.00205

>  <SYMMETRIC_BONDS>
11 12 2
5 6 2

>  <RMSD>
9.189

$$$$
1koc cryst
 OpenBabel11021811393D
libRbt.so/2013.1/901 2013/11/27
 12 11  0  0  0  0  0  0  0  0999 V2000
   -3.3809    2.6948   27.0028 N   0  3  0  0  0  0  0  0  0  0  0  0
   -3.3397    1.6885   28.1067 C   0  0  2  0  0  0  0  0  0  0  0  0
   -2.5417    2.2721   29.2891 C   0  0  0  0  0  0  0  0  0  0  0  0
   -1.3996    2.6515   29.0776 O   0  5  0  0  0  0  0  0  0  0  0  0
   -2.6783    0.3855   27.5825 C   0  0  0  0  0  0  0  0  0  0  0  0
   -2.9852   -0.7991   28.5063 C   0  0  0  0  0  0  0  0  0  0  0  0
   -3.9647   -1.7440   27.8187 C   0  0  0  0  0  0  0  0  0  0  0  0
   -4.1380   -2.9791   28.6377 N   0  0  0  0  0  0  0  0  0  0  0  0
   -4.7101   -4.0402   28.1213 C   0  0  0  0  0  0  0  0  0  0  0  0
   -4.5127   -4.3520   26.8644 N   0  0  0  0  0  0  0  0  0  0  0  0
   -5.4771   -4.7936   28.8648 N   0  3  0  0  0  0  0  0  0  0  0  0
   -3.0791    2.3197   30.3855 O   0  0  0  0  0  0  0  0  0  0  0  0
  2  1  1  6  0  0  0
  2  5  1  0  0  0  0
  2  3  1  0  0  0  0
  3  4  1  0  0  0  0
  3 12  2  0  0  0  0
  5  6  1  0  0  0  0
  6  7  1  0  0  0  0
  7  8  1  0  0  0  0
  8  9  1  0  0  0  0
  9 10  1  0  0  0  0
  9 11  2  0  0  0  0
M  CHG  3   1   1   4  -1  11   1
M  END
>  <CHROM.1>
-22.04057950,-162.77455417,-56.24720647,108.43807414,173.06744288,-165.92792506
-3.52270529,-0.54516240,28.34518590,0.03294122,-1.25024880,-1.43339896

>  <Name>
1koc cryst

>  <RI>
0

>  <Rbt.Current_Directory>
/home/itssahil/PROJECTS/Mol_Feturizer/New_Systems/rnas/1koc

>  <Rbt.Executable>
rbdock ($Id: //depot/dev/client3/rdock/2013.1/src/exe/rbdock.cxx#4 $)

>  <Rbt.Library>
libRbt.so (2013.1, Build901 2013/11/27)

>  <Rbt.Parameter_File>
/export/apps/rDock/src/rDock_2013.1_src/data/scripts/dock_solv.prm

>  <Rbt.Receptor>
prm/blind_docking_60.prm

>  <SCORE>
14.9316

>  <SCORE.INTER>
13.7144

>  <SCORE.INTER.CONST>
1

>  <SCORE.INTER.POLAR>
-3.79879

>  <SCORE.INTER.ROT>
5

>  <SCORE.INTER.SOLV>
33.2323

>  <SCORE.INTER.VDW>
3.79483

>  <SCORE.INTER.norm>
1.14287

>  <SCORE.INTRA>
1.11271

>  <SCORE.INTRA.DIHEDRAL>
6.65137

>  <SCORE.INTRA.DIHEDRAL.0>
6.04201

>  <SCORE.INTRA.POLAR>
0

>  <SCORE.INTRA.POLAR.0>
0

>  <SCORE.INTRA.REPUL>
0

>  <SCORE.INTRA.REPUL.0>
0

>  <SCORE.INTRA.SOLV>
-1.6727

>  <SCORE.INTRA.SOLV.lig_0>
-71.0481

>  <SCORE.INTRA.VDW>
-1.37663

>  <SCORE.INTRA.VDW.0>
0.968882

>  <SCORE.INTRA.norm>
0.0927256

>  <SCORE.RESTR>
0.104432

>  <SCORE.RESTR.CAVITY>
0.104432

>  <SCORE.RESTR.norm>
0.00870267

>  <SCORE.SYSTEM>
0

>  <SCORE.SYSTEM.CONST>
0

>  <SCORE.SYSTEM.DIHEDRAL>
0

>  <SCORE.SYSTEM.SOLV>
0

>  <SCORE.SYSTEM.norm>
0

>  <SCORE.heavy>
12

>  <SCORE.norm>
1.2443

>  <SYMMETRIC_BONDS>
11 12 2
5 6 2

>  <RMSD>
9.189

$$$$
1koc cryst
 OpenBabel11021811393D
libRbt.so/2013.1/901 2013/11/27
 12 11  0  0  0  0  0  0  0  0999 V2000
   -2.7763    2.4026   30.1616 N   0  3  0  0  0  0  0  0  0  0  0  0
   -2.5325    1.7466   28.8413 C   0  0  2  0  0  0  0  0  0  0  0  0
   -3.1148    2.6344   27.7240 C   0  0  0  0  0  0  0  0  0  0  0  0
   -4.3200    2.5908   27.5274 O   0  5  0  0  0  0  0  0  0  0  0  0
   -3.2004    0.3451   28.8387 C   0  0  0  0  0  0  0  0  0  0  0  0
   -2.8194   -0.4452   27.5813 C   0  0  0  0  0  0  0  0  0  0  0  0
   -3.8425   -1.5501   27.3417 C   0  0  0  0  0  0  0  0  0  0  0  0
   -4.0451   -2.3343   28.5948 N   0  0  0  0  0  0  0  0  0  0  0  0
   -4.5804   -3.5306   28.5470 C   0  0  0  0  0  0  0  0  0  0  0  0
   -4.3169   -4.3333   27.5458 N   0  0  0  0  0  0  0  0  0  0  0  0
   -5.3767   -3.9267   29.5050 N   0  3  0  0  0  0  0  0  0  0  0  0
   -2.3479    3.3325   27.0776 O   0  0  0  0  0  0  0  0  0  0  0  0
  2  1  1  1  0  0  0
  2  5  1  0  0  0  0
  2  3  1  0  0  0  0
  3  4  1  0  0  0  0
  3 12  2  0  0  0  0
  5  6  1  0  0  0  0
  6  7  1  0  0  0  0
  7  8  1  0  0  0  0
  8  9  1  0  0  0  0
  9 10  1  0  0  0  0
  9 11  2  0  0  0  0
M  CHG  3   1   1   4  -1  11   1
M  END
>  <CHROM.1>
0.89417960,-172.28181362,-79.24076920,-159.32709386,-50.30815473,-161.28085974
-3.61884151,-0.24530801,28.30171653,0.24797529,1.30429073,1.27692872

>  <Name>
1koc cryst

>  <RI>
0

>  <Rbt.Current_Directory>
/home/itssahil/PROJECTS/Mol_Feturizer/New_Systems/rnas/1koc

>  <Rbt.Executable>
rbdock ($Id: //depot/dev/client3/rdock/2013.1/src/exe/rbdock.cxx#4 $)

>  <Rbt.Library>
libRbt.so (2013.1, Build901 2013/11/27)

>  <Rbt.Parameter_File>
/export/apps/rDock/src/rDock_2013.1_src/data/scripts/dock_solv.prm

>  <Rbt.Receptor>
prm/blind_docking_60.prm

>  <SCORE>
4.25858

>  <SCORE.INTER>
2.39346

>  <SCORE.INTER.CONST>
1

>  <SCORE.INTER.POLAR>
-4.51087

>  <SCORE.INTER.ROT>
5

>  <SCORE.INTER.SOLV>
34.6103

>  <SCORE.INTER.VDW>
-1.83823

>  <SCORE.INTER.norm>
0.199455

>  <SCORE.INTRA>
1.45986

>  <SCORE.INTRA.DIHEDRAL>
3.17364

>  <SCORE.INTRA.DIHEDRAL.0>
6.04201

>  <SCORE.INTRA.POLAR>
0

>  <SCORE.INTRA.POLAR.0>
0

>  <SCORE.INTRA.REPUL>
0

>  <SCORE.INTRA.REPUL.0>
0

>  <SCORE.INTRA.SOLV>
-0.873506

>  <SCORE.INTRA.SOLV.lig_0>
-71.0481

>  <SCORE.INTRA.VDW>
0.309793

>  <SCORE.INTRA.VDW.0>
0.968882

>  <SCORE.INTRA.norm>
0.121655

>  <SCORE.RESTR>
0.405254

>  <SCORE.RESTR.CAVITY>
0.405254

>  <SCORE.RESTR.norm>
0.0337712

>  <SCORE.SYSTEM>
0

>  <SCORE.SYSTEM.CONST>
0

>  <SCORE.SYSTEM.DIHEDRAL>
0

>  <SCORE.SYSTEM.SOLV>
0

>  <SCORE.SYSTEM.norm>
0

>  <SCORE.heavy>
12

>  <SCORE.norm>
0.354882

>  <SYMMETRIC_BONDS>
11 12 2
5 6 2

>  <RMSD>
9.199

$$$$
1koc cryst
 OpenBabel11021811393D
libRbt.so/2013.1/901 2013/11/27
 12 11  0  0  0  0  0  0  0  0999 V2000
   -2.9767    2.4926   26.9465 N   0  3  0  0  0  0  0  0  0  0  0  0
   -2.2471    1.3193   27.5156 C   0  0  2  0  0  0  0  0  0  0  0  0
   -2.8667    0.0233   26.9570 C   0  0  0  0  0  0  0  0  0  0  0  0
   -2.4531   -1.0420   27.3895 O   0  5  0  0  0  0  0  0  0  0  0  0
   -2.3499    1.3587   29.0641 C   0  0  0  0  0  0  0  0  0  0  0  0
   -3.8079    1.2394   29.5234 C   0  0  0  0  0  0  0  0  0  0  0  0
   -3.9644    1.8751   30.9005 C   0  0  0  0  0  0  0  0  0  0  0  0
   -5.4047    2.1582   31.1679 N   0  0  0  0  0  0  0  0  0  0  0  0
   -5.7490    2.9972   32.1151 C   0  0  0  0  0  0  0  0  0  0  0  0
   -5.0249    4.0636   32.3491 N   0  0  0  0  0  0  0  0  0  0  0  0
   -6.8223    2.7720   32.8265 N   0  3  0  0  0  0  0  0  0  0  0  0
   -3.7335    0.1159   26.1006 O   0  0  0  0  0  0  0  0  0  0  0  0
  2  1  1  6  0  0  0
  2  5  1  0  0  0  0
  2  3  1  0  0  0  0
  3  4  1  0  0  0  0
  3 12  2  0  0  0  0
  5  6  1  0  0  0  0
  6  7  1  0  0  0  0
  7  8  1  0  0  0  0
  8  9  1  0  0  0  0
  9 10  1  0  0  0  0
  9 11  2  0  0  0  0
M  CHG  3   1   1   4  -1  11   1
M  END
>  <CHROM.1>
-55.40400824,62.50846573,-174.97269924,-155.14236706,162.04808519,-162.51091996
-3.97715535,1.63668768,29.39181768,-0.76599263,0.90395967,0.42113578

>  <Name>
1koc cryst

>  <RI>
0

>  <Rbt.Current_Directory>
/home/itssahil/PROJECTS/Mol_Feturizer/New_Systems/rnas/1koc

>  <Rbt.Executable>
rbdock ($Id: //depot/dev/client3/rdock/2013.1/src/exe/rbdock.cxx#4 $)

>  <Rbt.Library>
libRbt.so (2013.1, Build901 2013/11/27)

>  <Rbt.Parameter_File>
/export/apps/rDock/src/rDock_2013.1_src/data/scripts/dock_solv.prm

>  <Rbt.Receptor>
prm/blind_docking_80.prm

>  <SCORE>
-28.5805

>  <SCORE.INTER>
-28.0155

>  <SCORE.INTER.CONST>
1

>  <SCORE.INTER.POLAR>
-4.62862

>  <SCORE.INTER.ROT>
5

>  <SCORE.INTER.SOLV>
28.7625

>  <SCORE.INTER.VDW>
-19.7691

>  <SCORE.INTER.norm>
-2.33462

>  <SCORE.INTRA>
-0.565048

>  <SCORE.INTRA.DIHEDRAL>
0.844259

>  <SCORE.INTRA.DIHEDRAL.0>
6.04201

>  <SCORE.INTRA.POLAR>
0

>  <SCORE.INTRA.POLAR.0>
0

>  <SCORE.INTRA.REPUL>
0

>  <SCORE.INTRA.REPUL.0>
0

>  <SCORE.INTRA.SOLV>
0.193585

>  <SCORE.INTRA.SOLV.lig_0>
-71.0481

>  <SCORE.INTRA.VDW>
-1.08397

>  <SCORE.INTRA.VDW.0>
0.968882

>  <SCORE.INTRA.norm>
-0.0470873

>  <SCORE.RESTR>
0

>  <SCORE.RESTR.CAVITY>
0

>  <SCORE.RESTR.norm>
0

>  <SCORE.SYSTEM>
0

>  <SCORE.SYSTEM.CONST>
0

>  <SCORE.SYSTEM.DIHEDRAL>
0

>  <SCORE.SYSTEM.SOLV>
0

>  <SCORE.SYSTEM.norm>
0

>  <SCORE.heavy>
12

>  <SCORE.norm>
-2.38171

>  <SYMMETRIC_BONDS>
11 12 2
5 6 2

>  <RMSD>
9.211

$$$$
1koc cryst
 OpenBabel11021811393D
libRbt.so/2013.1/901 2013/11/27
 12 11  0  0  0  0  0  0  0  0999 V2000
   -8.2053    2.8328   31.9480 N   0  3  0  0  0  0  0  0  0  0  0  0
   -6.8717    3.4962   31.8284 C   0  0  2  0  0  0  0  0  0  0  0  0
   -6.7316    4.0911   30.4135 C   0  0  0  0  0  0  0  0  0  0  0  0
   -7.0844    3.4048   29.4661 O   0  5  0  0  0  0  0  0  0  0  0  0
   -5.7572    2.4505   32.1016 C   0  0  0  0  0  0  0  0  0  0  0  0
   -4.3673    3.0931   32.0256 C   0  0  0  0  0  0  0  0  0  0  0  0
   -3.3776    2.1023   31.4225 C   0  0  0  0  0  0  0  0  0  0  0  0
   -1.9871    2.6249   31.5630 N   0  0  0  0  0  0  0  0  0  0  0  0
   -1.0307    2.1772   30.7855 C   0  0  0  0  0  0  0  0  0  0  0  0
   -1.2804    1.8800   29.5344 N   0  0  0  0  0  0  0  0  0  0  0  0
    0.1791    2.0314   31.2588 N   0  3  0  0  0  0  0  0  0  0  0  0
   -6.2649    5.2147   30.2993 O   0  0  0  0  0  0  0  0  0  0  0  0
  2  1  1  6  0  0  0
  2  5  1  0  0  0  0
  2  3  1  0  0  0  0
  3  4  1  0  0  0  0
  3 12  2  0  0  0  0
  5  6  1  0  0  0  0
  6  7  1  0  0  0  0
  7  8  1  0  0  0  0
  8  9  1  0  0  0  0
  9 10  1  0  0  0  0
  9 11  2  0  0  0  0
M  CHG  3   1   1   4  -1  11   1
M  END
>  <CHROM.1>
160.31376928,-178.54553190,-44.28924488,-144.24776729,-170.16521694,-159.01799280
-4.41097291,2.94604996,31.03765839,3.06673561,0.22136015,-1.12246483

>  <Name>
1koc cryst

>  <RI>
0

>  <Rbt.Current_Directory>
/home/itssahil/PROJECTS/Mol_Feturizer/New_Systems/rnas/1koc

>  <Rbt.Executable>
rbdock ($Id: //depot/dev/client3/rdock/2013.1/src/exe/rbdock.cxx#4 $)

>  <Rbt.Library>
libRbt.so (2013.1, Build901 2013/11/27)

>  <Rbt.Parameter_File>
/export/apps/rDock/src/rDock_2013.1_src/data/scripts/dock_solv.prm

>  <Rbt.Receptor>
prm/blind_docking_100.prm

>  <SCORE>
-30.3894

>  <SCORE.INTER>
-29.8127

>  <SCORE.INTER.CONST>
1

>  <SCORE.INTER.POLAR>
-4.98958

>  <SCORE.INTER.ROT>
5

>  <SCORE.INTER.SOLV>
22.0248

>  <SCORE.INTER.VDW>
-17.5181

>  <SCORE.INTER.norm>
-2.48439

>  <SCORE.INTRA>
-0.841652

>  <SCORE.INTRA.DIHEDRAL>
2.59217

>  <SCORE.INTRA.DIHEDRAL.0>
6.04201

>  <SCORE.INTRA.POLAR>
0

>  <SCORE.INTRA.POLAR.0>
0

>  <SCORE.INTRA.REPUL>
0

>  <SCORE.INTRA.REPUL.0>
0

>  <SCORE.INTRA.SOLV>
-0.956928

>  <SCORE.INTRA.SOLV.lig_0>
-71.0481

>  <SCORE.INTRA.VDW>
-1.65927

>  <SCORE.INTRA.VDW.0>
0.968882

>  <SCORE.INTRA.norm>
-0.0701376

>  <SCORE.RESTR>
0.264874

>  <SCORE.RESTR.CAVITY>
0.264874

>  <SCORE.RESTR.norm>
0.0220728

>  <SCORE.SYSTEM>
0

>  <SCORE.SYSTEM.CONST>
0

>  <SCORE.SYSTEM.DIHEDRAL>
0

>  <SCORE.SYSTEM.SOLV>
0

>  <SCORE.SYSTEM.norm>
0

>  <SCORE.heavy>
12

>  <SCORE.norm>
-2.53245

>  <SYMMETRIC_BONDS>
11 12 2
5 6 2

>  <RMSD>
9.214

$$$$
1koc cryst
 OpenBabel11021811393D
libRbt.so/2013.1/901 2013/11/27
 12 11  0  0  0  0  0  0  0  0999 V2000
   -3.2169    3.2154   26.8752 N   0  3  0  0  0  0  0  0  0  0  0  0
   -3.4800    1.8021   27.2831 C   0  0  2  0  0  0  0  0  0  0  0  0
   -3.0595    1.6172   28.7543 C   0  0  0  0  0  0  0  0  0  0  0  0
   -2.8853    0.4783   29.1613 O   0  5  0  0  0  0  0  0  0  0  0  0
   -2.6807    0.8479   26.3553 C   0  0  0  0  0  0  0  0  0  0  0  0
   -3.5498   -0.3274   25.8923 C   0  0  0  0  0  0  0  0  0  0  0  0
   -2.9937   -1.6293   26.4585 C   0  0  0  0  0  0  0  0  0  0  0  0
   -4.1097   -2.5811   26.7325 N   0  0  0  0  0  0  0  0  0  0  0  0
   -4.2384   -3.1254   27.9186 C   0  0  0  0  0  0  0  0  0  0  0  0
   -3.9525   -2.4377   28.9962 N   0  0  0  0  0  0  0  0  0  0  0  0
   -4.6589   -4.3584   28.0273 N   0  3  0  0  0  0  0  0  0  0  0  0
   -2.9300    2.6127   29.4510 O   0  0  0  0  0  0  0  0  0  0  0  0
  2  1  1  6  0  0  0
  2  5  1  0  0  0  0
  2  3  1  0  0  0  0
  3  4  1  0  0  0  0
  3 12  2  0  0  0  0
  5  6  1  0  0  0  0
  6  7  1  0  0  0  0
  7  8  1  0  0  0  0
  8  9  1  0  0  0  0
  9 10  1  0  0  0  0
  9 11  2  0  0  0  0
M  CHG  3   1   1   4  -1  11   1
M  END
>  <CHROM.1>
-77.82315606,-135.10342676,-162.06828520,-114.89164396,147.04365357,-126.49414400
-3.48397952,-0.30431190,27.68282559,-0.10290041,-1.36598596,-1.64634044

>  <Name>
1koc cryst

>  <RI>
0

>  <Rbt.Current_Directory>
/home/itssahil/PROJECTS/Mol_Feturizer/New_Systems/rnas/1koc

>  <Rbt.Executable>
rbdock ($Id: //depot/dev/client3/rdock/2013.1/src/exe/rbdock.cxx#4 $)

>  <Rbt.Library>
libRbt.so (2013.1, Build901 2013/11/27)

>  <Rbt.Parameter_File>
/export/apps/rDock/src/rDock_2013.1_src/data/scripts/dock_solv.prm

>  <Rbt.Receptor>
prm/blind_docking_80.prm

>  <SCORE>
-5.03394

>  <SCORE.INTER>
-5.08097

>  <SCORE.INTER.CONST>
1

>  <SCORE.INTER.POLAR>
-2.51287

>  <SCORE.INTER.ROT>
5

>  <SCORE.INTER.SOLV>
30.356

>  <SCORE.INTER.VDW>
-12.0631

>  <SCORE.INTER.norm>
-0.423414

>  <SCORE.INTRA>
0.0470311

>  <SCORE.INTRA.DIHEDRAL>
11.685

>  <SCORE.INTRA.DIHEDRAL.0>
6.04201

>  <SCORE.INTRA.POLAR>
-1.32519

>  <SCORE.INTRA.POLAR.0>
0

>  <SCORE.INTRA.REPUL>
0

>  <SCORE.INTRA.REPUL.0>
0

>  <SCORE.INTRA.SOLV>
1.88799

>  <SCORE.INTRA.SOLV.lig_0>
-71.0481

>  <SCORE.INTRA.VDW>
-2.23382

>  <SCORE.INTRA.VDW.0>
0.968882

>  <SCORE.INTRA.norm>
0.00391926

>  <SCORE.RESTR>
0

>  <SCORE.RESTR.CAVITY>
0

>  <SCORE.RESTR.norm>
0

>  <SCORE.SYSTEM>
0

>  <SCORE.SYSTEM.CONST>
0

>  <SCORE.SYSTEM.DIHEDRAL>
0

>  <SCORE.SYSTEM.SOLV>
0

>  <SCORE.SYSTEM.norm>
0

>  <SCORE.heavy>
12

>  <SCORE.norm>
-0.419495

>  <SYMMETRIC_BONDS>
11 12 2
5 6 2

>  <RMSD>
9.214

$$$$
1koc cryst
 OpenBabel11021811393D
libRbt.so/2013.1/901 2013/11/27
 12 11  0  0  0  0  0  0  0  0999 V2000
   -2.8834    0.1958   26.2402 N   0  3  0  0  0  0  0  0  0  0  0  0
   -2.6710    0.1777   27.7191 C   0  0  2  0  0  0  0  0  0  0  0  0
   -3.4363   -1.0166   28.3221 C   0  0  0  0  0  0  0  0  0  0  0  0
   -3.8414   -1.8812   27.5595 O   0  5  0  0  0  0  0  0  0  0  0  0
   -3.1734    1.5174   28.3215 C   0  0  0  0  0  0  0  0  0  0  0  0
   -2.7615    1.6497   29.7925 C   0  0  0  0  0  0  0  0  0  0  0  0
   -3.9827    1.9979   30.6366 C   0  0  0  0  0  0  0  0  0  0  0  0
   -3.5655    2.7913   31.8294 N   0  0  0  0  0  0  0  0  0  0  0  0
   -4.4534    3.4690   32.5164 C   0  0  0  0  0  0  0  0  0  0  0  0
   -5.6615    2.9922   32.6873 N   0  0  0  0  0  0  0  0  0  0  0  0
   -4.1309    4.6235   33.0378 N   0  3  0  0  0  0  0  0  0  0  0  0
   -3.6144   -1.0421   29.5307 O   0  0  0  0  0  0  0  0  0  0  0  0
  2  1  1  6  0  0  0
  2  5  1  0  0  0  0
  2  3  1  0  0  0  0
  3  4  1  0  0  0  0
  3 12  2  0  0  0  0
  5  6  1  0  0  0  0
  6  7  1  0  0  0  0
  7  8  1  0  0  0  0
  8  9  1  0  0  0  0
  9 10  1  0  0  0  0
  9 11  2  0  0  0  0
M  CHG  3   1   1   4  -1  11   1
M  END
>  <CHROM.1>
177.87148341,-170.25478785,14.34029343,-128.75980005,-150.86807745,163.54437081
-3.69475531,1.28567942,29.83601478,-1.21803055,1.01260591,0.56945163

>  <Name>
1koc cryst

>  <RI>
0

>  <Rbt.Current_Directory>
/home/itssahil/PROJECTS/Mol_Feturizer/New_Systems/rnas/1koc

>  <Rbt.Executable>
rbdock ($Id: //depot/dev/client3/rdock/2013.1/src/exe/rbdock.cxx#4 $)

>  <Rbt.Library>
libRbt.so (2013.1, Build901 2013/11/27)

>  <Rbt.Parameter_File>
/export/apps/rDock/src/rDock_2013.1_src/data/scripts/dock_solv.prm

>  <Rbt.Receptor>
prm/blind_docking_60.prm

>  <SCORE>
-20.8451

>  <SCORE.INTER>
-22.6213

>  <SCORE.INTER.CONST>
1

>  <SCORE.INTER.POLAR>
-2.73436

>  <SCORE.INTER.ROT>
5

>  <SCORE.INTER.SOLV>
35.9938

>  <SCORE.INTER.VDW>
-24.8976

>  <SCORE.INTER.norm>
-1.88511

>  <SCORE.INTRA>
1.77622

>  <SCORE.INTRA.DIHEDRAL>
6.18933

>  <SCORE.INTRA.DIHEDRAL.0>
6.04201

>  <SCORE.INTRA.POLAR>
0

>  <SCORE.INTRA.POLAR.0>
0

>  <SCORE.INTRA.REPUL>
0

>  <SCORE.INTRA.REPUL.0>
0

>  <SCORE.INTRA.SOLV>
-0.563108

>  <SCORE.INTRA.SOLV.lig_0>
-71.0481

>  <SCORE.INTRA.VDW>
-1.03689

>  <SCORE.INTRA.VDW.0>
0.968882

>  <SCORE.INTRA.norm>
0.148018

>  <SCORE.RESTR>
0

>  <SCORE.RESTR.CAVITY>
0

>  <SCORE.RESTR.norm>
0

>  <SCORE.SYSTEM>
0

>  <SCORE.SYSTEM.CONST>
0

>  <SCORE.SYSTEM.DIHEDRAL>
0

>  <SCORE.SYSTEM.SOLV>
0

>  <SCORE.SYSTEM.norm>
0

>  <SCORE.heavy>
12

>  <SCORE.norm>
-1.73709

>  <SYMMETRIC_BONDS>
11 12 2
5 6 2

>  <RMSD>
9.235

$$$$
1koc cryst
 OpenBabel11021811393D
libRbt.so/2013.1/901 2013/11/27
 12 11  0  0  0  0  0  0  0  0999 V2000
   -2.7947    0.9052   27.1119 N   0  3  0  0  0  0  0  0  0  0  0  0
   -2.6682    0.1176   28.3753 C   0  0  2  0  0  0  0  0  0  0  0  0
   -3.3860   -1.2348   28.1984 C   0  0  0  0  0  0  0  0  0  0  0  0
   -3.6414   -1.6033   27.0617 O   0  5  0  0  0  0  0  0  0  0  0  0
   -3.2930    0.9266   29.5438 C   0  0  0  0  0  0  0  0  0  0  0  0
   -2.3068    1.9703   30.0814 C   0  0  0  0  0  0  0  0  0  0  0  0
   -2.8666    2.5955   31.3544 C   0  0  0  0  0  0  0  0  0  0  0  0
   -4.2215    3.1611   31.0885 N   0  0  0  0  0  0  0  0  0  0  0  0
   -4.9077    3.7173   32.0578 C   0  0  0  0  0  0  0  0  0  0  0  0
   -4.2979    4.4142   32.9843 N   0  0  0  0  0  0  0  0  0  0  0  0
   -6.2072    3.5804   32.0976 N   0  3  0  0  0  0  0  0  0  0  0  0
   -3.6781   -1.8728   29.1989 O   0  0  0  0  0  0  0  0  0  0  0  0
  2  1  1  6  0  0  0
  2  5  1  0  0  0  0
  2  3  1  0  0  0  0
  3  4  1  0  0  0  0
  3 12  2  0  0  0  0
  5  6  1  0  0  0  0
  6  7  1  0  0  0  0
  7  8  1  0  0  0  0
  8  9  1  0  0  0  0
  9 10  1  0  0  0  0
  9 11  2  0  0  0  0
M  CHG  3   1   1   4  -1  11   1
M  END
>  <CHROM.1>
153.76009300,-81.80235355,17.10594982,-171.41309060,-55.42838098,178.09941391
-3.71279086,1.39645429,29.90524077,-1.30462318,0.56175587,0.60505519

>  <Name>
1koc cryst

>  <RI>
0

>  <Rbt.Current_Directory>
/home/itssahil/PROJECTS/Mol_Feturizer/New_Systems/rnas/1koc

>  <Rbt.Executable>
rbdock ($Id: //depot/dev/client3/rdock/2013.1/src/exe/rbdock.cxx#4 $)

>  <Rbt.Library>
libRbt.so (2013.1, Build901 2013/11/27)

>  <Rbt.Parameter_File>
/export/apps/rDock/src/rDock_2013.1_src/data/scripts/dock_solv.prm

>  <Rbt.Receptor>
prm/blind_docking_60.prm

>  <SCORE>
-32.7171

>  <SCORE.INTER>
-32.0454

>  <SCORE.INTER.CONST>
1

>  <SCORE.INTER.POLAR>
-4.41043

>  <SCORE.INTER.ROT>
5

>  <SCORE.INTER.SOLV>
30.3299

>  <SCORE.INTER.VDW>
-23.7055

>  <SCORE.INTER.norm>
-2.67045

>  <SCORE.INTRA>
-0.671749

>  <SCORE.INTRA.DIHEDRAL>
0.732905

>  <SCORE.INTRA.DIHEDRAL.0>
6.04201

>  <SCORE.INTRA.POLAR>
0

>  <SCORE.INTRA.POLAR.0>
0

>  <SCORE.INTRA.REPUL>
0

>  <SCORE.INTRA.REPUL.0>
0

>  <SCORE.INTRA.SOLV>
-0.762431

>  <SCORE.INTRA.SOLV.lig_0>
-71.0481

>  <SCORE.INTRA.VDW>
-0.656986

>  <SCORE.INTRA.VDW.0>
0.968882

>  <SCORE.INTRA.norm>
-0.0559791

>  <SCORE.RESTR>
0

>  <SCORE.RESTR.CAVITY>
0

>  <SCORE.RESTR.norm>
0

>  <SCORE.SYSTEM>
0

>  <SCORE.SYSTEM.CONST>
0

>  <SCORE.SYSTEM.DIHEDRAL>
0

>  <SCORE.SYSTEM.SOLV>
0

>  <SCORE.SYSTEM.norm>
0

>  <SCORE.heavy>
12

>  <SCORE.norm>
-2.72643

>  <SYMMETRIC_BONDS>
11 12 2
5 6 2

>  <RMSD>
9.246

$$$$
1koc cryst
 OpenBabel11021811393D
libRbt.so/2013.1/901 2013/11/27
 12 11  0  0  0  0  0  0  0  0999 V2000
   -3.1604    2.4811   26.7985 N   0  3  0  0  0  0  0  0  0  0  0  0
   -2.7873    1.8976   28.1226 C   0  0  2  0  0  0  0  0  0  0  0  0
   -2.4504    0.4051   27.9370 C   0  0  0  0  0  0  0  0  0  0  0  0
   -3.1879   -0.2649   27.2296 O   0  5  0  0  0  0  0  0  0  0  0  0
   -3.9715    2.0786   29.1101 C   0  0  0  0  0  0  0  0  0  0  0  0
   -4.7493    3.3651   28.8086 C   0  0  0  0  0  0  0  0  0  0  0  0
   -6.1641    3.2502   29.3656 C   0  0  0  0  0  0  0  0  0  0  0  0
   -6.1226    2.6734   30.7410 N   0  0  0  0  0  0  0  0  0  0  0  0
   -6.2318    3.4540   31.7891 C   0  0  0  0  0  0  0  0  0  0  0  0
   -7.0240    4.4968   31.7571 N   0  0  0  0  0  0  0  0  0  0  0  0
   -5.5513    3.1883   32.8731 N   0  3  0  0  0  0  0  0  0  0  0  0
   -1.4707   -0.0452   28.5120 O   0  0  0  0  0  0  0  0  0  0  0  0
  2  1  1  6  0  0  0
  2  5  1  0  0  0  0
  2  3  1  0  0  0  0
  3  4  1  0  0  0  0
  3 12  2  0  0  0  0
  5  6  1  0  0  0  0
  6  7  1  0  0  0  0
  7  8  1  0  0  0  0
  8  9  1  0  0  0  0
  9 10  1  0  0  0  0
  9 11  2  0  0  0  0
M  CHG  3   1   1   4  -1  11   1
M  END
>  <CHROM.1>
-168.21600509,-32.14946890,-43.83453728,157.25167724,44.31153494,100.85325487
-4.40250290,2.24640713,29.41141684,0.51832645,0.79914368,-1.30748230

>  <Name>
1koc cryst

>  <RI>
0

>  <Rbt.Current_Directory>
/home/itssahil/PROJECTS/Mol_Feturizer/New_Systems/rnas/1koc

>  <Rbt.Executable>
rbdock ($Id: //depot/dev/client3/rdock/2013.1/src/exe/rbdock.cxx#4 $)

>  <Rbt.Library>
libRbt.so (2013.1, Build901 2013/11/27)

>  <Rbt.Parameter_File>
/export/apps/rDock/src/rDock_2013.1_src/data/scripts/dock_solv.prm

>  <Rbt.Receptor>
prm/blind_docking_40.prm

>  <SCORE>
-13.6265

>  <SCORE.INTER>
-15.179

>  <SCORE.INTER.CONST>
1

>  <SCORE.INTER.POLAR>
-4.09661

>  <SCORE.INTER.ROT>
5

>  <SCORE.INTER.SOLV>
25.6203

>  <SCORE.INTER.VDW>
-11.9374

>  <SCORE.INTER.norm>
-1.26492

>  <SCORE.INTRA>
1.43411

>  <SCORE.INTRA.DIHEDRAL>
2.8039

>  <SCORE.INTRA.DIHEDRAL.0>
6.04201

>  <SCORE.INTRA.POLAR>
0

>  <SCORE.INTRA.POLAR.0>
0

>  <SCORE.INTRA.REPUL>
0

>  <SCORE.INTRA.REPUL.0>
0

>  <SCORE.INTRA.SOLV>
0.266396

>  <SCORE.INTRA.SOLV.lig_0>
-71.0481

>  <SCORE.INTRA.VDW>
-0.101039

>  <SCORE.INTRA.VDW.0>
0.968882

>  <SCORE.INTRA.norm>
0.119509

>  <SCORE.RESTR>
0.11841

>  <SCORE.RESTR.CAVITY>
0.11841

>  <SCORE.RESTR.norm>
0.00986752

>  <SCORE.SYSTEM>
0

>  <SCORE.SYSTEM.CONST>
0

>  <SCORE.SYSTEM.DIHEDRAL>
0

>  <SCORE.SYSTEM.SOLV>
0

>  <SCORE.SYSTEM.norm>
0

>  <SCORE.heavy>
12

>  <SCORE.norm>
-1.13554

>  <SYMMETRIC_BONDS>
11 12 2
5 6 2

>  <RMSD>
9.253

$$$$
1koc cryst
 OpenBabel11021811393D
libRbt.so/2013.1/901 2013/11/27
 12 11  0  0  0  0  0  0  0  0999 V2000
   -2.8470    1.6818   26.8127 N   0  3  0  0  0  0  0  0  0  0  0  0
   -2.3436    0.3725   27.3277 C   0  0  2  0  0  0  0  0  0  0  0  0
   -3.3318   -0.7394   26.9247 C   0  0  0  0  0  0  0  0  0  0  0  0
   -3.4430   -1.7036   27.6670 O   0  5  0  0  0  0  0  0  0  0  0  0
   -2.2021    0.4538   28.8716 C   0  0  0  0  0  0  0  0  0  0  0  0
   -3.5448    0.7889   29.5317 C   0  0  0  0  0  0  0  0  0  0  0  0
   -3.6948    2.3018   29.6475 C   0  0  0  0  0  0  0  0  0  0  0  0
   -3.5799    2.7152   31.0766 N   0  0  0  0  0  0  0  0  0  0  0  0
   -4.6436    3.0960   31.7424 C   0  0  0  0  0  0  0  0  0  0  0  0
   -5.7998    2.5190   31.5275 N   0  0  0  0  0  0  0  0  0  0  0  0
   -4.5496    4.0525   32.6285 N   0  3  0  0  0  0  0  0  0  0  0  0
   -3.9511   -0.6151   25.8785 O   0  0  0  0  0  0  0  0  0  0  0  0
  2  1  1  1  0  0  0
  2  5  1  0  0  0  0
  2  3  1  0  0  0  0
  3  4  1  0  0  0  0
  3 12  2  0  0  0  0
  5  6  1  0  0  0  0
  6  7  1  0  0  0  0
  7  8  1  0  0  0  0
  8  9  1  0  0  0  0
  9 10  1  0  0  0  0
  9 11  2  0  0  0  0
M  CHG  3   1   1   4  -1  11   1
M  END
>  <CHROM.1>
47.22711991,58.85513268,-149.20427202,-89.85322522,-109.19655967,-106.82338587
-3.68350249,1.26505030,29.13066694,-1.24324927,0.78214769,0.70187688

>  <Name>
1koc cryst

>  <RI>
0

>  <Rbt.Current_Directory>
/home/itssahil/PROJECTS/Mol_Feturizer/New_Systems/rnas/1koc

>  <Rbt.Executable>
rbdock ($Id: //depot/dev/client3/rdock/2013.1/src/exe/rbdock.cxx#4 $)

>  <Rbt.Library>
libRbt.so (2013.1, Build901 2013/11/27)

>  <Rbt.Parameter_File>
/export/apps/rDock/src/rDock_2013.1_src/data/scripts/dock_solv.prm

>  <Rbt.Receptor>
prm/blind_docking_100.prm

>  <SCORE>
-19.312

>  <SCORE.INTER>
-22.3086

>  <SCORE.INTER.CONST>
1

>  <SCORE.INTER.POLAR>
-2.92475

>  <SCORE.INTER.ROT>
5

>  <SCORE.INTER.SOLV>
27.2399

>  <SCORE.INTER.VDW>
-21.1365

>  <SCORE.INTER.norm>
-1.85905

>  <SCORE.INTRA>
2.99664

>  <SCORE.INTRA.DIHEDRAL>
5.91407

>  <SCORE.INTRA.DIHEDRAL.0>
6.04201

>  <SCORE.INTRA.POLAR>
0

>  <SCORE.INTRA.POLAR.0>
0

>  <SCORE.INTRA.REPUL>
0

>  <SCORE.INTRA.REPUL.0>
0

>  <SCORE.INTRA.SOLV>
1.81625

>  <SCORE.INTRA.SOLV.lig_0>
-71.0481

>  <SCORE.INTRA.VDW>
-0.868516

>  <SCORE.INTRA.VDW.0>
0.968882

>  <SCORE.INTRA.norm>
0.24972

>  <SCORE.RESTR>
0

>  <SCORE.RESTR.CAVITY>
0

>  <SCORE.RESTR.norm>
0

>  <SCORE.SYSTEM>
0

>  <SCORE.SYSTEM.CONST>
0

>  <SCORE.SYSTEM.DIHEDRAL>
0

>  <SCORE.SYSTEM.SOLV>
0

>  <SCORE.SYSTEM.norm>
0

>  <SCORE.heavy>
12

>  <SCORE.norm>
-1.60933

>  <SYMMETRIC_BONDS>
11 12 2
5 6 2

>  <RMSD>
9.259

$$$$
1koc cryst
 OpenBabel11021811393D
libRbt.so/2013.1/901 2013/11/27
 12 11  0  0  0  0  0  0  0  0999 V2000
   -7.9213    3.3814   32.6516 N   0  3  0  0  0  0  0  0  0  0  0  0
   -6.6852    3.7168   31.8818 C   0  0  2  0  0  0  0  0  0  0  0  0
   -6.9684    3.5447   30.3766 C   0  0  0  0  0  0  0  0  0  0  0  0
   -6.5798    4.4195   29.6171 O   0  5  0  0  0  0  0  0  0  0  0  0
   -5.5326    2.7822   32.3382 C   0  0  0  0  0  0  0  0  0  0  0  0
   -4.1648    3.3955   32.0159 C   0  0  0  0  0  0  0  0  0  0  0  0
   -3.2624    2.3355   31.3938 C   0  0  0  0  0  0  0  0  0  0  0  0
   -1.8758    2.8682   31.2537 N   0  0  0  0  0  0  0  0  0  0  0  0
   -0.9991    2.2420   30.5060 C   0  0  0  0  0  0  0  0  0  0  0  0
   -1.3752    1.6558   29.3965 N   0  0  0  0  0  0  0  0  0  0  0  0
    0.2570    2.2065   30.8660 N   0  3  0  0  0  0  0  0  0  0  0  0
   -7.5769    2.5505   30.0099 O   0  0  0  0  0  0  0  0  0  0  0  0
  2  1  1  1  0  0  0
  2  5  1  0  0  0  0
  2  3  1  0  0  0  0
  3  4  1  0  0  0  0
  3 12  2  0  0  0  0
  5  6  1  0  0  0  0
  6  7  1  0  0  0  0
  7  8  1  0  0  0  0
  8  9  1  0  0  0  0
  9 10  1  0  0  0  0
  9 11  2  0  0  0  0
M  CHG  3   1   1   4  -1  11   1
M  END
>  <CHROM.1>
-45.61109421,-158.13859031,135.06513690,-134.60664846,-172.11831742,-166.22657789
-4.40553790,2.91921170,31.01796036,-3.02940260,0.18335545,-1.63761362

>  <Name>
1koc cryst

>  <RI>
0

>  <Rbt.Current_Directory>
/home/itssahil/PROJECTS/Mol_Feturizer/New_Systems/rnas/1koc

>  <Rbt.Executable>
rbdock ($Id: //depot/dev/client3/rdock/2013.1/src/exe/rbdock.cxx#4 $)

>  <Rbt.Library>
libRbt.so (2013.1, Build901 2013/11/27)

>  <Rbt.Parameter_File>
/export/apps/rDock/src/rDock_2013.1_src/data/scripts/dock_solv.prm

>  <Rbt.Receptor>
prm/blind_docking_100.prm

>  <SCORE>
-28.5393

>  <SCORE.INTER>
-28.3795

>  <SCORE.INTER.CONST>
1

>  <SCORE.INTER.POLAR>
-4.14943

>  <SCORE.INTER.ROT>
5

>  <SCORE.INTER.SOLV>
21.4745

>  <SCORE.INTER.VDW>
-19.1797

>  <SCORE.INTER.norm>
-2.36496

>  <SCORE.INTRA>
-0.159768

>  <SCORE.INTRA.DIHEDRAL>
4.89487

>  <SCORE.INTRA.DIHEDRAL.0>
6.04201

>  <SCORE.INTRA.POLAR>
0

>  <SCORE.INTRA.POLAR.0>
0

>  <SCORE.INTRA.REPUL>
0

>  <SCORE.INTRA.REPUL.0>
0

>  <SCORE.INTRA.SOLV>
-1.24484

>  <SCORE.INTRA.SOLV.lig_0>
-71.0481

>  <SCORE.INTRA.VDW>
-1.98479

>  <SCORE.INTRA.VDW.0>
0.968882

>  <SCORE.INTRA.norm>
-0.013314

>  <SCORE.RESTR>
0

>  <SCORE.RESTR.CAVITY>
0

>  <SCORE.RESTR.norm>
0

>  <SCORE.SYSTEM>
0

>  <SCORE.SYSTEM.CONST>
0

>  <SCORE.SYSTEM.DIHEDRAL>
0

>  <SCORE.SYSTEM.SOLV>
0

>  <SCORE.SYSTEM.norm>
0

>  <SCORE.heavy>
12

>  <SCORE.norm>
-2.37827

>  <SYMMETRIC_BONDS>
11 12 2
5 6 2

>  <RMSD>
9.265

$$$$
1koc cryst
 OpenBabel11021811393D
libRbt.so/2013.1/901 2013/11/27
 12 11  0  0  0  0  0  0  0  0999 V2000
   -2.9049   -0.6950   27.5931 N   0  3  0  0  0  0  0  0  0  0  0  0
   -2.5433    0.7434   27.7747 C   0  0  2  0  0  0  0  0  0  0  0  0
   -2.8997    1.1736   29.2112 C   0  0  0  0  0  0  0  0  0  0  0  0
   -2.0300    1.7109   29.8806 O   0  5  0  0  0  0  0  0  0  0  0  0
   -3.3163    1.5974   26.7338 C   0  0  0  0  0  0  0  0  0  0  0  0
   -3.1379    3.0954   27.0076 C   0  0  0  0  0  0  0  0  0  0  0  0
   -4.0433    3.8969   26.0787 C   0  0  0  0  0  0  0  0  0  0  0  0
   -3.8770    5.3560   26.3427 N   0  0  0  0  0  0  0  0  0  0  0  0
   -3.1677    6.0989   25.5275 C   0  0  0  0  0  0  0  0  0  0  0  0
   -3.1871    5.8695   24.2380 N   0  0  0  0  0  0  0  0  0  0  0  0
   -2.4413    7.0764   26.0025 N   0  3  0  0  0  0  0  0  0  0  0  0
   -4.0287    0.9497   29.6215 O   0  0  0  0  0  0  0  0  0  0  0  0
  2  1  1  1  0  0  0
  2  5  1  0  0  0  0
  2  3  1  0  0  0  0
  3  4  1  0  0  0  0
  3 12  2  0  0  0  0
  5  6  1  0  0  0  0
  6  7  1  0  0  0  0
  7  8  1  0  0  0  0
  8  9  1  0  0  0  0
  9 10  1  0  0  0  0
  9 11  2  0  0  0  0
M  CHG  3   1   1   4  -1  11   1
M  END
>  <CHROM.1>
-155.31460675,171.79442804,127.57471095,-173.05518358,179.84843145,103.07905427
-3.12856305,3.05977237,27.17392812,1.42037732,1.38611860,2.75402699

>  <Name>
1koc cryst

>  <RI>
0

>  <Rbt.Current_Directory>
/home/itssahil/PROJECTS/Mol_Feturizer/New_Systems/rnas/1koc

>  <Rbt.Executable>
rbdock ($Id: //depot/dev/client3/rdock/2013.1/src/exe/rbdock.cxx#4 $)

>  <Rbt.Library>
libRbt.so (2013.1, Build901 2013/11/27)

>  <Rbt.Parameter_File>
/export/apps/rDock/src/rDock_2013.1_src/data/scripts/dock_solv.prm

>  <Rbt.Receptor>
prm/blind_docking_60.prm

>  <SCORE>
-9.87266

>  <SCORE.INTER>
-7.22358

>  <SCORE.INTER.CONST>
1

>  <SCORE.INTER.POLAR>
-1.0391

>  <SCORE.INTER.ROT>
5

>  <SCORE.INTER.SOLV>
27.1867

>  <SCORE.INTER.VDW>
-17.3476

>  <SCORE.INTER.norm>
-0.601965

>  <SCORE.INTRA>
-2.64908

>  <SCORE.INTRA.DIHEDRAL>
-0.864068

>  <SCORE.INTRA.DIHEDRAL.0>
6.04201

>  <SCORE.INTRA.POLAR>
0

>  <SCORE.INTRA.POLAR.0>
0

>  <SCORE.INTRA.REPUL>
0

>  <SCORE.INTRA.REPUL.0>
0

>  <SCORE.INTRA.SOLV>
-1.30731

>  <SCORE.INTRA.SOLV.lig_0>
-71.0481

>  <SCORE.INTRA.VDW>
-1.56339

>  <SCORE.INTRA.VDW.0>
0.968882

>  <SCORE.INTRA.norm>
-0.220757

>  <SCORE.RESTR>
0

>  <SCORE.RESTR.CAVITY>
0

>  <SCORE.RESTR.norm>
0

>  <SCORE.SYSTEM>
0

>  <SCORE.SYSTEM.CONST>
0

>  <SCORE.SYSTEM.DIHEDRAL>
0

>  <SCORE.SYSTEM.SOLV>
0

>  <SCORE.SYSTEM.norm>
0

>  <SCORE.heavy>
12

>  <SCORE.norm>
-0.822721

>  <SYMMETRIC_BONDS>
11 12 2
5 6 2

>  <RMSD>
9.275

$$$$
1koc cryst
 OpenBabel11021811393D
libRbt.so/2013.1/901 2013/11/27
 12 11  0  0  0  0  0  0  0  0999 V2000
   -2.5945    0.6557   26.2161 N   0  3  0  0  0  0  0  0  0  0  0  0
   -2.6047    0.3195   27.6720 C   0  0  2  0  0  0  0  0  0  0  0  0
   -3.3005   -1.0417   27.8684 C   0  0  0  0  0  0  0  0  0  0  0  0
   -3.1688   -1.6020   28.9462 O   0  5  0  0  0  0  0  0  0  0  0  0
   -3.3505    1.4388   28.4472 C   0  0  0  0  0  0  0  0  0  0  0  0
   -2.9471    1.4481   29.9264 C   0  0  0  0  0  0  0  0  0  0  0  0
   -4.1652    1.7646   30.7872 C   0  0  0  0  0  0  0  0  0  0  0  0
   -3.7574    2.5949   31.9579 N   0  0  0  0  0  0  0  0  0  0  0  0
   -4.6241    3.3886   32.5397 C   0  0  0  0  0  0  0  0  0  0  0  0
   -5.8785    3.0285   32.6527 N   0  0  0  0  0  0  0  0  0  0  0  0
   -4.2344    4.5428   33.0140 N   0  3  0  0  0  0  0  0  0  0  0  0
   -3.9422   -1.5058   26.9377 O   0  0  0  0  0  0  0  0  0  0  0  0
  2  1  1  6  0  0  0
  2  5  1  0  0  0  0
  2  3  1  0  0  0  0
  3  4  1  0  0  0  0
  3 12  2  0  0  0  0
  5  6  1  0  0  0  0
  6  7  1  0  0  0  0
  7  8  1  0  0  0  0
  8  9  1  0  0  0  0
  9 10  1  0  0  0  0
  9 11  2  0  0  0  0
M  CHG  3   1   1   4  -1  11   1
M  END
>  <CHROM.1>
152.66709186,-158.27850189,165.66997952,-142.21025606,-144.15897792,154.44309232
-3.72122451,1.25624137,29.72903276,-1.11599132,1.04173729,0.51318642

>  <Name>
1koc cryst

>  <RI>
0

>  <Rbt.Current_Directory>
/home/itssahil/PROJECTS/Mol_Feturizer/New_Systems/rnas/1koc

>  <Rbt.Executable>
rbdock ($Id: //depot/dev/client3/rdock/2013.1/src/exe/rbdock.cxx#4 $)

>  <Rbt.Library>
libRbt.so (2013.1, Build901 2013/11/27)

>  <Rbt.Parameter_File>
/export/apps/rDock/src/rDock_2013.1_src/data/scripts/dock_solv.prm

>  <Rbt.Receptor>
prm/blind_docking_40.prm

>  <SCORE>
-27.0853

>  <SCORE.INTER>
-29.1287

>  <SCORE.INTER.CONST>
1

>  <SCORE.INTER.POLAR>
-4.25135

>  <SCORE.INTER.ROT>
5

>  <SCORE.INTER.SOLV>
35.0474

>  <SCORE.INTER.VDW>
-23.8638

>  <SCORE.INTER.norm>
-2.4274

>  <SCORE.INTRA>
2.04348

>  <SCORE.INTRA.DIHEDRAL>
8.31405

>  <SCORE.INTRA.DIHEDRAL.0>
6.04201

>  <SCORE.INTRA.POLAR>
0

>  <SCORE.INTRA.POLAR.0>
0

>  <SCORE.INTRA.REPUL>
0

>  <SCORE.INTRA.REPUL.0>
0

>  <SCORE.INTRA.SOLV>
-1.04452

>  <SCORE.INTRA.SOLV.lig_0>
-71.0481

>  <SCORE.INTRA.VDW>
-1.59129

>  <SCORE.INTRA.VDW.0>
0.968882

>  <SCORE.INTRA.norm>
0.17029

>  <SCORE.RESTR>
0

>  <SCORE.RESTR.CAVITY>
0

>  <SCORE.RESTR.norm>
0

>  <SCORE.SYSTEM>
0

>  <SCORE.SYSTEM.CONST>
0

>  <SCORE.SYSTEM.DIHEDRAL>
0

>  <SCORE.SYSTEM.SOLV>
0

>  <SCORE.SYSTEM.norm>
0

>  <SCORE.heavy>
12

>  <SCORE.norm>
-2.25711

>  <SYMMETRIC_BONDS>
11 12 2
5 6 2

>  <RMSD>
9.290

$$$$
1koc cryst
 OpenBabel11021811393D
libRbt.so/2013.1/901 2013/11/27
 12 11  0  0  0  0  0  0  0  0999 V2000
   -2.3485    1.7596   26.7155 N   0  3  0  0  0  0  0  0  0  0  0  0
   -3.0525    1.2472   27.9298 C   0  0  2  0  0  0  0  0  0  0  0  0
   -2.4857    1.9558   29.1757 C   0  0  0  0  0  0  0  0  0  0  0  0
   -1.4238    2.5497   29.0633 O   0  5  0  0  0  0  0  0  0  0  0  0
   -2.8478   -0.2888   28.0262 C   0  0  0  0  0  0  0  0  0  0  0  0
   -3.5814   -1.0152   26.8926 C   0  0  0  0  0  0  0  0  0  0  0  0
   -3.1265   -2.4695   26.8378 C   0  0  0  0  0  0  0  0  0  0  0  0
   -4.3029   -3.3751   26.9871 N   0  0  0  0  0  0  0  0  0  0  0  0
   -4.7237   -3.7214   28.1798 C   0  0  0  0  0  0  0  0  0  0  0  0
   -4.6802   -2.8655   29.1706 N   0  0  0  0  0  0  0  0  0  0  0  0
   -5.1937   -4.9245   28.3809 N   0  3  0  0  0  0  0  0  0  0  0  0
   -3.1144    1.8842   30.2211 O   0  0  0  0  0  0  0  0  0  0  0  0
  2  1  1  6  0  0  0
  2  5  1  0  0  0  0
  2  3  1  0  0  0  0
  3  4  1  0  0  0  0
  3 12  2  0  0  0  0
  5  6  1  0  0  0  0
  6  7  1  0  0  0  0
  7  8  1  0  0  0  0
  8  9  1  0  0  0  0
  9 10  1  0  0  0  0
  9 11  2  0  0  0  0
M  CHG  3   1   1   4  -1  11   1
M  END
>  <CHROM.1>
-159.94586461,-67.96039575,-15.77152972,168.07565098,122.55632097,-86.60844976
-3.40221772,-0.75761831,28.13422773,-0.59191559,-1.11068981,-2.09628117

>  <Name>
1koc cryst

>  <RI>
0

>  <Rbt.Current_Directory>
/home/itssahil/PROJECTS/Mol_Feturizer/New_Systems/rnas/1koc

>  <Rbt.Executable>
rbdock ($Id: //depot/dev/client3/rdock/2013.1/src/exe/rbdock.cxx#4 $)

>  <Rbt.Library>
libRbt.so (2013.1, Build901 2013/11/27)

>  <Rbt.Parameter_File>
/export/apps/rDock/src/rDock_2013.1_src/data/scripts/dock_solv.prm

>  <Rbt.Receptor>
prm/blind_docking_60.prm

>  <SCORE>
-3.68763

>  <SCORE.INTER>
-5.43813

>  <SCORE.INTER.CONST>
1

>  <SCORE.INTER.POLAR>
-4.14684

>  <SCORE.INTER.ROT>
5

>  <SCORE.INTER.SOLV>
35.9886

>  <SCORE.INTER.VDW>
-8.73215

>  <SCORE.INTER.norm>
-0.453177

>  <SCORE.INTRA>
1.7505

>  <SCORE.INTRA.DIHEDRAL>
4.59804

>  <SCORE.INTRA.DIHEDRAL.0>
6.04201

>  <SCORE.INTRA.POLAR>
0

>  <SCORE.INTRA.POLAR.0>
0

>  <SCORE.INTRA.REPUL>
0

>  <SCORE.INTRA.REPUL.0>
0

>  <SCORE.INTRA.SOLV>
0.171365

>  <SCORE.INTRA.SOLV.lig_0>
-71.0481

>  <SCORE.INTRA.VDW>
-0.634199

>  <SCORE.INTRA.VDW.0>
0.968882

>  <SCORE.INTRA.norm>
0.145875

>  <SCORE.RESTR>
0

>  <SCORE.RESTR.CAVITY>
0

>  <SCORE.RESTR.norm>
0

>  <SCORE.SYSTEM>
0

>  <SCORE.SYSTEM.CONST>
0

>  <SCORE.SYSTEM.DIHEDRAL>
0

>  <SCORE.SYSTEM.SOLV>
0

>  <SCORE.SYSTEM.norm>
0

>  <SCORE.heavy>
12

>  <SCORE.norm>
-0.307302

>  <SYMMETRIC_BONDS>
11 12 2
5 6 2

>  <RMSD>
9.290

$$$$
1koc cryst
 OpenBabel11021811393D
libRbt.so/2013.1/901 2013/11/27
 12 11  0  0  0  0  0  0  0  0999 V2000
   -7.4795    3.2004   32.7103 N   0  3  0  0  0  0  0  0  0  0  0  0
   -6.2027    3.3386   31.9464 C   0  0  2  0  0  0  0  0  0  0  0  0
   -6.5303    3.6118   30.4653 C   0  0  0  0  0  0  0  0  0  0  0  0
   -6.0682    4.6204   29.9532 O   0  5  0  0  0  0  0  0  0  0  0  0
   -5.3755    2.0336   32.0983 C   0  0  0  0  0  0  0  0  0  0  0  0
   -3.9095    2.2616   31.7111 C   0  0  0  0  0  0  0  0  0  0  0  0
   -3.7489    2.1088   30.2025 C   0  0  0  0  0  0  0  0  0  0  0  0
   -2.3847    1.5933   29.8872 N   0  0  0  0  0  0  0  0  0  0  0  0
   -2.0856    1.2171   28.6670 C   0  0  0  0  0  0  0  0  0  0  0  0
   -2.5778    1.8603   27.6375 N   0  0  0  0  0  0  0  0  0  0  0  0
   -1.2886    0.1986   28.4763 N   0  3  0  0  0  0  0  0  0  0  0  0
   -7.2445    2.8172   29.8722 O   0  0  0  0  0  0  0  0  0  0  0  0
  2  1  1  1  0  0  0
  2  5  1  0  0  0  0
  2  3  1  0  0  0  0
  3  4  1  0  0  0  0
  3 12  2  0  0  0  0
  5  6  1  0  0  0  0
  6  7  1  0  0  0  0
  7  8  1  0  0  0  0
  8  9  1  0  0  0  0
  9 10  1  0  0  0  0
  9 11  2  0  0  0  0
M  CHG  3   1   1   4  -1  11   1
M  END
>  <CHROM.1>
-142.72911531,-162.75864346,123.49917053,-84.96446306,-149.34109951,170.88963978
-4.59527620,2.40432409,30.29038155,-2.76591566,0.53979723,-1.32187143

>  <Name>
1koc cryst

>  <RI>
0

>  <Rbt.Current_Directory>
/home/itssahil/PROJECTS/Mol_Feturizer/New_Systems/rnas/1koc

>  <Rbt.Executable>
rbdock ($Id: //depot/dev/client3/rdock/2013.1/src/exe/rbdock.cxx#4 $)

>  <Rbt.Library>
libRbt.so (2013.1, Build901 2013/11/27)

>  <Rbt.Parameter_File>
/export/apps/rDock/src/rDock_2013.1_src/data/scripts/dock_solv.prm

>  <Rbt.Receptor>
prm/blind_docking_100.prm

>  <SCORE>
-22.1577

>  <SCORE.INTER>
-23.513

>  <SCORE.INTER.CONST>
1

>  <SCORE.INTER.POLAR>
-3.50393

>  <SCORE.INTER.ROT>
5

>  <SCORE.INTER.SOLV>
23.5959

>  <SCORE.INTER.VDW>
-18.7942

>  <SCORE.INTER.norm>
-1.95942

>  <SCORE.INTRA>
1.33496

>  <SCORE.INTRA.DIHEDRAL>
5.96755

>  <SCORE.INTRA.DIHEDRAL.0>
6.04201

>  <SCORE.INTRA.POLAR>
0

>  <SCORE.INTRA.POLAR.0>
0

>  <SCORE.INTRA.REPUL>
0

>  <SCORE.INTRA.REPUL.0>
0

>  <SCORE.INTRA.SOLV>
-0.574783

>  <SCORE.INTRA.SOLV.lig_0>
-71.0481

>  <SCORE.INTRA.VDW>
-1.36142

>  <SCORE.INTRA.VDW.0>
0.968882

>  <SCORE.INTRA.norm>
0.111247

>  <SCORE.RESTR>
0.0203585

>  <SCORE.RESTR.CAVITY>
0.0203585

>  <SCORE.RESTR.norm>
0.00169654

>  <SCORE.SYSTEM>
0

>  <SCORE.SYSTEM.CONST>
0

>  <SCORE.SYSTEM.DIHEDRAL>
0

>  <SCORE.SYSTEM.SOLV>
0

>  <SCORE.SYSTEM.norm>
0

>  <SCORE.heavy>
12

>  <SCORE.norm>
-1.84647

>  <SYMMETRIC_BONDS>
11 12 2
5 6 2

>  <RMSD>
9.291

$$$$
1koc cryst
 OpenBabel11021811393D
libRbt.so/2013.1/901 2013/11/27
 12 11  0  0  0  0  0  0  0  0999 V2000
   -2.4617    0.9077   26.5261 N   0  3  0  0  0  0  0  0  0  0  0  0
   -2.5936    0.5351   27.9672 C   0  0  2  0  0  0  0  0  0  0  0  0
   -3.2340   -0.8632   28.0680 C   0  0  0  0  0  0  0  0  0  0  0  0
   -3.0689   -1.4957   29.1004 O   0  5  0  0  0  0  0  0  0  0  0  0
   -3.4665    1.5966   28.6891 C   0  0  0  0  0  0  0  0  0  0  0  0
   -3.2803    1.5226   30.2092 C   0  0  0  0  0  0  0  0  0  0  0  0
   -4.6234    1.7314   30.9002 C   0  0  0  0  0  0  0  0  0  0  0  0
   -4.4192    2.4163   32.2099 N   0  0  0  0  0  0  0  0  0  0  0  0
   -4.9817    3.5777   32.4436 C   0  0  0  0  0  0  0  0  0  0  0  0
   -6.1764    3.8401   31.9747 N   0  0  0  0  0  0  0  0  0  0  0  0
   -4.3500    4.4766   33.1520 N   0  3  0  0  0  0  0  0  0  0  0  0
   -3.8675   -1.2825   27.1109 O   0  0  0  0  0  0  0  0  0  0  0  0
  2  1  1  6  0  0  0
  2  5  1  0  0  0  0
  2  3  1  0  0  0  0
  3  4  1  0  0  0  0
  3 12  2  0  0  0  0
  5  6  1  0  0  0  0
  6  7  1  0  0  0  0
  7  8  1  0  0  0  0
  8  9  1  0  0  0  0
  9 10  1  0  0  0  0
  9 11  2  0  0  0  0
M  CHG  3   1   1   4  -1  11   1
M  END
>  <CHROM.1>
-73.74072771,-162.25022423,158.90471160,-140.57294370,-147.91914228,120.18751906
-3.87894981,1.42049327,29.84189896,-0.71585534,1.18070405,0.05849251

>  <Name>
1koc cryst

>  <RI>
0

>  <Rbt.Current_Directory>
/home/itssahil/PROJECTS/Mol_Feturizer/New_Systems/rnas/1koc

>  <Rbt.Executable>
rbdock ($Id: //depot/dev/client3/rdock/2013.1/src/exe/rbdock.cxx#4 $)

>  <Rbt.Library>
libRbt.so (2013.1, Build901 2013/11/27)

>  <Rbt.Parameter_File>
/export/apps/rDock/src/rDock_2013.1_src/data/scripts/dock_solv.prm

>  <Rbt.Receptor>
prm/blind_docking_40.prm

>  <SCORE>
-21.1243

>  <SCORE.INTER>
-21.7278

>  <SCORE.INTER.CONST>
1

>  <SCORE.INTER.POLAR>
-3.26344

>  <SCORE.INTER.ROT>
5

>  <SCORE.INTER.SOLV>
33.6999

>  <SCORE.INTER.VDW>
-21.7737

>  <SCORE.INTER.norm>
-1.81065

>  <SCORE.INTRA>
0.603429

>  <SCORE.INTRA.DIHEDRAL>
6.45446

>  <SCORE.INTRA.DIHEDRAL.0>
6.04201

>  <SCORE.INTRA.POLAR>
0

>  <SCORE.INTRA.POLAR.0>
0

>  <SCORE.INTRA.REPUL>
0

>  <SCORE.INTRA.REPUL.0>
0

>  <SCORE.INTRA.SOLV>
-1.03039

>  <SCORE.INTRA.SOLV.lig_0>
-71.0481

>  <SCORE.INTRA.VDW>
-2.10861

>  <SCORE.INTRA.VDW.0>
0.968882

>  <SCORE.INTRA.norm>
0.0502858

>  <SCORE.RESTR>
0

>  <SCORE.RESTR.CAVITY>
0

>  <SCORE.RESTR.norm>
0

>  <SCORE.SYSTEM>
0

>  <SCORE.SYSTEM.CONST>
0

>  <SCORE.SYSTEM.DIHEDRAL>
0

>  <SCORE.SYSTEM.SOLV>
0

>  <SCORE.SYSTEM.norm>
0

>  <SCORE.heavy>
12

>  <SCORE.norm>
-1.76036

>  <SYMMETRIC_BONDS>
11 12 2
5 6 2

>  <RMSD>
9.302

$$$$
1koc cryst
 OpenBabel11021811393D
libRbt.so/2013.1/901 2013/11/27
 12 11  0  0  0  0  0  0  0  0999 V2000
   -2.3194    1.8226   26.6466 N   0  3  0  0  0  0  0  0  0  0  0  0
   -3.0807    1.1916   27.7669 C   0  0  2  0  0  0  0  0  0  0  0  0
   -2.9016    2.0436   29.0386 C   0  0  0  0  0  0  0  0  0  0  0  0
   -3.8985    2.5424   29.5390 O   0  5  0  0  0  0  0  0  0  0  0  0
   -2.5547   -0.2520   27.9896 C   0  0  0  0  0  0  0  0  0  0  0  0
   -2.8303   -1.1344   26.7664 C   0  0  0  0  0  0  0  0  0  0  0  0
   -4.1607   -1.8572   26.9460 C   0  0  0  0  0  0  0  0  0  0  0  0
   -4.1879   -2.5491   28.2677 N   0  0  0  0  0  0  0  0  0  0  0  0
   -4.7722   -3.7166   28.3911 C   0  0  0  0  0  0  0  0  0  0  0  0
   -4.7090   -4.5936   27.4201 N   0  0  0  0  0  0  0  0  0  0  0  0
   -5.4169   -4.0095   29.4900 N   0  3  0  0  0  0  0  0  0  0  0  0
   -1.7734    2.1927   29.4840 O   0  0  0  0  0  0  0  0  0  0  0  0
  2  1  1  6  0  0  0
  2  5  1  0  0  0  0
  2  3  1  0  0  0  0
  3  4  1  0  0  0  0
  3 12  2  0  0  0  0
  5  6  1  0  0  0  0
  6  7  1  0  0  0  0
  7  8  1  0  0  0  0
  8  9  1  0  0  0  0
  9 10  1  0  0  0  0
  9 11  2  0  0  0  0
M  CHG  3   1   1   4  -1  11   1
M  END
>  <CHROM.1>
-22.58639984,-64.36520504,118.42722164,-92.69596262,-51.55996661,-143.22710446
-3.54459436,-0.68177696,28.14809044,-0.81905009,-1.04763025,-2.40490262

>  <Name>
1koc cryst

>  <RI>
0

>  <Rbt.Current_Directory>
/home/itssahil/PROJECTS/Mol_Feturizer/New_Systems/rnas/1koc

>  <Rbt.Executable>
rbdock ($Id: //depot/dev/client3/rdock/2013.1/src/exe/rbdock.cxx#4 $)

>  <Rbt.Library>
libRbt.so (2013.1, Build901 2013/11/27)

>  <Rbt.Parameter_File>
/export/apps/rDock/src/rDock_2013.1_src/data/scripts/dock_solv.prm

>  <Rbt.Receptor>
prm/blind_docking_100.prm

>  <SCORE>
13.398

>  <SCORE.INTER>
11.9925

>  <SCORE.INTER.CONST>
1

>  <SCORE.INTER.POLAR>
-3.36967

>  <SCORE.INTER.ROT>
5

>  <SCORE.INTER.SOLV>
35.4547

>  <SCORE.INTER.VDW>
0.475633

>  <SCORE.INTER.norm>
0.999373

>  <SCORE.INTRA>
1.01552

>  <SCORE.INTRA.DIHEDRAL>
3.69376

>  <SCORE.INTRA.DIHEDRAL.0>
6.04201

>  <SCORE.INTRA.POLAR>
0

>  <SCORE.INTRA.POLAR.0>
0

>  <SCORE.INTRA.REPUL>
0

>  <SCORE.INTRA.REPUL.0>
0

>  <SCORE.INTRA.SOLV>
-0.515708

>  <SCORE.INTRA.SOLV.lig_0>
-71.0481

>  <SCORE.INTRA.VDW>
-0.573505

>  <SCORE.INTRA.VDW.0>
0.968882

>  <SCORE.INTRA.norm>
0.0846267

>  <SCORE.RESTR>
0.38998

>  <SCORE.RESTR.CAVITY>
0.38998

>  <SCORE.RESTR.norm>
0.0324983

>  <SCORE.SYSTEM>
0

>  <SCORE.SYSTEM.CONST>
0

>  <SCORE.SYSTEM.DIHEDRAL>
0

>  <SCORE.SYSTEM.SOLV>
0

>  <SCORE.SYSTEM.norm>
0

>  <SCORE.heavy>
12

>  <SCORE.norm>
1.1165

>  <SYMMETRIC_BONDS>
11 12 2
5 6 2

>  <RMSD>
9.319

$$$$
1koc cryst
 OpenBabel11021811393D
libRbt.so/2013.1/901 2013/11/27
 12 11  0  0  0  0  0  0  0  0999 V2000
   -4.3367    3.3655   25.3324 N   0  3  0  0  0  0  0  0  0  0  0  0
   -4.2112    2.3795   26.4481 C   0  0  2  0  0  0  0  0  0  0  0  0
   -3.1936    2.9111   27.4764 C   0  0  0  0  0  0  0  0  0  0  0  0
   -2.1124    3.3022   27.0627 O   0  5  0  0  0  0  0  0  0  0  0  0
   -3.7517    1.0136   25.8705 C   0  0  0  0  0  0  0  0  0  0  0  0
   -3.1346    0.1323   26.9628 C   0  0  0  0  0  0  0  0  0  0  0  0
   -2.8430   -1.2537   26.3982 C   0  0  0  0  0  0  0  0  0  0  0  0
   -4.0067   -2.1556   26.6407 N   0  0  0  0  0  0  0  0  0  0  0  0
   -4.1264   -2.7880   27.7832 C   0  0  0  0  0  0  0  0  0  0  0  0
   -3.7578   -2.2112   28.9000 N   0  0  0  0  0  0  0  0  0  0  0  0
   -4.6205   -3.9980   27.8093 N   0  3  0  0  0  0  0  0  0  0  0  0
   -3.5060    2.9081   28.6578 O   0  0  0  0  0  0  0  0  0  0  0  0
  2  1  1  6  0  0  0
  2  5  1  0  0  0  0
  2  3  1  0  0  0  0
  3  4  1  0  0  0  0
  3 12  2  0  0  0  0
  5  6  1  0  0  0  0
  6  7  1  0  0  0  0
  7  8  1  0  0  0  0
  8  9  1  0  0  0  0
  9 10  1  0  0  0  0
  9 11  2  0  0  0  0
M  CHG  3   1   1   4  -1  11   1
M  END
>  <CHROM.1>
85.20327267,159.77812849,-49.48612235,173.54142281,-92.27285063,-84.83167644
-3.64266320,0.31862640,27.11244699,1.16551571,-1.29354743,-0.54762206

>  <Name>
1koc cryst

>  <RI>
0

>  <Rbt.Current_Directory>
/home/itssahil/PROJECTS/Mol_Feturizer/New_Systems/rnas/1koc

>  <Rbt.Executable>
rbdock ($Id: //depot/dev/client3/rdock/2013.1/src/exe/rbdock.cxx#4 $)

>  <Rbt.Library>
libRbt.so (2013.1, Build901 2013/11/27)

>  <Rbt.Parameter_File>
/export/apps/rDock/src/rDock_2013.1_src/data/scripts/dock_solv.prm

>  <Rbt.Receptor>
prm/blind_docking_40.prm

>  <SCORE>
-10.533

>  <SCORE.INTER>
-12.6277

>  <SCORE.INTER.CONST>
1

>  <SCORE.INTER.POLAR>
-4.29442

>  <SCORE.INTER.ROT>
5

>  <SCORE.INTER.SOLV>
28.3671

>  <SCORE.INTER.VDW>
-10.4928

>  <SCORE.INTER.norm>
-1.05231

>  <SCORE.INTRA>
1.33497

>  <SCORE.INTRA.DIHEDRAL>
3.32449

>  <SCORE.INTRA.DIHEDRAL.0>
6.04201

>  <SCORE.INTRA.POLAR>
0

>  <SCORE.INTRA.POLAR.0>
0

>  <SCORE.INTRA.REPUL>
0

>  <SCORE.INTRA.REPUL.0>
0

>  <SCORE.INTRA.SOLV>
-0.401976

>  <SCORE.INTRA.SOLV.lig_0>
-71.0481

>  <SCORE.INTRA.VDW>
-0.12629

>  <SCORE.INTRA.VDW.0>
0.968882

>  <SCORE.INTRA.norm>
0.111247

>  <SCORE.RESTR>
0.759797

>  <SCORE.RESTR.CAVITY>
0.759797

>  <SCORE.RESTR.norm>
0.0633164

>  <SCORE.SYSTEM>
0

>  <SCORE.SYSTEM.CONST>
0

>  <SCORE.SYSTEM.DIHEDRAL>
0

>  <SCORE.SYSTEM.SOLV>
0

>  <SCORE.SYSTEM.norm>
0

>  <SCORE.heavy>
12

>  <SCORE.norm>
-0.877747

>  <SYMMETRIC_BONDS>
11 12 2
5 6 2

>  <RMSD>
9.339

$$$$
1koc cryst
 OpenBabel11021811393D
libRbt.so/2013.1/901 2013/11/27
 12 11  0  0  0  0  0  0  0  0999 V2000
   -7.9372    4.6784   31.2888 N   0  3  0  0  0  0  0  0  0  0  0  0
   -6.5952    4.0784   31.0209 C   0  0  2  0  0  0  0  0  0  0  0  0
   -6.7496    2.9406   29.9928 C   0  0  0  0  0  0  0  0  0  0  0  0
   -7.8347    2.3847   29.9124 O   0  5  0  0  0  0  0  0  0  0  0  0
   -6.0020    3.5441   32.3524 C   0  0  0  0  0  0  0  0  0  0  0  0
   -4.4858    3.7645   32.4086 C   0  0  0  0  0  0  0  0  0  0  0  0
   -3.7666    2.4769   32.0218 C   0  0  0  0  0  0  0  0  0  0  0  0
   -2.3636    2.7816   31.6156 N   0  0  0  0  0  0  0  0  0  0  0  0
   -1.9024    2.3598   30.4628 C   0  0  0  0  0  0  0  0  0  0  0  0
   -2.6828    2.3252   29.4112 N   0  0  0  0  0  0  0  0  0  0  0  0
   -0.6568    1.9767   30.3602 N   0  3  0  0  0  0  0  0  0  0  0  0
   -5.7809    2.6367   29.3127 O   0  0  0  0  0  0  0  0  0  0  0  0
  2  1  1  1  0  0  0
  2  5  1  0  0  0  0
  2  3  1  0  0  0  0
  3  4  1  0  0  0  0
  3 12  2  0  0  0  0
  5  6  1  0  0  0  0
  6  7  1  0  0  0  0
  7  8  1  0  0  0  0
  8  9  1  0  0  0  0
  9 10  1  0  0  0  0
  9 11  2  0  0  0  0
M  CHG  3   1   1   4  -1  11   1
M  END
>  <CHROM.1>
-179.34031755,-143.21502693,-25.14214279,-98.67165255,160.52336009,-127.02831807
-4.74690377,2.99831209,30.82152002,-3.01990423,0.19606466,-2.00755636

>  <Name>
1koc cryst

>  <RI>
0

>  <Rbt.Current_Directory>
/home/itssahil/PROJECTS/Mol_Feturizer/New_Systems/rnas/1koc

>  <Rbt.Executable>
rbdock ($Id: //depot/dev/client3/rdock/2013.1/src/exe/rbdock.cxx#4 $)

>  <Rbt.Library>
libRbt.so (2013.1, Build901 2013/11/27)

>  <Rbt.Parameter_File>
/export/apps/rDock/src/rDock_2013.1_src/data/scripts/dock_solv.prm

>  <Rbt.Receptor>
prm/blind_docking_80.prm

>  <SCORE>
-21.1135

>  <SCORE.INTER>
-17.9364

>  <SCORE.INTER.CONST>
1

>  <SCORE.INTER.POLAR>
-2.69616

>  <SCORE.INTER.ROT>
5

>  <SCORE.INTER.SOLV>
18.4691

>  <SCORE.INTER.VDW>
-16.0601

>  <SCORE.INTER.norm>
-1.4947

>  <SCORE.INTRA>
-3.17714

>  <SCORE.INTRA.DIHEDRAL>
6.56672

>  <SCORE.INTRA.DIHEDRAL.0>
6.04201

>  <SCORE.INTRA.POLAR>
-1.35417

>  <SCORE.INTRA.POLAR.0>
0

>  <SCORE.INTRA.REPUL>
0

>  <SCORE.INTRA.REPUL.0>
0

>  <SCORE.INTRA.SOLV>
1.96897

>  <SCORE.INTRA.SOLV.lig_0>
-71.0481

>  <SCORE.INTRA.VDW>
-2.84082

>  <SCORE.INTRA.VDW.0>
0.968882

>  <SCORE.INTRA.norm>
-0.264762

>  <SCORE.RESTR>
0

>  <SCORE.RESTR.CAVITY>
0

>  <SCORE.RESTR.norm>
0

>  <SCORE.SYSTEM>
0

>  <SCORE.SYSTEM.CONST>
0

>  <SCORE.SYSTEM.DIHEDRAL>
0

>  <SCORE.SYSTEM.SOLV>
0

>  <SCORE.SYSTEM.norm>
0

>  <SCORE.heavy>
12

>  <SCORE.norm>
-1.75946

>  <SYMMETRIC_BONDS>
11 12 2
5 6 2

>  <RMSD>
9.340

$$$$
1koc cryst
 OpenBabel11021811393D
libRbt.so/2013.1/901 2013/11/27
 12 11  0  0  0  0  0  0  0  0999 V2000
   -1.6024    2.1510   29.3980 N   0  3  0  0  0  0  0  0  0  0  0  0
   -2.6606    1.2250   29.9036 C   0  0  2  0  0  0  0  0  0  0  0  0
   -2.9586    0.1655   28.8246 C   0  0  0  0  0  0  0  0  0  0  0  0
   -3.1402    0.5501   27.6791 O   0  5  0  0  0  0  0  0  0  0  0  0
   -3.9351    2.0449   30.2407 C   0  0  0  0  0  0  0  0  0  0  0  0
   -3.9808    2.4060   31.7301 C   0  0  0  0  0  0  0  0  0  0  0  0
   -4.9515    3.5617   31.9469 C   0  0  0  0  0  0  0  0  0  0  0  0
   -6.2142    3.3123   31.1921 N   0  0  0  0  0  0  0  0  0  0  0  0
   -7.2439    2.7619   31.7892 C   0  0  0  0  0  0  0  0  0  0  0  0
   -7.5102    3.0426   33.0407 N   0  0  0  0  0  0  0  0  0  0  0  0
   -8.0117    1.9331   31.1317 N   0  3  0  0  0  0  0  0  0  0  0  0
   -3.0116   -1.0079   29.1616 O   0  0  0  0  0  0  0  0  0  0  0  0
  2  1  1  6  0  0  0
  2  5  1  0  0  0  0
  2  3  1  0  0  0  0
  3  4  1  0  0  0  0
  3 12  2  0  0  0  0
  5  6  1  0  0  0  0
  6  7  1  0  0  0  0
  7  8  1  0  0  0  0
  8  9  1  0  0  0  0
  9 10  1  0  0  0  0
  9 11  2  0  0  0  0
M  CHG  3   1   1   4  -1  11   1
M  END
>  <CHROM.1>
-178.63452905,-95.59978985,-47.90589155,161.40399226,45.60494729,95.30037539
-4.59752385,1.84189941,30.48046047,-0.68467660,0.21951787,0.68364455

>  <Name>
1koc cryst

>  <RI>
0

>  <Rbt.Current_Directory>
/home/itssahil/PROJECTS/Mol_Feturizer/New_Systems/rnas/1koc

>  <Rbt.Executable>
rbdock ($Id: //depot/dev/client3/rdock/2013.1/src/exe/rbdock.cxx#4 $)

>  <Rbt.Library>
libRbt.so (2013.1, Build901 2013/11/27)

>  <Rbt.Parameter_File>
/export/apps/rDock/src/rDock_2013.1_src/data/scripts/dock_solv.prm

>  <Rbt.Receptor>
prm/blind_docking_80.prm

>  <SCORE>
-24.5478

>  <SCORE.INTER>
-23.673

>  <SCORE.INTER.CONST>
1

>  <SCORE.INTER.POLAR>
-4.14718

>  <SCORE.INTER.ROT>
5

>  <SCORE.INTER.SOLV>
27.8294

>  <SCORE.INTER.VDW>
-18.1679

>  <SCORE.INTER.norm>
-1.97275

>  <SCORE.INTRA>
-0.874798

>  <SCORE.INTRA.DIHEDRAL>
2.7859

>  <SCORE.INTRA.DIHEDRAL.0>
6.04201

>  <SCORE.INTRA.POLAR>
0

>  <SCORE.INTRA.POLAR.0>
0

>  <SCORE.INTRA.REPUL>
0

>  <SCORE.INTRA.REPUL.0>
0

>  <SCORE.INTRA.SOLV>
-0.847703

>  <SCORE.INTRA.SOLV.lig_0>
-71.0481

>  <SCORE.INTRA.VDW>
-1.8439

>  <SCORE.INTRA.VDW.0>
0.968882

>  <SCORE.INTRA.norm>
-0.0728999

>  <SCORE.RESTR>
0

>  <SCORE.RESTR.CAVITY>
0

>  <SCORE.RESTR.norm>
0

>  <SCORE.SYSTEM>
0

>  <SCORE.SYSTEM.CONST>
0

>  <SCORE.SYSTEM.DIHEDRAL>
0

>  <SCORE.SYSTEM.SOLV>
0

>  <SCORE.SYSTEM.norm>
0

>  <SCORE.heavy>
12

>  <SCORE.norm>
-2.04565

>  <SYMMETRIC_BONDS>
11 12 2
5 6 2

>  <RMSD>
9.366

$$$$
1koc cryst
 OpenBabel11021811393D
libRbt.so/2013.1/901 2013/11/27
 12 11  0  0  0  0  0  0  0  0999 V2000
   -2.5535    0.9523   26.5393 N   0  3  0  0  0  0  0  0  0  0  0  0
   -2.5163    0.4993   27.9628 C   0  0  2  0  0  0  0  0  0  0  0  0
   -3.1560   -0.8994   28.0617 C   0  0  0  0  0  0  0  0  0  0  0  0
   -3.0586   -1.5001   29.1213 O   0  5  0  0  0  0  0  0  0  0  0  0
   -3.2845    1.5223   28.8423 C   0  0  0  0  0  0  0  0  0  0  0  0
   -2.7608    1.5138   30.2833 C   0  0  0  0  0  0  0  0  0  0  0  0
   -3.6129    2.4410   31.1430 C   0  0  0  0  0  0  0  0  0  0  0  0
   -5.0308    1.9767   31.1383 N   0  0  0  0  0  0  0  0  0  0  0  0
   -6.0116    2.8466   31.1720 C   0  0  0  0  0  0  0  0  0  0  0  0
   -5.9049    3.9882   30.5386 N   0  0  0  0  0  0  0  0  0  0  0  0
   -7.1034    2.5720   31.8365 N   0  3  0  0  0  0  0  0  0  0  0  0
   -3.7213   -1.3508   27.0768 O   0  0  0  0  0  0  0  0  0  0  0  0
  2  1  1  6  0  0  0
  2  5  1  0  0  0  0
  2  3  1  0  0  0  0
  3  4  1  0  0  0  0
  3 12  2  0  0  0  0
  5  6  1  0  0  0  0
  6  7  1  0  0  0  0
  7  8  1  0  0  0  0
  8  9  1  0  0  0  0
  9 10  1  0  0  0  0
  9 11  2  0  0  0  0
M  CHG  3   1   1   4  -1  11   1
M  END
>  <CHROM.1>
164.69019307,-153.30779658,170.77262068,-175.25333417,60.21811158,-144.88978426
-4.08229888,1.21068266,29.44322130,-0.69042685,0.84400422,0.08917326

>  <Name>
1koc cryst

>  <RI>
0

>  <Rbt.Current_Directory>
/home/itssahil/PROJECTS/Mol_Feturizer/New_Systems/rnas/1koc

>  <Rbt.Executable>
rbdock ($Id: //depot/dev/client3/rdock/2013.1/src/exe/rbdock.cxx#4 $)

>  <Rbt.Library>
libRbt.so (2013.1, Build901 2013/11/27)

>  <Rbt.Parameter_File>
/export/apps/rDock/src/rDock_2013.1_src/data/scripts/dock_solv.prm

>  <Rbt.Receptor>
prm/blind_docking_60.prm

>  <SCORE>
-29.1037

>  <SCORE.INTER>
-27.1136

>  <SCORE.INTER.CONST>
1

>  <SCORE.INTER.POLAR>
-4.64995

>  <SCORE.INTER.ROT>
5

>  <SCORE.INTER.SOLV>
29.3337

>  <SCORE.INTER.VDW>
-19.2871

>  <SCORE.INTER.norm>
-2.25947

>  <SCORE.INTRA>
-1.9935

>  <SCORE.INTRA.DIHEDRAL>
0.162149

>  <SCORE.INTRA.DIHEDRAL.0>
6.04201

>  <SCORE.INTRA.POLAR>
0

>  <SCORE.INTRA.POLAR.0>
0

>  <SCORE.INTRA.REPUL>
0

>  <SCORE.INTRA.REPUL.0>
0

>  <SCORE.INTRA.SOLV>
-0.470695

>  <SCORE.INTRA.SOLV.lig_0>
-71.0481

>  <SCORE.INTRA.VDW>
-1.83923

>  <SCORE.INTRA.VDW.0>
0.968882

>  <SCORE.INTRA.norm>
-0.166125

>  <SCORE.RESTR>
0.0033705

>  <SCORE.RESTR.CAVITY>
0.0033705

>  <SCORE.RESTR.norm>
0.000280875

>  <SCORE.SYSTEM>
0

>  <SCORE.SYSTEM.CONST>
0

>  <SCORE.SYSTEM.DIHEDRAL>
0

>  <SCORE.SYSTEM.SOLV>
0

>  <SCORE.SYSTEM.norm>
0

>  <SCORE.heavy>
12

>  <SCORE.norm>
-2.42531

>  <SYMMETRIC_BONDS>
11 12 2
5 6 2

>  <RMSD>
9.376

$$$$
1koc cryst
 OpenBabel11021811393D
libRbt.so/2013.1/901 2013/11/27
 12 11  0  0  0  0  0  0  0  0999 V2000
   -1.8209    0.4369   27.8441 N   0  3  0  0  0  0  0  0  0  0  0  0
   -2.6208   -0.1362   28.9686 C   0  0  2  0  0  0  0  0  0  0  0  0
   -3.4389   -1.3327   28.4445 C   0  0  0  0  0  0  0  0  0  0  0  0
   -4.0241   -2.0281   29.2613 O   0  5  0  0  0  0  0  0  0  0  0  0
   -3.5547    0.9641   29.5409 C   0  0  0  0  0  0  0  0  0  0  0  0
   -2.7469    2.0664   30.2360 C   0  0  0  0  0  0  0  0  0  0  0  0
   -3.3769    2.3884   31.5866 C   0  0  0  0  0  0  0  0  0  0  0  0
   -4.8338    2.6611   31.4148 N   0  0  0  0  0  0  0  0  0  0  0  0
   -5.4786    3.3887   32.2948 C   0  0  0  0  0  0  0  0  0  0  0  0
   -4.8897    4.4086   32.8684 N   0  0  0  0  0  0  0  0  0  0  0  0
   -6.7167    3.0988   32.5981 N   0  3  0  0  0  0  0  0  0  0  0  0
   -3.4581   -1.5406   27.2405 O   0  0  0  0  0  0  0  0  0  0  0  0
  2  1  1  6  0  0  0
  2  5  1  0  0  0  0
  2  3  1  0  0  0  0
  3  4  1  0  0  0  0
  3 12  2  0  0  0  0
  5  6  1  0  0  0  0
  6  7  1  0  0  0  0
  7  8  1  0  0  0  0
  8  9  1  0  0  0  0
  9 10  1  0  0  0  0
  9 11  2  0  0  0  0
M  CHG  3   1   1   4  -1  11   1
M  END
>  <CHROM.1>
79.98061663,-67.70219037,171.01604975,-133.40861293,-51.67178791,-156.25004759
-3.91925735,1.19917902,30.17040426,-1.16779526,0.48603219,0.56147274

>  <Name>
1koc cryst

>  <RI>
0

>  <Rbt.Current_Directory>
/home/itssahil/PROJECTS/Mol_Feturizer/New_Systems/rnas/1koc

>  <Rbt.Executable>
rbdock ($Id: //depot/dev/client3/rdock/2013.1/src/exe/rbdock.cxx#4 $)

>  <Rbt.Library>
libRbt.so (2013.1, Build901 2013/11/27)

>  <Rbt.Parameter_File>
/export/apps/rDock/src/rDock_2013.1_src/data/scripts/dock_solv.prm

>  <Rbt.Receptor>
prm/blind_docking_40.prm

>  <SCORE>
-25.8824

>  <SCORE.INTER>
-27.0175

>  <SCORE.INTER.CONST>
1

>  <SCORE.INTER.POLAR>
-3.77961

>  <SCORE.INTER.ROT>
5

>  <SCORE.INTER.SOLV>
32.1769

>  <SCORE.INTER.VDW>
-23.0719

>  <SCORE.INTER.norm>
-2.25146

>  <SCORE.INTRA>
1.13514

>  <SCORE.INTRA.DIHEDRAL>
4.15539

>  <SCORE.INTRA.DIHEDRAL.0>
6.04201

>  <SCORE.INTRA.POLAR>
0

>  <SCORE.INTRA.POLAR.0>
0

>  <SCORE.INTRA.REPUL>
0

>  <SCORE.INTRA.REPUL.0>
0

>  <SCORE.INTRA.SOLV>
-0.578802

>  <SCORE.INTRA.SOLV.lig_0>
-71.0481

>  <SCORE.INTRA.VDW>
-0.653153

>  <SCORE.INTRA.VDW.0>
0.968882

>  <SCORE.INTRA.norm>
0.0945953

>  <SCORE.RESTR>
0

>  <SCORE.RESTR.CAVITY>
0

>  <SCORE.RESTR.norm>
0

>  <SCORE.SYSTEM>
0

>  <SCORE.SYSTEM.CONST>
0

>  <SCORE.SYSTEM.DIHEDRAL>
0

>  <SCORE.SYSTEM.SOLV>
0

>  <SCORE.SYSTEM.norm>
0

>  <SCORE.heavy>
12

>  <SCORE.norm>
-2.15687

>  <SYMMETRIC_BONDS>
11 12 2
5 6 2

>  <RMSD>
9.388

$$$$
1koc cryst
 OpenBabel11021811393D
libRbt.so/2013.1/901 2013/11/27
 12 11  0  0  0  0  0  0  0  0999 V2000
   -3.1342    0.4635   26.1462 N   0  3  0  0  0  0  0  0  0  0  0  0
   -2.7307    0.0606   27.5274 C   0  0  2  0  0  0  0  0  0  0  0  0
   -3.2757   -1.3514   27.8183 C   0  0  0  0  0  0  0  0  0  0  0  0
   -3.2220   -1.7603   28.9685 O   0  5  0  0  0  0  0  0  0  0  0  0
   -3.2941    1.0910   28.5428 C   0  0  0  0  0  0  0  0  0  0  0  0
   -2.2423    1.4599   29.5955 C   0  0  0  0  0  0  0  0  0  0  0  0
   -2.9307    1.7697   30.9203 C   0  0  0  0  0  0  0  0  0  0  0  0
   -3.9633    2.8280   30.7202 N   0  0  0  0  0  0  0  0  0  0  0  0
   -5.2100    2.6087   31.0629 C   0  0  0  0  0  0  0  0  0  0  0  0
   -5.4878    1.8979   32.1275 N   0  0  0  0  0  0  0  0  0  0  0  0
   -6.1807    3.1056   30.3421 N   0  3  0  0  0  0  0  0  0  0  0  0
   -3.7259   -2.0034   26.8880 O   0  0  0  0  0  0  0  0  0  0  0  0
  2  1  1  6  0  0  0
  2  5  1  0  0  0  0
  2  3  1  0  0  0  0
  3  4  1  0  0  0  0
  3 12  2  0  0  0  0
  5  6  1  0  0  0  0
  6  7  1  0  0  0  0
  7  8  1  0  0  0  0
  8  9  1  0  0  0  0
  9 10  1  0  0  0  0
  9 11  2  0  0  0  0
M  CHG  3   1   1   4  -1  11   1
M  END
>  <CHROM.1>
-164.11012322,-136.28569409,-168.86598152,-148.10469430,-54.82137697,123.71872014
-3.81389224,0.84343277,29.19271778,-0.55425642,1.17830493,-0.14673051

>  <Name>
1koc cryst

>  <RI>
0

>  <Rbt.Current_Directory>
/home/itssahil/PROJECTS/Mol_Feturizer/New_Systems/rnas/1koc

>  <Rbt.Executable>
rbdock ($Id: //depot/dev/client3/rdock/2013.1/src/exe/rbdock.cxx#4 $)

>  <Rbt.Library>
libRbt.so (2013.1, Build901 2013/11/27)

>  <Rbt.Parameter_File>
/export/apps/rDock/src/rDock_2013.1_src/data/scripts/dock_solv.prm

>  <Rbt.Receptor>
prm/blind_docking_60.prm

>  <SCORE>
-23.2942

>  <SCORE.INTER>
-24.1817

>  <SCORE.INTER.CONST>
1

>  <SCORE.INTER.POLAR>
-4.39981

>  <SCORE.INTER.ROT>
5

>  <SCORE.INTER.SOLV>
30.5348

>  <SCORE.INTER.VDW>
-18.5667

>  <SCORE.INTER.norm>
-2.01514

>  <SCORE.INTRA>
0.887482

>  <SCORE.INTRA.DIHEDRAL>
5.70405

>  <SCORE.INTRA.DIHEDRAL.0>
6.04201

>  <SCORE.INTRA.POLAR>
0

>  <SCORE.INTRA.POLAR.0>
0

>  <SCORE.INTRA.REPUL>
0

>  <SCORE.INTRA.REPUL.0>
0

>  <SCORE.INTRA.SOLV>
-0.576692

>  <SCORE.INTRA.SOLV.lig_0>
-71.0481

>  <SCORE.INTRA.VDW>
-1.6762

>  <SCORE.INTRA.VDW.0>
0.968882

>  <SCORE.INTRA.norm>
0.0739568

>  <SCORE.RESTR>
0

>  <SCORE.RESTR.CAVITY>
0

>  <SCORE.RESTR.norm>
0

>  <SCORE.SYSTEM>
0

>  <SCORE.SYSTEM.CONST>
0

>  <SCORE.SYSTEM.DIHEDRAL>
0

>  <SCORE.SYSTEM.SOLV>
0

>  <SCORE.SYSTEM.norm>
0

>  <SCORE.heavy>
12

>  <SCORE.norm>
-1.94118

>  <SYMMETRIC_BONDS>
11 12 2
5 6 2

>  <RMSD>
9.396

$$$$
1koc cryst
 OpenBabel11021811393D
libRbt.so/2013.1/901 2013/11/27
 12 11  0  0  0  0  0  0  0  0999 V2000
   -3.0473    0.3612   26.1999 N   0  3  0  0  0  0  0  0  0  0  0  0
   -2.4381   -0.3437   27.3682 C   0  0  2  0  0  0  0  0  0  0  0  0
   -3.3979   -1.4523   27.8425 C   0  0  0  0  0  0  0  0  0  0  0  0
   -4.1509   -1.9492   27.0184 O   0  5  0  0  0  0  0  0  0  0  0  0
   -2.1765    0.6839   28.5022 C   0  0  0  0  0  0  0  0  0  0  0  0
   -3.4923    1.2587   29.0400 C   0  0  0  0  0  0  0  0  0  0  0  0
   -3.2147    2.0951   30.2843 C   0  0  0  0  0  0  0  0  0  0  0  0
   -4.4451    2.8411   30.6791 N   0  0  0  0  0  0  0  0  0  0  0  0
   -4.5314    3.3937   31.8653 C   0  0  0  0  0  0  0  0  0  0  0  0
   -3.4750    3.9317   32.4225 N   0  0  0  0  0  0  0  0  0  0  0  0
   -5.6778    3.4126   32.4932 N   0  3  0  0  0  0  0  0  0  0  0  0
   -3.3730   -1.7778   29.0201 O   0  0  0  0  0  0  0  0  0  0  0  0
  2  1  1  6  0  0  0
  2  5  1  0  0  0  0
  2  3  1  0  0  0  0
  3  4  1  0  0  0  0
  3 12  2  0  0  0  0
  5  6  1  0  0  0  0
  6  7  1  0  0  0  0
  7  8  1  0  0  0  0
  8  9  1  0  0  0  0
  9 10  1  0  0  0  0
  9 11  2  0  0  0  0
M  CHG  3   1   1   4  -1  11   1
M  END
>  <CHROM.1>
-64.62011187,65.16181374,27.67258854,171.41053295,170.52354247,165.38309469
-3.64415559,1.04631872,29.38410965,-1.27803906,0.87213657,0.58190987

>  <Name>
1koc cryst

>  <RI>
0

>  <Rbt.Current_Directory>
/home/itssahil/PROJECTS/Mol_Feturizer/New_Systems/rnas/1koc

>  <Rbt.Executable>
rbdock ($Id: //depot/dev/client3/rdock/2013.1/src/exe/rbdock.cxx#4 $)

>  <Rbt.Library>
libRbt.so (2013.1, Build901 2013/11/27)

>  <Rbt.Parameter_File>
/export/apps/rDock/src/rDock_2013.1_src/data/scripts/dock_solv.prm

>  <Rbt.Receptor>
prm/blind_docking_100.prm

>  <SCORE>
-27.2345

>  <SCORE.INTER>
-25.7682

>  <SCORE.INTER.CONST>
1

>  <SCORE.INTER.POLAR>
-3.70178

>  <SCORE.INTER.ROT>
5

>  <SCORE.INTER.SOLV>
31.0716

>  <SCORE.INTER.VDW>
-22.13

>  <SCORE.INTER.norm>
-2.14735

>  <SCORE.INTRA>
-1.46637

>  <SCORE.INTRA.DIHEDRAL>
-1.80259

>  <SCORE.INTRA.DIHEDRAL.0>
6.04201

>  <SCORE.INTRA.POLAR>
0

>  <SCORE.INTRA.POLAR.0>
0

>  <SCORE.INTRA.REPUL>
0

>  <SCORE.INTRA.REPUL.0>
0

>  <SCORE.INTRA.SOLV>
0.19975

>  <SCORE.INTRA.SOLV.lig_0>
-71.0481

>  <SCORE.INTRA.VDW>
-0.664948

>  <SCORE.INTRA.VDW.0>
0.968882

>  <SCORE.INTRA.norm>
-0.122197

>  <SCORE.RESTR>
0

>  <SCORE.RESTR.CAVITY>
0

>  <SCORE.RESTR.norm>
0

>  <SCORE.SYSTEM>
0

>  <SCORE.SYSTEM.CONST>
0

>  <SCORE.SYSTEM.DIHEDRAL>
0

>  <SCORE.SYSTEM.SOLV>
0

>  <SCORE.SYSTEM.norm>
0

>  <SCORE.heavy>
12

>  <SCORE.norm>
-2.26954

>  <SYMMETRIC_BONDS>
11 12 2
5 6 2

>  <RMSD>
9.399

$$$$
1koc cryst
 OpenBabel11021811393D
libRbt.so/2013.1/901 2013/11/27
 12 11  0  0  0  0  0  0  0  0999 V2000
   -3.5635    2.4642   30.3099 N   0  3  0  0  0  0  0  0  0  0  0  0
   -3.1566    2.3093   28.8805 C   0  0  2  0  0  0  0  0  0  0  0  0
   -4.1501    3.0797   27.9889 C   0  0  0  0  0  0  0  0  0  0  0  0
   -5.2652    3.3041   28.4353 O   0  5  0  0  0  0  0  0  0  0  0  0
   -3.1422    0.8002   28.5165 C   0  0  0  0  0  0  0  0  0  0  0  0
   -2.6380    0.5828   27.0849 C   0  0  0  0  0  0  0  0  0  0  0  0
   -2.6577   -0.9059   26.7558 C   0  0  0  0  0  0  0  0  0  0  0  0
   -3.9143   -1.2480   26.0277 N   0  0  0  0  0  0  0  0  0  0  0  0
   -4.4384   -2.4449   26.1394 C   0  0  0  0  0  0  0  0  0  0  0  0
   -4.3851   -3.0861   27.2805 N   0  0  0  0  0  0  0  0  0  0  0  0
   -5.0214   -2.9995   25.1092 N   0  3  0  0  0  0  0  0  0  0  0  0
   -3.7854    3.4219   26.8740 O   0  0  0  0  0  0  0  0  0  0  0  0
  2  1  1  1  0  0  0
  2  5  1  0  0  0  0
  2  3  1  0  0  0  0
  3  4  1  0  0  0  0
  3 12  2  0  0  0  0
  5  6  1  0  0  0  0
  6  7  1  0  0  0  0
  7  8  1  0  0  0  0
  8  9  1  0  0  0  0
  9 10  1  0  0  0  0
  9 11  2  0  0  0  0
M  CHG  3   1   1   4  -1  11   1
M  END
>  <CHROM.1>
62.52913560,-176.14190348,-22.80001222,-179.14060383,96.28809410,-150.44378940
-3.87375072,0.44273367,27.47069289,-1.36895264,1.22497041,-2.88967745

>  <Name>
1koc cryst

>  <RI>
0

>  <Rbt.Current_Directory>
/home/itssahil/PROJECTS/Mol_Feturizer/New_Systems/rnas/1koc

>  <Rbt.Executable>
rbdock ($Id: //depot/dev/client3/rdock/2013.1/src/exe/rbdock.cxx#4 $)

>  <Rbt.Library>
libRbt.so (2013.1, Build901 2013/11/27)

>  <Rbt.Parameter_File>
/export/apps/rDock/src/rDock_2013.1_src/data/scripts/dock_solv.prm

>  <Rbt.Receptor>
prm/blind_docking_60.prm

>  <SCORE>
-11.9884

>  <SCORE.INTER>
-10.3399

>  <SCORE.INTER.CONST>
1

>  <SCORE.INTER.POLAR>
-1.63484

>  <SCORE.INTER.ROT>
5

>  <SCORE.INTER.SOLV>
27.1681

>  <SCORE.INTER.VDW>
-17.4332

>  <SCORE.INTER.norm>
-0.861661

>  <SCORE.INTRA>
-1.64844

>  <SCORE.INTRA.DIHEDRAL>
1.1081

>  <SCORE.INTRA.DIHEDRAL.0>
6.04201

>  <SCORE.INTRA.POLAR>
0

>  <SCORE.INTRA.POLAR.0>
0

>  <SCORE.INTRA.REPUL>
0

>  <SCORE.INTRA.REPUL.0>
0

>  <SCORE.INTRA.SOLV>
-0.691415

>  <SCORE.INTRA.SOLV.lig_0>
-71.0481

>  <SCORE.INTRA.VDW>
-1.85678

>  <SCORE.INTRA.VDW.0>
0.968882

>  <SCORE.INTRA.norm>
-0.13737

>  <SCORE.RESTR>
0

>  <SCORE.RESTR.CAVITY>
0

>  <SCORE.RESTR.norm>
0

>  <SCORE.SYSTEM>
0

>  <SCORE.SYSTEM.CONST>
0

>  <SCORE.SYSTEM.DIHEDRAL>
0

>  <SCORE.SYSTEM.SOLV>
0

>  <SCORE.SYSTEM.norm>
0

>  <SCORE.heavy>
12

>  <SCORE.norm>
-0.999032

>  <SYMMETRIC_BONDS>
11 12 2
5 6 2

>  <RMSD>
9.419

$$$$
1koc cryst
 OpenBabel11021811393D
libRbt.so/2013.1/901 2013/11/27
 12 11  0  0  0  0  0  0  0  0999 V2000
   -2.5183    1.0675   26.8692 N   0  3  0  0  0  0  0  0  0  0  0  0
   -2.6116    0.4657   28.2338 C   0  0  2  0  0  0  0  0  0  0  0  0
   -3.1585   -0.9702   28.1133 C   0  0  0  0  0  0  0  0  0  0  0  0
   -3.2712   -1.6279   29.1370 O   0  5  0  0  0  0  0  0  0  0  0  0
   -3.5449    1.3411   29.1129 C   0  0  0  0  0  0  0  0  0  0  0  0
   -2.8136    1.8431   30.3635 C   0  0  0  0  0  0  0  0  0  0  0  0
   -3.8311    2.3113   31.3981 C   0  0  0  0  0  0  0  0  0  0  0  0
   -4.7480    3.3183   30.7885 N   0  0  0  0  0  0  0  0  0  0  0  0
   -6.0304    3.0658   30.6817 C   0  0  0  0  0  0  0  0  0  0  0  0
   -6.6520    2.3930   31.6181 N   0  0  0  0  0  0  0  0  0  0  0  0
   -6.6935    3.4915   29.6386 N   0  3  0  0  0  0  0  0  0  0  0  0
   -3.4442   -1.3918   27.0025 O   0  0  0  0  0  0  0  0  0  0  0  0
  2  1  1  6  0  0  0
  2  5  1  0  0  0  0
  2  3  1  0  0  0  0
  3  4  1  0  0  0  0
  3 12  2  0  0  0  0
  5  6  1  0  0  0  0
  6  7  1  0  0  0  0
  7  8  1  0  0  0  0
  8  9  1  0  0  0  0
  9 10  1  0  0  0  0
  9 11  2  0  0  0  0
M  CHG  3   1   1   4  -1  11   1
M  END
>  <CHROM.1>
59.27227014,-121.85968956,178.30531517,-162.40239013,-54.09147713,116.84560151
-4.12830684,1.27487650,29.37418636,-0.27274427,1.00816707,-0.54040624

>  <Name>
1koc cryst

>  <RI>
0

>  <Rbt.Current_Directory>
/home/itssahil/PROJECTS/Mol_Feturizer/New_Systems/rnas/1koc

>  <Rbt.Executable>
rbdock ($Id: //depot/dev/client3/rdock/2013.1/src/exe/rbdock.cxx#4 $)

>  <Rbt.Library>
libRbt.so (2013.1, Build901 2013/11/27)

>  <Rbt.Parameter_File>
/export/apps/rDock/src/rDock_2013.1_src/data/scripts/dock_solv.prm

>  <Rbt.Receptor>
prm/blind_docking_100.prm

>  <SCORE>
-24.6266

>  <SCORE.INTER>
-24.2208

>  <SCORE.INTER.CONST>
1

>  <SCORE.INTER.POLAR>
-3.87064

>  <SCORE.INTER.ROT>
5

>  <SCORE.INTER.SOLV>
27.3898

>  <SCORE.INTER.VDW>
-19.3084

>  <SCORE.INTER.norm>
-2.0184

>  <SCORE.INTRA>
-0.405827

>  <SCORE.INTRA.DIHEDRAL>
3.86164

>  <SCORE.INTRA.DIHEDRAL.0>
6.04201

>  <SCORE.INTRA.POLAR>
0

>  <SCORE.INTRA.POLAR.0>
0

>  <SCORE.INTRA.REPUL>
0

>  <SCORE.INTRA.REPUL.0>
0

>  <SCORE.INTRA.SOLV>
-0.808142

>  <SCORE.INTRA.SOLV.lig_0>
-71.0481

>  <SCORE.INTRA.VDW>
-1.93258

>  <SCORE.INTRA.VDW.0>
0.968882

>  <SCORE.INTRA.norm>
-0.0338189

>  <SCORE.RESTR>
0

>  <SCORE.RESTR.CAVITY>
0

>  <SCORE.RESTR.norm>
0

>  <SCORE.SYSTEM>
0

>  <SCORE.SYSTEM.CONST>
0

>  <SCORE.SYSTEM.DIHEDRAL>
0

>  <SCORE.SYSTEM.SOLV>
0

>  <SCORE.SYSTEM.norm>
0

>  <SCORE.heavy>
12

>  <SCORE.norm>
-2.05222

>  <SYMMETRIC_BONDS>
11 12 2
5 6 2

>  <RMSD>
9.420

$$$$
1koc cryst
 OpenBabel11021811393D
libRbt.so/2013.1/901 2013/11/27
 12 11  0  0  0  0  0  0  0  0999 V2000
   -2.6473    0.8505   26.4682 N   0  3  0  0  0  0  0  0  0  0  0  0
   -2.6025    0.4425   27.9050 C   0  0  2  0  0  0  0  0  0  0  0  0
   -3.2631   -0.9419   28.0551 C   0  0  0  0  0  0  0  0  0  0  0  0
   -3.1193   -1.5333   29.1147 O   0  5  0  0  0  0  0  0  0  0  0  0
   -3.3454    1.5053   28.7588 C   0  0  0  0  0  0  0  0  0  0  0  0
   -3.0044    1.3546   30.2461 C   0  0  0  0  0  0  0  0  0  0  0  0
   -3.5380    2.5565   31.0178 C   0  0  0  0  0  0  0  0  0  0  0  0
   -4.8233    2.2001   31.6867 N   0  0  0  0  0  0  0  0  0  0  0  0
   -5.9421    2.7774   31.3196 C   0  0  0  0  0  0  0  0  0  0  0  0
   -6.1514    3.0733   30.0608 N   0  0  0  0  0  0  0  0  0  0  0  0
   -6.8555    3.0548   32.2127 N   0  3  0  0  0  0  0  0  0  0  0  0
   -3.8903   -1.3921   27.1079 O   0  0  0  0  0  0  0  0  0  0  0  0
  2  1  1  6  0  0  0
  2  5  1  0  0  0  0
  2  3  1  0  0  0  0
  3  4  1  0  0  0  0
  3 12  2  0  0  0  0
  5  6  1  0  0  0  0
  6  7  1  0  0  0  0
  7  8  1  0  0  0  0
  8  9  1  0  0  0  0
  9 10  1  0  0  0  0
  9 11  2  0  0  0  0
M  CHG  3   1   1   4  -1  11   1
M  END
>  <CHROM.1>
40.97063246,-164.22180091,167.93321377,169.66064077,99.91915690,-114.16114353
-4.12138973,1.15706011,29.46443371,-0.12902923,1.07237887,-0.55394212

>  <Name>
1koc cryst

>  <RI>
0

>  <Rbt.Current_Directory>
/home/itssahil/PROJECTS/Mol_Feturizer/New_Systems/rnas/1koc

>  <Rbt.Executable>
rbdock ($Id: //depot/dev/client3/rdock/2013.1/src/exe/rbdock.cxx#4 $)

>  <Rbt.Library>
libRbt.so (2013.1, Build901 2013/11/27)

>  <Rbt.Parameter_File>
/export/apps/rDock/src/rDock_2013.1_src/data/scripts/dock_solv.prm

>  <Rbt.Receptor>
prm/blind_docking_100.prm

>  <SCORE>
-21.8274

>  <SCORE.INTER>
-21.6378

>  <SCORE.INTER.CONST>
1

>  <SCORE.INTER.POLAR>
-3.41946

>  <SCORE.INTER.ROT>
5

>  <SCORE.INTER.SOLV>
27.8956

>  <SCORE.INTER.VDW>
-19.2588

>  <SCORE.INTER.norm>
-1.80315

>  <SCORE.INTRA>
-0.189656

>  <SCORE.INTRA.DIHEDRAL>
3.62286

>  <SCORE.INTRA.DIHEDRAL.0>
6.04201

>  <SCORE.INTRA.POLAR>
0

>  <SCORE.INTRA.POLAR.0>
0

>  <SCORE.INTRA.REPUL>
0

>  <SCORE.INTRA.REPUL.0>
0

>  <SCORE.INTRA.SOLV>
-0.334185

>  <SCORE.INTRA.SOLV.lig_0>
-71.0481

>  <SCORE.INTRA.VDW>
-1.83399

>  <SCORE.INTRA.VDW.0>
0.968882

>  <SCORE.INTRA.norm>
-0.0158046

>  <SCORE.RESTR>
0

>  <SCORE.RESTR.CAVITY>
0

>  <SCORE.RESTR.norm>
0

>  <SCORE.SYSTEM>
0

>  <SCORE.SYSTEM.CONST>
0

>  <SCORE.SYSTEM.DIHEDRAL>
0

>  <SCORE.SYSTEM.SOLV>
0

>  <SCORE.SYSTEM.norm>
0

>  <SCORE.heavy>
12

>  <SCORE.norm>
-1.81895

>  <SYMMETRIC_BONDS>
11 12 2
5 6 2

>  <RMSD>
9.432

$$$$
1koc cryst
 OpenBabel11021811393D
libRbt.so/2013.1/901 2013/11/27
 12 11  0  0  0  0  0  0  0  0999 V2000
   -2.0918    1.0276   27.1450 N   0  3  0  0  0  0  0  0  0  0  0  0
   -2.5137   -0.2137   27.8620 C   0  0  2  0  0  0  0  0  0  0  0  0
   -3.0927   -1.2119   26.8404 C   0  0  0  0  0  0  0  0  0  0  0  0
   -3.2747   -2.3638   27.2050 O   0  5  0  0  0  0  0  0  0  0  0  0
   -3.5721    0.1545   28.9365 C   0  0  0  0  0  0  0  0  0  0  0  0
   -3.0587    1.2673   29.8578 C   0  0  0  0  0  0  0  0  0  0  0  0
   -4.2344    1.9190   30.5776 C   0  0  0  0  0  0  0  0  0  0  0  0
   -3.7399    2.7183   31.7365 N   0  0  0  0  0  0  0  0  0  0  0  0
   -4.5775    3.4210   32.4606 C   0  0  0  0  0  0  0  0  0  0  0  0
   -5.7835    2.9696   32.7011 N   0  0  0  0  0  0  0  0  0  0  0  0
   -4.2064    4.5752   32.9495 N   0  3  0  0  0  0  0  0  0  0  0  0
   -3.3334   -0.8131   25.7106 O   0  0  0  0  0  0  0  0  0  0  0  0
  2  1  1  6  0  0  0
  2  5  1  0  0  0  0
  2  3  1  0  0  0  0
  3  4  1  0  0  0  0
  3 12  2  0  0  0  0
  5  6  1  0  0  0  0
  6  7  1  0  0  0  0
  7  8  1  0  0  0  0
  8  9  1  0  0  0  0
  9 10  1  0  0  0  0
  9 11  2  0  0  0  0
M  CHG  3   1   1   4  -1  11   1
M  END
>  <CHROM.1>
-61.59557788,-53.29410966,167.58523687,161.38882068,164.18983336,176.61574123
-3.61977960,1.14362388,29.48578685,-1.25539126,0.77122337,0.68370556

>  <Name>
1koc cryst

>  <RI>
0

>  <Rbt.Current_Directory>
/home/itssahil/PROJECTS/Mol_Feturizer/New_Systems/rnas/1koc

>  <Rbt.Executable>
rbdock ($Id: //depot/dev/client3/rdock/2013.1/src/exe/rbdock.cxx#4 $)

>  <Rbt.Library>
libRbt.so (2013.1, Build901 2013/11/27)

>  <Rbt.Parameter_File>
/export/apps/rDock/src/rDock_2013.1_src/data/scripts/dock_solv.prm

>  <Rbt.Receptor>
prm/blind_docking_60.prm

>  <SCORE>
-21.9595

>  <SCORE.INTER>
-20.563

>  <SCORE.INTER.CONST>
1

>  <SCORE.INTER.POLAR>
-2.69164

>  <SCORE.INTER.ROT>
5

>  <SCORE.INTER.SOLV>
33.2135

>  <SCORE.INTER.VDW>
-22.741

>  <SCORE.INTER.norm>
-1.71358

>  <SCORE.INTRA>
-1.39652

>  <SCORE.INTRA.DIHEDRAL>
-0.195318

>  <SCORE.INTRA.DIHEDRAL.0>
6.04201

>  <SCORE.INTRA.POLAR>
0

>  <SCORE.INTRA.POLAR.0>
0

>  <SCORE.INTRA.REPUL>
0

>  <SCORE.INTRA.REPUL.0>
0

>  <SCORE.INTRA.SOLV>
-0.646425

>  <SCORE.INTRA.SOLV.lig_0>
-71.0481

>  <SCORE.INTRA.VDW>
-0.975652

>  <SCORE.INTRA.VDW.0>
0.968882

>  <SCORE.INTRA.norm>
-0.116377

>  <SCORE.RESTR>
0

>  <SCORE.RESTR.CAVITY>
0

>  <SCORE.RESTR.norm>
0

>  <SCORE.SYSTEM>
0

>  <SCORE.SYSTEM.CONST>
0

>  <SCORE.SYSTEM.DIHEDRAL>
0

>  <SCORE.SYSTEM.SOLV>
0

>  <SCORE.SYSTEM.norm>
0

>  <SCORE.heavy>
12

>  <SCORE.norm>
-1.82996

>  <SYMMETRIC_BONDS>
11 12 2
5 6 2

>  <RMSD>
9.437

$$$$
1koc cryst
 OpenBabel11021811393D
libRbt.so/2013.1/901 2013/11/27
 12 11  0  0  0  0  0  0  0  0999 V2000
   -0.7875    0.0641   28.7560 N   0  3  0  0  0  0  0  0  0  0  0  0
   -2.2517    0.0515   29.0539 C   0  0  2  0  0  0  0  0  0  0  0  0
   -3.0297   -0.1645   27.7411 C   0  0  0  0  0  0  0  0  0  0  0  0
   -3.5926   -1.2368   27.5787 O   0  5  0  0  0  0  0  0  0  0  0  0
   -2.6475    1.3987   29.7162 C   0  0  0  0  0  0  0  0  0  0  0  0
   -4.1418    1.4270   30.0585 C   0  0  0  0  0  0  0  0  0  0  0  0
   -4.5827    2.8652   30.3073 C   0  0  0  0  0  0  0  0  0  0  0  0
   -6.0724    2.9395   30.3475 N   0  0  0  0  0  0  0  0  0  0  0  0
   -6.7070    2.8773   31.4934 C   0  0  0  0  0  0  0  0  0  0  0  0
   -6.1951    3.4326   32.5637 N   0  0  0  0  0  0  0  0  0  0  0  0
   -7.8583    2.2627   31.5679 N   0  3  0  0  0  0  0  0  0  0  0  0
   -3.0409    0.7379   26.9172 O   0  0  0  0  0  0  0  0  0  0  0  0
  2  1  1  6  0  0  0
  2  5  1  0  0  0  0
  2  3  1  0  0  0  0
  3  4  1  0  0  0  0
  3 12  2  0  0  0  0
  5  6  1  0  0  0  0
  6  7  1  0  0  0  0
  7  8  1  0  0  0  0
  8  9  1  0  0  0  0
  9 10  1  0  0  0  0
  9 11  2  0  0  0  0
M  CHG  3   1   1   4  -1  11   1
M  END
>  <CHROM.1>
-129.46153093,-179.25687644,109.55428866,-163.13502182,167.78798220,94.68177269
-4.23308352,1.37912638,29.66696484,-0.81336021,-0.03280171,0.90225049

>  <Name>
1koc cryst

>  <RI>
0

>  <Rbt.Current_Directory>
/home/itssahil/PROJECTS/Mol_Feturizer/New_Systems/rnas/1koc

>  <Rbt.Executable>
rbdock ($Id: //depot/dev/client3/rdock/2013.1/src/exe/rbdock.cxx#4 $)

>  <Rbt.Library>
libRbt.so (2013.1, Build901 2013/11/27)

>  <Rbt.Parameter_File>
/export/apps/rDock/src/rDock_2013.1_src/data/scripts/dock_solv.prm

>  <Rbt.Receptor>
prm/blind_docking_100.prm

>  <SCORE>
-13.3042

>  <SCORE.INTER>
-12.8808

>  <SCORE.INTER.CONST>
1

>  <SCORE.INTER.POLAR>
-3.28439

>  <SCORE.INTER.ROT>
5

>  <SCORE.INTER.SOLV>
29.9027

>  <SCORE.INTER.VDW>
-14.5401

>  <SCORE.INTER.norm>
-1.0734

>  <SCORE.INTRA>
-0.535963

>  <SCORE.INTRA.DIHEDRAL>
2.43261

>  <SCORE.INTRA.DIHEDRAL.0>
6.04201

>  <SCORE.INTRA.POLAR>
0

>  <SCORE.INTRA.POLAR.0>
0

>  <SCORE.INTRA.REPUL>
0

>  <SCORE.INTRA.REPUL.0>
0

>  <SCORE.INTRA.SOLV>
-1.27122

>  <SCORE.INTRA.SOLV.lig_0>
-71.0481

>  <SCORE.INTRA.VDW>
-1.11666

>  <SCORE.INTRA.VDW.0>
0.968882

>  <SCORE.INTRA.norm>
-0.0446636

>  <SCORE.RESTR>
0.112527

>  <SCORE.RESTR.CAVITY>
0.112527

>  <SCORE.RESTR.norm>
0.00937723

>  <SCORE.SYSTEM>
0

>  <SCORE.SYSTEM.CONST>
0

>  <SCORE.SYSTEM.DIHEDRAL>
0

>  <SCORE.SYSTEM.SOLV>
0

>  <SCORE.SYSTEM.norm>
0

>  <SCORE.heavy>
12

>  <SCORE.norm>
-1.10869

>  <SYMMETRIC_BONDS>
11 12 2
5 6 2

>  <RMSD>
9.463

$$$$
1koc cryst
 OpenBabel11021811393D
libRbt.so/2013.1/901 2013/11/27
 12 11  0  0  0  0  0  0  0  0999 V2000
   -1.7045    1.9872   29.7292 N   0  3  0  0  0  0  0  0  0  0  0  0
   -3.0521    1.7532   29.1276 C   0  0  2  0  0  0  0  0  0  0  0  0
   -3.0175    2.1634   27.6423 C   0  0  0  0  0  0  0  0  0  0  0  0
   -3.9454    1.8119   26.9292 O   0  5  0  0  0  0  0  0  0  0  0  0
   -4.1078    2.5835   29.9062 C   0  0  0  0  0  0  0  0  0  0  0  0
   -4.4920    1.8939   31.2206 C   0  0  0  0  0  0  0  0  0  0  0  0
   -5.5049    2.7513   31.9715 C   0  0  0  0  0  0  0  0  0  0  0  0
   -6.8621    2.1397   31.8694 N   0  0  0  0  0  0  0  0  0  0  0  0
   -7.7832    2.6957   31.1197 C   0  0  0  0  0  0  0  0  0  0  0  0
   -7.4571    3.2700   29.9884 N   0  0  0  0  0  0  0  0  0  0  0  0
   -9.0338    2.6727   31.4997 N   0  3  0  0  0  0  0  0  0  0  0  0
   -2.0618    2.8103   27.2405 O   0  0  0  0  0  0  0  0  0  0  0  0
  2  1  1  1  0  0  0
  2  5  1  0  0  0  0
  2  3  1  0  0  0  0
  3  4  1  0  0  0  0
  3 12  2  0  0  0  0
  5  6  1  0  0  0  0
  6  7  1  0  0  0  0
  7  8  1  0  0  0  0
  8  9  1  0  0  0  0
  9 10  1  0  0  0  0
  9 11  2  0  0  0  0
M  CHG  3   1   1   4  -1  11   1
M  END
>  <CHROM.1>
-49.98439797,-79.10823516,166.51807366,178.74191795,105.68429819,-108.07709034
-4.90673394,2.38273838,29.83774879,-0.55158896,-0.13531399,1.64567013

>  <Name>
1koc cryst

>  <RI>
0

>  <Rbt.Current_Directory>
/home/itssahil/PROJECTS/Mol_Feturizer/New_Systems/rnas/1koc

>  <Rbt.Executable>
rbdock ($Id: //depot/dev/client3/rdock/2013.1/src/exe/rbdock.cxx#4 $)

>  <Rbt.Library>
libRbt.so (2013.1, Build901 2013/11/27)

>  <Rbt.Parameter_File>
/export/apps/rDock/src/rDock_2013.1_src/data/scripts/dock_solv.prm

>  <Rbt.Receptor>
prm/blind_docking_80.prm

>  <SCORE>
-22.5893

>  <SCORE.INTER>
-22.3312

>  <SCORE.INTER.CONST>
1

>  <SCORE.INTER.POLAR>
-4.23502

>  <SCORE.INTER.ROT>
5

>  <SCORE.INTER.SOLV>
23.0318

>  <SCORE.INTER.VDW>
-15.3814

>  <SCORE.INTER.norm>
-1.86093

>  <SCORE.INTRA>
-0.258086

>  <SCORE.INTRA.DIHEDRAL>
3.61978

>  <SCORE.INTRA.DIHEDRAL.0>
6.04201

>  <SCORE.INTRA.POLAR>
0

>  <SCORE.INTRA.POLAR.0>
0

>  <SCORE.INTRA.REPUL>
0

>  <SCORE.INTRA.REPUL.0>
0

>  <SCORE.INTRA.SOLV>
-0.236556

>  <SCORE.INTRA.SOLV.lig_0>
-71.0481

>  <SCORE.INTRA.VDW>
-1.9497

>  <SCORE.INTRA.VDW.0>
0.968882

>  <SCORE.INTRA.norm>
-0.0215072

>  <SCORE.RESTR>
0

>  <SCORE.RESTR.CAVITY>
0

>  <SCORE.RESTR.norm>
0

>  <SCORE.SYSTEM>
0

>  <SCORE.SYSTEM.CONST>
0

>  <SCORE.SYSTEM.DIHEDRAL>
0

>  <SCORE.SYSTEM.SOLV>
0

>  <SCORE.SYSTEM.norm>
0

>  <SCORE.heavy>
12

>  <SCORE.norm>
-1.88244

>  <SYMMETRIC_BONDS>
11 12 2
5 6 2

>  <RMSD>
9.473

$$$$
1koc cryst
 OpenBabel11021811393D
libRbt.so/2013.1/901 2013/11/27
 12 11  0  0  0  0  0  0  0  0999 V2000
   -6.3840    1.8225   32.0189 N   0  3  0  0  0  0  0  0  0  0  0  0
   -5.8926    3.2183   32.2269 C   0  0  2  0  0  0  0  0  0  0  0  0
   -7.0660    4.1984   32.0317 C   0  0  0  0  0  0  0  0  0  0  0  0
   -6.8287    5.2803   31.5158 O   0  5  0  0  0  0  0  0  0  0  0  0
   -4.7524    3.5121   31.2151 C   0  0  0  0  0  0  0  0  0  0  0  0
   -3.6005    2.5131   31.3767 C   0  0  0  0  0  0  0  0  0  0  0  0
   -3.8355    1.3100   30.4700 C   0  0  0  0  0  0  0  0  0  0  0  0
   -3.6949    1.7163   29.0412 N   0  0  0  0  0  0  0  0  0  0  0  0
   -3.0859    0.9296   28.1868 C   0  0  0  0  0  0  0  0  0  0  0  0
   -3.2125   -0.3709   28.2793 N   0  0  0  0  0  0  0  0  0  0  0  0
   -2.3530    1.4449   27.2349 N   0  3  0  0  0  0  0  0  0  0  0  0
   -8.1768    3.8575   32.4102 O   0  0  0  0  0  0  0  0  0  0  0  0
  2  1  1  6  0  0  0
  2  5  1  0  0  0  0
  2  3  1  0  0  0  0
  3  4  1  0  0  0  0
  3 12  2  0  0  0  0
  5  6  1  0  0  0  0
  6  7  1  0  0  0  0
  7  8  1  0  0  0  0
  8  9  1  0  0  0  0
  9 10  1  0  0  0  0
  9 11  2  0  0  0  0
M  CHG  3   1   1   4  -1  11   1
M  END
>  <CHROM.1>
-166.75229661,-58.18482695,-144.43600591,90.28088888,68.70445122,139.52728926
-4.92722122,2.43080231,30.48156684,2.78630258,0.82884852,-0.21458789

>  <Name>
1koc cryst

>  <RI>
0

>  <Rbt.Current_Directory>
/home/itssahil/PROJECTS/Mol_Feturizer/New_Systems/rnas/1koc

>  <Rbt.Executable>
rbdock ($Id: //depot/dev/client3/rdock/2013.1/src/exe/rbdock.cxx#4 $)

>  <Rbt.Library>
libRbt.so (2013.1, Build901 2013/11/27)

>  <Rbt.Parameter_File>
/export/apps/rDock/src/rDock_2013.1_src/data/scripts/dock_solv.prm

>  <Rbt.Receptor>
prm/blind_docking_100.prm

>  <SCORE>
-22.0166

>  <SCORE.INTER>
-22.5227

>  <SCORE.INTER.CONST>
1

>  <SCORE.INTER.POLAR>
-3.73676

>  <SCORE.INTER.ROT>
5

>  <SCORE.INTER.SOLV>
24.7039

>  <SCORE.INTER.VDW>
-17.7273

>  <SCORE.INTER.norm>
-1.87689

>  <SCORE.INTRA>
0.418837

>  <SCORE.INTRA.DIHEDRAL>
1.21334

>  <SCORE.INTRA.DIHEDRAL.0>
6.04201

>  <SCORE.INTRA.POLAR>
0

>  <SCORE.INTRA.POLAR.0>
0

>  <SCORE.INTRA.REPUL>
0

>  <SCORE.INTRA.REPUL.0>
0

>  <SCORE.INTRA.SOLV>
1.06766

>  <SCORE.INTRA.SOLV.lig_0>
-71.0481

>  <SCORE.INTRA.VDW>
-0.721666

>  <SCORE.INTRA.VDW.0>
0.968882

>  <SCORE.INTRA.norm>
0.034903

>  <SCORE.RESTR>
0.0873157

>  <SCORE.RESTR.CAVITY>
0.0873157

>  <SCORE.RESTR.norm>
0.00727631

>  <SCORE.SYSTEM>
0

>  <SCORE.SYSTEM.CONST>
0

>  <SCORE.SYSTEM.DIHEDRAL>
0

>  <SCORE.SYSTEM.SOLV>
0

>  <SCORE.SYSTEM.norm>
0

>  <SCORE.heavy>
12

>  <SCORE.norm>
-1.83471

>  <SYMMETRIC_BONDS>
11 12 2
5 6 2

>  <RMSD>
9.475

$$$$
1koc cryst
 OpenBabel11021811393D
libRbt.so/2013.1/901 2013/11/27
 12 11  0  0  0  0  0  0  0  0999 V2000
   -1.4771    1.8882   29.7064 N   0  3  0  0  0  0  0  0  0  0  0  0
   -2.3770    1.5316   28.5680 C   0  0  2  0  0  0  0  0  0  0  0  0
   -3.6866    2.3347   28.6922 C   0  0  0  0  0  0  0  0  0  0  0  0
   -4.2212    2.3926   29.7895 O   0  5  0  0  0  0  0  0  0  0  0  0
   -2.6589    0.0053   28.6014 C   0  0  0  0  0  0  0  0  0  0  0  0
   -3.3483   -0.4566   27.3121 C   0  0  0  0  0  0  0  0  0  0  0  0
   -3.1604   -1.9601   27.1416 C   0  0  0  0  0  0  0  0  0  0  0  0
   -4.4760   -2.6078   26.8661 N   0  0  0  0  0  0  0  0  0  0  0  0
   -4.7082   -3.8326   27.2731 C   0  0  0  0  0  0  0  0  0  0  0  0
   -4.2253   -4.2522   28.4163 N   0  0  0  0  0  0  0  0  0  0  0  0
   -5.4290   -4.6379   26.5377 N   0  3  0  0  0  0  0  0  0  0  0  0
   -4.1386    2.8677   27.6898 O   0  0  0  0  0  0  0  0  0  0  0  0
  2  1  1  1  0  0  0
  2  5  1  0  0  0  0
  2  3  1  0  0  0  0
  3  4  1  0  0  0  0
  3 12  2  0  0  0  0
  5  6  1  0  0  0  0
  6  7  1  0  0  0  0
  7  8  1  0  0  0  0
  8  9  1  0  0  0  0
  9 10  1  0  0  0  0
  9 11  2  0  0  0  0
M  CHG  3   1   1   4  -1  11   1
M  END
>  <CHROM.1>
-45.15581366,-169.01490846,-45.55231354,159.62063769,129.90564725,-148.57400860
-3.66098750,-0.55569799,28.07572132,-1.27227950,0.60499029,-3.03419147

>  <Name>
1koc cryst

>  <RI>
0

>  <Rbt.Current_Directory>
/home/itssahil/PROJECTS/Mol_Feturizer/New_Systems/rnas/1koc

>  <Rbt.Executable>
rbdock ($Id: //depot/dev/client3/rdock/2013.1/src/exe/rbdock.cxx#4 $)

>  <Rbt.Library>
libRbt.so (2013.1, Build901 2013/11/27)

>  <Rbt.Parameter_File>
/export/apps/rDock/src/rDock_2013.1_src/data/scripts/dock_solv.prm

>  <Rbt.Receptor>
prm/blind_docking_80.prm

>  <SCORE>
-3.20296

>  <SCORE.INTER>
-3.52063

>  <SCORE.INTER.CONST>
1

>  <SCORE.INTER.POLAR>
-3.35809

>  <SCORE.INTER.ROT>
5

>  <SCORE.INTER.SOLV>
31.2635

>  <SCORE.INTER.VDW>
-8.50796

>  <SCORE.INTER.norm>
-0.293386

>  <SCORE.INTRA>
-0.0988655

>  <SCORE.INTRA.DIHEDRAL>
5.05688

>  <SCORE.INTRA.DIHEDRAL.0>
6.04201

>  <SCORE.INTRA.POLAR>
0

>  <SCORE.INTRA.POLAR.0>
0

>  <SCORE.INTRA.REPUL>
0

>  <SCORE.INTRA.REPUL.0>
0

>  <SCORE.INTRA.SOLV>
-1.28913

>  <SCORE.INTRA.SOLV.lig_0>
-71.0481

>  <SCORE.INTRA.VDW>
-1.98274

>  <SCORE.INTRA.VDW.0>
0.968882

>  <SCORE.INTRA.norm>
-0.00823879

>  <SCORE.RESTR>
0.416531

>  <SCORE.RESTR.CAVITY>
0.416531

>  <SCORE.RESTR.norm>
0.0347109

>  <SCORE.SYSTEM>
0

>  <SCORE.SYSTEM.CONST>
0

>  <SCORE.SYSTEM.DIHEDRAL>
0

>  <SCORE.SYSTEM.SOLV>
0

>  <SCORE.SYSTEM.norm>
0

>  <SCORE.heavy>
12

>  <SCORE.norm>
-0.266913

>  <SYMMETRIC_BONDS>
11 12 2
5 6 2

>  <RMSD>
9.476

$$$$
1koc cryst
 OpenBabel11021811393D
libRbt.so/2013.1/901 2013/11/27
 12 11  0  0  0  0  0  0  0  0999 V2000
   -3.0360    2.4373   27.1586 N   0  3  0  0  0  0  0  0  0  0  0  0
   -3.1506    0.9689   27.4102 C   0  0  2  0  0  0  0  0  0  0  0  0
   -2.1744    0.5743   28.5357 C   0  0  0  0  0  0  0  0  0  0  0  0
   -2.3212    1.0967   29.6305 O   0  5  0  0  0  0  0  0  0  0  0  0
   -2.8243    0.2015   26.1008 C   0  0  0  0  0  0  0  0  0  0  0  0
   -3.7396   -1.0171   25.9328 C   0  0  0  0  0  0  0  0  0  0  0  0
   -3.2440   -2.1554   26.8181 C   0  0  0  0  0  0  0  0  0  0  0  0
   -4.3099   -3.1900   26.9584 N   0  0  0  0  0  0  0  0  0  0  0  0
   -4.6665   -3.6151   28.1466 C   0  0  0  0  0  0  0  0  0  0  0  0
   -4.6985   -2.7887   29.1625 N   0  0  0  0  0  0  0  0  0  0  0  0
   -4.9966   -4.8683   28.3181 N   0  3  0  0  0  0  0  0  0  0  0  0
   -1.2919   -0.2324   28.2831 O   0  0  0  0  0  0  0  0  0  0  0  0
  2  1  1  6  0  0  0
  2  5  1  0  0  0  0
  2  3  1  0  0  0  0
  3  4  1  0  0  0  0
  3 12  2  0  0  0  0
  5  6  1  0  0  0  0
  6  7  1  0  0  0  0
  7  8  1  0  0  0  0
  8  9  1  0  0  0  0
  9 10  1  0  0  0  0
  9 11  2  0  0  0  0
M  CHG  3   1   1   4  -1  11   1
M  END
>  <CHROM.1>
-21.99732033,-141.56317997,60.37045253,-78.64073487,164.37391994,-128.74049738
-3.37289968,-1.03033987,27.72956937,0.37454542,-1.13981801,-1.20024079

>  <Name>
1koc cryst

>  <RI>
0

>  <Rbt.Current_Directory>
/home/itssahil/PROJECTS/Mol_Feturizer/New_Systems/rnas/1koc

>  <Rbt.Executable>
rbdock ($Id: //depot/dev/client3/rdock/2013.1/src/exe/rbdock.cxx#4 $)

>  <Rbt.Library>
libRbt.so (2013.1, Build901 2013/11/27)

>  <Rbt.Parameter_File>
/export/apps/rDock/src/rDock_2013.1_src/data/scripts/dock_solv.prm

>  <Rbt.Receptor>
prm/blind_docking_80.prm

>  <SCORE>
0.644938

>  <SCORE.INTER>
-1.45813

>  <SCORE.INTER.CONST>
1

>  <SCORE.INTER.POLAR>
-2.72271

>  <SCORE.INTER.ROT>
5

>  <SCORE.INTER.SOLV>
33.873

>  <SCORE.INTER.VDW>
-10.1207

>  <SCORE.INTER.norm>
-0.121511

>  <SCORE.INTRA>
2.10307

>  <SCORE.INTRA.DIHEDRAL>
5.80953

>  <SCORE.INTRA.DIHEDRAL.0>
6.04201

>  <SCORE.INTRA.POLAR>
0

>  <SCORE.INTRA.POLAR.0>
0

>  <SCORE.INTRA.REPUL>
0

>  <SCORE.INTRA.REPUL.0>
0

>  <SCORE.INTRA.SOLV>
0.438038

>  <SCORE.INTRA.SOLV.lig_0>
-71.0481

>  <SCORE.INTRA.VDW>
-1.02072

>  <SCORE.INTRA.VDW.0>
0.968882

>  <SCORE.INTRA.norm>
0.175256

>  <SCORE.RESTR>
0

>  <SCORE.RESTR.CAVITY>
0

>  <SCORE.RESTR.norm>
0

>  <SCORE.SYSTEM>
0

>  <SCORE.SYSTEM.CONST>
0

>  <SCORE.SYSTEM.DIHEDRAL>
0

>  <SCORE.SYSTEM.SOLV>
0

>  <SCORE.SYSTEM.norm>
0

>  <SCORE.heavy>
12

>  <SCORE.norm>
0.0537449

>  <SYMMETRIC_BONDS>
11 12 2
5 6 2

>  <RMSD>
9.483

$$$$
1koc cryst
 OpenBabel11021811393D
libRbt.so/2013.1/901 2013/11/27
 12 11  0  0  0  0  0  0  0  0999 V2000
   -2.0772    1.3632   28.3209 N   0  3  0  0  0  0  0  0  0  0  0  0
   -2.5356    1.7861   26.9630 C   0  0  2  0  0  0  0  0  0  0  0  0
   -3.3615    3.0810   27.0922 C   0  0  0  0  0  0  0  0  0  0  0  0
   -4.4772    3.0021   27.5842 O   0  5  0  0  0  0  0  0  0  0  0  0
   -3.3855    0.6483   26.3359 C   0  0  0  0  0  0  0  0  0  0  0  0
   -2.6360   -0.6885   26.3802 C   0  0  0  0  0  0  0  0  0  0  0  0
   -3.1937   -1.5508   27.5074 C   0  0  0  0  0  0  0  0  0  0  0  0
   -4.2446   -2.4658   26.9739 N   0  0  0  0  0  0  0  0  0  0  0  0
   -4.7106   -3.4415   27.7159 C   0  0  0  0  0  0  0  0  0  0  0  0
   -4.8646   -3.2755   29.0061 N   0  0  0  0  0  0  0  0  0  0  0  0
   -5.0280   -4.5840   27.1655 N   0  3  0  0  0  0  0  0  0  0  0  0
   -2.8717    4.1252   26.6883 O   0  0  0  0  0  0  0  0  0  0  0  0
  2  1  1  1  0  0  0
  2  5  1  0  0  0  0
  2  3  1  0  0  0  0
  3  4  1  0  0  0  0
  3 12  2  0  0  0  0
  5  6  1  0  0  0  0
  6  7  1  0  0  0  0
  7  8  1  0  0  0  0
  8  9  1  0  0  0  0
  9 10  1  0  0  0  0
  9 11  2  0  0  0  0
M  CHG  3   1   1   4  -1  11   1
M  END
>  <CHROM.1>
-18.22175995,-52.15550362,-72.07982173,102.83553425,94.26687159,169.11761664
-3.62318236,-0.17129291,27.34341829,-1.25010903,-0.76052420,-2.99919044

>  <Name>
1koc cryst

>  <RI>
0

>  <Rbt.Current_Directory>
/home/itssahil/PROJECTS/Mol_Feturizer/New_Systems/rnas/1koc

>  <Rbt.Executable>
rbdock ($Id: //depot/dev/client3/rdock/2013.1/src/exe/rbdock.cxx#4 $)

>  <Rbt.Library>
libRbt.so (2013.1, Build901 2013/11/27)

>  <Rbt.Parameter_File>
/export/apps/rDock/src/rDock_2013.1_src/data/scripts/dock_solv.prm

>  <Rbt.Receptor>
prm/blind_docking_80.prm

>  <SCORE>
4.63385

>  <SCORE.INTER>
0.568838

>  <SCORE.INTER.CONST>
1

>  <SCORE.INTER.POLAR>
-3.99052

>  <SCORE.INTER.ROT>
5

>  <SCORE.INTER.SOLV>
31.3349

>  <SCORE.INTER.VDW>
-3.69735

>  <SCORE.INTER.norm>
0.0474031

>  <SCORE.INTRA>
4.06501

>  <SCORE.INTRA.DIHEDRAL>
8.79869

>  <SCORE.INTRA.DIHEDRAL.0>
6.04201

>  <SCORE.INTRA.POLAR>
0

>  <SCORE.INTRA.POLAR.0>
0

>  <SCORE.INTRA.REPUL>
0

>  <SCORE.INTRA.REPUL.0>
0

>  <SCORE.INTRA.SOLV>
0.187685

>  <SCORE.INTRA.SOLV.lig_0>
-71.0481

>  <SCORE.INTRA.VDW>
-0.428179

>  <SCORE.INTRA.VDW.0>
0.968882

>  <SCORE.INTRA.norm>
0.338751

>  <SCORE.RESTR>
0

>  <SCORE.RESTR.CAVITY>
0

>  <SCORE.RESTR.norm>
0

>  <SCORE.SYSTEM>
0

>  <SCORE.SYSTEM.CONST>
0

>  <SCORE.SYSTEM.DIHEDRAL>
0

>  <SCORE.SYSTEM.SOLV>
0

>  <SCORE.SYSTEM.norm>
0

>  <SCORE.heavy>
12

>  <SCORE.norm>
0.386154

>  <SYMMETRIC_BONDS>
11 12 2
5 6 2

>  <RMSD>
9.484

$$$$
1koc cryst
 OpenBabel11021811393D
libRbt.so/2013.1/901 2013/11/27
 12 11  0  0  0  0  0  0  0  0999 V2000
   -3.0441    0.3043   26.0945 N   0  3  0  0  0  0  0  0  0  0  0  0
   -2.7692   -0.0051   27.5303 C   0  0  2  0  0  0  0  0  0  0  0  0
   -3.4947   -1.3106   27.9108 C   0  0  0  0  0  0  0  0  0  0  0  0
   -3.3291   -1.7501   29.0388 O   0  5  0  0  0  0  0  0  0  0  0  0
   -3.2609    1.1770   28.4085 C   0  0  0  0  0  0  0  0  0  0  0  0
   -2.6960    1.0800   29.8305 C   0  0  0  0  0  0  0  0  0  0  0  0
   -3.0777    2.3279   30.6191 C   0  0  0  0  0  0  0  0  0  0  0  0
   -4.3637    2.0988   31.3403 N   0  0  0  0  0  0  0  0  0  0  0  0
   -5.4383    2.7721   31.0062 C   0  0  0  0  0  0  0  0  0  0  0  0
   -5.6676    3.0713   29.7516 N   0  0  0  0  0  0  0  0  0  0  0  0
   -6.2879    3.1424   31.9281 N   0  3  0  0  0  0  0  0  0  0  0  0
   -4.1926   -1.8543   27.0678 O   0  0  0  0  0  0  0  0  0  0  0  0
  2  1  1  6  0  0  0
  2  5  1  0  0  0  0
  2  3  1  0  0  0  0
  3  4  1  0  0  0  0
  3 12  2  0  0  0  0
  5  6  1  0  0  0  0
  6  7  1  0  0  0  0
  7  8  1  0  0  0  0
  8  9  1  0  0  0  0
  9 10  1  0  0  0  0
  9 11  2  0  0  0  0
M  CHG  3   1   1   4  -1  11   1
M  END
>  <CHROM.1>
-173.99931010,-165.69445799,176.66521160,174.09176739,91.69869283,-113.36902810
-3.99750437,0.91574646,29.18127951,0.15566313,1.21650116,-0.93895598

>  <Name>
1koc cryst

>  <RI>
0

>  <Rbt.Current_Directory>
/home/itssahil/PROJECTS/Mol_Feturizer/New_Systems/rnas/1koc

>  <Rbt.Executable>
rbdock ($Id: //depot/dev/client3/rdock/2013.1/src/exe/rbdock.cxx#4 $)

>  <Rbt.Library>
libRbt.so (2013.1, Build901 2013/11/27)

>  <Rbt.Parameter_File>
/export/apps/rDock/src/rDock_2013.1_src/data/scripts/dock_solv.prm

>  <Rbt.Receptor>
prm/blind_docking_100.prm

>  <SCORE>
-19.7486

>  <SCORE.INTER>
-18.8062

>  <SCORE.INTER.CONST>
1

>  <SCORE.INTER.POLAR>
-2.95575

>  <SCORE.INTER.ROT>
5

>  <SCORE.INTER.SOLV>
28.7764

>  <SCORE.INTER.VDW>
-19.2104

>  <SCORE.INTER.norm>
-1.56719

>  <SCORE.INTRA>
-0.942403

>  <SCORE.INTRA.DIHEDRAL>
1.3309

>  <SCORE.INTRA.DIHEDRAL.0>
6.04201

>  <SCORE.INTRA.POLAR>
0

>  <SCORE.INTRA.POLAR.0>
0

>  <SCORE.INTRA.REPUL>
0

>  <SCORE.INTRA.REPUL.0>
0

>  <SCORE.INTRA.SOLV>
-0.0976398

>  <SCORE.INTRA.SOLV.lig_0>
-71.0481

>  <SCORE.INTRA.VDW>
-1.55903

>  <SCORE.INTRA.VDW.0>
0.968882

>  <SCORE.INTRA.norm>
-0.0785336

>  <SCORE.RESTR>
0

>  <SCORE.RESTR.CAVITY>
0

>  <SCORE.RESTR.norm>
0

>  <SCORE.SYSTEM>
0

>  <SCORE.SYSTEM.CONST>
0

>  <SCORE.SYSTEM.DIHEDRAL>
0

>  <SCORE.SYSTEM.SOLV>
0

>  <SCORE.SYSTEM.norm>
0

>  <SCORE.heavy>
12

>  <SCORE.norm>
-1.64572

>  <SYMMETRIC_BONDS>
11 12 2
5 6 2

>  <RMSD>
9.531

$$$$
1koc cryst
 OpenBabel11021811393D
libRbt.so/2013.1/901 2013/11/27
 12 11  0  0  0  0  0  0  0  0999 V2000
   -3.1654    2.4604   27.1657 N   0  3  0  0  0  0  0  0  0  0  0  0
   -3.2562    0.9872   27.3989 C   0  0  2  0  0  0  0  0  0  0  0  0
   -2.3246    0.6048   28.5656 C   0  0  0  0  0  0  0  0  0  0  0  0
   -1.4148   -0.1787   28.3389 O   0  5  0  0  0  0  0  0  0  0  0  0
   -2.8505    0.2407   26.0996 C   0  0  0  0  0  0  0  0  0  0  0  0
   -3.7096   -1.0123   25.8922 C   0  0  0  0  0  0  0  0  0  0  0  0
   -3.2315   -2.1205   26.8240 C   0  0  0  0  0  0  0  0  0  0  0  0
   -4.2920   -3.1613   26.9605 N   0  0  0  0  0  0  0  0  0  0  0  0
   -4.6511   -3.5878   28.1474 C   0  0  0  0  0  0  0  0  0  0  0  0
   -4.6921   -2.7610   29.1626 N   0  0  0  0  0  0  0  0  0  0  0  0
   -4.9746   -4.8428   28.3183 N   0  3  0  0  0  0  0  0  0  0  0  0
   -2.5416    1.0907   29.6657 O   0  0  0  0  0  0  0  0  0  0  0  0
  2  1  1  6  0  0  0
  2  5  1  0  0  0  0
  2  3  1  0  0  0  0
  3  4  1  0  0  0  0
  3 12  2  0  0  0  0
  5  6  1  0  0  0  0
  6  7  1  0  0  0  0
  7  8  1  0  0  0  0
  8  9  1  0  0  0  0
  9 10  1  0  0  0  0
  9 11  2  0  0  0  0
M  CHG  3   1   1   4  -1  11   1
M  END
>  <CHROM.1>
-111.35169385,-142.64791197,-119.02171035,-76.79452768,161.82895578,-130.94718126
-3.42854168,-1.00476784,27.73723307,0.30419583,-1.18069580,-1.28315297

>  <Name>
1koc cryst

>  <RI>
0

>  <Rbt.Current_Directory>
/home/itssahil/PROJECTS/Mol_Feturizer/New_Systems/rnas/1koc

>  <Rbt.Executable>
rbdock ($Id: //depot/dev/client3/rdock/2013.1/src/exe/rbdock.cxx#4 $)

>  <Rbt.Library>
libRbt.so (2013.1, Build901 2013/11/27)

>  <Rbt.Parameter_File>
/export/apps/rDock/src/rDock_2013.1_src/data/scripts/dock_solv.prm

>  <Rbt.Receptor>
prm/blind_docking_40.prm

>  <SCORE>
1.41705

>  <SCORE.INTER>
-1.54395

>  <SCORE.INTER.CONST>
1

>  <SCORE.INTER.POLAR>
-2.64932

>  <SCORE.INTER.ROT>
5

>  <SCORE.INTER.SOLV>
33.309

>  <SCORE.INTER.VDW>
-10.2346

>  <SCORE.INTER.norm>
-0.128662

>  <SCORE.INTRA>
2.961

>  <SCORE.INTRA.DIHEDRAL>
6.60707

>  <SCORE.INTRA.DIHEDRAL.0>
6.04201

>  <SCORE.INTRA.POLAR>
0

>  <SCORE.INTRA.POLAR.0>
0

>  <SCORE.INTRA.REPUL>
0

>  <SCORE.INTRA.REPUL.0>
0

>  <SCORE.INTRA.SOLV>
0.599816

>  <SCORE.INTRA.SOLV.lig_0>
-71.0481

>  <SCORE.INTRA.VDW>
-0.642439

>  <SCORE.INTRA.VDW.0>
0.968882

>  <SCORE.INTRA.norm>
0.24675

>  <SCORE.RESTR>
0

>  <SCORE.RESTR.CAVITY>
0

>  <SCORE.RESTR.norm>
0

>  <SCORE.SYSTEM>
0

>  <SCORE.SYSTEM.CONST>
0

>  <SCORE.SYSTEM.DIHEDRAL>
0

>  <SCORE.SYSTEM.SOLV>
0

>  <SCORE.SYSTEM.norm>
0

>  <SCORE.heavy>
12

>  <SCORE.norm>
0.118088

>  <SYMMETRIC_BONDS>
11 12 2
5 6 2

>  <RMSD>
9.531

$$$$
1koc cryst
 OpenBabel11021811393D
libRbt.so/2013.1/901 2013/11/27
 12 11  0  0  0  0  0  0  0  0999 V2000
   -3.7217    1.1627   30.1624 N   0  3  0  0  0  0  0  0  0  0  0  0
   -3.5850    2.3897   29.3208 C   0  0  2  0  0  0  0  0  0  0  0  0
   -4.8998    3.1914   29.3838 C   0  0  0  0  0  0  0  0  0  0  0  0
   -5.2339    3.8225   28.3922 O   0  5  0  0  0  0  0  0  0  0  0  0
   -3.2614    1.9717   27.8610 C   0  0  0  0  0  0  0  0  0  0  0  0
   -3.0058    0.4631   27.7630 C   0  0  0  0  0  0  0  0  0  0  0  0
   -3.0974    0.0221   26.3063 C   0  0  0  0  0  0  0  0  0  0  0  0
   -3.2544   -1.4600   26.2338 N   0  0  0  0  0  0  0  0  0  0  0  0
   -4.2430   -1.9877   25.5527 C   0  0  0  0  0  0  0  0  0  0  0  0
   -4.6482   -1.4325   24.4376 N   0  0  0  0  0  0  0  0  0  0  0  0
   -4.8241   -3.0759   25.9852 N   0  3  0  0  0  0  0  0  0  0  0  0
   -5.5437    3.1707   30.4222 O   0  0  0  0  0  0  0  0  0  0  0  0
  2  1  1  1  0  0  0
  2  5  1  0  0  0  0
  2  3  1  0  0  0  0
  3  4  1  0  0  0  0
  3 12  2  0  0  0  0
  5  6  1  0  0  0  0
  6  7  1  0  0  0  0
  7  8  1  0  0  0  0
  8  9  1  0  0  0  0
  9 10  1  0  0  0  0
  9 11  2  0  0  0  0
M  CHG  3   1   1   4  -1  11   1
M  END
>  <CHROM.1>
-59.16586976,-7.21033110,-147.38471715,163.53835477,-163.35777529,126.79518346
-4.13507883,0.66049902,27.66826859,-1.71229039,1.01495397,-2.33087184

>  <Name>
1koc cryst

>  <RI>
0

>  <Rbt.Current_Directory>
/home/itssahil/PROJECTS/Mol_Feturizer/New_Systems/rnas/1koc

>  <Rbt.Executable>
rbdock ($Id: //depot/dev/client3/rdock/2013.1/src/exe/rbdock.cxx#4 $)

>  <Rbt.Library>
libRbt.so (2013.1, Build901 2013/11/27)

>  <Rbt.Parameter_File>
/export/apps/rDock/src/rDock_2013.1_src/data/scripts/dock_solv.prm

>  <Rbt.Receptor>
prm/blind_docking_80.prm

>  <SCORE>
-10.9057

>  <SCORE.INTER>
-14.8176

>  <SCORE.INTER.CONST>
1

>  <SCORE.INTER.POLAR>
-2.35757

>  <SCORE.INTER.ROT>
5

>  <SCORE.INTER.SOLV>
29.5453

>  <SCORE.INTER.VDW>
-18.8016

>  <SCORE.INTER.norm>
-1.2348

>  <SCORE.INTRA>
3.91189

>  <SCORE.INTRA.DIHEDRAL>
4.39899

>  <SCORE.INTRA.DIHEDRAL.0>
6.04201

>  <SCORE.INTRA.POLAR>
0

>  <SCORE.INTRA.POLAR.0>
0

>  <SCORE.INTRA.REPUL>
0

>  <SCORE.INTRA.REPUL.0>
0

>  <SCORE.INTRA.SOLV>
-0.000518032

>  <SCORE.INTRA.SOLV.lig_0>
-71.0481

>  <SCORE.INTRA.VDW>
1.71265

>  <SCORE.INTRA.VDW.0>
0.968882

>  <SCORE.INTRA.norm>
0.325991

>  <SCORE.RESTR>
0

>  <SCORE.RESTR.CAVITY>
0

>  <SCORE.RESTR.norm>
0

>  <SCORE.SYSTEM>
0

>  <SCORE.SYSTEM.CONST>
0

>  <SCORE.SYSTEM.DIHEDRAL>
0

>  <SCORE.SYSTEM.SOLV>
0

>  <SCORE.SYSTEM.norm>
0

>  <SCORE.heavy>
12

>  <SCORE.norm>
-0.908808

>  <SYMMETRIC_BONDS>
11 12 2
5 6 2

>  <RMSD>
9.548

$$$$
1koc cryst
 OpenBabel11021811393D
libRbt.so/2013.1/901 2013/11/27
 12 11  0  0  0  0  0  0  0  0999 V2000
   -2.6247    1.7167   29.9496 N   0  3  0  0  0  0  0  0  0  0  0  0
   -2.4010    1.8260   28.4762 C   0  0  2  0  0  0  0  0  0  0  0  0
   -3.6371    2.4790   27.8274 C   0  0  0  0  0  0  0  0  0  0  0  0
   -3.6343    2.6315   26.6150 O   0  5  0  0  0  0  0  0  0  0  0  0
   -2.1537    0.4088   27.8928 C   0  0  0  0  0  0  0  0  0  0  0  0
   -3.4135   -0.4587   27.9985 C   0  0  0  0  0  0  0  0  0  0  0  0
   -3.1597   -1.8119   27.3432 C   0  0  0  0  0  0  0  0  0  0  0  0
   -4.4587   -2.4702   27.0187 N   0  0  0  0  0  0  0  0  0  0  0  0
   -4.6615   -3.7260   27.3374 C   0  0  0  0  0  0  0  0  0  0  0  0
   -4.1699   -4.2136   28.4494 N   0  0  0  0  0  0  0  0  0  0  0  0
   -5.3615   -4.4944   26.5447 N   0  3  0  0  0  0  0  0  0  0  0  0
   -4.5586    2.8252   28.5514 O   0  0  0  0  0  0  0  0  0  0  0  0
  2  1  1  1  0  0  0
  2  5  1  0  0  0  0
  2  3  1  0  0  0  0
  3  4  1  0  0  0  0
  3 12  2  0  0  0  0
  5  6  1  0  0  0  0
  6  7  1  0  0  0  0
  7  8  1  0  0  0  0
  8  9  1  0  0  0  0
  9 10  1  0  0  0  0
  9 11  2  0  0  0  0
M  CHG  3   1   1   4  -1  11   1
M  END
>  <CHROM.1>
64.22039691,66.58636656,-179.05965334,176.67699629,-160.66380713,-132.45499491
-3.70879165,-0.44478704,27.85867365,-1.21424085,0.93670308,3.01028047

>  <Name>
1koc cryst

>  <RI>
0

>  <Rbt.Current_Directory>
/home/itssahil/PROJECTS/Mol_Feturizer/New_Systems/rnas/1koc

>  <Rbt.Executable>
rbdock ($Id: //depot/dev/client3/rdock/2013.1/src/exe/rbdock.cxx#4 $)

>  <Rbt.Library>
libRbt.so (2013.1, Build901 2013/11/27)

>  <Rbt.Parameter_File>
/export/apps/rDock/src/rDock_2013.1_src/data/scripts/dock_solv.prm

>  <Rbt.Receptor>
prm/blind_docking_80.prm

>  <SCORE>
0.959324

>  <SCORE.INTER>
2.35983

>  <SCORE.INTER.CONST>
1

>  <SCORE.INTER.POLAR>
-2.505

>  <SCORE.INTER.ROT>
5

>  <SCORE.INTER.SOLV>
29.3571

>  <SCORE.INTER.VDW>
-6.79582

>  <SCORE.INTER.norm>
0.196652

>  <SCORE.INTRA>
-1.75581

>  <SCORE.INTRA.DIHEDRAL>
-1.06548

>  <SCORE.INTRA.DIHEDRAL.0>
6.04201

>  <SCORE.INTRA.POLAR>
0

>  <SCORE.INTRA.POLAR.0>
0

>  <SCORE.INTRA.REPUL>
0

>  <SCORE.INTRA.REPUL.0>
0

>  <SCORE.INTRA.SOLV>
0.233803

>  <SCORE.INTRA.SOLV.lig_0>
-71.0481

>  <SCORE.INTRA.VDW>
-1.33997

>  <SCORE.INTRA.VDW.0>
0.968882

>  <SCORE.INTRA.norm>
-0.146318

>  <SCORE.RESTR>
0.355307

>  <SCORE.RESTR.CAVITY>
0.355307

>  <SCORE.RESTR.norm>
0.0296089

>  <SCORE.SYSTEM>
0

>  <SCORE.SYSTEM.CONST>
0

>  <SCORE.SYSTEM.DIHEDRAL>
0

>  <SCORE.SYSTEM.SOLV>
0

>  <SCORE.SYSTEM.norm>
0

>  <SCORE.heavy>
12

>  <SCORE.norm>
0.0799437

>  <SYMMETRIC_BONDS>
11 12 2
5 6 2

>  <RMSD>
9.554

$$$$
1koc cryst
 OpenBabel11021811393D
libRbt.so/2013.1/901 2013/11/27
 12 11  0  0  0  0  0  0  0  0999 V2000
   -3.8682    1.5433   29.9263 N   0  3  0  0  0  0  0  0  0  0  0  0
   -2.7374    1.5765   28.9501 C   0  0  2  0  0  0  0  0  0  0  0  0
   -3.1535    2.4178   27.7276 C   0  0  0  0  0  0  0  0  0  0  0  0
   -4.3390    2.4537   27.4337 O   0  5  0  0  0  0  0  0  0  0  0  0
   -2.3868    0.1240   28.5284 C   0  0  0  0  0  0  0  0  0  0  0  0
   -3.4318   -0.4355   27.5559 C   0  0  0  0  0  0  0  0  0  0  0  0
   -3.1945   -1.9279   27.3526 C   0  0  0  0  0  0  0  0  0  0  0  0
   -4.4851   -2.6093   27.0422 N   0  0  0  0  0  0  0  0  0  0  0  0
   -4.6804   -3.8536   27.4071 C   0  0  0  0  0  0  0  0  0  0  0  0
   -4.1952   -4.2939   28.5415 N   0  0  0  0  0  0  0  0  0  0  0  0
   -5.3668   -4.6578   26.6384 N   0  3  0  0  0  0  0  0  0  0  0  0
   -2.2823    3.0014   27.1003 O   0  0  0  0  0  0  0  0  0  0  0  0
  2  1  1  1  0  0  0
  2  5  1  0  0  0  0
  2  3  1  0  0  0  0
  3  4  1  0  0  0  0
  3 12  2  0  0  0  0
  5  6  1  0  0  0  0
  6  7  1  0  0  0  0
  7  8  1  0  0  0  0
  8  9  1  0  0  0  0
  9 10  1  0  0  0  0
  9 11  2  0  0  0  0
M  CHG  3   1   1   4  -1  11   1
M  END
>  <CHROM.1>
-173.51160314,75.05811008,-29.16099496,-170.27824668,150.89483729,-149.11517828
-3.71074978,-0.55746371,27.86515507,-0.61023161,1.28114901,2.31817460

>  <Name>
1koc cryst

>  <RI>
0

>  <Rbt.Current_Directory>
/home/itssahil/PROJECTS/Mol_Feturizer/New_Systems/rnas/1koc

>  <Rbt.Executable>
rbdock ($Id: //depot/dev/client3/rdock/2013.1/src/exe/rbdock.cxx#4 $)

>  <Rbt.Library>
libRbt.so (2013.1, Build901 2013/11/27)

>  <Rbt.Parameter_File>
/export/apps/rDock/src/rDock_2013.1_src/data/scripts/dock_solv.prm

>  <Rbt.Receptor>
prm/blind_docking_40.prm

>  <SCORE>
-10.6168

>  <SCORE.INTER>
-10.4059

>  <SCORE.INTER.CONST>
1

>  <SCORE.INTER.POLAR>
-5.18902

>  <SCORE.INTER.ROT>
5

>  <SCORE.INTER.SOLV>
33.2681

>  <SCORE.INTER.VDW>
-7.66324

>  <SCORE.INTER.norm>
-0.86716

>  <SCORE.INTRA>
-0.539221

>  <SCORE.INTRA.DIHEDRAL>
1.26334

>  <SCORE.INTRA.DIHEDRAL.0>
6.04201

>  <SCORE.INTRA.POLAR>
0

>  <SCORE.INTRA.POLAR.0>
0

>  <SCORE.INTRA.REPUL>
0

>  <SCORE.INTRA.REPUL.0>
0

>  <SCORE.INTRA.SOLV>
0.0935923

>  <SCORE.INTRA.SOLV.lig_0>
-71.0481

>  <SCORE.INTRA.VDW>
-1.21769

>  <SCORE.INTRA.VDW.0>
0.968882

>  <SCORE.INTRA.norm>
-0.0449351

>  <SCORE.RESTR>
0.328291

>  <SCORE.RESTR.CAVITY>
0.328291

>  <SCORE.RESTR.norm>
0.0273576

>  <SCORE.SYSTEM>
0

>  <SCORE.SYSTEM.CONST>
0

>  <SCORE.SYSTEM.DIHEDRAL>
0

>  <SCORE.SYSTEM.SOLV>
0

>  <SCORE.SYSTEM.norm>
0

>  <SCORE.heavy>
12

>  <SCORE.norm>
-0.884737

>  <SYMMETRIC_BONDS>
11 12 2
5 6 2

>  <RMSD>
9.570

$$$$
1koc cryst
 OpenBabel11021811393D
libRbt.so/2013.1/901 2013/11/27
 12 11  0  0  0  0  0  0  0  0999 V2000
   -2.9353    0.2508   26.1799 N   0  3  0  0  0  0  0  0  0  0  0  0
   -2.7394   -0.0029   27.6394 C   0  0  2  0  0  0  0  0  0  0  0  0
   -3.4252   -1.3310   28.0151 C   0  0  0  0  0  0  0  0  0  0  0  0
   -3.2889   -1.7430   29.1573 O   0  5  0  0  0  0  0  0  0  0  0  0
   -3.3422    1.1785   28.4463 C   0  0  0  0  0  0  0  0  0  0  0  0
   -2.5710    1.4051   29.7520 C   0  0  0  0  0  0  0  0  0  0  0  0
   -3.5445    1.7859   30.8620 C   0  0  0  0  0  0  0  0  0  0  0  0
   -4.3991    2.9258   30.4184 N   0  0  0  0  0  0  0  0  0  0  0  0
   -5.6709    2.9614   30.7360 C   0  0  0  0  0  0  0  0  0  0  0  0
   -6.0744    2.5168   31.9002 N   0  0  0  0  0  0  0  0  0  0  0  0
   -6.5404    3.4474   29.8894 N   0  3  0  0  0  0  0  0  0  0  0  0
   -4.0641   -1.9186   27.1549 O   0  0  0  0  0  0  0  0  0  0  0  0
  2  1  1  6  0  0  0
  2  5  1  0  0  0  0
  2  3  1  0  0  0  0
  3  4  1  0  0  0  0
  3 12  2  0  0  0  0
  5  6  1  0  0  0  0
  6  7  1  0  0  0  0
  7  8  1  0  0  0  0
  8  9  1  0  0  0  0
  9 10  1  0  0  0  0
  9 11  2  0  0  0  0
M  CHG  3   1   1   4  -1  11   1
M  END
>  <CHROM.1>
-177.75790446,-148.88698866,175.16189005,-142.31823649,-52.23613949,140.97040751
-4.07573873,0.95288554,29.14786284,0.10713282,1.14543546,-0.96319491

>  <Name>
1koc cryst

>  <RI>
0

>  <Rbt.Current_Directory>
/home/itssahil/PROJECTS/Mol_Feturizer/New_Systems/rnas/1koc

>  <Rbt.Executable>
rbdock ($Id: //depot/dev/client3/rdock/2013.1/src/exe/rbdock.cxx#4 $)

>  <Rbt.Library>
libRbt.so (2013.1, Build901 2013/11/27)

>  <Rbt.Parameter_File>
/export/apps/rDock/src/rDock_2013.1_src/data/scripts/dock_solv.prm

>  <Rbt.Receptor>
prm/blind_docking_80.prm

>  <SCORE>
-20.2544

>  <SCORE.INTER>
-20.543

>  <SCORE.INTER.CONST>
1

>  <SCORE.INTER.POLAR>
-3.49731

>  <SCORE.INTER.ROT>
5

>  <SCORE.INTER.SOLV>
28.2749

>  <SCORE.INTER.VDW>
-18.3959

>  <SCORE.INTER.norm>
-1.71192

>  <SCORE.INTRA>
0.288612

>  <SCORE.INTRA.DIHEDRAL>
4.62138

>  <SCORE.INTRA.DIHEDRAL.0>
6.04201

>  <SCORE.INTRA.POLAR>
0

>  <SCORE.INTRA.POLAR.0>
0

>  <SCORE.INTRA.REPUL>
0

>  <SCORE.INTRA.REPUL.0>
0

>  <SCORE.INTRA.SOLV>
-0.560049

>  <SCORE.INTRA.SOLV.lig_0>
-71.0481

>  <SCORE.INTRA.VDW>
-1.74206

>  <SCORE.INTRA.VDW.0>
0.968882

>  <SCORE.INTRA.norm>
0.024051

>  <SCORE.RESTR>
0

>  <SCORE.RESTR.CAVITY>
0

>  <SCORE.RESTR.norm>
0

>  <SCORE.SYSTEM>
0

>  <SCORE.SYSTEM.CONST>
0

>  <SCORE.SYSTEM.DIHEDRAL>
0

>  <SCORE.SYSTEM.SOLV>
0

>  <SCORE.SYSTEM.norm>
0

>  <SCORE.heavy>
12

>  <SCORE.norm>
-1.68787

>  <SYMMETRIC_BONDS>
11 12 2
5 6 2

>  <RMSD>
9.591

$$$$
1koc cryst
 OpenBabel11021811393D
libRbt.so/2013.1/901 2013/11/27
 12 11  0  0  0  0  0  0  0  0999 V2000
   -2.6793    0.9822   27.0766 N   0  3  0  0  0  0  0  0  0  0  0  0
   -2.7333   -0.0401   28.1652 C   0  0  2  0  0  0  0  0  0  0  0  0
   -3.2934   -1.3562   27.5912 C   0  0  0  0  0  0  0  0  0  0  0  0
   -3.3081   -1.4910   26.3768 O   0  5  0  0  0  0  0  0  0  0  0  0
   -3.6323    0.4886   29.3152 C   0  0  0  0  0  0  0  0  0  0  0  0
   -3.0808    1.7994   29.8884 C   0  0  0  0  0  0  0  0  0  0  0  0
   -3.5630    1.9731   31.3244 C   0  0  0  0  0  0  0  0  0  0  0  0
   -5.0364    2.2083   31.3399 N   0  0  0  0  0  0  0  0  0  0  0  0
   -5.5635    3.0442   32.2020 C   0  0  0  0  0  0  0  0  0  0  0  0
   -4.9250    4.1374   32.5383 N   0  0  0  0  0  0  0  0  0  0  0  0
   -6.7340    2.7886   32.7249 N   0  3  0  0  0  0  0  0  0  0  0  0
   -3.7075   -2.2006   28.3714 O   0  0  0  0  0  0  0  0  0  0  0  0
  2  1  1  6  0  0  0
  2  5  1  0  0  0  0
  2  3  1  0  0  0  0
  3  4  1  0  0  0  0
  3 12  2  0  0  0  0
  5  6  1  0  0  0  0
  6  7  1  0  0  0  0
  7  8  1  0  0  0  0
  8  9  1  0  0  0  0
  9 10  1  0  0  0  0
  9 11  2  0  0  0  0
M  CHG  3   1   1   4  -1  11   1
M  END
>  <CHROM.1>
-66.98053941,-59.80667760,16.45365029,-155.35235970,-68.08354511,-142.86507243
-4.03725408,1.03979507,29.72007062,-1.09543951,0.75025710,0.53790231

>  <Name>
1koc cryst

>  <RI>
0

>  <Rbt.Current_Directory>
/home/itssahil/PROJECTS/Mol_Feturizer/New_Systems/rnas/1koc

>  <Rbt.Executable>
rbdock ($Id: //depot/dev/client3/rdock/2013.1/src/exe/rbdock.cxx#4 $)

>  <Rbt.Library>
libRbt.so (2013.1, Build901 2013/11/27)

>  <Rbt.Parameter_File>
/export/apps/rDock/src/rDock_2013.1_src/data/scripts/dock_solv.prm

>  <Rbt.Receptor>
prm/blind_docking_40.prm

>  <SCORE>
-27.8992

>  <SCORE.INTER>
-26.8138

>  <SCORE.INTER.CONST>
1

>  <SCORE.INTER.POLAR>
-3.94072

>  <SCORE.INTER.ROT>
5

>  <SCORE.INTER.SOLV>
30.7167

>  <SCORE.INTER.VDW>
-21.9124

>  <SCORE.INTER.norm>
-2.23449

>  <SCORE.INTRA>
-1.08535

>  <SCORE.INTRA.DIHEDRAL>
-0.0244861

>  <SCORE.INTRA.DIHEDRAL.0>
6.04201

>  <SCORE.INTRA.POLAR>
0

>  <SCORE.INTRA.POLAR.0>
0

>  <SCORE.INTRA.REPUL>
0

>  <SCORE.INTRA.REPUL.0>
0

>  <SCORE.INTRA.SOLV>
-0.38853

>  <SCORE.INTRA.SOLV.lig_0>
-71.0481

>  <SCORE.INTRA.VDW>
-0.878844

>  <SCORE.INTRA.VDW.0>
0.968882

>  <SCORE.INTRA.norm>
-0.090446

>  <SCORE.RESTR>
0

>  <SCORE.RESTR.CAVITY>
0

>  <SCORE.RESTR.norm>
0

>  <SCORE.SYSTEM>
0

>  <SCORE.SYSTEM.CONST>
0

>  <SCORE.SYSTEM.DIHEDRAL>
0

>  <SCORE.SYSTEM.SOLV>
0

>  <SCORE.SYSTEM.norm>
0

>  <SCORE.heavy>
12

>  <SCORE.norm>
-2.32493

>  <SYMMETRIC_BONDS>
11 12 2
5 6 2

>  <RMSD>
9.608

$$$$
1koc cryst
 OpenBabel11021811393D
libRbt.so/2013.1/901 2013/11/27
 12 11  0  0  0  0  0  0  0  0999 V2000
   -4.2410    2.3049   29.9578 N   0  3  0  0  0  0  0  0  0  0  0  0
   -3.2121    1.8144   28.9915 C   0  0  2  0  0  0  0  0  0  0  0  0
   -3.4209    2.5168   27.6356 C   0  0  0  0  0  0  0  0  0  0  0  0
   -2.4482    3.0243   27.0977 O   0  5  0  0  0  0  0  0  0  0  0  0
   -3.3466    0.2749   28.8434 C   0  0  0  0  0  0  0  0  0  0  0  0
   -2.4837   -0.2456   27.6878 C   0  0  0  0  0  0  0  0  0  0  0  0
   -3.3278   -0.3418   26.4217 C   0  0  0  0  0  0  0  0  0  0  0  0
   -3.5713   -1.7741   26.0818 N   0  0  0  0  0  0  0  0  0  0  0  0
   -4.5214   -2.1016   25.2394 C   0  0  0  0  0  0  0  0  0  0  0  0
   -4.7812   -1.3387   24.2066 N   0  0  0  0  0  0  0  0  0  0  0  0
   -5.2098   -3.1969   25.4274 N   0  3  0  0  0  0  0  0  0  0  0  0
   -4.5477    2.5458   27.1638 O   0  0  0  0  0  0  0  0  0  0  0  0
  2  1  1  1  0  0  0
  2  5  1  0  0  0  0
  2  3  1  0  0  0  0
  3  4  1  0  0  0  0
  3 12  2  0  0  0  0
  5  6  1  0  0  0  0
  6  7  1  0  0  0  0
  7  8  1  0  0  0  0
  8  9  1  0  0  0  0
  9 10  1  0  0  0  0
  9 11  2  0  0  0  0
M  CHG  3   1   1   4  -1  11   1
M  END
>  <CHROM.1>
75.41694813,170.10831314,130.61147112,-94.50313543,-109.21361454,163.54905682
-3.79205618,0.30052267,27.06298032,-0.21660846,1.37830756,2.42256536

>  <Name>
1koc cryst

>  <RI>
0

>  <Rbt.Current_Directory>
/home/itssahil/PROJECTS/Mol_Feturizer/New_Systems/rnas/1koc

>  <Rbt.Executable>
rbdock ($Id: //depot/dev/client3/rdock/2013.1/src/exe/rbdock.cxx#4 $)

>  <Rbt.Library>
libRbt.so (2013.1, Build901 2013/11/27)

>  <Rbt.Parameter_File>
/export/apps/rDock/src/rDock_2013.1_src/data/scripts/dock_solv.prm

>  <Rbt.Receptor>
prm/blind_docking_60.prm

>  <SCORE>
-23.0647

>  <SCORE.INTER>
-25.2043

>  <SCORE.INTER.CONST>
1

>  <SCORE.INTER.POLAR>
-4.33054

>  <SCORE.INTER.ROT>
5

>  <SCORE.INTER.SOLV>
29.5998

>  <SCORE.INTER.VDW>
-19.1677

>  <SCORE.INTER.norm>
-2.10036

>  <SCORE.INTRA>
2.13958

>  <SCORE.INTRA.DIHEDRAL>
7.16909

>  <SCORE.INTRA.DIHEDRAL.0>
6.04201

>  <SCORE.INTRA.POLAR>
0

>  <SCORE.INTRA.POLAR.0>
0

>  <SCORE.INTRA.REPUL>
0

>  <SCORE.INTRA.REPUL.0>
0

>  <SCORE.INTRA.SOLV>
-0.0460683

>  <SCORE.INTRA.SOLV.lig_0>
-71.0481

>  <SCORE.INTRA.VDW>
-1.42193

>  <SCORE.INTRA.VDW.0>
0.968882

>  <SCORE.INTRA.norm>
0.178299

>  <SCORE.RESTR>
0

>  <SCORE.RESTR.CAVITY>
0

>  <SCORE.RESTR.norm>
0

>  <SCORE.SYSTEM>
0

>  <SCORE.SYSTEM.CONST>
0

>  <SCORE.SYSTEM.DIHEDRAL>
0

>  <SCORE.SYSTEM.SOLV>
0

>  <SCORE.SYSTEM.norm>
0

>  <SCORE.heavy>
12

>  <SCORE.norm>
-1.92206

>  <SYMMETRIC_BONDS>
11 12 2
5 6 2

>  <RMSD>
9.620

$$$$
1koc cryst
 OpenBabel11021811393D
libRbt.so/2013.1/901 2013/11/27
 12 11  0  0  0  0  0  0  0  0999 V2000
   -3.0569    2.4149   27.1945 N   0  3  0  0  0  0  0  0  0  0  0  0
   -3.3442    0.9608   27.3841 C   0  0  2  0  0  0  0  0  0  0  0  0
   -2.6278    0.4690   28.6570 C   0  0  0  0  0  0  0  0  0  0  0  0
   -1.7616    1.1834   29.1391 O   0  5  0  0  0  0  0  0  0  0  0  0
   -2.8537    0.1786   26.1360 C   0  0  0  0  0  0  0  0  0  0  0  0
   -3.7250   -1.0572   25.8821 C   0  0  0  0  0  0  0  0  0  0  0  0
   -3.2187   -2.2225   26.7252 C   0  0  0  0  0  0  0  0  0  0  0  0
   -4.3089   -3.2236   26.9139 N   0  0  0  0  0  0  0  0  0  0  0  0
   -4.6413   -3.6200   28.1189 C   0  0  0  0  0  0  0  0  0  0  0  0
   -4.6192   -2.7775   29.1217 N   0  0  0  0  0  0  0  0  0  0  0  0
   -5.0016   -4.8604   28.3203 N   0  3  0  0  0  0  0  0  0  0  0  0
   -2.9473   -0.6153   29.1213 O   0  0  0  0  0  0  0  0  0  0  0  0
  2  1  1  6  0  0  0
  2  5  1  0  0  0  0
  2  3  1  0  0  0  0
  3  4  1  0  0  0  0
  3 12  2  0  0  0  0
  5  6  1  0  0  0  0
  6  7  1  0  0  0  0
  7  8  1  0  0  0  0
  8  9  1  0  0  0  0
  9 10  1  0  0  0  0
  9 11  2  0  0  0  0
M  CHG  3   1   1   4  -1  11   1
M  END
>  <CHROM.1>
137.35498290,-148.88080494,-14.63552536,-85.08541526,157.92239427,-126.53477557
-3.51042272,-1.07918388,27.75360955,0.31056734,-1.19089098,-1.28044915

>  <Name>
1koc cryst

>  <RI>
0

>  <Rbt.Current_Directory>
/home/itssahil/PROJECTS/Mol_Feturizer/New_Systems/rnas/1koc

>  <Rbt.Executable>
rbdock ($Id: //depot/dev/client3/rdock/2013.1/src/exe/rbdock.cxx#4 $)

>  <Rbt.Library>
libRbt.so (2013.1, Build901 2013/11/27)

>  <Rbt.Parameter_File>
/export/apps/rDock/src/rDock_2013.1_src/data/scripts/dock_solv.prm

>  <Rbt.Receptor>
prm/blind_docking_60.prm

>  <SCORE>
-4.2237

>  <SCORE.INTER>
-3.65695

>  <SCORE.INTER.CONST>
1

>  <SCORE.INTER.POLAR>
-3.33832

>  <SCORE.INTER.ROT>
5

>  <SCORE.INTER.SOLV>
32.708

>  <SCORE.INTER.VDW>
-9.14623

>  <SCORE.INTER.norm>
-0.304746

>  <SCORE.INTRA>
-0.566744

>  <SCORE.INTRA.DIHEDRAL>
6.93935

>  <SCORE.INTRA.DIHEDRAL.0>
6.04201

>  <SCORE.INTRA.POLAR>
-1.19475

>  <SCORE.INTRA.POLAR.0>
0

>  <SCORE.INTRA.REPUL>
0

>  <SCORE.INTRA.REPUL.0>
0

>  <SCORE.INTRA.SOLV>
3.32239

>  <SCORE.INTRA.SOLV.lig_0>
-71.0481

>  <SCORE.INTRA.VDW>
-1.63547

>  <SCORE.INTRA.VDW.0>
0.968882

>  <SCORE.INTRA.norm>
-0.0472286

>  <SCORE.RESTR>
0

>  <SCORE.RESTR.CAVITY>
0

>  <SCORE.RESTR.norm>
0

>  <SCORE.SYSTEM>
0

>  <SCORE.SYSTEM.CONST>
0

>  <SCORE.SYSTEM.DIHEDRAL>
0

>  <SCORE.SYSTEM.SOLV>
0

>  <SCORE.SYSTEM.norm>
0

>  <SCORE.heavy>
12

>  <SCORE.norm>
-0.351975

>  <SYMMETRIC_BONDS>
11 12 2
5 6 2

>  <RMSD>
9.630

$$$$
1koc cryst
 OpenBabel11021811393D
libRbt.so/2013.1/901 2013/11/27
 12 11  0  0  0  0  0  0  0  0999 V2000
   -8.6304    2.9779   32.4946 N   0  3  0  0  0  0  0  0  0  0  0  0
   -7.3128    3.6689   32.3562 C   0  0  2  0  0  0  0  0  0  0  0  0
   -7.4486    4.8083   31.3273 C   0  0  0  0  0  0  0  0  0  0  0  0
   -7.0020    5.9059   31.6258 O   0  5  0  0  0  0  0  0  0  0  0  0
   -6.2434    2.6388   31.9029 C   0  0  0  0  0  0  0  0  0  0  0  0
   -4.8312    3.2261   32.0106 C   0  0  0  0  0  0  0  0  0  0  0  0
   -3.8337    2.2864   31.3421 C   0  0  0  0  0  0  0  0  0  0  0  0
   -2.4732    2.8989   31.3538 N   0  0  0  0  0  0  0  0  0  0  0  0
   -1.5038    2.3700   30.6465 C   0  0  0  0  0  0  0  0  0  0  0  0
   -1.7535    1.8395   29.4751 N   0  0  0  0  0  0  0  0  0  0  0  0
   -0.2813    2.3763   31.1096 N   0  3  0  0  0  0  0  0  0  0  0  0
   -8.0049    4.5693   30.2658 O   0  0  0  0  0  0  0  0  0  0  0  0
  2  1  1  6  0  0  0
  2  5  1  0  0  0  0
  2  3  1  0  0  0  0
  3  4  1  0  0  0  0
  3 12  2  0  0  0  0
  5  6  1  0  0  0  0
  6  7  1  0  0  0  0
  7  8  1  0  0  0  0
  8  9  1  0  0  0  0
  9 10  1  0  0  0  0
  9 11  2  0  0  0  0
M  CHG  3   1   1   4  -1  11   1
M  END
>  <CHROM.1>
176.42597635,-168.86715345,132.31814631,-170.48037069,175.82399851,-168.98423288
-4.95767300,3.29685707,31.31629911,2.94945960,0.26612875,-0.44982939

>  <Name>
1koc cryst

>  <RI>
0

>  <Rbt.Current_Directory>
/home/itssahil/PROJECTS/Mol_Feturizer/New_Systems/rnas/1koc

>  <Rbt.Executable>
rbdock ($Id: //depot/dev/client3/rdock/2013.1/src/exe/rbdock.cxx#4 $)

>  <Rbt.Library>
libRbt.so (2013.1, Build901 2013/11/27)

>  <Rbt.Parameter_File>
/export/apps/rDock/src/rDock_2013.1_src/data/scripts/dock_solv.prm

>  <Rbt.Receptor>
prm/blind_docking_80.prm

>  <SCORE>
-26.8496

>  <SCORE.INTER>
-23.4777

>  <SCORE.INTER.CONST>
1

>  <SCORE.INTER.POLAR>
-3.13588

>  <SCORE.INTER.ROT>
5

>  <SCORE.INTER.SOLV>
18.7383

>  <SCORE.INTER.VDW>
-18.3783

>  <SCORE.INTER.norm>
-1.95647

>  <SCORE.INTRA>
-3.51295

>  <SCORE.INTRA.DIHEDRAL>
-1.70491

>  <SCORE.INTRA.DIHEDRAL.0>
6.04201

>  <SCORE.INTRA.POLAR>
0

>  <SCORE.INTRA.POLAR.0>
0

>  <SCORE.INTRA.REPUL>
0

>  <SCORE.INTRA.REPUL.0>
0

>  <SCORE.INTRA.SOLV>
-1.47832

>  <SCORE.INTRA.SOLV.lig_0>
-71.0481

>  <SCORE.INTRA.VDW>
-1.92134

>  <SCORE.INTRA.VDW.0>
0.968882

>  <SCORE.INTRA.norm>
-0.292746

>  <SCORE.RESTR>
0.141012

>  <SCORE.RESTR.CAVITY>
0.141012

>  <SCORE.RESTR.norm>
0.011751

>  <SCORE.SYSTEM>
0

>  <SCORE.SYSTEM.CONST>
0

>  <SCORE.SYSTEM.DIHEDRAL>
0

>  <SCORE.SYSTEM.SOLV>
0

>  <SCORE.SYSTEM.norm>
0

>  <SCORE.heavy>
12

>  <SCORE.norm>
-2.23747

>  <SYMMETRIC_BONDS>
11 12 2
5 6 2

>  <RMSD>
9.635

$$$$
1koc cryst
 OpenBabel11021811393D
libRbt.so/2013.1/901 2013/11/27
 12 11  0  0  0  0  0  0  0  0999 V2000
   -4.4640   -2.7041   26.0571 N   0  3  0  0  0  0  0  0  0  0  0  0
   -3.4625   -1.9917   26.9070 C   0  0  2  0  0  0  0  0  0  0  0  0
   -3.7523   -2.2986   28.3893 C   0  0  0  0  0  0  0  0  0  0  0  0
   -3.1272   -1.6774   29.2357 O   0  5  0  0  0  0  0  0  0  0  0  0
   -3.5533   -0.4668   26.6299 C   0  0  0  0  0  0  0  0  0  0  0  0
   -2.3333    0.2701   27.1951 C   0  0  0  0  0  0  0  0  0  0  0  0
   -2.7354    1.0394   28.4486 C   0  0  0  0  0  0  0  0  0  0  0  0
   -1.5171    1.4363   29.2131 N   0  0  0  0  0  0  0  0  0  0  0  0
   -1.6248    2.1717   30.2935 C   0  0  0  0  0  0  0  0  0  0  0  0
   -2.6385    2.0076   31.1068 N   0  0  0  0  0  0  0  0  0  0  0  0
   -0.7140    3.0697   30.5636 N   0  3  0  0  0  0  0  0  0  0  0  0
   -4.5833   -3.1547   28.6536 O   0  0  0  0  0  0  0  0  0  0  0  0
  2  1  1  6  0  0  0
  2  5  1  0  0  0  0
  2  3  1  0  0  0  0
  3  4  1  0  0  0  0
  3 12  2  0  0  0  0
  5  6  1  0  0  0  0
  6  7  1  0  0  0  0
  7  8  1  0  0  0  0
  8  9  1  0  0  0  0
  9 10  1  0  0  0  0
  9 11  2  0  0  0  0
M  CHG  3   1   1   4  -1  11   1
M  END
>  <CHROM.1>
178.23373828,-165.69952061,-171.74322351,-106.08461098,164.17292443,176.34482011
-2.88995270,-0.20711056,28.57041096,-2.57564350,1.06225318,1.51283620

>  <Name>
1koc cryst

>  <RI>
0

>  <Rbt.Current_Directory>
/home/itssahil/PROJECTS/Mol_Feturizer/New_Systems/rnas/1koc

>  <Rbt.Executable>
rbdock ($Id: //depot/dev/client3/rdock/2013.1/src/exe/rbdock.cxx#4 $)

>  <Rbt.Library>
libRbt.so (2013.1, Build901 2013/11/27)

>  <Rbt.Parameter_File>
/export/apps/rDock/src/rDock_2013.1_src/data/scripts/dock_solv.prm

>  <Rbt.Receptor>
prm/blind_docking_100.prm

>  <SCORE>
-27.7102

>  <SCORE.INTER>
-29.1528

>  <SCORE.INTER.CONST>
1

>  <SCORE.INTER.POLAR>
-5.58064

>  <SCORE.INTER.ROT>
5

>  <SCORE.INTER.SOLV>
36.1001

>  <SCORE.INTER.VDW>
-19.7998

>  <SCORE.INTER.norm>
-2.4294

>  <SCORE.INTRA>
1.44257

>  <SCORE.INTRA.DIHEDRAL>
4.33051

>  <SCORE.INTRA.DIHEDRAL.0>
6.04201

>  <SCORE.INTRA.POLAR>
0

>  <SCORE.INTRA.POLAR.0>
0

>  <SCORE.INTRA.REPUL>
0

>  <SCORE.INTRA.REPUL.0>
0

>  <SCORE.INTRA.SOLV>
0.772342

>  <SCORE.INTRA.SOLV.lig_0>
-71.0481

>  <SCORE.INTRA.VDW>
-1.10886

>  <SCORE.INTRA.VDW.0>
0.968882

>  <SCORE.INTRA.norm>
0.120214

>  <SCORE.RESTR>
0

>  <SCORE.RESTR.CAVITY>
0

>  <SCORE.RESTR.norm>
0

>  <SCORE.SYSTEM>
0

>  <SCORE.SYSTEM.CONST>
0

>  <SCORE.SYSTEM.DIHEDRAL>
0

>  <SCORE.SYSTEM.SOLV>
0

>  <SCORE.SYSTEM.norm>
0

>  <SCORE.heavy>
12

>  <SCORE.norm>
-2.30919

>  <SYMMETRIC_BONDS>
11 12 2
5 6 2

>  <RMSD>
9.671

$$$$
1koc cryst
 OpenBabel11021811393D
libRbt.so/2013.1/901 2013/11/27
 12 11  0  0  0  0  0  0  0  0999 V2000
   -7.9064    2.5859   30.1440 N   0  3  0  0  0  0  0  0  0  0  0  0
   -7.1480    2.8354   31.4071 C   0  0  2  0  0  0  0  0  0  0  0  0
   -7.8276    3.9804   32.1834 C   0  0  0  0  0  0  0  0  0  0  0  0
   -8.3886    3.7063   33.2337 O   0  5  0  0  0  0  0  0  0  0  0  0
   -5.6805    3.2002   31.0556 C   0  0  0  0  0  0  0  0  0  0  0  0
   -4.7760    3.0981   32.2894 C   0  0  0  0  0  0  0  0  0  0  0  0
   -3.3146    3.1015   31.8544 C   0  0  0  0  0  0  0  0  0  0  0  0
   -3.0342    1.9046   31.0087 N   0  0  0  0  0  0  0  0  0  0  0  0
   -1.9300    1.8365   30.3046 C   0  0  0  0  0  0  0  0  0  0  0  0
   -0.8129    2.3312   30.7771 N   0  0  0  0  0  0  0  0  0  0  0  0
   -1.9421    1.2679   29.1275 N   0  3  0  0  0  0  0  0  0  0  0  0
   -7.7863    5.1068   31.7115 O   0  0  0  0  0  0  0  0  0  0  0  0
  2  1  1  6  0  0  0
  2  5  1  0  0  0  0
  2  3  1  0  0  0  0
  3  4  1  0  0  0  0
  3 12  2  0  0  0  0
  5  6  1  0  0  0  0
  6  7  1  0  0  0  0
  7  8  1  0  0  0  0
  8  9  1  0  0  0  0
  9 10  1  0  0  0  0
  9 11  2  0  0  0  0
M  CHG  3   1   1   4  -1  11   1
M  END
>  <CHROM.1>
-175.22041614,-164.78361716,111.29841251,165.34719367,-62.72624313,166.18745677
-5.06174906,2.90487348,31.22644649,2.78442066,-0.12364213,1.01337348

>  <Name>
1koc cryst

>  <RI>
0

>  <Rbt.Current_Directory>
/home/itssahil/PROJECTS/Mol_Feturizer/New_Systems/rnas/1koc

>  <Rbt.Executable>
rbdock ($Id: //depot/dev/client3/rdock/2013.1/src/exe/rbdock.cxx#4 $)

>  <Rbt.Library>
libRbt.so (2013.1, Build901 2013/11/27)

>  <Rbt.Parameter_File>
/export/apps/rDock/src/rDock_2013.1_src/data/scripts/dock_solv.prm

>  <Rbt.Receptor>
prm/blind_docking_80.prm

>  <SCORE>
-27.8354

>  <SCORE.INTER>
-25.0158

>  <SCORE.INTER.CONST>
1

>  <SCORE.INTER.POLAR>
-3.3841

>  <SCORE.INTER.ROT>
5

>  <SCORE.INTER.SOLV>
19.5061

>  <SCORE.INTER.VDW>
-18.8322

>  <SCORE.INTER.norm>
-2.08465

>  <SCORE.INTRA>
-2.81955

>  <SCORE.INTRA.DIHEDRAL>
-0.883481

>  <SCORE.INTRA.DIHEDRAL.0>
6.04201

>  <SCORE.INTRA.POLAR>
0

>  <SCORE.INTRA.POLAR.0>
0

>  <SCORE.INTRA.REPUL>
0

>  <SCORE.INTRA.REPUL.0>
0

>  <SCORE.INTRA.SOLV>
-1.30228

>  <SCORE.INTRA.SOLV.lig_0>
-71.0481

>  <SCORE.INTRA.VDW>
-1.72667

>  <SCORE.INTRA.VDW.0>
0.968882

>  <SCORE.INTRA.norm>
-0.234963

>  <SCORE.RESTR>
0

>  <SCORE.RESTR.CAVITY>
0

>  <SCORE.RESTR.norm>
0

>  <SCORE.SYSTEM>
0

>  <SCORE.SYSTEM.CONST>
0

>  <SCORE.SYSTEM.DIHEDRAL>
0

>  <SCORE.SYSTEM.SOLV>
0

>  <SCORE.SYSTEM.norm>
0

>  <SCORE.heavy>
12

>  <SCORE.norm>
-2.31961

>  <SYMMETRIC_BONDS>
11 12 2
5 6 2

>  <RMSD>
9.687

$$$$
1koc cryst
 OpenBabel11021811393D
libRbt.so/2013.1/901 2013/11/27
 12 11  0  0  0  0  0  0  0  0999 V2000
   -2.3991    1.9634   27.7805 N   0  3  0  0  0  0  0  0  0  0  0  0
   -3.3819    1.1671   28.5759 C   0  0  2  0  0  0  0  0  0  0  0  0
   -3.7092    1.9271   29.8762 C   0  0  0  0  0  0  0  0  0  0  0  0
   -2.7761    2.3337   30.5523 O   0  5  0  0  0  0  0  0  0  0  0  0
   -2.7733   -0.2266   28.8881 C   0  0  0  0  0  0  0  0  0  0  0  0
   -3.5654   -1.3420   28.1957 C   0  0  0  0  0  0  0  0  0  0  0  0
   -3.4143   -1.2143   26.6838 C   0  0  0  0  0  0  0  0  0  0  0  0
   -3.8341   -2.4844   26.0229 N   0  0  0  0  0  0  0  0  0  0  0  0
   -4.8232   -2.4863   25.1618 C   0  0  0  0  0  0  0  0  0  0  0  0
   -4.9947   -1.4729   24.3497 N   0  0  0  0  0  0  0  0  0  0  0  0
   -5.6393   -3.5061   25.1094 N   0  3  0  0  0  0  0  0  0  0  0  0
   -4.8829    2.0800   30.1801 O   0  0  0  0  0  0  0  0  0  0  0  0
  2  1  1  6  0  0  0
  2  5  1  0  0  0  0
  2  3  1  0  0  0  0
  3  4  1  0  0  0  0
  3 12  2  0  0  0  0
  5  6  1  0  0  0  0
  6  7  1  0  0  0  0
  7  8  1  0  0  0  0
  8  9  1  0  0  0  0
  9 10  1  0  0  0  0
  9 11  2  0  0  0  0
M  CHG  3   1   1   4  -1  11   1
M  END
>  <CHROM.1>
-51.89714710,-114.75906699,-49.89832021,66.07069463,163.75795907,119.89683345
-3.84845917,-0.25050412,27.59574927,-1.22958908,-0.82393581,-2.09715938

>  <Name>
1koc cryst

>  <RI>
0

>  <Rbt.Current_Directory>
/home/itssahil/PROJECTS/Mol_Feturizer/New_Systems/rnas/1koc

>  <Rbt.Executable>
rbdock ($Id: //depot/dev/client3/rdock/2013.1/src/exe/rbdock.cxx#4 $)

>  <Rbt.Library>
libRbt.so (2013.1, Build901 2013/11/27)

>  <Rbt.Parameter_File>
/export/apps/rDock/src/rDock_2013.1_src/data/scripts/dock_solv.prm

>  <Rbt.Receptor>
prm/blind_docking_40.prm

>  <SCORE>
-12.9648

>  <SCORE.INTER>
-12.3652

>  <SCORE.INTER.CONST>
1

>  <SCORE.INTER.POLAR>
-1.47611

>  <SCORE.INTER.ROT>
5

>  <SCORE.INTER.SOLV>
31.2194

>  <SCORE.INTER.VDW>
-20.6629

>  <SCORE.INTER.norm>
-1.03043

>  <SCORE.INTRA>
-0.599575

>  <SCORE.INTRA.DIHEDRAL>
3.68405

>  <SCORE.INTRA.DIHEDRAL.0>
6.04201

>  <SCORE.INTRA.POLAR>
0

>  <SCORE.INTRA.POLAR.0>
0

>  <SCORE.INTRA.REPUL>
0

>  <SCORE.INTRA.REPUL.0>
0

>  <SCORE.INTRA.SOLV>
-1.02189

>  <SCORE.INTRA.SOLV.lig_0>
-71.0481

>  <SCORE.INTRA.VDW>
-1.93066

>  <SCORE.INTRA.VDW.0>
0.968882

>  <SCORE.INTRA.norm>
-0.0499646

>  <SCORE.RESTR>
0

>  <SCORE.RESTR.CAVITY>
0

>  <SCORE.RESTR.norm>
0

>  <SCORE.SYSTEM>
0

>  <SCORE.SYSTEM.CONST>
0

>  <SCORE.SYSTEM.DIHEDRAL>
0

>  <SCORE.SYSTEM.SOLV>
0

>  <SCORE.SYSTEM.norm>
0

>  <SCORE.heavy>
12

>  <SCORE.norm>
-1.0804

>  <SYMMETRIC_BONDS>
11 12 2
5 6 2

>  <RMSD>
9.717

$$$$
1koc cryst
 OpenBabel11021811393D
libRbt.so/2013.1/901 2013/11/27
 12 11  0  0  0  0  0  0  0  0999 V2000
   -3.0387    0.0874   25.7953 N   0  3  0  0  0  0  0  0  0  0  0  0
   -3.2178   -1.1483   26.6162 C   0  0  2  0  0  0  0  0  0  0  0  0
   -4.3170   -2.0203   25.9785 C   0  0  0  0  0  0  0  0  0  0  0  0
   -4.6068   -3.0711   26.5306 O   0  5  0  0  0  0  0  0  0  0  0  0
   -3.6029   -0.7449   28.0651 C   0  0  0  0  0  0  0  0  0  0  0  0
   -2.3714   -0.2892   28.8566 C   0  0  0  0  0  0  0  0  0  0  0  0
   -2.5065    1.1885   29.2077 C   0  0  0  0  0  0  0  0  0  0  0  0
   -1.1876    1.7275   29.6503 N   0  0  0  0  0  0  0  0  0  0  0  0
   -1.1286    2.6490   30.5816 C   0  0  0  0  0  0  0  0  0  0  0  0
   -1.9720    2.6310   31.5838 N   0  0  0  0  0  0  0  0  0  0  0  0
   -0.2211    3.5873   30.5130 N   0  3  0  0  0  0  0  0  0  0  0  0
   -4.8417   -1.6306   24.9459 O   0  0  0  0  0  0  0  0  0  0  0  0
  2  1  1  6  0  0  0
  2  5  1  0  0  0  0
  2  3  1  0  0  0  0
  3  4  1  0  0  0  0
  3 12  2  0  0  0  0
  5  6  1  0  0  0  0
  6  7  1  0  0  0  0
  7  8  1  0  0  0  0
  8  9  1  0  0  0  0
  9 10  1  0  0  0  0
  9 11  2  0  0  0  0
M  CHG  3   1   1   4  -1  11   1
M  END
>  <CHROM.1>
-26.51829453,-78.46592677,-179.23751779,114.74645437,-165.19583967,-145.46137739
-2.74607292,0.27292465,28.17624814,-2.44865646,0.97686681,1.58705818

>  <Name>
1koc cryst

>  <RI>
0

>  <Rbt.Current_Directory>
/home/itssahil/PROJECTS/Mol_Feturizer/New_Systems/rnas/1koc

>  <Rbt.Executable>
rbdock ($Id: //depot/dev/client3/rdock/2013.1/src/exe/rbdock.cxx#4 $)

>  <Rbt.Library>
libRbt.so (2013.1, Build901 2013/11/27)

>  <Rbt.Parameter_File>
/export/apps/rDock/src/rDock_2013.1_src/data/scripts/dock_solv.prm

>  <Rbt.Receptor>
prm/blind_docking_80.prm

>  <SCORE>
-19.1077

>  <SCORE.INTER>
-21.0619

>  <SCORE.INTER.CONST>
1

>  <SCORE.INTER.POLAR>
-4.51251

>  <SCORE.INTER.ROT>
5

>  <SCORE.INTER.SOLV>
35.0571

>  <SCORE.INTER.VDW>
-17.6186

>  <SCORE.INTER.norm>
-1.75516

>  <SCORE.INTRA>
1.95428

>  <SCORE.INTRA.DIHEDRAL>
7.41853

>  <SCORE.INTRA.DIHEDRAL.0>
6.04201

>  <SCORE.INTRA.POLAR>
0

>  <SCORE.INTRA.POLAR.0>
0

>  <SCORE.INTRA.REPUL>
0

>  <SCORE.INTRA.REPUL.0>
0

>  <SCORE.INTRA.SOLV>
-0.415196

>  <SCORE.INTRA.SOLV.lig_0>
-71.0481

>  <SCORE.INTRA.VDW>
-1.54738

>  <SCORE.INTRA.VDW.0>
0.968882

>  <SCORE.INTRA.norm>
0.162857

>  <SCORE.RESTR>
0

>  <SCORE.RESTR.CAVITY>
0

>  <SCORE.RESTR.norm>
0

>  <SCORE.SYSTEM>
0

>  <SCORE.SYSTEM.CONST>
0

>  <SCORE.SYSTEM.DIHEDRAL>
0

>  <SCORE.SYSTEM.SOLV>
0

>  <SCORE.SYSTEM.norm>
0

>  <SCORE.heavy>
12

>  <SCORE.norm>
-1.5923

>  <SYMMETRIC_BONDS>
11 12 2
5 6 2

>  <RMSD>
9.727

$$$$
1koc cryst
 OpenBabel11021811393D
libRbt.so/2013.1/901 2013/11/27
 12 11  0  0  0  0  0  0  0  0999 V2000
   -2.0194    1.6092   27.4815 N   0  3  0  0  0  0  0  0  0  0  0  0
   -3.2916    1.1570   28.1217 C   0  0  2  0  0  0  0  0  0  0  0  0
   -3.4224    1.8235   29.5052 C   0  0  0  0  0  0  0  0  0  0  0  0
   -4.5290    2.2067   29.8540 O   0  5  0  0  0  0  0  0  0  0  0  0
   -3.2733   -0.3899   28.2524 C   0  0  0  0  0  0  0  0  0  0  0  0
   -3.2988   -1.0603   26.8738 C   0  0  0  0  0  0  0  0  0  0  0  0
   -3.2266   -2.5743   27.0395 C   0  0  0  0  0  0  0  0  0  0  0  0
   -4.5795   -3.1716   26.8408 N   0  0  0  0  0  0  0  0  0  0  0  0
   -4.8802   -4.3246   27.3884 C   0  0  0  0  0  0  0  0  0  0  0  0
   -4.4156   -4.6351   28.5732 N   0  0  0  0  0  0  0  0  0  0  0  0
   -5.6512   -5.1667   26.7518 N   0  3  0  0  0  0  0  0  0  0  0  0
   -2.4160    1.9499   30.1867 O   0  0  0  0  0  0  0  0  0  0  0  0
  2  1  1  1  0  0  0
  2  5  1  0  0  0  0
  2  3  1  0  0  0  0
  3  4  1  0  0  0  0
  3 12  2  0  0  0  0
  5  6  1  0  0  0  0
  6  7  1  0  0  0  0
  7  8  1  0  0  0  0
  8  9  1  0  0  0  0
  9 10  1  0  0  0  0
  9 11  2  0  0  0  0
M  CHG  3   1   1   4  -1  11   1
M  END
>  <CHROM.1>
157.35108930,-66.13894523,140.63432841,177.86833870,102.76183781,-155.01299543
-3.74197421,-1.04046115,28.07781031,-1.11339270,-0.93300724,-2.47423455

>  <Name>
1koc cryst

>  <RI>
0

>  <Rbt.Current_Directory>
/home/itssahil/PROJECTS/Mol_Feturizer/New_Systems/rnas/1koc

>  <Rbt.Executable>
rbdock ($Id: //depot/dev/client3/rdock/2013.1/src/exe/rbdock.cxx#4 $)

>  <Rbt.Library>
libRbt.so (2013.1, Build901 2013/11/27)

>  <Rbt.Parameter_File>
/export/apps/rDock/src/rDock_2013.1_src/data/scripts/dock_solv.prm

>  <Rbt.Receptor>
prm/blind_docking_100.prm

>  <SCORE>
-0.296548

>  <SCORE.INTER>
-0.691965

>  <SCORE.INTER.CONST>
1

>  <SCORE.INTER.POLAR>
-3.34519

>  <SCORE.INTER.ROT>
5

>  <SCORE.INTER.SOLV>
32.6339

>  <SCORE.INTER.VDW>
-7.12196

>  <SCORE.INTER.norm>
-0.0576637

>  <SCORE.INTRA>
-0.231405

>  <SCORE.INTRA.DIHEDRAL>
3.14232

>  <SCORE.INTRA.DIHEDRAL.0>
6.04201

>  <SCORE.INTRA.POLAR>
0

>  <SCORE.INTRA.POLAR.0>
0

>  <SCORE.INTRA.REPUL>
0

>  <SCORE.INTRA.REPUL.0>
0

>  <SCORE.INTRA.SOLV>
-0.651914

>  <SCORE.INTRA.SOLV.lig_0>
-71.0481

>  <SCORE.INTRA.VDW>
-1.47661

>  <SCORE.INTRA.VDW.0>
0.968882

>  <SCORE.INTRA.norm>
-0.0192837

>  <SCORE.RESTR>
0.626821

>  <SCORE.RESTR.CAVITY>
0.626821

>  <SCORE.RESTR.norm>
0.0522351

>  <SCORE.SYSTEM>
0

>  <SCORE.SYSTEM.CONST>
0

>  <SCORE.SYSTEM.DIHEDRAL>
0

>  <SCORE.SYSTEM.SOLV>
0

>  <SCORE.SYSTEM.norm>
0

>  <SCORE.heavy>
12

>  <SCORE.norm>
-0.0247123

>  <SYMMETRIC_BONDS>
11 12 2
5 6 2

>  <RMSD>
9.734

$$$$
1koc cryst
 OpenBabel11021811393D
libRbt.so/2013.1/901 2013/11/27
 12 11  0  0  0  0  0  0  0  0999 V2000
   -8.0126    2.8394   29.8852 N   0  3  0  0  0  0  0  0  0  0  0  0
   -7.3924    3.2007   31.1958 C   0  0  2  0  0  0  0  0  0  0  0  0
   -7.9375    4.5691   31.6494 C   0  0  0  0  0  0  0  0  0  0  0  0
   -9.0502    4.6040   32.1531 O   0  5  0  0  0  0  0  0  0  0  0  0
   -5.8492    3.2465   31.0327 C   0  0  0  0  0  0  0  0  0  0  0  0
   -5.1577    3.4592   32.3846 C   0  0  0  0  0  0  0  0  0  0  0  0
   -3.9161    2.5781   32.4686 C   0  0  0  0  0  0  0  0  0  0  0  0
   -2.8069    3.1878   31.6786 N   0  0  0  0  0  0  0  0  0  0  0  0
   -2.1846    2.4863   30.7619 C   0  0  0  0  0  0  0  0  0  0  0  0
   -2.8437    1.6233   30.0292 N   0  0  0  0  0  0  0  0  0  0  0  0
   -0.9016    2.6519   30.5742 N   0  3  0  0  0  0  0  0  0  0  0  0
   -7.2411    5.5582   31.4764 O   0  0  0  0  0  0  0  0  0  0  0  0
  2  1  1  6  0  0  0
  2  5  1  0  0  0  0
  2  3  1  0  0  0  0
  3  4  1  0  0  0  0
  3 12  2  0  0  0  0
  5  6  1  0  0  0  0
  6  7  1  0  0  0  0
  7  8  1  0  0  0  0
  8  9  1  0  0  0  0
  9 10  1  0  0  0  0
  9 11  2  0  0  0  0
M  CHG  3   1   1   4  -1  11   1
M  END
>  <CHROM.1>
-63.60870288,-173.66827190,78.78786910,139.24862358,77.67926672,-126.71288719
-5.28549695,3.33366984,31.23641875,2.88546870,-0.15758736,0.82624181

>  <Name>
1koc cryst

>  <RI>
0

>  <Rbt.Current_Directory>
/home/itssahil/PROJECTS/Mol_Feturizer/New_Systems/rnas/1koc

>  <Rbt.Executable>
rbdock ($Id: //depot/dev/client3/rdock/2013.1/src/exe/rbdock.cxx#4 $)

>  <Rbt.Library>
libRbt.so (2013.1, Build901 2013/11/27)

>  <Rbt.Parameter_File>
/export/apps/rDock/src/rDock_2013.1_src/data/scripts/dock_solv.prm

>  <Rbt.Receptor>
prm/blind_docking_80.prm

>  <SCORE>
-27.1227

>  <SCORE.INTER>
-27.0144

>  <SCORE.INTER.CONST>
1

>  <SCORE.INTER.POLAR>
-3.88748

>  <SCORE.INTER.ROT>
5

>  <SCORE.INTER.SOLV>
16.8625

>  <SCORE.INTER.VDW>
-17.6055

>  <SCORE.INTER.norm>
-2.2512

>  <SCORE.INTRA>
-0.126152

>  <SCORE.INTRA.DIHEDRAL>
3.35552

>  <SCORE.INTRA.DIHEDRAL.0>
6.04201

>  <SCORE.INTRA.POLAR>
0

>  <SCORE.INTRA.POLAR.0>
0

>  <SCORE.INTRA.REPUL>
0

>  <SCORE.INTRA.REPUL.0>
0

>  <SCORE.INTRA.SOLV>
-0.646247

>  <SCORE.INTRA.SOLV.lig_0>
-71.0481

>  <SCORE.INTRA.VDW>
-1.48079

>  <SCORE.INTRA.VDW.0>
0.968882

>  <SCORE.INTRA.norm>
-0.0105127

>  <SCORE.RESTR>
0.0178697

>  <SCORE.RESTR.CAVITY>
0.0178697

>  <SCORE.RESTR.norm>
0.00148914

>  <SCORE.SYSTEM>
0

>  <SCORE.SYSTEM.CONST>
0

>  <SCORE.SYSTEM.DIHEDRAL>
0

>  <SCORE.SYSTEM.SOLV>
0

>  <SCORE.SYSTEM.norm>
0

>  <SCORE.heavy>
12

>  <SCORE.norm>
-2.26022

>  <SYMMETRIC_BONDS>
11 12 2
5 6 2

>  <RMSD>
9.800

$$$$
1koc cryst
 OpenBabel11021811393D
libRbt.so/2013.1/901 2013/11/27
 12 11  0  0  0  0  0  0  0  0999 V2000
   -1.7807    1.4879   26.9045 N   0  3  0  0  0  0  0  0  0  0  0  0
   -3.1600    1.1537   27.3721 C   0  0  2  0  0  0  0  0  0  0  0  0
   -3.3341    1.6519   28.8202 C   0  0  0  0  0  0  0  0  0  0  0  0
   -2.4140    1.4693   29.6032 O   0  5  0  0  0  0  0  0  0  0  0  0
   -3.3676   -0.3824   27.2870 C   0  0  0  0  0  0  0  0  0  0  0  0
   -3.6469   -0.8222   25.8450 C   0  0  0  0  0  0  0  0  0  0  0  0
   -4.2860   -2.2066   25.8468 C   0  0  0  0  0  0  0  0  0  0  0  0
   -3.9091   -2.9378   27.0916 N   0  0  0  0  0  0  0  0  0  0  0  0
   -4.6811   -3.8893   27.5591 C   0  0  0  0  0  0  0  0  0  0  0  0
   -5.3180   -4.6871   26.7382 N   0  0  0  0  0  0  0  0  0  0  0  0
   -4.8123   -4.0462   28.8502 N   0  3  0  0  0  0  0  0  0  0  0  0
   -4.3850    2.1959   29.1251 O   0  0  0  0  0  0  0  0  0  0  0  0
  2  1  1  1  0  0  0
  2  5  1  0  0  0  0
  2  3  1  0  0  0  0
  3  4  1  0  0  0  0
  3 12  2  0  0  0  0
  5  6  1  0  0  0  0
  6  7  1  0  0  0  0
  7  8  1  0  0  0  0
  8  9  1  0  0  0  0
  9 10  1  0  0  0  0
  9 11  2  0  0  0  0
M  CHG  3   1   1   4  -1  11   1
M  END
>  <CHROM.1>
22.88171328,-78.22597405,-42.68149355,-161.52634768,-24.78612996,154.73198721
-3.73751776,-0.91343175,27.60751174,-0.76417512,-1.13252627,-2.18510721

>  <Name>
1koc cryst

>  <RI>
0

>  <Rbt.Current_Directory>
/home/itssahil/PROJECTS/Mol_Feturizer/New_Systems/rnas/1koc

>  <Rbt.Executable>
rbdock ($Id: //depot/dev/client3/rdock/2013.1/src/exe/rbdock.cxx#4 $)

>  <Rbt.Library>
libRbt.so (2013.1, Build901 2013/11/27)

>  <Rbt.Parameter_File>
/export/apps/rDock/src/rDock_2013.1_src/data/scripts/dock_solv.prm

>  <Rbt.Receptor>
prm/blind_docking_60.prm

>  <SCORE>
6.18141

>  <SCORE.INTER>
2.05151

>  <SCORE.INTER.CONST>
1

>  <SCORE.INTER.POLAR>
-2.92334

>  <SCORE.INTER.ROT>
5

>  <SCORE.INTER.SOLV>
34.4849

>  <SCORE.INTER.VDW>
-7.31616

>  <SCORE.INTER.norm>
0.170959

>  <SCORE.INTRA>
3.88562

>  <SCORE.INTRA.DIHEDRAL>
5.76093

>  <SCORE.INTRA.DIHEDRAL.0>
6.04201

>  <SCORE.INTRA.POLAR>
0

>  <SCORE.INTRA.POLAR.0>
0

>  <SCORE.INTRA.REPUL>
0

>  <SCORE.INTRA.REPUL.0>
0

>  <SCORE.INTRA.SOLV>
-0.606814

>  <SCORE.INTRA.SOLV.lig_0>
-71.0481

>  <SCORE.INTRA.VDW>
1.30856

>  <SCORE.INTRA.VDW.0>
0.968882

>  <SCORE.INTRA.norm>
0.323802

>  <SCORE.RESTR>
0.24428

>  <SCORE.RESTR.CAVITY>
0.24428

>  <SCORE.RESTR.norm>
0.0203567

>  <SCORE.SYSTEM>
0

>  <SCORE.SYSTEM.CONST>
0

>  <SCORE.SYSTEM.DIHEDRAL>
0

>  <SCORE.SYSTEM.SOLV>
0

>  <SCORE.SYSTEM.norm>
0

>  <SCORE.heavy>
12

>  <SCORE.norm>
0.515117

>  <SYMMETRIC_BONDS>
11 12 2
5 6 2

>  <RMSD>
9.812

$$$$
1koc cryst
 OpenBabel11021811393D
libRbt.so/2013.1/901 2013/11/27
 12 11  0  0  0  0  0  0  0  0999 V2000
   -2.8634    2.1204   29.3694 N   0  3  0  0  0  0  0  0  0  0  0  0
   -3.3538    1.5804   28.0653 C   0  0  2  0  0  0  0  0  0  0  0  0
   -2.7901    0.1598   27.8658 C   0  0  0  0  0  0  0  0  0  0  0  0
   -1.6730   -0.0791   28.2993 O   0  5  0  0  0  0  0  0  0  0  0  0
   -2.8958    2.5231   26.9199 C   0  0  0  0  0  0  0  0  0  0  0  0
   -3.8871    3.6764   26.7252 C   0  0  0  0  0  0  0  0  0  0  0  0
   -5.1586    3.1528   26.0664 C   0  0  0  0  0  0  0  0  0  0  0  0
   -4.8094    2.3313   24.8708 N   0  0  0  0  0  0  0  0  0  0  0  0
   -5.6340    1.4074   24.4394 C   0  0  0  0  0  0  0  0  0  0  0  0
   -6.9288    1.5972   24.4982 N   0  0  0  0  0  0  0  0  0  0  0  0
   -5.1626    0.2936   23.9436 N   0  3  0  0  0  0  0  0  0  0  0  0
   -3.4771   -0.6601   27.2751 O   0  0  0  0  0  0  0  0  0  0  0  0
  2  1  1  1  0  0  0
  2  5  1  0  0  0  0
  2  3  1  0  0  0  0
  3  4  1  0  0  0  0
  3 12  2  0  0  0  0
  5  6  1  0  0  0  0
  6  7  1  0  0  0  0
  7  8  1  0  0  0  0
  8  9  1  0  0  0  0
  9 10  1  0  0  0  0
  9 11  2  0  0  0  0
M  CHG  3   1   1   4  -1  11   1
M  END
>  <CHROM.1>
-178.16591806,-85.66397594,-34.06166622,-73.02577845,-49.28491706,155.16437877
-4.04600837,1.48374298,26.54358041,0.09734484,-0.87833850,0.29543390

>  <Name>
1koc cryst

>  <RI>
0

>  <Rbt.Current_Directory>
/home/itssahil/PROJECTS/Mol_Feturizer/New_Systems/rnas/1koc

>  <Rbt.Executable>
rbdock ($Id: //depot/dev/client3/rdock/2013.1/src/exe/rbdock.cxx#4 $)

>  <Rbt.Library>
libRbt.so (2013.1, Build901 2013/11/27)

>  <Rbt.Parameter_File>
/export/apps/rDock/src/rDock_2013.1_src/data/scripts/dock_solv.prm

>  <Rbt.Receptor>
prm/blind_docking_80.prm

>  <SCORE>
-15.5842

>  <SCORE.INTER>
-14.3621

>  <SCORE.INTER.CONST>
1

>  <SCORE.INTER.POLAR>
-3.64216

>  <SCORE.INTER.ROT>
5

>  <SCORE.INTER.SOLV>
21.1973

>  <SCORE.INTER.VDW>
-11.4333

>  <SCORE.INTER.norm>
-1.19684

>  <SCORE.INTRA>
-1.22213

>  <SCORE.INTRA.DIHEDRAL>
0.502848

>  <SCORE.INTRA.DIHEDRAL.0>
6.04201

>  <SCORE.INTRA.POLAR>
0

>  <SCORE.INTRA.POLAR.0>
0

>  <SCORE.INTRA.REPUL>
0

>  <SCORE.INTRA.REPUL.0>
0

>  <SCORE.INTRA.SOLV>
0.586556

>  <SCORE.INTRA.SOLV.lig_0>
-71.0481

>  <SCORE.INTRA.VDW>
-1.76684

>  <SCORE.INTRA.VDW.0>
0.968882

>  <SCORE.INTRA.norm>
-0.101844

>  <SCORE.RESTR>
0

>  <SCORE.RESTR.CAVITY>
0

>  <SCORE.RESTR.norm>
0

>  <SCORE.SYSTEM>
0

>  <SCORE.SYSTEM.CONST>
0

>  <SCORE.SYSTEM.DIHEDRAL>
0

>  <SCORE.SYSTEM.SOLV>
0

>  <SCORE.SYSTEM.norm>
0

>  <SCORE.heavy>
12

>  <SCORE.norm>
-1.29869

>  <SYMMETRIC_BONDS>
11 12 2
5 6 2

>  <RMSD>
9.829

$$$$
1koc cryst
 OpenBabel11021811393D
libRbt.so/2013.1/901 2013/11/27
 12 11  0  0  0  0  0  0  0  0999 V2000
   -2.2829    1.8227   26.7418 N   0  3  0  0  0  0  0  0  0  0  0  0
   -3.3478    0.9978   27.3886 C   0  0  2  0  0  0  0  0  0  0  0  0
   -3.3123    1.2355   28.9110 C   0  0  0  0  0  0  0  0  0  0  0  0
   -3.3228    0.2578   29.6438 O   0  5  0  0  0  0  0  0  0  0  0  0
   -3.1037   -0.4990   27.0567 C   0  0  0  0  0  0  0  0  0  0  0  0
   -3.7121   -0.8692   25.6989 C   0  0  0  0  0  0  0  0  0  0  0  0
   -4.4229   -2.2139   25.8061 C   0  0  0  0  0  0  0  0  0  0  0  0
   -3.9439   -2.9461   27.0147 N   0  0  0  0  0  0  0  0  0  0  0  0
   -4.6590   -3.9200   27.5245 C   0  0  0  0  0  0  0  0  0  0  0  0
   -5.3317   -4.7263   26.7413 N   0  0  0  0  0  0  0  0  0  0  0  0
   -4.6972   -4.0910   28.8199 N   0  3  0  0  0  0  0  0  0  0  0  0
   -3.2866    2.3872   29.3188 O   0  0  0  0  0  0  0  0  0  0  0  0
  2  1  1  6  0  0  0
  2  5  1  0  0  0  0
  2  3  1  0  0  0  0
  3  4  1  0  0  0  0
  3 12  2  0  0  0  0
  5  6  1  0  0  0  0
  6  7  1  0  0  0  0
  7  8  1  0  0  0  0
  8  9  1  0  0  0  0
  9 10  1  0  0  0  0
  9 11  2  0  0  0  0
M  CHG  3   1   1   4  -1  11   1
M  END
>  <CHROM.1>
-151.89163860,-84.45879147,-131.62088621,-136.84222234,-18.44219594,160.39575434
-3.76956100,-1.03645108,27.57488507,-0.42783444,-1.23263426,-1.83591755

>  <Name>
1koc cryst

>  <RI>
0

>  <Rbt.Current_Directory>
/home/itssahil/PROJECTS/Mol_Feturizer/New_Systems/rnas/1koc

>  <Rbt.Executable>
rbdock ($Id: //depot/dev/client3/rdock/2013.1/src/exe/rbdock.cxx#4 $)

>  <Rbt.Library>
libRbt.so (2013.1, Build901 2013/11/27)

>  <Rbt.Parameter_File>
/export/apps/rDock/src/rDock_2013.1_src/data/scripts/dock_solv.prm

>  <Rbt.Receptor>
prm/blind_docking_40.prm

>  <SCORE>
9.45348

>  <SCORE.INTER>
0.574777

>  <SCORE.INTER.CONST>
1

>  <SCORE.INTER.POLAR>
-3.2649

>  <SCORE.INTER.ROT>
5

>  <SCORE.INTER.SOLV>
34.3123

>  <SCORE.INTER.VDW>
-7.10458

>  <SCORE.INTER.norm>
0.047898

>  <SCORE.INTRA>
8.61537

>  <SCORE.INTRA.DIHEDRAL>
10.1898

>  <SCORE.INTRA.DIHEDRAL.0>
6.04201

>  <SCORE.INTRA.POLAR>
0

>  <SCORE.INTRA.POLAR.0>
0

>  <SCORE.INTRA.REPUL>
0

>  <SCORE.INTRA.REPUL.0>
0

>  <SCORE.INTRA.SOLV>
-0.162014

>  <SCORE.INTRA.SOLV.lig_0>
-71.0481

>  <SCORE.INTRA.VDW>
3.60148

>  <SCORE.INTRA.VDW.0>
0.968882

>  <SCORE.INTRA.norm>
0.717947

>  <SCORE.RESTR>
0.263334

>  <SCORE.RESTR.CAVITY>
0.263334

>  <SCORE.RESTR.norm>
0.0219445

>  <SCORE.SYSTEM>
0

>  <SCORE.SYSTEM.CONST>
0

>  <SCORE.SYSTEM.DIHEDRAL>
0

>  <SCORE.SYSTEM.SOLV>
0

>  <SCORE.SYSTEM.norm>
0

>  <SCORE.heavy>
12

>  <SCORE.norm>
0.78779

>  <SYMMETRIC_BONDS>
11 12 2
5 6 2

>  <RMSD>
9.879

$$$$
1koc cryst
 OpenBabel11021811393D
libRbt.so/2013.1/901 2013/11/27
 12 11  0  0  0  0  0  0  0  0999 V2000
   -1.6169    0.6781   27.9610 N   0  3  0  0  0  0  0  0  0  0  0  0
   -2.6626    0.3461   28.9754 C   0  0  2  0  0  0  0  0  0  0  0  0
   -3.4697   -0.8719   28.4850 C   0  0  0  0  0  0  0  0  0  0  0  0
   -3.8806   -1.6615   29.3222 O   0  5  0  0  0  0  0  0  0  0  0  0
   -3.5865    1.5777   29.1752 C   0  0  0  0  0  0  0  0  0  0  0  0
   -4.2323    1.5631   30.5657 C   0  0  0  0  0  0  0  0  0  0  0  0
   -5.1589    2.7651   30.7124 C   0  0  0  0  0  0  0  0  0  0  0  0
   -5.8913    2.6858   32.0099 N   0  0  0  0  0  0  0  0  0  0  0  0
   -7.1944    2.8291   32.0434 C   0  0  0  0  0  0  0  0  0  0  0  0
   -7.9367    2.3571   31.0727 N   0  0  0  0  0  0  0  0  0  0  0  0
   -7.7567    3.4411   33.0524 N   0  3  0  0  0  0  0  0  0  0  0  0
   -3.6537   -1.0015   27.2839 O   0  0  0  0  0  0  0  0  0  0  0  0
  2  1  1  6  0  0  0
  2  5  1  0  0  0  0
  2  3  1  0  0  0  0
  3  4  1  0  0  0  0
  3 12  2  0  0  0  0
  5  6  1  0  0  0  0
  6  7  1  0  0  0  0
  7  8  1  0  0  0  0
  8  9  1  0  0  0  0
  9 10  1  0  0  0  0
  9 11  2  0  0  0  0
M  CHG  3   1   1   4  -1  11   1
M  END
>  <CHROM.1>
-149.74796557,-154.35053255,145.86199438,-178.53229020,174.50476641,-129.90198223
-4.75185165,1.21681508,30.03876612,-0.80194472,0.38498807,0.51487011

>  <Name>
1koc cryst

>  <RI>
0

>  <Rbt.Current_Directory>
/home/itssahil/PROJECTS/Mol_Feturizer/New_Systems/rnas/1koc

>  <Rbt.Executable>
rbdock ($Id: //depot/dev/client3/rdock/2013.1/src/exe/rbdock.cxx#4 $)

>  <Rbt.Library>
libRbt.so (2013.1, Build901 2013/11/27)

>  <Rbt.Parameter_File>
/export/apps/rDock/src/rDock_2013.1_src/data/scripts/dock_solv.prm

>  <Rbt.Receptor>
prm/blind_docking_100.prm

>  <SCORE>
-27.1872

>  <SCORE.INTER>
-25.2942

>  <SCORE.INTER.CONST>
1

>  <SCORE.INTER.POLAR>
-4.36141

>  <SCORE.INTER.ROT>
5

>  <SCORE.INTER.SOLV>
29.1675

>  <SCORE.INTER.VDW>
-18.9806

>  <SCORE.INTER.norm>
-2.10785

>  <SCORE.INTRA>
-1.89967

>  <SCORE.INTRA.DIHEDRAL>
1.33786

>  <SCORE.INTRA.DIHEDRAL.0>
6.04201

>  <SCORE.INTRA.POLAR>
0

>  <SCORE.INTRA.POLAR.0>
0

>  <SCORE.INTRA.REPUL>
0

>  <SCORE.INTRA.REPUL.0>
0

>  <SCORE.INTRA.SOLV>
-1.41968

>  <SCORE.INTRA.SOLV.lig_0>
-71.0481

>  <SCORE.INTRA.VDW>
-1.85876

>  <SCORE.INTRA.VDW.0>
0.968882

>  <SCORE.INTRA.norm>
-0.158306

>  <SCORE.RESTR>
0.0066468

>  <SCORE.RESTR.CAVITY>
0.0066468

>  <SCORE.RESTR.norm>
0.0005539

>  <SCORE.SYSTEM>
0

>  <SCORE.SYSTEM.CONST>
0

>  <SCORE.SYSTEM.DIHEDRAL>
0

>  <SCORE.SYSTEM.SOLV>
0

>  <SCORE.SYSTEM.norm>
0

>  <SCORE.heavy>
12

>  <SCORE.norm>
-2.2656

>  <SYMMETRIC_BONDS>
11 12 2
5 6 2

>  <RMSD>
9.881

$$$$
1koc cryst
 OpenBabel11021811393D
libRbt.so/2013.1/901 2013/11/27
 12 11  0  0  0  0  0  0  0  0999 V2000
   -1.3781    1.1095   27.8094 N   0  3  0  0  0  0  0  0  0  0  0  0
   -2.5315    1.1531   26.8604 C   0  0  2  0  0  0  0  0  0  0  0  0
   -3.3434    2.4383   27.1150 C   0  0  0  0  0  0  0  0  0  0  0  0
   -4.5021    2.3200   27.4843 O   0  5  0  0  0  0  0  0  0  0  0  0
   -3.4118   -0.1081   27.0715 C   0  0  0  0  0  0  0  0  0  0  0  0
   -3.3546   -1.0317   25.8490 C   0  0  0  0  0  0  0  0  0  0  0  0
   -4.3360   -2.1842   26.0318 C   0  0  0  0  0  0  0  0  0  0  0  0
   -4.0349   -2.9107   27.2998 N   0  0  0  0  0  0  0  0  0  0  0  0
   -4.7823   -3.9200   27.6772 C   0  0  0  0  0  0  0  0  0  0  0  0
   -5.2786   -4.7440   26.7879 N   0  0  0  0  0  0  0  0  0  0  0  0
   -5.0297   -4.1086   28.9468 N   0  3  0  0  0  0  0  0  0  0  0  0
   -2.7993    3.5161   26.9264 O   0  0  0  0  0  0  0  0  0  0  0  0
  2  1  1  1  0  0  0
  2  5  1  0  0  0  0
  2  3  1  0  0  0  0
  3  4  1  0  0  0  0
  3 12  2  0  0  0  0
  5  6  1  0  0  0  0
  6  7  1  0  0  0  0
  7  8  1  0  0  0  0
  8  9  1  0  0  0  0
  9 10  1  0  0  0  0
  9 11  2  0  0  0  0
M  CHG  3   1   1   4  -1  11   1
M  END
>  <CHROM.1>
4.39470032,-112.83963065,-117.40535187,-174.30752491,-56.34145356,178.07642780
-3.71750758,-0.70326562,27.18907509,-1.23292355,0.46060905,2.93872335

>  <Name>
1koc cryst

>  <RI>
0

>  <Rbt.Current_Directory>
/home/itssahil/PROJECTS/Mol_Feturizer/New_Systems/rnas/1koc

>  <Rbt.Executable>
rbdock ($Id: //depot/dev/client3/rdock/2013.1/src/exe/rbdock.cxx#4 $)

>  <Rbt.Library>
libRbt.so (2013.1, Build901 2013/11/27)

>  <Rbt.Parameter_File>
/export/apps/rDock/src/rDock_2013.1_src/data/scripts/dock_solv.prm

>  <Rbt.Receptor>
prm/blind_docking_100.prm

>  <SCORE>
19.0456

>  <SCORE.INTER>
16.2153

>  <SCORE.INTER.CONST>
1

>  <SCORE.INTER.POLAR>
-1.96254

>  <SCORE.INTER.ROT>
5

>  <SCORE.INTER.SOLV>
34.8296

>  <SCORE.INTER.VDW>
-1.19118

>  <SCORE.INTER.norm>
1.35128

>  <SCORE.INTRA>
2.61605

>  <SCORE.INTRA.DIHEDRAL>
6.08874

>  <SCORE.INTRA.DIHEDRAL.0>
6.04201

>  <SCORE.INTRA.POLAR>
0

>  <SCORE.INTRA.POLAR.0>
0

>  <SCORE.INTRA.REPUL>
0

>  <SCORE.INTRA.REPUL.0>
0

>  <SCORE.INTRA.SOLV>
-1.27968

>  <SCORE.INTRA.SOLV.lig_0>
-71.0481

>  <SCORE.INTRA.VDW>
0.21152

>  <SCORE.INTRA.VDW.0>
0.968882

>  <SCORE.INTRA.norm>
0.218004

>  <SCORE.RESTR>
0.214249

>  <SCORE.RESTR.CAVITY>
0.214249

>  <SCORE.RESTR.norm>
0.0178541

>  <SCORE.SYSTEM>
0

>  <SCORE.SYSTEM.CONST>
0

>  <SCORE.SYSTEM.DIHEDRAL>
0

>  <SCORE.SYSTEM.SOLV>
0

>  <SCORE.SYSTEM.norm>
0

>  <SCORE.heavy>
12

>  <SCORE.norm>
1.58714

>  <SYMMETRIC_BONDS>
11 12 2
5 6 2

>  <RMSD>
9.893

$$$$
1koc cryst
 OpenBabel11021811393D
libRbt.so/2013.1/901 2013/11/27
 12 11  0  0  0  0  0  0  0  0999 V2000
   -4.2489   -1.7025   25.9867 N   0  3  0  0  0  0  0  0  0  0  0  0
   -3.4366   -2.0624   27.1882 C   0  0  2  0  0  0  0  0  0  0  0  0
   -3.9348   -3.4099   27.7463 C   0  0  0  0  0  0  0  0  0  0  0  0
   -3.3533   -3.8796   28.7129 O   0  5  0  0  0  0  0  0  0  0  0  0
   -3.5746   -0.9387   28.2506 C   0  0  0  0  0  0  0  0  0  0  0  0
   -2.5749    0.1938   27.9887 C   0  0  0  0  0  0  0  0  0  0  0  0
   -2.6558    1.2186   29.1148 C   0  0  0  0  0  0  0  0  0  0  0  0
   -1.2833    1.6605   29.4985 N   0  0  0  0  0  0  0  0  0  0  0  0
   -1.1120    2.4982   30.4927 C   0  0  0  0  0  0  0  0  0  0  0  0
   -1.8816    2.4346   31.5509 N   0  0  0  0  0  0  0  0  0  0  0  0
   -0.1658    3.3980   30.4307 N   0  3  0  0  0  0  0  0  0  0  0  0
   -4.8789   -3.9542   27.1935 O   0  0  0  0  0  0  0  0  0  0  0  0
  2  1  1  6  0  0  0
  2  5  1  0  0  0  0
  2  3  1  0  0  0  0
  3  4  1  0  0  0  0
  3 12  2  0  0  0  0
  5  6  1  0  0  0  0
  6  7  1  0  0  0  0
  7  8  1  0  0  0  0
  8  9  1  0  0  0  0
  9 10  1  0  0  0  0
  9 11  2  0  0  0  0
M  CHG  3   1   1   4  -1  11   1
M  END
>  <CHROM.1>
46.36220602,-84.88149676,177.86822864,-175.17300908,138.21210661,-176.89753190
-2.76606126,-0.37982318,28.66967077,2.98108180,1.13357341,2.25222267

>  <Name>
1koc cryst

>  <RI>
0

>  <Rbt.Current_Directory>
/home/itssahil/PROJECTS/Mol_Feturizer/New_Systems/rnas/1koc

>  <Rbt.Executable>
rbdock ($Id: //depot/dev/client3/rdock/2013.1/src/exe/rbdock.cxx#4 $)

>  <Rbt.Library>
libRbt.so (2013.1, Build901 2013/11/27)

>  <Rbt.Parameter_File>
/export/apps/rDock/src/rDock_2013.1_src/data/scripts/dock_solv.prm

>  <Rbt.Receptor>
prm/blind_docking_80.prm

>  <SCORE>
-26.0988

>  <SCORE.INTER>
-26.0389

>  <SCORE.INTER.CONST>
1

>  <SCORE.INTER.POLAR>
-5.14031

>  <SCORE.INTER.ROT>
5

>  <SCORE.INTER.SOLV>
36.316

>  <SCORE.INTER.VDW>
-19.2636

>  <SCORE.INTER.norm>
-2.16991

>  <SCORE.INTRA>
-0.106512

>  <SCORE.INTRA.DIHEDRAL>
4.1785

>  <SCORE.INTRA.DIHEDRAL.0>
6.04201

>  <SCORE.INTRA.POLAR>
0

>  <SCORE.INTRA.POLAR.0>
0

>  <SCORE.INTRA.REPUL>
0

>  <SCORE.INTRA.REPUL.0>
0

>  <SCORE.INTRA.SOLV>
-1.20706

>  <SCORE.INTRA.SOLV.lig_0>
-71.0481

>  <SCORE.INTRA.VDW>
-1.59223

>  <SCORE.INTRA.VDW.0>
0.968882

>  <SCORE.INTRA.norm>
-0.00887602

>  <SCORE.RESTR>
0.0466541

>  <SCORE.RESTR.CAVITY>
0.0466541

>  <SCORE.RESTR.norm>
0.00388784

>  <SCORE.SYSTEM>
0

>  <SCORE.SYSTEM.CONST>
0

>  <SCORE.SYSTEM.DIHEDRAL>
0

>  <SCORE.SYSTEM.SOLV>
0

>  <SCORE.SYSTEM.norm>
0

>  <SCORE.heavy>
12

>  <SCORE.norm>
-2.1749

>  <SYMMETRIC_BONDS>
11 12 2
5 6 2

>  <RMSD>
9.950

$$$$
1koc cryst
 OpenBabel11021811393D
libRbt.so/2013.1/901 2013/11/27
 12 11  0  0  0  0  0  0  0  0999 V2000
   -3.0579    0.0650   26.0456 N   0  3  0  0  0  0  0  0  0  0  0  0
   -3.0159   -1.2042   26.8332 C   0  0  2  0  0  0  0  0  0  0  0  0
   -3.9269   -2.2464   26.1555 C   0  0  0  0  0  0  0  0  0  0  0  0
   -4.0824   -2.1709   24.9458 O   0  5  0  0  0  0  0  0  0  0  0  0
   -3.4872   -0.9180   28.2844 C   0  0  0  0  0  0  0  0  0  0  0  0
   -3.2024    0.5356   28.6803 C   0  0  0  0  0  0  0  0  0  0  0  0
   -3.7574    0.8044   30.0748 C   0  0  0  0  0  0  0  0  0  0  0  0
   -3.9021    2.2740   30.2888 N   0  0  0  0  0  0  0  0  0  0  0  0
   -3.1613    2.8887   31.1793 C   0  0  0  0  0  0  0  0  0  0  0  0
   -1.9190    2.5212   31.3732 N   0  0  0  0  0  0  0  0  0  0  0  0
   -3.6625    3.8763   31.8737 N   0  3  0  0  0  0  0  0  0  0  0  0
   -4.4617   -3.0933   26.8555 O   0  0  0  0  0  0  0  0  0  0  0  0
  2  1  1  6  0  0  0
  2  5  1  0  0  0  0
  2  3  1  0  0  0  0
  3  4  1  0  0  0  0
  3 12  2  0  0  0  0
  5  6  1  0  0  0  0
  6  7  1  0  0  0  0
  7  8  1  0  0  0  0
  8  9  1  0  0  0  0
  9 10  1  0  0  0  0
  9 11  2  0  0  0  0
M  CHG  3   1   1   4  -1  11   1
M  END
>  <CHROM.1>
92.32772639,-27.52086901,28.97043317,176.40210040,-161.20501598,-113.71364317
-3.46920931,0.30446894,28.53144319,-1.80259950,1.13929424,1.02586794

>  <Name>
1koc cryst

>  <RI>
0

>  <Rbt.Current_Directory>
/home/itssahil/PROJECTS/Mol_Feturizer/New_Systems/rnas/1koc

>  <Rbt.Executable>
rbdock ($Id: //depot/dev/client3/rdock/2013.1/src/exe/rbdock.cxx#4 $)

>  <Rbt.Library>
libRbt.so (2013.1, Build901 2013/11/27)

>  <Rbt.Parameter_File>
/export/apps/rDock/src/rDock_2013.1_src/data/scripts/dock_solv.prm

>  <Rbt.Receptor>
prm/blind_docking_40.prm

>  <SCORE>
-16.317

>  <SCORE.INTER>
-19.4096

>  <SCORE.INTER.CONST>
1

>  <SCORE.INTER.POLAR>
-3.21765

>  <SCORE.INTER.ROT>
5

>  <SCORE.INTER.SOLV>
32.7028

>  <SCORE.INTER.VDW>
-20.0485

>  <SCORE.INTER.norm>
-1.61746

>  <SCORE.INTRA>
3.09256

>  <SCORE.INTRA.DIHEDRAL>
3.61463

>  <SCORE.INTRA.DIHEDRAL.0>
6.04201

>  <SCORE.INTRA.POLAR>
0

>  <SCORE.INTRA.POLAR.0>
0

>  <SCORE.INTRA.REPUL>
0

>  <SCORE.INTRA.REPUL.0>
0

>  <SCORE.INTRA.SOLV>
0.0158149

>  <SCORE.INTRA.SOLV.lig_0>
-71.0481

>  <SCORE.INTRA.VDW>
1.27733

>  <SCORE.INTRA.VDW.0>
0.968882

>  <SCORE.INTRA.norm>
0.257713

>  <SCORE.RESTR>
0

>  <SCORE.RESTR.CAVITY>
0

>  <SCORE.RESTR.norm>
0

>  <SCORE.SYSTEM>
0

>  <SCORE.SYSTEM.CONST>
0

>  <SCORE.SYSTEM.DIHEDRAL>
0

>  <SCORE.SYSTEM.SOLV>
0

>  <SCORE.SYSTEM.norm>
0

>  <SCORE.heavy>
12

>  <SCORE.norm>
-1.35975

>  <SYMMETRIC_BONDS>
11 12 2
5 6 2

>  <RMSD>
10.043

$$$$
1koc cryst
 OpenBabel11021811393D
libRbt.so/2013.1/901 2013/11/27
 12 11  0  0  0  0  0  0  0  0999 V2000
   -9.1293    3.0492   32.2439 N   0  3  0  0  0  0  0  0  0  0  0  0
   -7.8362    3.7907   32.1392 C   0  0  2  0  0  0  0  0  0  0  0  0
   -7.8608    4.6669   30.8714 C   0  0  0  0  0  0  0  0  0  0  0  0
   -8.6903    4.4081   30.0123 O   0  5  0  0  0  0  0  0  0  0  0  0
   -6.6677    2.7701   32.0835 C   0  0  0  0  0  0  0  0  0  0  0  0
   -5.3108    3.4836   32.1013 C   0  0  0  0  0  0  0  0  0  0  0  0
   -4.1891    2.4510   32.0801 C   0  0  0  0  0  0  0  0  0  0  0  0
   -2.9414    3.0680   31.5428 N   0  0  0  0  0  0  0  0  0  0  0  0
   -2.2643    2.4701   30.5921 C   0  0  0  0  0  0  0  0  0  0  0  0
   -2.8904    1.8137   29.6471 N   0  0  0  0  0  0  0  0  0  0  0  0
   -0.9587    2.5332   30.5838 N   0  3  0  0  0  0  0  0  0  0  0  0
   -7.0456    5.5721   30.7750 O   0  0  0  0  0  0  0  0  0  0  0  0
  2  1  1  6  0  0  0
  2  5  1  0  0  0  0
  2  3  1  0  0  0  0
  3  4  1  0  0  0  0
  3 12  2  0  0  0  0
  5  6  1  0  0  0  0
  6  7  1  0  0  0  0
  7  8  1  0  0  0  0
  8  9  1  0  0  0  0
  9 10  1  0  0  0  0
  9 11  2  0  0  0  0
M  CHG  3   1   1   4  -1  11   1
M  END
>  <CHROM.1>
49.64385490,-174.95010596,-17.59109513,178.62499304,156.80415953,-130.47827992
-5.49924292,3.33537674,31.20240415,3.05614432,0.26443680,-0.87600448

>  <Name>
1koc cryst

>  <RI>
0

>  <Rbt.Current_Directory>
/home/itssahil/PROJECTS/Mol_Feturizer/New_Systems/rnas/1koc

>  <Rbt.Executable>
rbdock ($Id: //depot/dev/client3/rdock/2013.1/src/exe/rbdock.cxx#4 $)

>  <Rbt.Library>
libRbt.so (2013.1, Build901 2013/11/27)

>  <Rbt.Parameter_File>
/export/apps/rDock/src/rDock_2013.1_src/data/scripts/dock_solv.prm

>  <Rbt.Receptor>
prm/blind_docking_80.prm

>  <SCORE>
-28.9471

>  <SCORE.INTER>
-27.2085

>  <SCORE.INTER.CONST>
1

>  <SCORE.INTER.POLAR>
-3.94924

>  <SCORE.INTER.ROT>
5

>  <SCORE.INTER.SOLV>
15.2002

>  <SCORE.INTER.VDW>
-16.9749

>  <SCORE.INTER.norm>
-2.26737

>  <SCORE.INTRA>
-2.39507

>  <SCORE.INTRA.DIHEDRAL>
-0.458821

>  <SCORE.INTRA.DIHEDRAL.0>
6.04201

>  <SCORE.INTRA.POLAR>
0

>  <SCORE.INTRA.POLAR.0>
0

>  <SCORE.INTRA.REPUL>
0

>  <SCORE.INTRA.REPUL.0>
0

>  <SCORE.INTRA.SOLV>
-0.833875

>  <SCORE.INTRA.SOLV.lig_0>
-71.0481

>  <SCORE.INTRA.VDW>
-1.74872

>  <SCORE.INTRA.VDW.0>
0.968882

>  <SCORE.INTRA.norm>
-0.199589

>  <SCORE.RESTR>
0.656423

>  <SCORE.RESTR.CAVITY>
0.656423

>  <SCORE.RESTR.norm>
0.054702

>  <SCORE.SYSTEM>
0

>  <SCORE.SYSTEM.CONST>
0

>  <SCORE.SYSTEM.DIHEDRAL>
0

>  <SCORE.SYSTEM.SOLV>
0

>  <SCORE.SYSTEM.norm>
0

>  <SCORE.heavy>
12

>  <SCORE.norm>
-2.41226

>  <SYMMETRIC_BONDS>
11 12 2
5 6 2

>  <RMSD>
10.058

$$$$
1koc cryst
 OpenBabel11021811393D
libRbt.so/2013.1/901 2013/11/27
 12 11  0  0  0  0  0  0  0  0999 V2000
   -8.3113    3.4516   32.7741 N   0  3  0  0  0  0  0  0  0  0  0  0
   -7.2861    3.6540   31.7061 C   0  0  2  0  0  0  0  0  0  0  0  0
   -7.8933    3.2593   30.3455 C   0  0  0  0  0  0  0  0  0  0  0  0
   -7.1280    2.9429   29.4470 O   0  5  0  0  0  0  0  0  0  0  0  0
   -6.0389    2.7872   32.0274 C   0  0  0  0  0  0  0  0  0  0  0  0
   -4.8507    3.1805   31.1418 C   0  0  0  0  0  0  0  0  0  0  0  0
   -3.7248    2.1672   31.3162 C   0  0  0  0  0  0  0  0  0  0  0  0
   -3.6629    1.2677   30.1273 N   0  0  0  0  0  0  0  0  0  0  0  0
   -2.6354    1.3164   29.3140 C   0  0  0  0  0  0  0  0  0  0  0  0
   -1.4315    1.5349   29.7820 N   0  0  0  0  0  0  0  0  0  0  0  0
   -2.8116    1.1412   28.0306 N   0  3  0  0  0  0  0  0  0  0  0  0
   -9.1085    3.2905   30.2207 O   0  0  0  0  0  0  0  0  0  0  0  0
  2  1  1  1  0  0  0
  2  5  1  0  0  0  0
  2  3  1  0  0  0  0
  3  4  1  0  0  0  0
  3 12  2  0  0  0  0
  5  6  1  0  0  0  0
  6  7  1  0  0  0  0
  7  8  1  0  0  0  0
  8  9  1  0  0  0  0
  9 10  1  0  0  0  0
  9 11  2  0  0  0  0
M  CHG  3   1   1   4  -1  11   1
M  END
>  <CHROM.1>
67.34908837,-167.74480130,-156.77674769,-170.63578972,104.62189679,112.55413294
-5.42917868,2.49026983,30.51221636,-2.77039034,0.25602752,-1.79602826

>  <Name>
1koc cryst

>  <RI>
0

>  <Rbt.Current_Directory>
/home/itssahil/PROJECTS/Mol_Feturizer/New_Systems/rnas/1koc

>  <Rbt.Executable>
rbdock ($Id: //depot/dev/client3/rdock/2013.1/src/exe/rbdock.cxx#4 $)

>  <Rbt.Library>
libRbt.so (2013.1, Build901 2013/11/27)

>  <Rbt.Parameter_File>
/export/apps/rDock/src/rDock_2013.1_src/data/scripts/dock_solv.prm

>  <Rbt.Receptor>
prm/blind_docking_80.prm

>  <SCORE>
-22.3155

>  <SCORE.INTER>
-22.5266

>  <SCORE.INTER.CONST>
1

>  <SCORE.INTER.POLAR>
-3.47586

>  <SCORE.INTER.ROT>
5

>  <SCORE.INTER.SOLV>
18.5239

>  <SCORE.INTER.VDW>
-16.5394

>  <SCORE.INTER.norm>
-1.87721

>  <SCORE.INTRA>
0.137934

>  <SCORE.INTRA.DIHEDRAL>
3.0651

>  <SCORE.INTRA.DIHEDRAL.0>
6.04201

>  <SCORE.INTRA.POLAR>
0

>  <SCORE.INTRA.POLAR.0>
0

>  <SCORE.INTRA.REPUL>
0

>  <SCORE.INTRA.REPUL.0>
0

>  <SCORE.INTRA.SOLV>
-0.268241

>  <SCORE.INTRA.SOLV.lig_0>
-71.0481

>  <SCORE.INTRA.VDW>
-1.26049

>  <SCORE.INTRA.VDW.0>
0.968882

>  <SCORE.INTRA.norm>
0.0114945

>  <SCORE.RESTR>
0.073098

>  <SCORE.RESTR.CAVITY>
0.073098

>  <SCORE.RESTR.norm>
0.0060915

>  <SCORE.SYSTEM>
0

>  <SCORE.SYSTEM.CONST>
0

>  <SCORE.SYSTEM.DIHEDRAL>
0

>  <SCORE.SYSTEM.SOLV>
0

>  <SCORE.SYSTEM.norm>
0

>  <SCORE.heavy>
12

>  <SCORE.norm>
-1.85963

>  <SYMMETRIC_BONDS>
11 12 2
5 6 2

>  <RMSD>
10.102

$$$$
1koc cryst
 OpenBabel11021811393D
libRbt.so/2013.1/901 2013/11/27
 12 11  0  0  0  0  0  0  0  0999 V2000
   -3.7444   -3.2825   27.5452 N   0  3  0  0  0  0  0  0  0  0  0  0
   -4.1702   -1.9081   27.1420 C   0  0  2  0  0  0  0  0  0  0  0  0
   -4.5054   -1.9069   25.6377 C   0  0  0  0  0  0  0  0  0  0  0  0
   -3.8016   -2.5732   24.8935 O   0  5  0  0  0  0  0  0  0  0  0  0
   -3.0240   -0.9085   27.4540 C   0  0  0  0  0  0  0  0  0  0  0  0
   -3.2596   -0.1994   28.7928 C   0  0  0  0  0  0  0  0  0  0  0  0
   -2.3332    1.0066   28.9032 C   0  0  0  0  0  0  0  0  0  0  0  0
   -2.8590    1.9584   29.9250 N   0  0  0  0  0  0  0  0  0  0  0  0
   -2.0481    2.5051   30.7987 C   0  0  0  0  0  0  0  0  0  0  0  0
   -0.8295    2.8377   30.4520 N   0  0  0  0  0  0  0  0  0  0  0  0
   -2.4586    2.7241   32.0203 N   0  3  0  0  0  0  0  0  0  0  0  0
   -5.4500   -1.2335   25.2535 O   0  0  0  0  0  0  0  0  0  0  0  0
  2  1  1  6  0  0  0
  2  5  1  0  0  0  0
  2  3  1  0  0  0  0
  3  4  1  0  0  0  0
  3 12  2  0  0  0  0
  5  6  1  0  0  0  0
  6  7  1  0  0  0  0
  7  8  1  0  0  0  0
  8  9  1  0  0  0  0
  9 10  1  0  0  0  0
  9 11  2  0  0  0  0
M  CHG  3   1   1   4  -1  11   1
M  END
>  <CHROM.1>
74.08858174,-97.54523866,-38.43128767,-165.68055420,160.10803599,135.79498847
-3.20368885,-0.10073996,28.24192828,-2.50677210,-1.15718284,-0.08465049

>  <Name>
1koc cryst

>  <RI>
0

>  <Rbt.Current_Directory>
/home/itssahil/PROJECTS/Mol_Feturizer/New_Systems/rnas/1koc

>  <Rbt.Executable>
rbdock ($Id: //depot/dev/client3/rdock/2013.1/src/exe/rbdock.cxx#4 $)

>  <Rbt.Library>
libRbt.so (2013.1, Build901 2013/11/27)

>  <Rbt.Parameter_File>
/export/apps/rDock/src/rDock_2013.1_src/data/scripts/dock_solv.prm

>  <Rbt.Receptor>
prm/blind_docking_60.prm

>  <SCORE>
-23.3554

>  <SCORE.INTER>
-22.2523

>  <SCORE.INTER.CONST>
1

>  <SCORE.INTER.POLAR>
-3.50885

>  <SCORE.INTER.ROT>
5

>  <SCORE.INTER.SOLV>
33.7243

>  <SCORE.INTER.VDW>
-21.3135

>  <SCORE.INTER.norm>
-1.85436

>  <SCORE.INTRA>
-1.10308

>  <SCORE.INTRA.DIHEDRAL>
3.60606

>  <SCORE.INTRA.DIHEDRAL.0>
6.04201

>  <SCORE.INTRA.POLAR>
0

>  <SCORE.INTRA.POLAR.0>
0

>  <SCORE.INTRA.REPUL>
0

>  <SCORE.INTRA.REPUL.0>
0

>  <SCORE.INTRA.SOLV>
-1.63461

>  <SCORE.INTRA.SOLV.lig_0>
-71.0481

>  <SCORE.INTRA.VDW>
-2.0888

>  <SCORE.INTRA.VDW.0>
0.968882

>  <SCORE.INTRA.norm>
-0.0919231

>  <SCORE.RESTR>
0

>  <SCORE.RESTR.CAVITY>
0

>  <SCORE.RESTR.norm>
0

>  <SCORE.SYSTEM>
0

>  <SCORE.SYSTEM.CONST>
0

>  <SCORE.SYSTEM.DIHEDRAL>
0

>  <SCORE.SYSTEM.SOLV>
0

>  <SCORE.SYSTEM.norm>
0

>  <SCORE.heavy>
12

>  <SCORE.norm>
-1.94629

>  <SYMMETRIC_BONDS>
11 12 2
5 6 2

>  <RMSD>
10.274

$$$$
1koc cryst
 OpenBabel11021811393D
libRbt.so/2013.1/901 2013/11/27
 12 11  0  0  0  0  0  0  0  0999 V2000
   -8.7322    1.9423   30.9390 N   0  3  0  0  0  0  0  0  0  0  0  0
   -8.2472    3.1893   31.6042 C   0  0  2  0  0  0  0  0  0  0  0  0
   -8.1030    4.3001   30.5455 C   0  0  0  0  0  0  0  0  0  0  0  0
   -8.0351    5.4565   30.9342 O   0  5  0  0  0  0  0  0  0  0  0  0
   -6.8860    2.9018   32.2932 C   0  0  0  0  0  0  0  0  0  0  0  0
   -5.8160    2.5210   31.2632 C   0  0  0  0  0  0  0  0  0  0  0  0
   -4.4943    2.2512   31.9741 C   0  0  0  0  0  0  0  0  0  0  0  0
   -3.4972    1.7119   31.0039 N   0  0  0  0  0  0  0  0  0  0  0  0
   -2.3236    2.2827   30.8758 C   0  0  0  0  0  0  0  0  0  0  0  0
   -1.7149    2.7848   31.9215 N   0  0  0  0  0  0  0  0  0  0  0  0
   -1.7552    2.3469   29.7004 N   0  3  0  0  0  0  0  0  0  0  0  0
   -8.0742    3.9790   29.3668 O   0  0  0  0  0  0  0  0  0  0  0  0
  2  1  1  6  0  0  0
  2  5  1  0  0  0  0
  2  3  1  0  0  0  0
  3  4  1  0  0  0  0
  3 12  2  0  0  0  0
  5  6  1  0  0  0  0
  6  7  1  0  0  0  0
  7  8  1  0  0  0  0
  8  9  1  0  0  0  0
  9 10  1  0  0  0  0
  9 11  2  0  0  0  0
M  CHG  3   1   1   4  -1  11   1
M  END
>  <CHROM.1>
-53.61613999,63.18667022,162.55546185,179.80126189,172.76317038,126.38466263
-5.63902442,2.96211038,31.00618351,2.94483669,0.11209820,-0.63714771

>  <Name>
1koc cryst

>  <RI>
0

>  <Rbt.Current_Directory>
/home/itssahil/PROJECTS/Mol_Feturizer/New_Systems/rnas/1koc

>  <Rbt.Executable>
rbdock ($Id: //depot/dev/client3/rdock/2013.1/src/exe/rbdock.cxx#4 $)

>  <Rbt.Library>
libRbt.so (2013.1, Build901 2013/11/27)

>  <Rbt.Parameter_File>
/export/apps/rDock/src/rDock_2013.1_src/data/scripts/dock_solv.prm

>  <Rbt.Receptor>
prm/blind_docking_80.prm

>  <SCORE>
-18.1409

>  <SCORE.INTER>
-16.2778

>  <SCORE.INTER.CONST>
1

>  <SCORE.INTER.POLAR>
-2.4355

>  <SCORE.INTER.ROT>
5

>  <SCORE.INTER.SOLV>
19.2297

>  <SCORE.INTER.VDW>
-16.0768

>  <SCORE.INTER.norm>
-1.35649

>  <SCORE.INTRA>
-2.5719

>  <SCORE.INTRA.DIHEDRAL>
-2.25827

>  <SCORE.INTRA.DIHEDRAL.0>
6.04201

>  <SCORE.INTRA.POLAR>
0

>  <SCORE.INTRA.POLAR.0>
0

>  <SCORE.INTRA.REPUL>
0

>  <SCORE.INTRA.REPUL.0>
0

>  <SCORE.INTRA.SOLV>
-0.0378607

>  <SCORE.INTRA.SOLV.lig_0>
-71.0481

>  <SCORE.INTRA.VDW>
-1.42383

>  <SCORE.INTRA.VDW.0>
0.968882

>  <SCORE.INTRA.norm>
-0.214325

>  <SCORE.RESTR>
0.708863

>  <SCORE.RESTR.CAVITY>
0.708863

>  <SCORE.RESTR.norm>
0.0590719

>  <SCORE.SYSTEM>
0

>  <SCORE.SYSTEM.CONST>
0

>  <SCORE.SYSTEM.DIHEDRAL>
0

>  <SCORE.SYSTEM.SOLV>
0

>  <SCORE.SYSTEM.norm>
0

>  <SCORE.heavy>
12

>  <SCORE.norm>
-1.51174

>  <SYMMETRIC_BONDS>
11 12 2
5 6 2

>  <RMSD>
10.307

$$$$
1koc cryst
 OpenBabel11021811393D
libRbt.so/2013.1/901 2013/11/27
 12 11  0  0  0  0  0  0  0  0999 V2000
   -3.7737   -3.3688   27.5247 N   0  3  0  0  0  0  0  0  0  0  0  0
   -4.2085   -1.9928   27.1370 C   0  0  2  0  0  0  0  0  0  0  0  0
   -4.5512   -1.9788   25.6344 C   0  0  0  0  0  0  0  0  0  0  0  0
   -3.8701   -2.6629   24.8853 O   0  5  0  0  0  0  0  0  0  0  0  0
   -3.0659   -0.9904   27.4532 C   0  0  0  0  0  0  0  0  0  0  0  0
   -3.2648   -0.3432   28.8288 C   0  0  0  0  0  0  0  0  0  0  0  0
   -2.1522    0.6675   29.0846 C   0  0  0  0  0  0  0  0  0  0  0  0
   -2.6670    1.7864   29.9269 N   0  0  0  0  0  0  0  0  0  0  0  0
   -1.9080    2.3196   30.8539 C   0  0  0  0  0  0  0  0  0  0  0  0
   -0.6198    2.4539   30.6573 N   0  0  0  0  0  0  0  0  0  0  0  0
   -2.4392    2.7240   31.9778 N   0  3  0  0  0  0  0  0  0  0  0  0
   -5.4783   -1.2781   25.2565 O   0  0  0  0  0  0  0  0  0  0  0  0
  2  1  1  6  0  0  0
  2  5  1  0  0  0  0
  2  3  1  0  0  0  0
  3  4  1  0  0  0  0
  3 12  2  0  0  0  0
  5  6  1  0  0  0  0
  6  7  1  0  0  0  0
  7  8  1  0  0  0  0
  8  9  1  0  0  0  0
  9 10  1  0  0  0  0
  9 11  2  0  0  0  0
M  CHG  3   1   1   4  -1  11   1
M  END
>  <CHROM.1>
74.49414085,-94.93203117,-36.47351434,-178.10538181,148.28845358,141.88839021
-3.16355775,-0.23975309,28.27431048,-2.18984759,-0.92835312,0.31172936

>  <Name>
1koc cryst

>  <RI>
0

>  <Rbt.Current_Directory>
/home/itssahil/PROJECTS/Mol_Feturizer/New_Systems/rnas/1koc

>  <Rbt.Executable>
rbdock ($Id: //depot/dev/client3/rdock/2013.1/src/exe/rbdock.cxx#4 $)

>  <Rbt.Library>
libRbt.so (2013.1, Build901 2013/11/27)

>  <Rbt.Parameter_File>
/export/apps/rDock/src/rDock_2013.1_src/data/scripts/dock_solv.prm

>  <Rbt.Receptor>
prm/blind_docking_100.prm

>  <SCORE>
-24.6414

>  <SCORE.INTER>
-23.873

>  <SCORE.INTER.CONST>
1

>  <SCORE.INTER.POLAR>
-3.77353

>  <SCORE.INTER.ROT>
5

>  <SCORE.INTER.SOLV>
33.6603

>  <SCORE.INTER.VDW>
-21.4903

>  <SCORE.INTER.norm>
-1.98942

>  <SCORE.INTRA>
-0.768429

>  <SCORE.INTRA.DIHEDRAL>
4.1358

>  <SCORE.INTRA.DIHEDRAL.0>
6.04201

>  <SCORE.INTRA.POLAR>
0

>  <SCORE.INTRA.POLAR.0>
0

>  <SCORE.INTRA.REPUL>
0

>  <SCORE.INTRA.REPUL.0>
0

>  <SCORE.INTRA.SOLV>
-1.57696

>  <SCORE.INTRA.SOLV.lig_0>
-71.0481

>  <SCORE.INTRA.VDW>
-2.04785

>  <SCORE.INTRA.VDW.0>
0.968882

>  <SCORE.INTRA.norm>
-0.0640357

>  <SCORE.RESTR>
0

>  <SCORE.RESTR.CAVITY>
0

>  <SCORE.RESTR.norm>
0

>  <SCORE.SYSTEM>
0

>  <SCORE.SYSTEM.CONST>
0

>  <SCORE.SYSTEM.DIHEDRAL>
0

>  <SCORE.SYSTEM.SOLV>
0

>  <SCORE.SYSTEM.norm>
0

>  <SCORE.heavy>
12

>  <SCORE.norm>
-2.05345

>  <SYMMETRIC_BONDS>
11 12 2
5 6 2

>  <RMSD>
10.311

$$$$
1koc cryst
 OpenBabel11021811393D
libRbt.so/2013.1/901 2013/11/27
 12 11  0  0  0  0  0  0  0  0999 V2000
   -3.7364   -3.1855   27.3245 N   0  3  0  0  0  0  0  0  0  0  0  0
   -4.2115   -1.8365   26.8917 C   0  0  2  0  0  0  0  0  0  0  0  0
   -4.5873   -1.8915   25.3979 C   0  0  0  0  0  0  0  0  0  0  0  0
   -4.8290   -2.9845   24.9081 O   0  5  0  0  0  0  0  0  0  0  0  0
   -3.0858   -0.7968   27.1409 C   0  0  0  0  0  0  0  0  0  0  0  0
   -3.1901   -0.1976   28.5483 C   0  0  0  0  0  0  0  0  0  0  0  0
   -2.1945    0.9483   28.6918 C   0  0  0  0  0  0  0  0  0  0  0  0
   -2.7882    2.0351   29.5241 N   0  0  0  0  0  0  0  0  0  0  0  0
   -2.2020    2.4126   30.6348 C   0  0  0  0  0  0  0  0  0  0  0  0
   -0.8949    2.4400   30.7162 N   0  0  0  0  0  0  0  0  0  0  0  0
   -2.9246    2.7682   31.6644 N   0  3  0  0  0  0  0  0  0  0  0  0
   -4.6162   -0.8453   24.7672 O   0  0  0  0  0  0  0  0  0  0  0  0
  2  1  1  6  0  0  0
  2  5  1  0  0  0  0
  2  3  1  0  0  0  0
  3  4  1  0  0  0  0
  3 12  2  0  0  0  0
  5  6  1  0  0  0  0
  6  7  1  0  0  0  0
  7  8  1  0  0  0  0
  8  9  1  0  0  0  0
  9 10  1  0  0  0  0
  9 11  2  0  0  0  0
M  CHG  3   1   1   4  -1  11   1
M  END
>  <CHROM.1>
78.61138598,-89.39233617,20.67194457,-172.34911310,143.22940457,120.85000477
-3.27070521,-0.11415575,28.02626219,-2.53688459,-1.17250550,-0.10038229

>  <Name>
1koc cryst

>  <RI>
0

>  <Rbt.Current_Directory>
/home/itssahil/PROJECTS/Mol_Feturizer/New_Systems/rnas/1koc

>  <Rbt.Executable>
rbdock ($Id: //depot/dev/client3/rdock/2013.1/src/exe/rbdock.cxx#4 $)

>  <Rbt.Library>
libRbt.so (2013.1, Build901 2013/11/27)

>  <Rbt.Parameter_File>
/export/apps/rDock/src/rDock_2013.1_src/data/scripts/dock_solv.prm

>  <Rbt.Receptor>
prm/blind_docking_80.prm

>  <SCORE>
-22.1508

>  <SCORE.INTER>
-22.2692

>  <SCORE.INTER.CONST>
1

>  <SCORE.INTER.POLAR>
-3.02459

>  <SCORE.INTER.ROT>
5

>  <SCORE.INTER.SOLV>
32.3438

>  <SCORE.INTER.VDW>
-22.4788

>  <SCORE.INTER.norm>
-1.85577

>  <SCORE.INTRA>
0.118403

>  <SCORE.INTRA.DIHEDRAL>
4.64163

>  <SCORE.INTRA.DIHEDRAL.0>
6.04201

>  <SCORE.INTRA.POLAR>
0

>  <SCORE.INTRA.POLAR.0>
0

>  <SCORE.INTRA.REPUL>
0

>  <SCORE.INTRA.REPUL.0>
0

>  <SCORE.INTRA.SOLV>
-1.26172

>  <SCORE.INTRA.SOLV.lig_0>
-71.0481

>  <SCORE.INTRA.VDW>
-1.57155

>  <SCORE.INTRA.VDW.0>
0.968882

>  <SCORE.INTRA.norm>
0.0098669

>  <SCORE.RESTR>
0

>  <SCORE.RESTR.CAVITY>
0

>  <SCORE.RESTR.norm>
0

>  <SCORE.SYSTEM>
0

>  <SCORE.SYSTEM.CONST>
0

>  <SCORE.SYSTEM.DIHEDRAL>
0

>  <SCORE.SYSTEM.SOLV>
0

>  <SCORE.SYSTEM.norm>
0

>  <SCORE.heavy>
12

>  <SCORE.norm>
-1.8459

>  <SYMMETRIC_BONDS>
11 12 2
5 6 2

>  <RMSD>
10.344

$$$$
1koc cryst
 OpenBabel11021811393D
libRbt.so/2013.1/901 2013/11/27
 12 11  0  0  0  0  0  0  0  0999 V2000
   -8.4222    3.3623   33.3055 N   0  3  0  0  0  0  0  0  0  0  0  0
   -7.7461    3.4453   31.9755 C   0  0  2  0  0  0  0  0  0  0  0  0
   -8.6735    2.8428   30.9020 C   0  0  0  0  0  0  0  0  0  0  0  0
   -9.1044    1.7142   31.0854 O   0  5  0  0  0  0  0  0  0  0  0  0
   -6.4004    2.6739   32.0400 C   0  0  0  0  0  0  0  0  0  0  0  0
   -5.4337    3.1593   30.9534 C   0  0  0  0  0  0  0  0  0  0  0  0
   -4.0541    2.5539   31.1881 C   0  0  0  0  0  0  0  0  0  0  0  0
   -3.8626    1.3687   30.3021 N   0  0  0  0  0  0  0  0  0  0  0  0
   -2.7700    1.2472   29.5872 C   0  0  0  0  0  0  0  0  0  0  0  0
   -1.6184    1.6474   30.0663 N   0  0  0  0  0  0  0  0  0  0  0  0
   -2.8285    0.7195   28.3926 N   0  3  0  0  0  0  0  0  0  0  0  0
   -8.9279    3.5123   29.9119 O   0  0  0  0  0  0  0  0  0  0  0  0
  2  1  1  1  0  0  0
  2  5  1  0  0  0  0
  2  3  1  0  0  0  0
  3  4  1  0  0  0  0
  3 12  2  0  0  0  0
  5  6  1  0  0  0  0
  6  7  1  0  0  0  0
  7  8  1  0  0  0  0
  8  9  1  0  0  0  0
  9 10  1  0  0  0  0
  9 11  2  0  0  0  0
M  CHG  3   1   1   4  -1  11   1
M  END
>  <CHROM.1>
-177.78479087,-157.72885336,-53.45050234,170.64497331,98.84116187,131.23257858
-5.83671667,2.34076440,30.81412447,-2.74992313,0.11889608,-1.97709006

>  <Name>
1koc cryst

>  <RI>
0

>  <Rbt.Current_Directory>
/home/itssahil/PROJECTS/Mol_Feturizer/New_Systems/rnas/1koc

>  <Rbt.Executable>
rbdock ($Id: //depot/dev/client3/rdock/2013.1/src/exe/rbdock.cxx#4 $)

>  <Rbt.Library>
libRbt.so (2013.1, Build901 2013/11/27)

>  <Rbt.Parameter_File>
/export/apps/rDock/src/rDock_2013.1_src/data/scripts/dock_solv.prm

>  <Rbt.Receptor>
prm/blind_docking_80.prm

>  <SCORE>
-25.6963

>  <SCORE.INTER>
-24.3971

>  <SCORE.INTER.CONST>
1

>  <SCORE.INTER.POLAR>
-3.68934

>  <SCORE.INTER.ROT>
5

>  <SCORE.INTER.SOLV>
20.1129

>  <SCORE.INTER.VDW>
-17.6046

>  <SCORE.INTER.norm>
-2.03309

>  <SCORE.INTRA>
-1.29917

>  <SCORE.INTRA.DIHEDRAL>
3.32291

>  <SCORE.INTRA.DIHEDRAL.0>
6.04201

>  <SCORE.INTRA.POLAR>
0

>  <SCORE.INTRA.POLAR.0>
0

>  <SCORE.INTRA.REPUL>
0

>  <SCORE.INTRA.REPUL.0>
0

>  <SCORE.INTRA.SOLV>
-1.45833

>  <SCORE.INTRA.SOLV.lig_0>
-71.0481

>  <SCORE.INTRA.VDW>
-2.23146

>  <SCORE.INTRA.VDW.0>
0.968882

>  <SCORE.INTRA.norm>
-0.108264

>  <SCORE.RESTR>
0

>  <SCORE.RESTR.CAVITY>
0

>  <SCORE.RESTR.norm>
0

>  <SCORE.SYSTEM>
0

>  <SCORE.SYSTEM.CONST>
0

>  <SCORE.SYSTEM.DIHEDRAL>
0

>  <SCORE.SYSTEM.SOLV>
0

>  <SCORE.SYSTEM.norm>
0

>  <SCORE.heavy>
12

>  <SCORE.norm>
-2.14136

>  <SYMMETRIC_BONDS>
11 12 2
5 6 2

>  <RMSD>
10.517

$$$$
1koc cryst
 OpenBabel11021811393D
libRbt.so/2013.1/901 2013/11/27
 12 11  0  0  0  0  0  0  0  0999 V2000
   -2.8073    0.4581   25.5848 N   0  3  0  0  0  0  0  0  0  0  0  0
   -3.2631    0.1606   26.9764 C   0  0  2  0  0  0  0  0  0  0  0  0
   -2.4875    1.0569   27.9615 C   0  0  0  0  0  0  0  0  0  0  0  0
   -2.2199    0.5998   29.0627 O   0  5  0  0  0  0  0  0  0  0  0  0
   -3.0155   -1.3412   27.2824 C   0  0  0  0  0  0  0  0  0  0  0  0
   -4.2204   -2.1944   26.8687 C   0  0  0  0  0  0  0  0  0  0  0  0
   -4.3702   -2.1669   25.3516 C   0  0  0  0  0  0  0  0  0  0  0  0
   -5.7703   -1.8025   24.9864 N   0  0  0  0  0  0  0  0  0  0  0  0
   -5.9993   -0.8822   24.0808 C   0  0  0  0  0  0  0  0  0  0  0  0
   -5.2138   -0.7705   23.0384 N   0  0  0  0  0  0  0  0  0  0  0  0
   -7.0189   -0.0753   24.2153 N   0  3  0  0  0  0  0  0  0  0  0  0
   -2.1844    2.1857   27.6049 O   0  0  0  0  0  0  0  0  0  0  0  0
  2  1  1  6  0  0  0
  2  5  1  0  0  0  0
  2  3  1  0  0  0  0
  3  4  1  0  0  0  0
  3 12  2  0  0  0  0
  5  6  1  0  0  0  0
  6  7  1  0  0  0  0
  7  8  1  0  0  0  0
  8  9  1  0  0  0  0
  9 10  1  0  0  0  0
  9 11  2  0  0  0  0
M  CHG  3   1   1   4  -1  11   1
M  END
>  <CHROM.1>
-64.72587373,-88.78796176,-146.22894082,66.53353669,-128.65826908,132.19934315
-4.04517977,-0.36291627,26.05380909,0.05578584,-0.88359677,-0.38718277

>  <Name>
1koc cryst

>  <RI>
0

>  <Rbt.Current_Directory>
/home/itssahil/PROJECTS/Mol_Feturizer/New_Systems/rnas/1koc

>  <Rbt.Executable>
rbdock ($Id: //depot/dev/client3/rdock/2013.1/src/exe/rbdock.cxx#4 $)

>  <Rbt.Library>
libRbt.so (2013.1, Build901 2013/11/27)

>  <Rbt.Parameter_File>
/export/apps/rDock/src/rDock_2013.1_src/data/scripts/dock_solv.prm

>  <Rbt.Receptor>
prm/blind_docking_60.prm

>  <SCORE>
-21.3109

>  <SCORE.INTER>
-26.5825

>  <SCORE.INTER.CONST>
1

>  <SCORE.INTER.POLAR>
-5.09966

>  <SCORE.INTER.ROT>
5

>  <SCORE.INTER.SOLV>
29.945

>  <SCORE.INTER.VDW>
-17.6378

>  <SCORE.INTER.norm>
-2.21521

>  <SCORE.INTRA>
5.27158

>  <SCORE.INTRA.DIHEDRAL>
5.27163

>  <SCORE.INTRA.DIHEDRAL.0>
6.04201

>  <SCORE.INTRA.POLAR>
0

>  <SCORE.INTRA.POLAR.0>
0

>  <SCORE.INTRA.REPUL>
0.355355

>  <SCORE.INTRA.REPUL.0>
0

>  <SCORE.INTRA.SOLV>
2.22089

>  <SCORE.INTRA.SOLV.lig_0>
-71.0481

>  <SCORE.INTRA.VDW>
-0.251453

>  <SCORE.INTRA.VDW.0>
0.968882

>  <SCORE.INTRA.norm>
0.439299

>  <SCORE.RESTR>
0

>  <SCORE.RESTR.CAVITY>
0

>  <SCORE.RESTR.norm>
0

>  <SCORE.SYSTEM>
0

>  <SCORE.SYSTEM.CONST>
0

>  <SCORE.SYSTEM.DIHEDRAL>
0

>  <SCORE.SYSTEM.SOLV>
0

>  <SCORE.SYSTEM.norm>
0

>  <SCORE.heavy>
12

>  <SCORE.norm>
-1.77591

>  <SYMMETRIC_BONDS>
11 12 2
5 6 2

>  <RMSD>
10.638

$$$$
1koc cryst
 OpenBabel11021811393D
libRbt.so/2013.1/901 2013/11/27
 12 11  0  0  0  0  0  0  0  0999 V2000
   -6.4748   -0.4379   23.7828 N   0  3  0  0  0  0  0  0  0  0  0  0
   -5.0532   -0.6462   24.1933 C   0  0  2  0  0  0  0  0  0  0  0  0
   -4.9816   -1.8360   25.1705 C   0  0  0  0  0  0  0  0  0  0  0  0
   -4.7780   -1.5960   26.3511 O   0  5  0  0  0  0  0  0  0  0  0  0
   -4.5214    0.6506   24.8609 C   0  0  0  0  0  0  0  0  0  0  0  0
   -3.3037    0.3564   25.7449 C   0  0  0  0  0  0  0  0  0  0  0  0
   -3.1443    1.4633   26.7814 C   0  0  0  0  0  0  0  0  0  0  0  0
   -2.0533    1.1110   27.7364 N   0  0  0  0  0  0  0  0  0  0  0  0
   -2.2215    1.2836   29.0254 C   0  0  0  0  0  0  0  0  0  0  0  0
   -3.3920    1.0709   29.5738 N   0  0  0  0  0  0  0  0  0  0  0  0
   -1.2157    1.6647   29.7683 N   0  3  0  0  0  0  0  0  0  0  0  0
   -5.1196   -2.9646   24.7227 O   0  0  0  0  0  0  0  0  0  0  0  0
  2  1  1  1  0  0  0
  2  5  1  0  0  0  0
  2  3  1  0  0  0  0
  3  4  1  0  0  0  0
  3 12  2  0  0  0  0
  5  6  1  0  0  0  0
  6  7  1  0  0  0  0
  7  8  1  0  0  0  0
  8  9  1  0  0  0  0
  9 10  1  0  0  0  0
  9 11  2  0  0  0  0
M  CHG  3   1   1   4  -1  11   1
M  END
>  <CHROM.1>
7.58182106,158.97484895,-106.97471659,-157.79402084,173.93126395,-135.46279423
-3.87927469,-0.00230144,26.48954673,-3.10757443,1.01009883,2.56429569

>  <Name>
1koc cryst

>  <RI>
0

>  <Rbt.Current_Directory>
/home/itssahil/PROJECTS/Mol_Feturizer/New_Systems/rnas/1koc

>  <Rbt.Executable>
rbdock ($Id: //depot/dev/client3/rdock/2013.1/src/exe/rbdock.cxx#4 $)

>  <Rbt.Library>
libRbt.so (2013.1, Build901 2013/11/27)

>  <Rbt.Parameter_File>
/export/apps/rDock/src/rDock_2013.1_src/data/scripts/dock_solv.prm

>  <Rbt.Receptor>
prm/blind_docking_60.prm

>  <SCORE>
-3.78443

>  <SCORE.INTER>
-9.30608

>  <SCORE.INTER.CONST>
1

>  <SCORE.INTER.POLAR>
-3.07826

>  <SCORE.INTER.ROT>
5

>  <SCORE.INTER.SOLV>
31.6441

>  <SCORE.INTER.VDW>
-13.4246

>  <SCORE.INTER.norm>
-0.775507

>  <SCORE.INTRA>
5.52165

>  <SCORE.INTRA.DIHEDRAL>
4.24214

>  <SCORE.INTRA.DIHEDRAL.0>
6.04201

>  <SCORE.INTRA.POLAR>
0

>  <SCORE.INTRA.POLAR.0>
0

>  <SCORE.INTRA.REPUL>
0

>  <SCORE.INTRA.REPUL.0>
0

>  <SCORE.INTRA.SOLV>
-0.195118

>  <SCORE.INTRA.SOLV.lig_0>
-71.0481

>  <SCORE.INTRA.VDW>
3.49814

>  <SCORE.INTRA.VDW.0>
0.968882

>  <SCORE.INTRA.norm>
0.460138

>  <SCORE.RESTR>
0

>  <SCORE.RESTR.CAVITY>
0

>  <SCORE.RESTR.norm>
0

>  <SCORE.SYSTEM>
0

>  <SCORE.SYSTEM.CONST>
0

>  <SCORE.SYSTEM.DIHEDRAL>
0

>  <SCORE.SYSTEM.SOLV>
0

>  <SCORE.SYSTEM.norm>
0

>  <SCORE.heavy>
12

>  <SCORE.norm>
-0.315369

>  <SYMMETRIC_BONDS>
11 12 2
5 6 2

>  <RMSD>
10.847

$$$$
1koc cryst
 OpenBabel11021811393D
libRbt.so/2013.1/901 2013/11/27
 12 11  0  0  0  0  0  0  0  0999 V2000
   -4.1356   -3.1517   27.2977 N   0  3  0  0  0  0  0  0  0  0  0  0
   -4.2165   -1.7976   26.6709 C   0  0  2  0  0  0  0  0  0  0  0  0
   -4.7152   -1.9446   25.2200 C   0  0  0  0  0  0  0  0  0  0  0  0
   -4.9397   -0.9248   24.5855 O   0  5  0  0  0  0  0  0  0  0  0  0
   -2.8131   -1.1349   26.7090 C   0  0  0  0  0  0  0  0  0  0  0  0
   -2.9254    0.3859   26.8688 C   0  0  0  0  0  0  0  0  0  0  0  0
   -2.9649    0.7433   28.3506 C   0  0  0  0  0  0  0  0  0  0  0  0
   -3.5340    2.1112   28.5276 N   0  0  0  0  0  0  0  0  0  0  0  0
   -4.3299    2.3707   29.5370 C   0  0  0  0  0  0  0  0  0  0  0  0
   -4.1241    1.8095   30.7026 N   0  0  0  0  0  0  0  0  0  0  0  0
   -5.3308    3.1971   29.3816 N   0  3  0  0  0  0  0  0  0  0  0  0
   -4.8749   -3.0701   24.7718 O   0  0  0  0  0  0  0  0  0  0  0  0
  2  1  1  6  0  0  0
  2  5  1  0  0  0  0
  2  3  1  0  0  0  0
  3  4  1  0  0  0  0
  3 12  2  0  0  0  0
  5  6  1  0  0  0  0
  6  7  1  0  0  0  0
  7  8  1  0  0  0  0
  8  9  1  0  0  0  0
  9 10  1  0  0  0  0
  9 11  2  0  0  0  0
M  CHG  3   1   1   4  -1  11   1
M  END
>  <CHROM.1>
-66.69505895,-147.21851158,174.51161049,88.68025418,-160.57984718,141.84562721
-4.09774340,-0.13719459,27.39726740,-1.65023183,-1.15768419,0.63932180

>  <Name>
1koc cryst

>  <RI>
0

>  <Rbt.Current_Directory>
/home/itssahil/PROJECTS/Mol_Feturizer/New_Systems/rnas/1koc

>  <Rbt.Executable>
rbdock ($Id: //depot/dev/client3/rdock/2013.1/src/exe/rbdock.cxx#4 $)

>  <Rbt.Library>
libRbt.so (2013.1, Build901 2013/11/27)

>  <Rbt.Parameter_File>
/export/apps/rDock/src/rDock_2013.1_src/data/scripts/dock_solv.prm

>  <Rbt.Receptor>
prm/blind_docking_60.prm

>  <SCORE>
-14.2062

>  <SCORE.INTER>
-14.0409

>  <SCORE.INTER.CONST>
1

>  <SCORE.INTER.POLAR>
-2.29352

>  <SCORE.INTER.ROT>
5

>  <SCORE.INTER.SOLV>
30.451

>  <SCORE.INTER.VDW>
-18.7992

>  <SCORE.INTER.norm>
-1.17008

>  <SCORE.INTRA>
-0.165215

>  <SCORE.INTRA.DIHEDRAL>
4.61508

>  <SCORE.INTRA.DIHEDRAL.0>
6.04201

>  <SCORE.INTRA.POLAR>
0

>  <SCORE.INTRA.POLAR.0>
0

>  <SCORE.INTRA.REPUL>
0

>  <SCORE.INTRA.REPUL.0>
0

>  <SCORE.INTRA.SOLV>
-1.16357

>  <SCORE.INTRA.SOLV.lig_0>
-71.0481

>  <SCORE.INTRA.VDW>
-1.89097

>  <SCORE.INTRA.VDW.0>
0.968882

>  <SCORE.INTRA.norm>
-0.0137679

>  <SCORE.RESTR>
0

>  <SCORE.RESTR.CAVITY>
0

>  <SCORE.RESTR.norm>
0

>  <SCORE.SYSTEM>
0

>  <SCORE.SYSTEM.CONST>
0

>  <SCORE.SYSTEM.DIHEDRAL>
0

>  <SCORE.SYSTEM.SOLV>
0

>  <SCORE.SYSTEM.norm>
0

>  <SCORE.heavy>
12

>  <SCORE.norm>
-1.18385

>  <SYMMETRIC_BONDS>
11 12 2
5 6 2

>  <RMSD>
10.879

$$$$
1koc cryst
 OpenBabel11021811393D
libRbt.so/2013.1/901 2013/11/27
 12 11  0  0  0  0  0  0  0  0999 V2000
   -5.5143    1.5420   21.7153 N   0  3  0  0  0  0  0  0  0  0  0  0
   -6.0299    0.9566   22.9897 C   0  0  2  0  0  0  0  0  0  0  0  0
   -5.5743    1.8390   24.1685 C   0  0  0  0  0  0  0  0  0  0  0  0
   -6.1873    1.7490   25.2216 O   0  5  0  0  0  0  0  0  0  0  0  0
   -5.4882   -0.4905   23.1405 C   0  0  0  0  0  0  0  0  0  0  0  0
   -6.1998   -1.2300   24.2796 C   0  0  0  0  0  0  0  0  0  0  0  0
   -5.2771   -2.3021   24.8489 C   0  0  0  0  0  0  0  0  0  0  0  0
   -4.1173   -1.6613   25.5350 N   0  0  0  0  0  0  0  0  0  0  0  0
   -3.8644   -1.9273   26.7939 C   0  0  0  0  0  0  0  0  0  0  0  0
   -4.0645   -3.1318   27.2684 N   0  0  0  0  0  0  0  0  0  0  0  0
   -3.4055   -0.9879   27.5787 N   0  3  0  0  0  0  0  0  0  0  0  0
   -4.6306    2.5960   23.9967 O   0  0  0  0  0  0  0  0  0  0  0  0
  2  1  1  6  0  0  0
  2  5  1  0  0  0  0
  2  3  1  0  0  0  0
  3  4  1  0  0  0  0
  3 12  2  0  0  0  0
  5  6  1  0  0  0  0
  6  7  1  0  0  0  0
  7  8  1  0  0  0  0
  8  9  1  0  0  0  0
  9 10  1  0  0  0  0
  9 11  2  0  0  0  0
M  CHG  3   1   1   4  -1  11   1
M  END
>  <CHROM.1>
179.55819346,-168.84960995,159.91223007,-152.84468129,67.40288331,123.33686173
-5.00655682,-0.22476151,24.79420540,2.31628446,-1.14483208,-0.07185930

>  <Name>
1koc cryst

>  <RI>
0

>  <Rbt.Current_Directory>
/home/itssahil/PROJECTS/Mol_Feturizer/New_Systems/rnas/1koc

>  <Rbt.Executable>
rbdock ($Id: //depot/dev/client3/rdock/2013.1/src/exe/rbdock.cxx#4 $)

>  <Rbt.Library>
libRbt.so (2013.1, Build901 2013/11/27)

>  <Rbt.Parameter_File>
/export/apps/rDock/src/rDock_2013.1_src/data/scripts/dock_solv.prm

>  <Rbt.Receptor>
prm/blind_docking_60.prm

>  <SCORE>
-15.4718

>  <SCORE.INTER>
-13.9893

>  <SCORE.INTER.CONST>
1

>  <SCORE.INTER.POLAR>
-1.85734

>  <SCORE.INTER.ROT>
5

>  <SCORE.INTER.SOLV>
18.6439

>  <SCORE.INTER.VDW>
-16.283

>  <SCORE.INTER.norm>
-1.16577

>  <SCORE.INTRA>
-1.8642

>  <SCORE.INTRA.DIHEDRAL>
0.646224

>  <SCORE.INTRA.DIHEDRAL.0>
6.04201

>  <SCORE.INTRA.POLAR>
0

>  <SCORE.INTRA.POLAR.0>
0

>  <SCORE.INTRA.REPUL>
0

>  <SCORE.INTRA.REPUL.0>
0

>  <SCORE.INTRA.SOLV>
0.0153188

>  <SCORE.INTRA.SOLV.lig_0>
-71.0481

>  <SCORE.INTRA.VDW>
-2.19497

>  <SCORE.INTRA.VDW.0>
0.968882

>  <SCORE.INTRA.norm>
-0.15535

>  <SCORE.RESTR>
0.381663

>  <SCORE.RESTR.CAVITY>
0.381663

>  <SCORE.RESTR.norm>
0.0318052

>  <SCORE.SYSTEM>
0

>  <SCORE.SYSTEM.CONST>
0

>  <SCORE.SYSTEM.DIHEDRAL>
0

>  <SCORE.SYSTEM.SOLV>
0

>  <SCORE.SYSTEM.norm>
0

>  <SCORE.heavy>
12

>  <SCORE.norm>
-1.28932

>  <SYMMETRIC_BONDS>
11 12 2
5 6 2

>  <RMSD>
11.982

$$$$
1koc cryst
 OpenBabel11021811393D
libRbt.so/2013.1/901 2013/11/27
 12 11  0  0  0  0  0  0  0  0999 V2000
   -2.8993   -0.7512   26.2643 N   0  3  0  0  0  0  0  0  0  0  0  0
   -4.0641   -1.5651   26.7264 C   0  0  2  0  0  0  0  0  0  0  0  0
   -3.6828   -2.2931   28.0302 C   0  0  0  0  0  0  0  0  0  0  0  0
   -3.7414   -3.5135   28.0430 O   0  5  0  0  0  0  0  0  0  0  0  0
   -4.4464   -2.5815   25.6169 C   0  0  0  0  0  0  0  0  0  0  0  0
   -5.6494   -2.0861   24.8056 C   0  0  0  0  0  0  0  0  0  0  0  0
   -5.1607   -1.3135   23.5853 C   0  0  0  0  0  0  0  0  0  0  0  0
   -5.1358    0.1477   23.8864 N   0  0  0  0  0  0  0  0  0  0  0  0
   -5.4333    1.0202   22.9537 C   0  0  0  0  0  0  0  0  0  0  0  0
   -6.3643    0.7535   22.0716 N   0  0  0  0  0  0  0  0  0  0  0  0
   -4.8019    2.1639   22.9062 N   0  3  0  0  0  0  0  0  0  0  0  0
   -3.3505   -1.6208   28.9951 O   0  0  0  0  0  0  0  0  0  0  0  0
  2  1  1  6  0  0  0
  2  5  1  0  0  0  0
  2  3  1  0  0  0  0
  3  4  1  0  0  0  0
  3 12  2  0  0  0  0
  5  6  1  0  0  0  0
  6  7  1  0  0  0  0
  7  8  1  0  0  0  0
  8  9  1  0  0  0  0
  9 10  1  0  0  0  0
  9 11  2  0  0  0  0
M  CHG  3   1   1   4  -1  11   1
M  END
>  <CHROM.1>
-74.15813988,-100.07102971,-121.13912480,92.64075563,-95.34038040,-144.61912224
-4.53437289,-0.93594636,25.32646380,-1.02750005,-0.94697878,-0.54896022

>  <Name>
1koc cryst

>  <RI>
0

>  <Rbt.Current_Directory>
/home/itssahil/PROJECTS/Mol_Feturizer/New_Systems/rnas/1koc

>  <Rbt.Executable>
rbdock ($Id: //depot/dev/client3/rdock/2013.1/src/exe/rbdock.cxx#4 $)

>  <Rbt.Library>
libRbt.so (2013.1, Build901 2013/11/27)

>  <Rbt.Parameter_File>
/export/apps/rDock/src/rDock_2013.1_src/data/scripts/dock_solv.prm

>  <Rbt.Receptor>
prm/blind_docking_60.prm

>  <SCORE>
-18.3495

>  <SCORE.INTER>
-22.235

>  <SCORE.INTER.CONST>
1

>  <SCORE.INTER.POLAR>
-4.45443

>  <SCORE.INTER.ROT>
5

>  <SCORE.INTER.SOLV>
28.0957

>  <SCORE.INTER.VDW>
-16.2738

>  <SCORE.INTER.norm>
-1.85292

>  <SCORE.INTRA>
3.82167

>  <SCORE.INTRA.DIHEDRAL>
8.7231

>  <SCORE.INTRA.DIHEDRAL.0>
6.04201

>  <SCORE.INTRA.POLAR>
0

>  <SCORE.INTRA.POLAR.0>
0

>  <SCORE.INTRA.REPUL>
0.0531567

>  <SCORE.INTRA.REPUL.0>
0

>  <SCORE.INTRA.SOLV>
1.62188

>  <SCORE.INTRA.SOLV.lig_0>
-71.0481

>  <SCORE.INTRA.VDW>
-1.61661

>  <SCORE.INTRA.VDW.0>
0.968882

>  <SCORE.INTRA.norm>
0.318472

>  <SCORE.RESTR>
0.0638557

>  <SCORE.RESTR.CAVITY>
0.0638557

>  <SCORE.RESTR.norm>
0.00532131

>  <SCORE.SYSTEM>
0

>  <SCORE.SYSTEM.CONST>
0

>  <SCORE.SYSTEM.DIHEDRAL>
0

>  <SCORE.SYSTEM.SOLV>
0

>  <SCORE.SYSTEM.norm>
0

>  <SCORE.heavy>
12

>  <SCORE.norm>
-1.52912

>  <SYMMETRIC_BONDS>
11 12 2
5 6 2

>  <RMSD>
12.037

$$$$
1koc cryst
 OpenBabel11021811393D
libRbt.so/2013.1/901 2013/11/27
 12 11  0  0  0  0  0  0  0  0999 V2000
   -4.7841    0.4895   21.9433 N   0  3  0  0  0  0  0  0  0  0  0  0
   -5.9687    0.3110   22.8365 C   0  0  2  0  0  0  0  0  0  0  0  0
   -6.0662    1.5186   23.7892 C   0  0  0  0  0  0  0  0  0  0  0  0
   -5.1814    2.3599   23.7399 O   0  5  0  0  0  0  0  0  0  0  0  0
   -5.8095   -1.0113   23.6342 C   0  0  0  0  0  0  0  0  0  0  0  0
   -4.7005   -0.8909   24.6861 C   0  0  0  0  0  0  0  0  0  0  0  0
   -4.6126   -2.1849   25.4877 C   0  0  0  0  0  0  0  0  0  0  0  0
   -3.6690   -2.0109   26.6303 N   0  0  0  0  0  0  0  0  0  0  0  0
   -3.8577   -2.6674   27.7497 C   0  0  0  0  0  0  0  0  0  0  0  0
   -4.3245   -3.8912   27.7279 N   0  0  0  0  0  0  0  0  0  0  0  0
   -3.5743   -2.1006   28.8931 N   0  3  0  0  0  0  0  0  0  0  0  0
   -7.0144    1.5772   24.5578 O   0  0  0  0  0  0  0  0  0  0  0  0
  2  1  1  6  0  0  0
  2  5  1  0  0  0  0
  2  3  1  0  0  0  0
  3  4  1  0  0  0  0
  3 12  2  0  0  0  0
  5  6  1  0  0  0  0
  6  7  1  0  0  0  0
  7  8  1  0  0  0  0
  8  9  1  0  0  0  0
  9 10  1  0  0  0  0
  9 11  2  0  0  0  0
M  CHG  3   1   1   4  -1  11   1
M  END
>  <CHROM.1>
27.92730914,70.75216303,-3.84204369,177.62669259,-172.27992801,148.69673877
-4.94168062,-0.69471985,25.14293910,-2.61493934,-1.23267309,1.26568636

>  <Name>
1koc cryst

>  <RI>
0

>  <Rbt.Current_Directory>
/home/itssahil/PROJECTS/Mol_Feturizer/New_Systems/rnas/1koc

>  <Rbt.Executable>
rbdock ($Id: //depot/dev/client3/rdock/2013.1/src/exe/rbdock.cxx#4 $)

>  <Rbt.Library>
libRbt.so (2013.1, Build901 2013/11/27)

>  <Rbt.Parameter_File>
/export/apps/rDock/src/rDock_2013.1_src/data/scripts/dock_solv.prm

>  <Rbt.Receptor>
prm/blind_docking_80.prm

>  <SCORE>
-13.4521

>  <SCORE.INTER>
-12.6624

>  <SCORE.INTER.CONST>
1

>  <SCORE.INTER.POLAR>
-2.32664

>  <SCORE.INTER.ROT>
5

>  <SCORE.INTER.SOLV>
24.8093

>  <SCORE.INTER.VDW>
-15.8892

>  <SCORE.INTER.norm>
-1.0552

>  <SCORE.INTRA>
-0.831191

>  <SCORE.INTRA.DIHEDRAL>
0.0401144

>  <SCORE.INTRA.DIHEDRAL.0>
6.04201

>  <SCORE.INTRA.POLAR>
0

>  <SCORE.INTRA.POLAR.0>
0

>  <SCORE.INTRA.REPUL>
0

>  <SCORE.INTRA.REPUL.0>
0

>  <SCORE.INTRA.SOLV>
-0.0484005

>  <SCORE.INTRA.SOLV.lig_0>
-71.0481

>  <SCORE.INTRA.VDW>
-0.827048

>  <SCORE.INTRA.VDW.0>
0.968882

>  <SCORE.INTRA.norm>
-0.0692659

>  <SCORE.RESTR>
0.041429

>  <SCORE.RESTR.CAVITY>
0.041429

>  <SCORE.RESTR.norm>
0.00345242

>  <SCORE.SYSTEM>
0

>  <SCORE.SYSTEM.CONST>
0

>  <SCORE.SYSTEM.DIHEDRAL>
0

>  <SCORE.SYSTEM.SOLV>
0

>  <SCORE.SYSTEM.norm>
0

>  <SCORE.heavy>
12

>  <SCORE.norm>
-1.12101

>  <SYMMETRIC_BONDS>
11 12 2
5 6 2

>  <RMSD>
12.070

$$$$
1koc cryst
 OpenBabel11021811393D
libRbt.so/2013.1/901 2013/11/27
 12 11  0  0  0  0  0  0  0  0999 V2000
   -5.4939    1.0513   21.4855 N   0  3  0  0  0  0  0  0  0  0  0  0
   -5.9430    0.3194   22.7084 C   0  0  2  0  0  0  0  0  0  0  0  0
   -6.6209    1.3155   23.6695 C   0  0  0  0  0  0  0  0  0  0  0  0
   -6.1055    2.4141   23.8129 O   0  5  0  0  0  0  0  0  0  0  0  0
   -4.7139   -0.3490   23.3812 C   0  0  0  0  0  0  0  0  0  0  0  0
   -5.1510   -1.3667   24.4414 C   0  0  0  0  0  0  0  0  0  0  0  0
   -4.0345   -1.5531   25.4630 C   0  0  0  0  0  0  0  0  0  0  0  0
   -4.5745   -2.2057   26.6914 N   0  0  0  0  0  0  0  0  0  0  0  0
   -4.0087   -1.9945   27.8555 C   0  0  0  0  0  0  0  0  0  0  0  0
   -3.5140   -0.8169   28.1462 N   0  0  0  0  0  0  0  0  0  0  0  0
   -3.9423   -2.9616   28.7325 N   0  3  0  0  0  0  0  0  0  0  0  0
   -7.6344    0.9615   24.2533 O   0  0  0  0  0  0  0  0  0  0  0  0
  2  1  1  6  0  0  0
  2  5  1  0  0  0  0
  2  3  1  0  0  0  0
  3  4  1  0  0  0  0
  3 12  2  0  0  0  0
  5  6  1  0  0  0  0
  6  7  1  0  0  0  0
  7  8  1  0  0  0  0
  8  9  1  0  0  0  0
  9 10  1  0  0  0  0
  9 11  2  0  0  0  0
M  CHG  3   1   1   4  -1  11   1
M  END
>  <CHROM.1>
56.29524494,-166.96318844,-41.66379831,-155.84444101,163.32490581,-152.36382425
-5.14584781,-0.40823170,25.05286117,-2.20103753,-0.94421484,1.61870383

>  <Name>
1koc cryst

>  <RI>
0

>  <Rbt.Current_Directory>
/home/itssahil/PROJECTS/Mol_Feturizer/New_Systems/rnas/1koc

>  <Rbt.Executable>
rbdock ($Id: //depot/dev/client3/rdock/2013.1/src/exe/rbdock.cxx#4 $)

>  <Rbt.Library>
libRbt.so (2013.1, Build901 2013/11/27)

>  <Rbt.Parameter_File>
/export/apps/rDock/src/rDock_2013.1_src/data/scripts/dock_solv.prm

>  <Rbt.Receptor>
prm/blind_docking_80.prm

>  <SCORE>
5.73869

>  <SCORE.INTER>
7.8532

>  <SCORE.INTER.CONST>
1

>  <SCORE.INTER.POLAR>
-1.69316

>  <SCORE.INTER.ROT>
5

>  <SCORE.INTER.SOLV>
20.2965

>  <SCORE.INTER.VDW>
-2.81952

>  <SCORE.INTER.norm>
0.654433

>  <SCORE.INTRA>
-2.14201

>  <SCORE.INTRA.DIHEDRAL>
1.11928

>  <SCORE.INTRA.DIHEDRAL.0>
6.04201

>  <SCORE.INTRA.POLAR>
0

>  <SCORE.INTRA.POLAR.0>
0

>  <SCORE.INTRA.REPUL>
0

>  <SCORE.INTRA.REPUL.0>
0

>  <SCORE.INTRA.SOLV>
-1.27061

>  <SCORE.INTRA.SOLV.lig_0>
-71.0481

>  <SCORE.INTRA.VDW>
-2.06635

>  <SCORE.INTRA.VDW.0>
0.968882

>  <SCORE.INTRA.norm>
-0.178501

>  <SCORE.RESTR>
0.0275093

>  <SCORE.RESTR.CAVITY>
0.0275093

>  <SCORE.RESTR.norm>
0.00229244

>  <SCORE.SYSTEM>
0

>  <SCORE.SYSTEM.CONST>
0

>  <SCORE.SYSTEM.DIHEDRAL>
0

>  <SCORE.SYSTEM.SOLV>
0

>  <SCORE.SYSTEM.norm>
0

>  <SCORE.heavy>
12

>  <SCORE.norm>
0.478224

>  <SYMMETRIC_BONDS>
11 12 2
5 6 2

>  <RMSD>
12.173

$$$$
1koc cryst
 OpenBabel11021811393D
libRbt.so/2013.1/901 2013/11/27
 12 11  0  0  0  0  0  0  0  0999 V2000
   -4.1775   -2.8382   26.7177 N   0  3  0  0  0  0  0  0  0  0  0  0
   -4.0451   -1.8391   25.6146 C   0  0  2  0  0  0  0  0  0  0  0  0
   -3.6386   -0.4789   26.2147 C   0  0  0  0  0  0  0  0  0  0  0  0
   -3.7446    0.5131   25.5091 O   0  5  0  0  0  0  0  0  0  0  0  0
   -5.3988   -1.7294   24.8625 C   0  0  0  0  0  0  0  0  0  0  0  0
   -5.2018   -1.1616   23.4520 C   0  0  0  0  0  0  0  0  0  0  0  0
   -5.5459    0.3239   23.4456 C   0  0  0  0  0  0  0  0  0  0  0  0
   -5.2596    0.9053   22.1016 N   0  0  0  0  0  0  0  0  0  0  0  0
   -6.1875    0.9175   21.1751 C   0  0  0  0  0  0  0  0  0  0  0  0
   -7.4416    1.1147   21.4979 N   0  0  0  0  0  0  0  0  0  0  0  0
   -5.8598    0.7373   19.9225 N   0  3  0  0  0  0  0  0  0  0  0  0
   -3.2188   -0.4523   27.3620 O   0  0  0  0  0  0  0  0  0  0  0  0
  2  1  1  1  0  0  0
  2  5  1  0  0  0  0
  2  3  1  0  0  0  0
  3  4  1  0  0  0  0
  3 12  2  0  0  0  0
  5  6  1  0  0  0  0
  6  7  1  0  0  0  0
  7  8  1  0  0  0  0
  8  9  1  0  0  0  0
  9 10  1  0  0  0  0
  9 11  2  0  0  0  0
M  CHG  3   1   1   4  -1  11   1
M  END
>  <CHROM.1>
-44.08077020,-158.52586723,-165.54232693,-99.61802548,175.80704729,90.02014846
-4.97534249,-0.33712398,24.00259969,0.83618287,0.96048824,2.59602552

>  <Name>
1koc cryst

>  <RI>
0

>  <Rbt.Current_Directory>
/home/itssahil/PROJECTS/Mol_Feturizer/New_Systems/rnas/1koc

>  <Rbt.Executable>
rbdock ($Id: //depot/dev/client3/rdock/2013.1/src/exe/rbdock.cxx#4 $)

>  <Rbt.Library>
libRbt.so (2013.1, Build901 2013/11/27)

>  <Rbt.Parameter_File>
/export/apps/rDock/src/rDock_2013.1_src/data/scripts/dock_solv.prm

>  <Rbt.Receptor>
prm/blind_docking_60.prm

>  <SCORE>
-13.5738

>  <SCORE.INTER>
-15.1694

>  <SCORE.INTER.CONST>
1

>  <SCORE.INTER.POLAR>
-3.45719

>  <SCORE.INTER.ROT>
5

>  <SCORE.INTER.SOLV>
25.6392

>  <SCORE.INTER.VDW>
-14.0687

>  <SCORE.INTER.norm>
-1.26412

>  <SCORE.INTRA>
1.19886

>  <SCORE.INTRA.DIHEDRAL>
4.03849

>  <SCORE.INTRA.DIHEDRAL.0>
6.04201

>  <SCORE.INTRA.POLAR>
0

>  <SCORE.INTRA.POLAR.0>
0

>  <SCORE.INTRA.REPUL>
0

>  <SCORE.INTRA.REPUL.0>
0

>  <SCORE.INTRA.SOLV>
0.236206

>  <SCORE.INTRA.SOLV.lig_0>
-71.0481

>  <SCORE.INTRA.VDW>
-0.938491

>  <SCORE.INTRA.VDW.0>
0.968882

>  <SCORE.INTRA.norm>
0.0999047

>  <SCORE.RESTR>
0.396763

>  <SCORE.RESTR.CAVITY>
0.396763

>  <SCORE.RESTR.norm>
0.0330636

>  <SCORE.SYSTEM>
0

>  <SCORE.SYSTEM.CONST>
0

>  <SCORE.SYSTEM.DIHEDRAL>
0

>  <SCORE.SYSTEM.SOLV>
0

>  <SCORE.SYSTEM.norm>
0

>  <SCORE.heavy>
12

>  <SCORE.norm>
-1.13115

>  <SYMMETRIC_BONDS>
11 12 2
5 6 2

>  <RMSD>
12.711

$$$$
1koc cryst
 OpenBabel11021811393D
libRbt.so/2013.1/901 2013/11/27
 12 11  0  0  0  0  0  0  0  0999 V2000
   -1.3492   -9.5258   39.0457 N   0  3  0  0  0  0  0  0  0  0  0  0
   -0.3970   -8.9337   38.0581 C   0  0  2  0  0  0  0  0  0  0  0  0
   -0.4356   -7.3979   38.1814 C   0  0  0  0  0  0  0  0  0  0  0  0
   -1.4872   -6.8293   37.9286 O   0  5  0  0  0  0  0  0  0  0  0  0
   -0.8016   -9.3841   36.6285 C   0  0  0  0  0  0  0  0  0  0  0  0
   -0.4142  -10.8468   36.3807 C   0  0  0  0  0  0  0  0  0  0  0  0
    1.0956  -10.9520   36.1953 C   0  0  0  0  0  0  0  0  0  0  0  0
    1.4242  -11.0300   34.7420 N   0  0  0  0  0  0  0  0  0  0  0  0
    2.2967  -10.2043   34.2160 C   0  0  0  0  0  0  0  0  0  0  0  0
    3.3490   -9.8301   34.9006 N   0  0  0  0  0  0  0  0  0  0  0  0
    2.1190   -9.7559   33.0010 N   0  3  0  0  0  0  0  0  0  0  0  0
    0.5861   -6.8159   38.5143 O   0  0  0  0  0  0  0  0  0  0  0  0
  2  1  1  1  0  0  0
  2  5  1  0  0  0  0
  2  3  1  0  0  0  0
  3  4  1  0  0  0  0
  3 12  2  0  0  0  0
  5  6  1  0  0  0  0
  6  7  1  0  0  0  0
  7  8  1  0  0  0  0
  8  9  1  0  0  0  0
  9 10  1  0  0  0  0
  9 11  2  0  0  0  0
M  CHG  3   1   1   4  -1  11   1
M  END
>  <CHROM.1>
-169.79653664,-75.00993820,-62.92516166,-73.68774787,-99.66810738,127.34555300
0.49479170,-9.27762780,36.49398474,2.40297145,0.76220899,0.40127912

>  <Name>
1koc cryst

>  <RI>
0

>  <Rbt.Current_Directory>
/home/itssahil/PROJECTS/Mol_Feturizer/New_Systems/rnas/1koc

>  <Rbt.Executable>
rbdock ($Id: //depot/dev/client3/rdock/2013.1/src/exe/rbdock.cxx#4 $)

>  <Rbt.Library>
libRbt.so (2013.1, Build901 2013/11/27)

>  <Rbt.Parameter_File>
/export/apps/rDock/src/rDock_2013.1_src/data/scripts/dock_solv.prm

>  <Rbt.Receptor>
prm/blind_docking_60.prm

>  <SCORE>
-10.235

>  <SCORE.INTER>
-9.99805

>  <SCORE.INTER.CONST>
1

>  <SCORE.INTER.POLAR>
-2.9485

>  <SCORE.INTER.ROT>
5

>  <SCORE.INTER.SOLV>
21.9093

>  <SCORE.INTER.VDW>
-11.0735

>  <SCORE.INTER.norm>
-0.833171

>  <SCORE.INTRA>
-0.923905

>  <SCORE.INTRA.DIHEDRAL>
3.25873

>  <SCORE.INTRA.DIHEDRAL.0>
6.04201

>  <SCORE.INTRA.POLAR>
0

>  <SCORE.INTRA.POLAR.0>
0

>  <SCORE.INTRA.REPUL>
0

>  <SCORE.INTRA.REPUL.0>
0

>  <SCORE.INTRA.SOLV>
-1.05261

>  <SCORE.INTRA.SOLV.lig_0>
-71.0481

>  <SCORE.INTRA.VDW>
-2.02696

>  <SCORE.INTRA.VDW.0>
0.968882

>  <SCORE.INTRA.norm>
-0.076992

>  <SCORE.RESTR>
0.686998

>  <SCORE.RESTR.CAVITY>
0.686998

>  <SCORE.RESTR.norm>
0.0572498

>  <SCORE.SYSTEM>
0

>  <SCORE.SYSTEM.CONST>
0

>  <SCORE.SYSTEM.DIHEDRAL>
0

>  <SCORE.SYSTEM.SOLV>
0

>  <SCORE.SYSTEM.norm>
0

>  <SCORE.heavy>
12

>  <SCORE.norm>
-0.852913

>  <SYMMETRIC_BONDS>
11 12 2
5 6 2

>  <RMSD>
15.615

$$$$
1koc cryst
 OpenBabel11021811393D
libRbt.so/2013.1/901 2013/11/27
 12 11  0  0  0  0  0  0  0  0999 V2000
   -2.7373  -10.5841   35.1248 N   0  3  0  0  0  0  0  0  0  0  0  0
   -2.2714   -9.6042   36.1521 C   0  0  2  0  0  0  0  0  0  0  0  0
   -0.7343   -9.6672   36.2460 C   0  0  0  0  0  0  0  0  0  0  0  0
   -0.0925   -8.7501   35.7560 O   0  5  0  0  0  0  0  0  0  0  0  0
   -2.9236   -9.9504   37.5178 C   0  0  0  0  0  0  0  0  0  0  0  0
   -3.8534   -8.8248   37.9861 C   0  0  0  0  0  0  0  0  0  0  0  0
   -3.2801   -8.1762   39.2413 C   0  0  0  0  0  0  0  0  0  0  0  0
   -3.1153   -6.7092   39.0244 N   0  0  0  0  0  0  0  0  0  0  0  0
   -4.1636   -5.9216   39.0061 C   0  0  0  0  0  0  0  0  0  0  0  0
   -5.1779   -6.1523   39.8022 N   0  0  0  0  0  0  0  0  0  0  0  0
   -4.1952   -4.8981   38.1934 N   0  3  0  0  0  0  0  0  0  0  0  0
   -0.2248  -10.6332   36.7942 O   0  0  0  0  0  0  0  0  0  0  0  0
  2  1  1  6  0  0  0
  2  5  1  0  0  0  0
  2  3  1  0  0  0  0
  3  4  1  0  0  0  0
  3 12  2  0  0  0  0
  5  6  1  0  0  0  0
  6  7  1  0  0  0  0
  7  8  1  0  0  0  0
  8  9  1  0  0  0  0
  9 10  1  0  0  0  0
  9 11  2  0  0  0  0
M  CHG  3   1   1   4  -1  11   1
M  END
>  <CHROM.1>
-53.59603542,-115.85842117,105.80496587,-113.50836791,124.06287676,73.69126555
-2.73011137,-8.32227680,37.54206510,0.93617844,-0.47598655,-2.81735298

>  <Name>
1koc cryst

>  <RI>
0

>  <Rbt.Current_Directory>
/home/itssahil/PROJECTS/Mol_Feturizer/New_Systems/rnas/1koc

>  <Rbt.Executable>
rbdock ($Id: //depot/dev/client3/rdock/2013.1/src/exe/rbdock.cxx#4 $)

>  <Rbt.Library>
libRbt.so (2013.1, Build901 2013/11/27)

>  <Rbt.Parameter_File>
/export/apps/rDock/src/rDock_2013.1_src/data/scripts/dock_solv.prm

>  <Rbt.Receptor>
prm/blind_docking_80.prm

>  <SCORE>
-12.7417

>  <SCORE.INTER>
-17.2643

>  <SCORE.INTER.CONST>
1

>  <SCORE.INTER.POLAR>
-3.31225

>  <SCORE.INTER.ROT>
5

>  <SCORE.INTER.SOLV>
19.4105

>  <SCORE.INTER.VDW>
-13.8722

>  <SCORE.INTER.norm>
-1.43869

>  <SCORE.INTRA>
4.07637

>  <SCORE.INTRA.DIHEDRAL>
13.9643

>  <SCORE.INTRA.DIHEDRAL.0>
6.04201

>  <SCORE.INTRA.POLAR>
0

>  <SCORE.INTRA.POLAR.0>
0

>  <SCORE.INTRA.REPUL>
0

>  <SCORE.INTRA.REPUL.0>
0

>  <SCORE.INTRA.SOLV>
-1.43536

>  <SCORE.INTRA.SOLV.lig_0>
-71.0481

>  <SCORE.INTRA.VDW>
-2.18808

>  <SCORE.INTRA.VDW.0>
0.968882

>  <SCORE.INTRA.norm>
0.339698

>  <SCORE.RESTR>
0.446179

>  <SCORE.RESTR.CAVITY>
0.446179

>  <SCORE.RESTR.norm>
0.0371816

>  <SCORE.SYSTEM>
0

>  <SCORE.SYSTEM.CONST>
0

>  <SCORE.SYSTEM.DIHEDRAL>
0

>  <SCORE.SYSTEM.SOLV>
0

>  <SCORE.SYSTEM.norm>
0

>  <SCORE.heavy>
12

>  <SCORE.norm>
-1.06181

>  <SYMMETRIC_BONDS>
11 12 2
5 6 2

>  <RMSD>
16.337

$$$$
1koc cryst
 OpenBabel11021811393D
libRbt.so/2013.1/901 2013/11/27
 12 11  0  0  0  0  0  0  0  0999 V2000
   -3.3883  -11.1501   25.4998 N   0  3  0  0  0  0  0  0  0  0  0  0
   -4.6581  -10.8242   24.7826 C   0  0  2  0  0  0  0  0  0  0  0  0
   -4.3178  -10.2670   23.3865 C   0  0  0  0  0  0  0  0  0  0  0  0
   -3.1583   -9.9536   23.1619 O   0  5  0  0  0  0  0  0  0  0  0  0
   -5.4587   -9.7851   25.6128 C   0  0  0  0  0  0  0  0  0  0  0  0
   -6.8779   -9.6119   25.0589 C   0  0  0  0  0  0  0  0  0  0  0  0
   -7.7802   -9.0231   26.1378 C   0  0  0  0  0  0  0  0  0  0  0  0
   -7.2133   -7.7314   26.6241 N   0  0  0  0  0  0  0  0  0  0  0  0
   -7.4708   -6.6146   25.9868 C   0  0  0  0  0  0  0  0  0  0  0  0
   -8.6468   -6.4193   25.4438 N   0  0  0  0  0  0  0  0  0  0  0  0
   -6.5519   -5.6892   25.8968 N   0  3  0  0  0  0  0  0  0  0  0  0
   -5.2206  -10.1523   22.5709 O   0  0  0  0  0  0  0  0  0  0  0  0
  2  1  1  1  0  0  0
  2  5  1  0  0  0  0
  2  3  1  0  0  0  0
  3  4  1  0  0  0  0
  3 12  2  0  0  0  0
  5  6  1  0  0  0  0
  6  7  1  0  0  0  0
  7  8  1  0  0  0  0
  8  9  1  0  0  0  0
  9 10  1  0  0  0  0
  9 11  2  0  0  0  0
M  CHG  3   1   1   4  -1  11   1
M  END
>  <CHROM.1>
62.61539430,-169.46655574,-12.59397005,159.14089127,56.74227964,85.03242111
-5.86015921,-8.92259983,25.01103191,0.18174887,-0.84045028,2.29131325

>  <Name>
1koc cryst

>  <RI>
0

>  <Rbt.Current_Directory>
/home/itssahil/PROJECTS/Mol_Feturizer/New_Systems/rnas/1koc

>  <Rbt.Executable>
rbdock ($Id: //depot/dev/client3/rdock/2013.1/src/exe/rbdock.cxx#4 $)

>  <Rbt.Library>
libRbt.so (2013.1, Build901 2013/11/27)

>  <Rbt.Parameter_File>
/export/apps/rDock/src/rDock_2013.1_src/data/scripts/dock_solv.prm

>  <Rbt.Receptor>
prm/blind_docking_80.prm

>  <SCORE>
-25.876

>  <SCORE.INTER>
-24.6406

>  <SCORE.INTER.CONST>
1

>  <SCORE.INTER.POLAR>
-4.82606

>  <SCORE.INTER.ROT>
5

>  <SCORE.INTER.SOLV>
25.7514

>  <SCORE.INTER.VDW>
-15.8573

>  <SCORE.INTER.norm>
-2.05338

>  <SCORE.INTRA>
-2.23608

>  <SCORE.INTRA.DIHEDRAL>
-0.523761

>  <SCORE.INTRA.DIHEDRAL.0>
6.04201

>  <SCORE.INTRA.POLAR>
0

>  <SCORE.INTRA.POLAR.0>
0

>  <SCORE.INTRA.REPUL>
0

>  <SCORE.INTRA.REPUL.0>
0

>  <SCORE.INTRA.SOLV>
-0.521214

>  <SCORE.INTRA.SOLV.lig_0>
-71.0481

>  <SCORE.INTRA.VDW>
-1.71359

>  <SCORE.INTRA.VDW.0>
0.968882

>  <SCORE.INTRA.norm>
-0.18634

>  <SCORE.RESTR>
1.00073

>  <SCORE.RESTR.CAVITY>
1.00073

>  <SCORE.RESTR.norm>
0.0833938

>  <SCORE.SYSTEM>
0

>  <SCORE.SYSTEM.CONST>
0

>  <SCORE.SYSTEM.DIHEDRAL>
0

>  <SCORE.SYSTEM.SOLV>
0

>  <SCORE.SYSTEM.norm>
0

>  <SCORE.heavy>
12

>  <SCORE.norm>
-2.15633

>  <SYMMETRIC_BONDS>
11 12 2
5 6 2

>  <RMSD>
18.081

$$$$
