ligand
 OpenBabel11021811423D
libRbt.so/2013.1/901 2013/11/27
 10 11  0  0  0  0  0  0  0  0999 V2000
  -12.0612  -10.9103    9.2853 N   0  0  0  0  0  0  0  0  0  0  0  0
  -11.9032  -12.2649    9.5847 C   0  0  0  0  0  0  0  0  0  0  0  0
  -11.5995  -13.1791    8.6460 N   0  0  0  0  0  0  0  0  0  0  0  0
  -11.4594  -12.6313    7.3739 C   0  0  0  0  0  0  0  0  0  0  0  0
  -11.6044  -11.2987    6.9839 C   0  0  0  0  0  0  0  0  0  0  0  0
  -11.9357  -10.3176    7.9840 C   0  0  0  0  0  0  0  0  0  0  0  0
  -12.1095   -9.1260    7.8977 O   0  0  0  0  0  0  0  0  0  0  0  0
  -11.3616  -11.2029    5.6015 N   0  0  0  0  0  0  0  0  0  0  0  0
  -11.0738  -12.4695    5.1972 C   0  0  0  0  0  0  0  0  0  0  0  0
  -11.1277  -13.3701    6.2703 N   0  0  0  0  0  0  0  0  0  0  0  0
  1  2  1  0  0  0  0
  1  6  1  0  0  0  0
  2  3  2  0  0  0  0
  3  4  1  0  0  0  0
  4  5  2  0  0  0  0
  4 10  1  0  0  0  0
  5  6  1  0  0  0  0
  5  8  1  0  0  0  0
  6  7  2  0  0  0  0
  8  9  1  0  0  0  0
  9 10  2  0  0  0  0
M  END
>  <CHROM.1>
-11.63306507,-11.62951593,7.49308191,-3.06266581,1.33365332,-0.72806622

>  <Name>
ligand

>  <RI>
0

>  <Rbt.Current_Directory>
/home/itssahil/PROJECTS/Mol_Feturizer/New_Systems/rnas/2EES

>  <Rbt.Executable>
rbdock ($Id: //depot/dev/client3/rdock/2013.1/src/exe/rbdock.cxx#4 $)

>  <Rbt.Library>
libRbt.so (2013.1, Build901 2013/11/27)

>  <Rbt.Parameter_File>
/export/apps/rDock/src/rDock_2013.1_src/data/scripts/dock_solv.prm

>  <Rbt.Receptor>
prm/pocket_docking_5.prm

>  <SCORE>
-16.6435

>  <SCORE.INTER>
-16.6435

>  <SCORE.INTER.CONST>
1

>  <SCORE.INTER.POLAR>
0

>  <SCORE.INTER.ROT>
0

>  <SCORE.INTER.SOLV>
3.6518

>  <SCORE.INTER.VDW>
-15.9129

>  <SCORE.INTER.norm>
-1.66435

>  <SCORE.INTRA>
0

>  <SCORE.INTRA.DIHEDRAL>
0

>  <SCORE.INTRA.DIHEDRAL.0>
0

>  <SCORE.INTRA.POLAR>
0

>  <SCORE.INTRA.POLAR.0>
0

>  <SCORE.INTRA.REPUL>
0

>  <SCORE.INTRA.REPUL.0>
0

>  <SCORE.INTRA.SOLV>
0

>  <SCORE.INTRA.SOLV.lig_0>
-4.28614

>  <SCORE.INTRA.VDW>
0

>  <SCORE.INTRA.VDW.0>
0

>  <SCORE.INTRA.norm>
0

>  <SCORE.RESTR>
0

>  <SCORE.RESTR.CAVITY>
0

>  <SCORE.RESTR.norm>
0

>  <SCORE.SYSTEM>
0

>  <SCORE.SYSTEM.CONST>
0

>  <SCORE.SYSTEM.DIHEDRAL>
0

>  <SCORE.SYSTEM.SOLV>
0

>  <SCORE.SYSTEM.norm>
0

>  <SCORE.heavy>
10

>  <SCORE.norm>
-1.66435

>  <RMSD>
0.341

$$$$
ligand
 OpenBabel11021811423D
libRbt.so/2013.1/901 2013/11/27
 10 11  0  0  0  0  0  0  0  0999 V2000
  -12.0414  -11.2241    9.1300 N   0  0  0  0  0  0  0  0  0  0  0  0
  -11.8178  -12.5982    9.2362 C   0  0  0  0  0  0  0  0  0  0  0  0
  -11.4716  -13.3550    8.1795 N   0  0  0  0  0  0  0  0  0  0  0  0
  -11.3600  -12.6271    6.9982 C   0  0  0  0  0  0  0  0  0  0  0  0
  -11.5697  -11.2612    6.7993 C   0  0  0  0  0  0  0  0  0  0  0  0
  -11.9466  -10.4482    7.9260 C   0  0  0  0  0  0  0  0  0  0  0  0
  -12.1778   -9.2660    8.0078 O   0  0  0  0  0  0  0  0  0  0  0  0
  -11.3338  -10.9597    5.4456 N   0  0  0  0  0  0  0  0  0  0  0  0
  -10.9857  -12.1412    4.8682 C   0  0  0  0  0  0  0  0  0  0  0  0
  -10.9946  -13.1858    5.8032 N   0  0  0  0  0  0  0  0  0  0  0  0
  1  2  1  0  0  0  0
  1  6  1  0  0  0  0
  2  3  2  0  0  0  0
  3  4  1  0  0  0  0
  4  5  2  0  0  0  0
  4 10  1  0  0  0  0
  5  6  1  0  0  0  0
  5  8  1  0  0  0  0
  6  7  2  0  0  0  0
  8  9  1  0  0  0  0
  9 10  2  0  0  0  0
M  END
>  <CHROM.1>
-11.58163135,-11.66162113,7.25657001,-2.92389028,1.30008577,-0.72073465

>  <Name>
ligand

>  <RI>
0

>  <Rbt.Current_Directory>
/home/itssahil/PROJECTS/Mol_Feturizer/New_Systems/rnas/2EES

>  <Rbt.Executable>
rbdock ($Id: //depot/dev/client3/rdock/2013.1/src/exe/rbdock.cxx#4 $)

>  <Rbt.Library>
libRbt.so (2013.1, Build901 2013/11/27)

>  <Rbt.Parameter_File>
/export/apps/rDock/src/rDock_2013.1_src/data/scripts/dock_solv.prm

>  <Rbt.Receptor>
prm/pocket_docking_7.prm

>  <SCORE>
-16.9921

>  <SCORE.INTER>
-16.9921

>  <SCORE.INTER.CONST>
1

>  <SCORE.INTER.POLAR>
0

>  <SCORE.INTER.ROT>
0

>  <SCORE.INTER.SOLV>
3.55036

>  <SCORE.INTER.VDW>
-16.1115

>  <SCORE.INTER.norm>
-1.69921

>  <SCORE.INTRA>
0

>  <SCORE.INTRA.DIHEDRAL>
0

>  <SCORE.INTRA.DIHEDRAL.0>
0

>  <SCORE.INTRA.POLAR>
0

>  <SCORE.INTRA.POLAR.0>
0

>  <SCORE.INTRA.REPUL>
0

>  <SCORE.INTRA.REPUL.0>
0

>  <SCORE.INTRA.SOLV>
0

>  <SCORE.INTRA.SOLV.lig_0>
-4.28614

>  <SCORE.INTRA.VDW>
0

>  <SCORE.INTRA.VDW.0>
0

>  <SCORE.INTRA.norm>
0

>  <SCORE.RESTR>
0

>  <SCORE.RESTR.CAVITY>
0

>  <SCORE.RESTR.norm>
0

>  <SCORE.SYSTEM>
0

>  <SCORE.SYSTEM.CONST>
0

>  <SCORE.SYSTEM.DIHEDRAL>
0

>  <SCORE.SYSTEM.SOLV>
0

>  <SCORE.SYSTEM.norm>
0

>  <SCORE.heavy>
10

>  <SCORE.norm>
-1.69921

>  <RMSD>
0.387

$$$$
ligand
 OpenBabel11021811423D
libRbt.so/2013.1/901 2013/11/27
 10 11  0  0  0  0  0  0  0  0999 V2000
  -12.1204  -11.2239    9.0790 N   0  0  0  0  0  0  0  0  0  0  0  0
  -11.8331  -12.5845    9.2048 C   0  0  0  0  0  0  0  0  0  0  0  0
  -11.4306  -13.3346    8.1634 N   0  0  0  0  0  0  0  0  0  0  0  0
  -11.3311  -12.6143    6.9763 C   0  0  0  0  0  0  0  0  0  0  0  0
  -11.6023  -11.2623    6.7582 C   0  0  0  0  0  0  0  0  0  0  0  0
  -12.0396  -10.4568    7.8684 C   0  0  0  0  0  0  0  0  0  0  0  0
  -12.3289   -9.2864    7.9325 O   0  0  0  0  0  0  0  0  0  0  0  0
  -11.3550  -10.9637    5.4059 N   0  0  0  0  0  0  0  0  0  0  0  0
  -10.9394  -12.1329    4.8485 C   0  0  0  0  0  0  0  0  0  0  0  0
  -10.9162  -13.1671    5.7947 N   0  0  0  0  0  0  0  0  0  0  0  0
  1  2  1  0  0  0  0
  1  6  1  0  0  0  0
  2  3  2  0  0  0  0
  3  4  1  0  0  0  0
  4  5  2  0  0  0  0
  4 10  1  0  0  0  0
  5  6  1  0  0  0  0
  5  8  1  0  0  0  0
  6  7  2  0  0  0  0
  8  9  1  0  0  0  0
  9 10  2  0  0  0  0
M  END
>  <CHROM.1>
-11.60387128,-11.65806367,7.21960414,-2.84925699,1.25296443,-0.80295528

>  <Name>
ligand

>  <RI>
0

>  <Rbt.Current_Directory>
/home/itssahil/PROJECTS/Mol_Feturizer/New_Systems/rnas/2EES

>  <Rbt.Executable>
rbdock ($Id: //depot/dev/client3/rdock/2013.1/src/exe/rbdock.cxx#4 $)

>  <Rbt.Library>
libRbt.so (2013.1, Build901 2013/11/27)

>  <Rbt.Parameter_File>
/export/apps/rDock/src/rDock_2013.1_src/data/scripts/dock_solv.prm

>  <Rbt.Receptor>
prm/pocket_docking_5.prm

>  <SCORE>
-16.9278

>  <SCORE.INTER>
-16.9278

>  <SCORE.INTER.CONST>
1

>  <SCORE.INTER.POLAR>
0

>  <SCORE.INTER.ROT>
0

>  <SCORE.INTER.SOLV>
3.36867

>  <SCORE.INTER.VDW>
-16.0081

>  <SCORE.INTER.norm>
-1.69278

>  <SCORE.INTRA>
0

>  <SCORE.INTRA.DIHEDRAL>
0

>  <SCORE.INTRA.DIHEDRAL.0>
0

>  <SCORE.INTRA.POLAR>
0

>  <SCORE.INTRA.POLAR.0>
0

>  <SCORE.INTRA.REPUL>
0

>  <SCORE.INTRA.REPUL.0>
0

>  <SCORE.INTRA.SOLV>
0

>  <SCORE.INTRA.SOLV.lig_0>
-4.28614

>  <SCORE.INTRA.VDW>
0

>  <SCORE.INTRA.VDW.0>
0

>  <SCORE.INTRA.norm>
0

>  <SCORE.RESTR>
0

>  <SCORE.RESTR.CAVITY>
0

>  <SCORE.RESTR.norm>
0

>  <SCORE.SYSTEM>
0

>  <SCORE.SYSTEM.CONST>
0

>  <SCORE.SYSTEM.DIHEDRAL>
0

>  <SCORE.SYSTEM.SOLV>
0

>  <SCORE.SYSTEM.norm>
0

>  <SCORE.heavy>
10

>  <SCORE.norm>
-1.69278

>  <RMSD>
0.389

$$$$
ligand
 OpenBabel11021811423D
libRbt.so/2013.1/901 2013/11/27
 10 11  0  0  0  0  0  0  0  0999 V2000
  -12.0679  -11.2153    9.1021 N   0  0  0  0  0  0  0  0  0  0  0  0
  -11.8139  -12.5827    9.2254 C   0  0  0  0  0  0  0  0  0  0  0  0
  -11.4510  -13.3448    8.1782 N   0  0  0  0  0  0  0  0  0  0  0  0
  -11.3553  -12.6294    6.9879 C   0  0  0  0  0  0  0  0  0  0  0  0
  -11.5952  -11.2712    6.7720 C   0  0  0  0  0  0  0  0  0  0  0  0
  -11.9902  -10.4526    7.8885 C   0  0  0  0  0  0  0  0  0  0  0  0
  -12.2475   -9.2750    7.9556 O   0  0  0  0  0  0  0  0  0  0  0  0
  -11.3659  -10.9813    5.4146 N   0  0  0  0  0  0  0  0  0  0  0  0
  -10.9918  -12.1620    4.8519 C   0  0  0  0  0  0  0  0  0  0  0  0
  -10.9776  -13.1948    5.7999 N   0  0  0  0  0  0  0  0  0  0  0  0
  1  2  1  0  0  0  0
  1  6  1  0  0  0  0
  2  3  2  0  0  0  0
  3  4  1  0  0  0  0
  4  5  2  0  0  0  0
  4 10  1  0  0  0  0
  5  6  1  0  0  0  0
  5  8  1  0  0  0  0
  6  7  2  0  0  0  0
  8  9  1  0  0  0  0
  9 10  2  0  0  0  0
M  END
>  <CHROM.1>
-11.59836873,-11.66595465,7.23422378,-2.86510169,1.28492453,-0.78975493

>  <Name>
ligand

>  <RI>
0

>  <Rbt.Current_Directory>
/home/itssahil/PROJECTS/Mol_Feturizer/New_Systems/rnas/2EES

>  <Rbt.Executable>
rbdock ($Id: //depot/dev/client3/rdock/2013.1/src/exe/rbdock.cxx#4 $)

>  <Rbt.Library>
libRbt.so (2013.1, Build901 2013/11/27)

>  <Rbt.Parameter_File>
/export/apps/rDock/src/rDock_2013.1_src/data/scripts/dock_solv.prm

>  <Rbt.Receptor>
prm/pocket_docking_3.prm

>  <SCORE>
-16.9982

>  <SCORE.INTER>
-16.9982

>  <SCORE.INTER.CONST>
1

>  <SCORE.INTER.POLAR>
0

>  <SCORE.INTER.ROT>
0

>  <SCORE.INTER.SOLV>
3.47505

>  <SCORE.INTER.VDW>
-16.0905

>  <SCORE.INTER.norm>
-1.69982

>  <SCORE.INTRA>
0

>  <SCORE.INTRA.DIHEDRAL>
0

>  <SCORE.INTRA.DIHEDRAL.0>
0

>  <SCORE.INTRA.POLAR>
0

>  <SCORE.INTRA.POLAR.0>
0

>  <SCORE.INTRA.REPUL>
0

>  <SCORE.INTRA.REPUL.0>
0

>  <SCORE.INTRA.SOLV>
0

>  <SCORE.INTRA.SOLV.lig_0>
-4.28614

>  <SCORE.INTRA.VDW>
0

>  <SCORE.INTRA.VDW.0>
0

>  <SCORE.INTRA.norm>
0

>  <SCORE.RESTR>
0

>  <SCORE.RESTR.CAVITY>
0

>  <SCORE.RESTR.norm>
0

>  <SCORE.SYSTEM>
0

>  <SCORE.SYSTEM.CONST>
0

>  <SCORE.SYSTEM.DIHEDRAL>
0

>  <SCORE.SYSTEM.SOLV>
0

>  <SCORE.SYSTEM.norm>
0

>  <SCORE.heavy>
10

>  <SCORE.norm>
-1.69982

>  <RMSD>
0.392

$$$$
ligand
 OpenBabel11021811423D
libRbt.so/2013.1/901 2013/11/27
 10 11  0  0  0  0  0  0  0  0999 V2000
  -12.0498  -11.2284    9.1055 N   0  0  0  0  0  0  0  0  0  0  0  0
  -11.7901  -12.5949    9.2278 C   0  0  0  0  0  0  0  0  0  0  0  0
  -11.4270  -13.3554    8.1795 N   0  0  0  0  0  0  0  0  0  0  0  0
  -11.3374  -12.6394    6.9891 C   0  0  0  0  0  0  0  0  0  0  0  0
  -11.5832  -11.2821    6.7740 C   0  0  0  0  0  0  0  0  0  0  0  0
  -11.9784  -10.4653    7.8917 C   0  0  0  0  0  0  0  0  0  0  0  0
  -12.2401   -9.2887    7.9597 O   0  0  0  0  0  0  0  0  0  0  0  0
  -11.3587  -10.9911    5.4161 N   0  0  0  0  0  0  0  0  0  0  0  0
  -10.9814  -12.1702    4.8522 C   0  0  0  0  0  0  0  0  0  0  0  0
  -10.9606  -13.2031    5.7999 N   0  0  0  0  0  0  0  0  0  0  0  0
  1  2  1  0  0  0  0
  1  6  1  0  0  0  0
  2  3  2  0  0  0  0
  3  4  1  0  0  0  0
  4  5  2  0  0  0  0
  4 10  1  0  0  0  0
  5  6  1  0  0  0  0
  5  8  1  0  0  0  0
  6  7  2  0  0  0  0
  8  9  1  0  0  0  0
  9 10  2  0  0  0  0
M  END
>  <CHROM.1>
-11.58352069,-11.67694695,7.23620856,-2.84853340,1.28398214,-0.80549033

>  <Name>
ligand

>  <RI>
0

>  <Rbt.Current_Directory>
/home/itssahil/PROJECTS/Mol_Feturizer/New_Systems/rnas/2EES

>  <Rbt.Executable>
rbdock ($Id: //depot/dev/client3/rdock/2013.1/src/exe/rbdock.cxx#4 $)

>  <Rbt.Library>
libRbt.so (2013.1, Build901 2013/11/27)

>  <Rbt.Parameter_File>
/export/apps/rDock/src/rDock_2013.1_src/data/scripts/dock_solv.prm

>  <Rbt.Receptor>
prm/pocket_docking_6.prm

>  <SCORE>
-17.0107

>  <SCORE.INTER>
-17.0107

>  <SCORE.INTER.CONST>
1

>  <SCORE.INTER.POLAR>
0

>  <SCORE.INTER.ROT>
0

>  <SCORE.INTER.SOLV>
3.4815

>  <SCORE.INTER.VDW>
-16.1009

>  <SCORE.INTER.norm>
-1.70107

>  <SCORE.INTRA>
0

>  <SCORE.INTRA.DIHEDRAL>
0

>  <SCORE.INTRA.DIHEDRAL.0>
0

>  <SCORE.INTRA.POLAR>
0

>  <SCORE.INTRA.POLAR.0>
0

>  <SCORE.INTRA.REPUL>
0

>  <SCORE.INTRA.REPUL.0>
0

>  <SCORE.INTRA.SOLV>
0

>  <SCORE.INTRA.SOLV.lig_0>
-4.28614

>  <SCORE.INTRA.VDW>
0

>  <SCORE.INTRA.VDW.0>
0

>  <SCORE.INTRA.norm>
0

>  <SCORE.RESTR>
0

>  <SCORE.RESTR.CAVITY>
0

>  <SCORE.RESTR.norm>
0

>  <SCORE.SYSTEM>
0

>  <SCORE.SYSTEM.CONST>
0

>  <SCORE.SYSTEM.DIHEDRAL>
0

>  <SCORE.SYSTEM.SOLV>
0

>  <SCORE.SYSTEM.norm>
0

>  <SCORE.heavy>
10

>  <SCORE.norm>
-1.70107

>  <RMSD>
0.392

$$$$
ligand
 OpenBabel11021811423D
libRbt.so/2013.1/901 2013/11/27
 10 11  0  0  0  0  0  0  0  0999 V2000
  -12.0374  -11.2251    9.1276 N   0  0  0  0  0  0  0  0  0  0  0  0
  -11.8160  -12.5997    9.2324 C   0  0  0  0  0  0  0  0  0  0  0  0
  -11.4713  -13.3561    8.1750 N   0  0  0  0  0  0  0  0  0  0  0  0
  -11.3587  -12.6273    6.9943 C   0  0  0  0  0  0  0  0  0  0  0  0
  -11.5662  -11.2610    6.7967 C   0  0  0  0  0  0  0  0  0  0  0  0
  -11.9415  -10.4483    7.9242 C   0  0  0  0  0  0  0  0  0  0  0  0
  -12.1707   -9.2659    8.0072 O   0  0  0  0  0  0  0  0  0  0  0  0
  -11.3300  -10.9586    5.4433 N   0  0  0  0  0  0  0  0  0  0  0  0
  -10.9841  -12.1402    4.8647 C   0  0  0  0  0  0  0  0  0  0  0  0
  -10.9945  -13.1856    5.7987 N   0  0  0  0  0  0  0  0  0  0  0  0
  1  2  1  0  0  0  0
  1  6  1  0  0  0  0
  2  3  2  0  0  0  0
  3  4  1  0  0  0  0
  4  5  2  0  0  0  0
  4 10  1  0  0  0  0
  5  6  1  0  0  0  0
  5  8  1  0  0  0  0
  6  7  2  0  0  0  0
  8  9  1  0  0  0  0
  9 10  2  0  0  0  0
M  END
>  <CHROM.1>
-11.57868636,-11.66175278,7.25361582,-2.92812091,1.30133693,-0.71574686

>  <Name>
ligand

>  <RI>
0

>  <Rbt.Current_Directory>
/home/itssahil/PROJECTS/Mol_Feturizer/New_Systems/rnas/2EES

>  <Rbt.Executable>
rbdock ($Id: //depot/dev/client3/rdock/2013.1/src/exe/rbdock.cxx#4 $)

>  <Rbt.Library>
libRbt.so (2013.1, Build901 2013/11/27)

>  <Rbt.Parameter_File>
/export/apps/rDock/src/rDock_2013.1_src/data/scripts/dock_solv.prm

>  <Rbt.Receptor>
prm/pocket_docking_6.prm

>  <SCORE>
-16.9926

>  <SCORE.INTER>
-16.9926

>  <SCORE.INTER.CONST>
1

>  <SCORE.INTER.POLAR>
0

>  <SCORE.INTER.ROT>
0

>  <SCORE.INTER.SOLV>
3.55655

>  <SCORE.INTER.VDW>
-16.1139

>  <SCORE.INTER.norm>
-1.69926

>  <SCORE.INTRA>
0

>  <SCORE.INTRA.DIHEDRAL>
0

>  <SCORE.INTRA.DIHEDRAL.0>
0

>  <SCORE.INTRA.POLAR>
0

>  <SCORE.INTRA.POLAR.0>
0

>  <SCORE.INTRA.REPUL>
0

>  <SCORE.INTRA.REPUL.0>
0

>  <SCORE.INTRA.SOLV>
0

>  <SCORE.INTRA.SOLV.lig_0>
-4.28614

>  <SCORE.INTRA.VDW>
0

>  <SCORE.INTRA.VDW.0>
0

>  <SCORE.INTRA.norm>
0

>  <SCORE.RESTR>
0

>  <SCORE.RESTR.CAVITY>
0

>  <SCORE.RESTR.norm>
0

>  <SCORE.SYSTEM>
0

>  <SCORE.SYSTEM.CONST>
0

>  <SCORE.SYSTEM.DIHEDRAL>
0

>  <SCORE.SYSTEM.SOLV>
0

>  <SCORE.SYSTEM.norm>
0

>  <SCORE.heavy>
10

>  <SCORE.norm>
-1.69926

>  <RMSD>
0.392

$$$$
ligand
 OpenBabel11021811423D
libRbt.so/2013.1/901 2013/11/27
 10 11  0  0  0  0  0  0  0  0999 V2000
  -12.0505  -11.2082    9.1150 N   0  0  0  0  0  0  0  0  0  0  0  0
  -11.8249  -12.5811    9.2322 C   0  0  0  0  0  0  0  0  0  0  0  0
  -11.4759  -13.3456    8.1821 N   0  0  0  0  0  0  0  0  0  0  0  0
  -11.3634  -12.6268    6.9953 C   0  0  0  0  0  0  0  0  0  0  0  0
  -11.5749  -11.2629    6.7854 C   0  0  0  0  0  0  0  0  0  0  0  0
  -11.9549  -10.4416    7.9050 C   0  0  0  0  0  0  0  0  0  0  0  0
  -12.1881   -9.2593    7.9772 O   0  0  0  0  0  0  0  0  0  0  0  0
  -11.3373  -10.9716    5.4297 N   0  0  0  0  0  0  0  0  0  0  0  0
  -10.9865  -12.1571    4.8622 C   0  0  0  0  0  0  0  0  0  0  0  0
  -10.9953  -13.1944    5.8053 N   0  0  0  0  0  0  0  0  0  0  0  0
  1  2  1  0  0  0  0
  1  6  1  0  0  0  0
  2  3  2  0  0  0  0
  3  4  1  0  0  0  0
  4  5  2  0  0  0  0
  4 10  1  0  0  0  0
  5  6  1  0  0  0  0
  5  8  1  0  0  0  0
  6  7  2  0  0  0  0
  8  9  1  0  0  0  0
  9 10  2  0  0  0  0
M  END
>  <CHROM.1>
-11.58700059,-11.65972629,7.24574819,-2.92353728,1.29785330,-0.72892613

>  <Name>
ligand

>  <RI>
0

>  <Rbt.Current_Directory>
/home/itssahil/PROJECTS/Mol_Feturizer/New_Systems/rnas/2EES

>  <Rbt.Executable>
rbdock ($Id: //depot/dev/client3/rdock/2013.1/src/exe/rbdock.cxx#4 $)

>  <Rbt.Library>
libRbt.so (2013.1, Build901 2013/11/27)

>  <Rbt.Parameter_File>
/export/apps/rDock/src/rDock_2013.1_src/data/scripts/dock_solv.prm

>  <Rbt.Receptor>
prm/pocket_docking_6.prm

>  <SCORE>
-16.9548

>  <SCORE.INTER>
-16.9548

>  <SCORE.INTER.CONST>
1

>  <SCORE.INTER.POLAR>
0

>  <SCORE.INTER.ROT>
0

>  <SCORE.INTER.SOLV>
3.52806

>  <SCORE.INTER.VDW>
-16.0792

>  <SCORE.INTER.norm>
-1.69548

>  <SCORE.INTRA>
0

>  <SCORE.INTRA.DIHEDRAL>
0

>  <SCORE.INTRA.DIHEDRAL.0>
0

>  <SCORE.INTRA.POLAR>
0

>  <SCORE.INTRA.POLAR.0>
0

>  <SCORE.INTRA.REPUL>
0

>  <SCORE.INTRA.REPUL.0>
0

>  <SCORE.INTRA.SOLV>
0

>  <SCORE.INTRA.SOLV.lig_0>
-4.28614

>  <SCORE.INTRA.VDW>
0

>  <SCORE.INTRA.VDW.0>
0

>  <SCORE.INTRA.norm>
0

>  <SCORE.RESTR>
0

>  <SCORE.RESTR.CAVITY>
0

>  <SCORE.RESTR.norm>
0

>  <SCORE.SYSTEM>
0

>  <SCORE.SYSTEM.CONST>
0

>  <SCORE.SYSTEM.DIHEDRAL>
0

>  <SCORE.SYSTEM.SOLV>
0

>  <SCORE.SYSTEM.norm>
0

>  <SCORE.heavy>
10

>  <SCORE.norm>
-1.69548

>  <RMSD>
0.392

$$$$
ligand
 OpenBabel11021811423D
libRbt.so/2013.1/901 2013/11/27
 10 11  0  0  0  0  0  0  0  0999 V2000
  -12.0994  -11.2868    9.1034 N   0  0  0  0  0  0  0  0  0  0  0  0
  -11.8294  -12.6532    9.2023 C   0  0  0  0  0  0  0  0  0  0  0  0
  -11.4473  -13.3899    8.1439 N   0  0  0  0  0  0  0  0  0  0  0  0
  -11.3497  -12.6501    6.9687 C   0  0  0  0  0  0  0  0  0  0  0  0
  -11.6046  -11.2910    6.7772 C   0  0  0  0  0  0  0  0  0  0  0  0
  -12.0201  -10.4995    7.9057 C   0  0  0  0  0  0  0  0  0  0  0  0
  -12.2928   -9.3267    7.9933 O   0  0  0  0  0  0  0  0  0  0  0  0
  -11.3665  -10.9717    5.4279 N   0  0  0  0  0  0  0  0  0  0  0  0
  -10.9723  -12.1364    4.8459 C   0  0  0  0  0  0  0  0  0  0  0  0
  -10.9539  -13.1873    5.7735 N   0  0  0  0  0  0  0  0  0  0  0  0
  1  2  1  0  0  0  0
  1  6  1  0  0  0  0
  2  3  2  0  0  0  0
  3  4  1  0  0  0  0
  4  5  2  0  0  0  0
  4 10  1  0  0  0  0
  5  6  1  0  0  0  0
  5  8  1  0  0  0  0
  6  7  2  0  0  0  0
  8  9  1  0  0  0  0
  9 10  2  0  0  0  0
M  END
>  <CHROM.1>
-11.60704143,-11.69479210,7.23153607,-2.85736842,1.26950960,-0.77754755

>  <Name>
ligand

>  <RI>
0

>  <Rbt.Current_Directory>
/home/itssahil/PROJECTS/Mol_Feturizer/New_Systems/rnas/2EES

>  <Rbt.Executable>
rbdock ($Id: //depot/dev/client3/rdock/2013.1/src/exe/rbdock.cxx#4 $)

>  <Rbt.Library>
libRbt.so (2013.1, Build901 2013/11/27)

>  <Rbt.Parameter_File>
/export/apps/rDock/src/rDock_2013.1_src/data/scripts/dock_solv.prm

>  <Rbt.Receptor>
prm/pocket_docking_3.prm

>  <SCORE>
-16.9616

>  <SCORE.INTER>
-16.9616

>  <SCORE.INTER.CONST>
1

>  <SCORE.INTER.POLAR>
0

>  <SCORE.INTER.ROT>
0

>  <SCORE.INTER.SOLV>
3.4419

>  <SCORE.INTER.VDW>
-16.055

>  <SCORE.INTER.norm>
-1.69616

>  <SCORE.INTRA>
0

>  <SCORE.INTRA.DIHEDRAL>
0

>  <SCORE.INTRA.DIHEDRAL.0>
0

>  <SCORE.INTRA.POLAR>
0

>  <SCORE.INTRA.POLAR.0>
0

>  <SCORE.INTRA.REPUL>
0

>  <SCORE.INTRA.REPUL.0>
0

>  <SCORE.INTRA.SOLV>
0

>  <SCORE.INTRA.SOLV.lig_0>
-4.28614

>  <SCORE.INTRA.VDW>
0

>  <SCORE.INTRA.VDW.0>
0

>  <SCORE.INTRA.norm>
0

>  <SCORE.RESTR>
0

>  <SCORE.RESTR.CAVITY>
0

>  <SCORE.RESTR.norm>
0

>  <SCORE.SYSTEM>
0

>  <SCORE.SYSTEM.CONST>
0

>  <SCORE.SYSTEM.DIHEDRAL>
0

>  <SCORE.SYSTEM.SOLV>
0

>  <SCORE.SYSTEM.norm>
0

>  <SCORE.heavy>
10

>  <SCORE.norm>
-1.69616

>  <RMSD>
0.393

$$$$
ligand
 OpenBabel11021811423D
libRbt.so/2013.1/901 2013/11/27
 10 11  0  0  0  0  0  0  0  0999 V2000
  -12.0257  -11.2297    9.1264 N   0  0  0  0  0  0  0  0  0  0  0  0
  -11.8029  -12.6040    9.2335 C   0  0  0  0  0  0  0  0  0  0  0  0
  -11.4575  -13.3617    8.1773 N   0  0  0  0  0  0  0  0  0  0  0  0
  -11.3455  -12.6347    6.9955 C   0  0  0  0  0  0  0  0  0  0  0  0
  -11.5544  -11.2689    6.7957 C   0  0  0  0  0  0  0  0  0  0  0  0
  -11.9306  -10.4548    7.9218 C   0  0  0  0  0  0  0  0  0  0  0  0
  -12.1610   -9.2724    8.0029 O   0  0  0  0  0  0  0  0  0  0  0  0
  -11.3185  -10.9684    5.4417 N   0  0  0  0  0  0  0  0  0  0  0  0
  -10.9713  -12.1506    4.8651 C   0  0  0  0  0  0  0  0  0  0  0  0
  -10.9807  -13.1945    5.8008 N   0  0  0  0  0  0  0  0  0  0  0  0
  1  2  1  0  0  0  0
  1  6  1  0  0  0  0
  2  3  2  0  0  0  0
  3  4  1  0  0  0  0
  4  5  2  0  0  0  0
  4 10  1  0  0  0  0
  5  6  1  0  0  0  0
  5  8  1  0  0  0  0
  6  7  2  0  0  0  0
  8  9  1  0  0  0  0
  9 10  2  0  0  0  0
M  END
>  <CHROM.1>
-11.56651416,-11.66892881,7.25321925,-2.92531209,1.30063136,-0.72007065

>  <Name>
ligand

>  <RI>
0

>  <Rbt.Current_Directory>
/home/itssahil/PROJECTS/Mol_Feturizer/New_Systems/rnas/2EES

>  <Rbt.Executable>
rbdock ($Id: //depot/dev/client3/rdock/2013.1/src/exe/rbdock.cxx#4 $)

>  <Rbt.Library>
libRbt.so (2013.1, Build901 2013/11/27)

>  <Rbt.Parameter_File>
/export/apps/rDock/src/rDock_2013.1_src/data/scripts/dock_solv.prm

>  <Rbt.Receptor>
prm/pocket_docking_3.prm

>  <SCORE>
-16.9873

>  <SCORE.INTER>
-16.9873

>  <SCORE.INTER.CONST>
1

>  <SCORE.INTER.POLAR>
0

>  <SCORE.INTER.ROT>
0

>  <SCORE.INTER.SOLV>
3.56044

>  <SCORE.INTER.VDW>
-16.1117

>  <SCORE.INTER.norm>
-1.69873

>  <SCORE.INTRA>
0

>  <SCORE.INTRA.DIHEDRAL>
0

>  <SCORE.INTRA.DIHEDRAL.0>
0

>  <SCORE.INTRA.POLAR>
0

>  <SCORE.INTRA.POLAR.0>
0

>  <SCORE.INTRA.REPUL>
0

>  <SCORE.INTRA.REPUL.0>
0

>  <SCORE.INTRA.SOLV>
0

>  <SCORE.INTRA.SOLV.lig_0>
-4.28614

>  <SCORE.INTRA.VDW>
0

>  <SCORE.INTRA.VDW.0>
0

>  <SCORE.INTRA.norm>
0

>  <SCORE.RESTR>
0

>  <SCORE.RESTR.CAVITY>
0

>  <SCORE.RESTR.norm>
0

>  <SCORE.SYSTEM>
0

>  <SCORE.SYSTEM.CONST>
0

>  <SCORE.SYSTEM.DIHEDRAL>
0

>  <SCORE.SYSTEM.SOLV>
0

>  <SCORE.SYSTEM.norm>
0

>  <SCORE.heavy>
10

>  <SCORE.norm>
-1.69873

>  <RMSD>
0.393

$$$$
ligand
 OpenBabel11021811423D
libRbt.so/2013.1/901 2013/11/27
 10 11  0  0  0  0  0  0  0  0999 V2000
  -12.0417  -11.2250    9.1209 N   0  0  0  0  0  0  0  0  0  0  0  0
  -11.8194  -12.5993    9.2275 C   0  0  0  0  0  0  0  0  0  0  0  0
  -11.4723  -13.3565    8.1714 N   0  0  0  0  0  0  0  0  0  0  0  0
  -11.3582  -12.6287    6.9902 C   0  0  0  0  0  0  0  0  0  0  0  0
  -11.5665  -11.2627    6.7909 C   0  0  0  0  0  0  0  0  0  0  0  0
  -11.9444  -10.4493    7.9169 C   0  0  0  0  0  0  0  0  0  0  0  0
  -12.1747   -9.2669    7.9983 O   0  0  0  0  0  0  0  0  0  0  0  0
  -11.3282  -10.9615    5.4376 N   0  0  0  0  0  0  0  0  0  0  0  0
  -10.9803  -12.1433    4.8608 C   0  0  0  0  0  0  0  0  0  0  0  0
  -10.9915  -13.1879    5.7958 N   0  0  0  0  0  0  0  0  0  0  0  0
  1  2  1  0  0  0  0
  1  6  1  0  0  0  0
  2  3  2  0  0  0  0
  3  4  1  0  0  0  0
  4  5  2  0  0  0  0
  4 10  1  0  0  0  0
  5  6  1  0  0  0  0
  5  8  1  0  0  0  0
  6  7  2  0  0  0  0
  8  9  1  0  0  0  0
  9 10  2  0  0  0  0
M  END
>  <CHROM.1>
-11.57944743,-11.66306558,7.24817457,-2.93001923,1.29949755,-0.71490755

>  <Name>
ligand

>  <RI>
0

>  <Rbt.Current_Directory>
/home/itssahil/PROJECTS/Mol_Feturizer/New_Systems/rnas/2EES

>  <Rbt.Executable>
rbdock ($Id: //depot/dev/client3/rdock/2013.1/src/exe/rbdock.cxx#4 $)

>  <Rbt.Library>
libRbt.so (2013.1, Build901 2013/11/27)

>  <Rbt.Parameter_File>
/export/apps/rDock/src/rDock_2013.1_src/data/scripts/dock_solv.prm

>  <Rbt.Receptor>
prm/pocket_docking_7.prm

>  <SCORE>
-16.9922

>  <SCORE.INTER>
-16.9922

>  <SCORE.INTER.CONST>
1

>  <SCORE.INTER.POLAR>
0

>  <SCORE.INTER.ROT>
0

>  <SCORE.INTER.SOLV>
3.54811

>  <SCORE.INTER.VDW>
-16.1108

>  <SCORE.INTER.norm>
-1.69922

>  <SCORE.INTRA>
0

>  <SCORE.INTRA.DIHEDRAL>
0

>  <SCORE.INTRA.DIHEDRAL.0>
0

>  <SCORE.INTRA.POLAR>
0

>  <SCORE.INTRA.POLAR.0>
0

>  <SCORE.INTRA.REPUL>
0

>  <SCORE.INTRA.REPUL.0>
0

>  <SCORE.INTRA.SOLV>
0

>  <SCORE.INTRA.SOLV.lig_0>
-4.28614

>  <SCORE.INTRA.VDW>
0

>  <SCORE.INTRA.VDW.0>
0

>  <SCORE.INTRA.norm>
0

>  <SCORE.RESTR>
0

>  <SCORE.RESTR.CAVITY>
0

>  <SCORE.RESTR.norm>
0

>  <SCORE.SYSTEM>
0

>  <SCORE.SYSTEM.CONST>
0

>  <SCORE.SYSTEM.DIHEDRAL>
0

>  <SCORE.SYSTEM.SOLV>
0

>  <SCORE.SYSTEM.norm>
0

>  <SCORE.heavy>
10

>  <SCORE.norm>
-1.69922

>  <RMSD>
0.394

$$$$
ligand
 OpenBabel11021811423D
libRbt.so/2013.1/901 2013/11/27
 10 11  0  0  0  0  0  0  0  0999 V2000
  -12.0627  -11.2333    9.1001 N   0  0  0  0  0  0  0  0  0  0  0  0
  -11.8018  -12.5998    9.2193 C   0  0  0  0  0  0  0  0  0  0  0  0
  -11.4361  -13.3571    8.1697 N   0  0  0  0  0  0  0  0  0  0  0  0
  -11.3451  -12.6380    6.9813 C   0  0  0  0  0  0  0  0  0  0  0  0
  -11.5920  -11.2803    6.7693 C   0  0  0  0  0  0  0  0  0  0  0  0
  -11.9899  -10.4669    7.8885 C   0  0  0  0  0  0  0  0  0  0  0  0
  -12.2530   -9.2907    7.9590 O   0  0  0  0  0  0  0  0  0  0  0  0
  -11.3654  -10.9856    5.4125 N   0  0  0  0  0  0  0  0  0  0  0  0
  -10.9859  -12.1629    4.8463 C   0  0  0  0  0  0  0  0  0  0  0  0
  -10.9657  -13.1982    5.7913 N   0  0  0  0  0  0  0  0  0  0  0  0
  1  2  1  0  0  0  0
  1  6  1  0  0  0  0
  2  3  2  0  0  0  0
  3  4  1  0  0  0  0
  4  5  2  0  0  0  0
  4 10  1  0  0  0  0
  5  6  1  0  0  0  0
  5  8  1  0  0  0  0
  6  7  2  0  0  0  0
  8  9  1  0  0  0  0
  9 10  2  0  0  0  0
M  END
>  <CHROM.1>
-11.59268628,-11.67640838,7.23047411,-2.85048409,1.28203446,-0.80101184

>  <Name>
ligand

>  <RI>
0

>  <Rbt.Current_Directory>
/home/itssahil/PROJECTS/Mol_Feturizer/New_Systems/rnas/2EES

>  <Rbt.Executable>
rbdock ($Id: //depot/dev/client3/rdock/2013.1/src/exe/rbdock.cxx#4 $)

>  <Rbt.Library>
libRbt.so (2013.1, Build901 2013/11/27)

>  <Rbt.Parameter_File>
/export/apps/rDock/src/rDock_2013.1_src/data/scripts/dock_solv.prm

>  <Rbt.Receptor>
prm/pocket_docking_3.prm

>  <SCORE>
-16.9957

>  <SCORE.INTER>
-16.9957

>  <SCORE.INTER.CONST>
1

>  <SCORE.INTER.POLAR>
0

>  <SCORE.INTER.ROT>
0

>  <SCORE.INTER.SOLV>
3.4719

>  <SCORE.INTER.VDW>
-16.0878

>  <SCORE.INTER.norm>
-1.69957

>  <SCORE.INTRA>
0

>  <SCORE.INTRA.DIHEDRAL>
0

>  <SCORE.INTRA.DIHEDRAL.0>
0

>  <SCORE.INTRA.POLAR>
0

>  <SCORE.INTRA.POLAR.0>
0

>  <SCORE.INTRA.REPUL>
0

>  <SCORE.INTRA.REPUL.0>
0

>  <SCORE.INTRA.SOLV>
0

>  <SCORE.INTRA.SOLV.lig_0>
-4.28614

>  <SCORE.INTRA.VDW>
0

>  <SCORE.INTRA.VDW.0>
0

>  <SCORE.INTRA.norm>
0

>  <SCORE.RESTR>
0

>  <SCORE.RESTR.CAVITY>
0

>  <SCORE.RESTR.norm>
0

>  <SCORE.SYSTEM>
0

>  <SCORE.SYSTEM.CONST>
0

>  <SCORE.SYSTEM.DIHEDRAL>
0

>  <SCORE.SYSTEM.SOLV>
0

>  <SCORE.SYSTEM.norm>
0

>  <SCORE.heavy>
10

>  <SCORE.norm>
-1.69957

>  <RMSD>
0.396

$$$$
ligand
 OpenBabel11021811423D
libRbt.so/2013.1/901 2013/11/27
 10 11  0  0  0  0  0  0  0  0999 V2000
  -12.0324  -11.2360    9.1213 N   0  0  0  0  0  0  0  0  0  0  0  0
  -11.8059  -12.6098    9.2260 C   0  0  0  0  0  0  0  0  0  0  0  0
  -11.4611  -13.3652    8.1679 N   0  0  0  0  0  0  0  0  0  0  0  0
  -11.3539  -12.6363    6.9868 C   0  0  0  0  0  0  0  0  0  0  0  0
  -11.5668  -11.2707    6.7894 C   0  0  0  0  0  0  0  0  0  0  0  0
  -11.9423  -10.4591    7.9176 C   0  0  0  0  0  0  0  0  0  0  0  0
  -12.1755   -9.2775    8.0008 O   0  0  0  0  0  0  0  0  0  0  0  0
  -11.3350  -10.9678    5.4353 N   0  0  0  0  0  0  0  0  0  0  0  0
  -10.9863  -12.1483    4.8562 C   0  0  0  0  0  0  0  0  0  0  0  0
  -10.9907  -13.1935    5.7904 N   0  0  0  0  0  0  0  0  0  0  0  0
  1  2  1  0  0  0  0
  1  6  1  0  0  0  0
  2  3  2  0  0  0  0
  3  4  1  0  0  0  0
  4  5  2  0  0  0  0
  4 10  1  0  0  0  0
  5  6  1  0  0  0  0
  5  8  1  0  0  0  0
  6  7  2  0  0  0  0
  8  9  1  0  0  0  0
  9 10  2  0  0  0  0
M  END
>  <CHROM.1>
-11.57675500,-11.67140988,7.24639206,-2.91195213,1.30079604,-0.73157513

>  <Name>
ligand

>  <RI>
0

>  <Rbt.Current_Directory>
/home/itssahil/PROJECTS/Mol_Feturizer/New_Systems/rnas/2EES

>  <Rbt.Executable>
rbdock ($Id: //depot/dev/client3/rdock/2013.1/src/exe/rbdock.cxx#4 $)

>  <Rbt.Library>
libRbt.so (2013.1, Build901 2013/11/27)

>  <Rbt.Parameter_File>
/export/apps/rDock/src/rDock_2013.1_src/data/scripts/dock_solv.prm

>  <Rbt.Receptor>
prm/pocket_docking_3.prm

>  <SCORE>
-16.9581

>  <SCORE.INTER>
-16.9581

>  <SCORE.INTER.CONST>
1

>  <SCORE.INTER.POLAR>
0

>  <SCORE.INTER.ROT>
0

>  <SCORE.INTER.SOLV>
3.55409

>  <SCORE.INTER.VDW>
-16.0901

>  <SCORE.INTER.norm>
-1.69581

>  <SCORE.INTRA>
0

>  <SCORE.INTRA.DIHEDRAL>
0

>  <SCORE.INTRA.DIHEDRAL.0>
0

>  <SCORE.INTRA.POLAR>
0

>  <SCORE.INTRA.POLAR.0>
0

>  <SCORE.INTRA.REPUL>
0

>  <SCORE.INTRA.REPUL.0>
0

>  <SCORE.INTRA.SOLV>
0

>  <SCORE.INTRA.SOLV.lig_0>
-4.28614

>  <SCORE.INTRA.VDW>
0

>  <SCORE.INTRA.VDW.0>
0

>  <SCORE.INTRA.norm>
0

>  <SCORE.RESTR>
0

>  <SCORE.RESTR.CAVITY>
0

>  <SCORE.RESTR.norm>
0

>  <SCORE.SYSTEM>
0

>  <SCORE.SYSTEM.CONST>
0

>  <SCORE.SYSTEM.DIHEDRAL>
0

>  <SCORE.SYSTEM.SOLV>
0

>  <SCORE.SYSTEM.norm>
0

>  <SCORE.heavy>
10

>  <SCORE.norm>
-1.69581

>  <RMSD>
0.398

$$$$
ligand
 OpenBabel11021811423D
libRbt.so/2013.1/901 2013/11/27
 10 11  0  0  0  0  0  0  0  0999 V2000
  -12.0797  -11.5901    9.3547 N   0  0  0  0  0  0  0  0  0  0  0  0
  -11.8416  -12.9642    9.2863 C   0  0  0  0  0  0  0  0  0  0  0  0
  -11.4890  -13.5777    8.1425 N   0  0  0  0  0  0  0  0  0  0  0  0
  -11.3865  -12.7053    7.0627 C   0  0  0  0  0  0  0  0  0  0  0  0
  -11.6108  -11.3275    7.0380 C   0  0  0  0  0  0  0  0  0  0  0  0
  -11.9946  -10.6674    8.2583 C   0  0  0  0  0  0  0  0  0  0  0  0
  -12.2381   -9.5075    8.4889 O   0  0  0  0  0  0  0  0  0  0  0  0
  -11.3798  -10.8549    5.7332 N   0  0  0  0  0  0  0  0  0  0  0  0
  -11.0202  -11.9502    5.0111 C   0  0  0  0  0  0  0  0  0  0  0  0
  -11.0169  -13.1046    5.8066 N   0  0  0  0  0  0  0  0  0  0  0  0
  1  2  1  0  0  0  0
  1  6  1  0  0  0  0
  2  3  2  0  0  0  0
  3  4  1  0  0  0  0
  4  5  2  0  0  0  0
  4 10  1  0  0  0  0
  5  6  1  0  0  0  0
  5  8  1  0  0  0  0
  6  7  2  0  0  0  0
  8  9  1  0  0  0  0
  9 10  2  0  0  0  0
M  END
>  <CHROM.1>
-11.61790108,-11.78258688,7.44095353,-2.89188774,1.29405503,-0.62485110

>  <Name>
ligand

>  <RI>
0

>  <Rbt.Current_Directory>
/home/itssahil/PROJECTS/Mol_Feturizer/New_Systems/rnas/2EES

>  <Rbt.Executable>
rbdock ($Id: //depot/dev/client3/rdock/2013.1/src/exe/rbdock.cxx#4 $)

>  <Rbt.Library>
libRbt.so (2013.1, Build901 2013/11/27)

>  <Rbt.Parameter_File>
/export/apps/rDock/src/rDock_2013.1_src/data/scripts/dock_solv.prm

>  <Rbt.Receptor>
prm/pocket_docking_7.prm

>  <SCORE>
-16.7236

>  <SCORE.INTER>
-16.7236

>  <SCORE.INTER.CONST>
1

>  <SCORE.INTER.POLAR>
0

>  <SCORE.INTER.ROT>
0

>  <SCORE.INTER.SOLV>
3.73902

>  <SCORE.INTER.VDW>
-15.9954

>  <SCORE.INTER.norm>
-1.67236

>  <SCORE.INTRA>
0

>  <SCORE.INTRA.DIHEDRAL>
0

>  <SCORE.INTRA.DIHEDRAL.0>
0

>  <SCORE.INTRA.POLAR>
0

>  <SCORE.INTRA.POLAR.0>
0

>  <SCORE.INTRA.REPUL>
0

>  <SCORE.INTRA.REPUL.0>
0

>  <SCORE.INTRA.SOLV>
0

>  <SCORE.INTRA.SOLV.lig_0>
-4.28614

>  <SCORE.INTRA.VDW>
0

>  <SCORE.INTRA.VDW.0>
0

>  <SCORE.INTRA.norm>
0

>  <SCORE.RESTR>
0

>  <SCORE.RESTR.CAVITY>
0

>  <SCORE.RESTR.norm>
0

>  <SCORE.SYSTEM>
0

>  <SCORE.SYSTEM.CONST>
0

>  <SCORE.SYSTEM.DIHEDRAL>
0

>  <SCORE.SYSTEM.SOLV>
0

>  <SCORE.SYSTEM.norm>
0

>  <SCORE.heavy>
10

>  <SCORE.norm>
-1.67236

>  <RMSD>
0.398

$$$$
ligand
 OpenBabel11021811423D
libRbt.so/2013.1/901 2013/11/27
 10 11  0  0  0  0  0  0  0  0999 V2000
  -12.0440  -11.2217    9.0973 N   0  0  0  0  0  0  0  0  0  0  0  0
  -11.7912  -12.5894    9.2197 C   0  0  0  0  0  0  0  0  0  0  0  0
  -11.4281  -13.3509    8.1721 N   0  0  0  0  0  0  0  0  0  0  0  0
  -11.3310  -12.6347    6.9825 C   0  0  0  0  0  0  0  0  0  0  0  0
  -11.5696  -11.2761    6.7675 C   0  0  0  0  0  0  0  0  0  0  0  0
  -11.9648  -10.4581    7.8843 C   0  0  0  0  0  0  0  0  0  0  0  0
  -12.2212   -9.2803    7.9521 O   0  0  0  0  0  0  0  0  0  0  0  0
  -11.3391  -10.9854    5.4105 N   0  0  0  0  0  0  0  0  0  0  0  0
  -10.9654  -12.1659    4.8472 C   0  0  0  0  0  0  0  0  0  0  0  0
  -10.9527  -13.1994    5.7943 N   0  0  0  0  0  0  0  0  0  0  0  0
  1  2  1  0  0  0  0
  1  6  1  0  0  0  0
  2  3  2  0  0  0  0
  3  4  1  0  0  0  0
  4  5  2  0  0  0  0
  4 10  1  0  0  0  0
  5  6  1  0  0  0  0
  5  8  1  0  0  0  0
  6  7  2  0  0  0  0
  8  9  1  0  0  0  0
  9 10  2  0  0  0  0
M  END
>  <CHROM.1>
-11.57342928,-11.67121729,7.22938002,-2.86896840,1.28494488,-0.78525956

>  <Name>
ligand

>  <RI>
0

>  <Rbt.Current_Directory>
/home/itssahil/PROJECTS/Mol_Feturizer/New_Systems/rnas/2EES

>  <Rbt.Executable>
rbdock ($Id: //depot/dev/client3/rdock/2013.1/src/exe/rbdock.cxx#4 $)

>  <Rbt.Library>
libRbt.so (2013.1, Build901 2013/11/27)

>  <Rbt.Parameter_File>
/export/apps/rDock/src/rDock_2013.1_src/data/scripts/dock_solv.prm

>  <Rbt.Receptor>
prm/pocket_docking_5.prm

>  <SCORE>
-17.0083

>  <SCORE.INTER>
-17.0083

>  <SCORE.INTER.CONST>
1

>  <SCORE.INTER.POLAR>
0

>  <SCORE.INTER.ROT>
0

>  <SCORE.INTER.SOLV>
3.48885

>  <SCORE.INTER.VDW>
-16.1018

>  <SCORE.INTER.norm>
-1.70083

>  <SCORE.INTRA>
0

>  <SCORE.INTRA.DIHEDRAL>
0

>  <SCORE.INTRA.DIHEDRAL.0>
0

>  <SCORE.INTRA.POLAR>
0

>  <SCORE.INTRA.POLAR.0>
0

>  <SCORE.INTRA.REPUL>
0

>  <SCORE.INTRA.REPUL.0>
0

>  <SCORE.INTRA.SOLV>
0

>  <SCORE.INTRA.SOLV.lig_0>
-4.28614

>  <SCORE.INTRA.VDW>
0

>  <SCORE.INTRA.VDW.0>
0

>  <SCORE.INTRA.norm>
0

>  <SCORE.RESTR>
0

>  <SCORE.RESTR.CAVITY>
0

>  <SCORE.RESTR.norm>
0

>  <SCORE.SYSTEM>
0

>  <SCORE.SYSTEM.CONST>
0

>  <SCORE.SYSTEM.DIHEDRAL>
0

>  <SCORE.SYSTEM.SOLV>
0

>  <SCORE.SYSTEM.norm>
0

>  <SCORE.heavy>
10

>  <SCORE.norm>
-1.70083

>  <RMSD>
0.400

$$$$
ligand
 OpenBabel11021811423D
libRbt.so/2013.1/901 2013/11/27
 10 11  0  0  0  0  0  0  0  0999 V2000
  -12.0450  -11.2187    9.0957 N   0  0  0  0  0  0  0  0  0  0  0  0
  -11.7963  -12.5870    9.2202 C   0  0  0  0  0  0  0  0  0  0  0  0
  -11.4362  -13.3514    8.1738 N   0  0  0  0  0  0  0  0  0  0  0  0
  -11.3376  -12.6375    6.9829 C   0  0  0  0  0  0  0  0  0  0  0  0
  -11.5722  -11.2785    6.7657 C   0  0  0  0  0  0  0  0  0  0  0  0
  -11.9641  -10.4574    7.8813 C   0  0  0  0  0  0  0  0  0  0  0  0
  -12.2169   -9.2787    7.9473 O   0  0  0  0  0  0  0  0  0  0  0  0
  -11.3416  -10.9909    5.4080 N   0  0  0  0  0  0  0  0  0  0  0  0
  -10.9719  -12.1735    4.8465 C   0  0  0  0  0  0  0  0  0  0  0  0
  -10.9619  -13.2055    5.7954 N   0  0  0  0  0  0  0  0  0  0  0  0
  1  2  1  0  0  0  0
  1  6  1  0  0  0  0
  2  3  2  0  0  0  0
  3  4  1  0  0  0  0
  4  5  2  0  0  0  0
  4 10  1  0  0  0  0
  5  6  1  0  0  0  0
  5  8  1  0  0  0  0
  6  7  2  0  0  0  0
  8  9  1  0  0  0  0
  9 10  2  0  0  0  0
M  END
>  <CHROM.1>
-11.57693974,-11.67289095,7.22824959,-2.87519808,1.28756159,-0.78099888

>  <Name>
ligand

>  <RI>
0

>  <Rbt.Current_Directory>
/home/itssahil/PROJECTS/Mol_Feturizer/New_Systems/rnas/2EES

>  <Rbt.Executable>
rbdock ($Id: //depot/dev/client3/rdock/2013.1/src/exe/rbdock.cxx#4 $)

>  <Rbt.Library>
libRbt.so (2013.1, Build901 2013/11/27)

>  <Rbt.Parameter_File>
/export/apps/rDock/src/rDock_2013.1_src/data/scripts/dock_solv.prm

>  <Rbt.Receptor>
prm/blind_docking_40.prm

>  <SCORE>
-17.0464

>  <SCORE.INTER>
-17.0464

>  <SCORE.INTER.CONST>
1

>  <SCORE.INTER.POLAR>
0

>  <SCORE.INTER.ROT>
0

>  <SCORE.INTER.SOLV>
3.49296

>  <SCORE.INTER.VDW>
-16.1286

>  <SCORE.INTER.norm>
-1.70464

>  <SCORE.INTRA>
0

>  <SCORE.INTRA.DIHEDRAL>
0

>  <SCORE.INTRA.DIHEDRAL.0>
0

>  <SCORE.INTRA.POLAR>
0

>  <SCORE.INTRA.POLAR.0>
0

>  <SCORE.INTRA.REPUL>
0

>  <SCORE.INTRA.REPUL.0>
0

>  <SCORE.INTRA.SOLV>
0

>  <SCORE.INTRA.SOLV.lig_0>
-4.28614

>  <SCORE.INTRA.VDW>
0

>  <SCORE.INTRA.VDW.0>
0

>  <SCORE.INTRA.norm>
0

>  <SCORE.RESTR>
0

>  <SCORE.RESTR.CAVITY>
0

>  <SCORE.RESTR.norm>
0

>  <SCORE.SYSTEM>
0

>  <SCORE.SYSTEM.CONST>
0

>  <SCORE.SYSTEM.DIHEDRAL>
0

>  <SCORE.SYSTEM.SOLV>
0

>  <SCORE.SYSTEM.norm>
0

>  <SCORE.heavy>
10

>  <SCORE.norm>
-1.70464

>  <RMSD>
0.401

$$$$
ligand
 OpenBabel11021811423D
libRbt.so/2013.1/901 2013/11/27
 10 11  0  0  0  0  0  0  0  0999 V2000
  -12.0640  -11.2352    9.0946 N   0  0  0  0  0  0  0  0  0  0  0  0
  -11.8243  -12.6056    9.2135 C   0  0  0  0  0  0  0  0  0  0  0  0
  -11.4608  -13.3664    8.1657 N   0  0  0  0  0  0  0  0  0  0  0  0
  -11.3490  -12.6467    6.9794 C   0  0  0  0  0  0  0  0  0  0  0  0
  -11.5740  -11.2852    6.7679 C   0  0  0  0  0  0  0  0  0  0  0  0
  -11.9695  -10.4678    7.8850 C   0  0  0  0  0  0  0  0  0  0  0  0
  -12.2159   -9.2880    7.9555 O   0  0  0  0  0  0  0  0  0  0  0  0
  -11.3314  -10.9915    5.4136 N   0  0  0  0  0  0  0  0  0  0  0  0
  -10.9645  -12.1733    4.8485 C   0  0  0  0  0  0  0  0  0  0  0  0
  -10.9676  -13.2104    5.7917 N   0  0  0  0  0  0  0  0  0  0  0  0
  1  2  1  0  0  0  0
  1  6  1  0  0  0  0
  2  3  2  0  0  0  0
  3  4  1  0  0  0  0
  4  5  2  0  0  0  0
  4 10  1  0  0  0  0
  5  6  1  0  0  0  0
  5  8  1  0  0  0  0
  6  7  2  0  0  0  0
  8  9  1  0  0  0  0
  9 10  2  0  0  0  0
M  END
>  <CHROM.1>
-11.58454067,-11.68198962,7.22826334,-2.90900974,1.28615910,-0.74309953

>  <Name>
ligand

>  <RI>
0

>  <Rbt.Current_Directory>
/home/itssahil/PROJECTS/Mol_Feturizer/New_Systems/rnas/2EES

>  <Rbt.Executable>
rbdock ($Id: //depot/dev/client3/rdock/2013.1/src/exe/rbdock.cxx#4 $)

>  <Rbt.Library>
libRbt.so (2013.1, Build901 2013/11/27)

>  <Rbt.Parameter_File>
/export/apps/rDock/src/rDock_2013.1_src/data/scripts/dock_solv.prm

>  <Rbt.Receptor>
prm/pocket_docking_3.prm

>  <SCORE>
-17.0408

>  <SCORE.INTER>
-17.0408

>  <SCORE.INTER.CONST>
1

>  <SCORE.INTER.POLAR>
0

>  <SCORE.INTER.ROT>
0

>  <SCORE.INTER.SOLV>
3.49049

>  <SCORE.INTER.VDW>
-16.1241

>  <SCORE.INTER.norm>
-1.70408

>  <SCORE.INTRA>
0

>  <SCORE.INTRA.DIHEDRAL>
0

>  <SCORE.INTRA.DIHEDRAL.0>
0

>  <SCORE.INTRA.POLAR>
0

>  <SCORE.INTRA.POLAR.0>
0

>  <SCORE.INTRA.REPUL>
0

>  <SCORE.INTRA.REPUL.0>
0

>  <SCORE.INTRA.SOLV>
0

>  <SCORE.INTRA.SOLV.lig_0>
-4.28614

>  <SCORE.INTRA.VDW>
0

>  <SCORE.INTRA.VDW.0>
0

>  <SCORE.INTRA.norm>
0

>  <SCORE.RESTR>
0

>  <SCORE.RESTR.CAVITY>
0

>  <SCORE.RESTR.norm>
0

>  <SCORE.SYSTEM>
0

>  <SCORE.SYSTEM.CONST>
0

>  <SCORE.SYSTEM.DIHEDRAL>
0

>  <SCORE.SYSTEM.SOLV>
0

>  <SCORE.SYSTEM.norm>
0

>  <SCORE.heavy>
10

>  <SCORE.norm>
-1.70408

>  <RMSD>
0.401

$$$$
ligand
 OpenBabel11021811423D
libRbt.so/2013.1/901 2013/11/27
 10 11  0  0  0  0  0  0  0  0999 V2000
  -12.0562  -11.1975    9.0945 N   0  0  0  0  0  0  0  0  0  0  0  0
  -11.8184  -12.5675    9.2218 C   0  0  0  0  0  0  0  0  0  0  0  0
  -11.4612  -13.3363    8.1775 N   0  0  0  0  0  0  0  0  0  0  0  0
  -11.3538  -12.6250    6.9858 C   0  0  0  0  0  0  0  0  0  0  0  0
  -11.5774  -11.2646    6.7659 C   0  0  0  0  0  0  0  0  0  0  0  0
  -11.9661  -10.4388    7.8792 C   0  0  0  0  0  0  0  0  0  0  0  0
  -12.2100   -9.2581    7.9427 O   0  0  0  0  0  0  0  0  0  0  0  0
  -11.3407  -10.9808    5.4085 N   0  0  0  0  0  0  0  0  0  0  0  0
  -10.9786  -12.1671    4.8498 C   0  0  0  0  0  0  0  0  0  0  0  0
  -10.9791  -13.1976    5.8003 N   0  0  0  0  0  0  0  0  0  0  0  0
  1  2  1  0  0  0  0
  1  6  1  0  0  0  0
  2  3  2  0  0  0  0
  3  4  1  0  0  0  0
  4  5  2  0  0  0  0
  4 10  1  0  0  0  0
  5  6  1  0  0  0  0
  5  8  1  0  0  0  0
  6  7  2  0  0  0  0
  8  9  1  0  0  0  0
  9 10  2  0  0  0  0
M  END
>  <CHROM.1>
-11.58639801,-11.65817165,7.22906284,-2.90210266,1.29088873,-0.75667326

>  <Name>
ligand

>  <RI>
0

>  <Rbt.Current_Directory>
/home/itssahil/PROJECTS/Mol_Feturizer/New_Systems/rnas/2EES

>  <Rbt.Executable>
rbdock ($Id: //depot/dev/client3/rdock/2013.1/src/exe/rbdock.cxx#4 $)

>  <Rbt.Library>
libRbt.so (2013.1, Build901 2013/11/27)

>  <Rbt.Parameter_File>
/export/apps/rDock/src/rDock_2013.1_src/data/scripts/dock_solv.prm

>  <Rbt.Receptor>
prm/pocket_docking_5.prm

>  <SCORE>
-16.9511

>  <SCORE.INTER>
-16.9511

>  <SCORE.INTER.CONST>
1

>  <SCORE.INTER.POLAR>
0

>  <SCORE.INTER.ROT>
0

>  <SCORE.INTER.SOLV>
3.49674

>  <SCORE.INTER.VDW>
-16.0663

>  <SCORE.INTER.norm>
-1.69511

>  <SCORE.INTRA>
0

>  <SCORE.INTRA.DIHEDRAL>
0

>  <SCORE.INTRA.DIHEDRAL.0>
0

>  <SCORE.INTRA.POLAR>
0

>  <SCORE.INTRA.POLAR.0>
0

>  <SCORE.INTRA.REPUL>
0

>  <SCORE.INTRA.REPUL.0>
0

>  <SCORE.INTRA.SOLV>
0

>  <SCORE.INTRA.SOLV.lig_0>
-4.28614

>  <SCORE.INTRA.VDW>
0

>  <SCORE.INTRA.VDW.0>
0

>  <SCORE.INTRA.norm>
0

>  <SCORE.RESTR>
0

>  <SCORE.RESTR.CAVITY>
0

>  <SCORE.RESTR.norm>
0

>  <SCORE.SYSTEM>
0

>  <SCORE.SYSTEM.CONST>
0

>  <SCORE.SYSTEM.DIHEDRAL>
0

>  <SCORE.SYSTEM.SOLV>
0

>  <SCORE.SYSTEM.norm>
0

>  <SCORE.heavy>
10

>  <SCORE.norm>
-1.69511

>  <RMSD>
0.401

$$$$
ligand
 OpenBabel11021811423D
libRbt.so/2013.1/901 2013/11/27
 10 11  0  0  0  0  0  0  0  0999 V2000
  -12.0447  -11.2318    9.0984 N   0  0  0  0  0  0  0  0  0  0  0  0
  -11.7965  -12.6006    9.2184 C   0  0  0  0  0  0  0  0  0  0  0  0
  -11.4371  -13.3618    8.1694 N   0  0  0  0  0  0  0  0  0  0  0  0
  -11.3386  -12.6441    6.9807 C   0  0  0  0  0  0  0  0  0  0  0  0
  -11.5728  -11.2843    6.7680 C   0  0  0  0  0  0  0  0  0  0  0  0
  -11.9640  -10.4667    7.8865 C   0  0  0  0  0  0  0  0  0  0  0  0
  -12.2163   -9.2881    7.9563 O   0  0  0  0  0  0  0  0  0  0  0  0
  -11.3425  -10.9924    5.4112 N   0  0  0  0  0  0  0  0  0  0  0  0
  -10.9735  -12.1733    4.8458 C   0  0  0  0  0  0  0  0  0  0  0  0
  -10.9635  -13.2083    5.7913 N   0  0  0  0  0  0  0  0  0  0  0  0
  1  2  1  0  0  0  0
  1  6  1  0  0  0  0
  2  3  2  0  0  0  0
  3  4  1  0  0  0  0
  4  5  2  0  0  0  0
  4 10  1  0  0  0  0
  5  6  1  0  0  0  0
  5  8  1  0  0  0  0
  6  7  2  0  0  0  0
  8  9  1  0  0  0  0
  9 10  2  0  0  0  0
M  END
>  <CHROM.1>
-11.57749979,-11.68016682,7.22933459,-2.87532711,1.28807714,-0.77764267

>  <Name>
ligand

>  <RI>
0

>  <Rbt.Current_Directory>
/home/itssahil/PROJECTS/Mol_Feturizer/New_Systems/rnas/2EES

>  <Rbt.Executable>
rbdock ($Id: //depot/dev/client3/rdock/2013.1/src/exe/rbdock.cxx#4 $)

>  <Rbt.Library>
libRbt.so (2013.1, Build901 2013/11/27)

>  <Rbt.Parameter_File>
/export/apps/rDock/src/rDock_2013.1_src/data/scripts/dock_solv.prm

>  <Rbt.Receptor>
prm/blind_docking_80.prm

>  <SCORE>
-17.0463

>  <SCORE.INTER>
-17.0463

>  <SCORE.INTER.CONST>
1

>  <SCORE.INTER.POLAR>
0

>  <SCORE.INTER.ROT>
0

>  <SCORE.INTER.SOLV>
3.49846

>  <SCORE.INTER.VDW>
-16.1304

>  <SCORE.INTER.norm>
-1.70463

>  <SCORE.INTRA>
0

>  <SCORE.INTRA.DIHEDRAL>
0

>  <SCORE.INTRA.DIHEDRAL.0>
0

>  <SCORE.INTRA.POLAR>
0

>  <SCORE.INTRA.POLAR.0>
0

>  <SCORE.INTRA.REPUL>
0

>  <SCORE.INTRA.REPUL.0>
0

>  <SCORE.INTRA.SOLV>
0

>  <SCORE.INTRA.SOLV.lig_0>
-4.28614

>  <SCORE.INTRA.VDW>
0

>  <SCORE.INTRA.VDW.0>
0

>  <SCORE.INTRA.norm>
0

>  <SCORE.RESTR>
0

>  <SCORE.RESTR.CAVITY>
0

>  <SCORE.RESTR.norm>
0

>  <SCORE.SYSTEM>
0

>  <SCORE.SYSTEM.CONST>
0

>  <SCORE.SYSTEM.DIHEDRAL>
0

>  <SCORE.SYSTEM.SOLV>
0

>  <SCORE.SYSTEM.norm>
0

>  <SCORE.heavy>
10

>  <SCORE.norm>
-1.70463

>  <RMSD>
0.402

$$$$
ligand
 OpenBabel11021811423D
libRbt.so/2013.1/901 2013/11/27
 10 11  0  0  0  0  0  0  0  0999 V2000
  -12.0435  -11.2153    9.0948 N   0  0  0  0  0  0  0  0  0  0  0  0
  -11.7962  -12.5838    9.2204 C   0  0  0  0  0  0  0  0  0  0  0  0
  -11.4370  -13.3494    8.1745 N   0  0  0  0  0  0  0  0  0  0  0  0
  -11.3378  -12.6365    6.9830 C   0  0  0  0  0  0  0  0  0  0  0  0
  -11.5710  -11.2775    6.7648 C   0  0  0  0  0  0  0  0  0  0  0  0
  -11.9619  -10.4551    7.8798 C   0  0  0  0  0  0  0  0  0  0  0  0
  -12.2134   -9.2761    7.9449 O   0  0  0  0  0  0  0  0  0  0  0  0
  -11.3402  -10.9911    5.4069 N   0  0  0  0  0  0  0  0  0  0  0  0
  -10.9718  -12.1746    4.8462 C   0  0  0  0  0  0  0  0  0  0  0  0
  -10.9628  -13.2058    5.7959 N   0  0  0  0  0  0  0  0  0  0  0  0
  1  2  1  0  0  0  0
  1  6  1  0  0  0  0
  2  3  2  0  0  0  0
  3  4  1  0  0  0  0
  4  5  2  0  0  0  0
  4 10  1  0  0  0  0
  5  6  1  0  0  0  0
  5  8  1  0  0  0  0
  6  7  2  0  0  0  0
  8  9  1  0  0  0  0
  9 10  2  0  0  0  0
M  END
>  <CHROM.1>
-11.57607883,-11.67146914,7.22764416,-2.87767981,1.28838840,-0.77939315

>  <Name>
ligand

>  <RI>
0

>  <Rbt.Current_Directory>
/home/itssahil/PROJECTS/Mol_Feturizer/New_Systems/rnas/2EES

>  <Rbt.Executable>
rbdock ($Id: //depot/dev/client3/rdock/2013.1/src/exe/rbdock.cxx#4 $)

>  <Rbt.Library>
libRbt.so (2013.1, Build901 2013/11/27)

>  <Rbt.Parameter_File>
/export/apps/rDock/src/rDock_2013.1_src/data/scripts/dock_solv.prm

>  <Rbt.Receptor>
prm/pocket_docking_3.prm

>  <SCORE>
-17.0476

>  <SCORE.INTER>
-17.0476

>  <SCORE.INTER.CONST>
1

>  <SCORE.INTER.POLAR>
0

>  <SCORE.INTER.ROT>
0

>  <SCORE.INTER.SOLV>
3.4949

>  <SCORE.INTER.VDW>
-16.13

>  <SCORE.INTER.norm>
-1.70476

>  <SCORE.INTRA>
0

>  <SCORE.INTRA.DIHEDRAL>
0

>  <SCORE.INTRA.DIHEDRAL.0>
0

>  <SCORE.INTRA.POLAR>
0

>  <SCORE.INTRA.POLAR.0>
0

>  <SCORE.INTRA.REPUL>
0

>  <SCORE.INTRA.REPUL.0>
0

>  <SCORE.INTRA.SOLV>
0

>  <SCORE.INTRA.SOLV.lig_0>
-4.28614

>  <SCORE.INTRA.VDW>
0

>  <SCORE.INTRA.VDW.0>
0

>  <SCORE.INTRA.norm>
0

>  <SCORE.RESTR>
0

>  <SCORE.RESTR.CAVITY>
0

>  <SCORE.RESTR.norm>
0

>  <SCORE.SYSTEM>
0

>  <SCORE.SYSTEM.CONST>
0

>  <SCORE.SYSTEM.DIHEDRAL>
0

>  <SCORE.SYSTEM.SOLV>
0

>  <SCORE.SYSTEM.norm>
0

>  <SCORE.heavy>
10

>  <SCORE.norm>
-1.70476

>  <RMSD>
0.402

$$$$
ligand
 OpenBabel11021811423D
libRbt.so/2013.1/901 2013/11/27
 10 11  0  0  0  0  0  0  0  0999 V2000
  -12.0378  -11.2202    9.0979 N   0  0  0  0  0  0  0  0  0  0  0  0
  -11.7825  -12.5875    9.2195 C   0  0  0  0  0  0  0  0  0  0  0  0
  -11.4229  -13.3488    8.1706 N   0  0  0  0  0  0  0  0  0  0  0  0
  -11.3319  -12.6327    6.9804 C   0  0  0  0  0  0  0  0  0  0  0  0
  -11.5735  -11.2744    6.7661 C   0  0  0  0  0  0  0  0  0  0  0  0
  -11.9649  -10.4568    7.8844 C   0  0  0  0  0  0  0  0  0  0  0  0
  -12.2227   -9.2793    7.9531 O   0  0  0  0  0  0  0  0  0  0  0  0
  -11.3492  -10.9837    5.4080 N   0  0  0  0  0  0  0  0  0  0  0  0
  -10.9763  -12.1639    4.8434 C   0  0  0  0  0  0  0  0  0  0  0  0
  -10.9581  -13.1972    5.7907 N   0  0  0  0  0  0  0  0  0  0  0  0
  1  2  1  0  0  0  0
  1  6  1  0  0  0  0
  2  3  2  0  0  0  0
  3  4  1  0  0  0  0
  4  5  2  0  0  0  0
  4 10  1  0  0  0  0
  5  6  1  0  0  0  0
  5  8  1  0  0  0  0
  6  7  2  0  0  0  0
  8  9  1  0  0  0  0
  9 10  2  0  0  0  0
M  END
>  <CHROM.1>
-11.57468466,-11.66950519,7.22808669,-2.85443820,1.28698349,-0.79943283

>  <Name>
ligand

>  <RI>
0

>  <Rbt.Current_Directory>
/home/itssahil/PROJECTS/Mol_Feturizer/New_Systems/rnas/2EES

>  <Rbt.Executable>
rbdock ($Id: //depot/dev/client3/rdock/2013.1/src/exe/rbdock.cxx#4 $)

>  <Rbt.Library>
libRbt.so (2013.1, Build901 2013/11/27)

>  <Rbt.Parameter_File>
/export/apps/rDock/src/rDock_2013.1_src/data/scripts/dock_solv.prm

>  <Rbt.Receptor>
prm/pocket_docking_5.prm

>  <SCORE>
-17.0098

>  <SCORE.INTER>
-17.0098

>  <SCORE.INTER.CONST>
1

>  <SCORE.INTER.POLAR>
0

>  <SCORE.INTER.ROT>
0

>  <SCORE.INTER.SOLV>
3.49463

>  <SCORE.INTER.VDW>
-16.1047

>  <SCORE.INTER.norm>
-1.70098

>  <SCORE.INTRA>
0

>  <SCORE.INTRA.DIHEDRAL>
0

>  <SCORE.INTRA.DIHEDRAL.0>
0

>  <SCORE.INTRA.POLAR>
0

>  <SCORE.INTRA.POLAR.0>
0

>  <SCORE.INTRA.REPUL>
0

>  <SCORE.INTRA.REPUL.0>
0

>  <SCORE.INTRA.SOLV>
0

>  <SCORE.INTRA.SOLV.lig_0>
-4.28614

>  <SCORE.INTRA.VDW>
0

>  <SCORE.INTRA.VDW.0>
0

>  <SCORE.INTRA.norm>
0

>  <SCORE.RESTR>
0

>  <SCORE.RESTR.CAVITY>
0

>  <SCORE.RESTR.norm>
0

>  <SCORE.SYSTEM>
0

>  <SCORE.SYSTEM.CONST>
0

>  <SCORE.SYSTEM.DIHEDRAL>
0

>  <SCORE.SYSTEM.SOLV>
0

>  <SCORE.SYSTEM.norm>
0

>  <SCORE.heavy>
10

>  <SCORE.norm>
-1.70098

>  <RMSD>
0.402

$$$$
ligand
 OpenBabel11021811423D
libRbt.so/2013.1/901 2013/11/27
 10 11  0  0  0  0  0  0  0  0999 V2000
  -12.0451  -11.2244    9.0943 N   0  0  0  0  0  0  0  0  0  0  0  0
  -11.8007  -12.5935    9.2183 C   0  0  0  0  0  0  0  0  0  0  0  0
  -11.4399  -13.3580    8.1721 N   0  0  0  0  0  0  0  0  0  0  0  0
  -11.3358  -12.6432    6.9822 C   0  0  0  0  0  0  0  0  0  0  0  0
  -11.5658  -11.2834    6.7656 C   0  0  0  0  0  0  0  0  0  0  0  0
  -11.9585  -10.4622    7.8809 C   0  0  0  0  0  0  0  0  0  0  0  0
  -12.2081   -9.2828    7.9473 O   0  0  0  0  0  0  0  0  0  0  0  0
  -11.3305  -10.9951    5.4089 N   0  0  0  0  0  0  0  0  0  0  0  0
  -10.9627  -12.1782    4.8473 C   0  0  0  0  0  0  0  0  0  0  0  0
  -10.9583  -13.2111    5.7952 N   0  0  0  0  0  0  0  0  0  0  0  0
  1  2  1  0  0  0  0
  1  6  1  0  0  0  0
  2  3  2  0  0  0  0
  3  4  1  0  0  0  0
  4  5  2  0  0  0  0
  4 10  1  0  0  0  0
  5  6  1  0  0  0  0
  5  8  1  0  0  0  0
  6  7  2  0  0  0  0
  8  9  1  0  0  0  0
  9 10  2  0  0  0  0
M  END
>  <CHROM.1>
-11.57301546,-11.67813662,7.22779110,-2.88977207,1.28756066,-0.76604488

>  <Name>
ligand

>  <RI>
0

>  <Rbt.Current_Directory>
/home/itssahil/PROJECTS/Mol_Feturizer/New_Systems/rnas/2EES

>  <Rbt.Executable>
rbdock ($Id: //depot/dev/client3/rdock/2013.1/src/exe/rbdock.cxx#4 $)

>  <Rbt.Library>
libRbt.so (2013.1, Build901 2013/11/27)

>  <Rbt.Parameter_File>
/export/apps/rDock/src/rDock_2013.1_src/data/scripts/dock_solv.prm

>  <Rbt.Receptor>
prm/pocket_docking_5.prm

>  <SCORE>
-17.0449

>  <SCORE.INTER>
-17.0449

>  <SCORE.INTER.CONST>
1

>  <SCORE.INTER.POLAR>
0

>  <SCORE.INTER.ROT>
0

>  <SCORE.INTER.SOLV>
3.49615

>  <SCORE.INTER.VDW>
-16.1287

>  <SCORE.INTER.norm>
-1.70449

>  <SCORE.INTRA>
0

>  <SCORE.INTRA.DIHEDRAL>
0

>  <SCORE.INTRA.DIHEDRAL.0>
0

>  <SCORE.INTRA.POLAR>
0

>  <SCORE.INTRA.POLAR.0>
0

>  <SCORE.INTRA.REPUL>
0

>  <SCORE.INTRA.REPUL.0>
0

>  <SCORE.INTRA.SOLV>
0

>  <SCORE.INTRA.SOLV.lig_0>
-4.28614

>  <SCORE.INTRA.VDW>
0

>  <SCORE.INTRA.VDW.0>
0

>  <SCORE.INTRA.norm>
0

>  <SCORE.RESTR>
0

>  <SCORE.RESTR.CAVITY>
0

>  <SCORE.RESTR.norm>
0

>  <SCORE.SYSTEM>
0

>  <SCORE.SYSTEM.CONST>
0

>  <SCORE.SYSTEM.DIHEDRAL>
0

>  <SCORE.SYSTEM.SOLV>
0

>  <SCORE.SYSTEM.norm>
0

>  <SCORE.heavy>
10

>  <SCORE.norm>
-1.70449

>  <RMSD>
0.402

$$$$
ligand
 OpenBabel11021811423D
libRbt.so/2013.1/901 2013/11/27
 10 11  0  0  0  0  0  0  0  0999 V2000
  -12.0337  -11.2181    9.0954 N   0  0  0  0  0  0  0  0  0  0  0  0
  -11.7830  -12.5861    9.2196 C   0  0  0  0  0  0  0  0  0  0  0  0
  -11.4280  -13.3510    8.1718 N   0  0  0  0  0  0  0  0  0  0  0  0
  -11.3367  -12.6379    6.9798 C   0  0  0  0  0  0  0  0  0  0  0  0
  -11.5738  -11.2793    6.7629 C   0  0  0  0  0  0  0  0  0  0  0  0
  -11.9603  -10.4577    7.8801 C   0  0  0  0  0  0  0  0  0  0  0  0
  -12.2138   -9.2792    7.9465 O   0  0  0  0  0  0  0  0  0  0  0  0
  -11.3510  -10.9924    5.4037 N   0  0  0  0  0  0  0  0  0  0  0  0
  -10.9833  -12.1752    4.8411 C   0  0  0  0  0  0  0  0  0  0  0  0
  -10.9670  -13.2064    5.7907 N   0  0  0  0  0  0  0  0  0  0  0  0
  1  2  1  0  0  0  0
  1  6  1  0  0  0  0
  2  3  2  0  0  0  0
  3  4  1  0  0  0  0
  4  5  2  0  0  0  0
  4 10  1  0  0  0  0
  5  6  1  0  0  0  0
  5  8  1  0  0  0  0
  6  7  2  0  0  0  0
  8  9  1  0  0  0  0
  9 10  2  0  0  0  0
M  END
>  <CHROM.1>
-11.57559466,-11.67328694,7.22576380,-2.85861210,1.29080207,-0.79769027

>  <Name>
ligand

>  <RI>
0

>  <Rbt.Current_Directory>
/home/itssahil/PROJECTS/Mol_Feturizer/New_Systems/rnas/2EES

>  <Rbt.Executable>
rbdock ($Id: //depot/dev/client3/rdock/2013.1/src/exe/rbdock.cxx#4 $)

>  <Rbt.Library>
libRbt.so (2013.1, Build901 2013/11/27)

>  <Rbt.Parameter_File>
/export/apps/rDock/src/rDock_2013.1_src/data/scripts/dock_solv.prm

>  <Rbt.Receptor>
prm/blind_docking_80.prm

>  <SCORE>
-17.0102

>  <SCORE.INTER>
-17.0102

>  <SCORE.INTER.CONST>
1

>  <SCORE.INTER.POLAR>
0

>  <SCORE.INTER.ROT>
0

>  <SCORE.INTER.SOLV>
3.50309

>  <SCORE.INTER.VDW>
-16.1078

>  <SCORE.INTER.norm>
-1.70102

>  <SCORE.INTRA>
0

>  <SCORE.INTRA.DIHEDRAL>
0

>  <SCORE.INTRA.DIHEDRAL.0>
0

>  <SCORE.INTRA.POLAR>
0

>  <SCORE.INTRA.POLAR.0>
0

>  <SCORE.INTRA.REPUL>
0

>  <SCORE.INTRA.REPUL.0>
0

>  <SCORE.INTRA.SOLV>
0

>  <SCORE.INTRA.SOLV.lig_0>
-4.28614

>  <SCORE.INTRA.VDW>
0

>  <SCORE.INTRA.VDW.0>
0

>  <SCORE.INTRA.norm>
0

>  <SCORE.RESTR>
0

>  <SCORE.RESTR.CAVITY>
0

>  <SCORE.RESTR.norm>
0

>  <SCORE.SYSTEM>
0

>  <SCORE.SYSTEM.CONST>
0

>  <SCORE.SYSTEM.DIHEDRAL>
0

>  <SCORE.SYSTEM.SOLV>
0

>  <SCORE.SYSTEM.norm>
0

>  <SCORE.heavy>
10

>  <SCORE.norm>
-1.70102

>  <RMSD>
0.406

$$$$
ligand
 OpenBabel11021811423D
libRbt.so/2013.1/901 2013/11/27
 10 11  0  0  0  0  0  0  0  0999 V2000
  -12.0365  -11.2139    9.0948 N   0  0  0  0  0  0  0  0  0  0  0  0
  -11.8007  -12.5847    9.2168 C   0  0  0  0  0  0  0  0  0  0  0  0
  -11.4470  -13.3504    8.1691 N   0  0  0  0  0  0  0  0  0  0  0  0
  -11.3409  -12.6351    6.9796 C   0  0  0  0  0  0  0  0  0  0  0  0
  -11.5627  -11.2735    6.7650 C   0  0  0  0  0  0  0  0  0  0  0  0
  -11.9477  -10.4510    7.8820 C   0  0  0  0  0  0  0  0  0  0  0  0
  -12.1894   -9.2701    7.9501 O   0  0  0  0  0  0  0  0  0  0  0  0
  -11.3284  -10.9854    5.4080 N   0  0  0  0  0  0  0  0  0  0  0  0
  -10.9695  -12.1703    4.8444 C   0  0  0  0  0  0  0  0  0  0  0  0
  -10.9697  -13.2042    5.7913 N   0  0  0  0  0  0  0  0  0  0  0  0
  1  2  1  0  0  0  0
  1  6  1  0  0  0  0
  2  3  2  0  0  0  0
  3  4  1  0  0  0  0
  4  5  2  0  0  0  0
  4 10  1  0  0  0  0
  5  6  1  0  0  0  0
  5  8  1  0  0  0  0
  6  7  2  0  0  0  0
  8  9  1  0  0  0  0
  9 10  2  0  0  0  0
M  END
>  <CHROM.1>
-11.57140436,-11.66874914,7.22675324,-2.90127409,1.29357477,-0.75395624

>  <Name>
ligand

>  <RI>
0

>  <Rbt.Current_Directory>
/home/itssahil/PROJECTS/Mol_Feturizer/New_Systems/rnas/2EES

>  <Rbt.Executable>
rbdock ($Id: //depot/dev/client3/rdock/2013.1/src/exe/rbdock.cxx#4 $)

>  <Rbt.Library>
libRbt.so (2013.1, Build901 2013/11/27)

>  <Rbt.Parameter_File>
/export/apps/rDock/src/rDock_2013.1_src/data/scripts/dock_solv.prm

>  <Rbt.Receptor>
prm/blind_docking_100.prm

>  <SCORE>
-16.9906

>  <SCORE.INTER>
-16.9906

>  <SCORE.INTER.CONST>
1

>  <SCORE.INTER.POLAR>
0

>  <SCORE.INTER.ROT>
0

>  <SCORE.INTER.SOLV>
3.51643

>  <SCORE.INTER.VDW>
-16.0992

>  <SCORE.INTER.norm>
-1.69906

>  <SCORE.INTRA>
0

>  <SCORE.INTRA.DIHEDRAL>
0

>  <SCORE.INTRA.DIHEDRAL.0>
0

>  <SCORE.INTRA.POLAR>
0

>  <SCORE.INTRA.POLAR.0>
0

>  <SCORE.INTRA.REPUL>
0

>  <SCORE.INTRA.REPUL.0>
0

>  <SCORE.INTRA.SOLV>
0

>  <SCORE.INTRA.SOLV.lig_0>
-4.28614

>  <SCORE.INTRA.VDW>
0

>  <SCORE.INTRA.VDW.0>
0

>  <SCORE.INTRA.norm>
0

>  <SCORE.RESTR>
0

>  <SCORE.RESTR.CAVITY>
0

>  <SCORE.RESTR.norm>
0

>  <SCORE.SYSTEM>
0

>  <SCORE.SYSTEM.CONST>
0

>  <SCORE.SYSTEM.DIHEDRAL>
0

>  <SCORE.SYSTEM.SOLV>
0

>  <SCORE.SYSTEM.norm>
0

>  <SCORE.heavy>
10

>  <SCORE.norm>
-1.69906

>  <RMSD>
0.407

$$$$
ligand
 OpenBabel11021811423D
libRbt.so/2013.1/901 2013/11/27
 10 11  0  0  0  0  0  0  0  0999 V2000
  -12.0394  -11.2202    9.0914 N   0  0  0  0  0  0  0  0  0  0  0  0
  -11.7895  -12.5885    9.2130 C   0  0  0  0  0  0  0  0  0  0  0  0
  -11.4284  -13.3504    8.1651 N   0  0  0  0  0  0  0  0  0  0  0  0
  -11.3301  -12.6339    6.9757 C   0  0  0  0  0  0  0  0  0  0  0  0
  -11.5659  -11.2746    6.7613 C   0  0  0  0  0  0  0  0  0  0  0  0
  -11.9589  -10.4563    7.8787 C   0  0  0  0  0  0  0  0  0  0  0  0
  -12.2127   -9.2780    7.9471 O   0  0  0  0  0  0  0  0  0  0  0  0
  -11.3352  -10.9838    5.4044 N   0  0  0  0  0  0  0  0  0  0  0  0
  -10.9643  -12.1649    4.8404 C   0  0  0  0  0  0  0  0  0  0  0  0
  -10.9535  -13.1989    5.7871 N   0  0  0  0  0  0  0  0  0  0  0  0
  1  2  1  0  0  0  0
  1  6  1  0  0  0  0
  2  3  2  0  0  0  0
  3  4  1  0  0  0  0
  4  5  2  0  0  0  0
  4 10  1  0  0  0  0
  5  6  1  0  0  0  0
  5  8  1  0  0  0  0
  6  7  2  0  0  0  0
  8  9  1  0  0  0  0
  9 10  2  0  0  0  0
M  END
>  <CHROM.1>
-11.57038946,-11.66997969,7.22308210,-2.87355649,1.28672948,-0.78042606

>  <Name>
ligand

>  <RI>
0

>  <Rbt.Current_Directory>
/home/itssahil/PROJECTS/Mol_Feturizer/New_Systems/rnas/2EES

>  <Rbt.Executable>
rbdock ($Id: //depot/dev/client3/rdock/2013.1/src/exe/rbdock.cxx#4 $)

>  <Rbt.Library>
libRbt.so (2013.1, Build901 2013/11/27)

>  <Rbt.Parameter_File>
/export/apps/rDock/src/rDock_2013.1_src/data/scripts/dock_solv.prm

>  <Rbt.Receptor>
prm/pocket_docking_3.prm

>  <SCORE>
-17.0112

>  <SCORE.INTER>
-17.0112

>  <SCORE.INTER.CONST>
1

>  <SCORE.INTER.POLAR>
0

>  <SCORE.INTER.ROT>
0

>  <SCORE.INTER.SOLV>
3.49562

>  <SCORE.INTER.VDW>
-16.106

>  <SCORE.INTER.norm>
-1.70112

>  <SCORE.INTRA>
0

>  <SCORE.INTRA.DIHEDRAL>
0

>  <SCORE.INTRA.DIHEDRAL.0>
0

>  <SCORE.INTRA.POLAR>
0

>  <SCORE.INTRA.POLAR.0>
0

>  <SCORE.INTRA.REPUL>
0

>  <SCORE.INTRA.REPUL.0>
0

>  <SCORE.INTRA.SOLV>
0

>  <SCORE.INTRA.SOLV.lig_0>
-4.28614

>  <SCORE.INTRA.VDW>
0

>  <SCORE.INTRA.VDW.0>
0

>  <SCORE.INTRA.norm>
0

>  <SCORE.RESTR>
0

>  <SCORE.RESTR.CAVITY>
0

>  <SCORE.RESTR.norm>
0

>  <SCORE.SYSTEM>
0

>  <SCORE.SYSTEM.CONST>
0

>  <SCORE.SYSTEM.DIHEDRAL>
0

>  <SCORE.SYSTEM.SOLV>
0

>  <SCORE.SYSTEM.norm>
0

>  <SCORE.heavy>
10

>  <SCORE.norm>
-1.70112

>  <RMSD>
0.407

$$$$
ligand
 OpenBabel11021811423D
libRbt.so/2013.1/901 2013/11/27
 10 11  0  0  0  0  0  0  0  0999 V2000
  -12.0548  -11.2155    9.0898 N   0  0  0  0  0  0  0  0  0  0  0  0
  -11.7979  -12.5829    9.2071 C   0  0  0  0  0  0  0  0  0  0  0  0
  -11.4335  -13.3396    8.1565 N   0  0  0  0  0  0  0  0  0  0  0  0
  -11.3394  -12.6188    6.9694 C   0  0  0  0  0  0  0  0  0  0  0  0
  -11.5822  -11.2601    6.7594 C   0  0  0  0  0  0  0  0  0  0  0  0
  -11.9788  -10.4473    7.8795 C   0  0  0  0  0  0  0  0  0  0  0  0
  -12.2385   -9.2705    7.9517 O   0  0  0  0  0  0  0  0  0  0  0  0
  -11.3536  -10.9639    5.4033 N   0  0  0  0  0  0  0  0  0  0  0  0
  -10.9770  -12.1413    4.8355 C   0  0  0  0  0  0  0  0  0  0  0  0
  -10.9605  -13.1782    5.7789 N   0  0  0  0  0  0  0  0  0  0  0  0
  1  2  1  0  0  0  0
  1  6  1  0  0  0  0
  2  3  2  0  0  0  0
  3  4  1  0  0  0  0
  4  5  2  0  0  0  0
  4 10  1  0  0  0  0
  5  6  1  0  0  0  0
  5  8  1  0  0  0  0
  6  7  2  0  0  0  0
  8  9  1  0  0  0  0
  9 10  2  0  0  0  0
M  END
>  <CHROM.1>
-11.58444409,-11.65696541,7.21991704,-2.85969149,1.28347558,-0.79058142

>  <Name>
ligand

>  <RI>
0

>  <Rbt.Current_Directory>
/home/itssahil/PROJECTS/Mol_Feturizer/New_Systems/rnas/2EES

>  <Rbt.Executable>
rbdock ($Id: //depot/dev/client3/rdock/2013.1/src/exe/rbdock.cxx#4 $)

>  <Rbt.Library>
libRbt.so (2013.1, Build901 2013/11/27)

>  <Rbt.Parameter_File>
/export/apps/rDock/src/rDock_2013.1_src/data/scripts/dock_solv.prm

>  <Rbt.Receptor>
prm/pocket_docking_5.prm

>  <SCORE>
-17.0054

>  <SCORE.INTER>
-17.0054

>  <SCORE.INTER.CONST>
1

>  <SCORE.INTER.POLAR>
0

>  <SCORE.INTER.ROT>
0

>  <SCORE.INTER.SOLV>
3.4819

>  <SCORE.INTER.VDW>
-16.0976

>  <SCORE.INTER.norm>
-1.70054

>  <SCORE.INTRA>
0

>  <SCORE.INTRA.DIHEDRAL>
0

>  <SCORE.INTRA.DIHEDRAL.0>
0

>  <SCORE.INTRA.POLAR>
0

>  <SCORE.INTRA.POLAR.0>
0

>  <SCORE.INTRA.REPUL>
0

>  <SCORE.INTRA.REPUL.0>
0

>  <SCORE.INTRA.SOLV>
0

>  <SCORE.INTRA.SOLV.lig_0>
-4.28614

>  <SCORE.INTRA.VDW>
0

>  <SCORE.INTRA.VDW.0>
0

>  <SCORE.INTRA.norm>
0

>  <SCORE.RESTR>
0

>  <SCORE.RESTR.CAVITY>
0

>  <SCORE.RESTR.norm>
0

>  <SCORE.SYSTEM>
0

>  <SCORE.SYSTEM.CONST>
0

>  <SCORE.SYSTEM.DIHEDRAL>
0

>  <SCORE.SYSTEM.SOLV>
0

>  <SCORE.SYSTEM.norm>
0

>  <SCORE.heavy>
10

>  <SCORE.norm>
-1.70054

>  <RMSD>
0.407

$$$$
ligand
 OpenBabel11021811423D
libRbt.so/2013.1/901 2013/11/27
 10 11  0  0  0  0  0  0  0  0999 V2000
  -12.0157  -11.2235    9.1105 N   0  0  0  0  0  0  0  0  0  0  0  0
  -11.7798  -12.5956    9.2165 C   0  0  0  0  0  0  0  0  0  0  0  0
  -11.4327  -13.3502    8.1586 N   0  0  0  0  0  0  0  0  0  0  0  0
  -11.3335  -12.6223    6.9762 C   0  0  0  0  0  0  0  0  0  0  0  0
  -11.5560  -11.2585    6.7774 C   0  0  0  0  0  0  0  0  0  0  0  0
  -11.9339  -10.4478    7.9055 C   0  0  0  0  0  0  0  0  0  0  0  0
  -12.1748   -9.2676    7.9876 O   0  0  0  0  0  0  0  0  0  0  0  0
  -11.3298  -10.9559    5.4223 N   0  0  0  0  0  0  0  0  0  0  0  0
  -10.9747  -12.1349    4.8439 C   0  0  0  0  0  0  0  0  0  0  0  0
  -10.9697  -13.1788    5.7796 N   0  0  0  0  0  0  0  0  0  0  0  0
  1  2  1  0  0  0  0
  1  6  1  0  0  0  0
  2  3  2  0  0  0  0
  3  4  1  0  0  0  0
  4  5  2  0  0  0  0
  4 10  1  0  0  0  0
  5  6  1  0  0  0  0
  5  8  1  0  0  0  0
  6  7  2  0  0  0  0
  8  9  1  0  0  0  0
  9 10  2  0  0  0  0
M  END
>  <CHROM.1>
-11.56211023,-11.65859862,7.23500833,-2.88701588,1.29821349,-0.75701394

>  <Name>
ligand

>  <RI>
0

>  <Rbt.Current_Directory>
/home/itssahil/PROJECTS/Mol_Feturizer/New_Systems/rnas/2EES

>  <Rbt.Executable>
rbdock ($Id: //depot/dev/client3/rdock/2013.1/src/exe/rbdock.cxx#4 $)

>  <Rbt.Library>
libRbt.so (2013.1, Build901 2013/11/27)

>  <Rbt.Parameter_File>
/export/apps/rDock/src/rDock_2013.1_src/data/scripts/dock_solv.prm

>  <Rbt.Receptor>
prm/pocket_docking_3.prm

>  <SCORE>
-16.9555

>  <SCORE.INTER>
-16.9555

>  <SCORE.INTER.CONST>
1

>  <SCORE.INTER.POLAR>
0

>  <SCORE.INTER.ROT>
0

>  <SCORE.INTER.SOLV>
3.55011

>  <SCORE.INTER.VDW>
-16.087

>  <SCORE.INTER.norm>
-1.69555

>  <SCORE.INTRA>
0

>  <SCORE.INTRA.DIHEDRAL>
0

>  <SCORE.INTRA.DIHEDRAL.0>
0

>  <SCORE.INTRA.POLAR>
0

>  <SCORE.INTRA.POLAR.0>
0

>  <SCORE.INTRA.REPUL>
0

>  <SCORE.INTRA.REPUL.0>
0

>  <SCORE.INTRA.SOLV>
0

>  <SCORE.INTRA.SOLV.lig_0>
-4.28614

>  <SCORE.INTRA.VDW>
0

>  <SCORE.INTRA.VDW.0>
0

>  <SCORE.INTRA.norm>
0

>  <SCORE.RESTR>
0

>  <SCORE.RESTR.CAVITY>
0

>  <SCORE.RESTR.norm>
0

>  <SCORE.SYSTEM>
0

>  <SCORE.SYSTEM.CONST>
0

>  <SCORE.SYSTEM.DIHEDRAL>
0

>  <SCORE.SYSTEM.SOLV>
0

>  <SCORE.SYSTEM.norm>
0

>  <SCORE.heavy>
10

>  <SCORE.norm>
-1.69555

>  <RMSD>
0.408

$$$$
ligand
 OpenBabel11021811423D
libRbt.so/2013.1/901 2013/11/27
 10 11  0  0  0  0  0  0  0  0999 V2000
  -12.0525  -11.2106    9.0868 N   0  0  0  0  0  0  0  0  0  0  0  0
  -11.7986  -12.5784    9.2060 C   0  0  0  0  0  0  0  0  0  0  0  0
  -11.4318  -13.3366    8.1573 N   0  0  0  0  0  0  0  0  0  0  0  0
  -11.3322  -12.6169    6.9700 C   0  0  0  0  0  0  0  0  0  0  0  0
  -11.5717  -11.2579    6.7581 C   0  0  0  0  0  0  0  0  0  0  0  0
  -11.9707  -10.4435    7.8762 C   0  0  0  0  0  0  0  0  0  0  0  0
  -12.2286   -9.2661    7.9466 O   0  0  0  0  0  0  0  0  0  0  0  0
  -11.3377  -10.9631    5.4026 N   0  0  0  0  0  0  0  0  0  0  0  0
  -10.9613  -12.1417    4.8370 C   0  0  0  0  0  0  0  0  0  0  0  0
  -10.9501  -13.1779    5.7812 N   0  0  0  0  0  0  0  0  0  0  0  0
  1  2  1  0  0  0  0
  1  6  1  0  0  0  0
  2  3  2  0  0  0  0
  3  4  1  0  0  0  0
  4  5  2  0  0  0  0
  4 10  1  0  0  0  0
  5  6  1  0  0  0  0
  5  8  1  0  0  0  0
  6  7  2  0  0  0  0
  8  9  1  0  0  0  0
  9 10  2  0  0  0  0
M  END
>  <CHROM.1>
-11.57633424,-11.65435470,7.21891186,-2.87316936,1.28227871,-0.77841547

>  <Name>
ligand

>  <RI>
0

>  <Rbt.Current_Directory>
/home/itssahil/PROJECTS/Mol_Feturizer/New_Systems/rnas/2EES

>  <Rbt.Executable>
rbdock ($Id: //depot/dev/client3/rdock/2013.1/src/exe/rbdock.cxx#4 $)

>  <Rbt.Library>
libRbt.so (2013.1, Build901 2013/11/27)

>  <Rbt.Parameter_File>
/export/apps/rDock/src/rDock_2013.1_src/data/scripts/dock_solv.prm

>  <Rbt.Receptor>
prm/pocket_docking_6.prm

>  <SCORE>
-17.0078

>  <SCORE.INTER>
-17.0078

>  <SCORE.INTER.CONST>
1

>  <SCORE.INTER.POLAR>
0

>  <SCORE.INTER.ROT>
0

>  <SCORE.INTER.SOLV>
3.48101

>  <SCORE.INTER.VDW>
-16.0989

>  <SCORE.INTER.norm>
-1.70078

>  <SCORE.INTRA>
0

>  <SCORE.INTRA.DIHEDRAL>
0

>  <SCORE.INTRA.DIHEDRAL.0>
0

>  <SCORE.INTRA.POLAR>
0

>  <SCORE.INTRA.POLAR.0>
0

>  <SCORE.INTRA.REPUL>
0

>  <SCORE.INTRA.REPUL.0>
0

>  <SCORE.INTRA.SOLV>
0

>  <SCORE.INTRA.SOLV.lig_0>
-4.28614

>  <SCORE.INTRA.VDW>
0

>  <SCORE.INTRA.VDW.0>
0

>  <SCORE.INTRA.norm>
0

>  <SCORE.RESTR>
0

>  <SCORE.RESTR.CAVITY>
0

>  <SCORE.RESTR.norm>
0

>  <SCORE.SYSTEM>
0

>  <SCORE.SYSTEM.CONST>
0

>  <SCORE.SYSTEM.DIHEDRAL>
0

>  <SCORE.SYSTEM.SOLV>
0

>  <SCORE.SYSTEM.norm>
0

>  <SCORE.heavy>
10

>  <SCORE.norm>
-1.70078

>  <RMSD>
0.408

$$$$
ligand
 OpenBabel11021811423D
libRbt.so/2013.1/901 2013/11/27
 10 11  0  0  0  0  0  0  0  0999 V2000
  -12.0402  -11.2271    9.0880 N   0  0  0  0  0  0  0  0  0  0  0  0
  -11.7889  -12.5955    9.2061 C   0  0  0  0  0  0  0  0  0  0  0  0
  -11.4239  -13.3536    8.1567 N   0  0  0  0  0  0  0  0  0  0  0  0
  -11.3232  -12.6332    6.9699 C   0  0  0  0  0  0  0  0  0  0  0  0
  -11.5601  -11.2736    6.7592 C   0  0  0  0  0  0  0  0  0  0  0  0
  -11.9573  -10.4593    7.8780 C   0  0  0  0  0  0  0  0  0  0  0  0
  -12.2128   -9.2815    7.9494 O   0  0  0  0  0  0  0  0  0  0  0  0
  -11.3259  -10.9782    5.4038 N   0  0  0  0  0  0  0  0  0  0  0  0
  -10.9519  -12.1570    4.8372 C   0  0  0  0  0  0  0  0  0  0  0  0
  -10.9425  -13.1940    5.7806 N   0  0  0  0  0  0  0  0  0  0  0  0
  1  2  1  0  0  0  0
  1  6  1  0  0  0  0
  2  3  2  0  0  0  0
  3  4  1  0  0  0  0
  4  5  2  0  0  0  0
  4 10  1  0  0  0  0
  5  6  1  0  0  0  0
  5  8  1  0  0  0  0
  6  7  2  0  0  0  0
  8  9  1  0  0  0  0
  9 10  2  0  0  0  0
M  END
>  <CHROM.1>
-11.56537728,-11.67037451,7.21967931,-2.87738610,1.28380896,-0.77358452

>  <Name>
ligand

>  <RI>
0

>  <Rbt.Current_Directory>
/home/itssahil/PROJECTS/Mol_Feturizer/New_Systems/rnas/2EES

>  <Rbt.Executable>
rbdock ($Id: //depot/dev/client3/rdock/2013.1/src/exe/rbdock.cxx#4 $)

>  <Rbt.Library>
libRbt.so (2013.1, Build901 2013/11/27)

>  <Rbt.Parameter_File>
/export/apps/rDock/src/rDock_2013.1_src/data/scripts/dock_solv.prm

>  <Rbt.Receptor>
prm/pocket_docking_3.prm

>  <SCORE>
-17.0077

>  <SCORE.INTER>
-17.0077

>  <SCORE.INTER.CONST>
1

>  <SCORE.INTER.POLAR>
0

>  <SCORE.INTER.ROT>
0

>  <SCORE.INTER.SOLV>
3.49215

>  <SCORE.INTER.VDW>
-16.1025

>  <SCORE.INTER.norm>
-1.70077

>  <SCORE.INTRA>
0

>  <SCORE.INTRA.DIHEDRAL>
0

>  <SCORE.INTRA.DIHEDRAL.0>
0

>  <SCORE.INTRA.POLAR>
0

>  <SCORE.INTRA.POLAR.0>
0

>  <SCORE.INTRA.REPUL>
0

>  <SCORE.INTRA.REPUL.0>
0

>  <SCORE.INTRA.SOLV>
0

>  <SCORE.INTRA.SOLV.lig_0>
-4.28614

>  <SCORE.INTRA.VDW>
0

>  <SCORE.INTRA.VDW.0>
0

>  <SCORE.INTRA.norm>
0

>  <SCORE.RESTR>
0

>  <SCORE.RESTR.CAVITY>
0

>  <SCORE.RESTR.norm>
0

>  <SCORE.SYSTEM>
0

>  <SCORE.SYSTEM.CONST>
0

>  <SCORE.SYSTEM.DIHEDRAL>
0

>  <SCORE.SYSTEM.SOLV>
0

>  <SCORE.SYSTEM.norm>
0

>  <SCORE.heavy>
10

>  <SCORE.norm>
-1.70077

>  <RMSD>
0.410

$$$$
ligand
 OpenBabel11021811423D
libRbt.so/2013.1/901 2013/11/27
 10 11  0  0  0  0  0  0  0  0999 V2000
  -12.0343  -11.2197    9.0889 N   0  0  0  0  0  0  0  0  0  0  0  0
  -11.7565  -12.5833    9.2035 C   0  0  0  0  0  0  0  0  0  0  0  0
  -11.3854  -13.3334    8.1506 N   0  0  0  0  0  0  0  0  0  0  0  0
  -11.3071  -12.6100    6.9638 C   0  0  0  0  0  0  0  0  0  0  0  0
  -11.5710  -11.2549    6.7564 C   0  0  0  0  0  0  0  0  0  0  0  0
  -11.9748  -10.4493    7.8791 C   0  0  0  0  0  0  0  0  0  0  0  0
  -12.2518   -9.2765    7.9538 O   0  0  0  0  0  0  0  0  0  0  0  0
  -11.3526  -10.9539    5.3997 N   0  0  0  0  0  0  0  0  0  0  0  0
  -10.9609  -12.1249    4.8289 C   0  0  0  0  0  0  0  0  0  0  0  0
  -10.9250  -13.1625    5.7711 N   0  0  0  0  0  0  0  0  0  0  0  0
  1  2  1  0  0  0  0
  1  6  1  0  0  0  0
  2  3  2  0  0  0  0
  3  4  1  0  0  0  0
  4  5  2  0  0  0  0
  4 10  1  0  0  0  0
  5  6  1  0  0  0  0
  5  8  1  0  0  0  0
  6  7  2  0  0  0  0
  8  9  1  0  0  0  0
  9 10  2  0  0  0  0
M  END
>  <CHROM.1>
-11.56537207,-11.65217625,7.21649998,-2.81322652,1.27558885,-0.83400331

>  <Name>
ligand

>  <RI>
0

>  <Rbt.Current_Directory>
/home/itssahil/PROJECTS/Mol_Feturizer/New_Systems/rnas/2EES

>  <Rbt.Executable>
rbdock ($Id: //depot/dev/client3/rdock/2013.1/src/exe/rbdock.cxx#4 $)

>  <Rbt.Library>
libRbt.so (2013.1, Build901 2013/11/27)

>  <Rbt.Parameter_File>
/export/apps/rDock/src/rDock_2013.1_src/data/scripts/dock_solv.prm

>  <Rbt.Receptor>
prm/pocket_docking_3.prm

>  <SCORE>
-17.0297

>  <SCORE.INTER>
-17.0297

>  <SCORE.INTER.CONST>
1

>  <SCORE.INTER.POLAR>
0

>  <SCORE.INTER.ROT>
0

>  <SCORE.INTER.SOLV>
3.46981

>  <SCORE.INTER.VDW>
-16.1098

>  <SCORE.INTER.norm>
-1.70297

>  <SCORE.INTRA>
0

>  <SCORE.INTRA.DIHEDRAL>
0

>  <SCORE.INTRA.DIHEDRAL.0>
0

>  <SCORE.INTRA.POLAR>
0

>  <SCORE.INTRA.POLAR.0>
0

>  <SCORE.INTRA.REPUL>
0

>  <SCORE.INTRA.REPUL.0>
0

>  <SCORE.INTRA.SOLV>
0

>  <SCORE.INTRA.SOLV.lig_0>
-4.28614

>  <SCORE.INTRA.VDW>
0

>  <SCORE.INTRA.VDW.0>
0

>  <SCORE.INTRA.norm>
0

>  <SCORE.RESTR>
0

>  <SCORE.RESTR.CAVITY>
0

>  <SCORE.RESTR.norm>
0

>  <SCORE.SYSTEM>
0

>  <SCORE.SYSTEM.CONST>
0

>  <SCORE.SYSTEM.DIHEDRAL>
0

>  <SCORE.SYSTEM.SOLV>
0

>  <SCORE.SYSTEM.norm>
0

>  <SCORE.heavy>
10

>  <SCORE.norm>
-1.70297

>  <RMSD>
0.411

$$$$
ligand
 OpenBabel11021811423D
libRbt.so/2013.1/901 2013/11/27
 10 11  0  0  0  0  0  0  0  0999 V2000
  -12.0435  -11.2194    9.0887 N   0  0  0  0  0  0  0  0  0  0  0  0
  -11.7845  -12.5866    9.2040 C   0  0  0  0  0  0  0  0  0  0  0  0
  -11.4210  -13.3417    8.1520 N   0  0  0  0  0  0  0  0  0  0  0  0
  -11.3301  -12.6196    6.9654 C   0  0  0  0  0  0  0  0  0  0  0  0
  -11.5752  -11.2610    6.7574 C   0  0  0  0  0  0  0  0  0  0  0  0
  -11.9708  -10.4499    7.8790 C   0  0  0  0  0  0  0  0  0  0  0  0
  -12.2321   -9.2735    7.9530 O   0  0  0  0  0  0  0  0  0  0  0  0
  -11.3496  -10.9631    5.4011 N   0  0  0  0  0  0  0  0  0  0  0  0
  -10.9724  -12.1394    4.8313 C   0  0  0  0  0  0  0  0  0  0  0  0
  -10.9527  -13.1772    5.7736 N   0  0  0  0  0  0  0  0  0  0  0  0
  1  2  1  0  0  0  0
  1  6  1  0  0  0  0
  2  3  2  0  0  0  0
  3  4  1  0  0  0  0
  4  5  2  0  0  0  0
  4 10  1  0  0  0  0
  5  6  1  0  0  0  0
  5  8  1  0  0  0  0
  6  7  2  0  0  0  0
  8  9  1  0  0  0  0
  9 10  2  0  0  0  0
M  END
>  <CHROM.1>
-11.57605293,-11.65829784,7.21744530,-2.85148178,1.28378664,-0.79741598

>  <Name>
ligand

>  <RI>
0

>  <Rbt.Current_Directory>
/home/itssahil/PROJECTS/Mol_Feturizer/New_Systems/rnas/2EES

>  <Rbt.Executable>
rbdock ($Id: //depot/dev/client3/rdock/2013.1/src/exe/rbdock.cxx#4 $)

>  <Rbt.Library>
libRbt.so (2013.1, Build901 2013/11/27)

>  <Rbt.Parameter_File>
/export/apps/rDock/src/rDock_2013.1_src/data/scripts/dock_solv.prm

>  <Rbt.Receptor>
prm/pocket_docking_6.prm

>  <SCORE>
-17.0079

>  <SCORE.INTER>
-17.0079

>  <SCORE.INTER.CONST>
1

>  <SCORE.INTER.POLAR>
0

>  <SCORE.INTER.ROT>
0

>  <SCORE.INTER.SOLV>
3.48854

>  <SCORE.INTER.VDW>
-16.1015

>  <SCORE.INTER.norm>
-1.70079

>  <SCORE.INTRA>
0

>  <SCORE.INTRA.DIHEDRAL>
0

>  <SCORE.INTRA.DIHEDRAL.0>
0

>  <SCORE.INTRA.POLAR>
0

>  <SCORE.INTRA.POLAR.0>
0

>  <SCORE.INTRA.REPUL>
0

>  <SCORE.INTRA.REPUL.0>
0

>  <SCORE.INTRA.SOLV>
0

>  <SCORE.INTRA.SOLV.lig_0>
-4.28614

>  <SCORE.INTRA.VDW>
0

>  <SCORE.INTRA.VDW.0>
0

>  <SCORE.INTRA.norm>
0

>  <SCORE.RESTR>
0

>  <SCORE.RESTR.CAVITY>
0

>  <SCORE.RESTR.norm>
0

>  <SCORE.SYSTEM>
0

>  <SCORE.SYSTEM.CONST>
0

>  <SCORE.SYSTEM.DIHEDRAL>
0

>  <SCORE.SYSTEM.SOLV>
0

>  <SCORE.SYSTEM.norm>
0

>  <SCORE.heavy>
10

>  <SCORE.norm>
-1.70079

>  <RMSD>
0.411

$$$$
ligand
 OpenBabel11021811423D
libRbt.so/2013.1/901 2013/11/27
 10 11  0  0  0  0  0  0  0  0999 V2000
  -12.0261  -11.2272    9.0886 N   0  0  0  0  0  0  0  0  0  0  0  0
  -11.7636  -12.5936    9.2056 C   0  0  0  0  0  0  0  0  0  0  0  0
  -11.3994  -13.3493    8.1542 N   0  0  0  0  0  0  0  0  0  0  0  0
  -11.3119  -12.6286    6.9665 C   0  0  0  0  0  0  0  0  0  0  0  0
  -11.5606  -11.2709    6.7568 C   0  0  0  0  0  0  0  0  0  0  0  0
  -11.9568  -10.4593    7.8778 C   0  0  0  0  0  0  0  0  0  0  0  0
  -12.2209   -9.2834    7.9505 O   0  0  0  0  0  0  0  0  0  0  0  0
  -11.3373  -10.9743    5.3999 N   0  0  0  0  0  0  0  0  0  0  0  0
  -10.9579  -12.1505    4.8313 C   0  0  0  0  0  0  0  0  0  0  0  0
  -10.9345  -13.1869    5.7750 N   0  0  0  0  0  0  0  0  0  0  0  0
  1  2  1  0  0  0  0
  1  6  1  0  0  0  0
  2  3  2  0  0  0  0
  3  4  1  0  0  0  0
  4  5  2  0  0  0  0
  4 10  1  0  0  0  0
  5  6  1  0  0  0  0
  5  8  1  0  0  0  0
  6  7  2  0  0  0  0
  8  9  1  0  0  0  0
  9 10  2  0  0  0  0
M  END
>  <CHROM.1>
-11.55984671,-11.66758172,7.21743602,-2.84233093,1.28285966,-0.80758129

>  <Name>
ligand

>  <RI>
0

>  <Rbt.Current_Directory>
/home/itssahil/PROJECTS/Mol_Feturizer/New_Systems/rnas/2EES

>  <Rbt.Executable>
rbdock ($Id: //depot/dev/client3/rdock/2013.1/src/exe/rbdock.cxx#4 $)

>  <Rbt.Library>
libRbt.so (2013.1, Build901 2013/11/27)

>  <Rbt.Parameter_File>
/export/apps/rDock/src/rDock_2013.1_src/data/scripts/dock_solv.prm

>  <Rbt.Receptor>
prm/blind_docking_80.prm

>  <SCORE>
-17.0042

>  <SCORE.INTER>
-17.0042

>  <SCORE.INTER.CONST>
1

>  <SCORE.INTER.POLAR>
0

>  <SCORE.INTER.ROT>
0

>  <SCORE.INTER.SOLV>
3.49248

>  <SCORE.INTER.VDW>
-16.1003

>  <SCORE.INTER.norm>
-1.70042

>  <SCORE.INTRA>
0

>  <SCORE.INTRA.DIHEDRAL>
0

>  <SCORE.INTRA.DIHEDRAL.0>
0

>  <SCORE.INTRA.POLAR>
0

>  <SCORE.INTRA.POLAR.0>
0

>  <SCORE.INTRA.REPUL>
0

>  <SCORE.INTRA.REPUL.0>
0

>  <SCORE.INTRA.SOLV>
0

>  <SCORE.INTRA.SOLV.lig_0>
-4.28614

>  <SCORE.INTRA.VDW>
0

>  <SCORE.INTRA.VDW.0>
0

>  <SCORE.INTRA.norm>
0

>  <SCORE.RESTR>
0

>  <SCORE.RESTR.CAVITY>
0

>  <SCORE.RESTR.norm>
0

>  <SCORE.SYSTEM>
0

>  <SCORE.SYSTEM.CONST>
0

>  <SCORE.SYSTEM.DIHEDRAL>
0

>  <SCORE.SYSTEM.SOLV>
0

>  <SCORE.SYSTEM.norm>
0

>  <SCORE.heavy>
10

>  <SCORE.norm>
-1.70042

>  <RMSD>
0.413

$$$$
ligand
 OpenBabel11021811423D
libRbt.so/2013.1/901 2013/11/27
 10 11  0  0  0  0  0  0  0  0999 V2000
  -12.0527  -11.2184    9.0770 N   0  0  0  0  0  0  0  0  0  0  0  0
  -11.7490  -12.5772    9.1810 C   0  0  0  0  0  0  0  0  0  0  0  0
  -11.3553  -13.3099    8.1239 N   0  0  0  0  0  0  0  0  0  0  0  0
  -11.2827  -12.5739    6.9446 C   0  0  0  0  0  0  0  0  0  0  0  0
  -11.5717  -11.2223    6.7479 C   0  0  0  0  0  0  0  0  0  0  0  0
  -11.9997  -10.4354    7.8750 C   0  0  0  0  0  0  0  0  0  0  0  0
  -12.3003   -9.2691    7.9585 O   0  0  0  0  0  0  0  0  0  0  0  0
  -11.3494  -10.9041    5.3957 N   0  0  0  0  0  0  0  0  0  0  0  0
  -10.9305  -12.0618    4.8170 C   0  0  0  0  0  0  0  0  0  0  0  0
  -10.8810  -13.1073    5.7496 N   0  0  0  0  0  0  0  0  0  0  0  0
  1  2  1  0  0  0  0
  1  6  1  0  0  0  0
  2  3  2  0  0  0  0
  3  4  1  0  0  0  0
  4  5  2  0  0  0  0
  4 10  1  0  0  0  0
  5  6  1  0  0  0  0
  5  8  1  0  0  0  0
  6  7  2  0  0  0  0
  8  9  1  0  0  0  0
  9 10  2  0  0  0  0
M  END
>  <CHROM.1>
-11.56165747,-11.62373114,7.20424747,-2.78796270,1.25593497,-0.84867632

>  <Name>
ligand

>  <RI>
0

>  <Rbt.Current_Directory>
/home/itssahil/PROJECTS/Mol_Feturizer/New_Systems/rnas/2EES

>  <Rbt.Executable>
rbdock ($Id: //depot/dev/client3/rdock/2013.1/src/exe/rbdock.cxx#4 $)

>  <Rbt.Library>
libRbt.so (2013.1, Build901 2013/11/27)

>  <Rbt.Parameter_File>
/export/apps/rDock/src/rDock_2013.1_src/data/scripts/dock_solv.prm

>  <Rbt.Receptor>
prm/blind_docking_80.prm

>  <SCORE>
-16.9918

>  <SCORE.INTER>
-16.9918

>  <SCORE.INTER.CONST>
1

>  <SCORE.INTER.POLAR>
0

>  <SCORE.INTER.ROT>
0

>  <SCORE.INTER.SOLV>
3.42125

>  <SCORE.INTER.VDW>
-16.0683

>  <SCORE.INTER.norm>
-1.69918

>  <SCORE.INTRA>
0

>  <SCORE.INTRA.DIHEDRAL>
0

>  <SCORE.INTRA.DIHEDRAL.0>
0

>  <SCORE.INTRA.POLAR>
0

>  <SCORE.INTRA.POLAR.0>
0

>  <SCORE.INTRA.REPUL>
0

>  <SCORE.INTRA.REPUL.0>
0

>  <SCORE.INTRA.SOLV>
0

>  <SCORE.INTRA.SOLV.lig_0>
-4.28614

>  <SCORE.INTRA.VDW>
0

>  <SCORE.INTRA.VDW.0>
0

>  <SCORE.INTRA.norm>
0

>  <SCORE.RESTR>
0

>  <SCORE.RESTR.CAVITY>
0

>  <SCORE.RESTR.norm>
0

>  <SCORE.SYSTEM>
0

>  <SCORE.SYSTEM.CONST>
0

>  <SCORE.SYSTEM.DIHEDRAL>
0

>  <SCORE.SYSTEM.SOLV>
0

>  <SCORE.SYSTEM.norm>
0

>  <SCORE.heavy>
10

>  <SCORE.norm>
-1.69918

>  <RMSD>
0.419

$$$$
ligand
 OpenBabel11021811423D
libRbt.so/2013.1/901 2013/11/27
 10 11  0  0  0  0  0  0  0  0999 V2000
  -12.0244  -11.2173    9.0794 N   0  0  0  0  0  0  0  0  0  0  0  0
  -11.7601  -12.5834    9.1959 C   0  0  0  0  0  0  0  0  0  0  0  0
  -11.3941  -13.3381    8.1445 N   0  0  0  0  0  0  0  0  0  0  0  0
  -11.3067  -12.6167    6.9572 C   0  0  0  0  0  0  0  0  0  0  0  0
  -11.5571  -11.2593    6.7479 C   0  0  0  0  0  0  0  0  0  0  0  0
  -11.9553  -10.4487    7.8690 C   0  0  0  0  0  0  0  0  0  0  0  0
  -12.2211   -9.2733    7.9419 O   0  0  0  0  0  0  0  0  0  0  0  0
  -11.3333  -10.9618    5.3912 N   0  0  0  0  0  0  0  0  0  0  0  0
  -10.9518  -12.1372    4.8224 C   0  0  0  0  0  0  0  0  0  0  0  0
  -10.9277  -13.1740    5.7657 N   0  0  0  0  0  0  0  0  0  0  0  0
  1  2  1  0  0  0  0
  1  6  1  0  0  0  0
  2  3  2  0  0  0  0
  3  4  1  0  0  0  0
  4  5  2  0  0  0  0
  4 10  1  0  0  0  0
  5  6  1  0  0  0  0
  5  8  1  0  0  0  0
  6  7  2  0  0  0  0
  8  9  1  0  0  0  0
  9 10  2  0  0  0  0
M  END
>  <CHROM.1>
-11.55619766,-11.65616577,7.20835661,-2.84079091,1.28135613,-0.80861944

>  <Name>
ligand

>  <RI>
0

>  <Rbt.Current_Directory>
/home/itssahil/PROJECTS/Mol_Feturizer/New_Systems/rnas/2EES

>  <Rbt.Executable>
rbdock ($Id: //depot/dev/client3/rdock/2013.1/src/exe/rbdock.cxx#4 $)

>  <Rbt.Library>
libRbt.so (2013.1, Build901 2013/11/27)

>  <Rbt.Parameter_File>
/export/apps/rDock/src/rDock_2013.1_src/data/scripts/dock_solv.prm

>  <Rbt.Receptor>
prm/pocket_docking_8.prm

>  <SCORE>
-17.0009

>  <SCORE.INTER>
-17.0009

>  <SCORE.INTER.CONST>
1

>  <SCORE.INTER.POLAR>
0

>  <SCORE.INTER.ROT>
0

>  <SCORE.INTER.SOLV>
3.48912

>  <SCORE.INTER.VDW>
-16.097

>  <SCORE.INTER.norm>
-1.70009

>  <SCORE.INTRA>
0

>  <SCORE.INTRA.DIHEDRAL>
0

>  <SCORE.INTRA.DIHEDRAL.0>
0

>  <SCORE.INTRA.POLAR>
0

>  <SCORE.INTRA.POLAR.0>
0

>  <SCORE.INTRA.REPUL>
0

>  <SCORE.INTRA.REPUL.0>
0

>  <SCORE.INTRA.SOLV>
0

>  <SCORE.INTRA.SOLV.lig_0>
-4.28614

>  <SCORE.INTRA.VDW>
0

>  <SCORE.INTRA.VDW.0>
0

>  <SCORE.INTRA.norm>
0

>  <SCORE.RESTR>
0

>  <SCORE.RESTR.CAVITY>
0

>  <SCORE.RESTR.norm>
0

>  <SCORE.SYSTEM>
0

>  <SCORE.SYSTEM.CONST>
0

>  <SCORE.SYSTEM.DIHEDRAL>
0

>  <SCORE.SYSTEM.SOLV>
0

>  <SCORE.SYSTEM.norm>
0

>  <SCORE.heavy>
10

>  <SCORE.norm>
-1.70009

>  <RMSD>
0.421

$$$$
ligand
 OpenBabel11021811423D
libRbt.so/2013.1/901 2013/11/27
 10 11  0  0  0  0  0  0  0  0999 V2000
  -12.0001  -11.2173    9.1090 N   0  0  0  0  0  0  0  0  0  0  0  0
  -11.7632  -12.5905    9.1979 C   0  0  0  0  0  0  0  0  0  0  0  0
  -11.4250  -13.3334    8.1289 N   0  0  0  0  0  0  0  0  0  0  0  0
  -11.3358  -12.5925    6.9538 C   0  0  0  0  0  0  0  0  0  0  0  0
  -11.5600  -11.2266    6.7718 C   0  0  0  0  0  0  0  0  0  0  0  0
  -11.9284  -10.4284    7.9118 C   0  0  0  0  0  0  0  0  0  0  0  0
  -12.1686   -9.2492    8.0089 O   0  0  0  0  0  0  0  0  0  0  0  0
  -11.3452  -10.9092    5.4182 N   0  0  0  0  0  0  0  0  0  0  0  0
  -10.9949  -12.0817    4.8240 C   0  0  0  0  0  0  0  0  0  0  0  0
  -10.9820  -13.1358    5.7482 N   0  0  0  0  0  0  0  0  0  0  0  0
  1  2  1  0  0  0  0
  1  6  1  0  0  0  0
  2  3  2  0  0  0  0
  3  4  1  0  0  0  0
  4  5  2  0  0  0  0
  4 10  1  0  0  0  0
  5  6  1  0  0  0  0
  5  8  1  0  0  0  0
  6  7  2  0  0  0  0
  8  9  1  0  0  0  0
  9 10  2  0  0  0  0
M  END
>  <CHROM.1>
-11.56220422,-11.63173308,7.22503741,-2.86497814,1.30423976,-0.76729394

>  <Name>
ligand

>  <RI>
0

>  <Rbt.Current_Directory>
/home/itssahil/PROJECTS/Mol_Feturizer/New_Systems/rnas/2EES

>  <Rbt.Executable>
rbdock ($Id: //depot/dev/client3/rdock/2013.1/src/exe/rbdock.cxx#4 $)

>  <Rbt.Library>
libRbt.so (2013.1, Build901 2013/11/27)

>  <Rbt.Parameter_File>
/export/apps/rDock/src/rDock_2013.1_src/data/scripts/dock_solv.prm

>  <Rbt.Receptor>
prm/pocket_docking_3.prm

>  <SCORE>
-16.9296

>  <SCORE.INTER>
-16.9296

>  <SCORE.INTER.CONST>
1

>  <SCORE.INTER.POLAR>
0

>  <SCORE.INTER.ROT>
0

>  <SCORE.INTER.SOLV>
3.58004

>  <SCORE.INTER.VDW>
-16.0797

>  <SCORE.INTER.norm>
-1.69296

>  <SCORE.INTRA>
0

>  <SCORE.INTRA.DIHEDRAL>
0

>  <SCORE.INTRA.DIHEDRAL.0>
0

>  <SCORE.INTRA.POLAR>
0

>  <SCORE.INTRA.POLAR.0>
0

>  <SCORE.INTRA.REPUL>
0

>  <SCORE.INTRA.REPUL.0>
0

>  <SCORE.INTRA.SOLV>
0

>  <SCORE.INTRA.SOLV.lig_0>
-4.28614

>  <SCORE.INTRA.VDW>
0

>  <SCORE.INTRA.VDW.0>
0

>  <SCORE.INTRA.norm>
0

>  <SCORE.RESTR>
0

>  <SCORE.RESTR.CAVITY>
0

>  <SCORE.RESTR.norm>
0

>  <SCORE.SYSTEM>
0

>  <SCORE.SYSTEM.CONST>
0

>  <SCORE.SYSTEM.DIHEDRAL>
0

>  <SCORE.SYSTEM.SOLV>
0

>  <SCORE.SYSTEM.norm>
0

>  <SCORE.heavy>
10

>  <SCORE.norm>
-1.69296

>  <RMSD>
0.426

$$$$
ligand
 OpenBabel11021811423D
libRbt.so/2013.1/901 2013/11/27
 10 11  0  0  0  0  0  0  0  0999 V2000
  -12.0558  -11.2368    9.0715 N   0  0  0  0  0  0  0  0  0  0  0  0
  -11.7874  -12.6037    9.1680 C   0  0  0  0  0  0  0  0  0  0  0  0
  -11.4094  -13.3397    8.1075 N   0  0  0  0  0  0  0  0  0  0  0  0
  -11.3142  -12.5986    6.9330 C   0  0  0  0  0  0  0  0  0  0  0  0
  -11.5679  -11.2388    6.7439 C   0  0  0  0  0  0  0  0  0  0  0  0
  -11.9790  -10.4482    7.8745 C   0  0  0  0  0  0  0  0  0  0  0  0
  -12.2498   -9.2751    7.9644 O   0  0  0  0  0  0  0  0  0  0  0  0
  -11.3333  -10.9183    5.3943 N   0  0  0  0  0  0  0  0  0  0  0  0
  -10.9425  -12.0827    4.8097 C   0  0  0  0  0  0  0  0  0  0  0  0
  -10.9227  -13.1349    5.7360 N   0  0  0  0  0  0  0  0  0  0  0  0
  1  2  1  0  0  0  0
  1  6  1  0  0  0  0
  2  3  2  0  0  0  0
  3  4  1  0  0  0  0
  4  5  2  0  0  0  0
  4 10  1  0  0  0  0
  5  6  1  0  0  0  0
  5  8  1  0  0  0  0
  6  7  2  0  0  0  0
  8  9  1  0  0  0  0
  9 10  2  0  0  0  0
M  END
>  <CHROM.1>
-11.56954512,-11.64320506,7.19774708,-2.85352919,1.27255202,-0.78000653

>  <Name>
ligand

>  <RI>
0

>  <Rbt.Current_Directory>
/home/itssahil/PROJECTS/Mol_Feturizer/New_Systems/rnas/2EES

>  <Rbt.Executable>
rbdock ($Id: //depot/dev/client3/rdock/2013.1/src/exe/rbdock.cxx#4 $)

>  <Rbt.Library>
libRbt.so (2013.1, Build901 2013/11/27)

>  <Rbt.Parameter_File>
/export/apps/rDock/src/rDock_2013.1_src/data/scripts/dock_solv.prm

>  <Rbt.Receptor>
prm/blind_docking_100.prm

>  <SCORE>
-16.9698

>  <SCORE.INTER>
-16.9698

>  <SCORE.INTER.CONST>
1

>  <SCORE.INTER.POLAR>
0

>  <SCORE.INTER.ROT>
0

>  <SCORE.INTER.SOLV>
3.47156

>  <SCORE.INTER.VDW>
-16.0704

>  <SCORE.INTER.norm>
-1.69698

>  <SCORE.INTRA>
0

>  <SCORE.INTRA.DIHEDRAL>
0

>  <SCORE.INTRA.DIHEDRAL.0>
0

>  <SCORE.INTRA.POLAR>
0

>  <SCORE.INTRA.POLAR.0>
0

>  <SCORE.INTRA.REPUL>
0

>  <SCORE.INTRA.REPUL.0>
0

>  <SCORE.INTRA.SOLV>
0

>  <SCORE.INTRA.SOLV.lig_0>
-4.28614

>  <SCORE.INTRA.VDW>
0

>  <SCORE.INTRA.VDW.0>
0

>  <SCORE.INTRA.norm>
0

>  <SCORE.RESTR>
0

>  <SCORE.RESTR.CAVITY>
0

>  <SCORE.RESTR.norm>
0

>  <SCORE.SYSTEM>
0

>  <SCORE.SYSTEM.CONST>
0

>  <SCORE.SYSTEM.DIHEDRAL>
0

>  <SCORE.SYSTEM.SOLV>
0

>  <SCORE.SYSTEM.norm>
0

>  <SCORE.heavy>
10

>  <SCORE.norm>
-1.69698

>  <RMSD>
0.429

$$$$
ligand
 OpenBabel11021811423D
libRbt.so/2013.1/901 2013/11/27
 10 11  0  0  0  0  0  0  0  0999 V2000
  -12.0653  -11.2165    9.0297 N   0  0  0  0  0  0  0  0  0  0  0  0
  -11.7849  -12.5766    9.1744 C   0  0  0  0  0  0  0  0  0  0  0  0
  -11.3843  -13.3427    8.1440 N   0  0  0  0  0  0  0  0  0  0  0  0
  -11.2793  -12.6391    6.9474 C   0  0  0  0  0  0  0  0  0  0  0  0
  -11.5435  -11.2889    6.7105 C   0  0  0  0  0  0  0  0  0  0  0  0
  -11.9787  -10.4663    7.8088 C   0  0  0  0  0  0  0  0  0  0  0  0
  -12.2623   -9.2937    7.8566 O   0  0  0  0  0  0  0  0  0  0  0  0
  -11.2924  -11.0099    5.3547 N   0  0  0  0  0  0  0  0  0  0  0  0
  -10.8817  -12.1886    4.8139 C   0  0  0  0  0  0  0  0  0  0  0  0
  -10.8652  -13.2099    5.7741 N   0  0  0  0  0  0  0  0  0  0  0  0
  1  2  1  0  0  0  0
  1  6  1  0  0  0  0
  2  3  2  0  0  0  0
  3  4  1  0  0  0  0
  4  5  2  0  0  0  0
  4 10  1  0  0  0  0
  5  6  1  0  0  0  0
  5  8  1  0  0  0  0
  6  7  2  0  0  0  0
  8  9  1  0  0  0  0
  9 10  2  0  0  0  0
M  END
>  <CHROM.1>
-11.54778658,-11.67834698,7.17721331,-2.86422463,1.25530863,-0.80230298

>  <Name>
ligand

>  <RI>
0

>  <Rbt.Current_Directory>
/home/itssahil/PROJECTS/Mol_Feturizer/New_Systems/rnas/2EES

>  <Rbt.Executable>
rbdock ($Id: //depot/dev/client3/rdock/2013.1/src/exe/rbdock.cxx#4 $)

>  <Rbt.Library>
libRbt.so (2013.1, Build901 2013/11/27)

>  <Rbt.Parameter_File>
/export/apps/rDock/src/rDock_2013.1_src/data/scripts/dock_solv.prm

>  <Rbt.Receptor>
prm/pocket_docking_3.prm

>  <SCORE>
-16.9339

>  <SCORE.INTER>
-16.9339

>  <SCORE.INTER.CONST>
1

>  <SCORE.INTER.POLAR>
0

>  <SCORE.INTER.ROT>
0

>  <SCORE.INTER.SOLV>
3.38177

>  <SCORE.INTER.VDW>
-16.0165

>  <SCORE.INTER.norm>
-1.69339

>  <SCORE.INTRA>
0

>  <SCORE.INTRA.DIHEDRAL>
0

>  <SCORE.INTRA.DIHEDRAL.0>
0

>  <SCORE.INTRA.POLAR>
0

>  <SCORE.INTRA.POLAR.0>
0

>  <SCORE.INTRA.REPUL>
0

>  <SCORE.INTRA.REPUL.0>
0

>  <SCORE.INTRA.SOLV>
0

>  <SCORE.INTRA.SOLV.lig_0>
-4.28614

>  <SCORE.INTRA.VDW>
0

>  <SCORE.INTRA.VDW.0>
0

>  <SCORE.INTRA.norm>
0

>  <SCORE.RESTR>
0

>  <SCORE.RESTR.CAVITY>
0

>  <SCORE.RESTR.norm>
0

>  <SCORE.SYSTEM>
0

>  <SCORE.SYSTEM.CONST>
0

>  <SCORE.SYSTEM.DIHEDRAL>
0

>  <SCORE.SYSTEM.SOLV>
0

>  <SCORE.SYSTEM.norm>
0

>  <SCORE.heavy>
10

>  <SCORE.norm>
-1.69339

>  <RMSD>
0.434

$$$$
ligand
 OpenBabel11021811423D
libRbt.so/2013.1/901 2013/11/27
 10 11  0  0  0  0  0  0  0  0999 V2000
  -12.0167  -11.2718    9.0912 N   0  0  0  0  0  0  0  0  0  0  0  0
  -11.7840  -12.6458    9.1784 C   0  0  0  0  0  0  0  0  0  0  0  0
  -11.4379  -13.3865    8.1104 N   0  0  0  0  0  0  0  0  0  0  0  0
  -11.3361  -12.6426    6.9382 C   0  0  0  0  0  0  0  0  0  0  0  0
  -11.5552  -11.2756    6.7582 C   0  0  0  0  0  0  0  0  0  0  0  0
  -11.9321  -10.4797    7.8970 C   0  0  0  0  0  0  0  0  0  0  0  0
  -12.1703   -9.3002    7.9953 O   0  0  0  0  0  0  0  0  0  0  0  0
  -11.3273  -10.9549    5.4075 N   0  0  0  0  0  0  0  0  0  0  0  0
  -10.9745  -12.1266    4.8132 C   0  0  0  0  0  0  0  0  0  0  0  0
  -10.9726  -13.1833    5.7344 N   0  0  0  0  0  0  0  0  0  0  0  0
  1  2  1  0  0  0  0
  1  6  1  0  0  0  0
  2  3  2  0  0  0  0
  3  4  1  0  0  0  0
  4  5  2  0  0  0  0
  4 10  1  0  0  0  0
  5  6  1  0  0  0  0
  5  8  1  0  0  0  0
  6  7  2  0  0  0  0
  8  9  1  0  0  0  0
  9 10  2  0  0  0  0
M  END
>  <CHROM.1>
-11.56260837,-11.68197788,7.21018290,-2.89530774,1.29922780,-0.73521685

>  <Name>
ligand

>  <RI>
0

>  <Rbt.Current_Directory>
/home/itssahil/PROJECTS/Mol_Feturizer/New_Systems/rnas/2EES

>  <Rbt.Executable>
rbdock ($Id: //depot/dev/client3/rdock/2013.1/src/exe/rbdock.cxx#4 $)

>  <Rbt.Library>
libRbt.so (2013.1, Build901 2013/11/27)

>  <Rbt.Parameter_File>
/export/apps/rDock/src/rDock_2013.1_src/data/scripts/dock_solv.prm

>  <Rbt.Receptor>
prm/pocket_docking_5.prm

>  <SCORE>
-16.9295

>  <SCORE.INTER>
-16.9295

>  <SCORE.INTER.CONST>
1

>  <SCORE.INTER.POLAR>
0

>  <SCORE.INTER.ROT>
0

>  <SCORE.INTER.SOLV>
3.56374

>  <SCORE.INTER.VDW>
-16.0743

>  <SCORE.INTER.norm>
-1.69295

>  <SCORE.INTRA>
0

>  <SCORE.INTRA.DIHEDRAL>
0

>  <SCORE.INTRA.DIHEDRAL.0>
0

>  <SCORE.INTRA.POLAR>
0

>  <SCORE.INTRA.POLAR.0>
0

>  <SCORE.INTRA.REPUL>
0

>  <SCORE.INTRA.REPUL.0>
0

>  <SCORE.INTRA.SOLV>
0

>  <SCORE.INTRA.SOLV.lig_0>
-4.28614

>  <SCORE.INTRA.VDW>
0

>  <SCORE.INTRA.VDW.0>
0

>  <SCORE.INTRA.norm>
0

>  <SCORE.RESTR>
0

>  <SCORE.RESTR.CAVITY>
0

>  <SCORE.RESTR.norm>
0

>  <SCORE.SYSTEM>
0

>  <SCORE.SYSTEM.CONST>
0

>  <SCORE.SYSTEM.DIHEDRAL>
0

>  <SCORE.SYSTEM.SOLV>
0

>  <SCORE.SYSTEM.norm>
0

>  <SCORE.heavy>
10

>  <SCORE.norm>
-1.69295

>  <RMSD>
0.435

$$$$
ligand
 OpenBabel11021811423D
libRbt.so/2013.1/901 2013/11/27
 10 11  0  0  0  0  0  0  0  0999 V2000
  -12.0440  -11.2722    9.0763 N   0  0  0  0  0  0  0  0  0  0  0  0
  -11.7538  -12.6357    9.1543 C   0  0  0  0  0  0  0  0  0  0  0  0
  -11.3680  -13.3521    8.0833 N   0  0  0  0  0  0  0  0  0  0  0  0
  -11.2886  -12.5947    6.9181 C   0  0  0  0  0  0  0  0  0  0  0  0
  -11.5643  -11.2368    6.7472 C   0  0  0  0  0  0  0  0  0  0  0  0
  -11.9837  -10.4672    7.8893 C   0  0  0  0  0  0  0  0  0  0  0  0
  -12.2726   -9.2998    7.9950 O   0  0  0  0  0  0  0  0  0  0  0  0
  -11.3395  -10.8954    5.4011 N   0  0  0  0  0  0  0  0  0  0  0  0
  -10.9324  -12.0460    4.8003 C   0  0  0  0  0  0  0  0  0  0  0  0
  -10.8929  -13.1095    5.7130 N   0  0  0  0  0  0  0  0  0  0  0  0
  1  2  1  0  0  0  0
  1  6  1  0  0  0  0
  2  3  2  0  0  0  0
  3  4  1  0  0  0  0
  4  5  2  0  0  0  0
  4 10  1  0  0  0  0
  5  6  1  0  0  0  0
  5  8  1  0  0  0  0
  6  7  2  0  0  0  0
  8  9  1  0  0  0  0
  9 10  2  0  0  0  0
M  END
>  <CHROM.1>
-11.55796204,-11.64693035,7.19586373,-2.80849373,1.26371030,-0.81021549

>  <Name>
ligand

>  <RI>
0

>  <Rbt.Current_Directory>
/home/itssahil/PROJECTS/Mol_Feturizer/New_Systems/rnas/2EES

>  <Rbt.Executable>
rbdock ($Id: //depot/dev/client3/rdock/2013.1/src/exe/rbdock.cxx#4 $)

>  <Rbt.Library>
libRbt.so (2013.1, Build901 2013/11/27)

>  <Rbt.Parameter_File>
/export/apps/rDock/src/rDock_2013.1_src/data/scripts/dock_solv.prm

>  <Rbt.Receptor>
prm/pocket_docking_3.prm

>  <SCORE>
-16.9786

>  <SCORE.INTER>
-16.9786

>  <SCORE.INTER.CONST>
1

>  <SCORE.INTER.POLAR>
0

>  <SCORE.INTER.ROT>
0

>  <SCORE.INTER.SOLV>
3.46334

>  <SCORE.INTER.VDW>
-16.0735

>  <SCORE.INTER.norm>
-1.69786

>  <SCORE.INTRA>
0

>  <SCORE.INTRA.DIHEDRAL>
0

>  <SCORE.INTRA.DIHEDRAL.0>
0

>  <SCORE.INTRA.POLAR>
0

>  <SCORE.INTRA.POLAR.0>
0

>  <SCORE.INTRA.REPUL>
0

>  <SCORE.INTRA.REPUL.0>
0

>  <SCORE.INTRA.SOLV>
0

>  <SCORE.INTRA.SOLV.lig_0>
-4.28614

>  <SCORE.INTRA.VDW>
0

>  <SCORE.INTRA.VDW.0>
0

>  <SCORE.INTRA.norm>
0

>  <SCORE.RESTR>
0

>  <SCORE.RESTR.CAVITY>
0

>  <SCORE.RESTR.norm>
0

>  <SCORE.SYSTEM>
0

>  <SCORE.SYSTEM.CONST>
0

>  <SCORE.SYSTEM.DIHEDRAL>
0

>  <SCORE.SYSTEM.SOLV>
0

>  <SCORE.SYSTEM.norm>
0

>  <SCORE.heavy>
10

>  <SCORE.norm>
-1.69786

>  <RMSD>
0.437

$$$$
ligand
 OpenBabel11021811423D
libRbt.so/2013.1/901 2013/11/27
 10 11  0  0  0  0  0  0  0  0999 V2000
  -12.0090  -11.2040    9.0685 N   0  0  0  0  0  0  0  0  0  0  0  0
  -11.7757  -12.5747    9.1965 C   0  0  0  0  0  0  0  0  0  0  0  0
  -11.4345  -13.3476    8.1499 N   0  0  0  0  0  0  0  0  0  0  0  0
  -11.3382  -12.6397    6.9552 C   0  0  0  0  0  0  0  0  0  0  0  0
  -11.5584  -11.2789    6.7346 C   0  0  0  0  0  0  0  0  0  0  0  0
  -11.9301  -10.4486    7.8504 C   0  0  0  0  0  0  0  0  0  0  0  0
  -12.1680   -9.2667    7.9138 O   0  0  0  0  0  0  0  0  0  0  0  0
  -11.3368  -10.9995    5.3737 N   0  0  0  0  0  0  0  0  0  0  0  0
  -10.9866  -12.1887    4.8137 C   0  0  0  0  0  0  0  0  0  0  0  0
  -10.9803  -13.2169    5.7667 N   0  0  0  0  0  0  0  0  0  0  0  0
  1  2  1  0  0  0  0
  1  6  1  0  0  0  0
  2  3  2  0  0  0  0
  3  4  1  0  0  0  0
  4  5  2  0  0  0  0
  4 10  1  0  0  0  0
  5  6  1  0  0  0  0
  5  8  1  0  0  0  0
  6  7  2  0  0  0  0
  8  9  1  0  0  0  0
  9 10  2  0  0  0  0
M  END
>  <CHROM.1>
-11.56364909,-11.67128225,7.19879733,-2.88317490,1.30257828,-0.77738217

>  <Name>
ligand

>  <RI>
0

>  <Rbt.Current_Directory>
/home/itssahil/PROJECTS/Mol_Feturizer/New_Systems/rnas/2EES

>  <Rbt.Executable>
rbdock ($Id: //depot/dev/client3/rdock/2013.1/src/exe/rbdock.cxx#4 $)

>  <Rbt.Library>
libRbt.so (2013.1, Build901 2013/11/27)

>  <Rbt.Parameter_File>
/export/apps/rDock/src/rDock_2013.1_src/data/scripts/dock_solv.prm

>  <Rbt.Receptor>
prm/blind_docking_80.prm

>  <SCORE>
-16.9425

>  <SCORE.INTER>
-16.9425

>  <SCORE.INTER.CONST>
1

>  <SCORE.INTER.POLAR>
0

>  <SCORE.INTER.ROT>
0

>  <SCORE.INTER.SOLV>
3.53724

>  <SCORE.INTER.VDW>
-16.0741

>  <SCORE.INTER.norm>
-1.69425

>  <SCORE.INTRA>
0

>  <SCORE.INTRA.DIHEDRAL>
0

>  <SCORE.INTRA.DIHEDRAL.0>
0

>  <SCORE.INTRA.POLAR>
0

>  <SCORE.INTRA.POLAR.0>
0

>  <SCORE.INTRA.REPUL>
0

>  <SCORE.INTRA.REPUL.0>
0

>  <SCORE.INTRA.SOLV>
0

>  <SCORE.INTRA.SOLV.lig_0>
-4.28614

>  <SCORE.INTRA.VDW>
0

>  <SCORE.INTRA.VDW.0>
0

>  <SCORE.INTRA.norm>
0

>  <SCORE.RESTR>
0

>  <SCORE.RESTR.CAVITY>
0

>  <SCORE.RESTR.norm>
0

>  <SCORE.SYSTEM>
0

>  <SCORE.SYSTEM.CONST>
0

>  <SCORE.SYSTEM.DIHEDRAL>
0

>  <SCORE.SYSTEM.SOLV>
0

>  <SCORE.SYSTEM.norm>
0

>  <SCORE.heavy>
10

>  <SCORE.norm>
-1.69425

>  <RMSD>
0.438

$$$$
ligand
 OpenBabel11021811423D
libRbt.so/2013.1/901 2013/11/27
 10 11  0  0  0  0  0  0  0  0999 V2000
  -12.0168  -11.1962    9.0636 N   0  0  0  0  0  0  0  0  0  0  0  0
  -11.7447  -12.5609    9.1780 C   0  0  0  0  0  0  0  0  0  0  0  0
  -11.3738  -13.3117    8.1255 N   0  0  0  0  0  0  0  0  0  0  0  0
  -11.2898  -12.5879    6.9395 C   0  0  0  0  0  0  0  0  0  0  0  0
  -11.5480  -11.2316    6.7323 C   0  0  0  0  0  0  0  0  0  0  0  0
  -11.9514  -10.4252    7.8545 C   0  0  0  0  0  0  0  0  0  0  0  0
  -12.2240   -9.2514    7.9293 O   0  0  0  0  0  0  0  0  0  0  0  0
  -11.3251  -10.9306    5.3763 N   0  0  0  0  0  0  0  0  0  0  0  0
  -10.9366  -12.1028    4.8057 C   0  0  0  0  0  0  0  0  0  0  0  0
  -10.9070  -13.1411    5.7473 N   0  0  0  0  0  0  0  0  0  0  0  0
  1  2  1  0  0  0  0
  1  6  1  0  0  0  0
  2  3  2  0  0  0  0
  3  4  1  0  0  0  0
  4  5  2  0  0  0  0
  4 10  1  0  0  0  0
  5  6  1  0  0  0  0
  5  8  1  0  0  0  0
  6  7  2  0  0  0  0
  8  9  1  0  0  0  0
  9 10  2  0  0  0  0
M  END
>  <CHROM.1>
-11.54501528,-11.62924460,7.19210993,-2.82846712,1.27678727,-0.81876534

>  <Name>
ligand

>  <RI>
0

>  <Rbt.Current_Directory>
/home/itssahil/PROJECTS/Mol_Feturizer/New_Systems/rnas/2EES

>  <Rbt.Executable>
rbdock ($Id: //depot/dev/client3/rdock/2013.1/src/exe/rbdock.cxx#4 $)

>  <Rbt.Library>
libRbt.so (2013.1, Build901 2013/11/27)

>  <Rbt.Parameter_File>
/export/apps/rDock/src/rDock_2013.1_src/data/scripts/dock_solv.prm

>  <Rbt.Receptor>
prm/pocket_docking_5.prm

>  <SCORE>
-16.9681

>  <SCORE.INTER>
-16.9681

>  <SCORE.INTER.CONST>
1

>  <SCORE.INTER.POLAR>
0

>  <SCORE.INTER.ROT>
0

>  <SCORE.INTER.SOLV>
3.48127

>  <SCORE.INTER.VDW>
-16.0725

>  <SCORE.INTER.norm>
-1.69681

>  <SCORE.INTRA>
0

>  <SCORE.INTRA.DIHEDRAL>
0

>  <SCORE.INTRA.DIHEDRAL.0>
0

>  <SCORE.INTRA.POLAR>
0

>  <SCORE.INTRA.POLAR.0>
0

>  <SCORE.INTRA.REPUL>
0

>  <SCORE.INTRA.REPUL.0>
0

>  <SCORE.INTRA.SOLV>
0

>  <SCORE.INTRA.SOLV.lig_0>
-4.28614

>  <SCORE.INTRA.VDW>
0

>  <SCORE.INTRA.VDW.0>
0

>  <SCORE.INTRA.norm>
0

>  <SCORE.RESTR>
0

>  <SCORE.RESTR.CAVITY>
0

>  <SCORE.RESTR.norm>
0

>  <SCORE.SYSTEM>
0

>  <SCORE.SYSTEM.CONST>
0

>  <SCORE.SYSTEM.DIHEDRAL>
0

>  <SCORE.SYSTEM.SOLV>
0

>  <SCORE.SYSTEM.norm>
0

>  <SCORE.heavy>
10

>  <SCORE.norm>
-1.69681

>  <RMSD>
0.438

$$$$
ligand
 OpenBabel11021811423D
libRbt.so/2013.1/901 2013/11/27
 10 11  0  0  0  0  0  0  0  0999 V2000
  -12.0469  -11.2050    9.0554 N   0  0  0  0  0  0  0  0  0  0  0  0
  -11.7613  -12.5675    9.1623 C   0  0  0  0  0  0  0  0  0  0  0  0
  -11.3689  -13.3057    8.1087 N   0  0  0  0  0  0  0  0  0  0  0  0
  -11.2778  -12.5714    6.9296 C   0  0  0  0  0  0  0  0  0  0  0  0
  -11.5481  -11.2163    6.7301 C   0  0  0  0  0  0  0  0  0  0  0  0
  -11.9746  -10.4234    7.8535 C   0  0  0  0  0  0  0  0  0  0  0  0
  -12.2609   -9.2534    7.9341 O   0  0  0  0  0  0  0  0  0  0  0  0
  -11.3114  -10.9018    5.3795 N   0  0  0  0  0  0  0  0  0  0  0  0
  -10.9028  -12.0651    4.8045 C   0  0  0  0  0  0  0  0  0  0  0  0
  -10.8739  -13.1106    5.7380 N   0  0  0  0  0  0  0  0  0  0  0  0
  1  2  1  0  0  0  0
  1  6  1  0  0  0  0
  2  3  2  0  0  0  0
  3  4  1  0  0  0  0
  4  5  2  0  0  0  0
  4 10  1  0  0  0  0
  5  6  1  0  0  0  0
  5  8  1  0  0  0  0
  6  7  2  0  0  0  0
  8  9  1  0  0  0  0
  9 10  2  0  0  0  0
M  END
>  <CHROM.1>
-11.54665494,-11.61760301,7.18666362,-2.83436530,1.26013014,-0.80504329

>  <Name>
ligand

>  <RI>
0

>  <Rbt.Current_Directory>
/home/itssahil/PROJECTS/Mol_Feturizer/New_Systems/rnas/2EES

>  <Rbt.Executable>
rbdock ($Id: //depot/dev/client3/rdock/2013.1/src/exe/rbdock.cxx#4 $)

>  <Rbt.Library>
libRbt.so (2013.1, Build901 2013/11/27)

>  <Rbt.Parameter_File>
/export/apps/rDock/src/rDock_2013.1_src/data/scripts/dock_solv.prm

>  <Rbt.Receptor>
prm/pocket_docking_6.prm

>  <SCORE>
-16.9641

>  <SCORE.INTER>
-16.9641

>  <SCORE.INTER.CONST>
1

>  <SCORE.INTER.POLAR>
0

>  <SCORE.INTER.ROT>
0

>  <SCORE.INTER.SOLV>
3.43658

>  <SCORE.INTER.VDW>
-16.0549

>  <SCORE.INTER.norm>
-1.69641

>  <SCORE.INTRA>
0

>  <SCORE.INTRA.DIHEDRAL>
0

>  <SCORE.INTRA.DIHEDRAL.0>
0

>  <SCORE.INTRA.POLAR>
0

>  <SCORE.INTRA.POLAR.0>
0

>  <SCORE.INTRA.REPUL>
0

>  <SCORE.INTRA.REPUL.0>
0

>  <SCORE.INTRA.SOLV>
0

>  <SCORE.INTRA.SOLV.lig_0>
-4.28614

>  <SCORE.INTRA.VDW>
0

>  <SCORE.INTRA.VDW.0>
0

>  <SCORE.INTRA.norm>
0

>  <SCORE.RESTR>
0

>  <SCORE.RESTR.CAVITY>
0

>  <SCORE.RESTR.norm>
0

>  <SCORE.SYSTEM>
0

>  <SCORE.SYSTEM.CONST>
0

>  <SCORE.SYSTEM.DIHEDRAL>
0

>  <SCORE.SYSTEM.SOLV>
0

>  <SCORE.SYSTEM.norm>
0

>  <SCORE.heavy>
10

>  <SCORE.norm>
-1.69641

>  <RMSD>
0.438

$$$$
ligand
 OpenBabel11021811423D
libRbt.so/2013.1/901 2013/11/27
 10 11  0  0  0  0  0  0  0  0999 V2000
  -12.0364  -11.1966    9.0495 N   0  0  0  0  0  0  0  0  0  0  0  0
  -11.7489  -12.5582    9.1636 C   0  0  0  0  0  0  0  0  0  0  0  0
  -11.3564  -13.3016    8.1136 N   0  0  0  0  0  0  0  0  0  0  0  0
  -11.2672  -12.5735    6.9305 C   0  0  0  0  0  0  0  0  0  0  0  0
  -11.5394  -11.2199    6.7239 C   0  0  0  0  0  0  0  0  0  0  0  0
  -11.9660  -10.4215    7.8433 C   0  0  0  0  0  0  0  0  0  0  0  0
  -12.2539   -9.2514    7.9179 O   0  0  0  0  0  0  0  0  0  0  0  0
  -11.3041  -10.9124    5.3714 N   0  0  0  0  0  0  0  0  0  0  0  0
  -10.8944  -12.0782    4.8025 C   0  0  0  0  0  0  0  0  0  0  0  0
  -10.8634  -13.1186    5.7416 N   0  0  0  0  0  0  0  0  0  0  0  0
  1  2  1  0  0  0  0
  1  6  1  0  0  0  0
  2  3  2  0  0  0  0
  3  4  1  0  0  0  0
  4  5  2  0  0  0  0
  4 10  1  0  0  0  0
  5  6  1  0  0  0  0
  5  8  1  0  0  0  0
  6  7  2  0  0  0  0
  8  9  1  0  0  0  0
  9 10  2  0  0  0  0
M  END
>  <CHROM.1>
-11.53703881,-11.61870215,7.18264737,-2.82961552,1.25970431,-0.81497279

>  <Name>
ligand

>  <RI>
0

>  <Rbt.Current_Directory>
/home/itssahil/PROJECTS/Mol_Feturizer/New_Systems/rnas/2EES

>  <Rbt.Executable>
rbdock ($Id: //depot/dev/client3/rdock/2013.1/src/exe/rbdock.cxx#4 $)

>  <Rbt.Library>
libRbt.so (2013.1, Build901 2013/11/27)

>  <Rbt.Parameter_File>
/export/apps/rDock/src/rDock_2013.1_src/data/scripts/dock_solv.prm

>  <Rbt.Receptor>
prm/pocket_docking_3.prm

>  <SCORE>
-16.9598

>  <SCORE.INTER>
-16.9598

>  <SCORE.INTER.CONST>
1

>  <SCORE.INTER.POLAR>
0

>  <SCORE.INTER.ROT>
0

>  <SCORE.INTER.SOLV>
3.43287

>  <SCORE.INTER.VDW>
-16.0509

>  <SCORE.INTER.norm>
-1.69598

>  <SCORE.INTRA>
0

>  <SCORE.INTRA.DIHEDRAL>
0

>  <SCORE.INTRA.DIHEDRAL.0>
0

>  <SCORE.INTRA.POLAR>
0

>  <SCORE.INTRA.POLAR.0>
0

>  <SCORE.INTRA.REPUL>
0

>  <SCORE.INTRA.REPUL.0>
0

>  <SCORE.INTRA.SOLV>
0

>  <SCORE.INTRA.SOLV.lig_0>
-4.28614

>  <SCORE.INTRA.VDW>
0

>  <SCORE.INTRA.VDW.0>
0

>  <SCORE.INTRA.norm>
0

>  <SCORE.RESTR>
0

>  <SCORE.RESTR.CAVITY>
0

>  <SCORE.RESTR.norm>
0

>  <SCORE.SYSTEM>
0

>  <SCORE.SYSTEM.CONST>
0

>  <SCORE.SYSTEM.DIHEDRAL>
0

>  <SCORE.SYSTEM.SOLV>
0

>  <SCORE.SYSTEM.norm>
0

>  <SCORE.heavy>
10

>  <SCORE.norm>
-1.69598

>  <RMSD>
0.441

$$$$
ligand
 OpenBabel11021811423D
libRbt.so/2013.1/901 2013/11/27
 10 11  0  0  0  0  0  0  0  0999 V2000
  -12.0389  -11.1816    9.0334 N   0  0  0  0  0  0  0  0  0  0  0  0
  -11.7892  -12.5465    9.1893 C   0  0  0  0  0  0  0  0  0  0  0  0
  -11.4210  -13.3329    8.1621 N   0  0  0  0  0  0  0  0  0  0  0  0
  -11.3154  -12.6448    6.9567 C   0  0  0  0  0  0  0  0  0  0  0  0
  -11.5504  -11.2913    6.7084 C   0  0  0  0  0  0  0  0  0  0  0  0
  -11.9509  -10.4467    7.8034 C   0  0  0  0  0  0  0  0  0  0  0  0
  -12.2057   -9.2673    7.8420 O   0  0  0  0  0  0  0  0  0  0  0  0
  -11.3110  -11.0328    5.3465 N   0  0  0  0  0  0  0  0  0  0  0  0
  -10.9359  -12.2268    4.8133 C   0  0  0  0  0  0  0  0  0  0  0  0
  -10.9308  -13.2379    5.7844 N   0  0  0  0  0  0  0  0  0  0  0  0
  1  2  1  0  0  0  0
  1  6  1  0  0  0  0
  2  3  2  0  0  0  0
  3  4  1  0  0  0  0
  4  5  2  0  0  0  0
  4 10  1  0  0  0  0
  5  6  1  0  0  0  0
  5  8  1  0  0  0  0
  6  7  2  0  0  0  0
  8  9  1  0  0  0  0
  9 10  2  0  0  0  0
M  END
>  <CHROM.1>
-11.55765475,-11.67548352,7.17943753,-2.88845154,1.28177918,-0.78999452

>  <Name>
ligand

>  <RI>
0

>  <Rbt.Current_Directory>
/home/itssahil/PROJECTS/Mol_Feturizer/New_Systems/rnas/2EES

>  <Rbt.Executable>
rbdock ($Id: //depot/dev/client3/rdock/2013.1/src/exe/rbdock.cxx#4 $)

>  <Rbt.Library>
libRbt.so (2013.1, Build901 2013/11/27)

>  <Rbt.Parameter_File>
/export/apps/rDock/src/rDock_2013.1_src/data/scripts/dock_solv.prm

>  <Rbt.Receptor>
prm/pocket_docking_4.prm

>  <SCORE>
-16.9586

>  <SCORE.INTER>
-16.9586

>  <SCORE.INTER.CONST>
1

>  <SCORE.INTER.POLAR>
0

>  <SCORE.INTER.ROT>
0

>  <SCORE.INTER.SOLV>
3.44994

>  <SCORE.INTER.VDW>
-16.0557

>  <SCORE.INTER.norm>
-1.69586

>  <SCORE.INTRA>
0

>  <SCORE.INTRA.DIHEDRAL>
0

>  <SCORE.INTRA.DIHEDRAL.0>
0

>  <SCORE.INTRA.POLAR>
0

>  <SCORE.INTRA.POLAR.0>
0

>  <SCORE.INTRA.REPUL>
0

>  <SCORE.INTRA.REPUL.0>
0

>  <SCORE.INTRA.SOLV>
0

>  <SCORE.INTRA.SOLV.lig_0>
-4.28614

>  <SCORE.INTRA.VDW>
0

>  <SCORE.INTRA.VDW.0>
0

>  <SCORE.INTRA.norm>
0

>  <SCORE.RESTR>
0

>  <SCORE.RESTR.CAVITY>
0

>  <SCORE.RESTR.norm>
0

>  <SCORE.SYSTEM>
0

>  <SCORE.SYSTEM.CONST>
0

>  <SCORE.SYSTEM.DIHEDRAL>
0

>  <SCORE.SYSTEM.SOLV>
0

>  <SCORE.SYSTEM.norm>
0

>  <SCORE.heavy>
10

>  <SCORE.norm>
-1.69586

>  <RMSD>
0.442

$$$$
ligand
 OpenBabel11021811423D
libRbt.so/2013.1/901 2013/11/27
 10 11  0  0  0  0  0  0  0  0999 V2000
  -12.0682  -11.1141    9.0281 N   0  0  0  0  0  0  0  0  0  0  0  0
  -11.8021  -12.4760    9.1836 C   0  0  0  0  0  0  0  0  0  0  0  0
  -11.4224  -13.2571    8.1566 N   0  0  0  0  0  0  0  0  0  0  0  0
  -11.3229  -12.5670    6.9518 C   0  0  0  0  0  0  0  0  0  0  0  0
  -11.5740  -11.2162    6.7040 C   0  0  0  0  0  0  0  0  0  0  0  0
  -11.9868  -10.3774    7.7987 C   0  0  0  0  0  0  0  0  0  0  0  0
  -12.2561   -9.2012    7.8377 O   0  0  0  0  0  0  0  0  0  0  0  0
  -11.3352  -10.9539    5.3426 N   0  0  0  0  0  0  0  0  0  0  0  0
  -10.9446  -12.1429    4.8093 C   0  0  0  0  0  0  0  0  0  0  0  0
  -10.9290  -13.1545    5.7798 N   0  0  0  0  0  0  0  0  0  0  0  0
  1  2  1  0  0  0  0
  1  6  1  0  0  0  0
  2  3  2  0  0  0  0
  3  4  1  0  0  0  0
  4  5  2  0  0  0  0
  4 10  1  0  0  0  0
  5  6  1  0  0  0  0
  5  8  1  0  0  0  0
  6  7  2  0  0  0  0
  8  9  1  0  0  0  0
  9 10  2  0  0  0  0
M  END
>  <CHROM.1>
-11.57744782,-11.60084606,7.17472038,-2.86384642,1.27171959,-0.81286576

>  <Name>
ligand

>  <RI>
0

>  <Rbt.Current_Directory>
/home/itssahil/PROJECTS/Mol_Feturizer/New_Systems/rnas/2EES

>  <Rbt.Executable>
rbdock ($Id: //depot/dev/client3/rdock/2013.1/src/exe/rbdock.cxx#4 $)

>  <Rbt.Library>
libRbt.so (2013.1, Build901 2013/11/27)

>  <Rbt.Parameter_File>
/export/apps/rDock/src/rDock_2013.1_src/data/scripts/dock_solv.prm

>  <Rbt.Receptor>
prm/pocket_docking_5.prm

>  <SCORE>
-16.9166

>  <SCORE.INTER>
-16.9166

>  <SCORE.INTER.CONST>
1

>  <SCORE.INTER.POLAR>
0

>  <SCORE.INTER.ROT>
0

>  <SCORE.INTER.SOLV>
3.41543

>  <SCORE.INTER.VDW>
-16.0162

>  <SCORE.INTER.norm>
-1.69166

>  <SCORE.INTRA>
0

>  <SCORE.INTRA.DIHEDRAL>
0

>  <SCORE.INTRA.DIHEDRAL.0>
0

>  <SCORE.INTRA.POLAR>
0

>  <SCORE.INTRA.POLAR.0>
0

>  <SCORE.INTRA.REPUL>
0

>  <SCORE.INTRA.REPUL.0>
0

>  <SCORE.INTRA.SOLV>
0

>  <SCORE.INTRA.SOLV.lig_0>
-4.28614

>  <SCORE.INTRA.VDW>
0

>  <SCORE.INTRA.VDW.0>
0

>  <SCORE.INTRA.norm>
0

>  <SCORE.RESTR>
0

>  <SCORE.RESTR.CAVITY>
0

>  <SCORE.RESTR.norm>
0

>  <SCORE.SYSTEM>
0

>  <SCORE.SYSTEM.CONST>
0

>  <SCORE.SYSTEM.DIHEDRAL>
0

>  <SCORE.SYSTEM.SOLV>
0

>  <SCORE.SYSTEM.norm>
0

>  <SCORE.heavy>
10

>  <SCORE.norm>
-1.69166

>  <RMSD>
0.443

$$$$
ligand
 OpenBabel11021811423D
libRbt.so/2013.1/901 2013/11/27
 10 11  0  0  0  0  0  0  0  0999 V2000
  -12.0453  -11.1124    9.0529 N   0  0  0  0  0  0  0  0  0  0  0  0
  -11.8314  -12.4853    9.1914 C   0  0  0  0  0  0  0  0  0  0  0  0
  -11.4826  -13.2677    8.1545 N   0  0  0  0  0  0  0  0  0  0  0  0
  -11.3576  -12.5671    6.9581 C   0  0  0  0  0  0  0  0  0  0  0  0
  -11.5570  -11.2048    6.7272 C   0  0  0  0  0  0  0  0  0  0  0  0
  -11.9367  -10.3643    7.8326 C   0  0  0  0  0  0  0  0  0  0  0  0
  -12.1607   -9.1792    7.8863 O   0  0  0  0  0  0  0  0  0  0  0  0
  -11.3093  -10.9351    5.3689 N   0  0  0  0  0  0  0  0  0  0  0  0
  -10.9649  -12.1314    4.8206 C   0  0  0  0  0  0  0  0  0  0  0  0
  -10.9873  -13.1548    5.7785 N   0  0  0  0  0  0  0  0  0  0  0  0
  1  2  1  0  0  0  0
  1  6  1  0  0  0  0
  2  3  2  0  0  0  0
  3  4  1  0  0  0  0
  4  5  2  0  0  0  0
  4 10  1  0  0  0  0
  5  6  1  0  0  0  0
  5  8  1  0  0  0  0
  6  7  2  0  0  0  0
  8  9  1  0  0  0  0
  9 10  2  0  0  0  0
M  END
>  <CHROM.1>
-11.57484881,-11.59473547,7.19316729,-2.95993616,1.29881354,-0.70836312

>  <Name>
ligand

>  <RI>
0

>  <Rbt.Current_Directory>
/home/itssahil/PROJECTS/Mol_Feturizer/New_Systems/rnas/2EES

>  <Rbt.Executable>
rbdock ($Id: //depot/dev/client3/rdock/2013.1/src/exe/rbdock.cxx#4 $)

>  <Rbt.Library>
libRbt.so (2013.1, Build901 2013/11/27)

>  <Rbt.Parameter_File>
/export/apps/rDock/src/rDock_2013.1_src/data/scripts/dock_solv.prm

>  <Rbt.Receptor>
prm/pocket_docking_7.prm

>  <SCORE>
-16.9383

>  <SCORE.INTER>
-16.9383

>  <SCORE.INTER.CONST>
1

>  <SCORE.INTER.POLAR>
0

>  <SCORE.INTER.ROT>
0

>  <SCORE.INTER.SOLV>
3.5294

>  <SCORE.INTER.VDW>
-16.0687

>  <SCORE.INTER.norm>
-1.69383

>  <SCORE.INTRA>
0

>  <SCORE.INTRA.DIHEDRAL>
0

>  <SCORE.INTRA.DIHEDRAL.0>
0

>  <SCORE.INTRA.POLAR>
0

>  <SCORE.INTRA.POLAR.0>
0

>  <SCORE.INTRA.REPUL>
0

>  <SCORE.INTRA.REPUL.0>
0

>  <SCORE.INTRA.SOLV>
0

>  <SCORE.INTRA.SOLV.lig_0>
-4.28614

>  <SCORE.INTRA.VDW>
0

>  <SCORE.INTRA.VDW.0>
0

>  <SCORE.INTRA.norm>
0

>  <SCORE.RESTR>
0

>  <SCORE.RESTR.CAVITY>
0

>  <SCORE.RESTR.norm>
0

>  <SCORE.SYSTEM>
0

>  <SCORE.SYSTEM.CONST>
0

>  <SCORE.SYSTEM.DIHEDRAL>
0

>  <SCORE.SYSTEM.SOLV>
0

>  <SCORE.SYSTEM.norm>
0

>  <SCORE.heavy>
10

>  <SCORE.norm>
-1.69383

>  <RMSD>
0.444

$$$$
ligand
 OpenBabel11021811423D
libRbt.so/2013.1/901 2013/11/27
 10 11  0  0  0  0  0  0  0  0999 V2000
  -12.0346  -11.2687    9.0678 N   0  0  0  0  0  0  0  0  0  0  0  0
  -11.7453  -12.6322    9.1484 C   0  0  0  0  0  0  0  0  0  0  0  0
  -11.3606  -13.3511    8.0786 N   0  0  0  0  0  0  0  0  0  0  0  0
  -11.2814  -12.5960    6.9118 C   0  0  0  0  0  0  0  0  0  0  0  0
  -11.5562  -11.2383    6.7383 C   0  0  0  0  0  0  0  0  0  0  0  0
  -11.9745  -10.4661    7.8791 C   0  0  0  0  0  0  0  0  0  0  0  0
  -12.2626   -9.2983    7.9827 O   0  0  0  0  0  0  0  0  0  0  0  0
  -11.3320  -10.8998    5.3914 N   0  0  0  0  0  0  0  0  0  0  0  0
  -10.9260  -12.0519    4.7927 C   0  0  0  0  0  0  0  0  0  0  0  0
  -10.8867  -13.1135    5.7075 N   0  0  0  0  0  0  0  0  0  0  0  0
  1  2  1  0  0  0  0
  1  6  1  0  0  0  0
  2  3  2  0  0  0  0
  3  4  1  0  0  0  0
  4  5  2  0  0  0  0
  4 10  1  0  0  0  0
  5  6  1  0  0  0  0
  5  8  1  0  0  0  0
  6  7  2  0  0  0  0
  8  9  1  0  0  0  0
  9 10  2  0  0  0  0
M  END
>  <CHROM.1>
-11.54991117,-11.64752038,7.18783249,-2.80862934,1.26459574,-0.81210445

>  <Name>
ligand

>  <RI>
0

>  <Rbt.Current_Directory>
/home/itssahil/PROJECTS/Mol_Feturizer/New_Systems/rnas/2EES

>  <Rbt.Executable>
rbdock ($Id: //depot/dev/client3/rdock/2013.1/src/exe/rbdock.cxx#4 $)

>  <Rbt.Library>
libRbt.so (2013.1, Build901 2013/11/27)

>  <Rbt.Parameter_File>
/export/apps/rDock/src/rDock_2013.1_src/data/scripts/dock_solv.prm

>  <Rbt.Receptor>
prm/pocket_docking_3.prm

>  <SCORE>
-16.9804

>  <SCORE.INTER>
-16.9804

>  <SCORE.INTER.CONST>
1

>  <SCORE.INTER.POLAR>
0

>  <SCORE.INTER.ROT>
0

>  <SCORE.INTER.SOLV>
3.46701

>  <SCORE.INTER.VDW>
-16.0759

>  <SCORE.INTER.norm>
-1.69804

>  <SCORE.INTRA>
0

>  <SCORE.INTRA.DIHEDRAL>
0

>  <SCORE.INTRA.DIHEDRAL.0>
0

>  <SCORE.INTRA.POLAR>
0

>  <SCORE.INTRA.POLAR.0>
0

>  <SCORE.INTRA.REPUL>
0

>  <SCORE.INTRA.REPUL.0>
0

>  <SCORE.INTRA.SOLV>
0

>  <SCORE.INTRA.SOLV.lig_0>
-4.28614

>  <SCORE.INTRA.VDW>
0

>  <SCORE.INTRA.VDW.0>
0

>  <SCORE.INTRA.norm>
0

>  <SCORE.RESTR>
0

>  <SCORE.RESTR.CAVITY>
0

>  <SCORE.RESTR.norm>
0

>  <SCORE.SYSTEM>
0

>  <SCORE.SYSTEM.CONST>
0

>  <SCORE.SYSTEM.DIHEDRAL>
0

>  <SCORE.SYSTEM.SOLV>
0

>  <SCORE.SYSTEM.norm>
0

>  <SCORE.heavy>
10

>  <SCORE.norm>
-1.69804

>  <RMSD>
0.445

$$$$
ligand
 OpenBabel11021811423D
libRbt.so/2013.1/901 2013/11/27
 10 11  0  0  0  0  0  0  0  0999 V2000
  -12.0101  -11.2542    9.0813 N   0  0  0  0  0  0  0  0  0  0  0  0
  -11.7435  -12.6228    9.1556 C   0  0  0  0  0  0  0  0  0  0  0  0
  -11.3738  -13.3435    8.0819 N   0  0  0  0  0  0  0  0  0  0  0  0
  -11.2850  -12.5852    6.9179 C   0  0  0  0  0  0  0  0  0  0  0  0
  -11.5374  -11.2223    6.7507 C   0  0  0  0  0  0  0  0  0  0  0  0
  -11.9397  -10.4479    7.8957 C   0  0  0  0  0  0  0  0  0  0  0  0
  -12.2078   -9.2758    8.0049 O   0  0  0  0  0  0  0  0  0  0  0  0
  -11.3111  -10.8820    5.4046 N   0  0  0  0  0  0  0  0  0  0  0  0
  -10.9262  -12.0383    4.8001 C   0  0  0  0  0  0  0  0  0  0  0  0
  -10.9023  -13.1042    5.7105 N   0  0  0  0  0  0  0  0  0  0  0  0
  1  2  1  0  0  0  0
  1  6  1  0  0  0  0
  2  3  2  0  0  0  0
  3  4  1  0  0  0  0
  4  5  2  0  0  0  0
  4 10  1  0  0  0  0
  5  6  1  0  0  0  0
  5  8  1  0  0  0  0
  6  7  2  0  0  0  0
  8  9  1  0  0  0  0
  9 10  2  0  0  0  0
M  END
>  <CHROM.1>
-11.53683253,-11.63341217,7.19851941,-2.84210589,1.27846047,-0.77601749

>  <Name>
ligand

>  <RI>
0

>  <Rbt.Current_Directory>
/home/itssahil/PROJECTS/Mol_Feturizer/New_Systems/rnas/2EES

>  <Rbt.Executable>
rbdock ($Id: //depot/dev/client3/rdock/2013.1/src/exe/rbdock.cxx#4 $)

>  <Rbt.Library>
libRbt.so (2013.1, Build901 2013/11/27)

>  <Rbt.Parameter_File>
/export/apps/rDock/src/rDock_2013.1_src/data/scripts/dock_solv.prm

>  <Rbt.Receptor>
prm/pocket_docking_3.prm

>  <SCORE>
-16.926

>  <SCORE.INTER>
-16.926

>  <SCORE.INTER.CONST>
1

>  <SCORE.INTER.POLAR>
0

>  <SCORE.INTER.ROT>
0

>  <SCORE.INTER.SOLV>
3.52295

>  <SCORE.INTER.VDW>
-16.0583

>  <SCORE.INTER.norm>
-1.6926

>  <SCORE.INTRA>
0

>  <SCORE.INTRA.DIHEDRAL>
0

>  <SCORE.INTRA.DIHEDRAL.0>
0

>  <SCORE.INTRA.POLAR>
0

>  <SCORE.INTRA.POLAR.0>
0

>  <SCORE.INTRA.REPUL>
0

>  <SCORE.INTRA.REPUL.0>
0

>  <SCORE.INTRA.SOLV>
0

>  <SCORE.INTRA.SOLV.lig_0>
-4.28614

>  <SCORE.INTRA.VDW>
0

>  <SCORE.INTRA.VDW.0>
0

>  <SCORE.INTRA.norm>
0

>  <SCORE.RESTR>
0

>  <SCORE.RESTR.CAVITY>
0

>  <SCORE.RESTR.norm>
0

>  <SCORE.SYSTEM>
0

>  <SCORE.SYSTEM.CONST>
0

>  <SCORE.SYSTEM.DIHEDRAL>
0

>  <SCORE.SYSTEM.SOLV>
0

>  <SCORE.SYSTEM.norm>
0

>  <SCORE.heavy>
10

>  <SCORE.norm>
-1.6926

>  <RMSD>
0.445

$$$$
ligand
 OpenBabel11021811423D
libRbt.so/2013.1/901 2013/11/27
 10 11  0  0  0  0  0  0  0  0999 V2000
  -12.0307  -11.2664    9.0666 N   0  0  0  0  0  0  0  0  0  0  0  0
  -11.7445  -12.6307    9.1468 C   0  0  0  0  0  0  0  0  0  0  0  0
  -11.3615  -13.3500    8.0768 N   0  0  0  0  0  0  0  0  0  0  0  0
  -11.2807  -12.5948    6.9102 C   0  0  0  0  0  0  0  0  0  0  0  0
  -11.5525  -11.2364    6.7372 C   0  0  0  0  0  0  0  0  0  0  0  0
  -11.9690  -10.4637    7.8782 C   0  0  0  0  0  0  0  0  0  0  0  0
  -12.2544   -9.2952    7.9822 O   0  0  0  0  0  0  0  0  0  0  0  0
  -11.3277  -10.8980    5.3903 N   0  0  0  0  0  0  0  0  0  0  0  0
  -10.9244  -12.0508    4.7912 C   0  0  0  0  0  0  0  0  0  0  0  0
  -10.8874  -13.1128    5.7057 N   0  0  0  0  0  0  0  0  0  0  0  0
  1  2  1  0  0  0  0
  1  6  1  0  0  0  0
  2  3  2  0  0  0  0
  3  4  1  0  0  0  0
  4  5  2  0  0  0  0
  4 10  1  0  0  0  0
  5  6  1  0  0  0  0
  5  8  1  0  0  0  0
  6  7  2  0  0  0  0
  8  9  1  0  0  0  0
  9 10  2  0  0  0  0
M  END
>  <CHROM.1>
-11.54711392,-11.64577457,7.18652856,-2.81352713,1.26630259,-0.80712552

>  <Name>
ligand

>  <RI>
0

>  <Rbt.Current_Directory>
/home/itssahil/PROJECTS/Mol_Feturizer/New_Systems/rnas/2EES

>  <Rbt.Executable>
rbdock ($Id: //depot/dev/client3/rdock/2013.1/src/exe/rbdock.cxx#4 $)

>  <Rbt.Library>
libRbt.so (2013.1, Build901 2013/11/27)

>  <Rbt.Parameter_File>
/export/apps/rDock/src/rDock_2013.1_src/data/scripts/dock_solv.prm

>  <Rbt.Receptor>
prm/blind_docking_80.prm

>  <SCORE>
-16.983

>  <SCORE.INTER>
-16.983

>  <SCORE.INTER.CONST>
1

>  <SCORE.INTER.POLAR>
0

>  <SCORE.INTER.ROT>
0

>  <SCORE.INTER.SOLV>
3.47388

>  <SCORE.INTER.VDW>
-16.08

>  <SCORE.INTER.norm>
-1.6983

>  <SCORE.INTRA>
0

>  <SCORE.INTRA.DIHEDRAL>
0

>  <SCORE.INTRA.DIHEDRAL.0>
0

>  <SCORE.INTRA.POLAR>
0

>  <SCORE.INTRA.POLAR.0>
0

>  <SCORE.INTRA.REPUL>
0

>  <SCORE.INTRA.REPUL.0>
0

>  <SCORE.INTRA.SOLV>
0

>  <SCORE.INTRA.SOLV.lig_0>
-4.28614

>  <SCORE.INTRA.VDW>
0

>  <SCORE.INTRA.VDW.0>
0

>  <SCORE.INTRA.norm>
0

>  <SCORE.RESTR>
0

>  <SCORE.RESTR.CAVITY>
0

>  <SCORE.RESTR.norm>
0

>  <SCORE.SYSTEM>
0

>  <SCORE.SYSTEM.CONST>
0

>  <SCORE.SYSTEM.DIHEDRAL>
0

>  <SCORE.SYSTEM.SOLV>
0

>  <SCORE.SYSTEM.norm>
0

>  <SCORE.heavy>
10

>  <SCORE.norm>
-1.6983

>  <RMSD>
0.447

$$$$
ligand
 OpenBabel11021811423D
libRbt.so/2013.1/901 2013/11/27
 10 11  0  0  0  0  0  0  0  0999 V2000
  -12.0248  -11.1688    9.0456 N   0  0  0  0  0  0  0  0  0  0  0  0
  -11.7750  -12.5370    9.1688 C   0  0  0  0  0  0  0  0  0  0  0  0
  -11.4122  -13.2998    8.1221 N   0  0  0  0  0  0  0  0  0  0  0  0
  -11.3121  -12.5842    6.9323 C   0  0  0  0  0  0  0  0  0  0  0  0
  -11.5476  -11.2252    6.7164 C   0  0  0  0  0  0  0  0  0  0  0  0
  -11.9424  -10.4059    7.8324 C   0  0  0  0  0  0  0  0  0  0  0  0
  -12.1964   -9.2275    7.8993 O   0  0  0  0  0  0  0  0  0  0  0  0
  -11.3147  -10.9356    5.3595 N   0  0  0  0  0  0  0  0  0  0  0  0
  -10.9429  -12.1172    4.7972 C   0  0  0  0  0  0  0  0  0  0  0  0
  -10.9336  -13.1503    5.7448 N   0  0  0  0  0  0  0  0  0  0  0  0
  1  2  1  0  0  0  0
  1  6  1  0  0  0  0
  2  3  2  0  0  0  0
  3  4  1  0  0  0  0
  4  5  2  0  0  0  0
  4 10  1  0  0  0  0
  5  6  1  0  0  0  0
  5  8  1  0  0  0  0
  6  7  2  0  0  0  0
  8  9  1  0  0  0  0
  9 10  2  0  0  0  0
M  END
>  <CHROM.1>
-11.55279449,-11.62015884,7.17843360,-2.87747691,1.28557058,-0.77753270

>  <Name>
ligand

>  <RI>
0

>  <Rbt.Current_Directory>
/home/itssahil/PROJECTS/Mol_Feturizer/New_Systems/rnas/2EES

>  <Rbt.Executable>
rbdock ($Id: //depot/dev/client3/rdock/2013.1/src/exe/rbdock.cxx#4 $)

>  <Rbt.Library>
libRbt.so (2013.1, Build901 2013/11/27)

>  <Rbt.Parameter_File>
/export/apps/rDock/src/rDock_2013.1_src/data/scripts/dock_solv.prm

>  <Rbt.Receptor>
prm/blind_docking_60.prm

>  <SCORE>
-16.9546

>  <SCORE.INTER>
-16.9546

>  <SCORE.INTER.CONST>
1

>  <SCORE.INTER.POLAR>
0

>  <SCORE.INTER.ROT>
0

>  <SCORE.INTER.SOLV>
3.49528

>  <SCORE.INTER.VDW>
-16.0682

>  <SCORE.INTER.norm>
-1.69546

>  <SCORE.INTRA>
0

>  <SCORE.INTRA.DIHEDRAL>
0

>  <SCORE.INTRA.DIHEDRAL.0>
0

>  <SCORE.INTRA.POLAR>
0

>  <SCORE.INTRA.POLAR.0>
0

>  <SCORE.INTRA.REPUL>
0

>  <SCORE.INTRA.REPUL.0>
0

>  <SCORE.INTRA.SOLV>
0

>  <SCORE.INTRA.SOLV.lig_0>
-4.28614

>  <SCORE.INTRA.VDW>
0

>  <SCORE.INTRA.VDW.0>
0

>  <SCORE.INTRA.norm>
0

>  <SCORE.RESTR>
0

>  <SCORE.RESTR.CAVITY>
0

>  <SCORE.RESTR.norm>
0

>  <SCORE.SYSTEM>
0

>  <SCORE.SYSTEM.CONST>
0

>  <SCORE.SYSTEM.DIHEDRAL>
0

>  <SCORE.SYSTEM.SOLV>
0

>  <SCORE.SYSTEM.norm>
0

>  <SCORE.heavy>
10

>  <SCORE.norm>
-1.69546

>  <RMSD>
0.451

$$$$
ligand
 OpenBabel11021811423D
libRbt.so/2013.1/901 2013/11/27
 10 11  0  0  0  0  0  0  0  0999 V2000
  -12.0050  -11.1972    9.0527 N   0  0  0  0  0  0  0  0  0  0  0  0
  -11.7397  -12.5634    9.1662 C   0  0  0  0  0  0  0  0  0  0  0  0
  -11.3755  -13.3159    8.1125 N   0  0  0  0  0  0  0  0  0  0  0  0
  -11.2909  -12.5922    6.9264 C   0  0  0  0  0  0  0  0  0  0  0  0
  -11.5424  -11.2346    6.7202 C   0  0  0  0  0  0  0  0  0  0  0  0
  -11.9387  -10.4263    7.8437 C   0  0  0  0  0  0  0  0  0  0  0  0
  -12.2050   -9.2511    7.9194 O   0  0  0  0  0  0  0  0  0  0  0  0
  -11.3215  -10.9344    5.3637 N   0  0  0  0  0  0  0  0  0  0  0  0
  -10.9406  -12.1085    4.7919 C   0  0  0  0  0  0  0  0  0  0  0  0
  -10.9140  -13.1471    5.7331 N   0  0  0  0  0  0  0  0  0  0  0  0
  1  2  1  0  0  0  0
  1  6  1  0  0  0  0
  2  3  2  0  0  0  0
  3  4  1  0  0  0  0
  4  5  2  0  0  0  0
  4 10  1  0  0  0  0
  5  6  1  0  0  0  0
  5  8  1  0  0  0  0
  6  7  2  0  0  0  0
  8  9  1  0  0  0  0
  9 10  2  0  0  0  0
M  END
>  <CHROM.1>
-11.54033803,-11.63231098,7.17992870,-2.83443792,1.28238944,-0.81280630

>  <Name>
ligand

>  <RI>
0

>  <Rbt.Current_Directory>
/home/itssahil/PROJECTS/Mol_Feturizer/New_Systems/rnas/2EES

>  <Rbt.Executable>
rbdock ($Id: //depot/dev/client3/rdock/2013.1/src/exe/rbdock.cxx#4 $)

>  <Rbt.Library>
libRbt.so (2013.1, Build901 2013/11/27)

>  <Rbt.Parameter_File>
/export/apps/rDock/src/rDock_2013.1_src/data/scripts/dock_solv.prm

>  <Rbt.Receptor>
prm/pocket_docking_5.prm

>  <SCORE>
-16.9762

>  <SCORE.INTER>
-16.9762

>  <SCORE.INTER.CONST>
1

>  <SCORE.INTER.POLAR>
0

>  <SCORE.INTER.ROT>
0

>  <SCORE.INTER.SOLV>
3.49894

>  <SCORE.INTER.VDW>
-16.0838

>  <SCORE.INTER.norm>
-1.69762

>  <SCORE.INTRA>
0

>  <SCORE.INTRA.DIHEDRAL>
0

>  <SCORE.INTRA.DIHEDRAL.0>
0

>  <SCORE.INTRA.POLAR>
0

>  <SCORE.INTRA.POLAR.0>
0

>  <SCORE.INTRA.REPUL>
0

>  <SCORE.INTRA.REPUL.0>
0

>  <SCORE.INTRA.SOLV>
0

>  <SCORE.INTRA.SOLV.lig_0>
-4.28614

>  <SCORE.INTRA.VDW>
0

>  <SCORE.INTRA.VDW.0>
0

>  <SCORE.INTRA.norm>
0

>  <SCORE.RESTR>
0

>  <SCORE.RESTR.CAVITY>
0

>  <SCORE.RESTR.norm>
0

>  <SCORE.SYSTEM>
0

>  <SCORE.SYSTEM.CONST>
0

>  <SCORE.SYSTEM.DIHEDRAL>
0

>  <SCORE.SYSTEM.SOLV>
0

>  <SCORE.SYSTEM.norm>
0

>  <SCORE.heavy>
10

>  <SCORE.norm>
-1.69762

>  <RMSD>
0.452

$$$$
ligand
 OpenBabel11021811423D
libRbt.so/2013.1/901 2013/11/27
 10 11  0  0  0  0  0  0  0  0999 V2000
  -12.0389  -11.1754    9.0416 N   0  0  0  0  0  0  0  0  0  0  0  0
  -11.7705  -12.5411    9.1532 C   0  0  0  0  0  0  0  0  0  0  0  0
  -11.3876  -13.2879    8.1021 N   0  0  0  0  0  0  0  0  0  0  0  0
  -11.2874  -12.5588    6.9205 C   0  0  0  0  0  0  0  0  0  0  0  0
  -11.5406  -11.2012    6.7163 C   0  0  0  0  0  0  0  0  0  0  0  0
  -11.9569  -10.3991    7.8369 C   0  0  0  0  0  0  0  0  0  0  0  0
  -12.2284   -9.2252    7.9135 O   0  0  0  0  0  0  0  0  0  0  0  0
  -11.3000  -10.8944    5.3645 N   0  0  0  0  0  0  0  0  0  0  0  0
  -10.9063  -12.0647    4.7936 C   0  0  0  0  0  0  0  0  0  0  0  0
  -10.8904  -13.1073    5.7308 N   0  0  0  0  0  0  0  0  0  0  0  0
  1  2  1  0  0  0  0
  1  6  1  0  0  0  0
  2  3  2  0  0  0  0
  3  4  1  0  0  0  0
  4  5  2  0  0  0  0
  4 10  1  0  0  0  0
  5  6  1  0  0  0  0
  5  8  1  0  0  0  0
  6  7  2  0  0  0  0
  8  9  1  0  0  0  0
  9 10  2  0  0  0  0
M  END
>  <CHROM.1>
-11.54412671,-11.60087651,7.17424956,-2.86357808,1.26920298,-0.78067666

>  <Name>
ligand

>  <RI>
0

>  <Rbt.Current_Directory>
/home/itssahil/PROJECTS/Mol_Feturizer/New_Systems/rnas/2EES

>  <Rbt.Executable>
rbdock ($Id: //depot/dev/client3/rdock/2013.1/src/exe/rbdock.cxx#4 $)

>  <Rbt.Library>
libRbt.so (2013.1, Build901 2013/11/27)

>  <Rbt.Parameter_File>
/export/apps/rDock/src/rDock_2013.1_src/data/scripts/dock_solv.prm

>  <Rbt.Receptor>
prm/pocket_docking_3.prm

>  <SCORE>
-16.945

>  <SCORE.INTER>
-16.945

>  <SCORE.INTER.CONST>
1

>  <SCORE.INTER.POLAR>
0

>  <SCORE.INTER.ROT>
0

>  <SCORE.INTER.SOLV>
3.46132

>  <SCORE.INTER.VDW>
-16.0504

>  <SCORE.INTER.norm>
-1.6945

>  <SCORE.INTRA>
0

>  <SCORE.INTRA.DIHEDRAL>
0

>  <SCORE.INTRA.DIHEDRAL.0>
0

>  <SCORE.INTRA.POLAR>
0

>  <SCORE.INTRA.POLAR.0>
0

>  <SCORE.INTRA.REPUL>
0

>  <SCORE.INTRA.REPUL.0>
0

>  <SCORE.INTRA.SOLV>
0

>  <SCORE.INTRA.SOLV.lig_0>
-4.28614

>  <SCORE.INTRA.VDW>
0

>  <SCORE.INTRA.VDW.0>
0

>  <SCORE.INTRA.norm>
0

>  <SCORE.RESTR>
0

>  <SCORE.RESTR.CAVITY>
0

>  <SCORE.RESTR.norm>
0

>  <SCORE.SYSTEM>
0

>  <SCORE.SYSTEM.CONST>
0

>  <SCORE.SYSTEM.DIHEDRAL>
0

>  <SCORE.SYSTEM.SOLV>
0

>  <SCORE.SYSTEM.norm>
0

>  <SCORE.heavy>
10

>  <SCORE.norm>
-1.6945

>  <RMSD>
0.453

$$$$
ligand
 OpenBabel11021811423D
libRbt.so/2013.1/901 2013/11/27
 10 11  0  0  0  0  0  0  0  0999 V2000
  -12.0885  -11.3551    9.0582 N   0  0  0  0  0  0  0  0  0  0  0  0
  -11.8024  -12.7209    9.1063 C   0  0  0  0  0  0  0  0  0  0  0  0
  -11.3890  -13.4083    8.0266 N   0  0  0  0  0  0  0  0  0  0  0  0
  -11.2773  -12.6192    6.8853 C   0  0  0  0  0  0  0  0  0  0  0  0
  -11.5464  -11.2565    6.7446 C   0  0  0  0  0  0  0  0  0  0  0  0
  -11.9953  -10.5178    7.8959 C   0  0  0  0  0  0  0  0  0  0  0  0
  -12.2853   -9.3531    8.0261 O   0  0  0  0  0  0  0  0  0  0  0  0
  -11.2850  -10.8786    5.4150 N   0  0  0  0  0  0  0  0  0  0  0  0
  -10.8636  -12.0131    4.7938 C   0  0  0  0  0  0  0  0  0  0  0  0
  -10.8501  -13.1013    5.6775 N   0  0  0  0  0  0  0  0  0  0  0  0
  1  2  1  0  0  0  0
  1  6  1  0  0  0  0
  2  3  2  0  0  0  0
  3  4  1  0  0  0  0
  4  5  2  0  0  0  0
  4 10  1  0  0  0  0
  5  6  1  0  0  0  0
  5  8  1  0  0  0  0
  6  7  2  0  0  0  0
  8  9  1  0  0  0  0
  9 10  2  0  0  0  0
M  END
>  <CHROM.1>
-11.55266517,-11.67885824,7.18181780,-2.87238295,1.24557327,-0.72187565

>  <Name>
ligand

>  <RI>
0

>  <Rbt.Current_Directory>
/home/itssahil/PROJECTS/Mol_Feturizer/New_Systems/rnas/2EES

>  <Rbt.Executable>
rbdock ($Id: //depot/dev/client3/rdock/2013.1/src/exe/rbdock.cxx#4 $)

>  <Rbt.Library>
libRbt.so (2013.1, Build901 2013/11/27)

>  <Rbt.Parameter_File>
/export/apps/rDock/src/rDock_2013.1_src/data/scripts/dock_solv.prm

>  <Rbt.Receptor>
prm/blind_docking_100.prm

>  <SCORE>
-16.9062

>  <SCORE.INTER>
-16.9062

>  <SCORE.INTER.CONST>
1

>  <SCORE.INTER.POLAR>
0

>  <SCORE.INTER.ROT>
0

>  <SCORE.INTER.SOLV>
3.43221

>  <SCORE.INTER.VDW>
-16.0149

>  <SCORE.INTER.norm>
-1.69062

>  <SCORE.INTRA>
0

>  <SCORE.INTRA.DIHEDRAL>
0

>  <SCORE.INTRA.DIHEDRAL.0>
0

>  <SCORE.INTRA.POLAR>
0

>  <SCORE.INTRA.POLAR.0>
0

>  <SCORE.INTRA.REPUL>
0

>  <SCORE.INTRA.REPUL.0>
0

>  <SCORE.INTRA.SOLV>
0

>  <SCORE.INTRA.SOLV.lig_0>
-4.28614

>  <SCORE.INTRA.VDW>
0

>  <SCORE.INTRA.VDW.0>
0

>  <SCORE.INTRA.norm>
0

>  <SCORE.RESTR>
0

>  <SCORE.RESTR.CAVITY>
0

>  <SCORE.RESTR.norm>
0

>  <SCORE.SYSTEM>
0

>  <SCORE.SYSTEM.CONST>
0

>  <SCORE.SYSTEM.DIHEDRAL>
0

>  <SCORE.SYSTEM.SOLV>
0

>  <SCORE.SYSTEM.norm>
0

>  <SCORE.heavy>
10

>  <SCORE.norm>
-1.69062

>  <RMSD>
0.455

$$$$
ligand
 OpenBabel11021811423D
libRbt.so/2013.1/901 2013/11/27
 10 11  0  0  0  0  0  0  0  0999 V2000
  -12.0565  -11.0952    9.0187 N   0  0  0  0  0  0  0  0  0  0  0  0
  -11.8254  -12.4630    9.1778 C   0  0  0  0  0  0  0  0  0  0  0  0
  -11.4576  -13.2548    8.1546 N   0  0  0  0  0  0  0  0  0  0  0  0
  -11.3323  -12.5691    6.9497 C   0  0  0  0  0  0  0  0  0  0  0  0
  -11.5480  -11.2128    6.6984 C   0  0  0  0  0  0  0  0  0  0  0  0
  -11.9479  -10.3625    7.7890 C   0  0  0  0  0  0  0  0  0  0  0  0
  -12.1883   -9.1799    7.8245 O   0  0  0  0  0  0  0  0  0  0  0  0
  -11.2928  -10.9585    5.3385 N   0  0  0  0  0  0  0  0  0  0  0  0
  -10.9279  -12.1575    4.8096 C   0  0  0  0  0  0  0  0  0  0  0  0
  -10.9445  -13.1678    5.7814 N   0  0  0  0  0  0  0  0  0  0  0  0
  1  2  1  0  0  0  0
  1  6  1  0  0  0  0
  2  3  2  0  0  0  0
  3  4  1  0  0  0  0
  4  5  2  0  0  0  0
  4 10  1  0  0  0  0
  5  6  1  0  0  0  0
  5  8  1  0  0  0  0
  6  7  2  0  0  0  0
  8  9  1  0  0  0  0
  9 10  2  0  0  0  0
M  END
>  <CHROM.1>
-11.56441639,-11.59657682,7.16955610,-2.94281835,1.28382983,-0.73859089

>  <Name>
ligand

>  <RI>
0

>  <Rbt.Current_Directory>
/home/itssahil/PROJECTS/Mol_Feturizer/New_Systems/rnas/2EES

>  <Rbt.Executable>
rbdock ($Id: //depot/dev/client3/rdock/2013.1/src/exe/rbdock.cxx#4 $)

>  <Rbt.Library>
libRbt.so (2013.1, Build901 2013/11/27)

>  <Rbt.Parameter_File>
/export/apps/rDock/src/rDock_2013.1_src/data/scripts/dock_solv.prm

>  <Rbt.Receptor>
prm/blind_docking_40.prm

>  <SCORE>
-16.9434

>  <SCORE.INTER>
-16.9434

>  <SCORE.INTER.CONST>
1

>  <SCORE.INTER.POLAR>
0

>  <SCORE.INTER.ROT>
0

>  <SCORE.INTER.SOLV>
3.46074

>  <SCORE.INTER.VDW>
-16.0492

>  <SCORE.INTER.norm>
-1.69434

>  <SCORE.INTRA>
0

>  <SCORE.INTRA.DIHEDRAL>
0

>  <SCORE.INTRA.DIHEDRAL.0>
0

>  <SCORE.INTRA.POLAR>
0

>  <SCORE.INTRA.POLAR.0>
0

>  <SCORE.INTRA.REPUL>
0

>  <SCORE.INTRA.REPUL.0>
0

>  <SCORE.INTRA.SOLV>
0

>  <SCORE.INTRA.SOLV.lig_0>
-4.28614

>  <SCORE.INTRA.VDW>
0

>  <SCORE.INTRA.VDW.0>
0

>  <SCORE.INTRA.norm>
0

>  <SCORE.RESTR>
0

>  <SCORE.RESTR.CAVITY>
0

>  <SCORE.RESTR.norm>
0

>  <SCORE.SYSTEM>
0

>  <SCORE.SYSTEM.CONST>
0

>  <SCORE.SYSTEM.DIHEDRAL>
0

>  <SCORE.SYSTEM.SOLV>
0

>  <SCORE.SYSTEM.norm>
0

>  <SCORE.heavy>
10

>  <SCORE.norm>
-1.69434

>  <RMSD>
0.456

$$$$
ligand
 OpenBabel11021811423D
libRbt.so/2013.1/901 2013/11/27
 10 11  0  0  0  0  0  0  0  0999 V2000
  -12.0270  -11.2303    9.0465 N   0  0  0  0  0  0  0  0  0  0  0  0
  -11.7543  -12.5964    9.1406 C   0  0  0  0  0  0  0  0  0  0  0  0
  -11.3708  -13.3288    8.0796 N   0  0  0  0  0  0  0  0  0  0  0  0
  -11.2747  -12.5847    6.9071 C   0  0  0  0  0  0  0  0  0  0  0  0
  -11.5323  -11.2253    6.7203 C   0  0  0  0  0  0  0  0  0  0  0  0
  -11.9492  -10.4386    7.8516 C   0  0  0  0  0  0  0  0  0  0  0  0
  -12.2242   -9.2666    7.9434 O   0  0  0  0  0  0  0  0  0  0  0  0
  -11.2949  -10.9009    5.3722 N   0  0  0  0  0  0  0  0  0  0  0  0
  -10.8985  -12.0627    4.7860 C   0  0  0  0  0  0  0  0  0  0  0  0
  -10.8780  -13.1169    5.7100 N   0  0  0  0  0  0  0  0  0  0  0  0
  1  2  1  0  0  0  0
  1  6  1  0  0  0  0
  2  3  2  0  0  0  0
  3  4  1  0  0  0  0
  4  5  2  0  0  0  0
  4 10  1  0  0  0  0
  5  6  1  0  0  0  0
  5  8  1  0  0  0  0
  6  7  2  0  0  0  0
  8  9  1  0  0  0  0
  9 10  2  0  0  0  0
M  END
>  <CHROM.1>
-11.53393131,-11.63073723,7.17326083,-2.85255544,1.26819380,-0.77864685

>  <Name>
ligand

>  <RI>
0

>  <Rbt.Current_Directory>
/home/itssahil/PROJECTS/Mol_Feturizer/New_Systems/rnas/2EES

>  <Rbt.Executable>
rbdock ($Id: //depot/dev/client3/rdock/2013.1/src/exe/rbdock.cxx#4 $)

>  <Rbt.Library>
libRbt.so (2013.1, Build901 2013/11/27)

>  <Rbt.Parameter_File>
/export/apps/rDock/src/rDock_2013.1_src/data/scripts/dock_solv.prm

>  <Rbt.Receptor>
prm/pocket_docking_3.prm

>  <SCORE>
-16.9406

>  <SCORE.INTER>
-16.9406

>  <SCORE.INTER.CONST>
1

>  <SCORE.INTER.POLAR>
0

>  <SCORE.INTER.ROT>
0

>  <SCORE.INTER.SOLV>
3.47453

>  <SCORE.INTER.VDW>
-16.0519

>  <SCORE.INTER.norm>
-1.69406

>  <SCORE.INTRA>
0

>  <SCORE.INTRA.DIHEDRAL>
0

>  <SCORE.INTRA.DIHEDRAL.0>
0

>  <SCORE.INTRA.POLAR>
0

>  <SCORE.INTRA.POLAR.0>
0

>  <SCORE.INTRA.REPUL>
0

>  <SCORE.INTRA.REPUL.0>
0

>  <SCORE.INTRA.SOLV>
0

>  <SCORE.INTRA.SOLV.lig_0>
-4.28614

>  <SCORE.INTRA.VDW>
0

>  <SCORE.INTRA.VDW.0>
0

>  <SCORE.INTRA.norm>
0

>  <SCORE.RESTR>
0

>  <SCORE.RESTR.CAVITY>
0

>  <SCORE.RESTR.norm>
0

>  <SCORE.SYSTEM>
0

>  <SCORE.SYSTEM.CONST>
0

>  <SCORE.SYSTEM.DIHEDRAL>
0

>  <SCORE.SYSTEM.SOLV>
0

>  <SCORE.SYSTEM.norm>
0

>  <SCORE.heavy>
10

>  <SCORE.norm>
-1.69406

>  <RMSD>
0.457

$$$$
ligand
 OpenBabel11021811423D
libRbt.so/2013.1/901 2013/11/27
 10 11  0  0  0  0  0  0  0  0999 V2000
  -12.0277  -11.1885    9.0433 N   0  0  0  0  0  0  0  0  0  0  0  0
  -11.7544  -12.5538    9.1478 C   0  0  0  0  0  0  0  0  0  0  0  0
  -11.3779  -13.2956    8.0909 N   0  0  0  0  0  0  0  0  0  0  0  0
  -11.2896  -12.5620    6.9112 C   0  0  0  0  0  0  0  0  0  0  0  0
  -11.5485  -11.2044    6.7139 C   0  0  0  0  0  0  0  0  0  0  0  0
  -11.9579  -10.4076    7.8409 C   0  0  0  0  0  0  0  0  0  0  0  0
  -12.2323   -9.2348    7.9240 O   0  0  0  0  0  0  0  0  0  0  0  0
  -11.3200  -10.8920    5.3614 N   0  0  0  0  0  0  0  0  0  0  0  0
  -10.9275  -12.0591    4.7830 C   0  0  0  0  0  0  0  0  0  0  0  0
  -10.9008  -13.1050    5.7162 N   0  0  0  0  0  0  0  0  0  0  0  0
  1  2  1  0  0  0  0
  1  6  1  0  0  0  0
  2  3  2  0  0  0  0
  3  4  1  0  0  0  0
  4  5  2  0  0  0  0
  4 10  1  0  0  0  0
  5  6  1  0  0  0  0
  5  8  1  0  0  0  0
  6  7  2  0  0  0  0
  8  9  1  0  0  0  0
  9 10  2  0  0  0  0
M  END
>  <CHROM.1>
-11.54705571,-11.60576428,7.17048031,-2.83663728,1.27285625,-0.80279326

>  <Name>
ligand

>  <RI>
0

>  <Rbt.Current_Directory>
/home/itssahil/PROJECTS/Mol_Feturizer/New_Systems/rnas/2EES

>  <Rbt.Executable>
rbdock ($Id: //depot/dev/client3/rdock/2013.1/src/exe/rbdock.cxx#4 $)

>  <Rbt.Library>
libRbt.so (2013.1, Build901 2013/11/27)

>  <Rbt.Parameter_File>
/export/apps/rDock/src/rDock_2013.1_src/data/scripts/dock_solv.prm

>  <Rbt.Receptor>
prm/pocket_docking_3.prm

>  <SCORE>
-16.9505

>  <SCORE.INTER>
-16.9505

>  <SCORE.INTER.CONST>
1

>  <SCORE.INTER.POLAR>
0

>  <SCORE.INTER.ROT>
0

>  <SCORE.INTER.SOLV>
3.47417

>  <SCORE.INTER.VDW>
-16.0584

>  <SCORE.INTER.norm>
-1.69505

>  <SCORE.INTRA>
0

>  <SCORE.INTRA.DIHEDRAL>
0

>  <SCORE.INTRA.DIHEDRAL.0>
0

>  <SCORE.INTRA.POLAR>
0

>  <SCORE.INTRA.POLAR.0>
0

>  <SCORE.INTRA.REPUL>
0

>  <SCORE.INTRA.REPUL.0>
0

>  <SCORE.INTRA.SOLV>
0

>  <SCORE.INTRA.SOLV.lig_0>
-4.28614

>  <SCORE.INTRA.VDW>
0

>  <SCORE.INTRA.VDW.0>
0

>  <SCORE.INTRA.norm>
0

>  <SCORE.RESTR>
0

>  <SCORE.RESTR.CAVITY>
0

>  <SCORE.RESTR.norm>
0

>  <SCORE.SYSTEM>
0

>  <SCORE.SYSTEM.CONST>
0

>  <SCORE.SYSTEM.DIHEDRAL>
0

>  <SCORE.SYSTEM.SOLV>
0

>  <SCORE.SYSTEM.norm>
0

>  <SCORE.heavy>
10

>  <SCORE.norm>
-1.69505

>  <RMSD>
0.459

$$$$
ligand
 OpenBabel11021811423D
libRbt.so/2013.1/901 2013/11/27
 10 11  0  0  0  0  0  0  0  0999 V2000
  -12.0179  -11.2260    9.0477 N   0  0  0  0  0  0  0  0  0  0  0  0
  -11.7409  -12.5913    9.1408 C   0  0  0  0  0  0  0  0  0  0  0  0
  -11.3632  -13.3235    8.0776 N   0  0  0  0  0  0  0  0  0  0  0  0
  -11.2775  -12.5800    6.9039 C   0  0  0  0  0  0  0  0  0  0  0  0
  -11.5401  -11.2215    6.7179 C   0  0  0  0  0  0  0  0  0  0  0  0
  -11.9509  -10.4351    7.8516 C   0  0  0  0  0  0  0  0  0  0  0  0
  -12.2283   -9.2637    7.9444 O   0  0  0  0  0  0  0  0  0  0  0  0
  -11.3132  -10.8975    5.3679 N   0  0  0  0  0  0  0  0  0  0  0  0
  -10.9180  -12.0588    4.7797 C   0  0  0  0  0  0  0  0  0  0  0  0
  -10.8880  -13.1122    5.7043 N   0  0  0  0  0  0  0  0  0  0  0  0
  1  2  1  0  0  0  0
  1  6  1  0  0  0  0
  2  3  2  0  0  0  0
  3  4  1  0  0  0  0
  4  5  2  0  0  0  0
  4 10  1  0  0  0  0
  5  6  1  0  0  0  0
  5  8  1  0  0  0  0
  6  7  2  0  0  0  0
  8  9  1  0  0  0  0
  9 10  2  0  0  0  0
M  END
>  <CHROM.1>
-11.53731799,-11.62659201,7.17116800,-2.82895894,1.27138276,-0.80195215

>  <Name>
ligand

>  <RI>
0

>  <Rbt.Current_Directory>
/home/itssahil/PROJECTS/Mol_Feturizer/New_Systems/rnas/2EES

>  <Rbt.Executable>
rbdock ($Id: //depot/dev/client3/rdock/2013.1/src/exe/rbdock.cxx#4 $)

>  <Rbt.Library>
libRbt.so (2013.1, Build901 2013/11/27)

>  <Rbt.Parameter_File>
/export/apps/rDock/src/rDock_2013.1_src/data/scripts/dock_solv.prm

>  <Rbt.Receptor>
prm/pocket_docking_5.prm

>  <SCORE>
-16.9468

>  <SCORE.INTER>
-16.9468

>  <SCORE.INTER.CONST>
1

>  <SCORE.INTER.POLAR>
0

>  <SCORE.INTER.ROT>
0

>  <SCORE.INTER.SOLV>
3.48211

>  <SCORE.INTER.VDW>
-16.0586

>  <SCORE.INTER.norm>
-1.69468

>  <SCORE.INTRA>
0

>  <SCORE.INTRA.DIHEDRAL>
0

>  <SCORE.INTRA.DIHEDRAL.0>
0

>  <SCORE.INTRA.POLAR>
0

>  <SCORE.INTRA.POLAR.0>
0

>  <SCORE.INTRA.REPUL>
0

>  <SCORE.INTRA.REPUL.0>
0

>  <SCORE.INTRA.SOLV>
0

>  <SCORE.INTRA.SOLV.lig_0>
-4.28614

>  <SCORE.INTRA.VDW>
0

>  <SCORE.INTRA.VDW.0>
0

>  <SCORE.INTRA.norm>
0

>  <SCORE.RESTR>
0

>  <SCORE.RESTR.CAVITY>
0

>  <SCORE.RESTR.norm>
0

>  <SCORE.SYSTEM>
0

>  <SCORE.SYSTEM.CONST>
0

>  <SCORE.SYSTEM.DIHEDRAL>
0

>  <SCORE.SYSTEM.SOLV>
0

>  <SCORE.SYSTEM.norm>
0

>  <SCORE.heavy>
10

>  <SCORE.norm>
-1.69468

>  <RMSD>
0.461

$$$$
ligand
 OpenBabel11021811423D
libRbt.so/2013.1/901 2013/11/27
 10 11  0  0  0  0  0  0  0  0999 V2000
  -12.0161  -11.1857    9.0398 N   0  0  0  0  0  0  0  0  0  0  0  0
  -11.7428  -12.5508    9.1473 C   0  0  0  0  0  0  0  0  0  0  0  0
  -11.3670  -13.2949    8.0918 N   0  0  0  0  0  0  0  0  0  0  0  0
  -11.2792  -12.5640    6.9104 C   0  0  0  0  0  0  0  0  0  0  0  0
  -11.5381  -11.2068    6.7102 C   0  0  0  0  0  0  0  0  0  0  0  0
  -11.9469  -10.4075    7.8356 C   0  0  0  0  0  0  0  0  0  0  0  0
  -12.2212   -9.2345    7.9162 O   0  0  0  0  0  0  0  0  0  0  0  0
  -11.3103  -10.8975    5.3569 N   0  0  0  0  0  0  0  0  0  0  0  0
  -10.9182  -12.0658    4.7809 C   0  0  0  0  0  0  0  0  0  0  0  0
  -10.8911  -13.1096    5.7164 N   0  0  0  0  0  0  0  0  0  0  0  0
  1  2  1  0  0  0  0
  1  6  1  0  0  0  0
  2  3  2  0  0  0  0
  3  4  1  0  0  0  0
  4  5  2  0  0  0  0
  4 10  1  0  0  0  0
  5  6  1  0  0  0  0
  5  8  1  0  0  0  0
  6  7  2  0  0  0  0
  8  9  1  0  0  0  0
  9 10  2  0  0  0  0
M  END
>  <CHROM.1>
-11.53650004,-11.60713853,7.16767658,-2.83549331,1.27325637,-0.80612166

>  <Name>
ligand

>  <RI>
0

>  <Rbt.Current_Directory>
/home/itssahil/PROJECTS/Mol_Feturizer/New_Systems/rnas/2EES

>  <Rbt.Executable>
rbdock ($Id: //depot/dev/client3/rdock/2013.1/src/exe/rbdock.cxx#4 $)

>  <Rbt.Library>
libRbt.so (2013.1, Build901 2013/11/27)

>  <Rbt.Parameter_File>
/export/apps/rDock/src/rDock_2013.1_src/data/scripts/dock_solv.prm

>  <Rbt.Receptor>
prm/pocket_docking_8.prm

>  <SCORE>
-16.9487

>  <SCORE.INTER>
-16.9487

>  <SCORE.INTER.CONST>
1

>  <SCORE.INTER.POLAR>
0

>  <SCORE.INTER.ROT>
0

>  <SCORE.INTER.SOLV>
3.47772

>  <SCORE.INTER.VDW>
-16.0584

>  <SCORE.INTER.norm>
-1.69487

>  <SCORE.INTRA>
0

>  <SCORE.INTRA.DIHEDRAL>
0

>  <SCORE.INTRA.DIHEDRAL.0>
0

>  <SCORE.INTRA.POLAR>
0

>  <SCORE.INTRA.POLAR.0>
0

>  <SCORE.INTRA.REPUL>
0

>  <SCORE.INTRA.REPUL.0>
0

>  <SCORE.INTRA.SOLV>
0

>  <SCORE.INTRA.SOLV.lig_0>
-4.28614

>  <SCORE.INTRA.VDW>
0

>  <SCORE.INTRA.VDW.0>
0

>  <SCORE.INTRA.norm>
0

>  <SCORE.RESTR>
0

>  <SCORE.RESTR.CAVITY>
0

>  <SCORE.RESTR.norm>
0

>  <SCORE.SYSTEM>
0

>  <SCORE.SYSTEM.CONST>
0

>  <SCORE.SYSTEM.DIHEDRAL>
0

>  <SCORE.SYSTEM.SOLV>
0

>  <SCORE.SYSTEM.norm>
0

>  <SCORE.heavy>
10

>  <SCORE.norm>
-1.69487

>  <RMSD>
0.463

$$$$
ligand
 OpenBabel11021811423D
libRbt.so/2013.1/901 2013/11/27
 10 11  0  0  0  0  0  0  0  0999 V2000
  -12.0472  -11.1437    9.0112 N   0  0  0  0  0  0  0  0  0  0  0  0
  -11.7861  -12.5081    9.1521 C   0  0  0  0  0  0  0  0  0  0  0  0
  -11.4043  -13.2785    8.1177 N   0  0  0  0  0  0  0  0  0  0  0  0
  -11.2975  -12.5748    6.9215 C   0  0  0  0  0  0  0  0  0  0  0  0
  -11.5432  -11.2205    6.6883 C   0  0  0  0  0  0  0  0  0  0  0  0
  -11.9583  -10.3931    7.7909 C   0  0  0  0  0  0  0  0  0  0  0  0
  -12.2240   -9.2165    7.8423 O   0  0  0  0  0  0  0  0  0  0  0  0
  -11.2977  -10.9432    5.3311 N   0  0  0  0  0  0  0  0  0  0  0  0
  -10.9085  -12.1271    4.7858 C   0  0  0  0  0  0  0  0  0  0  0  0
  -10.9003  -13.1499    5.7445 N   0  0  0  0  0  0  0  0  0  0  0  0
  1  2  1  0  0  0  0
  1  6  1  0  0  0  0
  2  3  2  0  0  0  0
  3  4  1  0  0  0  0
  4  5  2  0  0  0  0
  4 10  1  0  0  0  0
  5  6  1  0  0  0  0
  5  8  1  0  0  0  0
  6  7  2  0  0  0  0
  8  9  1  0  0  0  0
  9 10  2  0  0  0  0
M  END
>  <CHROM.1>
-11.54995881,-11.61050441,7.15450230,-2.88175328,1.27093092,-0.78416541

>  <Name>
ligand

>  <RI>
0

>  <Rbt.Current_Directory>
/home/itssahil/PROJECTS/Mol_Feturizer/New_Systems/rnas/2EES

>  <Rbt.Executable>
rbdock ($Id: //depot/dev/client3/rdock/2013.1/src/exe/rbdock.cxx#4 $)

>  <Rbt.Library>
libRbt.so (2013.1, Build901 2013/11/27)

>  <Rbt.Parameter_File>
/export/apps/rDock/src/rDock_2013.1_src/data/scripts/dock_solv.prm

>  <Rbt.Receptor>
prm/blind_docking_100.prm

>  <SCORE>
-16.9537

>  <SCORE.INTER>
-16.9537

>  <SCORE.INTER.CONST>
1

>  <SCORE.INTER.POLAR>
0

>  <SCORE.INTER.ROT>
0

>  <SCORE.INTER.SOLV>
3.43278

>  <SCORE.INTER.VDW>
-16.0467

>  <SCORE.INTER.norm>
-1.69537

>  <SCORE.INTRA>
0

>  <SCORE.INTRA.DIHEDRAL>
0

>  <SCORE.INTRA.DIHEDRAL.0>
0

>  <SCORE.INTRA.POLAR>
0

>  <SCORE.INTRA.POLAR.0>
0

>  <SCORE.INTRA.REPUL>
0

>  <SCORE.INTRA.REPUL.0>
0

>  <SCORE.INTRA.SOLV>
0

>  <SCORE.INTRA.SOLV.lig_0>
-4.28614

>  <SCORE.INTRA.VDW>
0

>  <SCORE.INTRA.VDW.0>
0

>  <SCORE.INTRA.norm>
0

>  <SCORE.RESTR>
0

>  <SCORE.RESTR.CAVITY>
0

>  <SCORE.RESTR.norm>
0

>  <SCORE.SYSTEM>
0

>  <SCORE.SYSTEM.CONST>
0

>  <SCORE.SYSTEM.DIHEDRAL>
0

>  <SCORE.SYSTEM.SOLV>
0

>  <SCORE.SYSTEM.norm>
0

>  <SCORE.heavy>
10

>  <SCORE.norm>
-1.69537

>  <RMSD>
0.465

$$$$
ligand
 OpenBabel11021811423D
libRbt.so/2013.1/901 2013/11/27
 10 11  0  0  0  0  0  0  0  0999 V2000
  -12.0183  -11.1827    9.0321 N   0  0  0  0  0  0  0  0  0  0  0  0
  -11.7534  -12.5490    9.1439 C   0  0  0  0  0  0  0  0  0  0  0  0
  -11.3721  -13.2968    8.0929 N   0  0  0  0  0  0  0  0  0  0  0  0
  -11.2698  -12.5681    6.9112 C   0  0  0  0  0  0  0  0  0  0  0  0
  -11.5195  -11.2098    6.7069 C   0  0  0  0  0  0  0  0  0  0  0  0
  -11.9340  -10.4066    7.8274 C   0  0  0  0  0  0  0  0  0  0  0  0
  -12.2027   -9.2320    7.9039 O   0  0  0  0  0  0  0  0  0  0  0  0
  -11.2778  -10.9037    5.3552 N   0  0  0  0  0  0  0  0  0  0  0  0
  -10.8869  -12.0750    4.7845 C   0  0  0  0  0  0  0  0  0  0  0  0
  -10.8739  -13.1175    5.7216 N   0  0  0  0  0  0  0  0  0  0  0  0
  1  2  1  0  0  0  0
  1  6  1  0  0  0  0
  2  3  2  0  0  0  0
  3  4  1  0  0  0  0
  4  5  2  0  0  0  0
  4 10  1  0  0  0  0
  5  6  1  0  0  0  0
  5  8  1  0  0  0  0
  6  7  2  0  0  0  0
  8  9  1  0  0  0  0
  9 10  2  0  0  0  0
M  END
>  <CHROM.1>
-11.52414922,-11.60944085,7.16488711,-2.87018301,1.27077076,-0.77440583

>  <Name>
ligand

>  <RI>
0

>  <Rbt.Current_Directory>
/home/itssahil/PROJECTS/Mol_Feturizer/New_Systems/rnas/2EES

>  <Rbt.Executable>
rbdock ($Id: //depot/dev/client3/rdock/2013.1/src/exe/rbdock.cxx#4 $)

>  <Rbt.Library>
libRbt.so (2013.1, Build901 2013/11/27)

>  <Rbt.Parameter_File>
/export/apps/rDock/src/rDock_2013.1_src/data/scripts/dock_solv.prm

>  <Rbt.Receptor>
prm/pocket_docking_3.prm

>  <SCORE>
-16.9363

>  <SCORE.INTER>
-16.9363

>  <SCORE.INTER.CONST>
1

>  <SCORE.INTER.POLAR>
0

>  <SCORE.INTER.ROT>
0

>  <SCORE.INTER.SOLV>
3.47487

>  <SCORE.INTER.VDW>
-16.0492

>  <SCORE.INTER.norm>
-1.69363

>  <SCORE.INTRA>
0

>  <SCORE.INTRA.DIHEDRAL>
0

>  <SCORE.INTRA.DIHEDRAL.0>
0

>  <SCORE.INTRA.POLAR>
0

>  <SCORE.INTRA.POLAR.0>
0

>  <SCORE.INTRA.REPUL>
0

>  <SCORE.INTRA.REPUL.0>
0

>  <SCORE.INTRA.SOLV>
0

>  <SCORE.INTRA.SOLV.lig_0>
-4.28614

>  <SCORE.INTRA.VDW>
0

>  <SCORE.INTRA.VDW.0>
0

>  <SCORE.INTRA.norm>
0

>  <SCORE.RESTR>
0

>  <SCORE.RESTR.CAVITY>
0

>  <SCORE.RESTR.norm>
0

>  <SCORE.SYSTEM>
0

>  <SCORE.SYSTEM.CONST>
0

>  <SCORE.SYSTEM.DIHEDRAL>
0

>  <SCORE.SYSTEM.SOLV>
0

>  <SCORE.SYSTEM.norm>
0

>  <SCORE.heavy>
10

>  <SCORE.norm>
-1.69363

>  <RMSD>
0.465

$$$$
ligand
 OpenBabel11021811423D
libRbt.so/2013.1/901 2013/11/27
 10 11  0  0  0  0  0  0  0  0999 V2000
  -12.0321  -11.1346    9.0147 N   0  0  0  0  0  0  0  0  0  0  0  0
  -11.7673  -12.4982    9.1568 C   0  0  0  0  0  0  0  0  0  0  0  0
  -11.3917  -13.2703    8.1215 N   0  0  0  0  0  0  0  0  0  0  0  0
  -11.2949  -12.5692    6.9228 C   0  0  0  0  0  0  0  0  0  0  0  0
  -11.5449  -11.2158    6.6883 C   0  0  0  0  0  0  0  0  0  0  0  0
  -11.9534  -10.3867    7.7920 C   0  0  0  0  0  0  0  0  0  0  0  0
  -12.2210   -9.2105    7.8426 O   0  0  0  0  0  0  0  0  0  0  0  0
  -11.3099  -10.9412    5.3287 N   0  0  0  0  0  0  0  0  0  0  0  0
  -10.9224  -12.1257    4.7833 C   0  0  0  0  0  0  0  0  0  0  0  0
  -10.9052  -13.1463    5.7443 N   0  0  0  0  0  0  0  0  0  0  0  0
  1  2  1  0  0  0  0
  1  6  1  0  0  0  0
  2  3  2  0  0  0  0
  3  4  1  0  0  0  0
  4  5  2  0  0  0  0
  4 10  1  0  0  0  0
  5  6  1  0  0  0  0
  5  8  1  0  0  0  0
  6  7  2  0  0  0  0
  8  9  1  0  0  0  0
  9 10  2  0  0  0  0
M  END
>  <CHROM.1>
-11.54748550,-11.60478379,7.15547162,-2.85949163,1.27470639,-0.80777365

>  <Name>
ligand

>  <RI>
0

>  <Rbt.Current_Directory>
/home/itssahil/PROJECTS/Mol_Feturizer/New_Systems/rnas/2EES

>  <Rbt.Executable>
rbdock ($Id: //depot/dev/client3/rdock/2013.1/src/exe/rbdock.cxx#4 $)

>  <Rbt.Library>
libRbt.so (2013.1, Build901 2013/11/27)

>  <Rbt.Parameter_File>
/export/apps/rDock/src/rDock_2013.1_src/data/scripts/dock_solv.prm

>  <Rbt.Receptor>
prm/pocket_docking_4.prm

>  <SCORE>
-16.9584

>  <SCORE.INTER>
-16.9584

>  <SCORE.INTER.CONST>
1

>  <SCORE.INTER.POLAR>
0

>  <SCORE.INTER.ROT>
0

>  <SCORE.INTER.SOLV>
3.44307

>  <SCORE.INTER.VDW>
-16.0533

>  <SCORE.INTER.norm>
-1.69584

>  <SCORE.INTRA>
0

>  <SCORE.INTRA.DIHEDRAL>
0

>  <SCORE.INTRA.DIHEDRAL.0>
0

>  <SCORE.INTRA.POLAR>
0

>  <SCORE.INTRA.POLAR.0>
0

>  <SCORE.INTRA.REPUL>
0

>  <SCORE.INTRA.REPUL.0>
0

>  <SCORE.INTRA.SOLV>
0

>  <SCORE.INTRA.SOLV.lig_0>
-4.28614

>  <SCORE.INTRA.VDW>
0

>  <SCORE.INTRA.VDW.0>
0

>  <SCORE.INTRA.norm>
0

>  <SCORE.RESTR>
0

>  <SCORE.RESTR.CAVITY>
0

>  <SCORE.RESTR.norm>
0

>  <SCORE.SYSTEM>
0

>  <SCORE.SYSTEM.CONST>
0

>  <SCORE.SYSTEM.DIHEDRAL>
0

>  <SCORE.SYSTEM.SOLV>
0

>  <SCORE.SYSTEM.norm>
0

>  <SCORE.heavy>
10

>  <SCORE.norm>
-1.69584

>  <RMSD>
0.467

$$$$
ligand
 OpenBabel11021811423D
libRbt.so/2013.1/901 2013/11/27
 10 11  0  0  0  0  0  0  0  0999 V2000
  -12.0554  -11.3009    9.0524 N   0  0  0  0  0  0  0  0  0  0  0  0
  -11.7797  -12.6684    9.1125 C   0  0  0  0  0  0  0  0  0  0  0  0
  -11.4003  -13.3744    8.0323 N   0  0  0  0  0  0  0  0  0  0  0  0
  -11.3115  -12.6023    6.8775 C   0  0  0  0  0  0  0  0  0  0  0  0
  -11.5725  -11.2394    6.7245 C   0  0  0  0  0  0  0  0  0  0  0  0
  -11.9851  -10.4808    7.8764 C   0  0  0  0  0  0  0  0  0  0  0  0
  -12.2617   -9.3119    7.9975 O   0  0  0  0  0  0  0  0  0  0  0  0
  -11.3424  -10.8824    5.3834 N   0  0  0  0  0  0  0  0  0  0  0  0
  -10.9469  -12.0291    4.7676 C   0  0  0  0  0  0  0  0  0  0  0  0
  -10.9198  -13.1050    5.6660 N   0  0  0  0  0  0  0  0  0  0  0  0
  1  2  1  0  0  0  0
  1  6  1  0  0  0  0
  2  3  2  0  0  0  0
  3  4  1  0  0  0  0
  4  5  2  0  0  0  0
  4 10  1  0  0  0  0
  5  6  1  0  0  0  0
  5  8  1  0  0  0  0
  6  7  2  0  0  0  0
  8  9  1  0  0  0  0
  9 10  2  0  0  0  0
M  END
>  <CHROM.1>
-11.57106229,-11.65555144,7.16766060,-2.83618720,1.27046829,-0.77036073

>  <Name>
ligand

>  <RI>
0

>  <Rbt.Current_Directory>
/home/itssahil/PROJECTS/Mol_Feturizer/New_Systems/rnas/2EES

>  <Rbt.Executable>
rbdock ($Id: //depot/dev/client3/rdock/2013.1/src/exe/rbdock.cxx#4 $)

>  <Rbt.Library>
libRbt.so (2013.1, Build901 2013/11/27)

>  <Rbt.Parameter_File>
/export/apps/rDock/src/rDock_2013.1_src/data/scripts/dock_solv.prm

>  <Rbt.Receptor>
prm/pocket_docking_6.prm

>  <SCORE>
-16.9584

>  <SCORE.INTER>
-16.9584

>  <SCORE.INTER.CONST>
1

>  <SCORE.INTER.POLAR>
0

>  <SCORE.INTER.ROT>
0

>  <SCORE.INTER.SOLV>
3.48314

>  <SCORE.INTER.VDW>
-16.0667

>  <SCORE.INTER.norm>
-1.69584

>  <SCORE.INTRA>
0

>  <SCORE.INTRA.DIHEDRAL>
0

>  <SCORE.INTRA.DIHEDRAL.0>
0

>  <SCORE.INTRA.POLAR>
0

>  <SCORE.INTRA.POLAR.0>
0

>  <SCORE.INTRA.REPUL>
0

>  <SCORE.INTRA.REPUL.0>
0

>  <SCORE.INTRA.SOLV>
0

>  <SCORE.INTRA.SOLV.lig_0>
-4.28614

>  <SCORE.INTRA.VDW>
0

>  <SCORE.INTRA.VDW.0>
0

>  <SCORE.INTRA.norm>
0

>  <SCORE.RESTR>
0

>  <SCORE.RESTR.CAVITY>
0

>  <SCORE.RESTR.norm>
0

>  <SCORE.SYSTEM>
0

>  <SCORE.SYSTEM.CONST>
0

>  <SCORE.SYSTEM.DIHEDRAL>
0

>  <SCORE.SYSTEM.SOLV>
0

>  <SCORE.SYSTEM.norm>
0

>  <SCORE.heavy>
10

>  <SCORE.norm>
-1.69584

>  <RMSD>
0.468

$$$$
ligand
 OpenBabel11021811423D
libRbt.so/2013.1/901 2013/11/27
 10 11  0  0  0  0  0  0  0  0999 V2000
  -12.0267  -11.1906    9.0099 N   0  0  0  0  0  0  0  0  0  0  0  0
  -11.7766  -12.5557    9.1638 C   0  0  0  0  0  0  0  0  0  0  0  0
  -11.4172  -13.3423    8.1337 N   0  0  0  0  0  0  0  0  0  0  0  0
  -11.3209  -12.6543    6.9274 C   0  0  0  0  0  0  0  0  0  0  0  0
  -11.5571  -11.3006    6.6810 C   0  0  0  0  0  0  0  0  0  0  0  0
  -11.9483  -10.4559    7.7792 C   0  0  0  0  0  0  0  0  0  0  0  0
  -12.2020   -9.2762    7.8199 O   0  0  0  0  0  0  0  0  0  0  0  0
  -11.3286  -11.0423    5.3172 N   0  0  0  0  0  0  0  0  0  0  0  0
  -10.9586  -12.2365    4.7810 C   0  0  0  0  0  0  0  0  0  0  0  0
  -10.9463  -13.2476    5.7520 N   0  0  0  0  0  0  0  0  0  0  0  0
  1  2  1  0  0  0  0
  1  6  1  0  0  0  0
  2  3  2  0  0  0  0
  3  4  1  0  0  0  0
  4  5  2  0  0  0  0
  4 10  1  0  0  0  0
  5  6  1  0  0  0  0
  5  8  1  0  0  0  0
  6  7  2  0  0  0  0
  8  9  1  0  0  0  0
  9 10  2  0  0  0  0
M  END
>  <CHROM.1>
-11.56080810,-11.68484164,7.15209368,-2.86938301,1.28786602,-0.80829160

>  <Name>
ligand

>  <RI>
0

>  <Rbt.Current_Directory>
/home/itssahil/PROJECTS/Mol_Feturizer/New_Systems/rnas/2EES

>  <Rbt.Executable>
rbdock ($Id: //depot/dev/client3/rdock/2013.1/src/exe/rbdock.cxx#4 $)

>  <Rbt.Library>
libRbt.so (2013.1, Build901 2013/11/27)

>  <Rbt.Parameter_File>
/export/apps/rDock/src/rDock_2013.1_src/data/scripts/dock_solv.prm

>  <Rbt.Receptor>
prm/pocket_docking_4.prm

>  <SCORE>
-16.9867

>  <SCORE.INTER>
-16.9867

>  <SCORE.INTER.CONST>
1

>  <SCORE.INTER.POLAR>
0

>  <SCORE.INTER.ROT>
0

>  <SCORE.INTER.SOLV>
3.46122

>  <SCORE.INTER.VDW>
-16.0782

>  <SCORE.INTER.norm>
-1.69867

>  <SCORE.INTRA>
0

>  <SCORE.INTRA.DIHEDRAL>
0

>  <SCORE.INTRA.DIHEDRAL.0>
0

>  <SCORE.INTRA.POLAR>
0

>  <SCORE.INTRA.POLAR.0>
0

>  <SCORE.INTRA.REPUL>
0

>  <SCORE.INTRA.REPUL.0>
0

>  <SCORE.INTRA.SOLV>
0

>  <SCORE.INTRA.SOLV.lig_0>
-4.28614

>  <SCORE.INTRA.VDW>
0

>  <SCORE.INTRA.VDW.0>
0

>  <SCORE.INTRA.norm>
0

>  <SCORE.RESTR>
0

>  <SCORE.RESTR.CAVITY>
0

>  <SCORE.RESTR.norm>
0

>  <SCORE.SYSTEM>
0

>  <SCORE.SYSTEM.CONST>
0

>  <SCORE.SYSTEM.DIHEDRAL>
0

>  <SCORE.SYSTEM.SOLV>
0

>  <SCORE.SYSTEM.norm>
0

>  <SCORE.heavy>
10

>  <SCORE.norm>
-1.69867

>  <RMSD>
0.471

$$$$
ligand
 OpenBabel11021811423D
libRbt.so/2013.1/901 2013/11/27
 10 11  0  0  0  0  0  0  0  0999 V2000
  -12.0441  -11.1415    9.0086 N   0  0  0  0  0  0  0  0  0  0  0  0
  -11.7779  -12.5055    9.1434 C   0  0  0  0  0  0  0  0  0  0  0  0
  -11.3985  -13.2710    8.1046 N   0  0  0  0  0  0  0  0  0  0  0  0
  -11.2994  -12.5627    6.9103 C   0  0  0  0  0  0  0  0  0  0  0  0
  -11.5506  -11.2084    6.6831 C   0  0  0  0  0  0  0  0  0  0  0  0
  -11.9631  -10.3862    7.7906 C   0  0  0  0  0  0  0  0  0  0  0  0
  -12.2324   -9.2107    7.8474 O   0  0  0  0  0  0  0  0  0  0  0  0
  -11.3123  -10.9255    5.3258 N   0  0  0  0  0  0  0  0  0  0  0  0
  -10.9218  -12.1062    4.7745 C   0  0  0  0  0  0  0  0  0  0  0  0
  -10.9058  -13.1324    5.7295 N   0  0  0  0  0  0  0  0  0  0  0  0
  1  2  1  0  0  0  0
  1  6  1  0  0  0  0
  2  3  2  0  0  0  0
  3  4  1  0  0  0  0
  4  5  2  0  0  0  0
  4 10  1  0  0  0  0
  5  6  1  0  0  0  0
  5  8  1  0  0  0  0
  6  7  2  0  0  0  0
  8  9  1  0  0  0  0
  9 10  2  0  0  0  0
M  END
>  <CHROM.1>
-11.55389742,-11.60004645,7.14796974,-2.86294309,1.27189998,-0.79859003

>  <Name>
ligand

>  <RI>
0

>  <Rbt.Current_Directory>
/home/itssahil/PROJECTS/Mol_Feturizer/New_Systems/rnas/2EES

>  <Rbt.Executable>
rbdock ($Id: //depot/dev/client3/rdock/2013.1/src/exe/rbdock.cxx#4 $)

>  <Rbt.Library>
libRbt.so (2013.1, Build901 2013/11/27)

>  <Rbt.Parameter_File>
/export/apps/rDock/src/rDock_2013.1_src/data/scripts/dock_solv.prm

>  <Rbt.Receptor>
prm/pocket_docking_6.prm

>  <SCORE>
-16.9534

>  <SCORE.INTER>
-16.9534

>  <SCORE.INTER.CONST>
1

>  <SCORE.INTER.POLAR>
0

>  <SCORE.INTER.ROT>
0

>  <SCORE.INTER.SOLV>
3.43731

>  <SCORE.INTER.VDW>
-16.0481

>  <SCORE.INTER.norm>
-1.69534

>  <SCORE.INTRA>
0

>  <SCORE.INTRA.DIHEDRAL>
0

>  <SCORE.INTRA.DIHEDRAL.0>
0

>  <SCORE.INTRA.POLAR>
0

>  <SCORE.INTRA.POLAR.0>
0

>  <SCORE.INTRA.REPUL>
0

>  <SCORE.INTRA.REPUL.0>
0

>  <SCORE.INTRA.SOLV>
0

>  <SCORE.INTRA.SOLV.lig_0>
-4.28614

>  <SCORE.INTRA.VDW>
0

>  <SCORE.INTRA.VDW.0>
0

>  <SCORE.INTRA.norm>
0

>  <SCORE.RESTR>
0

>  <SCORE.RESTR.CAVITY>
0

>  <SCORE.RESTR.norm>
0

>  <SCORE.SYSTEM>
0

>  <SCORE.SYSTEM.CONST>
0

>  <SCORE.SYSTEM.DIHEDRAL>
0

>  <SCORE.SYSTEM.SOLV>
0

>  <SCORE.SYSTEM.norm>
0

>  <SCORE.heavy>
10

>  <SCORE.norm>
-1.69534

>  <RMSD>
0.473

$$$$
ligand
 OpenBabel11021811423D
libRbt.so/2013.1/901 2013/11/27
 10 11  0  0  0  0  0  0  0  0999 V2000
  -12.0252  -11.1851    9.0058 N   0  0  0  0  0  0  0  0  0  0  0  0
  -11.7836  -12.5516    9.1598 C   0  0  0  0  0  0  0  0  0  0  0  0
  -11.4262  -13.3400    8.1304 N   0  0  0  0  0  0  0  0  0  0  0  0
  -11.3226  -12.6522    6.9246 C   0  0  0  0  0  0  0  0  0  0  0  0
  -11.5501  -11.2970    6.6782 C   0  0  0  0  0  0  0  0  0  0  0  0
  -11.9391  -10.4503    7.7756 C   0  0  0  0  0  0  0  0  0  0  0  0
  -12.1860   -9.2692    7.8161 O   0  0  0  0  0  0  0  0  0  0  0  0
  -11.3164  -11.0395    5.3150 N   0  0  0  0  0  0  0  0  0  0  0  0
  -10.9521  -12.2357    4.7793 C   0  0  0  0  0  0  0  0  0  0  0  0
  -10.9483  -13.2472    5.7500 N   0  0  0  0  0  0  0  0  0  0  0  0
  1  2  1  0  0  0  0
  1  6  1  0  0  0  0
  2  3  2  0  0  0  0
  3  4  1  0  0  0  0
  4  5  2  0  0  0  0
  4 10  1  0  0  0  0
  5  6  1  0  0  0  0
  5  8  1  0  0  0  0
  6  7  2  0  0  0  0
  8  9  1  0  0  0  0
  9 10  2  0  0  0  0
M  END
>  <CHROM.1>
-11.55732475,-11.68137292,7.14908290,-2.89110217,1.29026168,-0.78705787

>  <Name>
ligand

>  <RI>
0

>  <Rbt.Current_Directory>
/home/itssahil/PROJECTS/Mol_Feturizer/New_Systems/rnas/2EES

>  <Rbt.Executable>
rbdock ($Id: //depot/dev/client3/rdock/2013.1/src/exe/rbdock.cxx#4 $)

>  <Rbt.Library>
libRbt.so (2013.1, Build901 2013/11/27)

>  <Rbt.Parameter_File>
/export/apps/rDock/src/rDock_2013.1_src/data/scripts/dock_solv.prm

>  <Rbt.Receptor>
prm/blind_docking_40.prm

>  <SCORE>
-16.9928

>  <SCORE.INTER>
-16.9928

>  <SCORE.INTER.CONST>
1

>  <SCORE.INTER.POLAR>
0

>  <SCORE.INTER.ROT>
0

>  <SCORE.INTER.SOLV>
3.47073

>  <SCORE.INTER.VDW>
-16.0855

>  <SCORE.INTER.norm>
-1.69928

>  <SCORE.INTRA>
0

>  <SCORE.INTRA.DIHEDRAL>
0

>  <SCORE.INTRA.DIHEDRAL.0>
0

>  <SCORE.INTRA.POLAR>
0

>  <SCORE.INTRA.POLAR.0>
0

>  <SCORE.INTRA.REPUL>
0

>  <SCORE.INTRA.REPUL.0>
0

>  <SCORE.INTRA.SOLV>
0

>  <SCORE.INTRA.SOLV.lig_0>
-4.28614

>  <SCORE.INTRA.VDW>
0

>  <SCORE.INTRA.VDW.0>
0

>  <SCORE.INTRA.norm>
0

>  <SCORE.RESTR>
0

>  <SCORE.RESTR.CAVITY>
0

>  <SCORE.RESTR.norm>
0

>  <SCORE.SYSTEM>
0

>  <SCORE.SYSTEM.CONST>
0

>  <SCORE.SYSTEM.DIHEDRAL>
0

>  <SCORE.SYSTEM.SOLV>
0

>  <SCORE.SYSTEM.norm>
0

>  <SCORE.heavy>
10

>  <SCORE.norm>
-1.69928

>  <RMSD>
0.475

$$$$
ligand
 OpenBabel11021811423D
libRbt.so/2013.1/901 2013/11/27
 10 11  0  0  0  0  0  0  0  0999 V2000
  -12.0239  -11.1600    9.0196 N   0  0  0  0  0  0  0  0  0  0  0  0
  -11.7632  -12.5271    9.1331 C   0  0  0  0  0  0  0  0  0  0  0  0
  -11.3896  -13.2784    8.0819 N   0  0  0  0  0  0  0  0  0  0  0  0
  -11.2904  -12.5526    6.8982 C   0  0  0  0  0  0  0  0  0  0  0  0
  -11.5363  -11.1939    6.6921 C   0  0  0  0  0  0  0  0  0  0  0  0
  -11.9427  -10.3869    7.8128 C   0  0  0  0  0  0  0  0  0  0  0  0
  -12.2068   -9.2112    7.8881 O   0  0  0  0  0  0  0  0  0  0  0  0
  -11.3001  -10.8915    5.3386 N   0  0  0  0  0  0  0  0  0  0  0  0
  -10.9160  -12.0654    4.7685 C   0  0  0  0  0  0  0  0  0  0  0  0
  -10.9021  -13.1060    5.7079 N   0  0  0  0  0  0  0  0  0  0  0  0
  1  2  1  0  0  0  0
  1  6  1  0  0  0  0
  2  3  2  0  0  0  0
  3  4  1  0  0  0  0
  4  5  2  0  0  0  0
  4 10  1  0  0  0  0
  5  6  1  0  0  0  0
  5  8  1  0  0  0  0
  6  7  2  0  0  0  0
  8  9  1  0  0  0  0
  9 10  2  0  0  0  0
M  END
>  <CHROM.1>
-11.54019742,-11.59254524,7.15096777,-2.86716747,1.27665196,-0.77945260

>  <Name>
ligand

>  <RI>
0

>  <Rbt.Current_Directory>
/home/itssahil/PROJECTS/Mol_Feturizer/New_Systems/rnas/2EES

>  <Rbt.Executable>
rbdock ($Id: //depot/dev/client3/rdock/2013.1/src/exe/rbdock.cxx#4 $)

>  <Rbt.Library>
libRbt.so (2013.1, Build901 2013/11/27)

>  <Rbt.Parameter_File>
/export/apps/rDock/src/rDock_2013.1_src/data/scripts/dock_solv.prm

>  <Rbt.Receptor>
prm/pocket_docking_5.prm

>  <SCORE>
-16.9557

>  <SCORE.INTER>
-16.9557

>  <SCORE.INTER.CONST>
1

>  <SCORE.INTER.POLAR>
0

>  <SCORE.INTER.ROT>
0

>  <SCORE.INTER.SOLV>
3.4806

>  <SCORE.INTER.VDW>
-16.064

>  <SCORE.INTER.norm>
-1.69557

>  <SCORE.INTRA>
0

>  <SCORE.INTRA.DIHEDRAL>
0

>  <SCORE.INTRA.DIHEDRAL.0>
0

>  <SCORE.INTRA.POLAR>
0

>  <SCORE.INTRA.POLAR.0>
0

>  <SCORE.INTRA.REPUL>
0

>  <SCORE.INTRA.REPUL.0>
0

>  <SCORE.INTRA.SOLV>
0

>  <SCORE.INTRA.SOLV.lig_0>
-4.28614

>  <SCORE.INTRA.VDW>
0

>  <SCORE.INTRA.VDW.0>
0

>  <SCORE.INTRA.norm>
0

>  <SCORE.RESTR>
0

>  <SCORE.RESTR.CAVITY>
0

>  <SCORE.RESTR.norm>
0

>  <SCORE.SYSTEM>
0

>  <SCORE.SYSTEM.CONST>
0

>  <SCORE.SYSTEM.DIHEDRAL>
0

>  <SCORE.SYSTEM.SOLV>
0

>  <SCORE.SYSTEM.norm>
0

>  <SCORE.heavy>
10

>  <SCORE.norm>
-1.69557

>  <RMSD>
0.479

$$$$
ligand
 OpenBabel11021811423D
libRbt.so/2013.1/901 2013/11/27
 10 11  0  0  0  0  0  0  0  0999 V2000
  -12.0010  -11.6563    9.3513 N   0  0  0  0  0  0  0  0  0  0  0  0
  -11.7947  -13.0317    9.2272 C   0  0  0  0  0  0  0  0  0  0  0  0
  -11.4833  -13.6099    8.0534 N   0  0  0  0  0  0  0  0  0  0  0  0
  -11.3879  -12.7006    7.0037 C   0  0  0  0  0  0  0  0  0  0  0  0
  -11.5824  -11.3185    7.0347 C   0  0  0  0  0  0  0  0  0  0  0  0
  -11.9222  -10.6958    8.2874 C   0  0  0  0  0  0  0  0  0  0  0  0
  -12.1345   -9.5404    8.5659 O   0  0  0  0  0  0  0  0  0  0  0  0
  -11.3728  -10.8030    5.7426 N   0  0  0  0  0  0  0  0  0  0  0  0
  -11.0547  -11.8783    4.9725 C   0  0  0  0  0  0  0  0  0  0  0  0
  -11.0575  -13.0611    5.7252 N   0  0  0  0  0  0  0  0  0  0  0  0
  1  2  1  0  0  0  0
  1  6  1  0  0  0  0
  2  3  2  0  0  0  0
  3  4  1  0  0  0  0
  4  5  2  0  0  0  0
  4 10  1  0  0  0  0
  5  6  1  0  0  0  0
  5  8  1  0  0  0  0
  6  7  2  0  0  0  0
  8  9  1  0  0  0  0
  9 10  2  0  0  0  0
M  END
>  <CHROM.1>
-11.58981819,-11.78778350,7.42093436,-2.90698529,1.32641525,-0.57365568

>  <Name>
ligand

>  <RI>
0

>  <Rbt.Current_Directory>
/home/itssahil/PROJECTS/Mol_Feturizer/New_Systems/rnas/2EES

>  <Rbt.Executable>
rbdock ($Id: //depot/dev/client3/rdock/2013.1/src/exe/rbdock.cxx#4 $)

>  <Rbt.Library>
libRbt.so (2013.1, Build901 2013/11/27)

>  <Rbt.Parameter_File>
/export/apps/rDock/src/rDock_2013.1_src/data/scripts/dock_solv.prm

>  <Rbt.Receptor>
prm/blind_docking_60.prm

>  <SCORE>
-16.7412

>  <SCORE.INTER>
-16.7412

>  <SCORE.INTER.CONST>
1

>  <SCORE.INTER.POLAR>
0

>  <SCORE.INTER.ROT>
0

>  <SCORE.INTER.SOLV>
3.90639

>  <SCORE.INTER.VDW>
-16.0629

>  <SCORE.INTER.norm>
-1.67412

>  <SCORE.INTRA>
0

>  <SCORE.INTRA.DIHEDRAL>
0

>  <SCORE.INTRA.DIHEDRAL.0>
0

>  <SCORE.INTRA.POLAR>
0

>  <SCORE.INTRA.POLAR.0>
0

>  <SCORE.INTRA.REPUL>
0

>  <SCORE.INTRA.REPUL.0>
0

>  <SCORE.INTRA.SOLV>
0

>  <SCORE.INTRA.SOLV.lig_0>
-4.28614

>  <SCORE.INTRA.VDW>
0

>  <SCORE.INTRA.VDW.0>
0

>  <SCORE.INTRA.norm>
0

>  <SCORE.RESTR>
0

>  <SCORE.RESTR.CAVITY>
0

>  <SCORE.RESTR.norm>
0

>  <SCORE.SYSTEM>
0

>  <SCORE.SYSTEM.CONST>
0

>  <SCORE.SYSTEM.DIHEDRAL>
0

>  <SCORE.SYSTEM.SOLV>
0

>  <SCORE.SYSTEM.norm>
0

>  <SCORE.heavy>
10

>  <SCORE.norm>
-1.67412

>  <RMSD>
0.481

$$$$
ligand
 OpenBabel11021811423D
libRbt.so/2013.1/901 2013/11/27
 10 11  0  0  0  0  0  0  0  0999 V2000
  -12.0443  -11.2295    9.0010 N   0  0  0  0  0  0  0  0  0  0  0  0
  -11.7416  -12.5879    9.1127 C   0  0  0  0  0  0  0  0  0  0  0  0
  -11.3410  -13.3251    8.0614 N   0  0  0  0  0  0  0  0  0  0  0  0
  -11.2602  -12.5940    6.8795 C   0  0  0  0  0  0  0  0  0  0  0  0
  -11.5475  -11.2432    6.6752 C   0  0  0  0  0  0  0  0  0  0  0  0
  -11.9828  -10.4516    7.7961 C   0  0  0  0  0  0  0  0  0  0  0  0
  -12.2837   -9.2849    7.8727 O   0  0  0  0  0  0  0  0  0  0  0  0
  -11.3160  -10.9308    5.3232 N   0  0  0  0  0  0  0  0  0  0  0  0
  -10.8934  -12.0910    4.7522 C   0  0  0  0  0  0  0  0  0  0  0  0
  -10.8506  -13.1326    5.6895 N   0  0  0  0  0  0  0  0  0  0  0  0
  1  2  1  0  0  0  0
  1  6  1  0  0  0  0
  2  3  2  0  0  0  0
  3  4  1  0  0  0  0
  4  5  2  0  0  0  0
  4 10  1  0  0  0  0
  5  6  1  0  0  0  0
  5  8  1  0  0  0  0
  6  7  2  0  0  0  0
  8  9  1  0  0  0  0
  9 10  2  0  0  0  0
M  END
>  <CHROM.1>
-11.54063571,-11.64274526,7.13328772,-2.80469436,1.25162398,-0.83695820

>  <Name>
ligand

>  <RI>
0

>  <Rbt.Current_Directory>
/home/itssahil/PROJECTS/Mol_Feturizer/New_Systems/rnas/2EES

>  <Rbt.Executable>
rbdock ($Id: //depot/dev/client3/rdock/2013.1/src/exe/rbdock.cxx#4 $)

>  <Rbt.Library>
libRbt.so (2013.1, Build901 2013/11/27)

>  <Rbt.Parameter_File>
/export/apps/rDock/src/rDock_2013.1_src/data/scripts/dock_solv.prm

>  <Rbt.Receptor>
prm/pocket_docking_5.prm

>  <SCORE>
-16.9665

>  <SCORE.INTER>
-16.9665

>  <SCORE.INTER.CONST>
1

>  <SCORE.INTER.POLAR>
0

>  <SCORE.INTER.ROT>
0

>  <SCORE.INTER.SOLV>
3.39515

>  <SCORE.INTER.VDW>
-16.0427

>  <SCORE.INTER.norm>
-1.69665

>  <SCORE.INTRA>
0

>  <SCORE.INTRA.DIHEDRAL>
0

>  <SCORE.INTRA.DIHEDRAL.0>
0

>  <SCORE.INTRA.POLAR>
0

>  <SCORE.INTRA.POLAR.0>
0

>  <SCORE.INTRA.REPUL>
0

>  <SCORE.INTRA.REPUL.0>
0

>  <SCORE.INTRA.SOLV>
0

>  <SCORE.INTRA.SOLV.lig_0>
-4.28614

>  <SCORE.INTRA.VDW>
0

>  <SCORE.INTRA.VDW.0>
0

>  <SCORE.INTRA.norm>
0

>  <SCORE.RESTR>
0

>  <SCORE.RESTR.CAVITY>
0

>  <SCORE.RESTR.norm>
0

>  <SCORE.SYSTEM>
0

>  <SCORE.SYSTEM.CONST>
0

>  <SCORE.SYSTEM.DIHEDRAL>
0

>  <SCORE.SYSTEM.SOLV>
0

>  <SCORE.SYSTEM.norm>
0

>  <SCORE.heavy>
10

>  <SCORE.norm>
-1.69665

>  <RMSD>
0.483

$$$$
ligand
 OpenBabel11021811423D
libRbt.so/2013.1/901 2013/11/27
 10 11  0  0  0  0  0  0  0  0999 V2000
  -12.0238  -11.6361    9.2366 N   0  0  0  0  0  0  0  0  0  0  0  0
  -11.7491  -13.0018    9.1420 C   0  0  0  0  0  0  0  0  0  0  0  0
  -11.3907  -13.5856    7.9845 N   0  0  0  0  0  0  0  0  0  0  0  0
  -11.3220  -12.6921    6.9193 C   0  0  0  0  0  0  0  0  0  0  0  0
  -11.5839  -11.3208    6.9207 C   0  0  0  0  0  0  0  0  0  0  0  0
  -11.9741  -10.6926    8.1559 C   0  0  0  0  0  0  0  0  0  0  0  0
  -12.2468   -9.5440    8.4088 O   0  0  0  0  0  0  0  0  0  0  0  0
  -11.3781  -10.8195    5.6225 N   0  0  0  0  0  0  0  0  0  0  0  0
  -10.9956  -11.8921    4.8781 C   0  0  0  0  0  0  0  0  0  0  0  0
  -10.9535  -13.0595    5.6532 N   0  0  0  0  0  0  0  0  0  0  0  0
  1  2  1  0  0  0  0
  1  6  1  0  0  0  0
  2  3  2  0  0  0  0
  3  4  1  0  0  0  0
  4  5  2  0  0  0  0
  4 10  1  0  0  0  0
  5  6  1  0  0  0  0
  5  8  1  0  0  0  0
  6  7  2  0  0  0  0
  8  9  1  0  0  0  0
  9 10  2  0  0  0  0
M  END
>  <CHROM.1>
-11.57487949,-11.78279778,7.31573672,-2.79433472,1.28446923,-0.70116137

>  <Name>
ligand

>  <RI>
0

>  <Rbt.Current_Directory>
/home/itssahil/PROJECTS/Mol_Feturizer/New_Systems/rnas/2EES

>  <Rbt.Executable>
rbdock ($Id: //depot/dev/client3/rdock/2013.1/src/exe/rbdock.cxx#4 $)

>  <Rbt.Library>
libRbt.so (2013.1, Build901 2013/11/27)

>  <Rbt.Parameter_File>
/export/apps/rDock/src/rDock_2013.1_src/data/scripts/dock_solv.prm

>  <Rbt.Receptor>
prm/pocket_docking_6.prm

>  <SCORE>
-16.8031

>  <SCORE.INTER>
-16.8031

>  <SCORE.INTER.CONST>
1

>  <SCORE.INTER.POLAR>
0

>  <SCORE.INTER.ROT>
0

>  <SCORE.INTER.SOLV>
3.6721

>  <SCORE.INTER.VDW>
-16.0261

>  <SCORE.INTER.norm>
-1.68031

>  <SCORE.INTRA>
0

>  <SCORE.INTRA.DIHEDRAL>
0

>  <SCORE.INTRA.DIHEDRAL.0>
0

>  <SCORE.INTRA.POLAR>
0

>  <SCORE.INTRA.POLAR.0>
0

>  <SCORE.INTRA.REPUL>
0

>  <SCORE.INTRA.REPUL.0>
0

>  <SCORE.INTRA.SOLV>
0

>  <SCORE.INTRA.SOLV.lig_0>
-4.28614

>  <SCORE.INTRA.VDW>
0

>  <SCORE.INTRA.VDW.0>
0

>  <SCORE.INTRA.norm>
0

>  <SCORE.RESTR>
0

>  <SCORE.RESTR.CAVITY>
0

>  <SCORE.RESTR.norm>
0

>  <SCORE.SYSTEM>
0

>  <SCORE.SYSTEM.CONST>
0

>  <SCORE.SYSTEM.DIHEDRAL>
0

>  <SCORE.SYSTEM.SOLV>
0

>  <SCORE.SYSTEM.norm>
0

>  <SCORE.heavy>
10

>  <SCORE.norm>
-1.68031

>  <RMSD>
0.488

$$$$
ligand
 OpenBabel11021811423D
libRbt.so/2013.1/901 2013/11/27
 10 11  0  0  0  0  0  0  0  0999 V2000
  -12.0307  -11.1294    8.9914 N   0  0  0  0  0  0  0  0  0  0  0  0
  -11.7695  -12.4946    9.1235 C   0  0  0  0  0  0  0  0  0  0  0  0
  -11.3877  -13.2584    8.0843 N   0  0  0  0  0  0  0  0  0  0  0  0
  -11.2808  -12.5470    6.8926 C   0  0  0  0  0  0  0  0  0  0  0  0
  -11.5267  -11.1912    6.6680 C   0  0  0  0  0  0  0  0  0  0  0  0
  -11.9418  -10.3710    7.7759 C   0  0  0  0  0  0  0  0  0  0  0  0
  -12.2077   -9.1948    7.8348 O   0  0  0  0  0  0  0  0  0  0  0  0
  -11.2812  -10.9053    5.3126 N   0  0  0  0  0  0  0  0  0  0  0  0
  -10.8918  -12.0857    4.7598 C   0  0  0  0  0  0  0  0  0  0  0  0
  -10.8836  -13.1146    5.7119 N   0  0  0  0  0  0  0  0  0  0  0  0
  1  2  1  0  0  0  0
  1  6  1  0  0  0  0
  2  3  2  0  0  0  0
  3  4  1  0  0  0  0
  4  5  2  0  0  0  0
  4 10  1  0  0  0  0
  5  6  1  0  0  0  0
  5  8  1  0  0  0  0
  6  7  2  0  0  0  0
  8  9  1  0  0  0  0
  9 10  2  0  0  0  0
M  END
>  <CHROM.1>
-11.53339948,-11.58423804,7.13174353,-2.88159057,1.27085692,-0.77794465

>  <Name>
ligand

>  <RI>
0

>  <Rbt.Current_Directory>
/home/itssahil/PROJECTS/Mol_Feturizer/New_Systems/rnas/2EES

>  <Rbt.Executable>
rbdock ($Id: //depot/dev/client3/rdock/2013.1/src/exe/rbdock.cxx#4 $)

>  <Rbt.Library>
libRbt.so (2013.1, Build901 2013/11/27)

>  <Rbt.Parameter_File>
/export/apps/rDock/src/rDock_2013.1_src/data/scripts/dock_solv.prm

>  <Rbt.Receptor>
prm/pocket_docking_7.prm

>  <SCORE>
-16.9707

>  <SCORE.INTER>
-16.9707

>  <SCORE.INTER.CONST>
1

>  <SCORE.INTER.POLAR>
0

>  <SCORE.INTER.ROT>
0

>  <SCORE.INTER.SOLV>
3.44934

>  <SCORE.INTER.VDW>
-16.0636

>  <SCORE.INTER.norm>
-1.69707

>  <SCORE.INTRA>
0

>  <SCORE.INTRA.DIHEDRAL>
0

>  <SCORE.INTRA.DIHEDRAL.0>
0

>  <SCORE.INTRA.POLAR>
0

>  <SCORE.INTRA.POLAR.0>
0

>  <SCORE.INTRA.REPUL>
0

>  <SCORE.INTRA.REPUL.0>
0

>  <SCORE.INTRA.SOLV>
0

>  <SCORE.INTRA.SOLV.lig_0>
-4.28614

>  <SCORE.INTRA.VDW>
0

>  <SCORE.INTRA.VDW.0>
0

>  <SCORE.INTRA.norm>
0

>  <SCORE.RESTR>
0

>  <SCORE.RESTR.CAVITY>
0

>  <SCORE.RESTR.norm>
0

>  <SCORE.SYSTEM>
0

>  <SCORE.SYSTEM.CONST>
0

>  <SCORE.SYSTEM.DIHEDRAL>
0

>  <SCORE.SYSTEM.SOLV>
0

>  <SCORE.SYSTEM.norm>
0

>  <SCORE.heavy>
10

>  <SCORE.norm>
-1.69707

>  <RMSD>
0.494

$$$$
ligand
 OpenBabel11021811423D
libRbt.so/2013.1/901 2013/11/27
 10 11  0  0  0  0  0  0  0  0999 V2000
  -12.0071  -11.6093    9.2004 N   0  0  0  0  0  0  0  0  0  0  0  0
  -11.8059  -12.9901    9.1508 C   0  0  0  0  0  0  0  0  0  0  0  0
  -11.4834  -13.6302    8.0127 N   0  0  0  0  0  0  0  0  0  0  0  0
  -11.3712  -12.7775    6.9182 C   0  0  0  0  0  0  0  0  0  0  0  0
  -11.5595  -11.3949    6.8745 C   0  0  0  0  0  0  0  0  0  0  0  0
  -11.9111  -10.7061    8.0888 C   0  0  0  0  0  0  0  0  0  0  0  0
  -12.1213   -9.5368    8.3039 O   0  0  0  0  0  0  0  0  0  0  0  0
  -11.3321  -10.9486    5.5599 N   0  0  0  0  0  0  0  0  0  0  0  0
  -11.0101  -12.0640    4.8509 C   0  0  0  0  0  0  0  0  0  0  0  0
  -11.0274  -13.2058    5.6643 N   0  0  0  0  0  0  0  0  0  0  0  0
  1  2  1  0  0  0  0
  1  6  1  0  0  0  0
  2  3  2  0  0  0  0
  3  4  1  0  0  0  0
  4  5  2  0  0  0  0
  4 10  1  0  0  0  0
  5  6  1  0  0  0  0
  5  8  1  0  0  0  0
  6  7  2  0  0  0  0
  8  9  1  0  0  0  0
  9 10  2  0  0  0  0
M  END
>  <CHROM.1>
-11.57371737,-11.84330048,7.28464002,-2.94878740,1.31883921,-0.58546748

>  <Name>
ligand

>  <RI>
0

>  <Rbt.Current_Directory>
/home/itssahil/PROJECTS/Mol_Feturizer/New_Systems/rnas/2EES

>  <Rbt.Executable>
rbdock ($Id: //depot/dev/client3/rdock/2013.1/src/exe/rbdock.cxx#4 $)

>  <Rbt.Library>
libRbt.so (2013.1, Build901 2013/11/27)

>  <Rbt.Parameter_File>
/export/apps/rDock/src/rDock_2013.1_src/data/scripts/dock_solv.prm

>  <Rbt.Receptor>
prm/blind_docking_80.prm

>  <SCORE>
-16.7209

>  <SCORE.INTER>
-16.7209

>  <SCORE.INTER.CONST>
1

>  <SCORE.INTER.POLAR>
0

>  <SCORE.INTER.ROT>
0

>  <SCORE.INTER.SOLV>
3.76426

>  <SCORE.INTER.VDW>
-16.002

>  <SCORE.INTER.norm>
-1.67209

>  <SCORE.INTRA>
0

>  <SCORE.INTRA.DIHEDRAL>
0

>  <SCORE.INTRA.DIHEDRAL.0>
0

>  <SCORE.INTRA.POLAR>
0

>  <SCORE.INTRA.POLAR.0>
0

>  <SCORE.INTRA.REPUL>
0

>  <SCORE.INTRA.REPUL.0>
0

>  <SCORE.INTRA.SOLV>
0

>  <SCORE.INTRA.SOLV.lig_0>
-4.28614

>  <SCORE.INTRA.VDW>
0

>  <SCORE.INTRA.VDW.0>
0

>  <SCORE.INTRA.norm>
0

>  <SCORE.RESTR>
0

>  <SCORE.RESTR.CAVITY>
0

>  <SCORE.RESTR.norm>
0

>  <SCORE.SYSTEM>
0

>  <SCORE.SYSTEM.CONST>
0

>  <SCORE.SYSTEM.DIHEDRAL>
0

>  <SCORE.SYSTEM.SOLV>
0

>  <SCORE.SYSTEM.norm>
0

>  <SCORE.heavy>
10

>  <SCORE.norm>
-1.67209

>  <RMSD>
0.495

$$$$
ligand
 OpenBabel11021811423D
libRbt.so/2013.1/901 2013/11/27
 10 11  0  0  0  0  0  0  0  0999 V2000
  -12.0402  -11.5631    9.1333 N   0  0  0  0  0  0  0  0  0  0  0  0
  -11.7719  -12.9327    9.0930 C   0  0  0  0  0  0  0  0  0  0  0  0
  -11.4075  -13.5619    7.9614 N   0  0  0  0  0  0  0  0  0  0  0  0
  -11.3260  -12.7099    6.8635 C   0  0  0  0  0  0  0  0  0  0  0  0
  -11.5807  -11.3383    6.8107 C   0  0  0  0  0  0  0  0  0  0  0  0
  -11.9772  -10.6616    8.0179 C   0  0  0  0  0  0  0  0  0  0  0  0
  -12.2459   -9.5029    8.2249 O   0  0  0  0  0  0  0  0  0  0  0  0
  -11.3623  -10.8878    5.4960 N   0  0  0  0  0  0  0  0  0  0  0  0
  -10.9796  -11.9897    4.7961 C   0  0  0  0  0  0  0  0  0  0  0  0
  -10.9496  -13.1270    5.6152 N   0  0  0  0  0  0  0  0  0  0  0  0
  1  2  1  0  0  0  0
  1  6  1  0  0  0  0
  2  3  2  0  0  0  0
  3  4  1  0  0  0  0
  4  5  2  0  0  0  0
  4 10  1  0  0  0  0
  5  6  1  0  0  0  0
  5  8  1  0  0  0  0
  6  7  2  0  0  0  0
  8  9  1  0  0  0  0
  9 10  2  0  0  0  0
M  END
>  <CHROM.1>
-11.57717524,-11.78494481,7.22307365,-2.82586272,1.28176682,-0.70897579

>  <Name>
ligand

>  <RI>
0

>  <Rbt.Current_Directory>
/home/itssahil/PROJECTS/Mol_Feturizer/New_Systems/rnas/2EES

>  <Rbt.Executable>
rbdock ($Id: //depot/dev/client3/rdock/2013.1/src/exe/rbdock.cxx#4 $)

>  <Rbt.Library>
libRbt.so (2013.1, Build901 2013/11/27)

>  <Rbt.Parameter_File>
/export/apps/rDock/src/rDock_2013.1_src/data/scripts/dock_solv.prm

>  <Rbt.Receptor>
prm/pocket_docking_5.prm

>  <SCORE>
-16.7798

>  <SCORE.INTER>
-16.7798

>  <SCORE.INTER.CONST>
1

>  <SCORE.INTER.POLAR>
0

>  <SCORE.INTER.ROT>
0

>  <SCORE.INTER.SOLV>
3.58494

>  <SCORE.INTER.VDW>
-15.9815

>  <SCORE.INTER.norm>
-1.67798

>  <SCORE.INTRA>
0

>  <SCORE.INTRA.DIHEDRAL>
0

>  <SCORE.INTRA.DIHEDRAL.0>
0

>  <SCORE.INTRA.POLAR>
0

>  <SCORE.INTRA.POLAR.0>
0

>  <SCORE.INTRA.REPUL>
0

>  <SCORE.INTRA.REPUL.0>
0

>  <SCORE.INTRA.SOLV>
0

>  <SCORE.INTRA.SOLV.lig_0>
-4.28614

>  <SCORE.INTRA.VDW>
0

>  <SCORE.INTRA.VDW.0>
0

>  <SCORE.INTRA.norm>
0

>  <SCORE.RESTR>
0

>  <SCORE.RESTR.CAVITY>
0

>  <SCORE.RESTR.norm>
0

>  <SCORE.SYSTEM>
0

>  <SCORE.SYSTEM.CONST>
0

>  <SCORE.SYSTEM.DIHEDRAL>
0

>  <SCORE.SYSTEM.SOLV>
0

>  <SCORE.SYSTEM.norm>
0

>  <SCORE.heavy>
10

>  <SCORE.norm>
-1.67798

>  <RMSD>
0.500

$$$$
ligand
 OpenBabel11021811423D
libRbt.so/2013.1/901 2013/11/27
 10 11  0  0  0  0  0  0  0  0999 V2000
  -12.0219  -11.1520    8.9766 N   0  0  0  0  0  0  0  0  0  0  0  0
  -11.7739  -12.5174    9.1301 C   0  0  0  0  0  0  0  0  0  0  0  0
  -11.4129  -13.3037    8.1003 N   0  0  0  0  0  0  0  0  0  0  0  0
  -11.3127  -12.6149    6.8948 C   0  0  0  0  0  0  0  0  0  0  0  0
  -11.5466  -11.2607    6.6489 C   0  0  0  0  0  0  0  0  0  0  0  0
  -11.9394  -10.4163    7.7467 C   0  0  0  0  0  0  0  0  0  0  0  0
  -12.1918   -9.2364    7.7877 O   0  0  0  0  0  0  0  0  0  0  0  0
  -11.3144  -11.0016    5.2858 N   0  0  0  0  0  0  0  0  0  0  0  0
  -10.9445  -12.1958    4.7496 C   0  0  0  0  0  0  0  0  0  0  0  0
  -10.9359  -13.2077    5.7199 N   0  0  0  0  0  0  0  0  0  0  0  0
  1  2  1  0  0  0  0
  1  6  1  0  0  0  0
  2  3  2  0  0  0  0
  3  4  1  0  0  0  0
  4  5  2  0  0  0  0
  4 10  1  0  0  0  0
  5  6  1  0  0  0  0
  5  8  1  0  0  0  0
  6  7  2  0  0  0  0
  8  9  1  0  0  0  0
  9 10  2  0  0  0  0
M  END
>  <CHROM.1>
-11.55196040,-11.64528504,7.11964574,-2.87893429,1.28702812,-0.79833102

>  <Name>
ligand

>  <RI>
0

>  <Rbt.Current_Directory>
/home/itssahil/PROJECTS/Mol_Feturizer/New_Systems/rnas/2EES

>  <Rbt.Executable>
rbdock ($Id: //depot/dev/client3/rdock/2013.1/src/exe/rbdock.cxx#4 $)

>  <Rbt.Library>
libRbt.so (2013.1, Build901 2013/11/27)

>  <Rbt.Parameter_File>
/export/apps/rDock/src/rDock_2013.1_src/data/scripts/dock_solv.prm

>  <Rbt.Receptor>
prm/pocket_docking_5.prm

>  <SCORE>
-16.9609

>  <SCORE.INTER>
-16.9609

>  <SCORE.INTER.CONST>
1

>  <SCORE.INTER.POLAR>
0

>  <SCORE.INTER.ROT>
0

>  <SCORE.INTER.SOLV>
3.4616

>  <SCORE.INTER.VDW>
-16.0612

>  <SCORE.INTER.norm>
-1.69609

>  <SCORE.INTRA>
0

>  <SCORE.INTRA.DIHEDRAL>
0

>  <SCORE.INTRA.DIHEDRAL.0>
0

>  <SCORE.INTRA.POLAR>
0

>  <SCORE.INTRA.POLAR.0>
0

>  <SCORE.INTRA.REPUL>
0

>  <SCORE.INTRA.REPUL.0>
0

>  <SCORE.INTRA.SOLV>
0

>  <SCORE.INTRA.SOLV.lig_0>
-4.28614

>  <SCORE.INTRA.VDW>
0

>  <SCORE.INTRA.VDW.0>
0

>  <SCORE.INTRA.norm>
0

>  <SCORE.RESTR>
0

>  <SCORE.RESTR.CAVITY>
0

>  <SCORE.RESTR.norm>
0

>  <SCORE.SYSTEM>
0

>  <SCORE.SYSTEM.CONST>
0

>  <SCORE.SYSTEM.DIHEDRAL>
0

>  <SCORE.SYSTEM.SOLV>
0

>  <SCORE.SYSTEM.norm>
0

>  <SCORE.heavy>
10

>  <SCORE.norm>
-1.69609

>  <RMSD>
0.501

$$$$
ligand
 OpenBabel11021811423D
libRbt.so/2013.1/901 2013/11/27
 10 11  0  0  0  0  0  0  0  0999 V2000
  -12.0618  -11.2185    8.9729 N   0  0  0  0  0  0  0  0  0  0  0  0
  -11.7944  -12.5846    9.0817 C   0  0  0  0  0  0  0  0  0  0  0  0
  -11.3952  -13.3258    8.0327 N   0  0  0  0  0  0  0  0  0  0  0  0
  -11.2776  -12.5908    6.8564 C   0  0  0  0  0  0  0  0  0  0  0  0
  -11.5285  -11.2323    6.6552 C   0  0  0  0  0  0  0  0  0  0  0  0
  -11.9621  -10.4360    7.7735 C   0  0  0  0  0  0  0  0  0  0  0  0
  -12.2355   -9.2627    7.8519 O   0  0  0  0  0  0  0  0  0  0  0  0
  -11.2678  -10.9185    5.3089 N   0  0  0  0  0  0  0  0  0  0  0  0
  -10.8647  -12.0858    4.7381 C   0  0  0  0  0  0  0  0  0  0  0  0
  -10.8624  -13.1330    5.6701 N   0  0  0  0  0  0  0  0  0  0  0  0
  1  2  1  0  0  0  0
  1  6  1  0  0  0  0
  2  3  2  0  0  0  0
  3  4  1  0  0  0  0
  4  5  2  0  0  0  0
  4 10  1  0  0  0  0
  5  6  1  0  0  0  0
  5  8  1  0  0  0  0
  6  7  2  0  0  0  0
  8  9  1  0  0  0  0
  9 10  2  0  0  0  0
M  END
>  <CHROM.1>
-11.53869758,-11.63424207,7.11110713,-2.89667550,1.25789532,-0.74409078

>  <Name>
ligand

>  <RI>
0

>  <Rbt.Current_Directory>
/home/itssahil/PROJECTS/Mol_Feturizer/New_Systems/rnas/2EES

>  <Rbt.Executable>
rbdock ($Id: //depot/dev/client3/rdock/2013.1/src/exe/rbdock.cxx#4 $)

>  <Rbt.Library>
libRbt.so (2013.1, Build901 2013/11/27)

>  <Rbt.Parameter_File>
/export/apps/rDock/src/rDock_2013.1_src/data/scripts/dock_solv.prm

>  <Rbt.Receptor>
prm/pocket_docking_7.prm

>  <SCORE>
-16.9482

>  <SCORE.INTER>
-16.9482

>  <SCORE.INTER.CONST>
1

>  <SCORE.INTER.POLAR>
0

>  <SCORE.INTER.ROT>
0

>  <SCORE.INTER.SOLV>
3.42119

>  <SCORE.INTER.VDW>
-16.0392

>  <SCORE.INTER.norm>
-1.69482

>  <SCORE.INTRA>
0

>  <SCORE.INTRA.DIHEDRAL>
0

>  <SCORE.INTRA.DIHEDRAL.0>
0

>  <SCORE.INTRA.POLAR>
0

>  <SCORE.INTRA.POLAR.0>
0

>  <SCORE.INTRA.REPUL>
0

>  <SCORE.INTRA.REPUL.0>
0

>  <SCORE.INTRA.SOLV>
0

>  <SCORE.INTRA.SOLV.lig_0>
-4.28614

>  <SCORE.INTRA.VDW>
0

>  <SCORE.INTRA.VDW.0>
0

>  <SCORE.INTRA.norm>
0

>  <SCORE.RESTR>
0

>  <SCORE.RESTR.CAVITY>
0

>  <SCORE.RESTR.norm>
0

>  <SCORE.SYSTEM>
0

>  <SCORE.SYSTEM.CONST>
0

>  <SCORE.SYSTEM.DIHEDRAL>
0

>  <SCORE.SYSTEM.SOLV>
0

>  <SCORE.SYSTEM.norm>
0

>  <SCORE.heavy>
10

>  <SCORE.norm>
-1.69482

>  <RMSD>
0.505

$$$$
ligand
 OpenBabel11021811423D
libRbt.so/2013.1/901 2013/11/27
 10 11  0  0  0  0  0  0  0  0999 V2000
  -12.0680  -11.2206    8.9703 N   0  0  0  0  0  0  0  0  0  0  0  0
  -11.8013  -12.5873    9.0729 C   0  0  0  0  0  0  0  0  0  0  0  0
  -11.4070  -13.3249    8.0196 N   0  0  0  0  0  0  0  0  0  0  0  0
  -11.2934  -12.5856    6.8456 C   0  0  0  0  0  0  0  0  0  0  0  0
  -11.5438  -11.2261    6.6505 C   0  0  0  0  0  0  0  0  0  0  0  0
  -11.9723  -10.4337    7.7735 C   0  0  0  0  0  0  0  0  0  0  0  0
  -12.2444   -9.2604    7.8574 O   0  0  0  0  0  0  0  0  0  0  0  0
  -11.2881  -10.9075    5.3043 N   0  0  0  0  0  0  0  0  0  0  0  0
  -10.8884  -12.0729    4.7276 C   0  0  0  0  0  0  0  0  0  0  0  0
  -10.8833  -13.1237    5.6556 N   0  0  0  0  0  0  0  0  0  0  0  0
  1  2  1  0  0  0  0
  1  6  1  0  0  0  0
  2  3  2  0  0  0  0
  3  4  1  0  0  0  0
  4  5  2  0  0  0  0
  4 10  1  0  0  0  0
  5  6  1  0  0  0  0
  5  8  1  0  0  0  0
  6  7  2  0  0  0  0
  8  9  1  0  0  0  0
  9 10  2  0  0  0  0
M  END
>  <CHROM.1>
-11.55259915,-11.62978132,7.10491320,-2.89002022,1.26138667,-0.74665591

>  <Name>
ligand

>  <RI>
0

>  <Rbt.Current_Directory>
/home/itssahil/PROJECTS/Mol_Feturizer/New_Systems/rnas/2EES

>  <Rbt.Executable>
rbdock ($Id: //depot/dev/client3/rdock/2013.1/src/exe/rbdock.cxx#4 $)

>  <Rbt.Library>
libRbt.so (2013.1, Build901 2013/11/27)

>  <Rbt.Parameter_File>
/export/apps/rDock/src/rDock_2013.1_src/data/scripts/dock_solv.prm

>  <Rbt.Receptor>
prm/pocket_docking_7.prm

>  <SCORE>
-16.9639

>  <SCORE.INTER>
-16.9639

>  <SCORE.INTER.CONST>
1

>  <SCORE.INTER.POLAR>
0

>  <SCORE.INTER.ROT>
0

>  <SCORE.INTER.SOLV>
3.42796

>  <SCORE.INTER.VDW>
-16.0519

>  <SCORE.INTER.norm>
-1.69639

>  <SCORE.INTRA>
0

>  <SCORE.INTRA.DIHEDRAL>
0

>  <SCORE.INTRA.DIHEDRAL.0>
0

>  <SCORE.INTRA.POLAR>
0

>  <SCORE.INTRA.POLAR.0>
0

>  <SCORE.INTRA.REPUL>
0

>  <SCORE.INTRA.REPUL.0>
0

>  <SCORE.INTRA.SOLV>
0

>  <SCORE.INTRA.SOLV.lig_0>
-4.28614

>  <SCORE.INTRA.VDW>
0

>  <SCORE.INTRA.VDW.0>
0

>  <SCORE.INTRA.norm>
0

>  <SCORE.RESTR>
0

>  <SCORE.RESTR.CAVITY>
0

>  <SCORE.RESTR.norm>
0

>  <SCORE.SYSTEM>
0

>  <SCORE.SYSTEM.CONST>
0

>  <SCORE.SYSTEM.DIHEDRAL>
0

>  <SCORE.SYSTEM.SOLV>
0

>  <SCORE.SYSTEM.norm>
0

>  <SCORE.heavy>
10

>  <SCORE.norm>
-1.69639

>  <RMSD>
0.512

$$$$
ligand
 OpenBabel11021811423D
libRbt.so/2013.1/901 2013/11/27
 10 11  0  0  0  0  0  0  0  0999 V2000
  -12.0402  -11.5305    9.0875 N   0  0  0  0  0  0  0  0  0  0  0  0
  -11.8163  -12.9086    9.1058 C   0  0  0  0  0  0  0  0  0  0  0  0
  -11.4751  -13.5973    8.0021 N   0  0  0  0  0  0  0  0  0  0  0  0
  -11.3687  -12.7964    6.8685 C   0  0  0  0  0  0  0  0  0  0  0  0
  -11.5791  -11.4208    6.7569 C   0  0  0  0  0  0  0  0  0  0  0  0
  -11.9507  -10.6803    7.9343 C   0  0  0  0  0  0  0  0  0  0  0  0
  -12.1813   -9.5057    8.0914 O   0  0  0  0  0  0  0  0  0  0  0  0
  -11.3494  -11.0345    5.4238 N   0  0  0  0  0  0  0  0  0  0  0  0
  -11.0042  -12.1774    4.7716 C   0  0  0  0  0  0  0  0  0  0  0  0
  -11.0089  -13.2788    5.6389 N   0  0  0  0  0  0  0  0  0  0  0  0
  1  2  1  0  0  0  0
  1  6  1  0  0  0  0
  2  3  2  0  0  0  0
  3  4  1  0  0  0  0
  4  5  2  0  0  0  0
  4 10  1  0  0  0  0
  5  6  1  0  0  0  0
  5  8  1  0  0  0  0
  6  7  2  0  0  0  0
  8  9  1  0  0  0  0
  9 10  2  0  0  0  0
M  END
>  <CHROM.1>
-11.58903969,-11.84917353,7.18810039,-2.91294992,1.30362414,-0.66827546

>  <Name>
ligand

>  <RI>
0

>  <Rbt.Current_Directory>
/home/itssahil/PROJECTS/Mol_Feturizer/New_Systems/rnas/2EES

>  <Rbt.Executable>
rbdock ($Id: //depot/dev/client3/rdock/2013.1/src/exe/rbdock.cxx#4 $)

>  <Rbt.Library>
libRbt.so (2013.1, Build901 2013/11/27)

>  <Rbt.Parameter_File>
/export/apps/rDock/src/rDock_2013.1_src/data/scripts/dock_solv.prm

>  <Rbt.Receptor>
prm/pocket_docking_3.prm

>  <SCORE>
-16.9199

>  <SCORE.INTER>
-16.9199

>  <SCORE.INTER.CONST>
1

>  <SCORE.INTER.POLAR>
0

>  <SCORE.INTER.ROT>
0

>  <SCORE.INTER.SOLV>
3.61064

>  <SCORE.INTER.VDW>
-16.0835

>  <SCORE.INTER.norm>
-1.69199

>  <SCORE.INTRA>
0

>  <SCORE.INTRA.DIHEDRAL>
0

>  <SCORE.INTRA.DIHEDRAL.0>
0

>  <SCORE.INTRA.POLAR>
0

>  <SCORE.INTRA.POLAR.0>
0

>  <SCORE.INTRA.REPUL>
0

>  <SCORE.INTRA.REPUL.0>
0

>  <SCORE.INTRA.SOLV>
0

>  <SCORE.INTRA.SOLV.lig_0>
-4.28614

>  <SCORE.INTRA.VDW>
0

>  <SCORE.INTRA.VDW.0>
0

>  <SCORE.INTRA.norm>
0

>  <SCORE.RESTR>
0

>  <SCORE.RESTR.CAVITY>
0

>  <SCORE.RESTR.norm>
0

>  <SCORE.SYSTEM>
0

>  <SCORE.SYSTEM.CONST>
0

>  <SCORE.SYSTEM.DIHEDRAL>
0

>  <SCORE.SYSTEM.SOLV>
0

>  <SCORE.SYSTEM.norm>
0

>  <SCORE.heavy>
10

>  <SCORE.norm>
-1.69199

>  <RMSD>
0.515

$$$$
ligand
 OpenBabel11021811423D
libRbt.so/2013.1/901 2013/11/27
 10 11  0  0  0  0  0  0  0  0999 V2000
  -12.0033  -11.1589    8.9651 N   0  0  0  0  0  0  0  0  0  0  0  0
  -11.7597  -12.5263    9.1084 C   0  0  0  0  0  0  0  0  0  0  0  0
  -11.4081  -13.3075    8.0715 N   0  0  0  0  0  0  0  0  0  0  0  0
  -11.3127  -12.6115    6.8698 C   0  0  0  0  0  0  0  0  0  0  0  0
  -11.5428  -11.2548    6.6339 C   0  0  0  0  0  0  0  0  0  0  0  0
  -11.9255  -10.4159    7.7394 C   0  0  0  0  0  0  0  0  0  0  0  0
  -12.1731   -9.2353    7.7893 O   0  0  0  0  0  0  0  0  0  0  0  0
  -11.3179  -10.9881    5.2710 N   0  0  0  0  0  0  0  0  0  0  0  0
  -10.9560  -12.1803    4.7250 C   0  0  0  0  0  0  0  0  0  0  0  0
  -10.9454  -13.1983    5.6889 N   0  0  0  0  0  0  0  0  0  0  0  0
  1  2  1  0  0  0  0
  1  6  1  0  0  0  0
  2  3  2  0  0  0  0
  3  4  1  0  0  0  0
  4  5  2  0  0  0  0
  4 10  1  0  0  0  0
  5  6  1  0  0  0  0
  5  8  1  0  0  0  0
  6  7  2  0  0  0  0
  8  9  1  0  0  0  0
  9 10  2  0  0  0  0
M  END
>  <CHROM.1>
-11.54674570,-11.64235942,7.10218882,-2.87282561,1.29412866,-0.79791919

>  <Name>
ligand

>  <RI>
0

>  <Rbt.Current_Directory>
/home/itssahil/PROJECTS/Mol_Feturizer/New_Systems/rnas/2EES

>  <Rbt.Executable>
rbdock ($Id: //depot/dev/client3/rdock/2013.1/src/exe/rbdock.cxx#4 $)

>  <Rbt.Library>
libRbt.so (2013.1, Build901 2013/11/27)

>  <Rbt.Parameter_File>
/export/apps/rDock/src/rDock_2013.1_src/data/scripts/dock_solv.prm

>  <Rbt.Receptor>
prm/pocket_docking_5.prm

>  <SCORE>
-16.9385

>  <SCORE.INTER>
-16.9385

>  <SCORE.INTER.CONST>
1

>  <SCORE.INTER.POLAR>
0

>  <SCORE.INTER.ROT>
0

>  <SCORE.INTER.SOLV>
3.4924

>  <SCORE.INTER.VDW>
-16.0564

>  <SCORE.INTER.norm>
-1.69385

>  <SCORE.INTRA>
0

>  <SCORE.INTRA.DIHEDRAL>
0

>  <SCORE.INTRA.DIHEDRAL.0>
0

>  <SCORE.INTRA.POLAR>
0

>  <SCORE.INTRA.POLAR.0>
0

>  <SCORE.INTRA.REPUL>
0

>  <SCORE.INTRA.REPUL.0>
0

>  <SCORE.INTRA.SOLV>
0

>  <SCORE.INTRA.SOLV.lig_0>
-4.28614

>  <SCORE.INTRA.VDW>
0

>  <SCORE.INTRA.VDW.0>
0

>  <SCORE.INTRA.norm>
0

>  <SCORE.RESTR>
0

>  <SCORE.RESTR.CAVITY>
0

>  <SCORE.RESTR.norm>
0

>  <SCORE.SYSTEM>
0

>  <SCORE.SYSTEM.CONST>
0

>  <SCORE.SYSTEM.DIHEDRAL>
0

>  <SCORE.SYSTEM.SOLV>
0

>  <SCORE.SYSTEM.norm>
0

>  <SCORE.heavy>
10

>  <SCORE.norm>
-1.69385

>  <RMSD>
0.522

$$$$
ligand
 OpenBabel11021811423D
libRbt.so/2013.1/901 2013/11/27
 10 11  0  0  0  0  0  0  0  0999 V2000
  -12.0395  -11.1188    8.9306 N   0  0  0  0  0  0  0  0  0  0  0  0
  -11.8234  -12.4905    9.0767 C   0  0  0  0  0  0  0  0  0  0  0  0
  -11.4685  -13.2772    8.0451 N   0  0  0  0  0  0  0  0  0  0  0  0
  -11.3398  -12.5822    6.8458 C   0  0  0  0  0  0  0  0  0  0  0  0
  -11.5409  -11.2214    6.6074 C   0  0  0  0  0  0  0  0  0  0  0  0
  -11.9272  -10.3764    7.7071 C   0  0  0  0  0  0  0  0  0  0  0  0
  -12.1539   -9.1915    7.7540 O   0  0  0  0  0  0  0  0  0  0  0  0
  -11.2880  -10.9578    5.2489 N   0  0  0  0  0  0  0  0  0  0  0  0
  -10.9386  -12.1562    4.7080 C   0  0  0  0  0  0  0  0  0  0  0  0
  -10.9631  -13.1749    5.6708 N   0  0  0  0  0  0  0  0  0  0  0  0
  1  2  1  0  0  0  0
  1  6  1  0  0  0  0
  2  3  2  0  0  0  0
  3  4  1  0  0  0  0
  4  5  2  0  0  0  0
  4 10  1  0  0  0  0
  5  6  1  0  0  0  0
  5  8  1  0  0  0  0
  6  7  2  0  0  0  0
  8  9  1  0  0  0  0
  9 10  2  0  0  0  0
M  END
>  <CHROM.1>
-11.56001795,-11.60916167,7.07523992,-2.96447288,1.29415052,-0.70888469

>  <Name>
ligand

>  <RI>
0

>  <Rbt.Current_Directory>
/home/itssahil/PROJECTS/Mol_Feturizer/New_Systems/rnas/2EES

>  <Rbt.Executable>
rbdock ($Id: //depot/dev/client3/rdock/2013.1/src/exe/rbdock.cxx#4 $)

>  <Rbt.Library>
libRbt.so (2013.1, Build901 2013/11/27)

>  <Rbt.Parameter_File>
/export/apps/rDock/src/rDock_2013.1_src/data/scripts/dock_solv.prm

>  <Rbt.Receptor>
prm/pocket_docking_5.prm

>  <SCORE>
-16.954

>  <SCORE.INTER>
-16.954

>  <SCORE.INTER.CONST>
1

>  <SCORE.INTER.POLAR>
0

>  <SCORE.INTER.ROT>
0

>  <SCORE.INTER.SOLV>
3.48906

>  <SCORE.INTER.VDW>
-16.0657

>  <SCORE.INTER.norm>
-1.6954

>  <SCORE.INTRA>
0

>  <SCORE.INTRA.DIHEDRAL>
0

>  <SCORE.INTRA.DIHEDRAL.0>
0

>  <SCORE.INTRA.POLAR>
0

>  <SCORE.INTRA.POLAR.0>
0

>  <SCORE.INTRA.REPUL>
0

>  <SCORE.INTRA.REPUL.0>
0

>  <SCORE.INTRA.SOLV>
0

>  <SCORE.INTRA.SOLV.lig_0>
-4.28614

>  <SCORE.INTRA.VDW>
0

>  <SCORE.INTRA.VDW.0>
0

>  <SCORE.INTRA.norm>
0

>  <SCORE.RESTR>
0

>  <SCORE.RESTR.CAVITY>
0

>  <SCORE.RESTR.norm>
0

>  <SCORE.SYSTEM>
0

>  <SCORE.SYSTEM.CONST>
0

>  <SCORE.SYSTEM.DIHEDRAL>
0

>  <SCORE.SYSTEM.SOLV>
0

>  <SCORE.SYSTEM.norm>
0

>  <SCORE.heavy>
10

>  <SCORE.norm>
-1.6954

>  <RMSD>
0.548

$$$$
ligand
 OpenBabel11021811423D
libRbt.so/2013.1/901 2013/11/27
 10 11  0  0  0  0  0  0  0  0999 V2000
  -12.0430  -11.6085    9.0934 N   0  0  0  0  0  0  0  0  0  0  0  0
  -11.8418  -12.9901    9.0750 C   0  0  0  0  0  0  0  0  0  0  0  0
  -11.5145  -13.6550    7.9526 N   0  0  0  0  0  0  0  0  0  0  0  0
  -11.3975  -12.8264    6.8401 C   0  0  0  0  0  0  0  0  0  0  0  0
  -11.5856  -11.4451    6.7653 C   0  0  0  0  0  0  0  0  0  0  0  0
  -11.9423  -10.7299    7.9627 C   0  0  0  0  0  0  0  0  0  0  0  0
  -12.1532   -9.5562    8.1513 O   0  0  0  0  0  0  0  0  0  0  0  0
  -11.3525  -11.0277    5.4422 N   0  0  0  0  0  0  0  0  0  0  0  0
  -11.0276  -12.1584    4.7593 C   0  0  0  0  0  0  0  0  0  0  0  0
  -11.0485  -13.2821    5.5974 N   0  0  0  0  0  0  0  0  0  0  0  0
  1  2  1  0  0  0  0
  1  6  1  0  0  0  0
  2  3  2  0  0  0  0
  3  4  1  0  0  0  0
  4  5  2  0  0  0  0
  4 10  1  0  0  0  0
  5  6  1  0  0  0  0
  5  8  1  0  0  0  0
  6  7  2  0  0  0  0
  8  9  1  0  0  0  0
  9 10  2  0  0  0  0
M  END
>  <CHROM.1>
-11.60153375,-11.88443981,7.18514142,-2.95834114,1.31533306,-0.59813136

>  <Name>
ligand

>  <RI>
0

>  <Rbt.Current_Directory>
/home/itssahil/PROJECTS/Mol_Feturizer/New_Systems/rnas/2EES

>  <Rbt.Executable>
rbdock ($Id: //depot/dev/client3/rdock/2013.1/src/exe/rbdock.cxx#4 $)

>  <Rbt.Library>
libRbt.so (2013.1, Build901 2013/11/27)

>  <Rbt.Parameter_File>
/export/apps/rDock/src/rDock_2013.1_src/data/scripts/dock_solv.prm

>  <Rbt.Receptor>
prm/pocket_docking_8.prm

>  <SCORE>
-16.796

>  <SCORE.INTER>
-16.796

>  <SCORE.INTER.CONST>
1

>  <SCORE.INTER.POLAR>
0

>  <SCORE.INTER.ROT>
0

>  <SCORE.INTER.SOLV>
3.67945

>  <SCORE.INTER.VDW>
-16.0238

>  <SCORE.INTER.norm>
-1.6796

>  <SCORE.INTRA>
0

>  <SCORE.INTRA.DIHEDRAL>
0

>  <SCORE.INTRA.DIHEDRAL.0>
0

>  <SCORE.INTRA.POLAR>
0

>  <SCORE.INTRA.POLAR.0>
0

>  <SCORE.INTRA.REPUL>
0

>  <SCORE.INTRA.REPUL.0>
0

>  <SCORE.INTRA.SOLV>
0

>  <SCORE.INTRA.SOLV.lig_0>
-4.28614

>  <SCORE.INTRA.VDW>
0

>  <SCORE.INTRA.VDW.0>
0

>  <SCORE.INTRA.norm>
0

>  <SCORE.RESTR>
0

>  <SCORE.RESTR.CAVITY>
0

>  <SCORE.RESTR.norm>
0

>  <SCORE.SYSTEM>
0

>  <SCORE.SYSTEM.CONST>
0

>  <SCORE.SYSTEM.DIHEDRAL>
0

>  <SCORE.SYSTEM.SOLV>
0

>  <SCORE.SYSTEM.norm>
0

>  <SCORE.heavy>
10

>  <SCORE.norm>
-1.6796

>  <RMSD>
0.554

$$$$
ligand
 OpenBabel11021811423D
libRbt.so/2013.1/901 2013/11/27
 10 11  0  0  0  0  0  0  0  0999 V2000
  -11.9845  -11.2252    8.9493 N   0  0  0  0  0  0  0  0  0  0  0  0
  -11.7127  -12.5911    9.0487 C   0  0  0  0  0  0  0  0  0  0  0  0
  -11.3428  -13.3306    7.9878 N   0  0  0  0  0  0  0  0  0  0  0  0
  -11.2595  -12.5940    6.8096 C   0  0  0  0  0  0  0  0  0  0  0  0
  -11.5174  -11.2354    6.6174 C   0  0  0  0  0  0  0  0  0  0  0  0
  -11.9198  -10.4411    7.7486 C   0  0  0  0  0  0  0  0  0  0  0  0
  -12.1920   -9.2682    7.8363 O   0  0  0  0  0  0  0  0  0  0  0  0
  -11.2954  -10.9198    5.2645 N   0  0  0  0  0  0  0  0  0  0  0  0
  -10.9076  -12.0858    4.6810 C   0  0  0  0  0  0  0  0  0  0  0  0
  -10.8777  -13.1342    5.6112 N   0  0  0  0  0  0  0  0  0  0  0  0
  1  2  1  0  0  0  0
  1  6  1  0  0  0  0
  2  3  2  0  0  0  0
  3  4  1  0  0  0  0
  4  5  2  0  0  0  0
  4 10  1  0  0  0  0
  5  6  1  0  0  0  0
  5  8  1  0  0  0  0
  6  7  2  0  0  0  0
  8  9  1  0  0  0  0
  9 10  2  0  0  0  0
M  END
>  <CHROM.1>
-11.51420603,-11.63802082,7.07284688,-2.82729536,1.27748480,-0.80903339

>  <Name>
ligand

>  <RI>
0

>  <Rbt.Current_Directory>
/home/itssahil/PROJECTS/Mol_Feturizer/New_Systems/rnas/2EES

>  <Rbt.Executable>
rbdock ($Id: //depot/dev/client3/rdock/2013.1/src/exe/rbdock.cxx#4 $)

>  <Rbt.Library>
libRbt.so (2013.1, Build901 2013/11/27)

>  <Rbt.Parameter_File>
/export/apps/rDock/src/rDock_2013.1_src/data/scripts/dock_solv.prm

>  <Rbt.Receptor>
prm/pocket_docking_5.prm

>  <SCORE>
-16.9229

>  <SCORE.INTER>
-16.9229

>  <SCORE.INTER.CONST>
1

>  <SCORE.INTER.POLAR>
0

>  <SCORE.INTER.ROT>
0

>  <SCORE.INTER.SOLV>
3.4923

>  <SCORE.INTER.VDW>
-16.046

>  <SCORE.INTER.norm>
-1.69229

>  <SCORE.INTRA>
0

>  <SCORE.INTRA.DIHEDRAL>
0

>  <SCORE.INTRA.DIHEDRAL.0>
0

>  <SCORE.INTRA.POLAR>
0

>  <SCORE.INTRA.POLAR.0>
0

>  <SCORE.INTRA.REPUL>
0

>  <SCORE.INTRA.REPUL.0>
0

>  <SCORE.INTRA.SOLV>
0

>  <SCORE.INTRA.SOLV.lig_0>
-4.28614

>  <SCORE.INTRA.VDW>
0

>  <SCORE.INTRA.VDW.0>
0

>  <SCORE.INTRA.norm>
0

>  <SCORE.RESTR>
0

>  <SCORE.RESTR.CAVITY>
0

>  <SCORE.RESTR.norm>
0

>  <SCORE.SYSTEM>
0

>  <SCORE.SYSTEM.CONST>
0

>  <SCORE.SYSTEM.DIHEDRAL>
0

>  <SCORE.SYSTEM.SOLV>
0

>  <SCORE.SYSTEM.norm>
0

>  <SCORE.heavy>
10

>  <SCORE.norm>
-1.69229

>  <RMSD>
0.556

$$$$
ligand
 OpenBabel11021811423D
libRbt.so/2013.1/901 2013/11/27
 10 11  0  0  0  0  0  0  0  0999 V2000
  -12.0838  -10.9741    8.8746 N   0  0  0  0  0  0  0  0  0  0  0  0
  -11.9010  -12.3428    9.0810 C   0  0  0  0  0  0  0  0  0  0  0  0
  -11.5409  -13.1785    8.0905 N   0  0  0  0  0  0  0  0  0  0  0  0
  -11.3708  -12.5360    6.8673 C   0  0  0  0  0  0  0  0  0  0  0  0
  -11.5369  -11.1823    6.5695 C   0  0  0  0  0  0  0  0  0  0  0  0
  -11.9286  -10.2850    7.6249 C   0  0  0  0  0  0  0  0  0  0  0  0
  -12.1303   -9.0946    7.6186 O   0  0  0  0  0  0  0  0  0  0  0  0
  -11.2485  -10.9799    5.2075 N   0  0  0  0  0  0  0  0  0  0  0  0
  -10.9137  -12.2065    4.7236 C   0  0  0  0  0  0  0  0  0  0  0  0
  -10.9815  -13.1841    5.7261 N   0  0  0  0  0  0  0  0  0  0  0  0
  1  2  1  0  0  0  0
  1  6  1  0  0  0  0
  2  3  2  0  0  0  0
  3  4  1  0  0  0  0
  4  5  2  0  0  0  0
  4 10  1  0  0  0  0
  5  6  1  0  0  0  0
  5  8  1  0  0  0  0
  6  7  2  0  0  0  0
  8  9  1  0  0  0  0
  9 10  2  0  0  0  0
M  END
>  <CHROM.1>
-11.57468856,-11.54999935,7.05203605,-3.07608061,1.29011322,-0.64233707

>  <Name>
ligand

>  <RI>
0

>  <Rbt.Current_Directory>
/home/itssahil/PROJECTS/Mol_Feturizer/New_Systems/rnas/2EES

>  <Rbt.Executable>
rbdock ($Id: //depot/dev/client3/rdock/2013.1/src/exe/rbdock.cxx#4 $)

>  <Rbt.Library>
libRbt.so (2013.1, Build901 2013/11/27)

>  <Rbt.Parameter_File>
/export/apps/rDock/src/rDock_2013.1_src/data/scripts/dock_solv.prm

>  <Rbt.Receptor>
prm/pocket_docking_4.prm

>  <SCORE>
-16.9699

>  <SCORE.INTER>
-16.9699

>  <SCORE.INTER.CONST>
1

>  <SCORE.INTER.POLAR>
0

>  <SCORE.INTER.ROT>
0

>  <SCORE.INTER.SOLV>
3.4994

>  <SCORE.INTER.VDW>
-16.0798

>  <SCORE.INTER.norm>
-1.69699

>  <SCORE.INTRA>
0

>  <SCORE.INTRA.DIHEDRAL>
0

>  <SCORE.INTRA.DIHEDRAL.0>
0

>  <SCORE.INTRA.POLAR>
0

>  <SCORE.INTRA.POLAR.0>
0

>  <SCORE.INTRA.REPUL>
0

>  <SCORE.INTRA.REPUL.0>
0

>  <SCORE.INTRA.SOLV>
0

>  <SCORE.INTRA.SOLV.lig_0>
-4.28614

>  <SCORE.INTRA.VDW>
0

>  <SCORE.INTRA.VDW.0>
0

>  <SCORE.INTRA.norm>
0

>  <SCORE.RESTR>
0

>  <SCORE.RESTR.CAVITY>
0

>  <SCORE.RESTR.norm>
0

>  <SCORE.SYSTEM>
0

>  <SCORE.SYSTEM.CONST>
0

>  <SCORE.SYSTEM.DIHEDRAL>
0

>  <SCORE.SYSTEM.SOLV>
0

>  <SCORE.SYSTEM.norm>
0

>  <SCORE.heavy>
10

>  <SCORE.norm>
-1.69699

>  <RMSD>
0.583

$$$$
ligand
 OpenBabel11021811423D
libRbt.so/2013.1/901 2013/11/27
 10 11  0  0  0  0  0  0  0  0999 V2000
  -12.0528  -11.0458    8.8856 N   0  0  0  0  0  0  0  0  0  0  0  0
  -11.8518  -12.4172    9.0548 C   0  0  0  0  0  0  0  0  0  0  0  0
  -11.4979  -13.2237    8.0383 N   0  0  0  0  0  0  0  0  0  0  0  0
  -11.3538  -12.5492    6.8292 C   0  0  0  0  0  0  0  0  0  0  0  0
  -11.5393  -11.1904    6.5679 C   0  0  0  0  0  0  0  0  0  0  0  0
  -11.9245  -10.3242    7.6513 C   0  0  0  0  0  0  0  0  0  0  0  0
  -12.1393   -9.1364    7.6779 O   0  0  0  0  0  0  0  0  0  0  0  0
  -11.2743  -10.9510    5.2072 N   0  0  0  0  0  0  0  0  0  0  0  0
  -10.9335  -12.1612    4.6878 C   0  0  0  0  0  0  0  0  0  0  0  0
  -10.9751  -13.1642    5.6664 N   0  0  0  0  0  0  0  0  0  0  0  0
  1  2  1  0  0  0  0
  1  6  1  0  0  0  0
  2  3  2  0  0  0  0
  3  4  1  0  0  0  0
  4  5  2  0  0  0  0
  4 10  1  0  0  0  0
  5  6  1  0  0  0  0
  5  8  1  0  0  0  0
  6  7  2  0  0  0  0
  8  9  1  0  0  0  0
  9 10  2  0  0  0  0
M  END
>  <CHROM.1>
-11.56559811,-11.57045446,7.04164099,-3.00965227,1.29532203,-0.68125076

>  <Name>
ligand

>  <RI>
0

>  <Rbt.Current_Directory>
/home/itssahil/PROJECTS/Mol_Feturizer/New_Systems/rnas/2EES

>  <Rbt.Executable>
rbdock ($Id: //depot/dev/client3/rdock/2013.1/src/exe/rbdock.cxx#4 $)

>  <Rbt.Library>
libRbt.so (2013.1, Build901 2013/11/27)

>  <Rbt.Parameter_File>
/export/apps/rDock/src/rDock_2013.1_src/data/scripts/dock_solv.prm

>  <Rbt.Receptor>
prm/pocket_docking_8.prm

>  <SCORE>
-16.9751

>  <SCORE.INTER>
-16.9751

>  <SCORE.INTER.CONST>
1

>  <SCORE.INTER.POLAR>
0

>  <SCORE.INTER.ROT>
0

>  <SCORE.INTER.SOLV>
3.4914

>  <SCORE.INTER.VDW>
-16.0806

>  <SCORE.INTER.norm>
-1.69751

>  <SCORE.INTRA>
0

>  <SCORE.INTRA.DIHEDRAL>
0

>  <SCORE.INTRA.DIHEDRAL.0>
0

>  <SCORE.INTRA.POLAR>
0

>  <SCORE.INTRA.POLAR.0>
0

>  <SCORE.INTRA.REPUL>
0

>  <SCORE.INTRA.REPUL.0>
0

>  <SCORE.INTRA.SOLV>
0

>  <SCORE.INTRA.SOLV.lig_0>
-4.28614

>  <SCORE.INTRA.VDW>
0

>  <SCORE.INTRA.VDW.0>
0

>  <SCORE.INTRA.norm>
0

>  <SCORE.RESTR>
0

>  <SCORE.RESTR.CAVITY>
0

>  <SCORE.RESTR.norm>
0

>  <SCORE.SYSTEM>
0

>  <SCORE.SYSTEM.CONST>
0

>  <SCORE.SYSTEM.DIHEDRAL>
0

>  <SCORE.SYSTEM.SOLV>
0

>  <SCORE.SYSTEM.norm>
0

>  <SCORE.heavy>
10

>  <SCORE.norm>
-1.69751

>  <RMSD>
0.585

$$$$
ligand
 OpenBabel11021811423D
libRbt.so/2013.1/901 2013/11/27
 10 11  0  0  0  0  0  0  0  0999 V2000
  -12.0443  -11.0586    8.8843 N   0  0  0  0  0  0  0  0  0  0  0  0
  -11.8396  -12.4300    9.0480 C   0  0  0  0  0  0  0  0  0  0  0  0
  -11.4868  -13.2320    8.0275 N   0  0  0  0  0  0  0  0  0  0  0  0
  -11.3479  -12.5528    6.8204 C   0  0  0  0  0  0  0  0  0  0  0  0
  -11.5374  -11.1935    6.5646 C   0  0  0  0  0  0  0  0  0  0  0  0
  -11.9213  -10.3321    7.6524 C   0  0  0  0  0  0  0  0  0  0  0  0
  -12.1389   -9.1450    7.6839 O   0  0  0  0  0  0  0  0  0  0  0  0
  -11.2770  -10.9485    5.2040 N   0  0  0  0  0  0  0  0  0  0  0  0
  -10.9350  -12.1560    4.6791 C   0  0  0  0  0  0  0  0  0  0  0  0
  -10.9713  -13.1626    5.6542 N   0  0  0  0  0  0  0  0  0  0  0  0
  1  2  1  0  0  0  0
  1  6  1  0  0  0  0
  2  3  2  0  0  0  0
  3  4  1  0  0  0  0
  4  5  2  0  0  0  0
  4 10  1  0  0  0  0
  5  6  1  0  0  0  0
  5  8  1  0  0  0  0
  6  7  2  0  0  0  0
  8  9  1  0  0  0  0
  9 10  2  0  0  0  0
M  END
>  <CHROM.1>
-11.56138776,-11.57528362,7.03705252,-2.99595099,1.29615310,-0.69078380

>  <Name>
ligand

>  <RI>
0

>  <Rbt.Current_Directory>
/home/itssahil/PROJECTS/Mol_Feturizer/New_Systems/rnas/2EES

>  <Rbt.Executable>
rbdock ($Id: //depot/dev/client3/rdock/2013.1/src/exe/rbdock.cxx#4 $)

>  <Rbt.Library>
libRbt.so (2013.1, Build901 2013/11/27)

>  <Rbt.Parameter_File>
/export/apps/rDock/src/rDock_2013.1_src/data/scripts/dock_solv.prm

>  <Rbt.Receptor>
prm/blind_docking_100.prm

>  <SCORE>
-16.9767

>  <SCORE.INTER>
-16.9767

>  <SCORE.INTER.CONST>
1

>  <SCORE.INTER.POLAR>
0

>  <SCORE.INTER.ROT>
0

>  <SCORE.INTER.SOLV>
3.49443

>  <SCORE.INTER.VDW>
-16.0826

>  <SCORE.INTER.norm>
-1.69767

>  <SCORE.INTRA>
0

>  <SCORE.INTRA.DIHEDRAL>
0

>  <SCORE.INTRA.DIHEDRAL.0>
0

>  <SCORE.INTRA.POLAR>
0

>  <SCORE.INTRA.POLAR.0>
0

>  <SCORE.INTRA.REPUL>
0

>  <SCORE.INTRA.REPUL.0>
0

>  <SCORE.INTRA.SOLV>
0

>  <SCORE.INTRA.SOLV.lig_0>
-4.28614

>  <SCORE.INTRA.VDW>
0

>  <SCORE.INTRA.VDW.0>
0

>  <SCORE.INTRA.norm>
0

>  <SCORE.RESTR>
0

>  <SCORE.RESTR.CAVITY>
0

>  <SCORE.RESTR.norm>
0

>  <SCORE.SYSTEM>
0

>  <SCORE.SYSTEM.CONST>
0

>  <SCORE.SYSTEM.DIHEDRAL>
0

>  <SCORE.SYSTEM.SOLV>
0

>  <SCORE.SYSTEM.norm>
0

>  <SCORE.heavy>
10

>  <SCORE.norm>
-1.69767

>  <RMSD>
0.589

$$$$
ligand
 OpenBabel11021811423D
libRbt.so/2013.1/901 2013/11/27
 10 11  0  0  0  0  0  0  0  0999 V2000
  -12.0035  -11.0454    8.8846 N   0  0  0  0  0  0  0  0  0  0  0  0
  -11.7386  -12.4053    9.0576 C   0  0  0  0  0  0  0  0  0  0  0  0
  -11.3615  -13.2004    8.0404 N   0  0  0  0  0  0  0  0  0  0  0  0
  -11.2634  -12.5264    6.8264 C   0  0  0  0  0  0  0  0  0  0  0  0
  -11.5135  -11.1788    6.5612 C   0  0  0  0  0  0  0  0  0  0  0  0
  -11.9236  -10.3251    7.6454 C   0  0  0  0  0  0  0  0  0  0  0  0
  -12.1915   -9.1481    7.6693 O   0  0  0  0  0  0  0  0  0  0  0  0
  -11.2769  -10.9347    5.1961 N   0  0  0  0  0  0  0  0  0  0  0  0
  -10.8885  -12.1311    4.6779 C   0  0  0  0  0  0  0  0  0  0  0  0
  -10.8722  -13.1298    5.6616 N   0  0  0  0  0  0  0  0  0  0  0  0
  1  2  1  0  0  0  0
  1  6  1  0  0  0  0
  2  3  2  0  0  0  0
  3  4  1  0  0  0  0
  4  5  2  0  0  0  0
  4 10  1  0  0  0  0
  5  6  1  0  0  0  0
  5  8  1  0  0  0  0
  6  7  2  0  0  0  0
  8  9  1  0  0  0  0
  9 10  2  0  0  0  0
M  END
>  <CHROM.1>
-11.51656363,-11.55710705,7.03697118,-2.86185898,1.27369254,-0.82800316

>  <Name>
ligand

>  <RI>
0

>  <Rbt.Current_Directory>
/home/itssahil/PROJECTS/Mol_Feturizer/New_Systems/rnas/2EES

>  <Rbt.Executable>
rbdock ($Id: //depot/dev/client3/rdock/2013.1/src/exe/rbdock.cxx#4 $)

>  <Rbt.Library>
libRbt.so (2013.1, Build901 2013/11/27)

>  <Rbt.Parameter_File>
/export/apps/rDock/src/rDock_2013.1_src/data/scripts/dock_solv.prm

>  <Rbt.Receptor>
prm/pocket_docking_8.prm

>  <SCORE>
-16.9365

>  <SCORE.INTER>
-16.9365

>  <SCORE.INTER.CONST>
1

>  <SCORE.INTER.POLAR>
0

>  <SCORE.INTER.ROT>
0

>  <SCORE.INTER.SOLV>
3.41812

>  <SCORE.INTER.VDW>
-16.0304

>  <SCORE.INTER.norm>
-1.69365

>  <SCORE.INTRA>
0

>  <SCORE.INTRA.DIHEDRAL>
0

>  <SCORE.INTRA.DIHEDRAL.0>
0

>  <SCORE.INTRA.POLAR>
0

>  <SCORE.INTRA.POLAR.0>
0

>  <SCORE.INTRA.REPUL>
0

>  <SCORE.INTRA.REPUL.0>
0

>  <SCORE.INTRA.SOLV>
0

>  <SCORE.INTRA.SOLV.lig_0>
-4.28614

>  <SCORE.INTRA.VDW>
0

>  <SCORE.INTRA.VDW.0>
0

>  <SCORE.INTRA.norm>
0

>  <SCORE.RESTR>
0

>  <SCORE.RESTR.CAVITY>
0

>  <SCORE.RESTR.norm>
0

>  <SCORE.SYSTEM>
0

>  <SCORE.SYSTEM.CONST>
0

>  <SCORE.SYSTEM.DIHEDRAL>
0

>  <SCORE.SYSTEM.SOLV>
0

>  <SCORE.SYSTEM.norm>
0

>  <SCORE.heavy>
10

>  <SCORE.norm>
-1.69365

>  <RMSD>
0.589

$$$$
ligand
 OpenBabel11021811423D
libRbt.so/2013.1/901 2013/11/27
 10 11  0  0  0  0  0  0  0  0999 V2000
  -12.0695  -10.9986    8.8746 N   0  0  0  0  0  0  0  0  0  0  0  0
  -11.8850  -12.3691    9.0679 C   0  0  0  0  0  0  0  0  0  0  0  0
  -11.5361  -13.1968    8.0668 N   0  0  0  0  0  0  0  0  0  0  0  0
  -11.3793  -12.5446    6.8470 C   0  0  0  0  0  0  0  0  0  0  0  0
  -11.5480  -11.1884    6.5620 C   0  0  0  0  0  0  0  0  0  0  0  0
  -11.9276  -10.2995    7.6289 C   0  0  0  0  0  0  0  0  0  0  0  0
  -12.1289   -9.1091    7.6345 O   0  0  0  0  0  0  0  0  0  0  0  0
  -11.2746  -10.9751    5.1986 N   0  0  0  0  0  0  0  0  0  0  0  0
  -10.9457  -12.1978    4.7012 C   0  0  0  0  0  0  0  0  0  0  0  0
  -11.0029  -13.1835    5.6964 N   0  0  0  0  0  0  0  0  0  0  0  0
  1  2  1  0  0  0  0
  1  6  1  0  0  0  0
  2  3  2  0  0  0  0
  3  4  1  0  0  0  0
  4  5  2  0  0  0  0
  4 10  1  0  0  0  0
  5  6  1  0  0  0  0
  5  8  1  0  0  0  0
  6  7  2  0  0  0  0
  8  9  1  0  0  0  0
  9 10  2  0  0  0  0
M  END
>  <CHROM.1>
-11.58066575,-11.55997718,7.04197406,-3.05281927,1.29913065,-0.65661116

>  <Name>
ligand

>  <RI>
0

>  <Rbt.Current_Directory>
/home/itssahil/PROJECTS/Mol_Feturizer/New_Systems/rnas/2EES

>  <Rbt.Executable>
rbdock ($Id: //depot/dev/client3/rdock/2013.1/src/exe/rbdock.cxx#4 $)

>  <Rbt.Library>
libRbt.so (2013.1, Build901 2013/11/27)

>  <Rbt.Parameter_File>
/export/apps/rDock/src/rDock_2013.1_src/data/scripts/dock_solv.prm

>  <Rbt.Receptor>
prm/blind_docking_100.prm

>  <SCORE>
-16.991

>  <SCORE.INTER>
-16.991

>  <SCORE.INTER.CONST>
1

>  <SCORE.INTER.POLAR>
0

>  <SCORE.INTER.ROT>
0

>  <SCORE.INTER.SOLV>
3.51234

>  <SCORE.INTER.VDW>
-16.0981

>  <SCORE.INTER.norm>
-1.6991

>  <SCORE.INTRA>
0

>  <SCORE.INTRA.DIHEDRAL>
0

>  <SCORE.INTRA.DIHEDRAL.0>
0

>  <SCORE.INTRA.POLAR>
0

>  <SCORE.INTRA.POLAR.0>
0

>  <SCORE.INTRA.REPUL>
0

>  <SCORE.INTRA.REPUL.0>
0

>  <SCORE.INTRA.SOLV>
0

>  <SCORE.INTRA.SOLV.lig_0>
-4.28614

>  <SCORE.INTRA.VDW>
0

>  <SCORE.INTRA.VDW.0>
0

>  <SCORE.INTRA.norm>
0

>  <SCORE.RESTR>
0

>  <SCORE.RESTR.CAVITY>
0

>  <SCORE.RESTR.norm>
0

>  <SCORE.SYSTEM>
0

>  <SCORE.SYSTEM.CONST>
0

>  <SCORE.SYSTEM.DIHEDRAL>
0

>  <SCORE.SYSTEM.SOLV>
0

>  <SCORE.SYSTEM.norm>
0

>  <SCORE.heavy>
10

>  <SCORE.norm>
-1.6991

>  <RMSD>
0.591

$$$$
ligand
 OpenBabel11021811423D
libRbt.so/2013.1/901 2013/11/27
 10 11  0  0  0  0  0  0  0  0999 V2000
  -12.0422  -11.0586    8.8830 N   0  0  0  0  0  0  0  0  0  0  0  0
  -11.8396  -12.4305    9.0459 C   0  0  0  0  0  0  0  0  0  0  0  0
  -11.4887  -13.2326    8.0248 N   0  0  0  0  0  0  0  0  0  0  0  0
  -11.3495  -12.5529    6.8179 C   0  0  0  0  0  0  0  0  0  0  0  0
  -11.5370  -11.1932    6.5630 C   0  0  0  0  0  0  0  0  0  0  0  0
  -11.9188  -10.3317    7.6513 C   0  0  0  0  0  0  0  0  0  0  0  0
  -12.1345   -9.1443    7.6836 O   0  0  0  0  0  0  0  0  0  0  0  0
  -11.2770  -10.9479    5.2023 N   0  0  0  0  0  0  0  0  0  0  0  0
  -10.9373  -12.1557    4.6766 C   0  0  0  0  0  0  0  0  0  0  0  0
  -10.9746  -13.1628    5.6512 N   0  0  0  0  0  0  0  0  0  0  0  0
  1  2  1  0  0  0  0
  1  6  1  0  0  0  0
  2  3  2  0  0  0  0
  3  4  1  0  0  0  0
  4  5  2  0  0  0  0
  4 10  1  0  0  0  0
  5  6  1  0  0  0  0
  5  8  1  0  0  0  0
  6  7  2  0  0  0  0
  8  9  1  0  0  0  0
  9 10  2  0  0  0  0
M  END
>  <CHROM.1>
-11.56127682,-11.57520686,7.03519636,-2.99912645,1.29766575,-0.68723237

>  <Name>
ligand

>  <RI>
0

>  <Rbt.Current_Directory>
/home/itssahil/PROJECTS/Mol_Feturizer/New_Systems/rnas/2EES

>  <Rbt.Executable>
rbdock ($Id: //depot/dev/client3/rdock/2013.1/src/exe/rbdock.cxx#4 $)

>  <Rbt.Library>
libRbt.so (2013.1, Build901 2013/11/27)

>  <Rbt.Parameter_File>
/export/apps/rDock/src/rDock_2013.1_src/data/scripts/dock_solv.prm

>  <Rbt.Receptor>
prm/pocket_docking_4.prm

>  <SCORE>
-16.9772

>  <SCORE.INTER>
-16.9772

>  <SCORE.INTER.CONST>
1

>  <SCORE.INTER.POLAR>
0

>  <SCORE.INTER.ROT>
0

>  <SCORE.INTER.SOLV>
3.50125

>  <SCORE.INTER.VDW>
-16.0852

>  <SCORE.INTER.norm>
-1.69772

>  <SCORE.INTRA>
0

>  <SCORE.INTRA.DIHEDRAL>
0

>  <SCORE.INTRA.DIHEDRAL.0>
0

>  <SCORE.INTRA.POLAR>
0

>  <SCORE.INTRA.POLAR.0>
0

>  <SCORE.INTRA.REPUL>
0

>  <SCORE.INTRA.REPUL.0>
0

>  <SCORE.INTRA.SOLV>
0

>  <SCORE.INTRA.SOLV.lig_0>
-4.28614

>  <SCORE.INTRA.VDW>
0

>  <SCORE.INTRA.VDW.0>
0

>  <SCORE.INTRA.norm>
0

>  <SCORE.RESTR>
0

>  <SCORE.RESTR.CAVITY>
0

>  <SCORE.RESTR.norm>
0

>  <SCORE.SYSTEM>
0

>  <SCORE.SYSTEM.CONST>
0

>  <SCORE.SYSTEM.DIHEDRAL>
0

>  <SCORE.SYSTEM.SOLV>
0

>  <SCORE.SYSTEM.norm>
0

>  <SCORE.heavy>
10

>  <SCORE.norm>
-1.69772

>  <RMSD>
0.591

$$$$
ligand
 OpenBabel11021811423D
libRbt.so/2013.1/901 2013/11/27
 10 11  0  0  0  0  0  0  0  0999 V2000
  -12.0325  -11.0405    8.8818 N   0  0  0  0  0  0  0  0  0  0  0  0
  -11.8250  -12.4108    9.0512 C   0  0  0  0  0  0  0  0  0  0  0  0
  -11.4728  -13.2169    8.0337 N   0  0  0  0  0  0  0  0  0  0  0  0
  -11.3374  -12.5428    6.8233 C   0  0  0  0  0  0  0  0  0  0  0  0
  -11.5298  -11.1850    6.5618 C   0  0  0  0  0  0  0  0  0  0  0  0
  -11.9131  -10.3194    7.6463 C   0  0  0  0  0  0  0  0  0  0  0  0
  -12.1328   -9.1325    7.6729 O   0  0  0  0  0  0  0  0  0  0  0  0
  -11.2724  -10.9457    5.1996 N   0  0  0  0  0  0  0  0  0  0  0  0
  -10.9292  -12.1550    4.6795 C   0  0  0  0  0  0  0  0  0  0  0  0
  -10.9619  -13.1573    5.6591 N   0  0  0  0  0  0  0  0  0  0  0  0
  1  2  1  0  0  0  0
  1  6  1  0  0  0  0
  2  3  2  0  0  0  0
  3  4  1  0  0  0  0
  4  5  2  0  0  0  0
  4 10  1  0  0  0  0
  5  6  1  0  0  0  0
  5  8  1  0  0  0  0
  6  7  2  0  0  0  0
  8  9  1  0  0  0  0
  9 10  2  0  0  0  0
M  END
>  <CHROM.1>
-11.55216928,-11.56472184,7.03593954,-2.98651247,1.29648159,-0.70438414

>  <Name>
ligand

>  <RI>
0

>  <Rbt.Current_Directory>
/home/itssahil/PROJECTS/Mol_Feturizer/New_Systems/rnas/2EES

>  <Rbt.Executable>
rbdock ($Id: //depot/dev/client3/rdock/2013.1/src/exe/rbdock.cxx#4 $)

>  <Rbt.Library>
libRbt.so (2013.1, Build901 2013/11/27)

>  <Rbt.Parameter_File>
/export/apps/rDock/src/rDock_2013.1_src/data/scripts/dock_solv.prm

>  <Rbt.Receptor>
prm/blind_docking_80.prm

>  <SCORE>
-16.9763

>  <SCORE.INTER>
-16.9763

>  <SCORE.INTER.CONST>
1

>  <SCORE.INTER.POLAR>
0

>  <SCORE.INTER.ROT>
0

>  <SCORE.INTER.SOLV>
3.49994

>  <SCORE.INTER.VDW>
-16.0842

>  <SCORE.INTER.norm>
-1.69763

>  <SCORE.INTRA>
0

>  <SCORE.INTRA.DIHEDRAL>
0

>  <SCORE.INTRA.DIHEDRAL.0>
0

>  <SCORE.INTRA.POLAR>
0

>  <SCORE.INTRA.POLAR.0>
0

>  <SCORE.INTRA.REPUL>
0

>  <SCORE.INTRA.REPUL.0>
0

>  <SCORE.INTRA.SOLV>
0

>  <SCORE.INTRA.SOLV.lig_0>
-4.28614

>  <SCORE.INTRA.VDW>
0

>  <SCORE.INTRA.VDW.0>
0

>  <SCORE.INTRA.norm>
0

>  <SCORE.RESTR>
0

>  <SCORE.RESTR.CAVITY>
0

>  <SCORE.RESTR.norm>
0

>  <SCORE.SYSTEM>
0

>  <SCORE.SYSTEM.CONST>
0

>  <SCORE.SYSTEM.DIHEDRAL>
0

>  <SCORE.SYSTEM.SOLV>
0

>  <SCORE.SYSTEM.norm>
0

>  <SCORE.heavy>
10

>  <SCORE.norm>
-1.69763

>  <RMSD>
0.593

$$$$
ligand
 OpenBabel11021811423D
libRbt.so/2013.1/901 2013/11/27
 10 11  0  0  0  0  0  0  0  0999 V2000
  -12.0446  -11.0595    8.8806 N   0  0  0  0  0  0  0  0  0  0  0  0
  -11.8481  -12.4323    9.0437 C   0  0  0  0  0  0  0  0  0  0  0  0
  -11.4983  -13.2357    8.0233 N   0  0  0  0  0  0  0  0  0  0  0  0
  -11.3534  -12.5564    6.8169 C   0  0  0  0  0  0  0  0  0  0  0  0
  -11.5345  -11.1959    6.5617 C   0  0  0  0  0  0  0  0  0  0  0  0
  -11.9153  -10.3330    7.6493 C   0  0  0  0  0  0  0  0  0  0  0  0
  -12.1260   -9.1446    7.6814 O   0  0  0  0  0  0  0  0  0  0  0  0
  -11.2704  -10.9515    5.2017 N   0  0  0  0  0  0  0  0  0  0  0  0
  -10.9345  -12.1606    4.6766 C   0  0  0  0  0  0  0  0  0  0  0  0
  -10.9783  -13.1677    5.6509 N   0  0  0  0  0  0  0  0  0  0  0  0
  1  2  1  0  0  0  0
  1  6  1  0  0  0  0
  2  3  2  0  0  0  0
  3  4  1  0  0  0  0
  4  5  2  0  0  0  0
  4 10  1  0  0  0  0
  5  6  1  0  0  0  0
  5  8  1  0  0  0  0
  6  7  2  0  0  0  0
  8  9  1  0  0  0  0
  9 10  2  0  0  0  0
M  END
>  <CHROM.1>
-11.56154178,-11.57783906,7.03381036,-3.01668790,1.29849950,-0.67015002

>  <Name>
ligand

>  <RI>
0

>  <Rbt.Current_Directory>
/home/itssahil/PROJECTS/Mol_Feturizer/New_Systems/rnas/2EES

>  <Rbt.Executable>
rbdock ($Id: //depot/dev/client3/rdock/2013.1/src/exe/rbdock.cxx#4 $)

>  <Rbt.Library>
libRbt.so (2013.1, Build901 2013/11/27)

>  <Rbt.Parameter_File>
/export/apps/rDock/src/rDock_2013.1_src/data/scripts/dock_solv.prm

>  <Rbt.Receptor>
prm/pocket_docking_4.prm

>  <SCORE>
-16.9768

>  <SCORE.INTER>
-16.9768

>  <SCORE.INTER.CONST>
1

>  <SCORE.INTER.POLAR>
0

>  <SCORE.INTER.ROT>
0

>  <SCORE.INTER.SOLV>
3.50877

>  <SCORE.INTER.VDW>
-16.0875

>  <SCORE.INTER.norm>
-1.69768

>  <SCORE.INTRA>
0

>  <SCORE.INTRA.DIHEDRAL>
0

>  <SCORE.INTRA.DIHEDRAL.0>
0

>  <SCORE.INTRA.POLAR>
0

>  <SCORE.INTRA.POLAR.0>
0

>  <SCORE.INTRA.REPUL>
0

>  <SCORE.INTRA.REPUL.0>
0

>  <SCORE.INTRA.SOLV>
0

>  <SCORE.INTRA.SOLV.lig_0>
-4.28614

>  <SCORE.INTRA.VDW>
0

>  <SCORE.INTRA.VDW.0>
0

>  <SCORE.INTRA.norm>
0

>  <SCORE.RESTR>
0

>  <SCORE.RESTR.CAVITY>
0

>  <SCORE.RESTR.norm>
0

>  <SCORE.SYSTEM>
0

>  <SCORE.SYSTEM.CONST>
0

>  <SCORE.SYSTEM.DIHEDRAL>
0

>  <SCORE.SYSTEM.SOLV>
0

>  <SCORE.SYSTEM.norm>
0

>  <SCORE.heavy>
10

>  <SCORE.norm>
-1.69768

>  <RMSD>
0.593

$$$$
ligand
 OpenBabel11021811423D
libRbt.so/2013.1/901 2013/11/27
 10 11  0  0  0  0  0  0  0  0999 V2000
  -12.0391  -11.0473    8.8791 N   0  0  0  0  0  0  0  0  0  0  0  0
  -11.8429  -12.4194    9.0481 C   0  0  0  0  0  0  0  0  0  0  0  0
  -11.4930  -13.2272    8.0311 N   0  0  0  0  0  0  0  0  0  0  0  0
  -11.3478  -12.5531    6.8219 C   0  0  0  0  0  0  0  0  0  0  0  0
  -11.5287  -11.1936    6.5609 C   0  0  0  0  0  0  0  0  0  0  0  0
  -11.9094  -10.3260    7.6447 C   0  0  0  0  0  0  0  0  0  0  0  0
  -12.1199   -9.1375    7.6716 O   0  0  0  0  0  0  0  0  0  0  0  0
  -11.2643  -10.9551    5.1999 N   0  0  0  0  0  0  0  0  0  0  0  0
  -10.9285  -12.1666    4.6800 C   0  0  0  0  0  0  0  0  0  0  0  0
  -10.9726  -13.1694    5.6586 N   0  0  0  0  0  0  0  0  0  0  0  0
  1  2  1  0  0  0  0
  1  6  1  0  0  0  0
  2  3  2  0  0  0  0
  3  4  1  0  0  0  0
  4  5  2  0  0  0  0
  4 10  1  0  0  0  0
  5  6  1  0  0  0  0
  5  8  1  0  0  0  0
  6  7  2  0  0  0  0
  8  9  1  0  0  0  0
  9 10  2  0  0  0  0
M  END
>  <CHROM.1>
-11.55579641,-11.57359524,7.03459309,-3.01759697,1.29847909,-0.67355520

>  <Name>
ligand

>  <RI>
0

>  <Rbt.Current_Directory>
/home/itssahil/PROJECTS/Mol_Feturizer/New_Systems/rnas/2EES

>  <Rbt.Executable>
rbdock ($Id: //depot/dev/client3/rdock/2013.1/src/exe/rbdock.cxx#4 $)

>  <Rbt.Library>
libRbt.so (2013.1, Build901 2013/11/27)

>  <Rbt.Parameter_File>
/export/apps/rDock/src/rDock_2013.1_src/data/scripts/dock_solv.prm

>  <Rbt.Receptor>
prm/pocket_docking_4.prm

>  <SCORE>
-16.9762

>  <SCORE.INTER>
-16.9762

>  <SCORE.INTER.CONST>
1

>  <SCORE.INTER.POLAR>
0

>  <SCORE.INTER.ROT>
0

>  <SCORE.INTER.SOLV>
3.51288

>  <SCORE.INTER.VDW>
-16.0884

>  <SCORE.INTER.norm>
-1.69762

>  <SCORE.INTRA>
0

>  <SCORE.INTRA.DIHEDRAL>
0

>  <SCORE.INTRA.DIHEDRAL.0>
0

>  <SCORE.INTRA.POLAR>
0

>  <SCORE.INTRA.POLAR.0>
0

>  <SCORE.INTRA.REPUL>
0

>  <SCORE.INTRA.REPUL.0>
0

>  <SCORE.INTRA.SOLV>
0

>  <SCORE.INTRA.SOLV.lig_0>
-4.28614

>  <SCORE.INTRA.VDW>
0

>  <SCORE.INTRA.VDW.0>
0

>  <SCORE.INTRA.norm>
0

>  <SCORE.RESTR>
0

>  <SCORE.RESTR.CAVITY>
0

>  <SCORE.RESTR.norm>
0

>  <SCORE.SYSTEM>
0

>  <SCORE.SYSTEM.CONST>
0

>  <SCORE.SYSTEM.DIHEDRAL>
0

>  <SCORE.SYSTEM.SOLV>
0

>  <SCORE.SYSTEM.norm>
0

>  <SCORE.heavy>
10

>  <SCORE.norm>
-1.69762

>  <RMSD>
0.594

$$$$
ligand
 OpenBabel11021811423D
libRbt.so/2013.1/901 2013/11/27
 10 11  0  0  0  0  0  0  0  0999 V2000
  -12.0380  -11.0407    8.8798 N   0  0  0  0  0  0  0  0  0  0  0  0
  -11.8409  -12.4125    9.0494 C   0  0  0  0  0  0  0  0  0  0  0  0
  -11.4917  -13.2208    8.0327 N   0  0  0  0  0  0  0  0  0  0  0  0
  -11.3480  -12.5474    6.8228 C   0  0  0  0  0  0  0  0  0  0  0  0
  -11.5299  -11.1882    6.5612 C   0  0  0  0  0  0  0  0  0  0  0  0
  -11.9099  -10.3201    7.6449 C   0  0  0  0  0  0  0  0  0  0  0  0
  -12.1210   -9.1317    7.6713 O   0  0  0  0  0  0  0  0  0  0  0  0
  -11.2670  -10.9503    5.1998 N   0  0  0  0  0  0  0  0  0  0  0  0
  -10.9312  -12.1619    4.6803 C   0  0  0  0  0  0  0  0  0  0  0  0
  -10.9738  -13.1642    5.6595 N   0  0  0  0  0  0  0  0  0  0  0  0
  1  2  1  0  0  0  0
  1  6  1  0  0  0  0
  2  3  2  0  0  0  0
  3  4  1  0  0  0  0
  4  5  2  0  0  0  0
  4 10  1  0  0  0  0
  5  6  1  0  0  0  0
  5  8  1  0  0  0  0
  6  7  2  0  0  0  0
  8  9  1  0  0  0  0
  9 10  2  0  0  0  0
M  END
>  <CHROM.1>
-11.55632829,-11.56784372,7.03516781,-3.01381492,1.29897868,-0.67779974

>  <Name>
ligand

>  <RI>
0

>  <Rbt.Current_Directory>
/home/itssahil/PROJECTS/Mol_Feturizer/New_Systems/rnas/2EES

>  <Rbt.Executable>
rbdock ($Id: //depot/dev/client3/rdock/2013.1/src/exe/rbdock.cxx#4 $)

>  <Rbt.Library>
libRbt.so (2013.1, Build901 2013/11/27)

>  <Rbt.Parameter_File>
/export/apps/rDock/src/rDock_2013.1_src/data/scripts/dock_solv.prm

>  <Rbt.Receptor>
prm/pocket_docking_5.prm

>  <SCORE>
-16.9776

>  <SCORE.INTER>
-16.9776

>  <SCORE.INTER.CONST>
1

>  <SCORE.INTER.POLAR>
0

>  <SCORE.INTER.ROT>
0

>  <SCORE.INTER.SOLV>
3.51416

>  <SCORE.INTER.VDW>
-16.0898

>  <SCORE.INTER.norm>
-1.69776

>  <SCORE.INTRA>
0

>  <SCORE.INTRA.DIHEDRAL>
0

>  <SCORE.INTRA.DIHEDRAL.0>
0

>  <SCORE.INTRA.POLAR>
0

>  <SCORE.INTRA.POLAR.0>
0

>  <SCORE.INTRA.REPUL>
0

>  <SCORE.INTRA.REPUL.0>
0

>  <SCORE.INTRA.SOLV>
0

>  <SCORE.INTRA.SOLV.lig_0>
-4.28614

>  <SCORE.INTRA.VDW>
0

>  <SCORE.INTRA.VDW.0>
0

>  <SCORE.INTRA.norm>
0

>  <SCORE.RESTR>
0

>  <SCORE.RESTR.CAVITY>
0

>  <SCORE.RESTR.norm>
0

>  <SCORE.SYSTEM>
0

>  <SCORE.SYSTEM.CONST>
0

>  <SCORE.SYSTEM.DIHEDRAL>
0

>  <SCORE.SYSTEM.SOLV>
0

>  <SCORE.SYSTEM.norm>
0

>  <SCORE.heavy>
10

>  <SCORE.norm>
-1.69776

>  <RMSD>
0.594

$$$$
ligand
 OpenBabel11021811423D
libRbt.so/2013.1/901 2013/11/27
 10 11  0  0  0  0  0  0  0  0999 V2000
  -12.0336  -11.0317    8.8806 N   0  0  0  0  0  0  0  0  0  0  0  0
  -11.8248  -12.4015    9.0527 C   0  0  0  0  0  0  0  0  0  0  0  0
  -11.4730  -13.2094    8.0365 N   0  0  0  0  0  0  0  0  0  0  0  0
  -11.3396  -12.5378    6.8245 C   0  0  0  0  0  0  0  0  0  0  0  0
  -11.5335  -11.1808    6.5603 C   0  0  0  0  0  0  0  0  0  0  0  0
  -11.9163  -10.3131    7.6434 C   0  0  0  0  0  0  0  0  0  0  0  0
  -12.1368   -9.1264    7.6678 O   0  0  0  0  0  0  0  0  0  0  0  0
  -11.2779  -10.9442    5.1973 N   0  0  0  0  0  0  0  0  0  0  0  0
  -10.9343  -12.1543    4.6794 C   0  0  0  0  0  0  0  0  0  0  0  0
  -10.9650  -13.1545    5.6612 N   0  0  0  0  0  0  0  0  0  0  0  0
  1  2  1  0  0  0  0
  1  6  1  0  0  0  0
  2  3  2  0  0  0  0
  3  4  1  0  0  0  0
  4  5  2  0  0  0  0
  4 10  1  0  0  0  0
  5  6  1  0  0  0  0
  5  8  1  0  0  0  0
  6  7  2  0  0  0  0
  8  9  1  0  0  0  0
  9 10  2  0  0  0  0
M  END
>  <CHROM.1>
-11.55498170,-11.55948850,7.03528449,-2.98133078,1.29684592,-0.71152090

>  <Name>
ligand

>  <RI>
0

>  <Rbt.Current_Directory>
/home/itssahil/PROJECTS/Mol_Feturizer/New_Systems/rnas/2EES

>  <Rbt.Executable>
rbdock ($Id: //depot/dev/client3/rdock/2013.1/src/exe/rbdock.cxx#4 $)

>  <Rbt.Library>
libRbt.so (2013.1, Build901 2013/11/27)

>  <Rbt.Parameter_File>
/export/apps/rDock/src/rDock_2013.1_src/data/scripts/dock_solv.prm

>  <Rbt.Receptor>
prm/pocket_docking_8.prm

>  <SCORE>
-16.9746

>  <SCORE.INTER>
-16.9746

>  <SCORE.INTER.CONST>
1

>  <SCORE.INTER.POLAR>
0

>  <SCORE.INTER.ROT>
0

>  <SCORE.INTER.SOLV>
3.49794

>  <SCORE.INTER.VDW>
-16.0824

>  <SCORE.INTER.norm>
-1.69746

>  <SCORE.INTRA>
0

>  <SCORE.INTRA.DIHEDRAL>
0

>  <SCORE.INTRA.DIHEDRAL.0>
0

>  <SCORE.INTRA.POLAR>
0

>  <SCORE.INTRA.POLAR.0>
0

>  <SCORE.INTRA.REPUL>
0

>  <SCORE.INTRA.REPUL.0>
0

>  <SCORE.INTRA.SOLV>
0

>  <SCORE.INTRA.SOLV.lig_0>
-4.28614

>  <SCORE.INTRA.VDW>
0

>  <SCORE.INTRA.VDW.0>
0

>  <SCORE.INTRA.norm>
0

>  <SCORE.RESTR>
0

>  <SCORE.RESTR.CAVITY>
0

>  <SCORE.RESTR.norm>
0

>  <SCORE.SYSTEM>
0

>  <SCORE.SYSTEM.CONST>
0

>  <SCORE.SYSTEM.DIHEDRAL>
0

>  <SCORE.SYSTEM.SOLV>
0

>  <SCORE.SYSTEM.norm>
0

>  <SCORE.heavy>
10

>  <SCORE.norm>
-1.69746

>  <RMSD>
0.594

$$$$
ligand
 OpenBabel11021811423D
libRbt.so/2013.1/901 2013/11/27
 10 11  0  0  0  0  0  0  0  0999 V2000
  -12.0435  -11.0412    8.8802 N   0  0  0  0  0  0  0  0  0  0  0  0
  -11.8366  -12.4123    9.0447 C   0  0  0  0  0  0  0  0  0  0  0  0
  -11.4810  -13.2142    8.0251 N   0  0  0  0  0  0  0  0  0  0  0  0
  -11.3414  -12.5352    6.8180 C   0  0  0  0  0  0  0  0  0  0  0  0
  -11.5329  -11.1763    6.5613 C   0  0  0  0  0  0  0  0  0  0  0  0
  -11.9199  -10.3151    7.6480 C   0  0  0  0  0  0  0  0  0  0  0  0
  -12.1395   -9.1283    7.6788 O   0  0  0  0  0  0  0  0  0  0  0  0
  -11.2709  -10.9315    5.2010 N   0  0  0  0  0  0  0  0  0  0  0  0
  -10.9260  -12.1387    4.6771 C   0  0  0  0  0  0  0  0  0  0  0  0
  -10.9621  -13.1449    5.6526 N   0  0  0  0  0  0  0  0  0  0  0  0
  1  2  1  0  0  0  0
  1  6  1  0  0  0  0
  2  3  2  0  0  0  0
  3  4  1  0  0  0  0
  4  5  2  0  0  0  0
  4 10  1  0  0  0  0
  5  6  1  0  0  0  0
  5  8  1  0  0  0  0
  6  7  2  0  0  0  0
  8  9  1  0  0  0  0
  9 10  2  0  0  0  0
M  END
>  <CHROM.1>
-11.55689916,-11.55797280,7.03383818,-2.99470257,1.29393127,-0.69243926

>  <Name>
ligand

>  <RI>
0

>  <Rbt.Current_Directory>
/home/itssahil/PROJECTS/Mol_Feturizer/New_Systems/rnas/2EES

>  <Rbt.Executable>
rbdock ($Id: //depot/dev/client3/rdock/2013.1/src/exe/rbdock.cxx#4 $)

>  <Rbt.Library>
libRbt.so (2013.1, Build901 2013/11/27)

>  <Rbt.Parameter_File>
/export/apps/rDock/src/rDock_2013.1_src/data/scripts/dock_solv.prm

>  <Rbt.Receptor>
prm/pocket_docking_8.prm

>  <SCORE>
-16.9744

>  <SCORE.INTER>
-16.9744

>  <SCORE.INTER.CONST>
1

>  <SCORE.INTER.POLAR>
0

>  <SCORE.INTER.ROT>
0

>  <SCORE.INTER.SOLV>
3.49318

>  <SCORE.INTER.VDW>
-16.0807

>  <SCORE.INTER.norm>
-1.69744

>  <SCORE.INTRA>
0

>  <SCORE.INTRA.DIHEDRAL>
0

>  <SCORE.INTRA.DIHEDRAL.0>
0

>  <SCORE.INTRA.POLAR>
0

>  <SCORE.INTRA.POLAR.0>
0

>  <SCORE.INTRA.REPUL>
0

>  <SCORE.INTRA.REPUL.0>
0

>  <SCORE.INTRA.SOLV>
0

>  <SCORE.INTRA.SOLV.lig_0>
-4.28614

>  <SCORE.INTRA.VDW>
0

>  <SCORE.INTRA.VDW.0>
0

>  <SCORE.INTRA.norm>
0

>  <SCORE.RESTR>
0

>  <SCORE.RESTR.CAVITY>
0

>  <SCORE.RESTR.norm>
0

>  <SCORE.SYSTEM>
0

>  <SCORE.SYSTEM.CONST>
0

>  <SCORE.SYSTEM.DIHEDRAL>
0

>  <SCORE.SYSTEM.SOLV>
0

>  <SCORE.SYSTEM.norm>
0

>  <SCORE.heavy>
10

>  <SCORE.norm>
-1.69744

>  <RMSD>
0.594

$$$$
ligand
 OpenBabel11021811423D
libRbt.so/2013.1/901 2013/11/27
 10 11  0  0  0  0  0  0  0  0999 V2000
  -12.0488  -11.0316    8.8785 N   0  0  0  0  0  0  0  0  0  0  0  0
  -11.8513  -12.4033    9.0493 C   0  0  0  0  0  0  0  0  0  0  0  0
  -11.4989  -13.2118    8.0339 N   0  0  0  0  0  0  0  0  0  0  0  0
  -11.3526  -12.5390    6.8241 C   0  0  0  0  0  0  0  0  0  0  0  0
  -11.5347  -11.1800    6.5612 C   0  0  0  0  0  0  0  0  0  0  0  0
  -11.9181  -10.3116    7.6435 C   0  0  0  0  0  0  0  0  0  0  0  0
  -12.1300   -9.1233    7.6687 O   0  0  0  0  0  0  0  0  0  0  0  0
  -11.2684  -10.9427    5.2004 N   0  0  0  0  0  0  0  0  0  0  0  0
  -10.9305  -12.1544    4.6824 C   0  0  0  0  0  0  0  0  0  0  0  0
  -10.9750  -13.1562    5.6621 N   0  0  0  0  0  0  0  0  0  0  0  0
  1  2  1  0  0  0  0
  1  6  1  0  0  0  0
  2  3  2  0  0  0  0
  3  4  1  0  0  0  0
  4  5  2  0  0  0  0
  4 10  1  0  0  0  0
  5  6  1  0  0  0  0
  5  8  1  0  0  0  0
  6  7  2  0  0  0  0
  8  9  1  0  0  0  0
  9 10  2  0  0  0  0
M  END
>  <CHROM.1>
-11.56210270,-11.55945943,7.03535780,-3.01786811,1.29655017,-0.67442935

>  <Name>
ligand

>  <RI>
0

>  <Rbt.Current_Directory>
/home/itssahil/PROJECTS/Mol_Feturizer/New_Systems/rnas/2EES

>  <Rbt.Executable>
rbdock ($Id: //depot/dev/client3/rdock/2013.1/src/exe/rbdock.cxx#4 $)

>  <Rbt.Library>
libRbt.so (2013.1, Build901 2013/11/27)

>  <Rbt.Parameter_File>
/export/apps/rDock/src/rDock_2013.1_src/data/scripts/dock_solv.prm

>  <Rbt.Receptor>
prm/pocket_docking_8.prm

>  <SCORE>
-16.9751

>  <SCORE.INTER>
-16.9751

>  <SCORE.INTER.CONST>
1

>  <SCORE.INTER.POLAR>
0

>  <SCORE.INTER.ROT>
0

>  <SCORE.INTER.SOLV>
3.50429

>  <SCORE.INTER.VDW>
-16.0849

>  <SCORE.INTER.norm>
-1.69751

>  <SCORE.INTRA>
0

>  <SCORE.INTRA.DIHEDRAL>
0

>  <SCORE.INTRA.DIHEDRAL.0>
0

>  <SCORE.INTRA.POLAR>
0

>  <SCORE.INTRA.POLAR.0>
0

>  <SCORE.INTRA.REPUL>
0

>  <SCORE.INTRA.REPUL.0>
0

>  <SCORE.INTRA.SOLV>
0

>  <SCORE.INTRA.SOLV.lig_0>
-4.28614

>  <SCORE.INTRA.VDW>
0

>  <SCORE.INTRA.VDW.0>
0

>  <SCORE.INTRA.norm>
0

>  <SCORE.RESTR>
0

>  <SCORE.RESTR.CAVITY>
0

>  <SCORE.RESTR.norm>
0

>  <SCORE.SYSTEM>
0

>  <SCORE.SYSTEM.CONST>
0

>  <SCORE.SYSTEM.DIHEDRAL>
0

>  <SCORE.SYSTEM.SOLV>
0

>  <SCORE.SYSTEM.norm>
0

>  <SCORE.heavy>
10

>  <SCORE.norm>
-1.69751

>  <RMSD>
0.594

$$$$
ligand
 OpenBabel11021811423D
libRbt.so/2013.1/901 2013/11/27
 10 11  0  0  0  0  0  0  0  0999 V2000
  -12.0509  -11.0479    8.8780 N   0  0  0  0  0  0  0  0  0  0  0  0
  -11.8569  -12.4208    9.0426 C   0  0  0  0  0  0  0  0  0  0  0  0
  -11.5039  -13.2252    8.0241 N   0  0  0  0  0  0  0  0  0  0  0  0
  -11.3532  -12.5468    6.8179 C   0  0  0  0  0  0  0  0  0  0  0  0
  -11.5315  -11.1862    6.5613 C   0  0  0  0  0  0  0  0  0  0  0  0
  -11.9156  -10.3222    7.6469 C   0  0  0  0  0  0  0  0  0  0  0  0
  -12.1249   -9.1336    7.6774 O   0  0  0  0  0  0  0  0  0  0  0  0
  -11.2615  -10.9428    5.2023 N   0  0  0  0  0  0  0  0  0  0  0  0
  -10.9251  -12.1527    4.6791 C   0  0  0  0  0  0  0  0  0  0  0  0
  -10.9742  -13.1592    5.6538 N   0  0  0  0  0  0  0  0  0  0  0  0
  1  2  1  0  0  0  0
  1  6  1  0  0  0  0
  2  3  2  0  0  0  0
  3  4  1  0  0  0  0
  4  5  2  0  0  0  0
  4 10  1  0  0  0  0
  5  6  1  0  0  0  0
  5  8  1  0  0  0  0
  6  7  2  0  0  0  0
  8  9  1  0  0  0  0
  9 10  2  0  0  0  0
M  END
>  <CHROM.1>
-11.56095374,-11.56786254,7.03348637,-3.02981993,1.29608601,-0.65803406

>  <Name>
ligand

>  <RI>
0

>  <Rbt.Current_Directory>
/home/itssahil/PROJECTS/Mol_Feturizer/New_Systems/rnas/2EES

>  <Rbt.Executable>
rbdock ($Id: //depot/dev/client3/rdock/2013.1/src/exe/rbdock.cxx#4 $)

>  <Rbt.Library>
libRbt.so (2013.1, Build901 2013/11/27)

>  <Rbt.Parameter_File>
/export/apps/rDock/src/rDock_2013.1_src/data/scripts/dock_solv.prm

>  <Rbt.Receptor>
prm/blind_docking_100.prm

>  <SCORE>
-16.975

>  <SCORE.INTER>
-16.975

>  <SCORE.INTER.CONST>
1

>  <SCORE.INTER.POLAR>
0

>  <SCORE.INTER.ROT>
0

>  <SCORE.INTER.SOLV>
3.50772

>  <SCORE.INTER.VDW>
-16.0859

>  <SCORE.INTER.norm>
-1.6975

>  <SCORE.INTRA>
0

>  <SCORE.INTRA.DIHEDRAL>
0

>  <SCORE.INTRA.DIHEDRAL.0>
0

>  <SCORE.INTRA.POLAR>
0

>  <SCORE.INTRA.POLAR.0>
0

>  <SCORE.INTRA.REPUL>
0

>  <SCORE.INTRA.REPUL.0>
0

>  <SCORE.INTRA.SOLV>
0

>  <SCORE.INTRA.SOLV.lig_0>
-4.28614

>  <SCORE.INTRA.VDW>
0

>  <SCORE.INTRA.VDW.0>
0

>  <SCORE.INTRA.norm>
0

>  <SCORE.RESTR>
0

>  <SCORE.RESTR.CAVITY>
0

>  <SCORE.RESTR.norm>
0

>  <SCORE.SYSTEM>
0

>  <SCORE.SYSTEM.CONST>
0

>  <SCORE.SYSTEM.DIHEDRAL>
0

>  <SCORE.SYSTEM.SOLV>
0

>  <SCORE.SYSTEM.norm>
0

>  <SCORE.heavy>
10

>  <SCORE.norm>
-1.6975

>  <RMSD>
0.595

$$$$
ligand
 OpenBabel11021811423D
libRbt.so/2013.1/901 2013/11/27
 10 11  0  0  0  0  0  0  0  0999 V2000
  -12.0380  -11.0361    8.8805 N   0  0  0  0  0  0  0  0  0  0  0  0
  -11.8451  -12.4083    9.0517 C   0  0  0  0  0  0  0  0  0  0  0  0
  -11.5002  -13.2191    8.0355 N   0  0  0  0  0  0  0  0  0  0  0  0
  -11.3565  -12.5479    6.8245 C   0  0  0  0  0  0  0  0  0  0  0  0
  -11.5344  -11.1885    6.5612 C   0  0  0  0  0  0  0  0  0  0  0  0
  -11.9098  -10.3176    7.6444 C   0  0  0  0  0  0  0  0  0  0  0  0
  -12.1170   -9.1285    7.6694 O   0  0  0  0  0  0  0  0  0  0  0  0
  -11.2731  -10.9534    5.1990 N   0  0  0  0  0  0  0  0  0  0  0  0
  -10.9421  -12.1668    4.6806 C   0  0  0  0  0  0  0  0  0  0  0  0
  -10.9863  -13.1676    5.6614 N   0  0  0  0  0  0  0  0  0  0  0  0
  1  2  1  0  0  0  0
  1  6  1  0  0  0  0
  2  3  2  0  0  0  0
  3  4  1  0  0  0  0
  4  5  2  0  0  0  0
  4 10  1  0  0  0  0
  5  6  1  0  0  0  0
  5  8  1  0  0  0  0
  6  7  2  0  0  0  0
  8  9  1  0  0  0  0
  9 10  2  0  0  0  0
M  END
>  <CHROM.1>
-11.56129268,-11.56739691,7.03576758,-3.01913297,1.30235166,-0.67408793

>  <Name>
ligand

>  <RI>
0

>  <Rbt.Current_Directory>
/home/itssahil/PROJECTS/Mol_Feturizer/New_Systems/rnas/2EES

>  <Rbt.Executable>
rbdock ($Id: //depot/dev/client3/rdock/2013.1/src/exe/rbdock.cxx#4 $)

>  <Rbt.Library>
libRbt.so (2013.1, Build901 2013/11/27)

>  <Rbt.Parameter_File>
/export/apps/rDock/src/rDock_2013.1_src/data/scripts/dock_solv.prm

>  <Rbt.Receptor>
prm/pocket_docking_4.prm

>  <SCORE>
-16.9772

>  <SCORE.INTER>
-16.9772

>  <SCORE.INTER.CONST>
1

>  <SCORE.INTER.POLAR>
0

>  <SCORE.INTER.ROT>
0

>  <SCORE.INTER.SOLV>
3.52371

>  <SCORE.INTER.VDW>
-16.0927

>  <SCORE.INTER.norm>
-1.69772

>  <SCORE.INTRA>
0

>  <SCORE.INTRA.DIHEDRAL>
0

>  <SCORE.INTRA.DIHEDRAL.0>
0

>  <SCORE.INTRA.POLAR>
0

>  <SCORE.INTRA.POLAR.0>
0

>  <SCORE.INTRA.REPUL>
0

>  <SCORE.INTRA.REPUL.0>
0

>  <SCORE.INTRA.SOLV>
0

>  <SCORE.INTRA.SOLV.lig_0>
-4.28614

>  <SCORE.INTRA.VDW>
0

>  <SCORE.INTRA.VDW.0>
0

>  <SCORE.INTRA.norm>
0

>  <SCORE.RESTR>
0

>  <SCORE.RESTR.CAVITY>
0

>  <SCORE.RESTR.norm>
0

>  <SCORE.SYSTEM>
0

>  <SCORE.SYSTEM.CONST>
0

>  <SCORE.SYSTEM.DIHEDRAL>
0

>  <SCORE.SYSTEM.SOLV>
0

>  <SCORE.SYSTEM.norm>
0

>  <SCORE.heavy>
10

>  <SCORE.norm>
-1.69772

>  <RMSD>
0.595

$$$$
ligand
 OpenBabel11021811423D
libRbt.so/2013.1/901 2013/11/27
 10 11  0  0  0  0  0  0  0  0999 V2000
  -12.0360  -11.0479    8.8807 N   0  0  0  0  0  0  0  0  0  0  0  0
  -11.8328  -12.4194    9.0457 C   0  0  0  0  0  0  0  0  0  0  0  0
  -11.4830  -13.2232    8.0256 N   0  0  0  0  0  0  0  0  0  0  0  0
  -11.3453  -12.5456    6.8174 C   0  0  0  0  0  0  0  0  0  0  0  0
  -11.5334  -11.1863    6.5603 C   0  0  0  0  0  0  0  0  0  0  0  0
  -11.9142  -10.3231    7.6477 C   0  0  0  0  0  0  0  0  0  0  0  0
  -12.1301   -9.1356    7.6782 O   0  0  0  0  0  0  0  0  0  0  0  0
  -11.2751  -10.9433    5.1989 N   0  0  0  0  0  0  0  0  0  0  0  0
  -10.9357  -12.1520    4.6749 C   0  0  0  0  0  0  0  0  0  0  0  0
  -10.9716  -13.1574    5.6513 N   0  0  0  0  0  0  0  0  0  0  0  0
  1  2  1  0  0  0  0
  1  6  1  0  0  0  0
  2  3  2  0  0  0  0
  3  4  1  0  0  0  0
  4  5  2  0  0  0  0
  4 10  1  0  0  0  0
  5  6  1  0  0  0  0
  5  8  1  0  0  0  0
  6  7  2  0  0  0  0
  8  9  1  0  0  0  0
  9 10  2  0  0  0  0
M  END
>  <CHROM.1>
-11.55705694,-11.56754941,7.03323044,-2.99570205,1.29840108,-0.69224480

>  <Name>
ligand

>  <RI>
0

>  <Rbt.Current_Directory>
/home/itssahil/PROJECTS/Mol_Feturizer/New_Systems/rnas/2EES

>  <Rbt.Executable>
rbdock ($Id: //depot/dev/client3/rdock/2013.1/src/exe/rbdock.cxx#4 $)

>  <Rbt.Library>
libRbt.so (2013.1, Build901 2013/11/27)

>  <Rbt.Parameter_File>
/export/apps/rDock/src/rDock_2013.1_src/data/scripts/dock_solv.prm

>  <Rbt.Receptor>
prm/pocket_docking_5.prm

>  <SCORE>
-16.9777

>  <SCORE.INTER>
-16.9777

>  <SCORE.INTER.CONST>
1

>  <SCORE.INTER.POLAR>
0

>  <SCORE.INTER.ROT>
0

>  <SCORE.INTER.SOLV>
3.50699

>  <SCORE.INTER.VDW>
-16.0875

>  <SCORE.INTER.norm>
-1.69777

>  <SCORE.INTRA>
0

>  <SCORE.INTRA.DIHEDRAL>
0

>  <SCORE.INTRA.DIHEDRAL.0>
0

>  <SCORE.INTRA.POLAR>
0

>  <SCORE.INTRA.POLAR.0>
0

>  <SCORE.INTRA.REPUL>
0

>  <SCORE.INTRA.REPUL.0>
0

>  <SCORE.INTRA.SOLV>
0

>  <SCORE.INTRA.SOLV.lig_0>
-4.28614

>  <SCORE.INTRA.VDW>
0

>  <SCORE.INTRA.VDW.0>
0

>  <SCORE.INTRA.norm>
0

>  <SCORE.RESTR>
0

>  <SCORE.RESTR.CAVITY>
0

>  <SCORE.RESTR.norm>
0

>  <SCORE.SYSTEM>
0

>  <SCORE.SYSTEM.CONST>
0

>  <SCORE.SYSTEM.DIHEDRAL>
0

>  <SCORE.SYSTEM.SOLV>
0

>  <SCORE.SYSTEM.norm>
0

>  <SCORE.heavy>
10

>  <SCORE.norm>
-1.69777

>  <RMSD>
0.595

$$$$
ligand
 OpenBabel11021811423D
libRbt.so/2013.1/901 2013/11/27
 10 11  0  0  0  0  0  0  0  0999 V2000
  -12.0378  -11.0388    8.8793 N   0  0  0  0  0  0  0  0  0  0  0  0
  -11.8405  -12.4106    9.0494 C   0  0  0  0  0  0  0  0  0  0  0  0
  -11.4904  -13.2190    8.0330 N   0  0  0  0  0  0  0  0  0  0  0  0
  -11.3462  -12.5458    6.8231 C   0  0  0  0  0  0  0  0  0  0  0  0
  -11.5282  -11.1867    6.5610 C   0  0  0  0  0  0  0  0  0  0  0  0
  -11.9092  -10.3185    7.6443 C   0  0  0  0  0  0  0  0  0  0  0  0
  -12.1207   -9.1301    7.6703 O   0  0  0  0  0  0  0  0  0  0  0  0
  -11.2645  -10.9491    5.1997 N   0  0  0  0  0  0  0  0  0  0  0  0
  -10.9280  -12.1607    4.6807 C   0  0  0  0  0  0  0  0  0  0  0  0
  -10.9710  -13.1628    5.6602 N   0  0  0  0  0  0  0  0  0  0  0  0
  1  2  1  0  0  0  0
  1  6  1  0  0  0  0
  2  3  2  0  0  0  0
  3  4  1  0  0  0  0
  4  5  2  0  0  0  0
  4 10  1  0  0  0  0
  5  6  1  0  0  0  0
  5  8  1  0  0  0  0
  6  7  2  0  0  0  0
  8  9  1  0  0  0  0
  9 10  2  0  0  0  0
M  END
>  <CHROM.1>
-11.55488238,-11.56627611,7.03509523,-3.01444557,1.29829600,-0.67743440

>  <Name>
ligand

>  <RI>
0

>  <Rbt.Current_Directory>
/home/itssahil/PROJECTS/Mol_Feturizer/New_Systems/rnas/2EES

>  <Rbt.Executable>
rbdock ($Id: //depot/dev/client3/rdock/2013.1/src/exe/rbdock.cxx#4 $)

>  <Rbt.Library>
libRbt.so (2013.1, Build901 2013/11/27)

>  <Rbt.Parameter_File>
/export/apps/rDock/src/rDock_2013.1_src/data/scripts/dock_solv.prm

>  <Rbt.Receptor>
prm/pocket_docking_7.prm

>  <SCORE>
-16.9772

>  <SCORE.INTER>
-16.9772

>  <SCORE.INTER.CONST>
1

>  <SCORE.INTER.POLAR>
0

>  <SCORE.INTER.ROT>
0

>  <SCORE.INTER.SOLV>
3.51336

>  <SCORE.INTER.VDW>
-16.0892

>  <SCORE.INTER.norm>
-1.69772

>  <SCORE.INTRA>
0

>  <SCORE.INTRA.DIHEDRAL>
0

>  <SCORE.INTRA.DIHEDRAL.0>
0

>  <SCORE.INTRA.POLAR>
0

>  <SCORE.INTRA.POLAR.0>
0

>  <SCORE.INTRA.REPUL>
0

>  <SCORE.INTRA.REPUL.0>
0

>  <SCORE.INTRA.SOLV>
0

>  <SCORE.INTRA.SOLV.lig_0>
-4.28614

>  <SCORE.INTRA.VDW>
0

>  <SCORE.INTRA.VDW.0>
0

>  <SCORE.INTRA.norm>
0

>  <SCORE.RESTR>
0

>  <SCORE.RESTR.CAVITY>
0

>  <SCORE.RESTR.norm>
0

>  <SCORE.SYSTEM>
0

>  <SCORE.SYSTEM.CONST>
0

>  <SCORE.SYSTEM.DIHEDRAL>
0

>  <SCORE.SYSTEM.SOLV>
0

>  <SCORE.SYSTEM.norm>
0

>  <SCORE.heavy>
10

>  <SCORE.norm>
-1.69772

>  <RMSD>
0.595

$$$$
ligand
 OpenBabel11021811423D
libRbt.so/2013.1/901 2013/11/27
 10 11  0  0  0  0  0  0  0  0999 V2000
  -12.0384  -11.0332    8.8798 N   0  0  0  0  0  0  0  0  0  0  0  0
  -11.8427  -12.4051    9.0509 C   0  0  0  0  0  0  0  0  0  0  0  0
  -11.4957  -13.2150    8.0347 N   0  0  0  0  0  0  0  0  0  0  0  0
  -11.3529  -12.5433    6.8238 C   0  0  0  0  0  0  0  0  0  0  0  0
  -11.5335  -11.1842    6.5607 C   0  0  0  0  0  0  0  0  0  0  0  0
  -11.9112  -10.3143    7.6438 C   0  0  0  0  0  0  0  0  0  0  0  0
  -12.1208   -9.1257    7.6690 O   0  0  0  0  0  0  0  0  0  0  0  0
  -11.2722  -10.9484    5.1986 N   0  0  0  0  0  0  0  0  0  0  0  0
  -10.9384  -12.1611    4.6802 C   0  0  0  0  0  0  0  0  0  0  0  0
  -10.9809  -13.1621    5.6608 N   0  0  0  0  0  0  0  0  0  0  0  0
  1  2  1  0  0  0  0
  1  6  1  0  0  0  0
  2  3  2  0  0  0  0
  3  4  1  0  0  0  0
  4  5  2  0  0  0  0
  4 10  1  0  0  0  0
  5  6  1  0  0  0  0
  5  8  1  0  0  0  0
  6  7  2  0  0  0  0
  8  9  1  0  0  0  0
  9 10  2  0  0  0  0
M  END
>  <CHROM.1>
-11.55979523,-11.56329055,7.03519614,-3.01401428,1.30072897,-0.67888325

>  <Name>
ligand

>  <RI>
0

>  <Rbt.Current_Directory>
/home/itssahil/PROJECTS/Mol_Feturizer/New_Systems/rnas/2EES

>  <Rbt.Executable>
rbdock ($Id: //depot/dev/client3/rdock/2013.1/src/exe/rbdock.cxx#4 $)

>  <Rbt.Library>
libRbt.so (2013.1, Build901 2013/11/27)

>  <Rbt.Parameter_File>
/export/apps/rDock/src/rDock_2013.1_src/data/scripts/dock_solv.prm

>  <Rbt.Receptor>
prm/pocket_docking_5.prm

>  <SCORE>
-16.9775

>  <SCORE.INTER>
-16.9775

>  <SCORE.INTER.CONST>
1

>  <SCORE.INTER.POLAR>
0

>  <SCORE.INTER.ROT>
0

>  <SCORE.INTER.SOLV>
3.51848

>  <SCORE.INTER.VDW>
-16.0912

>  <SCORE.INTER.norm>
-1.69775

>  <SCORE.INTRA>
0

>  <SCORE.INTRA.DIHEDRAL>
0

>  <SCORE.INTRA.DIHEDRAL.0>
0

>  <SCORE.INTRA.POLAR>
0

>  <SCORE.INTRA.POLAR.0>
0

>  <SCORE.INTRA.REPUL>
0

>  <SCORE.INTRA.REPUL.0>
0

>  <SCORE.INTRA.SOLV>
0

>  <SCORE.INTRA.SOLV.lig_0>
-4.28614

>  <SCORE.INTRA.VDW>
0

>  <SCORE.INTRA.VDW.0>
0

>  <SCORE.INTRA.norm>
0

>  <SCORE.RESTR>
0

>  <SCORE.RESTR.CAVITY>
0

>  <SCORE.RESTR.norm>
0

>  <SCORE.SYSTEM>
0

>  <SCORE.SYSTEM.CONST>
0

>  <SCORE.SYSTEM.DIHEDRAL>
0

>  <SCORE.SYSTEM.SOLV>
0

>  <SCORE.SYSTEM.norm>
0

>  <SCORE.heavy>
10

>  <SCORE.norm>
-1.69775

>  <RMSD>
0.596

$$$$
ligand
 OpenBabel11021811423D
libRbt.so/2013.1/901 2013/11/27
 10 11  0  0  0  0  0  0  0  0999 V2000
  -12.0477  -11.0555    8.8776 N   0  0  0  0  0  0  0  0  0  0  0  0
  -11.8491  -12.4282    9.0386 C   0  0  0  0  0  0  0  0  0  0  0  0
  -11.4943  -13.2289    8.0178 N   0  0  0  0  0  0  0  0  0  0  0  0
  -11.3468  -12.5470    6.8132 C   0  0  0  0  0  0  0  0  0  0  0  0
  -11.5298  -11.1863    6.5602 C   0  0  0  0  0  0  0  0  0  0  0  0
  -11.9158  -10.3263    7.6482 C   0  0  0  0  0  0  0  0  0  0  0  0
  -12.1289   -9.1384    7.6819 O   0  0  0  0  0  0  0  0  0  0  0  0
  -11.2616  -10.9387    5.2015 N   0  0  0  0  0  0  0  0  0  0  0  0
  -10.9217  -12.1461    4.6751 C   0  0  0  0  0  0  0  0  0  0  0  0
  -10.9667  -13.1552    5.6473 N   0  0  0  0  0  0  0  0  0  0  0  0
  1  2  1  0  0  0  0
  1  6  1  0  0  0  0
  2  3  2  0  0  0  0
  3  4  1  0  0  0  0
  4  5  2  0  0  0  0
  4 10  1  0  0  0  0
  5  6  1  0  0  0  0
  5  8  1  0  0  0  0
  6  7  2  0  0  0  0
  8  9  1  0  0  0  0
  9 10  2  0  0  0  0
M  END
>  <CHROM.1>
-11.55755965,-11.56923912,7.03141505,-3.01854799,1.29471146,-0.66639357

>  <Name>
ligand

>  <RI>
0

>  <Rbt.Current_Directory>
/home/itssahil/PROJECTS/Mol_Feturizer/New_Systems/rnas/2EES

>  <Rbt.Executable>
rbdock ($Id: //depot/dev/client3/rdock/2013.1/src/exe/rbdock.cxx#4 $)

>  <Rbt.Library>
libRbt.so (2013.1, Build901 2013/11/27)

>  <Rbt.Parameter_File>
/export/apps/rDock/src/rDock_2013.1_src/data/scripts/dock_solv.prm

>  <Rbt.Receptor>
prm/pocket_docking_8.prm

>  <SCORE>
-16.9753

>  <SCORE.INTER>
-16.9753

>  <SCORE.INTER.CONST>
1

>  <SCORE.INTER.POLAR>
0

>  <SCORE.INTER.ROT>
0

>  <SCORE.INTER.SOLV>
3.50223

>  <SCORE.INTER.VDW>
-16.0843

>  <SCORE.INTER.norm>
-1.69753

>  <SCORE.INTRA>
0

>  <SCORE.INTRA.DIHEDRAL>
0

>  <SCORE.INTRA.DIHEDRAL.0>
0

>  <SCORE.INTRA.POLAR>
0

>  <SCORE.INTRA.POLAR.0>
0

>  <SCORE.INTRA.REPUL>
0

>  <SCORE.INTRA.REPUL.0>
0

>  <SCORE.INTRA.SOLV>
0

>  <SCORE.INTRA.SOLV.lig_0>
-4.28614

>  <SCORE.INTRA.VDW>
0

>  <SCORE.INTRA.VDW.0>
0

>  <SCORE.INTRA.norm>
0

>  <SCORE.RESTR>
0

>  <SCORE.RESTR.CAVITY>
0

>  <SCORE.RESTR.norm>
0

>  <SCORE.SYSTEM>
0

>  <SCORE.SYSTEM.CONST>
0

>  <SCORE.SYSTEM.DIHEDRAL>
0

>  <SCORE.SYSTEM.SOLV>
0

>  <SCORE.SYSTEM.norm>
0

>  <SCORE.heavy>
10

>  <SCORE.norm>
-1.69753

>  <RMSD>
0.596

$$$$
ligand
 OpenBabel11021811423D
libRbt.so/2013.1/901 2013/11/27
 10 11  0  0  0  0  0  0  0  0999 V2000
  -12.0448  -11.0220    8.8815 N   0  0  0  0  0  0  0  0  0  0  0  0
  -11.8691  -12.3955    9.0609 C   0  0  0  0  0  0  0  0  0  0  0  0
  -11.5352  -13.2168    8.0495 N   0  0  0  0  0  0  0  0  0  0  0  0
  -11.3837  -12.5548    6.8343 C   0  0  0  0  0  0  0  0  0  0  0  0
  -11.5446  -11.1949    6.5629 C   0  0  0  0  0  0  0  0  0  0  0  0
  -11.9083  -10.3128    7.6409 C   0  0  0  0  0  0  0  0  0  0  0  0
  -12.1004   -9.1210    7.6589 O   0  0  0  0  0  0  0  0  0  0  0  0
  -11.2812  -10.9714    5.1992 N   0  0  0  0  0  0  0  0  0  0  0  0
  -10.9658  -12.1920    4.6880 C   0  0  0  0  0  0  0  0  0  0  0  0
  -11.0221  -13.1862    5.6748 N   0  0  0  0  0  0  0  0  0  0  0  0
  1  2  1  0  0  0  0
  1  6  1  0  0  0  0
  2  3  2  0  0  0  0
  3  4  1  0  0  0  0
  4  5  2  0  0  0  0
  4 10  1  0  0  0  0
  5  6  1  0  0  0  0
  5  8  1  0  0  0  0
  6  7  2  0  0  0  0
  8  9  1  0  0  0  0
  9 10  2  0  0  0  0
M  END
>  <CHROM.1>
-11.57592898,-11.57052609,7.03977000,-3.05605157,1.31054243,-0.64452479

>  <Name>
ligand

>  <RI>
0

>  <Rbt.Current_Directory>
/home/itssahil/PROJECTS/Mol_Feturizer/New_Systems/rnas/2EES

>  <Rbt.Executable>
rbdock ($Id: //depot/dev/client3/rdock/2013.1/src/exe/rbdock.cxx#4 $)

>  <Rbt.Library>
libRbt.so (2013.1, Build901 2013/11/27)

>  <Rbt.Parameter_File>
/export/apps/rDock/src/rDock_2013.1_src/data/scripts/dock_solv.prm

>  <Rbt.Receptor>
prm/pocket_docking_8.prm

>  <SCORE>
-17.001

>  <SCORE.INTER>
-17.001

>  <SCORE.INTER.CONST>
1

>  <SCORE.INTER.POLAR>
0

>  <SCORE.INTER.ROT>
0

>  <SCORE.INTER.SOLV>
3.5527

>  <SCORE.INTER.VDW>
-16.1182

>  <SCORE.INTER.norm>
-1.7001

>  <SCORE.INTRA>
0

>  <SCORE.INTRA.DIHEDRAL>
0

>  <SCORE.INTRA.DIHEDRAL.0>
0

>  <SCORE.INTRA.POLAR>
0

>  <SCORE.INTRA.POLAR.0>
0

>  <SCORE.INTRA.REPUL>
0

>  <SCORE.INTRA.REPUL.0>
0

>  <SCORE.INTRA.SOLV>
0

>  <SCORE.INTRA.SOLV.lig_0>
-4.28614

>  <SCORE.INTRA.VDW>
0

>  <SCORE.INTRA.VDW.0>
0

>  <SCORE.INTRA.norm>
0

>  <SCORE.RESTR>
0

>  <SCORE.RESTR.CAVITY>
0

>  <SCORE.RESTR.norm>
0

>  <SCORE.SYSTEM>
0

>  <SCORE.SYSTEM.CONST>
0

>  <SCORE.SYSTEM.DIHEDRAL>
0

>  <SCORE.SYSTEM.SOLV>
0

>  <SCORE.SYSTEM.norm>
0

>  <SCORE.heavy>
10

>  <SCORE.norm>
-1.7001

>  <RMSD>
0.596

$$$$
ligand
 OpenBabel11021811423D
libRbt.so/2013.1/901 2013/11/27
 10 11  0  0  0  0  0  0  0  0999 V2000
  -12.0366  -11.0441    8.8798 N   0  0  0  0  0  0  0  0  0  0  0  0
  -11.8430  -12.4167    9.0474 C   0  0  0  0  0  0  0  0  0  0  0  0
  -11.4986  -13.2248    8.0288 N   0  0  0  0  0  0  0  0  0  0  0  0
  -11.3561  -12.5504    6.8194 C   0  0  0  0  0  0  0  0  0  0  0  0
  -11.5347  -11.1903    6.5597 C   0  0  0  0  0  0  0  0  0  0  0  0
  -11.9097  -10.3224    7.6454 C   0  0  0  0  0  0  0  0  0  0  0  0
  -12.1174   -9.1335    7.6737 O   0  0  0  0  0  0  0  0  0  0  0  0
  -11.2746  -10.9517    5.1979 N   0  0  0  0  0  0  0  0  0  0  0  0
  -10.9435  -12.1636    4.6762 C   0  0  0  0  0  0  0  0  0  0  0  0
  -10.9865  -13.1669    5.6544 N   0  0  0  0  0  0  0  0  0  0  0  0
  1  2  1  0  0  0  0
  1  6  1  0  0  0  0
  2  3  2  0  0  0  0
  3  4  1  0  0  0  0
  4  5  2  0  0  0  0
  4 10  1  0  0  0  0
  5  6  1  0  0  0  0
  5  8  1  0  0  0  0
  6  7  2  0  0  0  0
  8  9  1  0  0  0  0
  9 10  2  0  0  0  0
M  END
>  <CHROM.1>
-11.56108298,-11.57048956,7.03335209,-3.01606316,1.30267710,-0.67448801

>  <Name>
ligand

>  <RI>
0

>  <Rbt.Current_Directory>
/home/itssahil/PROJECTS/Mol_Feturizer/New_Systems/rnas/2EES

>  <Rbt.Executable>
rbdock ($Id: //depot/dev/client3/rdock/2013.1/src/exe/rbdock.cxx#4 $)

>  <Rbt.Library>
libRbt.so (2013.1, Build901 2013/11/27)

>  <Rbt.Parameter_File>
/export/apps/rDock/src/rDock_2013.1_src/data/scripts/dock_solv.prm

>  <Rbt.Receptor>
prm/pocket_docking_5.prm

>  <SCORE>
-16.9774

>  <SCORE.INTER>
-16.9774

>  <SCORE.INTER.CONST>
1

>  <SCORE.INTER.POLAR>
0

>  <SCORE.INTER.ROT>
0

>  <SCORE.INTER.SOLV>
3.52445

>  <SCORE.INTER.VDW>
-16.0931

>  <SCORE.INTER.norm>
-1.69774

>  <SCORE.INTRA>
0

>  <SCORE.INTRA.DIHEDRAL>
0

>  <SCORE.INTRA.DIHEDRAL.0>
0

>  <SCORE.INTRA.POLAR>
0

>  <SCORE.INTRA.POLAR.0>
0

>  <SCORE.INTRA.REPUL>
0

>  <SCORE.INTRA.REPUL.0>
0

>  <SCORE.INTRA.SOLV>
0

>  <SCORE.INTRA.SOLV.lig_0>
-4.28614

>  <SCORE.INTRA.VDW>
0

>  <SCORE.INTRA.VDW.0>
0

>  <SCORE.INTRA.norm>
0

>  <SCORE.RESTR>
0

>  <SCORE.RESTR.CAVITY>
0

>  <SCORE.RESTR.norm>
0

>  <SCORE.SYSTEM>
0

>  <SCORE.SYSTEM.CONST>
0

>  <SCORE.SYSTEM.DIHEDRAL>
0

>  <SCORE.SYSTEM.SOLV>
0

>  <SCORE.SYSTEM.norm>
0

>  <SCORE.heavy>
10

>  <SCORE.norm>
-1.69774

>  <RMSD>
0.597

$$$$
ligand
 OpenBabel11021811423D
libRbt.so/2013.1/901 2013/11/27
 10 11  0  0  0  0  0  0  0  0999 V2000
  -12.0424  -11.0459    8.8770 N   0  0  0  0  0  0  0  0  0  0  0  0
  -11.8451  -12.4184    9.0411 C   0  0  0  0  0  0  0  0  0  0  0  0
  -11.4932  -13.2220    8.0215 N   0  0  0  0  0  0  0  0  0  0  0  0
  -11.3471  -12.5432    6.8150 C   0  0  0  0  0  0  0  0  0  0  0  0
  -11.5289  -11.1829    6.5589 C   0  0  0  0  0  0  0  0  0  0  0  0
  -11.9119  -10.3198    7.6456 C   0  0  0  0  0  0  0  0  0  0  0  0
  -12.1236   -9.1316    7.6767 O   0  0  0  0  0  0  0  0  0  0  0  0
  -11.2630  -10.9390    5.1992 N   0  0  0  0  0  0  0  0  0  0  0  0
  -10.9255  -12.1481    4.6751 C   0  0  0  0  0  0  0  0  0  0  0  0
  -10.9699  -13.1548    5.6499 N   0  0  0  0  0  0  0  0  0  0  0  0
  1  2  1  0  0  0  0
  1  6  1  0  0  0  0
  2  3  2  0  0  0  0
  3  4  1  0  0  0  0
  4  5  2  0  0  0  0
  4 10  1  0  0  0  0
  5  6  1  0  0  0  0
  5  8  1  0  0  0  0
  6  7  2  0  0  0  0
  8  9  1  0  0  0  0
  9 10  2  0  0  0  0
M  END
>  <CHROM.1>
-11.55631535,-11.56471421,7.03119480,-3.01777263,1.29688867,-0.66958646

>  <Name>
ligand

>  <RI>
0

>  <Rbt.Current_Directory>
/home/itssahil/PROJECTS/Mol_Feturizer/New_Systems/rnas/2EES

>  <Rbt.Executable>
rbdock ($Id: //depot/dev/client3/rdock/2013.1/src/exe/rbdock.cxx#4 $)

>  <Rbt.Library>
libRbt.so (2013.1, Build901 2013/11/27)

>  <Rbt.Parameter_File>
/export/apps/rDock/src/rDock_2013.1_src/data/scripts/dock_solv.prm

>  <Rbt.Receptor>
prm/blind_docking_40.prm

>  <SCORE>
-16.9767

>  <SCORE.INTER>
-16.9767

>  <SCORE.INTER.CONST>
1

>  <SCORE.INTER.POLAR>
0

>  <SCORE.INTER.ROT>
0

>  <SCORE.INTER.SOLV>
3.51105

>  <SCORE.INTER.VDW>
-16.0882

>  <SCORE.INTER.norm>
-1.69767

>  <SCORE.INTRA>
0

>  <SCORE.INTRA.DIHEDRAL>
0

>  <SCORE.INTRA.DIHEDRAL.0>
0

>  <SCORE.INTRA.POLAR>
0

>  <SCORE.INTRA.POLAR.0>
0

>  <SCORE.INTRA.REPUL>
0

>  <SCORE.INTRA.REPUL.0>
0

>  <SCORE.INTRA.SOLV>
0

>  <SCORE.INTRA.SOLV.lig_0>
-4.28614

>  <SCORE.INTRA.VDW>
0

>  <SCORE.INTRA.VDW.0>
0

>  <SCORE.INTRA.norm>
0

>  <SCORE.RESTR>
0

>  <SCORE.RESTR.CAVITY>
0

>  <SCORE.RESTR.norm>
0

>  <SCORE.SYSTEM>
0

>  <SCORE.SYSTEM.CONST>
0

>  <SCORE.SYSTEM.DIHEDRAL>
0

>  <SCORE.SYSTEM.SOLV>
0

>  <SCORE.SYSTEM.norm>
0

>  <SCORE.heavy>
10

>  <SCORE.norm>
-1.69767

>  <RMSD>
0.598

$$$$
ligand
 OpenBabel11021811423D
libRbt.so/2013.1/901 2013/11/27
 10 11  0  0  0  0  0  0  0  0999 V2000
  -12.0459  -11.0461    8.8755 N   0  0  0  0  0  0  0  0  0  0  0  0
  -11.8546  -12.4193    9.0412 C   0  0  0  0  0  0  0  0  0  0  0  0
  -11.5029  -13.2252    8.0234 N   0  0  0  0  0  0  0  0  0  0  0  0
  -11.3505  -12.5480    6.8168 C   0  0  0  0  0  0  0  0  0  0  0  0
  -11.5261  -11.1872    6.5590 C   0  0  0  0  0  0  0  0  0  0  0  0
  -11.9088  -10.3216    7.6438 C   0  0  0  0  0  0  0  0  0  0  0  0
  -12.1158   -9.1326    7.6734 O   0  0  0  0  0  0  0  0  0  0  0  0
  -11.2552  -10.9455    5.1999 N   0  0  0  0  0  0  0  0  0  0  0  0
  -10.9209  -12.1564    4.6778 C   0  0  0  0  0  0  0  0  0  0  0  0
  -10.9723  -13.1620    5.6533 N   0  0  0  0  0  0  0  0  0  0  0  0
  1  2  1  0  0  0  0
  1  6  1  0  0  0  0
  2  3  2  0  0  0  0
  3  4  1  0  0  0  0
  4  5  2  0  0  0  0
  4 10  1  0  0  0  0
  5  6  1  0  0  0  0
  5  8  1  0  0  0  0
  6  7  2  0  0  0  0
  8  9  1  0  0  0  0
  9 10  2  0  0  0  0
M  END
>  <CHROM.1>
-11.55640686,-11.56845748,7.03150399,-3.03627624,1.29701185,-0.65260220

>  <Name>
ligand

>  <RI>
0

>  <Rbt.Current_Directory>
/home/itssahil/PROJECTS/Mol_Feturizer/New_Systems/rnas/2EES

>  <Rbt.Executable>
rbdock ($Id: //depot/dev/client3/rdock/2013.1/src/exe/rbdock.cxx#4 $)

>  <Rbt.Library>
libRbt.so (2013.1, Build901 2013/11/27)

>  <Rbt.Parameter_File>
/export/apps/rDock/src/rDock_2013.1_src/data/scripts/dock_solv.prm

>  <Rbt.Receptor>
prm/pocket_docking_5.prm

>  <SCORE>
-16.9745

>  <SCORE.INTER>
-16.9745

>  <SCORE.INTER.CONST>
1

>  <SCORE.INTER.POLAR>
0

>  <SCORE.INTER.ROT>
0

>  <SCORE.INTER.SOLV>
3.51663

>  <SCORE.INTER.VDW>
-16.0885

>  <SCORE.INTER.norm>
-1.69745

>  <SCORE.INTRA>
0

>  <SCORE.INTRA.DIHEDRAL>
0

>  <SCORE.INTRA.DIHEDRAL.0>
0

>  <SCORE.INTRA.POLAR>
0

>  <SCORE.INTRA.POLAR.0>
0

>  <SCORE.INTRA.REPUL>
0

>  <SCORE.INTRA.REPUL.0>
0

>  <SCORE.INTRA.SOLV>
0

>  <SCORE.INTRA.SOLV.lig_0>
-4.28614

>  <SCORE.INTRA.VDW>
0

>  <SCORE.INTRA.VDW.0>
0

>  <SCORE.INTRA.norm>
0

>  <SCORE.RESTR>
0

>  <SCORE.RESTR.CAVITY>
0

>  <SCORE.RESTR.norm>
0

>  <SCORE.SYSTEM>
0

>  <SCORE.SYSTEM.CONST>
0

>  <SCORE.SYSTEM.DIHEDRAL>
0

>  <SCORE.SYSTEM.SOLV>
0

>  <SCORE.SYSTEM.norm>
0

>  <SCORE.heavy>
10

>  <SCORE.norm>
-1.69745

>  <RMSD>
0.598

$$$$
ligand
 OpenBabel11021811423D
libRbt.so/2013.1/901 2013/11/27
 10 11  0  0  0  0  0  0  0  0999 V2000
  -12.0369  -11.0291    8.8761 N   0  0  0  0  0  0  0  0  0  0  0  0
  -11.8409  -12.4009    9.0473 C   0  0  0  0  0  0  0  0  0  0  0  0
  -11.4931  -13.2108    8.0314 N   0  0  0  0  0  0  0  0  0  0  0  0
  -11.3498  -12.5391    6.8206 C   0  0  0  0  0  0  0  0  0  0  0  0
  -11.5306  -11.1800    6.5573 C   0  0  0  0  0  0  0  0  0  0  0  0
  -11.9092  -10.3102    7.6401 C   0  0  0  0  0  0  0  0  0  0  0  0
  -12.1192   -9.1216    7.6651 O   0  0  0  0  0  0  0  0  0  0  0  0
  -11.2686  -10.9442    5.1954 N   0  0  0  0  0  0  0  0  0  0  0  0
  -10.9342  -12.1568    4.6772 C   0  0  0  0  0  0  0  0  0  0  0  0
  -10.9769  -13.1578    5.6578 N   0  0  0  0  0  0  0  0  0  0  0  0
  1  2  1  0  0  0  0
  1  6  1  0  0  0  0
  2  3  2  0  0  0  0
  3  4  1  0  0  0  0
  4  5  2  0  0  0  0
  4 10  1  0  0  0  0
  5  6  1  0  0  0  0
  5  8  1  0  0  0  0
  6  7  2  0  0  0  0
  8  9  1  0  0  0  0
  9 10  2  0  0  0  0
M  END
>  <CHROM.1>
-11.55708252,-11.55907030,7.03177187,-3.01452322,1.30008050,-0.67843179

>  <Name>
ligand

>  <RI>
0

>  <Rbt.Current_Directory>
/home/itssahil/PROJECTS/Mol_Feturizer/New_Systems/rnas/2EES

>  <Rbt.Executable>
rbdock ($Id: //depot/dev/client3/rdock/2013.1/src/exe/rbdock.cxx#4 $)

>  <Rbt.Library>
libRbt.so (2013.1, Build901 2013/11/27)

>  <Rbt.Parameter_File>
/export/apps/rDock/src/rDock_2013.1_src/data/scripts/dock_solv.prm

>  <Rbt.Receptor>
prm/blind_docking_100.prm

>  <SCORE>
-16.9769

>  <SCORE.INTER>
-16.9769

>  <SCORE.INTER.CONST>
1

>  <SCORE.INTER.POLAR>
0

>  <SCORE.INTER.ROT>
0

>  <SCORE.INTER.SOLV>
3.51981

>  <SCORE.INTER.VDW>
-16.0912

>  <SCORE.INTER.norm>
-1.69769

>  <SCORE.INTRA>
0

>  <SCORE.INTRA.DIHEDRAL>
0

>  <SCORE.INTRA.DIHEDRAL.0>
0

>  <SCORE.INTRA.POLAR>
0

>  <SCORE.INTRA.POLAR.0>
0

>  <SCORE.INTRA.REPUL>
0

>  <SCORE.INTRA.REPUL.0>
0

>  <SCORE.INTRA.SOLV>
0

>  <SCORE.INTRA.SOLV.lig_0>
-4.28614

>  <SCORE.INTRA.VDW>
0

>  <SCORE.INTRA.VDW.0>
0

>  <SCORE.INTRA.norm>
0

>  <SCORE.RESTR>
0

>  <SCORE.RESTR.CAVITY>
0

>  <SCORE.RESTR.norm>
0

>  <SCORE.SYSTEM>
0

>  <SCORE.SYSTEM.CONST>
0

>  <SCORE.SYSTEM.DIHEDRAL>
0

>  <SCORE.SYSTEM.SOLV>
0

>  <SCORE.SYSTEM.norm>
0

>  <SCORE.heavy>
10

>  <SCORE.norm>
-1.69769

>  <RMSD>
0.600

$$$$
ligand
 OpenBabel11021811423D
libRbt.so/2013.1/901 2013/11/27
 10 11  0  0  0  0  0  0  0  0999 V2000
  -12.0408  -11.0002    8.8719 N   0  0  0  0  0  0  0  0  0  0  0  0
  -11.8657  -12.3724    9.0616 C   0  0  0  0  0  0  0  0  0  0  0  0
  -11.5297  -13.2010    8.0568 N   0  0  0  0  0  0  0  0  0  0  0  0
  -11.3757  -12.5479    6.8372 C   0  0  0  0  0  0  0  0  0  0  0  0
  -11.5359  -11.1899    6.5556 C   0  0  0  0  0  0  0  0  0  0  0  0
  -11.9017  -10.3000    7.6265 C   0  0  0  0  0  0  0  0  0  0  0  0
  -12.0938   -9.1081    7.6354 O   0  0  0  0  0  0  0  0  0  0  0  0
  -11.2697  -10.9763    5.1908 N   0  0  0  0  0  0  0  0  0  0  0  0
  -10.9535  -12.2006    4.6892 C   0  0  0  0  0  0  0  0  0  0  0  0
  -11.0118  -13.1876    5.6831 N   0  0  0  0  0  0  0  0  0  0  0  0
  1  2  1  0  0  0  0
  1  6  1  0  0  0  0
  2  3  2  0  0  0  0
  3  4  1  0  0  0  0
  4  5  2  0  0  0  0
  4 10  1  0  0  0  0
  5  6  1  0  0  0  0
  5  8  1  0  0  0  0
  6  7  2  0  0  0  0
  8  9  1  0  0  0  0
  9 10  2  0  0  0  0
M  END
>  <CHROM.1>
-11.56829734,-11.56209527,7.03513571,-3.06107944,1.30897006,-0.64691517

>  <Name>
ligand

>  <RI>
0

>  <Rbt.Current_Directory>
/home/itssahil/PROJECTS/Mol_Feturizer/New_Systems/rnas/2EES

>  <Rbt.Executable>
rbdock ($Id: //depot/dev/client3/rdock/2013.1/src/exe/rbdock.cxx#4 $)

>  <Rbt.Library>
libRbt.so (2013.1, Build901 2013/11/27)

>  <Rbt.Parameter_File>
/export/apps/rDock/src/rDock_2013.1_src/data/scripts/dock_solv.prm

>  <Rbt.Receptor>
prm/blind_docking_40.prm

>  <SCORE>
-16.998

>  <SCORE.INTER>
-16.998

>  <SCORE.INTER.CONST>
1

>  <SCORE.INTER.POLAR>
0

>  <SCORE.INTER.ROT>
0

>  <SCORE.INTER.SOLV>
3.56096

>  <SCORE.INTER.VDW>
-16.119

>  <SCORE.INTER.norm>
-1.6998

>  <SCORE.INTRA>
0

>  <SCORE.INTRA.DIHEDRAL>
0

>  <SCORE.INTRA.DIHEDRAL.0>
0

>  <SCORE.INTRA.POLAR>
0

>  <SCORE.INTRA.POLAR.0>
0

>  <SCORE.INTRA.REPUL>
0

>  <SCORE.INTRA.REPUL.0>
0

>  <SCORE.INTRA.SOLV>
0

>  <SCORE.INTRA.SOLV.lig_0>
-4.28614

>  <SCORE.INTRA.VDW>
0

>  <SCORE.INTRA.VDW.0>
0

>  <SCORE.INTRA.norm>
0

>  <SCORE.RESTR>
0

>  <SCORE.RESTR.CAVITY>
0

>  <SCORE.RESTR.norm>
0

>  <SCORE.SYSTEM>
0

>  <SCORE.SYSTEM.CONST>
0

>  <SCORE.SYSTEM.DIHEDRAL>
0

>  <SCORE.SYSTEM.SOLV>
0

>  <SCORE.SYSTEM.norm>
0

>  <SCORE.heavy>
10

>  <SCORE.norm>
-1.6998

>  <RMSD>
0.602

$$$$
ligand
 OpenBabel11021811423D
libRbt.so/2013.1/901 2013/11/27
 10 11  0  0  0  0  0  0  0  0999 V2000
  -12.0176  -11.0543    8.8782 N   0  0  0  0  0  0  0  0  0  0  0  0
  -11.8152  -12.4259    9.0429 C   0  0  0  0  0  0  0  0  0  0  0  0
  -11.4740  -13.2312    8.0210 N   0  0  0  0  0  0  0  0  0  0  0  0
  -11.3443  -12.5549    6.8112 C   0  0  0  0  0  0  0  0  0  0  0  0
  -11.5324  -11.1956    6.5542 C   0  0  0  0  0  0  0  0  0  0  0  0
  -11.9039  -10.3308    7.6435 C   0  0  0  0  0  0  0  0  0  0  0  0
  -12.1179   -9.1430    7.6745 O   0  0  0  0  0  0  0  0  0  0  0  0
  -11.2838  -10.9543    5.1908 N   0  0  0  0  0  0  0  0  0  0  0  0
  -10.9499  -12.1639    4.6654 C   0  0  0  0  0  0  0  0  0  0  0  0
  -10.9801  -13.1683    5.6429 N   0  0  0  0  0  0  0  0  0  0  0  0
  1  2  1  0  0  0  0
  1  6  1  0  0  0  0
  2  3  2  0  0  0  0
  3  4  1  0  0  0  0
  4  5  2  0  0  0  0
  4 10  1  0  0  0  0
  5  6  1  0  0  0  0
  5  8  1  0  0  0  0
  6  7  2  0  0  0  0
  8  9  1  0  0  0  0
  9 10  2  0  0  0  0
M  END
>  <CHROM.1>
-11.55307263,-11.57633789,7.02766719,-2.98194062,1.30497188,-0.70646022

>  <Name>
ligand

>  <RI>
0

>  <Rbt.Current_Directory>
/home/itssahil/PROJECTS/Mol_Feturizer/New_Systems/rnas/2EES

>  <Rbt.Executable>
rbdock ($Id: //depot/dev/client3/rdock/2013.1/src/exe/rbdock.cxx#4 $)

>  <Rbt.Library>
libRbt.so (2013.1, Build901 2013/11/27)

>  <Rbt.Parameter_File>
/export/apps/rDock/src/rDock_2013.1_src/data/scripts/dock_solv.prm

>  <Rbt.Receptor>
prm/blind_docking_80.prm

>  <SCORE>
-16.9385

>  <SCORE.INTER>
-16.9385

>  <SCORE.INTER.CONST>
1

>  <SCORE.INTER.POLAR>
0

>  <SCORE.INTER.ROT>
0

>  <SCORE.INTER.SOLV>
3.52741

>  <SCORE.INTER.VDW>
-16.0681

>  <SCORE.INTER.norm>
-1.69385

>  <SCORE.INTRA>
0

>  <SCORE.INTRA.DIHEDRAL>
0

>  <SCORE.INTRA.DIHEDRAL.0>
0

>  <SCORE.INTRA.POLAR>
0

>  <SCORE.INTRA.POLAR.0>
0

>  <SCORE.INTRA.REPUL>
0

>  <SCORE.INTRA.REPUL.0>
0

>  <SCORE.INTRA.SOLV>
0

>  <SCORE.INTRA.SOLV.lig_0>
-4.28614

>  <SCORE.INTRA.VDW>
0

>  <SCORE.INTRA.VDW.0>
0

>  <SCORE.INTRA.norm>
0

>  <SCORE.RESTR>
0

>  <SCORE.RESTR.CAVITY>
0

>  <SCORE.RESTR.norm>
0

>  <SCORE.SYSTEM>
0

>  <SCORE.SYSTEM.CONST>
0

>  <SCORE.SYSTEM.DIHEDRAL>
0

>  <SCORE.SYSTEM.SOLV>
0

>  <SCORE.SYSTEM.norm>
0

>  <SCORE.heavy>
10

>  <SCORE.norm>
-1.69385

>  <RMSD>
0.602

$$$$
ligand
 OpenBabel11021811423D
libRbt.so/2013.1/901 2013/11/27
 10 11  0  0  0  0  0  0  0  0999 V2000
  -12.0415  -11.0404    8.8749 N   0  0  0  0  0  0  0  0  0  0  0  0
  -11.8513  -12.4139    9.0396 C   0  0  0  0  0  0  0  0  0  0  0  0
  -11.5052  -13.2201    8.0201 N   0  0  0  0  0  0  0  0  0  0  0  0
  -11.3573  -12.5429    6.8129 C   0  0  0  0  0  0  0  0  0  0  0  0
  -11.5322  -11.1819    6.5561 C   0  0  0  0  0  0  0  0  0  0  0  0
  -11.9089  -10.3159    7.6428 C   0  0  0  0  0  0  0  0  0  0  0  0
  -12.1142   -9.1266    7.6734 O   0  0  0  0  0  0  0  0  0  0  0  0
  -11.2671  -10.9403    5.1958 N   0  0  0  0  0  0  0  0  0  0  0  0
  -10.9368  -12.1516    4.6721 C   0  0  0  0  0  0  0  0  0  0  0  0
  -10.9852  -13.1573    5.6476 N   0  0  0  0  0  0  0  0  0  0  0  0
  1  2  1  0  0  0  0
  1  6  1  0  0  0  0
  2  3  2  0  0  0  0
  3  4  1  0  0  0  0
  4  5  2  0  0  0  0
  4 10  1  0  0  0  0
  5  6  1  0  0  0  0
  5  8  1  0  0  0  0
  6  7  2  0  0  0  0
  8  9  1  0  0  0  0
  9 10  2  0  0  0  0
M  END
>  <CHROM.1>
-11.56095054,-11.56316903,7.02870039,-3.02999955,1.30139799,-0.65851710

>  <Name>
ligand

>  <RI>
0

>  <Rbt.Current_Directory>
/home/itssahil/PROJECTS/Mol_Feturizer/New_Systems/rnas/2EES

>  <Rbt.Executable>
rbdock ($Id: //depot/dev/client3/rdock/2013.1/src/exe/rbdock.cxx#4 $)

>  <Rbt.Library>
libRbt.so (2013.1, Build901 2013/11/27)

>  <Rbt.Parameter_File>
/export/apps/rDock/src/rDock_2013.1_src/data/scripts/dock_solv.prm

>  <Rbt.Receptor>
prm/pocket_docking_4.prm

>  <SCORE>
-16.9768

>  <SCORE.INTER>
-16.9768

>  <SCORE.INTER.CONST>
1

>  <SCORE.INTER.POLAR>
0

>  <SCORE.INTER.ROT>
0

>  <SCORE.INTER.SOLV>
3.52818

>  <SCORE.INTER.VDW>
-16.0939

>  <SCORE.INTER.norm>
-1.69768

>  <SCORE.INTRA>
0

>  <SCORE.INTRA.DIHEDRAL>
0

>  <SCORE.INTRA.DIHEDRAL.0>
0

>  <SCORE.INTRA.POLAR>
0

>  <SCORE.INTRA.POLAR.0>
0

>  <SCORE.INTRA.REPUL>
0

>  <SCORE.INTRA.REPUL.0>
0

>  <SCORE.INTRA.SOLV>
0

>  <SCORE.INTRA.SOLV.lig_0>
-4.28614

>  <SCORE.INTRA.VDW>
0

>  <SCORE.INTRA.VDW.0>
0

>  <SCORE.INTRA.norm>
0

>  <SCORE.RESTR>
0

>  <SCORE.RESTR.CAVITY>
0

>  <SCORE.RESTR.norm>
0

>  <SCORE.SYSTEM>
0

>  <SCORE.SYSTEM.CONST>
0

>  <SCORE.SYSTEM.DIHEDRAL>
0

>  <SCORE.SYSTEM.SOLV>
0

>  <SCORE.SYSTEM.norm>
0

>  <SCORE.heavy>
10

>  <SCORE.norm>
-1.69768

>  <RMSD>
0.602

$$$$
ligand
 OpenBabel11021811423D
libRbt.so/2013.1/901 2013/11/27
 10 11  0  0  0  0  0  0  0  0999 V2000
  -12.0518  -11.5149    8.9824 N   0  0  0  0  0  0  0  0  0  0  0  0
  -11.7942  -12.8869    8.9533 C   0  0  0  0  0  0  0  0  0  0  0  0
  -11.4280  -13.5269    7.8284 N   0  0  0  0  0  0  0  0  0  0  0  0
  -11.3331  -12.6834    6.7251 C   0  0  0  0  0  0  0  0  0  0  0  0
  -11.5765  -11.3102    6.6612 C   0  0  0  0  0  0  0  0  0  0  0  0
  -11.9748  -10.6219    7.8612 C   0  0  0  0  0  0  0  0  0  0  0  0
  -12.2354   -9.4596    8.0584 O   0  0  0  0  0  0  0  0  0  0  0  0
  -11.3465  -10.8707    5.3447 N   0  0  0  0  0  0  0  0  0  0  0  0
  -10.9685  -11.9805    4.6548 C   0  0  0  0  0  0  0  0  0  0  0  0
  -10.9525  -13.1123    5.4821 N   0  0  0  0  0  0  0  0  0  0  0  0
  1  2  1  0  0  0  0
  1  6  1  0  0  0  0
  2  3  2  0  0  0  0
  3  4  1  0  0  0  0
  4  5  2  0  0  0  0
  4 10  1  0  0  0  0
  5  6  1  0  0  0  0
  5  8  1  0  0  0  0
  6  7  2  0  0  0  0
  8  9  1  0  0  0  0
  9 10  2  0  0  0  0
M  END
>  <CHROM.1>
-11.57898726,-11.75393476,7.07664945,-2.86101564,1.28222483,-0.68229059

>  <Name>
ligand

>  <RI>
0

>  <Rbt.Current_Directory>
/home/itssahil/PROJECTS/Mol_Feturizer/New_Systems/rnas/2EES

>  <Rbt.Executable>
rbdock ($Id: //depot/dev/client3/rdock/2013.1/src/exe/rbdock.cxx#4 $)

>  <Rbt.Library>
libRbt.so (2013.1, Build901 2013/11/27)

>  <Rbt.Parameter_File>
/export/apps/rDock/src/rDock_2013.1_src/data/scripts/dock_solv.prm

>  <Rbt.Receptor>
prm/pocket_docking_7.prm

>  <SCORE>
-16.8123

>  <SCORE.INTER>
-16.8123

>  <SCORE.INTER.CONST>
1

>  <SCORE.INTER.POLAR>
0

>  <SCORE.INTER.ROT>
0

>  <SCORE.INTER.SOLV>
3.56313

>  <SCORE.INTER.VDW>
-15.9959

>  <SCORE.INTER.norm>
-1.68123

>  <SCORE.INTRA>
0

>  <SCORE.INTRA.DIHEDRAL>
0

>  <SCORE.INTRA.DIHEDRAL.0>
0

>  <SCORE.INTRA.POLAR>
0

>  <SCORE.INTRA.POLAR.0>
0

>  <SCORE.INTRA.REPUL>
0

>  <SCORE.INTRA.REPUL.0>
0

>  <SCORE.INTRA.SOLV>
0

>  <SCORE.INTRA.SOLV.lig_0>
-4.28614

>  <SCORE.INTRA.VDW>
0

>  <SCORE.INTRA.VDW.0>
0

>  <SCORE.INTRA.norm>
0

>  <SCORE.RESTR>
0

>  <SCORE.RESTR.CAVITY>
0

>  <SCORE.RESTR.norm>
0

>  <SCORE.SYSTEM>
0

>  <SCORE.SYSTEM.CONST>
0

>  <SCORE.SYSTEM.DIHEDRAL>
0

>  <SCORE.SYSTEM.SOLV>
0

>  <SCORE.SYSTEM.norm>
0

>  <SCORE.heavy>
10

>  <SCORE.norm>
-1.68123

>  <RMSD>
0.602

$$$$
ligand
 OpenBabel11021811423D
libRbt.so/2013.1/901 2013/11/27
 10 11  0  0  0  0  0  0  0  0999 V2000
  -11.9657  -11.0872    8.8810 N   0  0  0  0  0  0  0  0  0  0  0  0
  -11.7254  -12.4534    9.0397 C   0  0  0  0  0  0  0  0  0  0  0  0
  -11.3835  -13.2486    8.0102 N   0  0  0  0  0  0  0  0  0  0  0  0
  -11.2942  -12.5680    6.7992 C   0  0  0  0  0  0  0  0  0  0  0  0
  -11.5217  -11.2137    6.5480 C   0  0  0  0  0  0  0  0  0  0  0  0
  -11.8941  -10.3597    7.6455 C   0  0  0  0  0  0  0  0  0  0  0  0
  -12.1376   -9.1778    7.6824 O   0  0  0  0  0  0  0  0  0  0  0  0
  -11.3055  -10.9647    5.1804 N   0  0  0  0  0  0  0  0  0  0  0  0
  -10.9511  -12.1648    4.6468 C   0  0  0  0  0  0  0  0  0  0  0  0
  -10.9370  -13.1707    5.6232 N   0  0  0  0  0  0  0  0  0  0  0  0
  1  2  1  0  0  0  0
  1  6  1  0  0  0  0
  2  3  2  0  0  0  0
  3  4  1  0  0  0  0
  4  5  2  0  0  0  0
  4 10  1  0  0  0  0
  5  6  1  0  0  0  0
  5  8  1  0  0  0  0
  6  7  2  0  0  0  0
  8  9  1  0  0  0  0
  9 10  2  0  0  0  0
M  END
>  <CHROM.1>
-11.52362383,-11.59531829,7.02112887,-2.86231701,1.30121440,-0.82054126

>  <Name>
ligand

>  <RI>
0

>  <Rbt.Current_Directory>
/home/itssahil/PROJECTS/Mol_Feturizer/New_Systems/rnas/2EES

>  <Rbt.Executable>
rbdock ($Id: //depot/dev/client3/rdock/2013.1/src/exe/rbdock.cxx#4 $)

>  <Rbt.Library>
libRbt.so (2013.1, Build901 2013/11/27)

>  <Rbt.Parameter_File>
/export/apps/rDock/src/rDock_2013.1_src/data/scripts/dock_solv.prm

>  <Rbt.Receptor>
prm/blind_docking_60.prm

>  <SCORE>
-16.956

>  <SCORE.INTER>
-16.956

>  <SCORE.INTER.CONST>
1

>  <SCORE.INTER.POLAR>
0

>  <SCORE.INTER.ROT>
0

>  <SCORE.INTER.SOLV>
3.51773

>  <SCORE.INTER.VDW>
-16.0766

>  <SCORE.INTER.norm>
-1.6956

>  <SCORE.INTRA>
0

>  <SCORE.INTRA.DIHEDRAL>
0

>  <SCORE.INTRA.DIHEDRAL.0>
0

>  <SCORE.INTRA.POLAR>
0

>  <SCORE.INTRA.POLAR.0>
0

>  <SCORE.INTRA.REPUL>
0

>  <SCORE.INTRA.REPUL.0>
0

>  <SCORE.INTRA.SOLV>
0

>  <SCORE.INTRA.SOLV.lig_0>
-4.28614

>  <SCORE.INTRA.VDW>
0

>  <SCORE.INTRA.VDW.0>
0

>  <SCORE.INTRA.norm>
0

>  <SCORE.RESTR>
0

>  <SCORE.RESTR.CAVITY>
0

>  <SCORE.RESTR.norm>
0

>  <SCORE.SYSTEM>
0

>  <SCORE.SYSTEM.CONST>
0

>  <SCORE.SYSTEM.DIHEDRAL>
0

>  <SCORE.SYSTEM.SOLV>
0

>  <SCORE.SYSTEM.norm>
0

>  <SCORE.heavy>
10

>  <SCORE.norm>
-1.6956

>  <RMSD>
0.608

$$$$
ligand
 OpenBabel11021811423D
libRbt.so/2013.1/901 2013/11/27
 10 11  0  0  0  0  0  0  0  0999 V2000
  -12.0133  -11.0623    8.8667 N   0  0  0  0  0  0  0  0  0  0  0  0
  -11.7738  -12.4292    9.0211 C   0  0  0  0  0  0  0  0  0  0  0  0
  -11.4071  -13.2164    7.9941 N   0  0  0  0  0  0  0  0  0  0  0  0
  -11.2918  -12.5270    6.7902 C   0  0  0  0  0  0  0  0  0  0  0  0
  -11.5164  -11.1713    6.5435 C   0  0  0  0  0  0  0  0  0  0  0  0
  -11.9153  -10.3259    7.6383 C   0  0  0  0  0  0  0  0  0  0  0  0
  -12.1620   -9.1448    7.6781 O   0  0  0  0  0  0  0  0  0  0  0  0
  -11.2698  -10.9121    5.1829 N   0  0  0  0  0  0  0  0  0  0  0  0
  -10.9010  -12.1078    4.6491 C   0  0  0  0  0  0  0  0  0  0  0  0
  -10.9069  -13.1206    5.6184 N   0  0  0  0  0  0  0  0  0  0  0  0
  1  2  1  0  0  0  0
  1  6  1  0  0  0  0
  2  3  2  0  0  0  0
  3  4  1  0  0  0  0
  4  5  2  0  0  0  0
  4 10  1  0  0  0  0
  5  6  1  0  0  0  0
  5  8  1  0  0  0  0
  6  7  2  0  0  0  0
  8  9  1  0  0  0  0
  9 10  2  0  0  0  0
M  END
>  <CHROM.1>
-11.52820039,-11.55631892,7.01377759,-2.91582749,1.28389397,-0.76197193

>  <Name>
ligand

>  <RI>
0

>  <Rbt.Current_Directory>
/home/itssahil/PROJECTS/Mol_Feturizer/New_Systems/rnas/2EES

>  <Rbt.Executable>
rbdock ($Id: //depot/dev/client3/rdock/2013.1/src/exe/rbdock.cxx#4 $)

>  <Rbt.Library>
libRbt.so (2013.1, Build901 2013/11/27)

>  <Rbt.Parameter_File>
/export/apps/rDock/src/rDock_2013.1_src/data/scripts/dock_solv.prm

>  <Rbt.Receptor>
prm/pocket_docking_7.prm

>  <SCORE>
-16.9343

>  <SCORE.INTER>
-16.9343

>  <SCORE.INTER.CONST>
1

>  <SCORE.INTER.POLAR>
0

>  <SCORE.INTER.ROT>
0

>  <SCORE.INTER.SOLV>
3.4662

>  <SCORE.INTER.VDW>
-16.0449

>  <SCORE.INTER.norm>
-1.69343

>  <SCORE.INTRA>
0

>  <SCORE.INTRA.DIHEDRAL>
0

>  <SCORE.INTRA.DIHEDRAL.0>
0

>  <SCORE.INTRA.POLAR>
0

>  <SCORE.INTRA.POLAR.0>
0

>  <SCORE.INTRA.REPUL>
0

>  <SCORE.INTRA.REPUL.0>
0

>  <SCORE.INTRA.SOLV>
0

>  <SCORE.INTRA.SOLV.lig_0>
-4.28614

>  <SCORE.INTRA.VDW>
0

>  <SCORE.INTRA.VDW.0>
0

>  <SCORE.INTRA.norm>
0

>  <SCORE.RESTR>
0

>  <SCORE.RESTR.CAVITY>
0

>  <SCORE.RESTR.norm>
0

>  <SCORE.SYSTEM>
0

>  <SCORE.SYSTEM.CONST>
0

>  <SCORE.SYSTEM.DIHEDRAL>
0

>  <SCORE.SYSTEM.SOLV>
0

>  <SCORE.SYSTEM.norm>
0

>  <SCORE.heavy>
10

>  <SCORE.norm>
-1.69343

>  <RMSD>
0.612

$$$$
ligand
 OpenBabel11021811423D
libRbt.so/2013.1/901 2013/11/27
 10 11  0  0  0  0  0  0  0  0999 V2000
  -12.0691  -10.9807    8.8569 N   0  0  0  0  0  0  0  0  0  0  0  0
  -11.9212  -12.3553    9.0524 C   0  0  0  0  0  0  0  0  0  0  0  0
  -11.5839  -13.1921    8.0549 N   0  0  0  0  0  0  0  0  0  0  0  0
  -11.3990  -12.5448    6.8365 C   0  0  0  0  0  0  0  0  0  0  0  0
  -11.5307  -11.1849    6.5495 C   0  0  0  0  0  0  0  0  0  0  0  0
  -11.8978  -10.2861    7.6124 C   0  0  0  0  0  0  0  0  0  0  0  0
  -12.0689   -9.0910    7.6157 O   0  0  0  0  0  0  0  0  0  0  0  0
  -11.2390  -10.9794    5.1887 N   0  0  0  0  0  0  0  0  0  0  0  0
  -10.9364  -12.2103    4.6948 C   0  0  0  0  0  0  0  0  0  0  0  0
  -11.0280  -13.1937    5.6897 N   0  0  0  0  0  0  0  0  0  0  0  0
  1  2  1  0  0  0  0
  1  6  1  0  0  0  0
  2  3  2  0  0  0  0
  3  4  1  0  0  0  0
  4  5  2  0  0  0  0
  4 10  1  0  0  0  0
  5  6  1  0  0  0  0
  5  8  1  0  0  0  0
  6  7  2  0  0  0  0
  8  9  1  0  0  0  0
  9 10  2  0  0  0  0
M  END
>  <CHROM.1>
-11.57727140,-11.55528576,7.02921808,3.13152440,1.30580783,-0.56175572

>  <Name>
ligand

>  <RI>
0

>  <Rbt.Current_Directory>
/home/itssahil/PROJECTS/Mol_Feturizer/New_Systems/rnas/2EES

>  <Rbt.Executable>
rbdock ($Id: //depot/dev/client3/rdock/2013.1/src/exe/rbdock.cxx#4 $)

>  <Rbt.Library>
libRbt.so (2013.1, Build901 2013/11/27)

>  <Rbt.Parameter_File>
/export/apps/rDock/src/rDock_2013.1_src/data/scripts/dock_solv.prm

>  <Rbt.Receptor>
prm/blind_docking_40.prm

>  <SCORE>
-16.9636

>  <SCORE.INTER>
-16.9636

>  <SCORE.INTER.CONST>
1

>  <SCORE.INTER.POLAR>
0

>  <SCORE.INTER.ROT>
0

>  <SCORE.INTER.SOLV>
3.58799

>  <SCORE.INTER.VDW>
-16.105

>  <SCORE.INTER.norm>
-1.69636

>  <SCORE.INTRA>
0

>  <SCORE.INTRA.DIHEDRAL>
0

>  <SCORE.INTRA.DIHEDRAL.0>
0

>  <SCORE.INTRA.POLAR>
0

>  <SCORE.INTRA.POLAR.0>
0

>  <SCORE.INTRA.REPUL>
0

>  <SCORE.INTRA.REPUL.0>
0

>  <SCORE.INTRA.SOLV>
0

>  <SCORE.INTRA.SOLV.lig_0>
-4.28614

>  <SCORE.INTRA.VDW>
0

>  <SCORE.INTRA.VDW.0>
0

>  <SCORE.INTRA.norm>
0

>  <SCORE.RESTR>
0

>  <SCORE.RESTR.CAVITY>
0

>  <SCORE.RESTR.norm>
0

>  <SCORE.SYSTEM>
0

>  <SCORE.SYSTEM.CONST>
0

>  <SCORE.SYSTEM.DIHEDRAL>
0

>  <SCORE.SYSTEM.SOLV>
0

>  <SCORE.SYSTEM.norm>
0

>  <SCORE.heavy>
10

>  <SCORE.norm>
-1.69636

>  <RMSD>
0.613

$$$$
ligand
 OpenBabel11021811423D
libRbt.so/2013.1/901 2013/11/27
 10 11  0  0  0  0  0  0  0  0999 V2000
  -12.0485  -11.7111    9.0575 N   0  0  0  0  0  0  0  0  0  0  0  0
  -11.7820  -13.0782    8.9606 C   0  0  0  0  0  0  0  0  0  0  0  0
  -11.4088  -13.6589    7.8061 N   0  0  0  0  0  0  0  0  0  0  0  0
  -11.3164  -12.7607    6.7467 C   0  0  0  0  0  0  0  0  0  0  0  0
  -11.5685  -11.3875    6.7508 C   0  0  0  0  0  0  0  0  0  0  0  0
  -11.9744  -10.7626    7.9825 C   0  0  0  0  0  0  0  0  0  0  0  0
  -12.2430   -9.6134    8.2368 O   0  0  0  0  0  0  0  0  0  0  0  0
  -11.3379  -10.8813    5.4586 N   0  0  0  0  0  0  0  0  0  0  0  0
  -10.9510  -11.9529    4.7152 C   0  0  0  0  0  0  0  0  0  0  0  0
  -10.9298  -13.1244    5.4849 N   0  0  0  0  0  0  0  0  0  0  0  0
  1  2  1  0  0  0  0
  1  6  1  0  0  0  0
  2  3  2  0  0  0  0
  3  4  1  0  0  0  0
  4  5  2  0  0  0  0
  4 10  1  0  0  0  0
  5  6  1  0  0  0  0
  5  8  1  0  0  0  0
  6  7  2  0  0  0  0
  8  9  1  0  0  0  0
  9 10  2  0  0  0  0
M  END
>  <CHROM.1>
-11.56923910,-11.85149178,7.14354278,-2.84938974,1.27610961,-0.64341231

>  <Name>
ligand

>  <RI>
0

>  <Rbt.Current_Directory>
/home/itssahil/PROJECTS/Mol_Feturizer/New_Systems/rnas/2EES

>  <Rbt.Executable>
rbdock ($Id: //depot/dev/client3/rdock/2013.1/src/exe/rbdock.cxx#4 $)

>  <Rbt.Library>
libRbt.so (2013.1, Build901 2013/11/27)

>  <Rbt.Parameter_File>
/export/apps/rDock/src/rDock_2013.1_src/data/scripts/dock_solv.prm

>  <Rbt.Receptor>
prm/pocket_docking_3.prm

>  <SCORE>
-16.9214

>  <SCORE.INTER>
-16.9214

>  <SCORE.INTER.CONST>
1

>  <SCORE.INTER.POLAR>
0

>  <SCORE.INTER.ROT>
0

>  <SCORE.INTER.SOLV>
3.5834

>  <SCORE.INTER.VDW>
-16.0754

>  <SCORE.INTER.norm>
-1.69214

>  <SCORE.INTRA>
0

>  <SCORE.INTRA.DIHEDRAL>
0

>  <SCORE.INTRA.DIHEDRAL.0>
0

>  <SCORE.INTRA.POLAR>
0

>  <SCORE.INTRA.POLAR.0>
0

>  <SCORE.INTRA.REPUL>
0

>  <SCORE.INTRA.REPUL.0>
0

>  <SCORE.INTRA.SOLV>
0

>  <SCORE.INTRA.SOLV.lig_0>
-4.28614

>  <SCORE.INTRA.VDW>
0

>  <SCORE.INTRA.VDW.0>
0

>  <SCORE.INTRA.norm>
0

>  <SCORE.RESTR>
0

>  <SCORE.RESTR.CAVITY>
0

>  <SCORE.RESTR.norm>
0

>  <SCORE.SYSTEM>
0

>  <SCORE.SYSTEM.CONST>
0

>  <SCORE.SYSTEM.DIHEDRAL>
0

>  <SCORE.SYSTEM.SOLV>
0

>  <SCORE.SYSTEM.norm>
0

>  <SCORE.heavy>
10

>  <SCORE.norm>
-1.69214

>  <RMSD>
0.617

$$$$
ligand
 OpenBabel11021811423D
libRbt.so/2013.1/901 2013/11/27
 10 11  0  0  0  0  0  0  0  0999 V2000
  -11.9990  -11.2228    8.8758 N   0  0  0  0  0  0  0  0  0  0  0  0
  -11.7577  -12.5937    8.9846 C   0  0  0  0  0  0  0  0  0  0  0  0
  -11.4022  -13.3481    7.9294 N   0  0  0  0  0  0  0  0  0  0  0  0
  -11.3004  -12.6212    6.7466 C   0  0  0  0  0  0  0  0  0  0  0  0
  -11.5277  -11.2586    6.5450 C   0  0  0  0  0  0  0  0  0  0  0  0
  -11.9147  -10.4482    7.6702 C   0  0  0  0  0  0  0  0  0  0  0  0
  -12.1610   -9.2690    7.7497 O   0  0  0  0  0  0  0  0  0  0  0  0
  -11.2962  -10.9568    5.1906 N   0  0  0  0  0  0  0  0  0  0  0  0
  -10.9332  -12.1349    4.6155 C   0  0  0  0  0  0  0  0  0  0  0  0
  -10.9283  -13.1777    5.5525 N   0  0  0  0  0  0  0  0  0  0  0  0
  1  2  1  0  0  0  0
  1  6  1  0  0  0  0
  2  3  2  0  0  0  0
  3  4  1  0  0  0  0
  4  5  2  0  0  0  0
  4 10  1  0  0  0  0
  5  6  1  0  0  0  0
  5  8  1  0  0  0  0
  6  7  2  0  0  0  0
  8  9  1  0  0  0  0
  9 10  2  0  0  0  0
M  END
>  <CHROM.1>
-11.53435830,-11.65819832,7.00306154,-2.88789493,1.29169941,-0.75741402

>  <Name>
ligand

>  <RI>
0

>  <Rbt.Current_Directory>
/home/itssahil/PROJECTS/Mol_Feturizer/New_Systems/rnas/2EES

>  <Rbt.Executable>
rbdock ($Id: //depot/dev/client3/rdock/2013.1/src/exe/rbdock.cxx#4 $)

>  <Rbt.Library>
libRbt.so (2013.1, Build901 2013/11/27)

>  <Rbt.Parameter_File>
/export/apps/rDock/src/rDock_2013.1_src/data/scripts/dock_solv.prm

>  <Rbt.Receptor>
prm/blind_docking_100.prm

>  <SCORE>
-16.9624

>  <SCORE.INTER>
-16.9624

>  <SCORE.INTER.CONST>
1

>  <SCORE.INTER.POLAR>
0

>  <SCORE.INTER.ROT>
0

>  <SCORE.INTER.SOLV>
3.50734

>  <SCORE.INTER.VDW>
-16.0774

>  <SCORE.INTER.norm>
-1.69624

>  <SCORE.INTRA>
0

>  <SCORE.INTRA.DIHEDRAL>
0

>  <SCORE.INTRA.DIHEDRAL.0>
0

>  <SCORE.INTRA.POLAR>
0

>  <SCORE.INTRA.POLAR.0>
0

>  <SCORE.INTRA.REPUL>
0

>  <SCORE.INTRA.REPUL.0>
0

>  <SCORE.INTRA.SOLV>
0

>  <SCORE.INTRA.SOLV.lig_0>
-4.28614

>  <SCORE.INTRA.VDW>
0

>  <SCORE.INTRA.VDW.0>
0

>  <SCORE.INTRA.norm>
0

>  <SCORE.RESTR>
0

>  <SCORE.RESTR.CAVITY>
0

>  <SCORE.RESTR.norm>
0

>  <SCORE.SYSTEM>
0

>  <SCORE.SYSTEM.CONST>
0

>  <SCORE.SYSTEM.DIHEDRAL>
0

>  <SCORE.SYSTEM.SOLV>
0

>  <SCORE.SYSTEM.norm>
0

>  <SCORE.heavy>
10

>  <SCORE.norm>
-1.69624

>  <RMSD>
0.619

$$$$
ligand
 OpenBabel11021811423D
libRbt.so/2013.1/901 2013/11/27
 10 11  0  0  0  0  0  0  0  0999 V2000
  -11.9969  -11.2124    8.8708 N   0  0  0  0  0  0  0  0  0  0  0  0
  -11.7654  -12.5849    8.9818 C   0  0  0  0  0  0  0  0  0  0  0  0
  -11.4143  -13.3433    7.9279 N   0  0  0  0  0  0  0  0  0  0  0  0
  -11.3062  -12.6188    6.7442 C   0  0  0  0  0  0  0  0  0  0  0  0
  -11.5237  -11.2549    6.5405 C   0  0  0  0  0  0  0  0  0  0  0  0
  -11.9059  -10.4401    7.6642 C   0  0  0  0  0  0  0  0  0  0  0  0
  -12.1439   -9.2591    7.7418 O   0  0  0  0  0  0  0  0  0  0  0  0
  -11.2889  -10.9566    5.1859 N   0  0  0  0  0  0  0  0  0  0  0  0
  -10.9337  -12.1380    4.6127 C   0  0  0  0  0  0  0  0  0  0  0  0
  -10.9370  -13.1795    5.5512 N   0  0  0  0  0  0  0  0  0  0  0  0
  1  2  1  0  0  0  0
  1  6  1  0  0  0  0
  2  3  2  0  0  0  0
  3  4  1  0  0  0  0
  4  5  2  0  0  0  0
  4 10  1  0  0  0  0
  5  6  1  0  0  0  0
  5  8  1  0  0  0  0
  6  7  2  0  0  0  0
  8  9  1  0  0  0  0
  9 10  2  0  0  0  0
M  END
>  <CHROM.1>
-11.53361086,-11.65373005,6.99910361,-2.90921876,1.29586149,-0.73829105

>  <Name>
ligand

>  <RI>
0

>  <Rbt.Current_Directory>
/home/itssahil/PROJECTS/Mol_Feturizer/New_Systems/rnas/2EES

>  <Rbt.Executable>
rbdock ($Id: //depot/dev/client3/rdock/2013.1/src/exe/rbdock.cxx#4 $)

>  <Rbt.Library>
libRbt.so (2013.1, Build901 2013/11/27)

>  <Rbt.Parameter_File>
/export/apps/rDock/src/rDock_2013.1_src/data/scripts/dock_solv.prm

>  <Rbt.Receptor>
prm/pocket_docking_8.prm

>  <SCORE>
-16.9681

>  <SCORE.INTER>
-16.9681

>  <SCORE.INTER.CONST>
1

>  <SCORE.INTER.POLAR>
0

>  <SCORE.INTER.ROT>
0

>  <SCORE.INTER.SOLV>
3.52409

>  <SCORE.INTER.VDW>
-16.0868

>  <SCORE.INTER.norm>
-1.69681

>  <SCORE.INTRA>
0

>  <SCORE.INTRA.DIHEDRAL>
0

>  <SCORE.INTRA.DIHEDRAL.0>
0

>  <SCORE.INTRA.POLAR>
0

>  <SCORE.INTRA.POLAR.0>
0

>  <SCORE.INTRA.REPUL>
0

>  <SCORE.INTRA.REPUL.0>
0

>  <SCORE.INTRA.SOLV>
0

>  <SCORE.INTRA.SOLV.lig_0>
-4.28614

>  <SCORE.INTRA.VDW>
0

>  <SCORE.INTRA.VDW.0>
0

>  <SCORE.INTRA.norm>
0

>  <SCORE.RESTR>
0

>  <SCORE.RESTR.CAVITY>
0

>  <SCORE.RESTR.norm>
0

>  <SCORE.SYSTEM>
0

>  <SCORE.SYSTEM.CONST>
0

>  <SCORE.SYSTEM.DIHEDRAL>
0

>  <SCORE.SYSTEM.SOLV>
0

>  <SCORE.SYSTEM.norm>
0

>  <SCORE.heavy>
10

>  <SCORE.norm>
-1.69681

>  <RMSD>
0.624

$$$$
ligand
 OpenBabel11021811423D
libRbt.so/2013.1/901 2013/11/27
 10 11  0  0  0  0  0  0  0  0999 V2000
  -12.0021  -11.1955    8.8580 N   0  0  0  0  0  0  0  0  0  0  0  0
  -11.7478  -12.5626    8.9842 C   0  0  0  0  0  0  0  0  0  0  0  0
  -11.3808  -13.3260    7.9395 N   0  0  0  0  0  0  0  0  0  0  0  0
  -11.2813  -12.6124    6.7484 C   0  0  0  0  0  0  0  0  0  0  0  0
  -11.5212  -11.2546    6.5296 C   0  0  0  0  0  0  0  0  0  0  0  0
  -11.9206  -10.4346    7.6435 C   0  0  0  0  0  0  0  0  0  0  0  0
  -12.1788   -9.2570    7.7079 O   0  0  0  0  0  0  0  0  0  0  0  0
  -11.2873  -10.9667    5.1726 N   0  0  0  0  0  0  0  0  0  0  0  0
  -10.9105  -12.1480    4.6131 C   0  0  0  0  0  0  0  0  0  0  0  0
  -10.8991  -13.1793    5.5626 N   0  0  0  0  0  0  0  0  0  0  0  0
  1  2  1  0  0  0  0
  1  6  1  0  0  0  0
  2  3  2  0  0  0  0
  3  4  1  0  0  0  0
  4  5  2  0  0  0  0
  4 10  1  0  0  0  0
  5  6  1  0  0  0  0
  5  8  1  0  0  0  0
  6  7  2  0  0  0  0
  8  9  1  0  0  0  0
  9 10  2  0  0  0  0
M  END
>  <CHROM.1>
-11.52576711,-11.64868204,6.99243596,-2.87247819,1.28203854,-0.78418877

>  <Name>
ligand

>  <RI>
0

>  <Rbt.Current_Directory>
/home/itssahil/PROJECTS/Mol_Feturizer/New_Systems/rnas/2EES

>  <Rbt.Executable>
rbdock ($Id: //depot/dev/client3/rdock/2013.1/src/exe/rbdock.cxx#4 $)

>  <Rbt.Library>
libRbt.so (2013.1, Build901 2013/11/27)

>  <Rbt.Parameter_File>
/export/apps/rDock/src/rDock_2013.1_src/data/scripts/dock_solv.prm

>  <Rbt.Receptor>
prm/pocket_docking_5.prm

>  <SCORE>
-16.933

>  <SCORE.INTER>
-16.933

>  <SCORE.INTER.CONST>
1

>  <SCORE.INTER.POLAR>
0

>  <SCORE.INTER.ROT>
0

>  <SCORE.INTER.SOLV>
3.46329

>  <SCORE.INTER.VDW>
-16.0431

>  <SCORE.INTER.norm>
-1.6933

>  <SCORE.INTRA>
0

>  <SCORE.INTRA.DIHEDRAL>
0

>  <SCORE.INTRA.DIHEDRAL.0>
0

>  <SCORE.INTRA.POLAR>
0

>  <SCORE.INTRA.POLAR.0>
0

>  <SCORE.INTRA.REPUL>
0

>  <SCORE.INTRA.REPUL.0>
0

>  <SCORE.INTRA.SOLV>
0

>  <SCORE.INTRA.SOLV.lig_0>
-4.28614

>  <SCORE.INTRA.VDW>
0

>  <SCORE.INTRA.VDW.0>
0

>  <SCORE.INTRA.norm>
0

>  <SCORE.RESTR>
0

>  <SCORE.RESTR.CAVITY>
0

>  <SCORE.RESTR.norm>
0

>  <SCORE.SYSTEM>
0

>  <SCORE.SYSTEM.CONST>
0

>  <SCORE.SYSTEM.DIHEDRAL>
0

>  <SCORE.SYSTEM.SOLV>
0

>  <SCORE.SYSTEM.norm>
0

>  <SCORE.heavy>
10

>  <SCORE.norm>
-1.6933

>  <RMSD>
0.625

$$$$
ligand
 OpenBabel11021811423D
libRbt.so/2013.1/901 2013/11/27
 10 11  0  0  0  0  0  0  0  0999 V2000
  -11.9927  -11.0587    8.8620 N   0  0  0  0  0  0  0  0  0  0  0  0
  -11.7955  -12.4324    9.0159 C   0  0  0  0  0  0  0  0  0  0  0  0
  -11.4603  -13.2313    7.9870 N   0  0  0  0  0  0  0  0  0  0  0  0
  -11.3311  -12.5465    6.7820 C   0  0  0  0  0  0  0  0  0  0  0  0
  -11.5143  -11.1846    6.5358 C   0  0  0  0  0  0  0  0  0  0  0  0
  -11.8794  -10.3265    7.6325 C   0  0  0  0  0  0  0  0  0  0  0  0
  -12.0884   -9.1381    7.6730 O   0  0  0  0  0  0  0  0  0  0  0  0
  -11.2684  -10.9340    5.1735 N   0  0  0  0  0  0  0  0  0  0  0  0
  -10.9409  -12.1409    4.6381 C   0  0  0  0  0  0  0  0  0  0  0  0
  -10.9725  -13.1526    5.6082 N   0  0  0  0  0  0  0  0  0  0  0  0
  1  2  1  0  0  0  0
  1  6  1  0  0  0  0
  2  3  2  0  0  0  0
  3  4  1  0  0  0  0
  4  5  2  0  0  0  0
  4 10  1  0  0  0  0
  5  6  1  0  0  0  0
  5  8  1  0  0  0  0
  6  7  2  0  0  0  0
  8  9  1  0  0  0  0
  9 10  2  0  0  0  0
M  END
>  <CHROM.1>
-11.53528862,-11.56874886,7.00636515,-2.98721513,1.30964674,-0.69384238

>  <Name>
ligand

>  <RI>
0

>  <Rbt.Current_Directory>
/home/itssahil/PROJECTS/Mol_Feturizer/New_Systems/rnas/2EES

>  <Rbt.Executable>
rbdock ($Id: //depot/dev/client3/rdock/2013.1/src/exe/rbdock.cxx#4 $)

>  <Rbt.Library>
libRbt.so (2013.1, Build901 2013/11/27)

>  <Rbt.Parameter_File>
/export/apps/rDock/src/rDock_2013.1_src/data/scripts/dock_solv.prm

>  <Rbt.Receptor>
prm/pocket_docking_8.prm

>  <SCORE>
-16.929

>  <SCORE.INTER>
-16.929

>  <SCORE.INTER.CONST>
1

>  <SCORE.INTER.POLAR>
0

>  <SCORE.INTER.ROT>
0

>  <SCORE.INTER.SOLV>
3.56983

>  <SCORE.INTER.VDW>
-16.0759

>  <SCORE.INTER.norm>
-1.6929

>  <SCORE.INTRA>
0

>  <SCORE.INTRA.DIHEDRAL>
0

>  <SCORE.INTRA.DIHEDRAL.0>
0

>  <SCORE.INTRA.POLAR>
0

>  <SCORE.INTRA.POLAR.0>
0

>  <SCORE.INTRA.REPUL>
0

>  <SCORE.INTRA.REPUL.0>
0

>  <SCORE.INTRA.SOLV>
0

>  <SCORE.INTRA.SOLV.lig_0>
-4.28614

>  <SCORE.INTRA.VDW>
0

>  <SCORE.INTRA.VDW.0>
0

>  <SCORE.INTRA.norm>
0

>  <SCORE.RESTR>
0

>  <SCORE.RESTR.CAVITY>
0

>  <SCORE.RESTR.norm>
0

>  <SCORE.SYSTEM>
0

>  <SCORE.SYSTEM.CONST>
0

>  <SCORE.SYSTEM.DIHEDRAL>
0

>  <SCORE.SYSTEM.SOLV>
0

>  <SCORE.SYSTEM.norm>
0

>  <SCORE.heavy>
10

>  <SCORE.norm>
-1.6929

>  <RMSD>
0.628

$$$$
ligand
 OpenBabel11021811423D
libRbt.so/2013.1/901 2013/11/27
 10 11  0  0  0  0  0  0  0  0999 V2000
  -11.9637  -11.0668    8.8602 N   0  0  0  0  0  0  0  0  0  0  0  0
  -11.7494  -12.4374    9.0191 C   0  0  0  0  0  0  0  0  0  0  0  0
  -11.4087  -13.2365    7.9923 N   0  0  0  0  0  0  0  0  0  0  0  0
  -11.2922  -12.5553    6.7839 C   0  0  0  0  0  0  0  0  0  0  0  0
  -11.4927  -11.1968    6.5327 C   0  0  0  0  0  0  0  0  0  0  0  0
  -11.8638  -10.3384    7.6272 C   0  0  0  0  0  0  0  0  0  0  0  0
  -12.0869   -9.1525    7.6635 O   0  0  0  0  0  0  0  0  0  0  0  0
  -11.2550  -10.9490    5.1684 N   0  0  0  0  0  0  0  0  0  0  0  0
  -10.9151  -12.1542    4.6369 C   0  0  0  0  0  0  0  0  0  0  0  0
  -10.9309  -13.1621    5.6113 N   0  0  0  0  0  0  0  0  0  0  0  0
  1  2  1  0  0  0  0
  1  6  1  0  0  0  0
  2  3  2  0  0  0  0
  3  4  1  0  0  0  0
  4  5  2  0  0  0  0
  4 10  1  0  0  0  0
  5  6  1  0  0  0  0
  5  8  1  0  0  0  0
  6  7  2  0  0  0  0
  8  9  1  0  0  0  0
  9 10  2  0  0  0  0
M  END
>  <CHROM.1>
-11.50727555,-11.57917089,7.00497369,-2.94292388,1.30467348,-0.74082279

>  <Name>
ligand

>  <RI>
0

>  <Rbt.Current_Directory>
/home/itssahil/PROJECTS/Mol_Feturizer/New_Systems/rnas/2EES

>  <Rbt.Executable>
rbdock ($Id: //depot/dev/client3/rdock/2013.1/src/exe/rbdock.cxx#4 $)

>  <Rbt.Library>
libRbt.so (2013.1, Build901 2013/11/27)

>  <Rbt.Parameter_File>
/export/apps/rDock/src/rDock_2013.1_src/data/scripts/dock_solv.prm

>  <Rbt.Receptor>
prm/pocket_docking_4.prm

>  <SCORE>
-16.9282

>  <SCORE.INTER>
-16.9282

>  <SCORE.INTER.CONST>
1

>  <SCORE.INTER.POLAR>
0

>  <SCORE.INTER.ROT>
0

>  <SCORE.INTER.SOLV>
3.56443

>  <SCORE.INTER.VDW>
-16.0736

>  <SCORE.INTER.norm>
-1.69282

>  <SCORE.INTRA>
0

>  <SCORE.INTRA.DIHEDRAL>
0

>  <SCORE.INTRA.DIHEDRAL.0>
0

>  <SCORE.INTRA.POLAR>
0

>  <SCORE.INTRA.POLAR.0>
0

>  <SCORE.INTRA.REPUL>
0

>  <SCORE.INTRA.REPUL.0>
0

>  <SCORE.INTRA.SOLV>
0

>  <SCORE.INTRA.SOLV.lig_0>
-4.28614

>  <SCORE.INTRA.VDW>
0

>  <SCORE.INTRA.VDW.0>
0

>  <SCORE.INTRA.norm>
0

>  <SCORE.RESTR>
0

>  <SCORE.RESTR.CAVITY>
0

>  <SCORE.RESTR.norm>
0

>  <SCORE.SYSTEM>
0

>  <SCORE.SYSTEM.CONST>
0

>  <SCORE.SYSTEM.DIHEDRAL>
0

>  <SCORE.SYSTEM.SOLV>
0

>  <SCORE.SYSTEM.norm>
0

>  <SCORE.heavy>
10

>  <SCORE.norm>
-1.69282

>  <RMSD>
0.629

$$$$
ligand
 OpenBabel11021811423D
libRbt.so/2013.1/901 2013/11/27
 10 11  0  0  0  0  0  0  0  0999 V2000
  -12.0492  -11.0054    8.8385 N   0  0  0  0  0  0  0  0  0  0  0  0
  -11.8625  -12.3790    9.0053 C   0  0  0  0  0  0  0  0  0  0  0  0
  -11.5101  -13.1863    7.9888 N   0  0  0  0  0  0  0  0  0  0  0  0
  -11.3520  -12.5099    6.7824 C   0  0  0  0  0  0  0  0  0  0  0  0
  -11.5228  -11.1487    6.5237 C   0  0  0  0  0  0  0  0  0  0  0  0
  -11.9062  -10.2817    7.6071 C   0  0  0  0  0  0  0  0  0  0  0  0
  -12.1097   -9.0920    7.6356 O   0  0  0  0  0  0  0  0  0  0  0  0
  -11.2471  -10.9082    5.1653 N   0  0  0  0  0  0  0  0  0  0  0  0
  -10.9148  -12.1203    4.6446 C   0  0  0  0  0  0  0  0  0  0  0  0
  -10.9722  -13.1255    5.6202 N   0  0  0  0  0  0  0  0  0  0  0  0
  1  2  1  0  0  0  0
  1  6  1  0  0  0  0
  2  3  2  0  0  0  0
  3  4  1  0  0  0  0
  4  5  2  0  0  0  0
  4 10  1  0  0  0  0
  5  6  1  0  0  0  0
  5  8  1  0  0  0  0
  6  7  2  0  0  0  0
  8  9  1  0  0  0  0
  9 10  2  0  0  0  0
M  END
>  <CHROM.1>
-11.55568522,-11.52973872,6.99621570,-3.05178775,1.29639719,-0.63798023

>  <Name>
ligand

>  <RI>
0

>  <Rbt.Current_Directory>
/home/itssahil/PROJECTS/Mol_Feturizer/New_Systems/rnas/2EES

>  <Rbt.Executable>
rbdock ($Id: //depot/dev/client3/rdock/2013.1/src/exe/rbdock.cxx#4 $)

>  <Rbt.Library>
libRbt.so (2013.1, Build901 2013/11/27)

>  <Rbt.Parameter_File>
/export/apps/rDock/src/rDock_2013.1_src/data/scripts/dock_solv.prm

>  <Rbt.Receptor>
prm/pocket_docking_6.prm

>  <SCORE>
-16.9889

>  <SCORE.INTER>
-16.9889

>  <SCORE.INTER.CONST>
1

>  <SCORE.INTER.POLAR>
0

>  <SCORE.INTER.ROT>
0

>  <SCORE.INTER.SOLV>
3.53789

>  <SCORE.INTER.VDW>
-16.1052

>  <SCORE.INTER.norm>
-1.69889

>  <SCORE.INTRA>
0

>  <SCORE.INTRA.DIHEDRAL>
0

>  <SCORE.INTRA.DIHEDRAL.0>
0

>  <SCORE.INTRA.POLAR>
0

>  <SCORE.INTRA.POLAR.0>
0

>  <SCORE.INTRA.REPUL>
0

>  <SCORE.INTRA.REPUL.0>
0

>  <SCORE.INTRA.SOLV>
0

>  <SCORE.INTRA.SOLV.lig_0>
-4.28614

>  <SCORE.INTRA.VDW>
0

>  <SCORE.INTRA.VDW.0>
0

>  <SCORE.INTRA.norm>
0

>  <SCORE.RESTR>
0

>  <SCORE.RESTR.CAVITY>
0

>  <SCORE.RESTR.norm>
0

>  <SCORE.SYSTEM>
0

>  <SCORE.SYSTEM.CONST>
0

>  <SCORE.SYSTEM.DIHEDRAL>
0

>  <SCORE.SYSTEM.SOLV>
0

>  <SCORE.SYSTEM.norm>
0

>  <SCORE.heavy>
10

>  <SCORE.norm>
-1.69889

>  <RMSD>
0.638

$$$$
ligand
 OpenBabel11021811423D
libRbt.so/2013.1/901 2013/11/27
 10 11  0  0  0  0  0  0  0  0999 V2000
  -12.0502  -10.9998    8.8389 N   0  0  0  0  0  0  0  0  0  0  0  0
  -11.8628  -12.3732    9.0071 C   0  0  0  0  0  0  0  0  0  0  0  0
  -11.5103  -13.1815    7.9915 N   0  0  0  0  0  0  0  0  0  0  0  0
  -11.3529  -12.5064    6.7843 C   0  0  0  0  0  0  0  0  0  0  0  0
  -11.5245  -11.1456    6.5240 C   0  0  0  0  0  0  0  0  0  0  0  0
  -11.9080  -10.2775    7.6065 C   0  0  0  0  0  0  0  0  0  0  0  0
  -12.1121   -9.0879    7.6337 O   0  0  0  0  0  0  0  0  0  0  0  0
  -11.2493  -10.9066    5.1653 N   0  0  0  0  0  0  0  0  0  0  0  0
  -10.9166  -12.1191    4.6459 C   0  0  0  0  0  0  0  0  0  0  0  0
  -10.9731  -13.1231    5.6227 N   0  0  0  0  0  0  0  0  0  0  0  0
  1  2  1  0  0  0  0
  1  6  1  0  0  0  0
  2  3  2  0  0  0  0
  3  4  1  0  0  0  0
  4  5  2  0  0  0  0
  4 10  1  0  0  0  0
  5  6  1  0  0  0  0
  5  8  1  0  0  0  0
  6  7  2  0  0  0  0
  8  9  1  0  0  0  0
  9 10  2  0  0  0  0
M  END
>  <CHROM.1>
-11.55700509,-11.52609761,6.99699967,-3.04953736,1.29633303,-0.64132323

>  <Name>
ligand

>  <RI>
0

>  <Rbt.Current_Directory>
/home/itssahil/PROJECTS/Mol_Feturizer/New_Systems/rnas/2EES

>  <Rbt.Executable>
rbdock ($Id: //depot/dev/client3/rdock/2013.1/src/exe/rbdock.cxx#4 $)

>  <Rbt.Library>
libRbt.so (2013.1, Build901 2013/11/27)

>  <Rbt.Parameter_File>
/export/apps/rDock/src/rDock_2013.1_src/data/scripts/dock_solv.prm

>  <Rbt.Receptor>
prm/pocket_docking_8.prm

>  <SCORE>
-16.9876

>  <SCORE.INTER>
-16.9876

>  <SCORE.INTER.CONST>
1

>  <SCORE.INTER.POLAR>
0

>  <SCORE.INTER.ROT>
0

>  <SCORE.INTER.SOLV>
3.53634

>  <SCORE.INTER.VDW>
-16.1039

>  <SCORE.INTER.norm>
-1.69876

>  <SCORE.INTRA>
0

>  <SCORE.INTRA.DIHEDRAL>
0

>  <SCORE.INTRA.DIHEDRAL.0>
0

>  <SCORE.INTRA.POLAR>
0

>  <SCORE.INTRA.POLAR.0>
0

>  <SCORE.INTRA.REPUL>
0

>  <SCORE.INTRA.REPUL.0>
0

>  <SCORE.INTRA.SOLV>
0

>  <SCORE.INTRA.SOLV.lig_0>
-4.28614

>  <SCORE.INTRA.VDW>
0

>  <SCORE.INTRA.VDW.0>
0

>  <SCORE.INTRA.norm>
0

>  <SCORE.RESTR>
0

>  <SCORE.RESTR.CAVITY>
0

>  <SCORE.RESTR.norm>
0

>  <SCORE.SYSTEM>
0

>  <SCORE.SYSTEM.CONST>
0

>  <SCORE.SYSTEM.DIHEDRAL>
0

>  <SCORE.SYSTEM.SOLV>
0

>  <SCORE.SYSTEM.norm>
0

>  <SCORE.heavy>
10

>  <SCORE.norm>
-1.69876

>  <RMSD>
0.638

$$$$
ligand
 OpenBabel11021811423D
libRbt.so/2013.1/901 2013/11/27
 10 11  0  0  0  0  0  0  0  0999 V2000
  -12.0464  -10.9953    8.8348 N   0  0  0  0  0  0  0  0  0  0  0  0
  -11.8641  -12.3685    9.0096 C   0  0  0  0  0  0  0  0  0  0  0  0
  -11.5133  -13.1827    7.9980 N   0  0  0  0  0  0  0  0  0  0  0  0
  -11.3520  -12.5137    6.7880 C   0  0  0  0  0  0  0  0  0  0  0  0
  -11.5183  -11.1534    6.5214 C   0  0  0  0  0  0  0  0  0  0  0  0
  -11.9001  -10.2791    7.5994 C   0  0  0  0  0  0  0  0  0  0  0  0
  -12.1000   -9.0886    7.6210 O   0  0  0  0  0  0  0  0  0  0  0  0
  -11.2406  -10.9216    5.1619 N   0  0  0  0  0  0  0  0  0  0  0  0
  -10.9116  -12.1376    4.6484 C   0  0  0  0  0  0  0  0  0  0  0  0
  -10.9730  -13.1370    5.6297 N   0  0  0  0  0  0  0  0  0  0  0  0
  1  2  1  0  0  0  0
  1  6  1  0  0  0  0
  2  3  2  0  0  0  0
  3  4  1  0  0  0  0
  4  5  2  0  0  0  0
  4 10  1  0  0  0  0
  5  6  1  0  0  0  0
  5  8  1  0  0  0  0
  6  7  2  0  0  0  0
  8  9  1  0  0  0  0
  9 10  2  0  0  0  0
M  END
>  <CHROM.1>
-11.55282824,-11.53166779,6.99600863,-3.06300432,1.29747290,-0.63288585

>  <Name>
ligand

>  <RI>
0

>  <Rbt.Current_Directory>
/home/itssahil/PROJECTS/Mol_Feturizer/New_Systems/rnas/2EES

>  <Rbt.Executable>
rbdock ($Id: //depot/dev/client3/rdock/2013.1/src/exe/rbdock.cxx#4 $)

>  <Rbt.Library>
libRbt.so (2013.1, Build901 2013/11/27)

>  <Rbt.Parameter_File>
/export/apps/rDock/src/rDock_2013.1_src/data/scripts/dock_solv.prm

>  <Rbt.Receptor>
prm/pocket_docking_5.prm

>  <SCORE>
-16.9899

>  <SCORE.INTER>
-16.9899

>  <SCORE.INTER.CONST>
1

>  <SCORE.INTER.POLAR>
0

>  <SCORE.INTER.ROT>
0

>  <SCORE.INTER.SOLV>
3.55002

>  <SCORE.INTER.VDW>
-16.1099

>  <SCORE.INTER.norm>
-1.69899

>  <SCORE.INTRA>
0

>  <SCORE.INTRA.DIHEDRAL>
0

>  <SCORE.INTRA.DIHEDRAL.0>
0

>  <SCORE.INTRA.POLAR>
0

>  <SCORE.INTRA.POLAR.0>
0

>  <SCORE.INTRA.REPUL>
0

>  <SCORE.INTRA.REPUL.0>
0

>  <SCORE.INTRA.SOLV>
0

>  <SCORE.INTRA.SOLV.lig_0>
-4.28614

>  <SCORE.INTRA.VDW>
0

>  <SCORE.INTRA.VDW.0>
0

>  <SCORE.INTRA.norm>
0

>  <SCORE.RESTR>
0

>  <SCORE.RESTR.CAVITY>
0

>  <SCORE.RESTR.norm>
0

>  <SCORE.SYSTEM>
0

>  <SCORE.SYSTEM.CONST>
0

>  <SCORE.SYSTEM.DIHEDRAL>
0

>  <SCORE.SYSTEM.SOLV>
0

>  <SCORE.SYSTEM.norm>
0

>  <SCORE.heavy>
10

>  <SCORE.norm>
-1.69899

>  <RMSD>
0.639

$$$$
ligand
 OpenBabel11021811423D
libRbt.so/2013.1/901 2013/11/27
 10 11  0  0  0  0  0  0  0  0999 V2000
  -12.0432  -11.0002    8.8379 N   0  0  0  0  0  0  0  0  0  0  0  0
  -11.8634  -12.3745    9.0071 C   0  0  0  0  0  0  0  0  0  0  0  0
  -11.5162  -13.1854    7.9918 N   0  0  0  0  0  0  0  0  0  0  0  0
  -11.3559  -12.5122    6.7840 C   0  0  0  0  0  0  0  0  0  0  0  0
  -11.5200  -11.1506    6.5228 C   0  0  0  0  0  0  0  0  0  0  0  0
  -11.8978  -10.2796    7.6050 C   0  0  0  0  0  0  0  0  0  0  0  0
  -12.0953   -9.0888    7.6314 O   0  0  0  0  0  0  0  0  0  0  0  0
  -11.2445  -10.9141    5.1637 N   0  0  0  0  0  0  0  0  0  0  0  0
  -10.9190  -12.1289    4.6450 C   0  0  0  0  0  0  0  0  0  0  0  0
  -10.9804  -13.1319    5.6226 N   0  0  0  0  0  0  0  0  0  0  0  0
  1  2  1  0  0  0  0
  1  6  1  0  0  0  0
  2  3  2  0  0  0  0
  3  4  1  0  0  0  0
  4  5  2  0  0  0  0
  4 10  1  0  0  0  0
  5  6  1  0  0  0  0
  5  8  1  0  0  0  0
  6  7  2  0  0  0  0
  8  9  1  0  0  0  0
  9 10  2  0  0  0  0
M  END
>  <CHROM.1>
-11.55434112,-11.53056808,6.99610641,-3.06476090,1.30026876,-0.62739774

>  <Name>
ligand

>  <RI>
0

>  <Rbt.Current_Directory>
/home/itssahil/PROJECTS/Mol_Feturizer/New_Systems/rnas/2EES

>  <Rbt.Executable>
rbdock ($Id: //depot/dev/client3/rdock/2013.1/src/exe/rbdock.cxx#4 $)

>  <Rbt.Library>
libRbt.so (2013.1, Build901 2013/11/27)

>  <Rbt.Parameter_File>
/export/apps/rDock/src/rDock_2013.1_src/data/scripts/dock_solv.prm

>  <Rbt.Receptor>
prm/blind_docking_80.prm

>  <SCORE>
-16.9921

>  <SCORE.INTER>
-16.9921

>  <SCORE.INTER.CONST>
1

>  <SCORE.INTER.POLAR>
0

>  <SCORE.INTER.ROT>
0

>  <SCORE.INTER.SOLV>
3.55853

>  <SCORE.INTER.VDW>
-16.1143

>  <SCORE.INTER.norm>
-1.69921

>  <SCORE.INTRA>
0

>  <SCORE.INTRA.DIHEDRAL>
0

>  <SCORE.INTRA.DIHEDRAL.0>
0

>  <SCORE.INTRA.POLAR>
0

>  <SCORE.INTRA.POLAR.0>
0

>  <SCORE.INTRA.REPUL>
0

>  <SCORE.INTRA.REPUL.0>
0

>  <SCORE.INTRA.SOLV>
0

>  <SCORE.INTRA.SOLV.lig_0>
-4.28614

>  <SCORE.INTRA.VDW>
0

>  <SCORE.INTRA.VDW.0>
0

>  <SCORE.INTRA.norm>
0

>  <SCORE.RESTR>
0

>  <SCORE.RESTR.CAVITY>
0

>  <SCORE.RESTR.norm>
0

>  <SCORE.SYSTEM>
0

>  <SCORE.SYSTEM.CONST>
0

>  <SCORE.SYSTEM.DIHEDRAL>
0

>  <SCORE.SYSTEM.SOLV>
0

>  <SCORE.SYSTEM.norm>
0

>  <SCORE.heavy>
10

>  <SCORE.norm>
-1.69921

>  <RMSD>
0.640

$$$$
ligand
 OpenBabel11021811423D
libRbt.so/2013.1/901 2013/11/27
 10 11  0  0  0  0  0  0  0  0999 V2000
  -11.9689  -11.2203    8.8640 N   0  0  0  0  0  0  0  0  0  0  0  0
  -11.7454  -12.5942    8.9740 C   0  0  0  0  0  0  0  0  0  0  0  0
  -11.4086  -13.3556    7.9176 N   0  0  0  0  0  0  0  0  0  0  0  0
  -11.3061  -12.6326    6.7325 C   0  0  0  0  0  0  0  0  0  0  0  0
  -11.5164  -11.2674    6.5297 C   0  0  0  0  0  0  0  0  0  0  0  0
  -11.8834  -10.4495    7.6561 C   0  0  0  0  0  0  0  0  0  0  0  0
  -12.1130   -9.2668    7.7350 O   0  0  0  0  0  0  0  0  0  0  0  0
  -11.2914  -10.9716    5.1729 N   0  0  0  0  0  0  0  0  0  0  0  0
  -10.9490  -12.1558    4.5975 C   0  0  0  0  0  0  0  0  0  0  0  0
  -10.9510  -13.1965    5.5368 N   0  0  0  0  0  0  0  0  0  0  0  0
  1  2  1  0  0  0  0
  1  6  1  0  0  0  0
  2  3  2  0  0  0  0
  3  4  1  0  0  0  0
  4  5  2  0  0  0  0
  4 10  1  0  0  0  0
  5  6  1  0  0  0  0
  5  8  1  0  0  0  0
  6  7  2  0  0  0  0
  8  9  1  0  0  0  0
  9 10  2  0  0  0  0
M  END
>  <CHROM.1>
-11.52488548,-11.66592763,6.98868261,-2.90523001,1.30671934,-0.74283659

>  <Name>
ligand

>  <RI>
0

>  <Rbt.Current_Directory>
/home/itssahil/PROJECTS/Mol_Feturizer/New_Systems/rnas/2EES

>  <Rbt.Executable>
rbdock ($Id: //depot/dev/client3/rdock/2013.1/src/exe/rbdock.cxx#4 $)

>  <Rbt.Library>
libRbt.so (2013.1, Build901 2013/11/27)

>  <Rbt.Parameter_File>
/export/apps/rDock/src/rDock_2013.1_src/data/scripts/dock_solv.prm

>  <Rbt.Receptor>
prm/pocket_docking_5.prm

>  <SCORE>
-16.9473

>  <SCORE.INTER>
-16.9473

>  <SCORE.INTER.CONST>
1

>  <SCORE.INTER.POLAR>
0

>  <SCORE.INTER.ROT>
0

>  <SCORE.INTER.SOLV>
3.56568

>  <SCORE.INTER.VDW>
-16.0867

>  <SCORE.INTER.norm>
-1.69473

>  <SCORE.INTRA>
0

>  <SCORE.INTRA.DIHEDRAL>
0

>  <SCORE.INTRA.DIHEDRAL.0>
0

>  <SCORE.INTRA.POLAR>
0

>  <SCORE.INTRA.POLAR.0>
0

>  <SCORE.INTRA.REPUL>
0

>  <SCORE.INTRA.REPUL.0>
0

>  <SCORE.INTRA.SOLV>
0

>  <SCORE.INTRA.SOLV.lig_0>
-4.28614

>  <SCORE.INTRA.VDW>
0

>  <SCORE.INTRA.VDW.0>
0

>  <SCORE.INTRA.norm>
0

>  <SCORE.RESTR>
0

>  <SCORE.RESTR.CAVITY>
0

>  <SCORE.RESTR.norm>
0

>  <SCORE.SYSTEM>
0

>  <SCORE.SYSTEM.CONST>
0

>  <SCORE.SYSTEM.DIHEDRAL>
0

>  <SCORE.SYSTEM.SOLV>
0

>  <SCORE.SYSTEM.norm>
0

>  <SCORE.heavy>
10

>  <SCORE.norm>
-1.69473

>  <RMSD>
0.640

$$$$
ligand
 OpenBabel11021811423D
libRbt.so/2013.1/901 2013/11/27
 10 11  0  0  0  0  0  0  0  0999 V2000
  -12.0456  -10.9945    8.8342 N   0  0  0  0  0  0  0  0  0  0  0  0
  -11.8683  -12.3685    9.0087 C   0  0  0  0  0  0  0  0  0  0  0  0
  -11.5208  -13.1838    7.9970 N   0  0  0  0  0  0  0  0  0  0  0  0
  -11.3574  -12.5153    6.7870 C   0  0  0  0  0  0  0  0  0  0  0  0
  -11.5188  -11.1545    6.5205 C   0  0  0  0  0  0  0  0  0  0  0  0
  -11.8969  -10.2787    7.5988 C   0  0  0  0  0  0  0  0  0  0  0  0
  -12.0924   -9.0876    7.6205 O   0  0  0  0  0  0  0  0  0  0  0  0
  -11.2406  -10.9235    5.1610 N   0  0  0  0  0  0  0  0  0  0  0  0
  -10.9163  -12.1407    4.6473 C   0  0  0  0  0  0  0  0  0  0  0  0
  -10.9810  -13.1400    5.6285 N   0  0  0  0  0  0  0  0  0  0  0  0
  1  2  1  0  0  0  0
  1  6  1  0  0  0  0
  2  3  2  0  0  0  0
  3  4  1  0  0  0  0
  4  5  2  0  0  0  0
  4 10  1  0  0  0  0
  5  6  1  0  0  0  0
  5  8  1  0  0  0  0
  6  7  2  0  0  0  0
  8  9  1  0  0  0  0
  9 10  2  0  0  0  0
M  END
>  <CHROM.1>
-11.55452993,-11.53259248,6.99514330,-3.07350854,1.29989499,-0.62269470

>  <Name>
ligand

>  <RI>
0

>  <Rbt.Current_Directory>
/home/itssahil/PROJECTS/Mol_Feturizer/New_Systems/rnas/2EES

>  <Rbt.Executable>
rbdock ($Id: //depot/dev/client3/rdock/2013.1/src/exe/rbdock.cxx#4 $)

>  <Rbt.Library>
libRbt.so (2013.1, Build901 2013/11/27)

>  <Rbt.Parameter_File>
/export/apps/rDock/src/rDock_2013.1_src/data/scripts/dock_solv.prm

>  <Rbt.Receptor>
prm/blind_docking_100.prm

>  <SCORE>
-16.9906

>  <SCORE.INTER>
-16.9906

>  <SCORE.INTER.CONST>
1

>  <SCORE.INTER.POLAR>
0

>  <SCORE.INTER.ROT>
0

>  <SCORE.INTER.SOLV>
3.56164

>  <SCORE.INTER.VDW>
-16.1143

>  <SCORE.INTER.norm>
-1.69906

>  <SCORE.INTRA>
0

>  <SCORE.INTRA.DIHEDRAL>
0

>  <SCORE.INTRA.DIHEDRAL.0>
0

>  <SCORE.INTRA.POLAR>
0

>  <SCORE.INTRA.POLAR.0>
0

>  <SCORE.INTRA.REPUL>
0

>  <SCORE.INTRA.REPUL.0>
0

>  <SCORE.INTRA.SOLV>
0

>  <SCORE.INTRA.SOLV.lig_0>
-4.28614

>  <SCORE.INTRA.VDW>
0

>  <SCORE.INTRA.VDW.0>
0

>  <SCORE.INTRA.norm>
0

>  <SCORE.RESTR>
0

>  <SCORE.RESTR.CAVITY>
0

>  <SCORE.RESTR.norm>
0

>  <SCORE.SYSTEM>
0

>  <SCORE.SYSTEM.CONST>
0

>  <SCORE.SYSTEM.DIHEDRAL>
0

>  <SCORE.SYSTEM.SOLV>
0

>  <SCORE.SYSTEM.norm>
0

>  <SCORE.heavy>
10

>  <SCORE.norm>
-1.69906

>  <RMSD>
0.641

$$$$
ligand
 OpenBabel11021811423D
libRbt.so/2013.1/901 2013/11/27
 10 11  0  0  0  0  0  0  0  0999 V2000
  -12.0676  -10.9741    8.8239 N   0  0  0  0  0  0  0  0  0  0  0  0
  -11.8895  -12.3460    9.0131 C   0  0  0  0  0  0  0  0  0  0  0  0
  -11.5346  -13.1707    8.0116 N   0  0  0  0  0  0  0  0  0  0  0  0
  -11.3647  -12.5140    6.7961 C   0  0  0  0  0  0  0  0  0  0  0  0
  -11.5263  -11.1560    6.5152 C   0  0  0  0  0  0  0  0  0  0  0  0
  -11.9123  -10.2703    7.5824 C   0  0  0  0  0  0  0  0  0  0  0  0
  -12.1096   -9.0792    7.5912 O   0  0  0  0  0  0  0  0  0  0  0  0
  -11.2401  -10.9381    5.1552 N   0  0  0  0  0  0  0  0  0  0  0  0
  -10.9109  -12.1598    4.6556 C   0  0  0  0  0  0  0  0  0  0  0  0
  -10.9803  -13.1494    5.6461 N   0  0  0  0  0  0  0  0  0  0  0  0
  1  2  1  0  0  0  0
  1  6  1  0  0  0  0
  2  3  2  0  0  0  0
  3  4  1  0  0  0  0
  4  5  2  0  0  0  0
  4 10  1  0  0  0  0
  5  6  1  0  0  0  0
  5  8  1  0  0  0  0
  6  7  2  0  0  0  0
  8  9  1  0  0  0  0
  9 10  2  0  0  0  0
M  END
>  <CHROM.1>
-11.56444422,-11.52952486,6.99330091,-3.08249229,1.29407192,-0.62390133

>  <Name>
ligand

>  <RI>
0

>  <Rbt.Current_Directory>
/home/itssahil/PROJECTS/Mol_Feturizer/New_Systems/rnas/2EES

>  <Rbt.Executable>
rbdock ($Id: //depot/dev/client3/rdock/2013.1/src/exe/rbdock.cxx#4 $)

>  <Rbt.Library>
libRbt.so (2013.1, Build901 2013/11/27)

>  <Rbt.Parameter_File>
/export/apps/rDock/src/rDock_2013.1_src/data/scripts/dock_solv.prm

>  <Rbt.Receptor>
prm/pocket_docking_6.prm

>  <SCORE>
-16.9747

>  <SCORE.INTER>
-16.9747

>  <SCORE.INTER.CONST>
1

>  <SCORE.INTER.POLAR>
0

>  <SCORE.INTER.ROT>
0

>  <SCORE.INTER.SOLV>
3.54067

>  <SCORE.INTER.VDW>
-16.0967

>  <SCORE.INTER.norm>
-1.69747

>  <SCORE.INTRA>
0

>  <SCORE.INTRA.DIHEDRAL>
0

>  <SCORE.INTRA.DIHEDRAL.0>
0

>  <SCORE.INTRA.POLAR>
0

>  <SCORE.INTRA.POLAR.0>
0

>  <SCORE.INTRA.REPUL>
0

>  <SCORE.INTRA.REPUL.0>
0

>  <SCORE.INTRA.SOLV>
0

>  <SCORE.INTRA.SOLV.lig_0>
-4.28614

>  <SCORE.INTRA.VDW>
0

>  <SCORE.INTRA.VDW.0>
0

>  <SCORE.INTRA.norm>
0

>  <SCORE.RESTR>
0

>  <SCORE.RESTR.CAVITY>
0

>  <SCORE.RESTR.norm>
0

>  <SCORE.SYSTEM>
0

>  <SCORE.SYSTEM.CONST>
0

>  <SCORE.SYSTEM.DIHEDRAL>
0

>  <SCORE.SYSTEM.SOLV>
0

>  <SCORE.SYSTEM.norm>
0

>  <SCORE.heavy>
10

>  <SCORE.norm>
-1.69747

>  <RMSD>
0.641

$$$$
ligand
 OpenBabel11021811423D
libRbt.so/2013.1/901 2013/11/27
 10 11  0  0  0  0  0  0  0  0999 V2000
  -12.0511  -11.0139    8.8349 N   0  0  0  0  0  0  0  0  0  0  0  0
  -11.8819  -12.3903    8.9976 C   0  0  0  0  0  0  0  0  0  0  0  0
  -11.5328  -13.1980    7.9803 N   0  0  0  0  0  0  0  0  0  0  0  0
  -11.3590  -12.5191    6.7775 C   0  0  0  0  0  0  0  0  0  0  0  0
  -11.5119  -11.1550    6.5229 C   0  0  0  0  0  0  0  0  0  0  0  0
  -11.8917  -10.2874    7.6071 C   0  0  0  0  0  0  0  0  0  0  0  0
  -12.0811   -9.0955    7.6388 O   0  0  0  0  0  0  0  0  0  0  0  0
  -11.2247  -10.9129    5.1671 N   0  0  0  0  0  0  0  0  0  0  0  0
  -10.9037  -12.1269    4.6440 C   0  0  0  0  0  0  0  0  0  0  0  0
  -10.9793  -13.1349    5.6154 N   0  0  0  0  0  0  0  0  0  0  0  0
  1  2  1  0  0  0  0
  1  6  1  0  0  0  0
  2  3  2  0  0  0  0
  3  4  1  0  0  0  0
  4  5  2  0  0  0  0
  4 10  1  0  0  0  0
  5  6  1  0  0  0  0
  5  8  1  0  0  0  0
  6  7  2  0  0  0  0
  8  9  1  0  0  0  0
  9 10  2  0  0  0  0
M  END
>  <CHROM.1>
-11.55228064,-11.53736396,6.99371356,-3.10149215,1.29814621,-0.58642010

>  <Name>
ligand

>  <RI>
0

>  <Rbt.Current_Directory>
/home/itssahil/PROJECTS/Mol_Feturizer/New_Systems/rnas/2EES

>  <Rbt.Executable>
rbdock ($Id: //depot/dev/client3/rdock/2013.1/src/exe/rbdock.cxx#4 $)

>  <Rbt.Library>
libRbt.so (2013.1, Build901 2013/11/27)

>  <Rbt.Parameter_File>
/export/apps/rDock/src/rDock_2013.1_src/data/scripts/dock_solv.prm

>  <Rbt.Receptor>
prm/blind_docking_60.prm

>  <SCORE>
-16.9855

>  <SCORE.INTER>
-16.9855

>  <SCORE.INTER.CONST>
1

>  <SCORE.INTER.POLAR>
0

>  <SCORE.INTER.ROT>
0

>  <SCORE.INTER.SOLV>
3.56659

>  <SCORE.INTER.VDW>
-16.1125

>  <SCORE.INTER.norm>
-1.69855

>  <SCORE.INTRA>
0

>  <SCORE.INTRA.DIHEDRAL>
0

>  <SCORE.INTRA.DIHEDRAL.0>
0

>  <SCORE.INTRA.POLAR>
0

>  <SCORE.INTRA.POLAR.0>
0

>  <SCORE.INTRA.REPUL>
0

>  <SCORE.INTRA.REPUL.0>
0

>  <SCORE.INTRA.SOLV>
0

>  <SCORE.INTRA.SOLV.lig_0>
-4.28614

>  <SCORE.INTRA.VDW>
0

>  <SCORE.INTRA.VDW.0>
0

>  <SCORE.INTRA.norm>
0

>  <SCORE.RESTR>
0

>  <SCORE.RESTR.CAVITY>
0

>  <SCORE.RESTR.norm>
0

>  <SCORE.SYSTEM>
0

>  <SCORE.SYSTEM.CONST>
0

>  <SCORE.SYSTEM.DIHEDRAL>
0

>  <SCORE.SYSTEM.SOLV>
0

>  <SCORE.SYSTEM.norm>
0

>  <SCORE.heavy>
10

>  <SCORE.norm>
-1.69855

>  <RMSD>
0.642

$$$$
ligand
 OpenBabel11021811423D
libRbt.so/2013.1/901 2013/11/27
 10 11  0  0  0  0  0  0  0  0999 V2000
  -12.0272  -11.0146    8.8377 N   0  0  0  0  0  0  0  0  0  0  0  0
  -11.8426  -12.3888    9.0021 C   0  0  0  0  0  0  0  0  0  0  0  0
  -11.4924  -13.1950    7.9841 N   0  0  0  0  0  0  0  0  0  0  0  0
  -11.3343  -12.5171    6.7786 C   0  0  0  0  0  0  0  0  0  0  0  0
  -11.5032  -11.1552    6.5222 C   0  0  0  0  0  0  0  0  0  0  0  0
  -11.8842  -10.2892    7.6073 C   0  0  0  0  0  0  0  0  0  0  0  0
  -12.0858   -9.0992    7.6379 O   0  0  0  0  0  0  0  0  0  0  0  0
  -11.2283  -10.9130    5.1639 N   0  0  0  0  0  0  0  0  0  0  0  0
  -10.8985  -12.1248    4.6411 C   0  0  0  0  0  0  0  0  0  0  0  0
  -10.9565  -13.1314    5.6151 N   0  0  0  0  0  0  0  0  0  0  0  0
  1  2  1  0  0  0  0
  1  6  1  0  0  0  0
  2  3  2  0  0  0  0
  3  4  1  0  0  0  0
  4  5  2  0  0  0  0
  4 10  1  0  0  0  0
  5  6  1  0  0  0  0
  5  8  1  0  0  0  0
  6  7  2  0  0  0  0
  8  9  1  0  0  0  0
  9 10  2  0  0  0  0
M  END
>  <CHROM.1>
-11.53623957,-11.53687371,6.99414991,-3.05450224,1.29807312,-0.63380203

>  <Name>
ligand

>  <RI>
0

>  <Rbt.Current_Directory>
/home/itssahil/PROJECTS/Mol_Feturizer/New_Systems/rnas/2EES

>  <Rbt.Executable>
rbdock ($Id: //depot/dev/client3/rdock/2013.1/src/exe/rbdock.cxx#4 $)

>  <Rbt.Library>
libRbt.so (2013.1, Build901 2013/11/27)

>  <Rbt.Parameter_File>
/export/apps/rDock/src/rDock_2013.1_src/data/scripts/dock_solv.prm

>  <Rbt.Receptor>
prm/pocket_docking_4.prm

>  <SCORE>
-16.9532

>  <SCORE.INTER>
-16.9532

>  <SCORE.INTER.CONST>
1

>  <SCORE.INTER.POLAR>
0

>  <SCORE.INTER.ROT>
0

>  <SCORE.INTER.SOLV>
3.55954

>  <SCORE.INTER.VDW>
-16.0886

>  <SCORE.INTER.norm>
-1.69532

>  <SCORE.INTRA>
0

>  <SCORE.INTRA.DIHEDRAL>
0

>  <SCORE.INTRA.DIHEDRAL.0>
0

>  <SCORE.INTRA.POLAR>
0

>  <SCORE.INTRA.POLAR.0>
0

>  <SCORE.INTRA.REPUL>
0

>  <SCORE.INTRA.REPUL.0>
0

>  <SCORE.INTRA.SOLV>
0

>  <SCORE.INTRA.SOLV.lig_0>
-4.28614

>  <SCORE.INTRA.VDW>
0

>  <SCORE.INTRA.VDW.0>
0

>  <SCORE.INTRA.norm>
0

>  <SCORE.RESTR>
0

>  <SCORE.RESTR.CAVITY>
0

>  <SCORE.RESTR.norm>
0

>  <SCORE.SYSTEM>
0

>  <SCORE.SYSTEM.CONST>
0

>  <SCORE.SYSTEM.DIHEDRAL>
0

>  <SCORE.SYSTEM.SOLV>
0

>  <SCORE.SYSTEM.norm>
0

>  <SCORE.heavy>
10

>  <SCORE.norm>
-1.69532

>  <RMSD>
0.642

$$$$
ligand
 OpenBabel11021811423D
libRbt.so/2013.1/901 2013/11/27
 10 11  0  0  0  0  0  0  0  0999 V2000
  -12.0449  -10.9982    8.8346 N   0  0  0  0  0  0  0  0  0  0  0  0
  -11.8764  -12.3735    9.0073 C   0  0  0  0  0  0  0  0  0  0  0  0
  -11.5310  -13.1892    7.9951 N   0  0  0  0  0  0  0  0  0  0  0  0
  -11.3603  -12.5196    6.7867 C   0  0  0  0  0  0  0  0  0  0  0  0
  -11.5127  -11.1573    6.5222 C   0  0  0  0  0  0  0  0  0  0  0  0
  -11.8886  -10.2812    7.6009 C   0  0  0  0  0  0  0  0  0  0  0  0
  -12.0769   -9.0889    7.6242 O   0  0  0  0  0  0  0  0  0  0  0  0
  -11.2294  -10.9257    5.1638 N   0  0  0  0  0  0  0  0  0  0  0  0
  -10.9111  -12.1439    4.6489 C   0  0  0  0  0  0  0  0  0  0  0  0
  -10.9845  -13.1445    5.6281 N   0  0  0  0  0  0  0  0  0  0  0  0
  1  2  1  0  0  0  0
  1  6  1  0  0  0  0
  2  3  2  0  0  0  0
  3  4  1  0  0  0  0
  4  5  2  0  0  0  0
  4 10  1  0  0  0  0
  5  6  1  0  0  0  0
  5  8  1  0  0  0  0
  6  7  2  0  0  0  0
  8  9  1  0  0  0  0
  9 10  2  0  0  0  0
M  END
>  <CHROM.1>
-11.55205027,-11.53605714,6.99601931,-3.09787317,1.30111349,-0.59746523

>  <Name>
ligand

>  <RI>
0

>  <Rbt.Current_Directory>
/home/itssahil/PROJECTS/Mol_Feturizer/New_Systems/rnas/2EES

>  <Rbt.Executable>
rbdock ($Id: //depot/dev/client3/rdock/2013.1/src/exe/rbdock.cxx#4 $)

>  <Rbt.Library>
libRbt.so (2013.1, Build901 2013/11/27)

>  <Rbt.Parameter_File>
/export/apps/rDock/src/rDock_2013.1_src/data/scripts/dock_solv.prm

>  <Rbt.Receptor>
prm/pocket_docking_4.prm

>  <SCORE>
-16.9889

>  <SCORE.INTER>
-16.9889

>  <SCORE.INTER.CONST>
1

>  <SCORE.INTER.POLAR>
0

>  <SCORE.INTER.ROT>
0

>  <SCORE.INTER.SOLV>
3.57704

>  <SCORE.INTER.VDW>
-16.1183

>  <SCORE.INTER.norm>
-1.69889

>  <SCORE.INTRA>
0

>  <SCORE.INTRA.DIHEDRAL>
0

>  <SCORE.INTRA.DIHEDRAL.0>
0

>  <SCORE.INTRA.POLAR>
0

>  <SCORE.INTRA.POLAR.0>
0

>  <SCORE.INTRA.REPUL>
0

>  <SCORE.INTRA.REPUL.0>
0

>  <SCORE.INTRA.SOLV>
0

>  <SCORE.INTRA.SOLV.lig_0>
-4.28614

>  <SCORE.INTRA.VDW>
0

>  <SCORE.INTRA.VDW.0>
0

>  <SCORE.INTRA.norm>
0

>  <SCORE.RESTR>
0

>  <SCORE.RESTR.CAVITY>
0

>  <SCORE.RESTR.norm>
0

>  <SCORE.SYSTEM>
0

>  <SCORE.SYSTEM.CONST>
0

>  <SCORE.SYSTEM.DIHEDRAL>
0

>  <SCORE.SYSTEM.SOLV>
0

>  <SCORE.SYSTEM.norm>
0

>  <SCORE.heavy>
10

>  <SCORE.norm>
-1.69889

>  <RMSD>
0.642

$$$$
ligand
 OpenBabel11021811423D
libRbt.so/2013.1/901 2013/11/27
 10 11  0  0  0  0  0  0  0  0999 V2000
  -12.0570  -11.0046    8.8310 N   0  0  0  0  0  0  0  0  0  0  0  0
  -11.8741  -12.3782    9.0022 C   0  0  0  0  0  0  0  0  0  0  0  0
  -11.5225  -13.1895    7.9886 N   0  0  0  0  0  0  0  0  0  0  0  0
  -11.3611  -12.5172    6.7804 C   0  0  0  0  0  0  0  0  0  0  0  0
  -11.5280  -11.1564    6.5173 C   0  0  0  0  0  0  0  0  0  0  0  0
  -11.9105  -10.2850    7.5975 C   0  0  0  0  0  0  0  0  0  0  0  0
  -12.1109   -9.0947    7.6222 O   0  0  0  0  0  0  0  0  0  0  0  0
  -11.2498  -10.9208    5.1585 N   0  0  0  0  0  0  0  0  0  0  0  0
  -10.9201  -12.1353    4.6420 C   0  0  0  0  0  0  0  0  0  0  0  0
  -10.9814  -13.1373    5.6206 N   0  0  0  0  0  0  0  0  0  0  0  0
  1  2  1  0  0  0  0
  1  6  1  0  0  0  0
  2  3  2  0  0  0  0
  3  4  1  0  0  0  0
  4  5  2  0  0  0  0
  4 10  1  0  0  0  0
  5  6  1  0  0  0  0
  5  8  1  0  0  0  0
  6  7  2  0  0  0  0
  8  9  1  0  0  0  0
  9 10  2  0  0  0  0
M  END
>  <CHROM.1>
-11.56245138,-11.53585940,6.99092349,-3.06247814,1.29691681,-0.63074503

>  <Name>
ligand

>  <RI>
0

>  <Rbt.Current_Directory>
/home/itssahil/PROJECTS/Mol_Feturizer/New_Systems/rnas/2EES

>  <Rbt.Executable>
rbdock ($Id: //depot/dev/client3/rdock/2013.1/src/exe/rbdock.cxx#4 $)

>  <Rbt.Library>
libRbt.so (2013.1, Build901 2013/11/27)

>  <Rbt.Parameter_File>
/export/apps/rDock/src/rDock_2013.1_src/data/scripts/dock_solv.prm

>  <Rbt.Receptor>
prm/pocket_docking_6.prm

>  <SCORE>
-16.9851

>  <SCORE.INTER>
-16.9851

>  <SCORE.INTER.CONST>
1

>  <SCORE.INTER.POLAR>
0

>  <SCORE.INTER.ROT>
0

>  <SCORE.INTER.SOLV>
3.54003

>  <SCORE.INTER.VDW>
-16.1034

>  <SCORE.INTER.norm>
-1.69851

>  <SCORE.INTRA>
0

>  <SCORE.INTRA.DIHEDRAL>
0

>  <SCORE.INTRA.DIHEDRAL.0>
0

>  <SCORE.INTRA.POLAR>
0

>  <SCORE.INTRA.POLAR.0>
0

>  <SCORE.INTRA.REPUL>
0

>  <SCORE.INTRA.REPUL.0>
0

>  <SCORE.INTRA.SOLV>
0

>  <SCORE.INTRA.SOLV.lig_0>
-4.28614

>  <SCORE.INTRA.VDW>
0

>  <SCORE.INTRA.VDW.0>
0

>  <SCORE.INTRA.norm>
0

>  <SCORE.RESTR>
0

>  <SCORE.RESTR.CAVITY>
0

>  <SCORE.RESTR.norm>
0

>  <SCORE.SYSTEM>
0

>  <SCORE.SYSTEM.CONST>
0

>  <SCORE.SYSTEM.DIHEDRAL>
0

>  <SCORE.SYSTEM.SOLV>
0

>  <SCORE.SYSTEM.norm>
0

>  <SCORE.heavy>
10

>  <SCORE.norm>
-1.69851

>  <RMSD>
0.642

$$$$
ligand
 OpenBabel11021811423D
libRbt.so/2013.1/901 2013/11/27
 10 11  0  0  0  0  0  0  0  0999 V2000
  -11.9951  -11.0238    8.8392 N   0  0  0  0  0  0  0  0  0  0  0  0
  -11.8065  -12.3970    9.0077 C   0  0  0  0  0  0  0  0  0  0  0  0
  -11.4662  -13.2072    7.9895 N   0  0  0  0  0  0  0  0  0  0  0  0
  -11.3225  -12.5344    6.7793 C   0  0  0  0  0  0  0  0  0  0  0  0
  -11.4964  -11.1739    6.5187 C   0  0  0  0  0  0  0  0  0  0  0  0
  -11.8669  -10.3037    7.6041 C   0  0  0  0  0  0  0  0  0  0  0  0
  -12.0701   -9.1139    7.6316 O   0  0  0  0  0  0  0  0  0  0  0  0
  -11.2369  -10.9374    5.1564 N   0  0  0  0  0  0  0  0  0  0  0  0
  -10.9109  -12.1510    4.6354 C   0  0  0  0  0  0  0  0  0  0  0  0
  -10.9565  -13.1533    5.6145 N   0  0  0  0  0  0  0  0  0  0  0  0
  1  2  1  0  0  0  0
  1  6  1  0  0  0  0
  2  3  2  0  0  0  0
  3  4  1  0  0  0  0
  4  5  2  0  0  0  0
  4 10  1  0  0  0  0
  5  6  1  0  0  0  0
  5  8  1  0  0  0  0
  6  7  2  0  0  0  0
  8  9  1  0  0  0  0
  9 10  2  0  0  0  0
M  END
>  <CHROM.1>
-11.52363004,-11.55353724,6.99268092,-3.02458254,1.30587336,-0.66711989

>  <Name>
ligand

>  <RI>
0

>  <Rbt.Current_Directory>
/home/itssahil/PROJECTS/Mol_Feturizer/New_Systems/rnas/2EES

>  <Rbt.Executable>
rbdock ($Id: //depot/dev/client3/rdock/2013.1/src/exe/rbdock.cxx#4 $)

>  <Rbt.Library>
libRbt.so (2013.1, Build901 2013/11/27)

>  <Rbt.Parameter_File>
/export/apps/rDock/src/rDock_2013.1_src/data/scripts/dock_solv.prm

>  <Rbt.Receptor>
prm/blind_docking_100.prm

>  <SCORE>
-16.9502

>  <SCORE.INTER>
-16.9502

>  <SCORE.INTER.CONST>
1

>  <SCORE.INTER.POLAR>
0

>  <SCORE.INTER.ROT>
0

>  <SCORE.INTER.SOLV>
3.58314

>  <SCORE.INTER.VDW>
-16.0945

>  <SCORE.INTER.norm>
-1.69502

>  <SCORE.INTRA>
0

>  <SCORE.INTRA.DIHEDRAL>
0

>  <SCORE.INTRA.DIHEDRAL.0>
0

>  <SCORE.INTRA.POLAR>
0

>  <SCORE.INTRA.POLAR.0>
0

>  <SCORE.INTRA.REPUL>
0

>  <SCORE.INTRA.REPUL.0>
0

>  <SCORE.INTRA.SOLV>
0

>  <SCORE.INTRA.SOLV.lig_0>
-4.28614

>  <SCORE.INTRA.VDW>
0

>  <SCORE.INTRA.VDW.0>
0

>  <SCORE.INTRA.norm>
0

>  <SCORE.RESTR>
0

>  <SCORE.RESTR.CAVITY>
0

>  <SCORE.RESTR.norm>
0

>  <SCORE.SYSTEM>
0

>  <SCORE.SYSTEM.CONST>
0

>  <SCORE.SYSTEM.DIHEDRAL>
0

>  <SCORE.SYSTEM.SOLV>
0

>  <SCORE.SYSTEM.norm>
0

>  <SCORE.heavy>
10

>  <SCORE.norm>
-1.69502

>  <RMSD>
0.644

$$$$
ligand
 OpenBabel11021811423D
libRbt.so/2013.1/901 2013/11/27
 10 11  0  0  0  0  0  0  0  0999 V2000
  -12.0480  -10.9825    8.8295 N   0  0  0  0  0  0  0  0  0  0  0  0
  -11.8775  -12.3564    9.0113 C   0  0  0  0  0  0  0  0  0  0  0  0
  -11.5332  -13.1786    8.0040 N   0  0  0  0  0  0  0  0  0  0  0  0
  -11.3658  -12.5171    6.7906 C   0  0  0  0  0  0  0  0  0  0  0  0
  -11.5204  -11.1569    6.5171 C   0  0  0  0  0  0  0  0  0  0  0  0
  -11.8951  -10.2738    7.5905 C   0  0  0  0  0  0  0  0  0  0  0  0
  -12.0848   -9.0816    7.6060 O   0  0  0  0  0  0  0  0  0  0  0  0
  -11.2402  -10.9343    5.1565 N   0  0  0  0  0  0  0  0  0  0  0  0
  -10.9215  -12.1556    4.6494 C   0  0  0  0  0  0  0  0  0  0  0  0
  -10.9917  -13.1495    5.6357 N   0  0  0  0  0  0  0  0  0  0  0  0
  1  2  1  0  0  0  0
  1  6  1  0  0  0  0
  2  3  2  0  0  0  0
  3  4  1  0  0  0  0
  4  5  2  0  0  0  0
  4 10  1  0  0  0  0
  5  6  1  0  0  0  0
  5  8  1  0  0  0  0
  6  7  2  0  0  0  0
  8  9  1  0  0  0  0
  9 10  2  0  0  0  0
M  END
>  <CHROM.1>
-11.55833115,-11.53238714,6.99359832,-3.08971541,1.30212742,-0.61221667

>  <Name>
ligand

>  <RI>
0

>  <Rbt.Current_Directory>
/home/itssahil/PROJECTS/Mol_Feturizer/New_Systems/rnas/2EES

>  <Rbt.Executable>
rbdock ($Id: //depot/dev/client3/rdock/2013.1/src/exe/rbdock.cxx#4 $)

>  <Rbt.Library>
libRbt.so (2013.1, Build901 2013/11/27)

>  <Rbt.Parameter_File>
/export/apps/rDock/src/rDock_2013.1_src/data/scripts/dock_solv.prm

>  <Rbt.Receptor>
prm/blind_docking_60.prm

>  <SCORE>
-16.9868

>  <SCORE.INTER>
-16.9868

>  <SCORE.INTER.CONST>
1

>  <SCORE.INTER.POLAR>
0

>  <SCORE.INTER.ROT>
0

>  <SCORE.INTER.SOLV>
3.57464

>  <SCORE.INTER.VDW>
-16.1161

>  <SCORE.INTER.norm>
-1.69868

>  <SCORE.INTRA>
0

>  <SCORE.INTRA.DIHEDRAL>
0

>  <SCORE.INTRA.DIHEDRAL.0>
0

>  <SCORE.INTRA.POLAR>
0

>  <SCORE.INTRA.POLAR.0>
0

>  <SCORE.INTRA.REPUL>
0

>  <SCORE.INTRA.REPUL.0>
0

>  <SCORE.INTRA.SOLV>
0

>  <SCORE.INTRA.SOLV.lig_0>
-4.28614

>  <SCORE.INTRA.VDW>
0

>  <SCORE.INTRA.VDW.0>
0

>  <SCORE.INTRA.norm>
0

>  <SCORE.RESTR>
0

>  <SCORE.RESTR.CAVITY>
0

>  <SCORE.RESTR.norm>
0

>  <SCORE.SYSTEM>
0

>  <SCORE.SYSTEM.CONST>
0

>  <SCORE.SYSTEM.DIHEDRAL>
0

>  <SCORE.SYSTEM.SOLV>
0

>  <SCORE.SYSTEM.norm>
0

>  <SCORE.heavy>
10

>  <SCORE.norm>
-1.69868

>  <RMSD>
0.644

$$$$
ligand
 OpenBabel11021811423D
libRbt.so/2013.1/901 2013/11/27
 10 11  0  0  0  0  0  0  0  0999 V2000
  -12.0498  -10.9993    8.8315 N   0  0  0  0  0  0  0  0  0  0  0  0
  -11.8716  -12.3734    9.0039 C   0  0  0  0  0  0  0  0  0  0  0  0
  -11.5269  -13.1874    7.9901 N   0  0  0  0  0  0  0  0  0  0  0  0
  -11.3674  -12.5174    6.7804 C   0  0  0  0  0  0  0  0  0  0  0  0
  -11.5300  -11.1563    6.5161 C   0  0  0  0  0  0  0  0  0  0  0  0
  -11.9051  -10.2820    7.5965 C   0  0  0  0  0  0  0  0  0  0  0  0
  -12.1009   -9.0909    7.6202 O   0  0  0  0  0  0  0  0  0  0  0  0
  -11.2560  -10.9236    5.1559 N   0  0  0  0  0  0  0  0  0  0  0  0
  -10.9329  -12.1401    4.6399 C   0  0  0  0  0  0  0  0  0  0  0  0
  -10.9943  -13.1405    5.6200 N   0  0  0  0  0  0  0  0  0  0  0  0
  1  2  1  0  0  0  0
  1  6  1  0  0  0  0
  2  3  2  0  0  0  0
  3  4  1  0  0  0  0
  4  5  2  0  0  0  0
  4 10  1  0  0  0  0
  5  6  1  0  0  0  0
  5  8  1  0  0  0  0
  6  7  2  0  0  0  0
  8  9  1  0  0  0  0
  9 10  2  0  0  0  0
M  END
>  <CHROM.1>
-11.56417956,-11.53497238,6.99032356,-3.06590056,1.30217469,-0.62882441

>  <Name>
ligand

>  <RI>
0

>  <Rbt.Current_Directory>
/home/itssahil/PROJECTS/Mol_Feturizer/New_Systems/rnas/2EES

>  <Rbt.Executable>
rbdock ($Id: //depot/dev/client3/rdock/2013.1/src/exe/rbdock.cxx#4 $)

>  <Rbt.Library>
libRbt.so (2013.1, Build901 2013/11/27)

>  <Rbt.Parameter_File>
/export/apps/rDock/src/rDock_2013.1_src/data/scripts/dock_solv.prm

>  <Rbt.Receptor>
prm/pocket_docking_4.prm

>  <SCORE>
-16.9862

>  <SCORE.INTER>
-16.9862

>  <SCORE.INTER.CONST>
1

>  <SCORE.INTER.POLAR>
0

>  <SCORE.INTER.ROT>
0

>  <SCORE.INTER.SOLV>
3.55914

>  <SCORE.INTER.VDW>
-16.1105

>  <SCORE.INTER.norm>
-1.69862

>  <SCORE.INTRA>
0

>  <SCORE.INTRA.DIHEDRAL>
0

>  <SCORE.INTRA.DIHEDRAL.0>
0

>  <SCORE.INTRA.POLAR>
0

>  <SCORE.INTRA.POLAR.0>
0

>  <SCORE.INTRA.REPUL>
0

>  <SCORE.INTRA.REPUL.0>
0

>  <SCORE.INTRA.SOLV>
0

>  <SCORE.INTRA.SOLV.lig_0>
-4.28614

>  <SCORE.INTRA.VDW>
0

>  <SCORE.INTRA.VDW.0>
0

>  <SCORE.INTRA.norm>
0

>  <SCORE.RESTR>
0

>  <SCORE.RESTR.CAVITY>
0

>  <SCORE.RESTR.norm>
0

>  <SCORE.SYSTEM>
0

>  <SCORE.SYSTEM.CONST>
0

>  <SCORE.SYSTEM.DIHEDRAL>
0

>  <SCORE.SYSTEM.SOLV>
0

>  <SCORE.SYSTEM.norm>
0

>  <SCORE.heavy>
10

>  <SCORE.norm>
-1.69862

>  <RMSD>
0.644

$$$$
ligand
 OpenBabel11021811423D
libRbt.so/2013.1/901 2013/11/27
 10 11  0  0  0  0  0  0  0  0999 V2000
  -12.0652  -11.0285    8.8219 N   0  0  0  0  0  0  0  0  0  0  0  0
  -11.8910  -12.4064    8.9651 C   0  0  0  0  0  0  0  0  0  0  0  0
  -11.5328  -13.1973    7.9378 N   0  0  0  0  0  0  0  0  0  0  0  0
  -11.3554  -12.4999    6.7462 C   0  0  0  0  0  0  0  0  0  0  0  0
  -11.5127  -11.1328    6.5111 C   0  0  0  0  0  0  0  0  0  0  0  0
  -11.9022  -10.2831    7.6059 C   0  0  0  0  0  0  0  0  0  0  0  0
  -12.0970   -9.0926    7.6543 O   0  0  0  0  0  0  0  0  0  0  0  0
  -11.2191  -10.8693    5.1607 N   0  0  0  0  0  0  0  0  0  0  0  0
  -10.8900  -12.0740    4.6214 C   0  0  0  0  0  0  0  0  0  0  0  0
  -10.9665  -13.0967    5.5773 N   0  0  0  0  0  0  0  0  0  0  0  0
  1  2  1  0  0  0  0
  1  6  1  0  0  0  0
  2  3  2  0  0  0  0
  3  4  1  0  0  0  0
  4  5  2  0  0  0  0
  4 10  1  0  0  0  0
  5  6  1  0  0  0  0
  5  8  1  0  0  0  0
  6  7  2  0  0  0  0
  8  9  1  0  0  0  0
  9 10  2  0  0  0  0
M  END
>  <CHROM.1>
-11.55403593,-11.52230354,6.97595683,-3.09947900,1.29116569,-0.57345585

>  <Name>
ligand

>  <RI>
0

>  <Rbt.Current_Directory>
/home/itssahil/PROJECTS/Mol_Feturizer/New_Systems/rnas/2EES

>  <Rbt.Executable>
rbdock ($Id: //depot/dev/client3/rdock/2013.1/src/exe/rbdock.cxx#4 $)

>  <Rbt.Library>
libRbt.so (2013.1, Build901 2013/11/27)

>  <Rbt.Parameter_File>
/export/apps/rDock/src/rDock_2013.1_src/data/scripts/dock_solv.prm

>  <Rbt.Receptor>
prm/pocket_docking_8.prm

>  <SCORE>
-17.0284

>  <SCORE.INTER>
-17.0284

>  <SCORE.INTER.CONST>
1

>  <SCORE.INTER.POLAR>
0

>  <SCORE.INTER.ROT>
0

>  <SCORE.INTER.SOLV>
3.54543

>  <SCORE.INTER.VDW>
-16.1341

>  <SCORE.INTER.norm>
-1.70284

>  <SCORE.INTRA>
0

>  <SCORE.INTRA.DIHEDRAL>
0

>  <SCORE.INTRA.DIHEDRAL.0>
0

>  <SCORE.INTRA.POLAR>
0

>  <SCORE.INTRA.POLAR.0>
0

>  <SCORE.INTRA.REPUL>
0

>  <SCORE.INTRA.REPUL.0>
0

>  <SCORE.INTRA.SOLV>
0

>  <SCORE.INTRA.SOLV.lig_0>
-4.28614

>  <SCORE.INTRA.VDW>
0

>  <SCORE.INTRA.VDW.0>
0

>  <SCORE.INTRA.norm>
0

>  <SCORE.RESTR>
0

>  <SCORE.RESTR.CAVITY>
0

>  <SCORE.RESTR.norm>
0

>  <SCORE.SYSTEM>
0

>  <SCORE.SYSTEM.CONST>
0

>  <SCORE.SYSTEM.DIHEDRAL>
0

>  <SCORE.SYSTEM.SOLV>
0

>  <SCORE.SYSTEM.norm>
0

>  <SCORE.heavy>
10

>  <SCORE.norm>
-1.70284

>  <RMSD>
0.659

$$$$
ligand
 OpenBabel11021811423D
libRbt.so/2013.1/901 2013/11/27
 10 11  0  0  0  0  0  0  0  0999 V2000
  -12.0687  -11.0269    8.8172 N   0  0  0  0  0  0  0  0  0  0  0  0
  -11.8778  -12.4022    8.9650 C   0  0  0  0  0  0  0  0  0  0  0  0
  -11.5158  -13.1931    7.9390 N   0  0  0  0  0  0  0  0  0  0  0  0
  -11.3527  -12.4985    6.7437 C   0  0  0  0  0  0  0  0  0  0  0  0
  -11.5272  -11.1343    6.5039 C   0  0  0  0  0  0  0  0  0  0  0  0
  -11.9208  -10.2847    7.5974 C   0  0  0  0  0  0  0  0  0  0  0  0
  -12.1292   -9.0963    7.6420 O   0  0  0  0  0  0  0  0  0  0  0  0
  -11.2438  -10.8729    5.1510 N   0  0  0  0  0  0  0  0  0  0  0  0
  -10.9036  -12.0759    4.6147 C   0  0  0  0  0  0  0  0  0  0  0  0
  -10.9631  -13.0955    5.5751 N   0  0  0  0  0  0  0  0  0  0  0  0
  1  2  1  0  0  0  0
  1  6  1  0  0  0  0
  2  3  2  0  0  0  0
  3  4  1  0  0  0  0
  4  5  2  0  0  0  0
  4 10  1  0  0  0  0
  5  6  1  0  0  0  0
  5  8  1  0  0  0  0
  6  7  2  0  0  0  0
  8  9  1  0  0  0  0
  9 10  2  0  0  0  0
M  END
>  <CHROM.1>
-11.56156796,-11.52234826,6.97056152,-3.05402649,1.28899889,-0.62118347

>  <Name>
ligand

>  <RI>
0

>  <Rbt.Current_Directory>
/home/itssahil/PROJECTS/Mol_Feturizer/New_Systems/rnas/2EES

>  <Rbt.Executable>
rbdock ($Id: //depot/dev/client3/rdock/2013.1/src/exe/rbdock.cxx#4 $)

>  <Rbt.Library>
libRbt.so (2013.1, Build901 2013/11/27)

>  <Rbt.Parameter_File>
/export/apps/rDock/src/rDock_2013.1_src/data/scripts/dock_solv.prm

>  <Rbt.Receptor>
prm/blind_docking_80.prm

>  <SCORE>
-17.024

>  <SCORE.INTER>
-17.024

>  <SCORE.INTER.CONST>
1

>  <SCORE.INTER.POLAR>
0

>  <SCORE.INTER.ROT>
0

>  <SCORE.INTER.SOLV>
3.51216

>  <SCORE.INTER.VDW>
-16.1201

>  <SCORE.INTER.norm>
-1.7024

>  <SCORE.INTRA>
0

>  <SCORE.INTRA.DIHEDRAL>
0

>  <SCORE.INTRA.DIHEDRAL.0>
0

>  <SCORE.INTRA.POLAR>
0

>  <SCORE.INTRA.POLAR.0>
0

>  <SCORE.INTRA.REPUL>
0

>  <SCORE.INTRA.REPUL.0>
0

>  <SCORE.INTRA.SOLV>
0

>  <SCORE.INTRA.SOLV.lig_0>
-4.28614

>  <SCORE.INTRA.VDW>
0

>  <SCORE.INTRA.VDW.0>
0

>  <SCORE.INTRA.norm>
0

>  <SCORE.RESTR>
0

>  <SCORE.RESTR.CAVITY>
0

>  <SCORE.RESTR.norm>
0

>  <SCORE.SYSTEM>
0

>  <SCORE.SYSTEM.CONST>
0

>  <SCORE.SYSTEM.DIHEDRAL>
0

>  <SCORE.SYSTEM.SOLV>
0

>  <SCORE.SYSTEM.norm>
0

>  <SCORE.heavy>
10

>  <SCORE.norm>
-1.7024

>  <RMSD>
0.660

$$$$
ligand
 OpenBabel11021811423D
libRbt.so/2013.1/901 2013/11/27
 10 11  0  0  0  0  0  0  0  0999 V2000
  -12.0662  -10.9872    8.8202 N   0  0  0  0  0  0  0  0  0  0  0  0
  -11.9116  -12.3649    8.9858 C   0  0  0  0  0  0  0  0  0  0  0  0
  -11.5692  -13.1781    7.9706 N   0  0  0  0  0  0  0  0  0  0  0  0
  -11.3864  -12.5033    6.7668 C   0  0  0  0  0  0  0  0  0  0  0  0
  -11.5247  -11.1382    6.5094 C   0  0  0  0  0  0  0  0  0  0  0  0
  -11.8973  -10.2647    7.5913 C   0  0  0  0  0  0  0  0  0  0  0  0
  -12.0744   -9.0708    7.6205 O   0  0  0  0  0  0  0  0  0  0  0  0
  -11.2328  -10.9015    5.1537 N   0  0  0  0  0  0  0  0  0  0  0  0
  -10.9236  -12.1198    4.6333 C   0  0  0  0  0  0  0  0  0  0  0  0
  -11.0111  -13.1252    5.6065 N   0  0  0  0  0  0  0  0  0  0  0  0
  1  2  1  0  0  0  0
  1  6  1  0  0  0  0
  2  3  2  0  0  0  0
  3  4  1  0  0  0  0
  4  5  2  0  0  0  0
  4 10  1  0  0  0  0
  5  6  1  0  0  0  0
  5  8  1  0  0  0  0
  6  7  2  0  0  0  0
  8  9  1  0  0  0  0
  9 10  2  0  0  0  0
M  END
>  <CHROM.1>
-11.56985136,-11.51920875,6.98086099,-3.13743182,1.30234440,-0.55363379

>  <Name>
ligand

>  <RI>
0

>  <Rbt.Current_Directory>
/home/itssahil/PROJECTS/Mol_Feturizer/New_Systems/rnas/2EES

>  <Rbt.Executable>
rbdock ($Id: //depot/dev/client3/rdock/2013.1/src/exe/rbdock.cxx#4 $)

>  <Rbt.Library>
libRbt.so (2013.1, Build901 2013/11/27)

>  <Rbt.Parameter_File>
/export/apps/rDock/src/rDock_2013.1_src/data/scripts/dock_solv.prm

>  <Rbt.Receptor>
prm/pocket_docking_8.prm

>  <SCORE>
-17.0455

>  <SCORE.INTER>
-17.0455

>  <SCORE.INTER.CONST>
1

>  <SCORE.INTER.POLAR>
0

>  <SCORE.INTER.ROT>
0

>  <SCORE.INTER.SOLV>
3.59055

>  <SCORE.INTER.VDW>
-16.1605

>  <SCORE.INTER.norm>
-1.70455

>  <SCORE.INTRA>
0

>  <SCORE.INTRA.DIHEDRAL>
0

>  <SCORE.INTRA.DIHEDRAL.0>
0

>  <SCORE.INTRA.POLAR>
0

>  <SCORE.INTRA.POLAR.0>
0

>  <SCORE.INTRA.REPUL>
0

>  <SCORE.INTRA.REPUL.0>
0

>  <SCORE.INTRA.SOLV>
0

>  <SCORE.INTRA.SOLV.lig_0>
-4.28614

>  <SCORE.INTRA.VDW>
0

>  <SCORE.INTRA.VDW.0>
0

>  <SCORE.INTRA.norm>
0

>  <SCORE.RESTR>
0

>  <SCORE.RESTR.CAVITY>
0

>  <SCORE.RESTR.norm>
0

>  <SCORE.SYSTEM>
0

>  <SCORE.SYSTEM.CONST>
0

>  <SCORE.SYSTEM.DIHEDRAL>
0

>  <SCORE.SYSTEM.SOLV>
0

>  <SCORE.SYSTEM.norm>
0

>  <SCORE.heavy>
10

>  <SCORE.norm>
-1.70455

>  <RMSD>
0.660

$$$$
ligand
 OpenBabel11021811423D
libRbt.so/2013.1/901 2013/11/27
 10 11  0  0  0  0  0  0  0  0999 V2000
  -12.0408  -10.9729    8.8294 N   0  0  0  0  0  0  0  0  0  0  0  0
  -11.8942  -12.3514    8.9966 C   0  0  0  0  0  0  0  0  0  0  0  0
  -11.5646  -13.1688    7.9807 N   0  0  0  0  0  0  0  0  0  0  0  0
  -11.3860  -12.4977    6.7742 C   0  0  0  0  0  0  0  0  0  0  0  0
  -11.5170  -11.1322    6.5150 C   0  0  0  0  0  0  0  0  0  0  0  0
  -11.8759  -10.2540    7.5979 C   0  0  0  0  0  0  0  0  0  0  0  0
  -12.0448   -9.0589    7.6259 O   0  0  0  0  0  0  0  0  0  0  0  0
  -11.2333  -10.9002    5.1568 N   0  0  0  0  0  0  0  0  0  0  0  0
  -10.9360  -12.1215    4.6367 C   0  0  0  0  0  0  0  0  0  0  0  0
  -11.0232  -13.1243    5.6125 N   0  0  0  0  0  0  0  0  0  0  0  0
  1  2  1  0  0  0  0
  1  6  1  0  0  0  0
  2  3  2  0  0  0  0
  3  4  1  0  0  0  0
  4  5  2  0  0  0  0
  4 10  1  0  0  0  0
  5  6  1  0  0  0  0
  5  8  1  0  0  0  0
  6  7  2  0  0  0  0
  8  9  1  0  0  0  0
  9 10  2  0  0  0  0
M  END
>  <CHROM.1>
-11.56127943,-11.51194894,6.98761795,3.13826951,1.31198388,-0.54841514

>  <Name>
ligand

>  <RI>
0

>  <Rbt.Current_Directory>
/home/itssahil/PROJECTS/Mol_Feturizer/New_Systems/rnas/2EES

>  <Rbt.Executable>
rbdock ($Id: //depot/dev/client3/rdock/2013.1/src/exe/rbdock.cxx#4 $)

>  <Rbt.Library>
libRbt.so (2013.1, Build901 2013/11/27)

>  <Rbt.Parameter_File>
/export/apps/rDock/src/rDock_2013.1_src/data/scripts/dock_solv.prm

>  <Rbt.Receptor>
prm/pocket_docking_8.prm

>  <SCORE>
-16.9756

>  <SCORE.INTER>
-16.9756

>  <SCORE.INTER.CONST>
1

>  <SCORE.INTER.POLAR>
0

>  <SCORE.INTER.ROT>
0

>  <SCORE.INTER.SOLV>
3.63243

>  <SCORE.INTER.VDW>
-16.1278

>  <SCORE.INTER.norm>
-1.69756

>  <SCORE.INTRA>
0

>  <SCORE.INTRA.DIHEDRAL>
0

>  <SCORE.INTRA.DIHEDRAL.0>
0

>  <SCORE.INTRA.POLAR>
0

>  <SCORE.INTRA.POLAR.0>
0

>  <SCORE.INTRA.REPUL>
0

>  <SCORE.INTRA.REPUL.0>
0

>  <SCORE.INTRA.SOLV>
0

>  <SCORE.INTRA.SOLV.lig_0>
-4.28614

>  <SCORE.INTRA.VDW>
0

>  <SCORE.INTRA.VDW.0>
0

>  <SCORE.INTRA.norm>
0

>  <SCORE.RESTR>
0

>  <SCORE.RESTR.CAVITY>
0

>  <SCORE.RESTR.norm>
0

>  <SCORE.SYSTEM>
0

>  <SCORE.SYSTEM.CONST>
0

>  <SCORE.SYSTEM.DIHEDRAL>
0

>  <SCORE.SYSTEM.SOLV>
0

>  <SCORE.SYSTEM.norm>
0

>  <SCORE.heavy>
10

>  <SCORE.norm>
-1.69756

>  <RMSD>
0.661

$$$$
ligand
 OpenBabel11021811423D
libRbt.so/2013.1/901 2013/11/27
 10 11  0  0  0  0  0  0  0  0999 V2000
  -12.0346  -10.9610    8.8317 N   0  0  0  0  0  0  0  0  0  0  0  0
  -11.8944  -12.3395    9.0035 C   0  0  0  0  0  0  0  0  0  0  0  0
  -11.5717  -13.1622    7.9895 N   0  0  0  0  0  0  0  0  0  0  0  0
  -11.3931  -12.4963    6.7802 C   0  0  0  0  0  0  0  0  0  0  0  0
  -11.5180  -11.1311    6.5165 C   0  0  0  0  0  0  0  0  0  0  0  0
  -11.8696  -10.2473    7.5971 C   0  0  0  0  0  0  0  0  0  0  0  0
  -12.0325   -9.0513    7.6214 O   0  0  0  0  0  0  0  0  0  0  0  0
  -11.2370  -10.9054    5.1566 N   0  0  0  0  0  0  0  0  0  0  0  0
  -10.9472  -12.1301    4.6401 C   0  0  0  0  0  0  0  0  0  0  0  0
  -11.0368  -13.1289    5.6197 N   0  0  0  0  0  0  0  0  0  0  0  0
  1  2  1  0  0  0  0
  1  6  1  0  0  0  0
  2  3  2  0  0  0  0
  3  4  1  0  0  0  0
  4  5  2  0  0  0  0
  4 10  1  0  0  0  0
  5  6  1  0  0  0  0
  5  8  1  0  0  0  0
  6  7  2  0  0  0  0
  8  9  1  0  0  0  0
  9 10  2  0  0  0  0
M  END
>  <CHROM.1>
-11.56291666,-11.50894750,6.99051932,3.12713928,1.31694410,-0.54123873

>  <Name>
ligand

>  <RI>
0

>  <Rbt.Current_Directory>
/home/itssahil/PROJECTS/Mol_Feturizer/New_Systems/rnas/2EES

>  <Rbt.Executable>
rbdock ($Id: //depot/dev/client3/rdock/2013.1/src/exe/rbdock.cxx#4 $)

>  <Rbt.Library>
libRbt.so (2013.1, Build901 2013/11/27)

>  <Rbt.Parameter_File>
/export/apps/rDock/src/rDock_2013.1_src/data/scripts/dock_solv.prm

>  <Rbt.Receptor>
prm/blind_docking_100.prm

>  <SCORE>
-16.9716

>  <SCORE.INTER>
-16.9716

>  <SCORE.INTER.CONST>
1

>  <SCORE.INTER.POLAR>
0

>  <SCORE.INTER.ROT>
0

>  <SCORE.INTER.SOLV>
3.6532

>  <SCORE.INTER.VDW>
-16.1321

>  <SCORE.INTER.norm>
-1.69716

>  <SCORE.INTRA>
0

>  <SCORE.INTRA.DIHEDRAL>
0

>  <SCORE.INTRA.DIHEDRAL.0>
0

>  <SCORE.INTRA.POLAR>
0

>  <SCORE.INTRA.POLAR.0>
0

>  <SCORE.INTRA.REPUL>
0

>  <SCORE.INTRA.REPUL.0>
0

>  <SCORE.INTRA.SOLV>
0

>  <SCORE.INTRA.SOLV.lig_0>
-4.28614

>  <SCORE.INTRA.VDW>
0

>  <SCORE.INTRA.VDW.0>
0

>  <SCORE.INTRA.norm>
0

>  <SCORE.RESTR>
0

>  <SCORE.RESTR.CAVITY>
0

>  <SCORE.RESTR.norm>
0

>  <SCORE.SYSTEM>
0

>  <SCORE.SYSTEM.CONST>
0

>  <SCORE.SYSTEM.DIHEDRAL>
0

>  <SCORE.SYSTEM.SOLV>
0

>  <SCORE.SYSTEM.norm>
0

>  <SCORE.heavy>
10

>  <SCORE.norm>
-1.69716

>  <RMSD>
0.662

$$$$
ligand
 OpenBabel11021811423D
libRbt.so/2013.1/901 2013/11/27
 10 11  0  0  0  0  0  0  0  0999 V2000
  -12.0680  -10.9778    8.8092 N   0  0  0  0  0  0  0  0  0  0  0  0
  -11.9049  -12.3538    8.9813 C   0  0  0  0  0  0  0  0  0  0  0  0
  -11.5555  -13.1694    7.9704 N   0  0  0  0  0  0  0  0  0  0  0  0
  -11.3748  -12.4989    6.7639 C   0  0  0  0  0  0  0  0  0  0  0  0
  -11.5212  -11.1358    6.5001 C   0  0  0  0  0  0  0  0  0  0  0  0
  -11.9014  -10.2598    7.5774 C   0  0  0  0  0  0  0  0  0  0  0  0
  -12.0861   -9.0670    7.6009 O   0  0  0  0  0  0  0  0  0  0  0  0
  -11.2284  -10.9034    5.1439 N   0  0  0  0  0  0  0  0  0  0  0  0
  -10.9105  -12.1220    4.6296 C   0  0  0  0  0  0  0  0  0  0  0  0
  -10.9934  -13.1235    5.6071 N   0  0  0  0  0  0  0  0  0  0  0  0
  1  2  1  0  0  0  0
  1  6  1  0  0  0  0
  2  3  2  0  0  0  0
  3  4  1  0  0  0  0
  4  5  2  0  0  0  0
  4 10  1  0  0  0  0
  5  6  1  0  0  0  0
  5  8  1  0  0  0  0
  6  7  2  0  0  0  0
  8  9  1  0  0  0  0
  9 10  2  0  0  0  0
M  END
>  <CHROM.1>
-11.56484975,-11.51497708,6.97320203,-3.12106179,1.29741372,-0.57391230

>  <Name>
ligand

>  <RI>
0

>  <Rbt.Current_Directory>
/home/itssahil/PROJECTS/Mol_Feturizer/New_Systems/rnas/2EES

>  <Rbt.Executable>
rbdock ($Id: //depot/dev/client3/rdock/2013.1/src/exe/rbdock.cxx#4 $)

>  <Rbt.Library>
libRbt.so (2013.1, Build901 2013/11/27)

>  <Rbt.Parameter_File>
/export/apps/rDock/src/rDock_2013.1_src/data/scripts/dock_solv.prm

>  <Rbt.Receptor>
prm/blind_docking_80.prm

>  <SCORE>
-17.0444

>  <SCORE.INTER>
-17.0444

>  <SCORE.INTER.CONST>
1

>  <SCORE.INTER.POLAR>
0

>  <SCORE.INTER.ROT>
0

>  <SCORE.INTER.SOLV>
3.57474

>  <SCORE.INTER.VDW>
-16.1545

>  <SCORE.INTER.norm>
-1.70444

>  <SCORE.INTRA>
0

>  <SCORE.INTRA.DIHEDRAL>
0

>  <SCORE.INTRA.DIHEDRAL.0>
0

>  <SCORE.INTRA.POLAR>
0

>  <SCORE.INTRA.POLAR.0>
0

>  <SCORE.INTRA.REPUL>
0

>  <SCORE.INTRA.REPUL.0>
0

>  <SCORE.INTRA.SOLV>
0

>  <SCORE.INTRA.SOLV.lig_0>
-4.28614

>  <SCORE.INTRA.VDW>
0

>  <SCORE.INTRA.VDW.0>
0

>  <SCORE.INTRA.norm>
0

>  <SCORE.RESTR>
0

>  <SCORE.RESTR.CAVITY>
0

>  <SCORE.RESTR.norm>
0

>  <SCORE.SYSTEM>
0

>  <SCORE.SYSTEM.CONST>
0

>  <SCORE.SYSTEM.DIHEDRAL>
0

>  <SCORE.SYSTEM.SOLV>
0

>  <SCORE.SYSTEM.norm>
0

>  <SCORE.heavy>
10

>  <SCORE.norm>
-1.70444

>  <RMSD>
0.665

$$$$
ligand
 OpenBabel11021811423D
libRbt.so/2013.1/901 2013/11/27
 10 11  0  0  0  0  0  0  0  0999 V2000
  -12.0674  -11.0169    8.8111 N   0  0  0  0  0  0  0  0  0  0  0  0
  -11.8768  -12.3920    8.9600 C   0  0  0  0  0  0  0  0  0  0  0  0
  -11.5073  -13.1826    7.9365 N   0  0  0  0  0  0  0  0  0  0  0  0
  -11.3363  -12.4877    6.7424 C   0  0  0  0  0  0  0  0  0  0  0  0
  -11.5097  -11.1236    6.5017 C   0  0  0  0  0  0  0  0  0  0  0  0
  -11.9113  -10.2743    7.5925 C   0  0  0  0  0  0  0  0  0  0  0  0
  -12.1205   -9.0861    7.6359 O   0  0  0  0  0  0  0  0  0  0  0  0
  -11.2171  -10.8618    5.1508 N   0  0  0  0  0  0  0  0  0  0  0  0
  -10.8726  -12.0646    4.6167 C   0  0  0  0  0  0  0  0  0  0  0  0
  -10.9383  -13.0843    5.5765 N   0  0  0  0  0  0  0  0  0  0  0  0
  1  2  1  0  0  0  0
  1  6  1  0  0  0  0
  2  3  2  0  0  0  0
  3  4  1  0  0  0  0
  4  5  2  0  0  0  0
  4 10  1  0  0  0  0
  5  6  1  0  0  0  0
  5  8  1  0  0  0  0
  6  7  2  0  0  0  0
  8  9  1  0  0  0  0
  9 10  2  0  0  0  0
M  END
>  <CHROM.1>
-11.54716129,-11.51170281,6.96799227,-3.06694826,1.28306205,-0.60860529

>  <Name>
ligand

>  <RI>
0

>  <Rbt.Current_Directory>
/home/itssahil/PROJECTS/Mol_Feturizer/New_Systems/rnas/2EES

>  <Rbt.Executable>
rbdock ($Id: //depot/dev/client3/rdock/2013.1/src/exe/rbdock.cxx#4 $)

>  <Rbt.Library>
libRbt.so (2013.1, Build901 2013/11/27)

>  <Rbt.Parameter_File>
/export/apps/rDock/src/rDock_2013.1_src/data/scripts/dock_solv.prm

>  <Rbt.Receptor>
prm/blind_docking_80.prm

>  <SCORE>
-17.0106

>  <SCORE.INTER>
-17.0106

>  <SCORE.INTER.CONST>
1

>  <SCORE.INTER.POLAR>
0

>  <SCORE.INTER.ROT>
0

>  <SCORE.INTER.SOLV>
3.51331

>  <SCORE.INTER.VDW>
-16.1115

>  <SCORE.INTER.norm>
-1.70106

>  <SCORE.INTRA>
0

>  <SCORE.INTRA.DIHEDRAL>
0

>  <SCORE.INTRA.DIHEDRAL.0>
0

>  <SCORE.INTRA.POLAR>
0

>  <SCORE.INTRA.POLAR.0>
0

>  <SCORE.INTRA.REPUL>
0

>  <SCORE.INTRA.REPUL.0>
0

>  <SCORE.INTRA.SOLV>
0

>  <SCORE.INTRA.SOLV.lig_0>
-4.28614

>  <SCORE.INTRA.VDW>
0

>  <SCORE.INTRA.VDW.0>
0

>  <SCORE.INTRA.norm>
0

>  <SCORE.RESTR>
0

>  <SCORE.RESTR.CAVITY>
0

>  <SCORE.RESTR.norm>
0

>  <SCORE.SYSTEM>
0

>  <SCORE.SYSTEM.CONST>
0

>  <SCORE.SYSTEM.DIHEDRAL>
0

>  <SCORE.SYSTEM.SOLV>
0

>  <SCORE.SYSTEM.norm>
0

>  <SCORE.heavy>
10

>  <SCORE.norm>
-1.70106

>  <RMSD>
0.665

$$$$
ligand
 OpenBabel11021811423D
libRbt.so/2013.1/901 2013/11/27
 10 11  0  0  0  0  0  0  0  0999 V2000
  -12.0592  -10.9963    8.8131 N   0  0  0  0  0  0  0  0  0  0  0  0
  -11.8950  -12.3732    8.9765 C   0  0  0  0  0  0  0  0  0  0  0  0
  -11.5482  -13.1825    7.9597 N   0  0  0  0  0  0  0  0  0  0  0  0
  -11.3714  -12.5048    6.7567 C   0  0  0  0  0  0  0  0  0  0  0  0
  -11.5192  -11.1403    6.5014 C   0  0  0  0  0  0  0  0  0  0  0  0
  -11.8966  -10.2709    7.5851 C   0  0  0  0  0  0  0  0  0  0  0  0
  -12.0818   -9.0783    7.6162 O   0  0  0  0  0  0  0  0  0  0  0  0
  -11.2305  -10.8997    5.1457 N   0  0  0  0  0  0  0  0  0  0  0  0
  -10.9135  -12.1151    4.6233 C   0  0  0  0  0  0  0  0  0  0  0  0
  -10.9931  -13.1224    5.5951 N   0  0  0  0  0  0  0  0  0  0  0  0
  1  2  1  0  0  0  0
  1  6  1  0  0  0  0
  2  3  2  0  0  0  0
  3  4  1  0  0  0  0
  4  5  2  0  0  0  0
  4 10  1  0  0  0  0
  5  6  1  0  0  0  0
  5  8  1  0  0  0  0
  6  7  2  0  0  0  0
  8  9  1  0  0  0  0
  9 10  2  0  0  0  0
M  END
>  <CHROM.1>
-11.56127539,-11.52224935,6.97240390,-3.11358865,1.29962175,-0.57516872

>  <Name>
ligand

>  <RI>
0

>  <Rbt.Current_Directory>
/home/itssahil/PROJECTS/Mol_Feturizer/New_Systems/rnas/2EES

>  <Rbt.Executable>
rbdock ($Id: //depot/dev/client3/rdock/2013.1/src/exe/rbdock.cxx#4 $)

>  <Rbt.Library>
libRbt.so (2013.1, Build901 2013/11/27)

>  <Rbt.Parameter_File>
/export/apps/rDock/src/rDock_2013.1_src/data/scripts/dock_solv.prm

>  <Rbt.Receptor>
prm/pocket_docking_4.prm

>  <SCORE>
-17.0485

>  <SCORE.INTER>
-17.0485

>  <SCORE.INTER.CONST>
1

>  <SCORE.INTER.POLAR>
0

>  <SCORE.INTER.ROT>
0

>  <SCORE.INTER.SOLV>
3.57929

>  <SCORE.INTER.VDW>
-16.1588

>  <SCORE.INTER.norm>
-1.70485

>  <SCORE.INTRA>
0

>  <SCORE.INTRA.DIHEDRAL>
0

>  <SCORE.INTRA.DIHEDRAL.0>
0

>  <SCORE.INTRA.POLAR>
0

>  <SCORE.INTRA.POLAR.0>
0

>  <SCORE.INTRA.REPUL>
0

>  <SCORE.INTRA.REPUL.0>
0

>  <SCORE.INTRA.SOLV>
0

>  <SCORE.INTRA.SOLV.lig_0>
-4.28614

>  <SCORE.INTRA.VDW>
0

>  <SCORE.INTRA.VDW.0>
0

>  <SCORE.INTRA.norm>
0

>  <SCORE.RESTR>
0

>  <SCORE.RESTR.CAVITY>
0

>  <SCORE.RESTR.norm>
0

>  <SCORE.SYSTEM>
0

>  <SCORE.SYSTEM.CONST>
0

>  <SCORE.SYSTEM.DIHEDRAL>
0

>  <SCORE.SYSTEM.SOLV>
0

>  <SCORE.SYSTEM.norm>
0

>  <SCORE.heavy>
10

>  <SCORE.norm>
-1.70485

>  <RMSD>
0.665

$$$$
ligand
 OpenBabel11021811423D
libRbt.so/2013.1/901 2013/11/27
 10 11  0  0  0  0  0  0  0  0999 V2000
  -12.0604  -10.9961    8.8133 N   0  0  0  0  0  0  0  0  0  0  0  0
  -11.8870  -12.3723    8.9735 C   0  0  0  0  0  0  0  0  0  0  0  0
  -11.5325  -13.1766    7.9554 N   0  0  0  0  0  0  0  0  0  0  0  0
  -11.3579  -12.4946    6.7545 C   0  0  0  0  0  0  0  0  0  0  0  0
  -11.5146  -11.1304    6.5024 C   0  0  0  0  0  0  0  0  0  0  0  0
  -11.9002  -10.2664    7.5874 C   0  0  0  0  0  0  0  0  0  0  0  0
  -12.0938   -9.0752    7.6212 O   0  0  0  0  0  0  0  0  0  0  0  0
  -11.2247  -10.8844    5.1480 N   0  0  0  0  0  0  0  0  0  0  0  0
  -10.8983  -12.0962    4.6231 C   0  0  0  0  0  0  0  0  0  0  0  0
  -10.9729  -13.1065    5.5921 N   0  0  0  0  0  0  0  0  0  0  0  0
  1  2  1  0  0  0  0
  1  6  1  0  0  0  0
  2  3  2  0  0  0  0
  3  4  1  0  0  0  0
  4  5  2  0  0  0  0
  4 10  1  0  0  0  0
  5  6  1  0  0  0  0
  5  8  1  0  0  0  0
  6  7  2  0  0  0  0
  8  9  1  0  0  0  0
  9 10  2  0  0  0  0
M  END
>  <CHROM.1>
-11.55498934,-11.51391141,6.97231842,-3.09653269,1.29407129,-0.58903730

>  <Name>
ligand

>  <RI>
0

>  <Rbt.Current_Directory>
/home/itssahil/PROJECTS/Mol_Feturizer/New_Systems/rnas/2EES

>  <Rbt.Executable>
rbdock ($Id: //depot/dev/client3/rdock/2013.1/src/exe/rbdock.cxx#4 $)

>  <Rbt.Library>
libRbt.so (2013.1, Build901 2013/11/27)

>  <Rbt.Parameter_File>
/export/apps/rDock/src/rDock_2013.1_src/data/scripts/dock_solv.prm

>  <Rbt.Receptor>
prm/pocket_docking_7.prm

>  <SCORE>
-17.0017

>  <SCORE.INTER>
-17.0017

>  <SCORE.INTER.CONST>
1

>  <SCORE.INTER.POLAR>
0

>  <SCORE.INTER.ROT>
0

>  <SCORE.INTER.SOLV>
3.55893

>  <SCORE.INTER.VDW>
-16.1208

>  <SCORE.INTER.norm>
-1.70017

>  <SCORE.INTRA>
0

>  <SCORE.INTRA.DIHEDRAL>
0

>  <SCORE.INTRA.DIHEDRAL.0>
0

>  <SCORE.INTRA.POLAR>
0

>  <SCORE.INTRA.POLAR.0>
0

>  <SCORE.INTRA.REPUL>
0

>  <SCORE.INTRA.REPUL.0>
0

>  <SCORE.INTRA.SOLV>
0

>  <SCORE.INTRA.SOLV.lig_0>
-4.28614

>  <SCORE.INTRA.VDW>
0

>  <SCORE.INTRA.VDW.0>
0

>  <SCORE.INTRA.norm>
0

>  <SCORE.RESTR>
0

>  <SCORE.RESTR.CAVITY>
0

>  <SCORE.RESTR.norm>
0

>  <SCORE.SYSTEM>
0

>  <SCORE.SYSTEM.CONST>
0

>  <SCORE.SYSTEM.DIHEDRAL>
0

>  <SCORE.SYSTEM.SOLV>
0

>  <SCORE.SYSTEM.norm>
0

>  <SCORE.heavy>
10

>  <SCORE.norm>
-1.70017

>  <RMSD>
0.665

$$$$
ligand
 OpenBabel11021811423D
libRbt.so/2013.1/901 2013/11/27
 10 11  0  0  0  0  0  0  0  0999 V2000
  -12.0501  -10.9838    8.8196 N   0  0  0  0  0  0  0  0  0  0  0  0
  -11.9036  -12.3628    8.9819 C   0  0  0  0  0  0  0  0  0  0  0  0
  -11.5658  -13.1755    7.9647 N   0  0  0  0  0  0  0  0  0  0  0  0
  -11.3788  -12.4989    6.7626 C   0  0  0  0  0  0  0  0  0  0  0  0
  -11.5090  -11.1323    6.5085 C   0  0  0  0  0  0  0  0  0  0  0  0
  -11.8766  -10.2593    7.5926 C   0  0  0  0  0  0  0  0  0  0  0  0
  -12.0467   -9.0644    7.6247 O   0  0  0  0  0  0  0  0  0  0  0  0
  -11.2154  -10.8941    5.1535 N   0  0  0  0  0  0  0  0  0  0  0  0
  -10.9133  -12.1129    4.6302 C   0  0  0  0  0  0  0  0  0  0  0  0
  -11.0070  -13.1201    5.6009 N   0  0  0  0  0  0  0  0  0  0  0  0
  1  2  1  0  0  0  0
  1  6  1  0  0  0  0
  2  3  2  0  0  0  0
  3  4  1  0  0  0  0
  4  5  2  0  0  0  0
  4 10  1  0  0  0  0
  5  6  1  0  0  0  0
  5  8  1  0  0  0  0
  6  7  2  0  0  0  0
  8  9  1  0  0  0  0
  9 10  2  0  0  0  0
M  END
>  <CHROM.1>
-11.55648212,-11.51422986,6.97908391,3.12617791,1.30522849,-0.53230779

>  <Name>
ligand

>  <RI>
0

>  <Rbt.Current_Directory>
/home/itssahil/PROJECTS/Mol_Feturizer/New_Systems/rnas/2EES

>  <Rbt.Executable>
rbdock ($Id: //depot/dev/client3/rdock/2013.1/src/exe/rbdock.cxx#4 $)

>  <Rbt.Library>
libRbt.so (2013.1, Build901 2013/11/27)

>  <Rbt.Parameter_File>
/export/apps/rDock/src/rDock_2013.1_src/data/scripts/dock_solv.prm

>  <Rbt.Receptor>
prm/blind_docking_80.prm

>  <SCORE>
-17.0092

>  <SCORE.INTER>
-17.0092

>  <SCORE.INTER.CONST>
1

>  <SCORE.INTER.POLAR>
0

>  <SCORE.INTER.ROT>
0

>  <SCORE.INTER.SOLV>
3.62137

>  <SCORE.INTER.VDW>
-16.1466

>  <SCORE.INTER.norm>
-1.70092

>  <SCORE.INTRA>
0

>  <SCORE.INTRA.DIHEDRAL>
0

>  <SCORE.INTRA.DIHEDRAL.0>
0

>  <SCORE.INTRA.POLAR>
0

>  <SCORE.INTRA.POLAR.0>
0

>  <SCORE.INTRA.REPUL>
0

>  <SCORE.INTRA.REPUL.0>
0

>  <SCORE.INTRA.SOLV>
0

>  <SCORE.INTRA.SOLV.lig_0>
-4.28614

>  <SCORE.INTRA.VDW>
0

>  <SCORE.INTRA.VDW.0>
0

>  <SCORE.INTRA.norm>
0

>  <SCORE.RESTR>
0

>  <SCORE.RESTR.CAVITY>
0

>  <SCORE.RESTR.norm>
0

>  <SCORE.SYSTEM>
0

>  <SCORE.SYSTEM.CONST>
0

>  <SCORE.SYSTEM.DIHEDRAL>
0

>  <SCORE.SYSTEM.SOLV>
0

>  <SCORE.SYSTEM.norm>
0

>  <SCORE.heavy>
10

>  <SCORE.norm>
-1.70092

>  <RMSD>
0.666

$$$$
ligand
 OpenBabel11021811423D
libRbt.so/2013.1/901 2013/11/27
 10 11  0  0  0  0  0  0  0  0999 V2000
  -12.0677  -10.9965    8.8070 N   0  0  0  0  0  0  0  0  0  0  0  0
  -11.8822  -12.3709    8.9687 C   0  0  0  0  0  0  0  0  0  0  0  0
  -11.5191  -13.1729    7.9517 N   0  0  0  0  0  0  0  0  0  0  0  0
  -11.3490  -12.4904    6.7505 C   0  0  0  0  0  0  0  0  0  0  0  0
  -11.5176  -11.1279    6.4970 C   0  0  0  0  0  0  0  0  0  0  0  0
  -11.9124  -10.2665    7.5808 C   0  0  0  0  0  0  0  0  0  0  0  0
  -12.1167   -9.0771    7.6132 O   0  0  0  0  0  0  0  0  0  0  0  0
  -11.2281  -10.8804    5.1427 N   0  0  0  0  0  0  0  0  0  0  0  0
  -10.8901  -12.0897    4.6193 C   0  0  0  0  0  0  0  0  0  0  0  0
  -10.9570  -13.0999    5.5891 N   0  0  0  0  0  0  0  0  0  0  0  0
  1  2  1  0  0  0  0
  1  6  1  0  0  0  0
  2  3  2  0  0  0  0
  3  4  1  0  0  0  0
  4  5  2  0  0  0  0
  4 10  1  0  0  0  0
  5  6  1  0  0  0  0
  5  8  1  0  0  0  0
  6  7  2  0  0  0  0
  8  9  1  0  0  0  0
  9 10  2  0  0  0  0
M  END
>  <CHROM.1>
-11.55518779,-11.51135828,6.96717053,-3.07239336,1.28789438,-0.61310118

>  <Name>
ligand

>  <RI>
0

>  <Rbt.Current_Directory>
/home/itssahil/PROJECTS/Mol_Feturizer/New_Systems/rnas/2EES

>  <Rbt.Executable>
rbdock ($Id: //depot/dev/client3/rdock/2013.1/src/exe/rbdock.cxx#4 $)

>  <Rbt.Library>
libRbt.so (2013.1, Build901 2013/11/27)

>  <Rbt.Parameter_File>
/export/apps/rDock/src/rDock_2013.1_src/data/scripts/dock_solv.prm

>  <Rbt.Receptor>
prm/pocket_docking_6.prm

>  <SCORE>
-17.0264

>  <SCORE.INTER>
-17.0264

>  <SCORE.INTER.CONST>
1

>  <SCORE.INTER.POLAR>
0

>  <SCORE.INTER.ROT>
0

>  <SCORE.INTER.SOLV>
3.52861

>  <SCORE.INTER.VDW>
-16.1272

>  <SCORE.INTER.norm>
-1.70264

>  <SCORE.INTRA>
0

>  <SCORE.INTRA.DIHEDRAL>
0

>  <SCORE.INTRA.DIHEDRAL.0>
0

>  <SCORE.INTRA.POLAR>
0

>  <SCORE.INTRA.POLAR.0>
0

>  <SCORE.INTRA.REPUL>
0

>  <SCORE.INTRA.REPUL.0>
0

>  <SCORE.INTRA.SOLV>
0

>  <SCORE.INTRA.SOLV.lig_0>
-4.28614

>  <SCORE.INTRA.VDW>
0

>  <SCORE.INTRA.VDW.0>
0

>  <SCORE.INTRA.norm>
0

>  <SCORE.RESTR>
0

>  <SCORE.RESTR.CAVITY>
0

>  <SCORE.RESTR.norm>
0

>  <SCORE.SYSTEM>
0

>  <SCORE.SYSTEM.CONST>
0

>  <SCORE.SYSTEM.DIHEDRAL>
0

>  <SCORE.SYSTEM.SOLV>
0

>  <SCORE.SYSTEM.norm>
0

>  <SCORE.heavy>
10

>  <SCORE.norm>
-1.70264

>  <RMSD>
0.666

$$$$
ligand
 OpenBabel11021811423D
libRbt.so/2013.1/901 2013/11/27
 10 11  0  0  0  0  0  0  0  0999 V2000
  -12.0477  -10.9797    8.8235 N   0  0  0  0  0  0  0  0  0  0  0  0
  -11.9083  -12.3596    8.9845 C   0  0  0  0  0  0  0  0  0  0  0  0
  -11.5751  -13.1732    7.9666 N   0  0  0  0  0  0  0  0  0  0  0  0
  -11.3850  -12.4966    6.7650 C   0  0  0  0  0  0  0  0  0  0  0  0
  -11.5081  -11.1291    6.5121 C   0  0  0  0  0  0  0  0  0  0  0  0
  -11.8708  -10.2551    7.5969 C   0  0  0  0  0  0  0  0  0  0  0  0
  -12.0347   -9.0594    7.6301 O   0  0  0  0  0  0  0  0  0  0  0  0
  -11.2137  -10.8913    5.1571 N   0  0  0  0  0  0  0  0  0  0  0  0
  -10.9181  -12.1112    4.6327 C   0  0  0  0  0  0  0  0  0  0  0  0
  -11.0167  -13.1187    5.6026 N   0  0  0  0  0  0  0  0  0  0  0  0
  1  2  1  0  0  0  0
  1  6  1  0  0  0  0
  2  3  2  0  0  0  0
  3  4  1  0  0  0  0
  4  5  2  0  0  0  0
  4 10  1  0  0  0  0
  5  6  1  0  0  0  0
  5  8  1  0  0  0  0
  6  7  2  0  0  0  0
  8  9  1  0  0  0  0
  9 10  2  0  0  0  0
M  END
>  <CHROM.1>
-11.55742217,-11.51115998,6.98230150,3.10956667,1.30811364,-0.51543792

>  <Name>
ligand

>  <RI>
0

>  <Rbt.Current_Directory>
/home/itssahil/PROJECTS/Mol_Feturizer/New_Systems/rnas/2EES

>  <Rbt.Executable>
rbdock ($Id: //depot/dev/client3/rdock/2013.1/src/exe/rbdock.cxx#4 $)

>  <Rbt.Library>
libRbt.so (2013.1, Build901 2013/11/27)

>  <Rbt.Parameter_File>
/export/apps/rDock/src/rDock_2013.1_src/data/scripts/dock_solv.prm

>  <Rbt.Receptor>
prm/pocket_docking_7.prm

>  <SCORE>
-17.0055

>  <SCORE.INTER>
-17.0055

>  <SCORE.INTER.CONST>
1

>  <SCORE.INTER.POLAR>
0

>  <SCORE.INTER.ROT>
0

>  <SCORE.INTER.SOLV>
3.63703

>  <SCORE.INTER.VDW>
-16.1493

>  <SCORE.INTER.norm>
-1.70055

>  <SCORE.INTRA>
0

>  <SCORE.INTRA.DIHEDRAL>
0

>  <SCORE.INTRA.DIHEDRAL.0>
0

>  <SCORE.INTRA.POLAR>
0

>  <SCORE.INTRA.POLAR.0>
0

>  <SCORE.INTRA.REPUL>
0

>  <SCORE.INTRA.REPUL.0>
0

>  <SCORE.INTRA.SOLV>
0

>  <SCORE.INTRA.SOLV.lig_0>
-4.28614

>  <SCORE.INTRA.VDW>
0

>  <SCORE.INTRA.VDW.0>
0

>  <SCORE.INTRA.norm>
0

>  <SCORE.RESTR>
0

>  <SCORE.RESTR.CAVITY>
0

>  <SCORE.RESTR.norm>
0

>  <SCORE.SYSTEM>
0

>  <SCORE.SYSTEM.CONST>
0

>  <SCORE.SYSTEM.DIHEDRAL>
0

>  <SCORE.SYSTEM.SOLV>
0

>  <SCORE.SYSTEM.norm>
0

>  <SCORE.heavy>
10

>  <SCORE.norm>
-1.70055

>  <RMSD>
0.666

$$$$
ligand
 OpenBabel11021811423D
libRbt.so/2013.1/901 2013/11/27
 10 11  0  0  0  0  0  0  0  0999 V2000
  -12.0674  -10.9678    8.8082 N   0  0  0  0  0  0  0  0  0  0  0  0
  -11.9043  -12.3433    8.9840 C   0  0  0  0  0  0  0  0  0  0  0  0
  -11.5557  -13.1617    7.9751 N   0  0  0  0  0  0  0  0  0  0  0  0
  -11.3758  -12.4946    6.7666 C   0  0  0  0  0  0  0  0  0  0  0  0
  -11.5224  -11.1323    6.4991 C   0  0  0  0  0  0  0  0  0  0  0  0
  -11.9016  -10.2533    7.5742 C   0  0  0  0  0  0  0  0  0  0  0  0
  -12.0862   -9.0603    7.5945 O   0  0  0  0  0  0  0  0  0  0  0  0
  -11.2305  -10.9037    5.1420 N   0  0  0  0  0  0  0  0  0  0  0  0
  -10.9131  -12.1238    4.6309 C   0  0  0  0  0  0  0  0  0  0  0  0
  -10.9954  -13.1226    5.6113 N   0  0  0  0  0  0  0  0  0  0  0  0
  1  2  1  0  0  0  0
  1  6  1  0  0  0  0
  2  3  2  0  0  0  0
  3  4  1  0  0  0  0
  4  5  2  0  0  0  0
  4 10  1  0  0  0  0
  5  6  1  0  0  0  0
  5  8  1  0  0  0  0
  6  7  2  0  0  0  0
  8  9  1  0  0  0  0
  9 10  2  0  0  0  0
M  END
>  <CHROM.1>
-11.56565425,-11.51014094,6.97328587,-3.11986963,1.29808063,-0.57786119

>  <Name>
ligand

>  <RI>
0

>  <Rbt.Current_Directory>
/home/itssahil/PROJECTS/Mol_Feturizer/New_Systems/rnas/2EES

>  <Rbt.Executable>
rbdock ($Id: //depot/dev/client3/rdock/2013.1/src/exe/rbdock.cxx#4 $)

>  <Rbt.Library>
libRbt.so (2013.1, Build901 2013/11/27)

>  <Rbt.Parameter_File>
/export/apps/rDock/src/rDock_2013.1_src/data/scripts/dock_solv.prm

>  <Rbt.Receptor>
prm/blind_docking_40.prm

>  <SCORE>
-17.0444

>  <SCORE.INTER>
-17.0444

>  <SCORE.INTER.CONST>
1

>  <SCORE.INTER.POLAR>
0

>  <SCORE.INTER.ROT>
0

>  <SCORE.INTER.SOLV>
3.57709

>  <SCORE.INTER.VDW>
-16.1553

>  <SCORE.INTER.norm>
-1.70444

>  <SCORE.INTRA>
0

>  <SCORE.INTRA.DIHEDRAL>
0

>  <SCORE.INTRA.DIHEDRAL.0>
0

>  <SCORE.INTRA.POLAR>
0

>  <SCORE.INTRA.POLAR.0>
0

>  <SCORE.INTRA.REPUL>
0

>  <SCORE.INTRA.REPUL.0>
0

>  <SCORE.INTRA.SOLV>
0

>  <SCORE.INTRA.SOLV.lig_0>
-4.28614

>  <SCORE.INTRA.VDW>
0

>  <SCORE.INTRA.VDW.0>
0

>  <SCORE.INTRA.norm>
0

>  <SCORE.RESTR>
0

>  <SCORE.RESTR.CAVITY>
0

>  <SCORE.RESTR.norm>
0

>  <SCORE.SYSTEM>
0

>  <SCORE.SYSTEM.CONST>
0

>  <SCORE.SYSTEM.DIHEDRAL>
0

>  <SCORE.SYSTEM.SOLV>
0

>  <SCORE.SYSTEM.norm>
0

>  <SCORE.heavy>
10

>  <SCORE.norm>
-1.70444

>  <RMSD>
0.667

$$$$
ligand
 OpenBabel11021811423D
libRbt.so/2013.1/901 2013/11/27
 10 11  0  0  0  0  0  0  0  0999 V2000
  -12.0669  -10.9990    8.8091 N   0  0  0  0  0  0  0  0  0  0  0  0
  -11.8840  -12.3742    8.9673 C   0  0  0  0  0  0  0  0  0  0  0  0
  -11.5235  -13.1745    7.9482 N   0  0  0  0  0  0  0  0  0  0  0  0
  -11.3533  -12.4895    6.7483 C   0  0  0  0  0  0  0  0  0  0  0  0
  -11.5195  -11.1261    6.4982 C   0  0  0  0  0  0  0  0  0  0  0  0
  -11.9115  -10.2664    7.5845 C   0  0  0  0  0  0  0  0  0  0  0  0
  -12.1133   -9.0767    7.6200 O   0  0  0  0  0  0  0  0  0  0  0  0
  -11.2309  -10.8760    5.1442 N   0  0  0  0  0  0  0  0  0  0  0  0
  -10.8958  -12.0847    4.6176 C   0  0  0  0  0  0  0  0  0  0  0  0
  -10.9637  -13.0970    5.5852 N   0  0  0  0  0  0  0  0  0  0  0  0
  1  2  1  0  0  0  0
  1  6  1  0  0  0  0
  2  3  2  0  0  0  0
  3  4  1  0  0  0  0
  4  5  2  0  0  0  0
  4 10  1  0  0  0  0
  5  6  1  0  0  0  0
  5  8  1  0  0  0  0
  6  7  2  0  0  0  0
  8  9  1  0  0  0  0
  9 10  2  0  0  0  0
M  END
>  <CHROM.1>
-11.55732417,-11.51052891,6.96755982,-3.07617698,1.28988807,-0.60709723

>  <Name>
ligand

>  <RI>
0

>  <Rbt.Current_Directory>
/home/itssahil/PROJECTS/Mol_Feturizer/New_Systems/rnas/2EES

>  <Rbt.Executable>
rbdock ($Id: //depot/dev/client3/rdock/2013.1/src/exe/rbdock.cxx#4 $)

>  <Rbt.Library>
libRbt.so (2013.1, Build901 2013/11/27)

>  <Rbt.Parameter_File>
/export/apps/rDock/src/rDock_2013.1_src/data/scripts/dock_solv.prm

>  <Rbt.Receptor>
prm/blind_docking_60.prm

>  <SCORE>
-17.0261

>  <SCORE.INTER>
-17.0261

>  <SCORE.INTER.CONST>
1

>  <SCORE.INTER.POLAR>
0

>  <SCORE.INTER.ROT>
0

>  <SCORE.INTER.SOLV>
3.53481

>  <SCORE.INTER.VDW>
-16.129

>  <SCORE.INTER.norm>
-1.70261

>  <SCORE.INTRA>
0

>  <SCORE.INTRA.DIHEDRAL>
0

>  <SCORE.INTRA.DIHEDRAL.0>
0

>  <SCORE.INTRA.POLAR>
0

>  <SCORE.INTRA.POLAR.0>
0

>  <SCORE.INTRA.REPUL>
0

>  <SCORE.INTRA.REPUL.0>
0

>  <SCORE.INTRA.SOLV>
0

>  <SCORE.INTRA.SOLV.lig_0>
-4.28614

>  <SCORE.INTRA.VDW>
0

>  <SCORE.INTRA.VDW.0>
0

>  <SCORE.INTRA.norm>
0

>  <SCORE.RESTR>
0

>  <SCORE.RESTR.CAVITY>
0

>  <SCORE.RESTR.norm>
0

>  <SCORE.SYSTEM>
0

>  <SCORE.SYSTEM.CONST>
0

>  <SCORE.SYSTEM.DIHEDRAL>
0

>  <SCORE.SYSTEM.SOLV>
0

>  <SCORE.SYSTEM.norm>
0

>  <SCORE.heavy>
10

>  <SCORE.norm>
-1.70261

>  <RMSD>
0.667

$$$$
ligand
 OpenBabel11021811423D
libRbt.so/2013.1/901 2013/11/27
 10 11  0  0  0  0  0  0  0  0999 V2000
  -11.9745  -11.2110    8.8420 N   0  0  0  0  0  0  0  0  0  0  0  0
  -11.7484  -12.5861    8.9296 C   0  0  0  0  0  0  0  0  0  0  0  0
  -11.3989  -13.3276    7.8632 N   0  0  0  0  0  0  0  0  0  0  0  0
  -11.2864  -12.5832    6.6923 C   0  0  0  0  0  0  0  0  0  0  0  0
  -11.4984  -11.2151    6.5119 C   0  0  0  0  0  0  0  0  0  0  0  0
  -11.8789  -10.4184    7.6490 C   0  0  0  0  0  0  0  0  0  0  0  0
  -12.1125   -9.2380    7.7467 O   0  0  0  0  0  0  0  0  0  0  0  0
  -11.2605  -10.8944    5.1629 N   0  0  0  0  0  0  0  0  0  0  0  0
  -10.9092  -12.0672    4.5699 C   0  0  0  0  0  0  0  0  0  0  0  0
  -10.9178  -13.1247    5.4903 N   0  0  0  0  0  0  0  0  0  0  0  0
  1  2  1  0  0  0  0
  1  6  1  0  0  0  0
  2  3  2  0  0  0  0
  3  4  1  0  0  0  0
  4  5  2  0  0  0  0
  4 10  1  0  0  0  0
  5  6  1  0  0  0  0
  5  8  1  0  0  0  0
  6  7  2  0  0  0  0
  8  9  1  0  0  0  0
  9 10  2  0  0  0  0
M  END
>  <CHROM.1>
-11.51039712,-11.62180505,6.96355624,-2.92311317,1.29744282,-0.70767060

>  <Name>
ligand

>  <RI>
0

>  <Rbt.Current_Directory>
/home/itssahil/PROJECTS/Mol_Feturizer/New_Systems/rnas/2EES

>  <Rbt.Executable>
rbdock ($Id: //depot/dev/client3/rdock/2013.1/src/exe/rbdock.cxx#4 $)

>  <Rbt.Library>
libRbt.so (2013.1, Build901 2013/11/27)

>  <Rbt.Parameter_File>
/export/apps/rDock/src/rDock_2013.1_src/data/scripts/dock_solv.prm

>  <Rbt.Receptor>
prm/pocket_docking_6.prm

>  <SCORE>
-16.9917

>  <SCORE.INTER>
-16.9917

>  <SCORE.INTER.CONST>
1

>  <SCORE.INTER.POLAR>
0

>  <SCORE.INTER.ROT>
0

>  <SCORE.INTER.SOLV>
3.56817

>  <SCORE.INTER.VDW>
-16.1172

>  <SCORE.INTER.norm>
-1.69917

>  <SCORE.INTRA>
0

>  <SCORE.INTRA.DIHEDRAL>
0

>  <SCORE.INTRA.DIHEDRAL.0>
0

>  <SCORE.INTRA.POLAR>
0

>  <SCORE.INTRA.POLAR.0>
0

>  <SCORE.INTRA.REPUL>
0

>  <SCORE.INTRA.REPUL.0>
0

>  <SCORE.INTRA.SOLV>
0

>  <SCORE.INTRA.SOLV.lig_0>
-4.28614

>  <SCORE.INTRA.VDW>
0

>  <SCORE.INTRA.VDW.0>
0

>  <SCORE.INTRA.norm>
0

>  <SCORE.RESTR>
0

>  <SCORE.RESTR.CAVITY>
0

>  <SCORE.RESTR.norm>
0

>  <SCORE.SYSTEM>
0

>  <SCORE.SYSTEM.CONST>
0

>  <SCORE.SYSTEM.DIHEDRAL>
0

>  <SCORE.SYSTEM.SOLV>
0

>  <SCORE.SYSTEM.norm>
0

>  <SCORE.heavy>
10

>  <SCORE.norm>
-1.69917

>  <RMSD>
0.667

$$$$
ligand
 OpenBabel11021811423D
libRbt.so/2013.1/901 2013/11/27
 10 11  0  0  0  0  0  0  0  0999 V2000
  -12.0520  -11.0201    8.8145 N   0  0  0  0  0  0  0  0  0  0  0  0
  -11.8719  -12.3968    8.9627 C   0  0  0  0  0  0  0  0  0  0  0  0
  -11.5163  -13.1909    7.9370 N   0  0  0  0  0  0  0  0  0  0  0  0
  -11.3480  -12.4980    6.7415 C   0  0  0  0  0  0  0  0  0  0  0  0
  -11.5117  -11.1325    6.5012 C   0  0  0  0  0  0  0  0  0  0  0  0
  -11.8984  -10.2795    7.5945 C   0  0  0  0  0  0  0  0  0  0  0  0
  -12.0973   -9.0895    7.6387 O   0  0  0  0  0  0  0  0  0  0  0  0
  -11.2264  -10.8738    5.1481 N   0  0  0  0  0  0  0  0  0  0  0  0
  -10.8958  -12.0797    4.6122 C   0  0  0  0  0  0  0  0  0  0  0  0
  -10.9633  -13.0984    5.5730 N   0  0  0  0  0  0  0  0  0  0  0  0
  1  2  1  0  0  0  0
  1  6  1  0  0  0  0
  2  3  2  0  0  0  0
  3  4  1  0  0  0  0
  4  5  2  0  0  0  0
  4 10  1  0  0  0  0
  5  6  1  0  0  0  0
  5  8  1  0  0  0  0
  6  7  2  0  0  0  0
  8  9  1  0  0  0  0
  9 10  2  0  0  0  0
M  END
>  <CHROM.1>
-11.54904051,-11.52013673,6.96798805,-3.07718521,1.29365370,-0.59925398

>  <Name>
ligand

>  <RI>
0

>  <Rbt.Current_Directory>
/home/itssahil/PROJECTS/Mol_Feturizer/New_Systems/rnas/2EES

>  <Rbt.Executable>
rbdock ($Id: //depot/dev/client3/rdock/2013.1/src/exe/rbdock.cxx#4 $)

>  <Rbt.Library>
libRbt.so (2013.1, Build901 2013/11/27)

>  <Rbt.Parameter_File>
/export/apps/rDock/src/rDock_2013.1_src/data/scripts/dock_solv.prm

>  <Rbt.Receptor>
prm/pocket_docking_6.prm

>  <SCORE>
-16.9978

>  <SCORE.INTER>
-16.9978

>  <SCORE.INTER.CONST>
1

>  <SCORE.INTER.POLAR>
0

>  <SCORE.INTER.ROT>
0

>  <SCORE.INTER.SOLV>
3.55124

>  <SCORE.INTER.VDW>
-16.1156

>  <SCORE.INTER.norm>
-1.69978

>  <SCORE.INTRA>
0

>  <SCORE.INTRA.DIHEDRAL>
0

>  <SCORE.INTRA.DIHEDRAL.0>
0

>  <SCORE.INTRA.POLAR>
0

>  <SCORE.INTRA.POLAR.0>
0

>  <SCORE.INTRA.REPUL>
0

>  <SCORE.INTRA.REPUL.0>
0

>  <SCORE.INTRA.SOLV>
0

>  <SCORE.INTRA.SOLV.lig_0>
-4.28614

>  <SCORE.INTRA.VDW>
0

>  <SCORE.INTRA.VDW.0>
0

>  <SCORE.INTRA.norm>
0

>  <SCORE.RESTR>
0

>  <SCORE.RESTR.CAVITY>
0

>  <SCORE.RESTR.norm>
0

>  <SCORE.SYSTEM>
0

>  <SCORE.SYSTEM.CONST>
0

>  <SCORE.SYSTEM.DIHEDRAL>
0

>  <SCORE.SYSTEM.SOLV>
0

>  <SCORE.SYSTEM.norm>
0

>  <SCORE.heavy>
10

>  <SCORE.norm>
-1.69978

>  <RMSD>
0.667

$$$$
ligand
 OpenBabel11021811423D
libRbt.so/2013.1/901 2013/11/27
 10 11  0  0  0  0  0  0  0  0999 V2000
  -12.0513  -10.9876    8.8177 N   0  0  0  0  0  0  0  0  0  0  0  0
  -11.8845  -12.3652    8.9729 C   0  0  0  0  0  0  0  0  0  0  0  0
  -11.5336  -13.1675    7.9520 N   0  0  0  0  0  0  0  0  0  0  0  0
  -11.3553  -12.4819    6.7537 C   0  0  0  0  0  0  0  0  0  0  0  0
  -11.5055  -11.1161    6.5065 C   0  0  0  0  0  0  0  0  0  0  0  0
  -11.8873  -10.2543    7.5946 C   0  0  0  0  0  0  0  0  0  0  0  0
  -12.0751   -9.0623    7.6326 O   0  0  0  0  0  0  0  0  0  0  0  0
  -11.2140  -10.8665    5.1530 N   0  0  0  0  0  0  0  0  0  0  0  0
  -10.8932  -12.0780    4.6238 C   0  0  0  0  0  0  0  0  0  0  0  0
  -10.9730  -13.0915    5.5891 N   0  0  0  0  0  0  0  0  0  0  0  0
  1  2  1  0  0  0  0
  1  6  1  0  0  0  0
  2  3  2  0  0  0  0
  3  4  1  0  0  0  0
  4  5  2  0  0  0  0
  4 10  1  0  0  0  0
  5  6  1  0  0  0  0
  5  8  1  0  0  0  0
  6  7  2  0  0  0  0
  8  9  1  0  0  0  0
  9 10  2  0  0  0  0
M  END
>  <CHROM.1>
-11.54781834,-11.50113621,6.97497491,-3.11180207,1.29645723,-0.57069748

>  <Name>
ligand

>  <RI>
0

>  <Rbt.Current_Directory>
/home/itssahil/PROJECTS/Mol_Feturizer/New_Systems/rnas/2EES

>  <Rbt.Executable>
rbdock ($Id: //depot/dev/client3/rdock/2013.1/src/exe/rbdock.cxx#4 $)

>  <Rbt.Library>
libRbt.so (2013.1, Build901 2013/11/27)

>  <Rbt.Parameter_File>
/export/apps/rDock/src/rDock_2013.1_src/data/scripts/dock_solv.prm

>  <Rbt.Receptor>
prm/blind_docking_100.prm

>  <SCORE>
-16.9931

>  <SCORE.INTER>
-16.9931

>  <SCORE.INTER.CONST>
1

>  <SCORE.INTER.POLAR>
0

>  <SCORE.INTER.ROT>
0

>  <SCORE.INTER.SOLV>
3.58075

>  <SCORE.INTER.VDW>
-16.1223

>  <SCORE.INTER.norm>
-1.69931

>  <SCORE.INTRA>
0

>  <SCORE.INTRA.DIHEDRAL>
0

>  <SCORE.INTRA.DIHEDRAL.0>
0

>  <SCORE.INTRA.POLAR>
0

>  <SCORE.INTRA.POLAR.0>
0

>  <SCORE.INTRA.REPUL>
0

>  <SCORE.INTRA.REPUL.0>
0

>  <SCORE.INTRA.SOLV>
0

>  <SCORE.INTRA.SOLV.lig_0>
-4.28614

>  <SCORE.INTRA.VDW>
0

>  <SCORE.INTRA.VDW.0>
0

>  <SCORE.INTRA.norm>
0

>  <SCORE.RESTR>
0

>  <SCORE.RESTR.CAVITY>
0

>  <SCORE.RESTR.norm>
0

>  <SCORE.SYSTEM>
0

>  <SCORE.SYSTEM.CONST>
0

>  <SCORE.SYSTEM.DIHEDRAL>
0

>  <SCORE.SYSTEM.SOLV>
0

>  <SCORE.SYSTEM.norm>
0

>  <SCORE.heavy>
10

>  <SCORE.norm>
-1.69931

>  <RMSD>
0.668

$$$$
ligand
 OpenBabel11021811423D
libRbt.so/2013.1/901 2013/11/27
 10 11  0  0  0  0  0  0  0  0999 V2000
  -12.0603  -10.9804    8.8122 N   0  0  0  0  0  0  0  0  0  0  0  0
  -11.8980  -12.3570    8.9801 C   0  0  0  0  0  0  0  0  0  0  0  0
  -11.5558  -13.1707    7.9653 N   0  0  0  0  0  0  0  0  0  0  0  0
  -11.3815  -12.4978    6.7593 C   0  0  0  0  0  0  0  0  0  0  0  0
  -11.5278  -11.1339    6.4994 C   0  0  0  0  0  0  0  0  0  0  0  0
  -11.9003  -10.2599    7.5810 C   0  0  0  0  0  0  0  0  0  0  0  0
  -12.0834   -9.0668    7.6083 O   0  0  0  0  0  0  0  0  0  0  0  0
  -11.2429  -10.8989    5.1419 N   0  0  0  0  0  0  0  0  0  0  0  0
  -10.9297  -12.1167    4.6230 C   0  0  0  0  0  0  0  0  0  0  0  0
  -11.0080  -13.1203    5.5988 N   0  0  0  0  0  0  0  0  0  0  0  0
  1  2  1  0  0  0  0
  1  6  1  0  0  0  0
  2  3  2  0  0  0  0
  3  4  1  0  0  0  0
  4  5  2  0  0  0  0
  4 10  1  0  0  0  0
  5  6  1  0  0  0  0
  5  8  1  0  0  0  0
  6  7  2  0  0  0  0
  8  9  1  0  0  0  0
  9 10  2  0  0  0  0
M  END
>  <CHROM.1>
-11.56905319,-11.51410328,6.97192117,-3.11269879,1.30318876,-0.57973380

>  <Name>
ligand

>  <RI>
0

>  <Rbt.Current_Directory>
/home/itssahil/PROJECTS/Mol_Feturizer/New_Systems/rnas/2EES

>  <Rbt.Executable>
rbdock ($Id: //depot/dev/client3/rdock/2013.1/src/exe/rbdock.cxx#4 $)

>  <Rbt.Library>
libRbt.so (2013.1, Build901 2013/11/27)

>  <Rbt.Parameter_File>
/export/apps/rDock/src/rDock_2013.1_src/data/scripts/dock_solv.prm

>  <Rbt.Receptor>
prm/blind_docking_80.prm

>  <SCORE>
-17.0433

>  <SCORE.INTER>
-17.0433

>  <SCORE.INTER.CONST>
1

>  <SCORE.INTER.POLAR>
0

>  <SCORE.INTER.ROT>
0

>  <SCORE.INTER.SOLV>
3.58706

>  <SCORE.INTER.VDW>
-16.1579

>  <SCORE.INTER.norm>
-1.70433

>  <SCORE.INTRA>
0

>  <SCORE.INTRA.DIHEDRAL>
0

>  <SCORE.INTRA.DIHEDRAL.0>
0

>  <SCORE.INTRA.POLAR>
0

>  <SCORE.INTRA.POLAR.0>
0

>  <SCORE.INTRA.REPUL>
0

>  <SCORE.INTRA.REPUL.0>
0

>  <SCORE.INTRA.SOLV>
0

>  <SCORE.INTRA.SOLV.lig_0>
-4.28614

>  <SCORE.INTRA.VDW>
0

>  <SCORE.INTRA.VDW.0>
0

>  <SCORE.INTRA.norm>
0

>  <SCORE.RESTR>
0

>  <SCORE.RESTR.CAVITY>
0

>  <SCORE.RESTR.norm>
0

>  <SCORE.SYSTEM>
0

>  <SCORE.SYSTEM.CONST>
0

>  <SCORE.SYSTEM.DIHEDRAL>
0

>  <SCORE.SYSTEM.SOLV>
0

>  <SCORE.SYSTEM.norm>
0

>  <SCORE.heavy>
10

>  <SCORE.norm>
-1.70433

>  <RMSD>
0.668

$$$$
ligand
 OpenBabel11021811423D
libRbt.so/2013.1/901 2013/11/27
 10 11  0  0  0  0  0  0  0  0999 V2000
  -12.0637  -11.0092    8.8118 N   0  0  0  0  0  0  0  0  0  0  0  0
  -11.8713  -12.3838    8.9636 C   0  0  0  0  0  0  0  0  0  0  0  0
  -11.5127  -13.1780    7.9391 N   0  0  0  0  0  0  0  0  0  0  0  0
  -11.3546  -12.4875    6.7408 C   0  0  0  0  0  0  0  0  0  0  0  0
  -11.5308  -11.1243    6.4969 C   0  0  0  0  0  0  0  0  0  0  0  0
  -11.9208  -10.2711    7.5889 C   0  0  0  0  0  0  0  0  0  0  0  0
  -12.1297   -9.0827    7.6302 O   0  0  0  0  0  0  0  0  0  0  0  0
  -11.2527  -10.8673    5.1420 N   0  0  0  0  0  0  0  0  0  0  0  0
  -10.9138  -12.0720    4.6086 C   0  0  0  0  0  0  0  0  0  0  0  0
  -10.9691  -13.0883    5.5728 N   0  0  0  0  0  0  0  0  0  0  0  0
  1  2  1  0  0  0  0
  1  6  1  0  0  0  0
  2  3  2  0  0  0  0
  3  4  1  0  0  0  0
  4  5  2  0  0  0  0
  4 10  1  0  0  0  0
  5  6  1  0  0  0  0
  5  8  1  0  0  0  0
  6  7  2  0  0  0  0
  8  9  1  0  0  0  0
  9 10  2  0  0  0  0
M  END
>  <CHROM.1>
-11.56319969,-11.51069138,6.96500711,-3.04422493,1.29171756,-0.63406573

>  <Name>
ligand

>  <RI>
0

>  <Rbt.Current_Directory>
/home/itssahil/PROJECTS/Mol_Feturizer/New_Systems/rnas/2EES

>  <Rbt.Executable>
rbdock ($Id: //depot/dev/client3/rdock/2013.1/src/exe/rbdock.cxx#4 $)

>  <Rbt.Library>
libRbt.so (2013.1, Build901 2013/11/27)

>  <Rbt.Parameter_File>
/export/apps/rDock/src/rDock_2013.1_src/data/scripts/dock_solv.prm

>  <Rbt.Receptor>
prm/pocket_docking_4.prm

>  <SCORE>
-17.0131

>  <SCORE.INTER>
-17.0131

>  <SCORE.INTER.CONST>
1

>  <SCORE.INTER.POLAR>
0

>  <SCORE.INTER.ROT>
0

>  <SCORE.INTER.SOLV>
3.5213

>  <SCORE.INTER.VDW>
-16.1158

>  <SCORE.INTER.norm>
-1.70131

>  <SCORE.INTRA>
0

>  <SCORE.INTRA.DIHEDRAL>
0

>  <SCORE.INTRA.DIHEDRAL.0>
0

>  <SCORE.INTRA.POLAR>
0

>  <SCORE.INTRA.POLAR.0>
0

>  <SCORE.INTRA.REPUL>
0

>  <SCORE.INTRA.REPUL.0>
0

>  <SCORE.INTRA.SOLV>
0

>  <SCORE.INTRA.SOLV.lig_0>
-4.28614

>  <SCORE.INTRA.VDW>
0

>  <SCORE.INTRA.VDW.0>
0

>  <SCORE.INTRA.norm>
0

>  <SCORE.RESTR>
0

>  <SCORE.RESTR.CAVITY>
0

>  <SCORE.RESTR.norm>
0

>  <SCORE.SYSTEM>
0

>  <SCORE.SYSTEM.CONST>
0

>  <SCORE.SYSTEM.DIHEDRAL>
0

>  <SCORE.SYSTEM.SOLV>
0

>  <SCORE.SYSTEM.norm>
0

>  <SCORE.heavy>
10

>  <SCORE.norm>
-1.70131

>  <RMSD>
0.668

$$$$
ligand
 OpenBabel11021811423D
libRbt.so/2013.1/901 2013/11/27
 10 11  0  0  0  0  0  0  0  0999 V2000
  -12.0573  -10.9882    8.8109 N   0  0  0  0  0  0  0  0  0  0  0  0
  -11.8903  -12.3646    8.9758 C   0  0  0  0  0  0  0  0  0  0  0  0
  -11.5442  -13.1747    7.9595 N   0  0  0  0  0  0  0  0  0  0  0  0
  -11.3712  -12.4983    6.7551 C   0  0  0  0  0  0  0  0  0  0  0  0
  -11.5221  -11.1344    6.4983 C   0  0  0  0  0  0  0  0  0  0  0  0
  -11.8987  -10.2642    7.5815 C   0  0  0  0  0  0  0  0  0  0  0  0
  -12.0860   -9.0719    7.6114 O   0  0  0  0  0  0  0  0  0  0  0  0
  -11.2367  -10.8952    5.1416 N   0  0  0  0  0  0  0  0  0  0  0  0
  -10.9188  -12.1108    4.6202 C   0  0  0  0  0  0  0  0  0  0  0  0
  -10.9944  -13.1169    5.5936 N   0  0  0  0  0  0  0  0  0  0  0  0
  1  2  1  0  0  0  0
  1  6  1  0  0  0  0
  2  3  2  0  0  0  0
  3  4  1  0  0  0  0
  4  5  2  0  0  0  0
  4 10  1  0  0  0  0
  5  6  1  0  0  0  0
  5  8  1  0  0  0  0
  6  7  2  0  0  0  0
  8  9  1  0  0  0  0
  9 10  2  0  0  0  0
M  END
>  <CHROM.1>
-11.56244118,-11.51583809,6.96987498,-3.10350479,1.30046032,-0.58628993

>  <Name>
ligand

>  <RI>
0

>  <Rbt.Current_Directory>
/home/itssahil/PROJECTS/Mol_Feturizer/New_Systems/rnas/2EES

>  <Rbt.Executable>
rbdock ($Id: //depot/dev/client3/rdock/2013.1/src/exe/rbdock.cxx#4 $)

>  <Rbt.Library>
libRbt.so (2013.1, Build901 2013/11/27)

>  <Rbt.Parameter_File>
/export/apps/rDock/src/rDock_2013.1_src/data/scripts/dock_solv.prm

>  <Rbt.Receptor>
prm/pocket_docking_6.prm

>  <SCORE>
-17.046

>  <SCORE.INTER>
-17.046

>  <SCORE.INTER.CONST>
1

>  <SCORE.INTER.POLAR>
0

>  <SCORE.INTER.ROT>
0

>  <SCORE.INTER.SOLV>
3.57889

>  <SCORE.INTER.VDW>
-16.157

>  <SCORE.INTER.norm>
-1.7046

>  <SCORE.INTRA>
0

>  <SCORE.INTRA.DIHEDRAL>
0

>  <SCORE.INTRA.DIHEDRAL.0>
0

>  <SCORE.INTRA.POLAR>
0

>  <SCORE.INTRA.POLAR.0>
0

>  <SCORE.INTRA.REPUL>
0

>  <SCORE.INTRA.REPUL.0>
0

>  <SCORE.INTRA.SOLV>
0

>  <SCORE.INTRA.SOLV.lig_0>
-4.28614

>  <SCORE.INTRA.VDW>
0

>  <SCORE.INTRA.VDW.0>
0

>  <SCORE.INTRA.norm>
0

>  <SCORE.RESTR>
0

>  <SCORE.RESTR.CAVITY>
0

>  <SCORE.RESTR.norm>
0

>  <SCORE.SYSTEM>
0

>  <SCORE.SYSTEM.CONST>
0

>  <SCORE.SYSTEM.DIHEDRAL>
0

>  <SCORE.SYSTEM.SOLV>
0

>  <SCORE.SYSTEM.norm>
0

>  <SCORE.heavy>
10

>  <SCORE.norm>
-1.7046

>  <RMSD>
0.668

$$$$
ligand
 OpenBabel11021811423D
libRbt.so/2013.1/901 2013/11/27
 10 11  0  0  0  0  0  0  0  0999 V2000
  -12.0530  -10.9866    8.8143 N   0  0  0  0  0  0  0  0  0  0  0  0
  -11.8992  -12.3644    8.9802 C   0  0  0  0  0  0  0  0  0  0  0  0
  -11.5603  -13.1784    7.9645 N   0  0  0  0  0  0  0  0  0  0  0  0
  -11.3800  -12.5045    6.7599 C   0  0  0  0  0  0  0  0  0  0  0  0
  -11.5177  -11.1393    6.5021 C   0  0  0  0  0  0  0  0  0  0  0  0
  -11.8866  -10.2649    7.5846 C   0  0  0  0  0  0  0  0  0  0  0  0
  -12.0626   -9.0708    7.6137 O   0  0  0  0  0  0  0  0  0  0  0  0
  -11.2292  -10.9036    5.1455 N   0  0  0  0  0  0  0  0  0  0  0  0
  -10.9225  -12.1225    4.6250 C   0  0  0  0  0  0  0  0  0  0  0  0
  -11.0084  -13.1272    5.5989 N   0  0  0  0  0  0  0  0  0  0  0  0
  1  2  1  0  0  0  0
  1  6  1  0  0  0  0
  2  3  2  0  0  0  0
  3  4  1  0  0  0  0
  4  5  2  0  0  0  0
  4 10  1  0  0  0  0
  5  6  1  0  0  0  0
  5  8  1  0  0  0  0
  6  7  2  0  0  0  0
  8  9  1  0  0  0  0
  9 10  2  0  0  0  0
M  END
>  <CHROM.1>
-11.56196508,-11.52004248,6.97393457,-3.13517896,1.30507915,-0.55631729

>  <Name>
ligand

>  <RI>
0

>  <Rbt.Current_Directory>
/home/itssahil/PROJECTS/Mol_Feturizer/New_Systems/rnas/2EES

>  <Rbt.Executable>
rbdock ($Id: //depot/dev/client3/rdock/2013.1/src/exe/rbdock.cxx#4 $)

>  <Rbt.Library>
libRbt.so (2013.1, Build901 2013/11/27)

>  <Rbt.Parameter_File>
/export/apps/rDock/src/rDock_2013.1_src/data/scripts/dock_solv.prm

>  <Rbt.Receptor>
prm/pocket_docking_6.prm

>  <SCORE>
-17.0494

>  <SCORE.INTER>
-17.0494

>  <SCORE.INTER.CONST>
1

>  <SCORE.INTER.POLAR>
0

>  <SCORE.INTER.ROT>
0

>  <SCORE.INTER.SOLV>
3.60737

>  <SCORE.INTER.VDW>
-16.1687

>  <SCORE.INTER.norm>
-1.70494

>  <SCORE.INTRA>
0

>  <SCORE.INTRA.DIHEDRAL>
0

>  <SCORE.INTRA.DIHEDRAL.0>
0

>  <SCORE.INTRA.POLAR>
0

>  <SCORE.INTRA.POLAR.0>
0

>  <SCORE.INTRA.REPUL>
0

>  <SCORE.INTRA.REPUL.0>
0

>  <SCORE.INTRA.SOLV>
0

>  <SCORE.INTRA.SOLV.lig_0>
-4.28614

>  <SCORE.INTRA.VDW>
0

>  <SCORE.INTRA.VDW.0>
0

>  <SCORE.INTRA.norm>
0

>  <SCORE.RESTR>
0

>  <SCORE.RESTR.CAVITY>
0

>  <SCORE.RESTR.norm>
0

>  <SCORE.SYSTEM>
0

>  <SCORE.SYSTEM.CONST>
0

>  <SCORE.SYSTEM.DIHEDRAL>
0

>  <SCORE.SYSTEM.SOLV>
0

>  <SCORE.SYSTEM.norm>
0

>  <SCORE.heavy>
10

>  <SCORE.norm>
-1.70494

>  <RMSD>
0.668

$$$$
ligand
 OpenBabel11021811423D
libRbt.so/2013.1/901 2013/11/27
 10 11  0  0  0  0  0  0  0  0999 V2000
  -12.0478  -10.9781    8.8177 N   0  0  0  0  0  0  0  0  0  0  0  0
  -11.9048  -12.3571    8.9835 C   0  0  0  0  0  0  0  0  0  0  0  0
  -11.5691  -13.1733    7.9685 N   0  0  0  0  0  0  0  0  0  0  0  0
  -11.3804  -12.5003    6.7647 C   0  0  0  0  0  0  0  0  0  0  0  0
  -11.5071  -11.1341    6.5070 C   0  0  0  0  0  0  0  0  0  0  0  0
  -11.8725  -10.2573    7.5887 C   0  0  0  0  0  0  0  0  0  0  0  0
  -12.0396   -9.0619    7.6177 O   0  0  0  0  0  0  0  0  0  0  0  0
  -11.2130  -10.9002    5.1513 N   0  0  0  0  0  0  0  0  0  0  0  0
  -10.9139  -12.1211    4.6312 C   0  0  0  0  0  0  0  0  0  0  0  0
  -11.0101  -13.1255    5.6046 N   0  0  0  0  0  0  0  0  0  0  0  0
  1  2  1  0  0  0  0
  1  6  1  0  0  0  0
  2  3  2  0  0  0  0
  3  4  1  0  0  0  0
  4  5  2  0  0  0  0
  4 10  1  0  0  0  0
  5  6  1  0  0  0  0
  5  8  1  0  0  0  0
  6  7  2  0  0  0  0
  8  9  1  0  0  0  0
  9 10  2  0  0  0  0
M  END
>  <CHROM.1>
-11.55554151,-11.51464380,6.97852538,3.11789848,1.30651657,-0.52694971

>  <Name>
ligand

>  <RI>
0

>  <Rbt.Current_Directory>
/home/itssahil/PROJECTS/Mol_Feturizer/New_Systems/rnas/2EES

>  <Rbt.Executable>
rbdock ($Id: //depot/dev/client3/rdock/2013.1/src/exe/rbdock.cxx#4 $)

>  <Rbt.Library>
libRbt.so (2013.1, Build901 2013/11/27)

>  <Rbt.Parameter_File>
/export/apps/rDock/src/rDock_2013.1_src/data/scripts/dock_solv.prm

>  <Rbt.Receptor>
prm/pocket_docking_7.prm

>  <SCORE>
-17.0092

>  <SCORE.INTER>
-17.0092

>  <SCORE.INTER.CONST>
1

>  <SCORE.INTER.POLAR>
0

>  <SCORE.INTER.ROT>
0

>  <SCORE.INTER.SOLV>
3.63093

>  <SCORE.INTER.VDW>
-16.1498

>  <SCORE.INTER.norm>
-1.70092

>  <SCORE.INTRA>
0

>  <SCORE.INTRA.DIHEDRAL>
0

>  <SCORE.INTRA.DIHEDRAL.0>
0

>  <SCORE.INTRA.POLAR>
0

>  <SCORE.INTRA.POLAR.0>
0

>  <SCORE.INTRA.REPUL>
0

>  <SCORE.INTRA.REPUL.0>
0

>  <SCORE.INTRA.SOLV>
0

>  <SCORE.INTRA.SOLV.lig_0>
-4.28614

>  <SCORE.INTRA.VDW>
0

>  <SCORE.INTRA.VDW.0>
0

>  <SCORE.INTRA.norm>
0

>  <SCORE.RESTR>
0

>  <SCORE.RESTR.CAVITY>
0

>  <SCORE.RESTR.norm>
0

>  <SCORE.SYSTEM>
0

>  <SCORE.SYSTEM.CONST>
0

>  <SCORE.SYSTEM.DIHEDRAL>
0

>  <SCORE.SYSTEM.SOLV>
0

>  <SCORE.SYSTEM.norm>
0

>  <SCORE.heavy>
10

>  <SCORE.norm>
-1.70092

>  <RMSD>
0.668

$$$$
ligand
 OpenBabel11021811423D
libRbt.so/2013.1/901 2013/11/27
 10 11  0  0  0  0  0  0  0  0999 V2000
  -12.0503  -10.9749    8.8125 N   0  0  0  0  0  0  0  0  0  0  0  0
  -11.8871  -12.3510    8.9838 C   0  0  0  0  0  0  0  0  0  0  0  0
  -11.5447  -13.1670    7.9709 N   0  0  0  0  0  0  0  0  0  0  0  0
  -11.3712  -12.4969    6.7631 C   0  0  0  0  0  0  0  0  0  0  0  0
  -11.5185  -11.1338    6.5000 C   0  0  0  0  0  0  0  0  0  0  0  0
  -11.8911  -10.2573    7.5795 C   0  0  0  0  0  0  0  0  0  0  0  0
  -12.0749   -9.0643    7.6039 O   0  0  0  0  0  0  0  0  0  0  0  0
  -11.2341  -10.9019    5.1418 N   0  0  0  0  0  0  0  0  0  0  0  0
  -10.9203  -12.1208    4.6258 C   0  0  0  0  0  0  0  0  0  0  0  0
  -10.9977  -13.1220    5.6041 N   0  0  0  0  0  0  0  0  0  0  0  0
  1  2  1  0  0  0  0
  1  6  1  0  0  0  0
  2  3  2  0  0  0  0
  3  4  1  0  0  0  0
  4  5  2  0  0  0  0
  4 10  1  0  0  0  0
  5  6  1  0  0  0  0
  5  8  1  0  0  0  0
  6  7  2  0  0  0  0
  8  9  1  0  0  0  0
  9 10  2  0  0  0  0
M  END
>  <CHROM.1>
-11.55930284,-11.51282407,6.97342990,-3.11002793,1.30311583,-0.58476414

>  <Name>
ligand

>  <RI>
0

>  <Rbt.Current_Directory>
/home/itssahil/PROJECTS/Mol_Feturizer/New_Systems/rnas/2EES

>  <Rbt.Executable>
rbdock ($Id: //depot/dev/client3/rdock/2013.1/src/exe/rbdock.cxx#4 $)

>  <Rbt.Library>
libRbt.so (2013.1, Build901 2013/11/27)

>  <Rbt.Parameter_File>
/export/apps/rDock/src/rDock_2013.1_src/data/scripts/dock_solv.prm

>  <Rbt.Receptor>
prm/pocket_docking_7.prm

>  <SCORE>
-17.0117

>  <SCORE.INTER>
-17.0117

>  <SCORE.INTER.CONST>
1

>  <SCORE.INTER.POLAR>
0

>  <SCORE.INTER.ROT>
0

>  <SCORE.INTER.SOLV>
3.59411

>  <SCORE.INTER.VDW>
-16.1392

>  <SCORE.INTER.norm>
-1.70117

>  <SCORE.INTRA>
0

>  <SCORE.INTRA.DIHEDRAL>
0

>  <SCORE.INTRA.DIHEDRAL.0>
0

>  <SCORE.INTRA.POLAR>
0

>  <SCORE.INTRA.POLAR.0>
0

>  <SCORE.INTRA.REPUL>
0

>  <SCORE.INTRA.REPUL.0>
0

>  <SCORE.INTRA.SOLV>
0

>  <SCORE.INTRA.SOLV.lig_0>
-4.28614

>  <SCORE.INTRA.VDW>
0

>  <SCORE.INTRA.VDW.0>
0

>  <SCORE.INTRA.norm>
0

>  <SCORE.RESTR>
0

>  <SCORE.RESTR.CAVITY>
0

>  <SCORE.RESTR.norm>
0

>  <SCORE.SYSTEM>
0

>  <SCORE.SYSTEM.CONST>
0

>  <SCORE.SYSTEM.DIHEDRAL>
0

>  <SCORE.SYSTEM.SOLV>
0

>  <SCORE.SYSTEM.norm>
0

>  <SCORE.heavy>
10

>  <SCORE.norm>
-1.70117

>  <RMSD>
0.668

$$$$
ligand
 OpenBabel11021811423D
libRbt.so/2013.1/901 2013/11/27
 10 11  0  0  0  0  0  0  0  0999 V2000
  -12.0647  -10.9889    8.8034 N   0  0  0  0  0  0  0  0  0  0  0  0
  -11.8934  -12.3642    8.9739 C   0  0  0  0  0  0  0  0  0  0  0  0
  -11.5422  -13.1768    7.9613 N   0  0  0  0  0  0  0  0  0  0  0  0
  -11.3687  -12.5043    6.7549 C   0  0  0  0  0  0  0  0  0  0  0  0
  -11.5235  -11.1419    6.4926 C   0  0  0  0  0  0  0  0  0  0  0  0
  -11.9056  -10.2690    7.5718 C   0  0  0  0  0  0  0  0  0  0  0  0
  -12.0970   -9.0772    7.5968 O   0  0  0  0  0  0  0  0  0  0  0  0
  -11.2358  -10.9067    5.1358 N   0  0  0  0  0  0  0  0  0  0  0  0
  -10.9125  -12.1231    4.6196 C   0  0  0  0  0  0  0  0  0  0  0  0
  -10.9870  -13.1258    5.5965 N   0  0  0  0  0  0  0  0  0  0  0  0
  1  2  1  0  0  0  0
  1  6  1  0  0  0  0
  2  3  2  0  0  0  0
  3  4  1  0  0  0  0
  4  5  2  0  0  0  0
  4 10  1  0  0  0  0
  5  6  1  0  0  0  0
  5  8  1  0  0  0  0
  6  7  2  0  0  0  0
  8  9  1  0  0  0  0
  9 10  2  0  0  0  0
M  END
>  <CHROM.1>
-11.56368540,-11.52169293,6.96554701,-3.09790013,1.29662256,-0.59536078

>  <Name>
ligand

>  <RI>
0

>  <Rbt.Current_Directory>
/home/itssahil/PROJECTS/Mol_Feturizer/New_Systems/rnas/2EES

>  <Rbt.Executable>
rbdock ($Id: //depot/dev/client3/rdock/2013.1/src/exe/rbdock.cxx#4 $)

>  <Rbt.Library>
libRbt.so (2013.1, Build901 2013/11/27)

>  <Rbt.Parameter_File>
/export/apps/rDock/src/rDock_2013.1_src/data/scripts/dock_solv.prm

>  <Rbt.Receptor>
prm/blind_docking_100.prm

>  <SCORE>
-17.0434

>  <SCORE.INTER>
-17.0434

>  <SCORE.INTER.CONST>
1

>  <SCORE.INTER.POLAR>
0

>  <SCORE.INTER.ROT>
0

>  <SCORE.INTER.SOLV>
3.56348

>  <SCORE.INTER.VDW>
-16.1501

>  <SCORE.INTER.norm>
-1.70434

>  <SCORE.INTRA>
0

>  <SCORE.INTRA.DIHEDRAL>
0

>  <SCORE.INTRA.DIHEDRAL.0>
0

>  <SCORE.INTRA.POLAR>
0

>  <SCORE.INTRA.POLAR.0>
0

>  <SCORE.INTRA.REPUL>
0

>  <SCORE.INTRA.REPUL.0>
0

>  <SCORE.INTRA.SOLV>
0

>  <SCORE.INTRA.SOLV.lig_0>
-4.28614

>  <SCORE.INTRA.VDW>
0

>  <SCORE.INTRA.VDW.0>
0

>  <SCORE.INTRA.norm>
0

>  <SCORE.RESTR>
0

>  <SCORE.RESTR.CAVITY>
0

>  <SCORE.RESTR.norm>
0

>  <SCORE.SYSTEM>
0

>  <SCORE.SYSTEM.CONST>
0

>  <SCORE.SYSTEM.DIHEDRAL>
0

>  <SCORE.SYSTEM.SOLV>
0

>  <SCORE.SYSTEM.norm>
0

>  <SCORE.heavy>
10

>  <SCORE.norm>
-1.70434

>  <RMSD>
0.669

$$$$
ligand
 OpenBabel11021811423D
libRbt.so/2013.1/901 2013/11/27
 10 11  0  0  0  0  0  0  0  0999 V2000
  -12.0525  -10.9782    8.8119 N   0  0  0  0  0  0  0  0  0  0  0  0
  -11.9029  -12.3559    8.9826 C   0  0  0  0  0  0  0  0  0  0  0  0
  -11.5663  -13.1745    7.9699 N   0  0  0  0  0  0  0  0  0  0  0  0
  -11.3838  -12.5053    6.7630 C   0  0  0  0  0  0  0  0  0  0  0  0
  -11.5173  -11.1406    6.5004 C   0  0  0  0  0  0  0  0  0  0  0  0
  -11.8838  -10.2613    7.5797 C   0  0  0  0  0  0  0  0  0  0  0  0
  -12.0561   -9.0666    7.6046 O   0  0  0  0  0  0  0  0  0  0  0  0
  -11.2278  -10.9106    5.1430 N   0  0  0  0  0  0  0  0  0  0  0  0
  -10.9247  -12.1322    4.6268 C   0  0  0  0  0  0  0  0  0  0  0  0
  -11.0138  -13.1332    5.6042 N   0  0  0  0  0  0  0  0  0  0  0  0
  1  2  1  0  0  0  0
  1  6  1  0  0  0  0
  2  3  2  0  0  0  0
  3  4  1  0  0  0  0
  4  5  2  0  0  0  0
  4 10  1  0  0  0  0
  5  6  1  0  0  0  0
  5  8  1  0  0  0  0
  6  7  2  0  0  0  0
  8  9  1  0  0  0  0
  9 10  2  0  0  0  0
M  END
>  <CHROM.1>
-11.56278877,-11.51958361,6.97351798,3.13785214,1.30650044,-0.55002945

>  <Name>
ligand

>  <RI>
0

>  <Rbt.Current_Directory>
/home/itssahil/PROJECTS/Mol_Feturizer/New_Systems/rnas/2EES

>  <Rbt.Executable>
rbdock ($Id: //depot/dev/client3/rdock/2013.1/src/exe/rbdock.cxx#4 $)

>  <Rbt.Library>
libRbt.so (2013.1, Build901 2013/11/27)

>  <Rbt.Parameter_File>
/export/apps/rDock/src/rDock_2013.1_src/data/scripts/dock_solv.prm

>  <Rbt.Receptor>
prm/blind_docking_100.prm

>  <SCORE>
-17.0485

>  <SCORE.INTER>
-17.0485

>  <SCORE.INTER.CONST>
1

>  <SCORE.INTER.POLAR>
0

>  <SCORE.INTER.ROT>
0

>  <SCORE.INTER.SOLV>
3.61712

>  <SCORE.INTER.VDW>
-16.1714

>  <SCORE.INTER.norm>
-1.70485

>  <SCORE.INTRA>
0

>  <SCORE.INTRA.DIHEDRAL>
0

>  <SCORE.INTRA.DIHEDRAL.0>
0

>  <SCORE.INTRA.POLAR>
0

>  <SCORE.INTRA.POLAR.0>
0

>  <SCORE.INTRA.REPUL>
0

>  <SCORE.INTRA.REPUL.0>
0

>  <SCORE.INTRA.SOLV>
0

>  <SCORE.INTRA.SOLV.lig_0>
-4.28614

>  <SCORE.INTRA.VDW>
0

>  <SCORE.INTRA.VDW.0>
0

>  <SCORE.INTRA.norm>
0

>  <SCORE.RESTR>
0

>  <SCORE.RESTR.CAVITY>
0

>  <SCORE.RESTR.norm>
0

>  <SCORE.SYSTEM>
0

>  <SCORE.SYSTEM.CONST>
0

>  <SCORE.SYSTEM.DIHEDRAL>
0

>  <SCORE.SYSTEM.SOLV>
0

>  <SCORE.SYSTEM.norm>
0

>  <SCORE.heavy>
10

>  <SCORE.norm>
-1.70485

>  <RMSD>
0.669

$$$$
ligand
 OpenBabel11021811423D
libRbt.so/2013.1/901 2013/11/27
 10 11  0  0  0  0  0  0  0  0999 V2000
  -12.0559  -10.9850    8.8086 N   0  0  0  0  0  0  0  0  0  0  0  0
  -11.8952  -12.3616    8.9784 C   0  0  0  0  0  0  0  0  0  0  0  0
  -11.5515  -13.1767    7.9652 N   0  0  0  0  0  0  0  0  0  0  0  0
  -11.3739  -12.5052    6.7588 C   0  0  0  0  0  0  0  0  0  0  0  0
  -11.5184  -11.1415    6.4971 C   0  0  0  0  0  0  0  0  0  0  0  0
  -11.8925  -10.2659    7.5770 C   0  0  0  0  0  0  0  0  0  0  0  0
  -12.0745   -9.0727    7.6026 O   0  0  0  0  0  0  0  0  0  0  0  0
  -11.2303  -10.9081    5.1401 N   0  0  0  0  0  0  0  0  0  0  0  0
  -10.9170  -12.1268    4.6231 C   0  0  0  0  0  0  0  0  0  0  0  0
  -10.9984  -13.1293    5.5998 N   0  0  0  0  0  0  0  0  0  0  0  0
  1  2  1  0  0  0  0
  1  6  1  0  0  0  0
  2  3  2  0  0  0  0
  3  4  1  0  0  0  0
  4  5  2  0  0  0  0
  4 10  1  0  0  0  0
  5  6  1  0  0  0  0
  5  8  1  0  0  0  0
  6  7  2  0  0  0  0
  8  9  1  0  0  0  0
  9 10  2  0  0  0  0
M  END
>  <CHROM.1>
-11.56103937,-11.52109912,6.96998872,-3.12008249,1.30183050,-0.57367081

>  <Name>
ligand

>  <RI>
0

>  <Rbt.Current_Directory>
/home/itssahil/PROJECTS/Mol_Feturizer/New_Systems/rnas/2EES

>  <Rbt.Executable>
rbdock ($Id: //depot/dev/client3/rdock/2013.1/src/exe/rbdock.cxx#4 $)

>  <Rbt.Library>
libRbt.so (2013.1, Build901 2013/11/27)

>  <Rbt.Parameter_File>
/export/apps/rDock/src/rDock_2013.1_src/data/scripts/dock_solv.prm

>  <Rbt.Receptor>
prm/blind_docking_60.prm

>  <SCORE>
-17.0495

>  <SCORE.INTER>
-17.0495

>  <SCORE.INTER.CONST>
1

>  <SCORE.INTER.POLAR>
0

>  <SCORE.INTER.ROT>
0

>  <SCORE.INTER.SOLV>
3.59215

>  <SCORE.INTER.VDW>
-16.1637

>  <SCORE.INTER.norm>
-1.70495

>  <SCORE.INTRA>
0

>  <SCORE.INTRA.DIHEDRAL>
0

>  <SCORE.INTRA.DIHEDRAL.0>
0

>  <SCORE.INTRA.POLAR>
0

>  <SCORE.INTRA.POLAR.0>
0

>  <SCORE.INTRA.REPUL>
0

>  <SCORE.INTRA.REPUL.0>
0

>  <SCORE.INTRA.SOLV>
0

>  <SCORE.INTRA.SOLV.lig_0>
-4.28614

>  <SCORE.INTRA.VDW>
0

>  <SCORE.INTRA.VDW.0>
0

>  <SCORE.INTRA.norm>
0

>  <SCORE.RESTR>
0

>  <SCORE.RESTR.CAVITY>
0

>  <SCORE.RESTR.norm>
0

>  <SCORE.SYSTEM>
0

>  <SCORE.SYSTEM.CONST>
0

>  <SCORE.SYSTEM.DIHEDRAL>
0

>  <SCORE.SYSTEM.SOLV>
0

>  <SCORE.SYSTEM.norm>
0

>  <SCORE.heavy>
10

>  <SCORE.norm>
-1.70495

>  <RMSD>
0.669

$$$$
ligand
 OpenBabel11021811423D
libRbt.so/2013.1/901 2013/11/27
 10 11  0  0  0  0  0  0  0  0999 V2000
  -12.0650  -10.9810    8.8041 N   0  0  0  0  0  0  0  0  0  0  0  0
  -11.8952  -12.3558    8.9790 C   0  0  0  0  0  0  0  0  0  0  0  0
  -11.5468  -13.1725    7.9687 N   0  0  0  0  0  0  0  0  0  0  0  0
  -11.3744  -12.5045    6.7597 C   0  0  0  0  0  0  0  0  0  0  0  0
  -11.5280  -11.1427    6.4929 C   0  0  0  0  0  0  0  0  0  0  0  0
  -11.9070  -10.2655    7.5696 C   0  0  0  0  0  0  0  0  0  0  0  0
  -12.0969   -9.0734    7.5908 O   0  0  0  0  0  0  0  0  0  0  0  0
  -11.2422  -10.9127    5.1348 N   0  0  0  0  0  0  0  0  0  0  0  0
  -10.9213  -12.1313    4.6223 C   0  0  0  0  0  0  0  0  0  0  0  0
  -10.9955  -13.1305    5.6028 N   0  0  0  0  0  0  0  0  0  0  0  0
  1  2  1  0  0  0  0
  1  6  1  0  0  0  0
  2  3  2  0  0  0  0
  3  4  1  0  0  0  0
  4  5  2  0  0  0  0
  4 10  1  0  0  0  0
  5  6  1  0  0  0  0
  5  8  1  0  0  0  0
  6  7  2  0  0  0  0
  8  9  1  0  0  0  0
  9 10  2  0  0  0  0
M  END
>  <CHROM.1>
-11.56779912,-11.52084253,6.96721150,-3.09841915,1.29875755,-0.59837839

>  <Name>
ligand

>  <RI>
0

>  <Rbt.Current_Directory>
/home/itssahil/PROJECTS/Mol_Feturizer/New_Systems/rnas/2EES

>  <Rbt.Executable>
rbdock ($Id: //depot/dev/client3/rdock/2013.1/src/exe/rbdock.cxx#4 $)

>  <Rbt.Library>
libRbt.so (2013.1, Build901 2013/11/27)

>  <Rbt.Parameter_File>
/export/apps/rDock/src/rDock_2013.1_src/data/scripts/dock_solv.prm

>  <Rbt.Receptor>
prm/pocket_docking_6.prm

>  <SCORE>
-17.0436

>  <SCORE.INTER>
-17.0436

>  <SCORE.INTER.CONST>
1

>  <SCORE.INTER.POLAR>
0

>  <SCORE.INTER.ROT>
0

>  <SCORE.INTER.SOLV>
3.56803

>  <SCORE.INTER.VDW>
-16.1517

>  <SCORE.INTER.norm>
-1.70436

>  <SCORE.INTRA>
0

>  <SCORE.INTRA.DIHEDRAL>
0

>  <SCORE.INTRA.DIHEDRAL.0>
0

>  <SCORE.INTRA.POLAR>
0

>  <SCORE.INTRA.POLAR.0>
0

>  <SCORE.INTRA.REPUL>
0

>  <SCORE.INTRA.REPUL.0>
0

>  <SCORE.INTRA.SOLV>
0

>  <SCORE.INTRA.SOLV.lig_0>
-4.28614

>  <SCORE.INTRA.VDW>
0

>  <SCORE.INTRA.VDW.0>
0

>  <SCORE.INTRA.norm>
0

>  <SCORE.RESTR>
0

>  <SCORE.RESTR.CAVITY>
0

>  <SCORE.RESTR.norm>
0

>  <SCORE.SYSTEM>
0

>  <SCORE.SYSTEM.CONST>
0

>  <SCORE.SYSTEM.DIHEDRAL>
0

>  <SCORE.SYSTEM.SOLV>
0

>  <SCORE.SYSTEM.norm>
0

>  <SCORE.heavy>
10

>  <SCORE.norm>
-1.70436

>  <RMSD>
0.669

$$$$
ligand
 OpenBabel11021811423D
libRbt.so/2013.1/901 2013/11/27
 10 11  0  0  0  0  0  0  0  0999 V2000
  -12.0543  -10.9741    8.8060 N   0  0  0  0  0  0  0  0  0  0  0  0
  -11.9014  -12.3508    8.9821 C   0  0  0  0  0  0  0  0  0  0  0  0
  -11.5538  -13.1712    7.9745 N   0  0  0  0  0  0  0  0  0  0  0  0
  -11.3639  -12.5050    6.7671 C   0  0  0  0  0  0  0  0  0  0  0  0
  -11.4999  -11.1416    6.4993 C   0  0  0  0  0  0  0  0  0  0  0  0
  -11.8780  -10.2603    7.5730 C   0  0  0  0  0  0  0  0  0  0  0  0
  -12.0546   -9.0662    7.5929 O   0  0  0  0  0  0  0  0  0  0  0  0
  -11.2003  -10.9146    5.1437 N   0  0  0  0  0  0  0  0  0  0  0  0
  -10.8889  -12.1367    4.6336 C   0  0  0  0  0  0  0  0  0  0  0  0
  -10.9825  -13.1352    5.6133 N   0  0  0  0  0  0  0  0  0  0  0  0
  1  2  1  0  0  0  0
  1  6  1  0  0  0  0
  2  3  2  0  0  0  0
  3  4  1  0  0  0  0
  4  5  2  0  0  0  0
  4 10  1  0  0  0  0
  5  6  1  0  0  0  0
  5  8  1  0  0  0  0
  6  7  2  0  0  0  0
  8  9  1  0  0  0  0
  9 10  2  0  0  0  0
M  END
>  <CHROM.1>
-11.54792076,-11.51929275,6.97322553,3.13298223,1.29786906,-0.54834435

>  <Name>
ligand

>  <RI>
0

>  <Rbt.Current_Directory>
/home/itssahil/PROJECTS/Mol_Feturizer/New_Systems/rnas/2EES

>  <Rbt.Executable>
rbdock ($Id: //depot/dev/client3/rdock/2013.1/src/exe/rbdock.cxx#4 $)

>  <Rbt.Library>
libRbt.so (2013.1, Build901 2013/11/27)

>  <Rbt.Parameter_File>
/export/apps/rDock/src/rDock_2013.1_src/data/scripts/dock_solv.prm

>  <Rbt.Receptor>
prm/pocket_docking_8.prm

>  <SCORE>
-17.0017

>  <SCORE.INTER>
-17.0017

>  <SCORE.INTER.CONST>
1

>  <SCORE.INTER.POLAR>
0

>  <SCORE.INTER.ROT>
0

>  <SCORE.INTER.SOLV>
3.60401

>  <SCORE.INTER.VDW>
-16.1358

>  <SCORE.INTER.norm>
-1.70017

>  <SCORE.INTRA>
0

>  <SCORE.INTRA.DIHEDRAL>
0

>  <SCORE.INTRA.DIHEDRAL.0>
0

>  <SCORE.INTRA.POLAR>
0

>  <SCORE.INTRA.POLAR.0>
0

>  <SCORE.INTRA.REPUL>
0

>  <SCORE.INTRA.REPUL.0>
0

>  <SCORE.INTRA.SOLV>
0

>  <SCORE.INTRA.SOLV.lig_0>
-4.28614

>  <SCORE.INTRA.VDW>
0

>  <SCORE.INTRA.VDW.0>
0

>  <SCORE.INTRA.norm>
0

>  <SCORE.RESTR>
0

>  <SCORE.RESTR.CAVITY>
0

>  <SCORE.RESTR.norm>
0

>  <SCORE.SYSTEM>
0

>  <SCORE.SYSTEM.CONST>
0

>  <SCORE.SYSTEM.DIHEDRAL>
0

>  <SCORE.SYSTEM.SOLV>
0

>  <SCORE.SYSTEM.norm>
0

>  <SCORE.heavy>
10

>  <SCORE.norm>
-1.70017

>  <RMSD>
0.669

$$$$
ligand
 OpenBabel11021811423D
libRbt.so/2013.1/901 2013/11/27
 10 11  0  0  0  0  0  0  0  0999 V2000
  -12.0600  -10.9757    8.8091 N   0  0  0  0  0  0  0  0  0  0  0  0
  -11.9007  -12.3520    8.9818 C   0  0  0  0  0  0  0  0  0  0  0  0
  -11.5580  -13.1696    7.9703 N   0  0  0  0  0  0  0  0  0  0  0  0
  -11.3799  -12.5008    6.7625 C   0  0  0  0  0  0  0  0  0  0  0  0
  -11.5230  -11.1375    6.4980 C   0  0  0  0  0  0  0  0  0  0  0  0
  -11.8960  -10.2593    7.5760 C   0  0  0  0  0  0  0  0  0  0  0  0
  -12.0768   -9.0658    7.5991 O   0  0  0  0  0  0  0  0  0  0  0  0
  -11.2347  -10.9073    5.1404 N   0  0  0  0  0  0  0  0  0  0  0  0
  -10.9228  -12.1274    4.6260 C   0  0  0  0  0  0  0  0  0  0  0  0
  -11.0051  -13.1277    5.6047 N   0  0  0  0  0  0  0  0  0  0  0  0
  1  2  1  0  0  0  0
  1  6  1  0  0  0  0
  2  3  2  0  0  0  0
  3  4  1  0  0  0  0
  4  5  2  0  0  0  0
  4 10  1  0  0  0  0
  5  6  1  0  0  0  0
  5  8  1  0  0  0  0
  6  7  2  0  0  0  0
  8  9  1  0  0  0  0
  9 10  2  0  0  0  0
M  END
>  <CHROM.1>
-11.56593285,-11.51609113,6.97160105,-3.12313845,1.30248639,-0.57282658

>  <Name>
ligand

>  <RI>
0

>  <Rbt.Current_Directory>
/home/itssahil/PROJECTS/Mol_Feturizer/New_Systems/rnas/2EES

>  <Rbt.Executable>
rbdock ($Id: //depot/dev/client3/rdock/2013.1/src/exe/rbdock.cxx#4 $)

>  <Rbt.Library>
libRbt.so (2013.1, Build901 2013/11/27)

>  <Rbt.Parameter_File>
/export/apps/rDock/src/rDock_2013.1_src/data/scripts/dock_solv.prm

>  <Rbt.Receptor>
prm/pocket_docking_8.prm

>  <SCORE>
-17.047

>  <SCORE.INTER>
-17.047

>  <SCORE.INTER.CONST>
1

>  <SCORE.INTER.POLAR>
0

>  <SCORE.INTER.ROT>
0

>  <SCORE.INTER.SOLV>
3.59253

>  <SCORE.INTER.VDW>
-16.1621

>  <SCORE.INTER.norm>
-1.7047

>  <SCORE.INTRA>
0

>  <SCORE.INTRA.DIHEDRAL>
0

>  <SCORE.INTRA.DIHEDRAL.0>
0

>  <SCORE.INTRA.POLAR>
0

>  <SCORE.INTRA.POLAR.0>
0

>  <SCORE.INTRA.REPUL>
0

>  <SCORE.INTRA.REPUL.0>
0

>  <SCORE.INTRA.SOLV>
0

>  <SCORE.INTRA.SOLV.lig_0>
-4.28614

>  <SCORE.INTRA.VDW>
0

>  <SCORE.INTRA.VDW.0>
0

>  <SCORE.INTRA.norm>
0

>  <SCORE.RESTR>
0

>  <SCORE.RESTR.CAVITY>
0

>  <SCORE.RESTR.norm>
0

>  <SCORE.SYSTEM>
0

>  <SCORE.SYSTEM.CONST>
0

>  <SCORE.SYSTEM.DIHEDRAL>
0

>  <SCORE.SYSTEM.SOLV>
0

>  <SCORE.SYSTEM.norm>
0

>  <SCORE.heavy>
10

>  <SCORE.norm>
-1.7047

>  <RMSD>
0.669

$$$$
ligand
 OpenBabel11021811423D
libRbt.so/2013.1/901 2013/11/27
 10 11  0  0  0  0  0  0  0  0999 V2000
  -12.0443  -10.9777    8.8235 N   0  0  0  0  0  0  0  0  0  0  0  0
  -11.9032  -12.3577    8.9828 C   0  0  0  0  0  0  0  0  0  0  0  0
  -11.5765  -13.1705    7.9622 N   0  0  0  0  0  0  0  0  0  0  0  0
  -11.3948  -12.4931    6.7597 C   0  0  0  0  0  0  0  0  0  0  0  0
  -11.5203  -11.1256    6.5084 C   0  0  0  0  0  0  0  0  0  0  0  0
  -11.8761  -10.2523    7.5962 C   0  0  0  0  0  0  0  0  0  0  0  0
  -12.0404   -9.0568    7.6311 O   0  0  0  0  0  0  0  0  0  0  0  0
  -11.2352  -10.8868    5.1517 N   0  0  0  0  0  0  0  0  0  0  0  0
  -10.9425  -12.1063    4.6246 C   0  0  0  0  0  0  0  0  0  0  0  0
  -11.0341  -13.1144    5.5945 N   0  0  0  0  0  0  0  0  0  0  0  0
  1  2  1  0  0  0  0
  1  6  1  0  0  0  0
  2  3  2  0  0  0  0
  3  4  1  0  0  0  0
  4  5  2  0  0  0  0
  4 10  1  0  0  0  0
  5  6  1  0  0  0  0
  5  8  1  0  0  0  0
  6  7  2  0  0  0  0
  8  9  1  0  0  0  0
  9 10  2  0  0  0  0
M  END
>  <CHROM.1>
-11.56624786,-11.50790702,6.97878159,3.12430647,1.31370300,-0.52911886

>  <Name>
ligand

>  <RI>
0

>  <Rbt.Current_Directory>
/home/itssahil/PROJECTS/Mol_Feturizer/New_Systems/rnas/2EES

>  <Rbt.Executable>
rbdock ($Id: //depot/dev/client3/rdock/2013.1/src/exe/rbdock.cxx#4 $)

>  <Rbt.Library>
libRbt.so (2013.1, Build901 2013/11/27)

>  <Rbt.Parameter_File>
/export/apps/rDock/src/rDock_2013.1_src/data/scripts/dock_solv.prm

>  <Rbt.Receptor>
prm/blind_docking_100.prm

>  <SCORE>
-16.9986

>  <SCORE.INTER>
-16.9986

>  <SCORE.INTER.CONST>
1

>  <SCORE.INTER.POLAR>
0

>  <SCORE.INTER.ROT>
0

>  <SCORE.INTER.SOLV>
3.64218

>  <SCORE.INTER.VDW>
-16.1465

>  <SCORE.INTER.norm>
-1.69986

>  <SCORE.INTRA>
0

>  <SCORE.INTRA.DIHEDRAL>
0

>  <SCORE.INTRA.DIHEDRAL.0>
0

>  <SCORE.INTRA.POLAR>
0

>  <SCORE.INTRA.POLAR.0>
0

>  <SCORE.INTRA.REPUL>
0

>  <SCORE.INTRA.REPUL.0>
0

>  <SCORE.INTRA.SOLV>
0

>  <SCORE.INTRA.SOLV.lig_0>
-4.28614

>  <SCORE.INTRA.VDW>
0

>  <SCORE.INTRA.VDW.0>
0

>  <SCORE.INTRA.norm>
0

>  <SCORE.RESTR>
0

>  <SCORE.RESTR.CAVITY>
0

>  <SCORE.RESTR.norm>
0

>  <SCORE.SYSTEM>
0

>  <SCORE.SYSTEM.CONST>
0

>  <SCORE.SYSTEM.DIHEDRAL>
0

>  <SCORE.SYSTEM.SOLV>
0

>  <SCORE.SYSTEM.norm>
0

>  <SCORE.heavy>
10

>  <SCORE.norm>
-1.69986

>  <RMSD>
0.670

$$$$
ligand
 OpenBabel11021811423D
libRbt.so/2013.1/901 2013/11/27
 10 11  0  0  0  0  0  0  0  0999 V2000
  -12.0496  -10.9734    8.8152 N   0  0  0  0  0  0  0  0  0  0  0  0
  -11.8987  -12.3516    8.9811 C   0  0  0  0  0  0  0  0  0  0  0  0
  -11.5604  -13.1661    7.9657 N   0  0  0  0  0  0  0  0  0  0  0  0
  -11.3778  -12.4924    6.7613 C   0  0  0  0  0  0  0  0  0  0  0  0
  -11.5126  -11.1270    6.5035 C   0  0  0  0  0  0  0  0  0  0  0  0
  -11.8808  -10.2519    7.5858 C   0  0  0  0  0  0  0  0  0  0  0  0
  -12.0544   -9.0575    7.6148 O   0  0  0  0  0  0  0  0  0  0  0  0
  -11.2224  -10.8917    5.1472 N   0  0  0  0  0  0  0  0  0  0  0  0
  -10.9176  -12.1111    4.6268 C   0  0  0  0  0  0  0  0  0  0  0  0
  -11.0064  -13.1158    5.6006 N   0  0  0  0  0  0  0  0  0  0  0  0
  1  2  1  0  0  0  0
  1  6  1  0  0  0  0
  2  3  2  0  0  0  0
  3  4  1  0  0  0  0
  4  5  2  0  0  0  0
  4 10  1  0  0  0  0
  5  6  1  0  0  0  0
  5  8  1  0  0  0  0
  6  7  2  0  0  0  0
  8  9  1  0  0  0  0
  9 10  2  0  0  0  0
M  END
>  <CHROM.1>
-11.55802093,-11.50765155,6.97524672,3.13994719,1.30535318,-0.54845533

>  <Name>
ligand

>  <RI>
0

>  <Rbt.Current_Directory>
/home/itssahil/PROJECTS/Mol_Feturizer/New_Systems/rnas/2EES

>  <Rbt.Executable>
rbdock ($Id: //depot/dev/client3/rdock/2013.1/src/exe/rbdock.cxx#4 $)

>  <Rbt.Library>
libRbt.so (2013.1, Build901 2013/11/27)

>  <Rbt.Parameter_File>
/export/apps/rDock/src/rDock_2013.1_src/data/scripts/dock_solv.prm

>  <Rbt.Receptor>
prm/blind_docking_60.prm

>  <SCORE>
-17.0094

>  <SCORE.INTER>
-17.0094

>  <SCORE.INTER.CONST>
1

>  <SCORE.INTER.POLAR>
0

>  <SCORE.INTER.ROT>
0

>  <SCORE.INTER.SOLV>
3.61708

>  <SCORE.INTER.VDW>
-16.1453

>  <SCORE.INTER.norm>
-1.70094

>  <SCORE.INTRA>
0

>  <SCORE.INTRA.DIHEDRAL>
0

>  <SCORE.INTRA.DIHEDRAL.0>
0

>  <SCORE.INTRA.POLAR>
0

>  <SCORE.INTRA.POLAR.0>
0

>  <SCORE.INTRA.REPUL>
0

>  <SCORE.INTRA.REPUL.0>
0

>  <SCORE.INTRA.SOLV>
0

>  <SCORE.INTRA.SOLV.lig_0>
-4.28614

>  <SCORE.INTRA.VDW>
0

>  <SCORE.INTRA.VDW.0>
0

>  <SCORE.INTRA.norm>
0

>  <SCORE.RESTR>
0

>  <SCORE.RESTR.CAVITY>
0

>  <SCORE.RESTR.norm>
0

>  <SCORE.SYSTEM>
0

>  <SCORE.SYSTEM.CONST>
0

>  <SCORE.SYSTEM.DIHEDRAL>
0

>  <SCORE.SYSTEM.SOLV>
0

>  <SCORE.SYSTEM.norm>
0

>  <SCORE.heavy>
10

>  <SCORE.norm>
-1.70094

>  <RMSD>
0.670

$$$$
ligand
 OpenBabel11021811423D
libRbt.so/2013.1/901 2013/11/27
 10 11  0  0  0  0  0  0  0  0999 V2000
  -12.0577  -10.9810    8.8072 N   0  0  0  0  0  0  0  0  0  0  0  0
  -11.8916  -12.3570    8.9770 C   0  0  0  0  0  0  0  0  0  0  0  0
  -11.5446  -13.1707    7.9638 N   0  0  0  0  0  0  0  0  0  0  0  0
  -11.3697  -12.4985    6.7575 C   0  0  0  0  0  0  0  0  0  0  0  0
  -11.5195  -11.1354    6.4958 C   0  0  0  0  0  0  0  0  0  0  0  0
  -11.8971  -10.2613    7.5756 C   0  0  0  0  0  0  0  0  0  0  0  0
  -12.0839   -9.0688    7.6012 O   0  0  0  0  0  0  0  0  0  0  0  0
  -11.2323  -10.9009    5.1387 N   0  0  0  0  0  0  0  0  0  0  0  0
  -10.9142  -12.1184    4.6218 C   0  0  0  0  0  0  0  0  0  0  0  0
  -10.9916  -13.1211    5.5985 N   0  0  0  0  0  0  0  0  0  0  0  0
  1  2  1  0  0  0  0
  1  6  1  0  0  0  0
  2  3  2  0  0  0  0
  3  4  1  0  0  0  0
  4  5  2  0  0  0  0
  4 10  1  0  0  0  0
  5  6  1  0  0  0  0
  5  8  1  0  0  0  0
  6  7  2  0  0  0  0
  8  9  1  0  0  0  0
  9 10  2  0  0  0  0
M  END
>  <CHROM.1>
-11.56066919,-11.51517627,6.96864008,-3.10772802,1.29964473,-0.58559710

>  <Name>
ligand

>  <RI>
0

>  <Rbt.Current_Directory>
/home/itssahil/PROJECTS/Mol_Feturizer/New_Systems/rnas/2EES

>  <Rbt.Executable>
rbdock ($Id: //depot/dev/client3/rdock/2013.1/src/exe/rbdock.cxx#4 $)

>  <Rbt.Library>
libRbt.so (2013.1, Build901 2013/11/27)

>  <Rbt.Parameter_File>
/export/apps/rDock/src/rDock_2013.1_src/data/scripts/dock_solv.prm

>  <Rbt.Receptor>
prm/pocket_docking_5.prm

>  <SCORE>
-17.0472

>  <SCORE.INTER>
-17.0472

>  <SCORE.INTER.CONST>
1

>  <SCORE.INTER.POLAR>
0

>  <SCORE.INTER.ROT>
0

>  <SCORE.INTER.SOLV>
3.58085

>  <SCORE.INTER.VDW>
-16.1584

>  <SCORE.INTER.norm>
-1.70472

>  <SCORE.INTRA>
0

>  <SCORE.INTRA.DIHEDRAL>
0

>  <SCORE.INTRA.DIHEDRAL.0>
0

>  <SCORE.INTRA.POLAR>
0

>  <SCORE.INTRA.POLAR.0>
0

>  <SCORE.INTRA.REPUL>
0

>  <SCORE.INTRA.REPUL.0>
0

>  <SCORE.INTRA.SOLV>
0

>  <SCORE.INTRA.SOLV.lig_0>
-4.28614

>  <SCORE.INTRA.VDW>
0

>  <SCORE.INTRA.VDW.0>
0

>  <SCORE.INTRA.norm>
0

>  <SCORE.RESTR>
0

>  <SCORE.RESTR.CAVITY>
0

>  <SCORE.RESTR.norm>
0

>  <SCORE.SYSTEM>
0

>  <SCORE.SYSTEM.CONST>
0

>  <SCORE.SYSTEM.DIHEDRAL>
0

>  <SCORE.SYSTEM.SOLV>
0

>  <SCORE.SYSTEM.norm>
0

>  <SCORE.heavy>
10

>  <SCORE.norm>
-1.70472

>  <RMSD>
0.670

$$$$
ligand
 OpenBabel11021811423D
libRbt.so/2013.1/901 2013/11/27
 10 11  0  0  0  0  0  0  0  0999 V2000
  -12.0562  -10.9759    8.8084 N   0  0  0  0  0  0  0  0  0  0  0  0
  -11.9017  -12.3527    8.9822 C   0  0  0  0  0  0  0  0  0  0  0  0
  -11.5609  -13.1721    7.9715 N   0  0  0  0  0  0  0  0  0  0  0  0
  -11.3795  -12.5048    6.7634 C   0  0  0  0  0  0  0  0  0  0  0  0
  -11.5177  -11.1413    6.4978 C   0  0  0  0  0  0  0  0  0  0  0  0
  -11.8886  -10.2610    7.5749 C   0  0  0  0  0  0  0  0  0  0  0  0
  -12.0654   -9.0669    7.5970 O   0  0  0  0  0  0  0  0  0  0  0  0
  -11.2275  -10.9130    5.1403 N   0  0  0  0  0  0  0  0  0  0  0  0
  -10.9194  -12.1346    4.6270 C   0  0  0  0  0  0  0  0  0  0  0  0
  -11.0059  -13.1339    5.6065 N   0  0  0  0  0  0  0  0  0  0  0  0
  1  2  1  0  0  0  0
  1  6  1  0  0  0  0
  2  3  2  0  0  0  0
  3  4  1  0  0  0  0
  4  5  2  0  0  0  0
  4 10  1  0  0  0  0
  5  6  1  0  0  0  0
  5  8  1  0  0  0  0
  6  7  2  0  0  0  0
  8  9  1  0  0  0  0
  9 10  2  0  0  0  0
M  END
>  <CHROM.1>
-11.56235516,-11.51936162,6.97167260,-3.13577783,1.30361631,-0.56137292

>  <Name>
ligand

>  <RI>
0

>  <Rbt.Current_Directory>
/home/itssahil/PROJECTS/Mol_Feturizer/New_Systems/rnas/2EES

>  <Rbt.Executable>
rbdock ($Id: //depot/dev/client3/rdock/2013.1/src/exe/rbdock.cxx#4 $)

>  <Rbt.Library>
libRbt.so (2013.1, Build901 2013/11/27)

>  <Rbt.Parameter_File>
/export/apps/rDock/src/rDock_2013.1_src/data/scripts/dock_solv.prm

>  <Rbt.Receptor>
prm/pocket_docking_8.prm

>  <SCORE>
-17.0486

>  <SCORE.INTER>
-17.0486

>  <SCORE.INTER.CONST>
1

>  <SCORE.INTER.POLAR>
0

>  <SCORE.INTER.ROT>
0

>  <SCORE.INTER.SOLV>
3.60462

>  <SCORE.INTER.VDW>
-16.1673

>  <SCORE.INTER.norm>
-1.70486

>  <SCORE.INTRA>
0

>  <SCORE.INTRA.DIHEDRAL>
0

>  <SCORE.INTRA.DIHEDRAL.0>
0

>  <SCORE.INTRA.POLAR>
0

>  <SCORE.INTRA.POLAR.0>
0

>  <SCORE.INTRA.REPUL>
0

>  <SCORE.INTRA.REPUL.0>
0

>  <SCORE.INTRA.SOLV>
0

>  <SCORE.INTRA.SOLV.lig_0>
-4.28614

>  <SCORE.INTRA.VDW>
0

>  <SCORE.INTRA.VDW.0>
0

>  <SCORE.INTRA.norm>
0

>  <SCORE.RESTR>
0

>  <SCORE.RESTR.CAVITY>
0

>  <SCORE.RESTR.norm>
0

>  <SCORE.SYSTEM>
0

>  <SCORE.SYSTEM.CONST>
0

>  <SCORE.SYSTEM.DIHEDRAL>
0

>  <SCORE.SYSTEM.SOLV>
0

>  <SCORE.SYSTEM.norm>
0

>  <SCORE.heavy>
10

>  <SCORE.norm>
-1.70486

>  <RMSD>
0.670

$$$$
ligand
 OpenBabel11021811423D
libRbt.so/2013.1/901 2013/11/27
 10 11  0  0  0  0  0  0  0  0999 V2000
  -12.0557  -10.9770    8.8062 N   0  0  0  0  0  0  0  0  0  0  0  0
  -11.8975  -12.3535    8.9790 C   0  0  0  0  0  0  0  0  0  0  0  0
  -11.5549  -13.1713    7.9676 N   0  0  0  0  0  0  0  0  0  0  0  0
  -11.3758  -12.5026    6.7599 C   0  0  0  0  0  0  0  0  0  0  0  0
  -11.5178  -11.1392    6.4953 C   0  0  0  0  0  0  0  0  0  0  0  0
  -11.8906  -10.2608    7.5732 C   0  0  0  0  0  0  0  0  0  0  0  0
  -12.0706   -9.0672    7.5963 O   0  0  0  0  0  0  0  0  0  0  0  0
  -11.2288  -10.9092    5.1379 N   0  0  0  0  0  0  0  0  0  0  0  0
  -10.9176  -12.1295    4.6236 C   0  0  0  0  0  0  0  0  0  0  0  0
  -11.0010  -13.1298    5.6023 N   0  0  0  0  0  0  0  0  0  0  0  0
  1  2  1  0  0  0  0
  1  6  1  0  0  0  0
  2  3  2  0  0  0  0
  3  4  1  0  0  0  0
  4  5  2  0  0  0  0
  4 10  1  0  0  0  0
  5  6  1  0  0  0  0
  5  8  1  0  0  0  0
  6  7  2  0  0  0  0
  8  9  1  0  0  0  0
  9 10  2  0  0  0  0
M  END
>  <CHROM.1>
-11.56123511,-11.51778753,6.96894310,-3.12638457,1.30252711,-0.56968081

>  <Name>
ligand

>  <RI>
0

>  <Rbt.Current_Directory>
/home/itssahil/PROJECTS/Mol_Feturizer/New_Systems/rnas/2EES

>  <Rbt.Executable>
rbdock ($Id: //depot/dev/client3/rdock/2013.1/src/exe/rbdock.cxx#4 $)

>  <Rbt.Library>
libRbt.so (2013.1, Build901 2013/11/27)

>  <Rbt.Parameter_File>
/export/apps/rDock/src/rDock_2013.1_src/data/scripts/dock_solv.prm

>  <Rbt.Receptor>
prm/blind_docking_80.prm

>  <SCORE>
-17.0484

>  <SCORE.INTER>
-17.0484

>  <SCORE.INTER.CONST>
1

>  <SCORE.INTER.POLAR>
0

>  <SCORE.INTER.ROT>
0

>  <SCORE.INTER.SOLV>
3.59852

>  <SCORE.INTER.VDW>
-16.1651

>  <SCORE.INTER.norm>
-1.70484

>  <SCORE.INTRA>
0

>  <SCORE.INTRA.DIHEDRAL>
0

>  <SCORE.INTRA.DIHEDRAL.0>
0

>  <SCORE.INTRA.POLAR>
0

>  <SCORE.INTRA.POLAR.0>
0

>  <SCORE.INTRA.REPUL>
0

>  <SCORE.INTRA.REPUL.0>
0

>  <SCORE.INTRA.SOLV>
0

>  <SCORE.INTRA.SOLV.lig_0>
-4.28614

>  <SCORE.INTRA.VDW>
0

>  <SCORE.INTRA.VDW.0>
0

>  <SCORE.INTRA.norm>
0

>  <SCORE.RESTR>
0

>  <SCORE.RESTR.CAVITY>
0

>  <SCORE.RESTR.norm>
0

>  <SCORE.SYSTEM>
0

>  <SCORE.SYSTEM.CONST>
0

>  <SCORE.SYSTEM.DIHEDRAL>
0

>  <SCORE.SYSTEM.SOLV>
0

>  <SCORE.SYSTEM.norm>
0

>  <SCORE.heavy>
10

>  <SCORE.norm>
-1.70484

>  <RMSD>
0.671

$$$$
ligand
 OpenBabel11021811423D
libRbt.so/2013.1/901 2013/11/27
 10 11  0  0  0  0  0  0  0  0999 V2000
  -12.0049  -11.2732    8.8340 N   0  0  0  0  0  0  0  0  0  0  0  0
  -11.7619  -12.6464    8.9046 C   0  0  0  0  0  0  0  0  0  0  0  0
  -11.3912  -13.3679    7.8317 N   0  0  0  0  0  0  0  0  0  0  0  0
  -11.2758  -12.6054    6.6728 C   0  0  0  0  0  0  0  0  0  0  0  0
  -11.5036  -11.2378    6.5095 C   0  0  0  0  0  0  0  0  0  0  0  0
  -11.9068  -10.4624    7.6535 C   0  0  0  0  0  0  0  0  0  0  0  0
  -12.1568   -9.2866    7.7654 O   0  0  0  0  0  0  0  0  0  0  0  0
  -11.2554  -10.8947    5.1679 N   0  0  0  0  0  0  0  0  0  0  0  0
  -10.8823  -12.0543    4.5622 C   0  0  0  0  0  0  0  0  0  0  0  0
  -10.8871  -13.1249    5.4674 N   0  0  0  0  0  0  0  0  0  0  0  0
  1  2  1  0  0  0  0
  1  6  1  0  0  0  0
  2  3  2  0  0  0  0
  3  4  1  0  0  0  0
  4  5  2  0  0  0  0
  4 10  1  0  0  0  0
  5  6  1  0  0  0  0
  5  8  1  0  0  0  0
  6  7  2  0  0  0  0
  8  9  1  0  0  0  0
  9 10  2  0  0  0  0
M  END
>  <CHROM.1>
-11.51520224,-11.65102859,6.95517985,-2.91309856,1.28072043,-0.70301888

>  <Name>
ligand

>  <RI>
0

>  <Rbt.Current_Directory>
/home/itssahil/PROJECTS/Mol_Feturizer/New_Systems/rnas/2EES

>  <Rbt.Executable>
rbdock ($Id: //depot/dev/client3/rdock/2013.1/src/exe/rbdock.cxx#4 $)

>  <Rbt.Library>
libRbt.so (2013.1, Build901 2013/11/27)

>  <Rbt.Parameter_File>
/export/apps/rDock/src/rDock_2013.1_src/data/scripts/dock_solv.prm

>  <Rbt.Receptor>
prm/pocket_docking_4.prm

>  <SCORE>
-16.9783

>  <SCORE.INTER>
-16.9783

>  <SCORE.INTER.CONST>
1

>  <SCORE.INTER.POLAR>
0

>  <SCORE.INTER.ROT>
0

>  <SCORE.INTER.SOLV>
3.51297

>  <SCORE.INTER.VDW>
-16.0898

>  <SCORE.INTER.norm>
-1.69783

>  <SCORE.INTRA>
0

>  <SCORE.INTRA.DIHEDRAL>
0

>  <SCORE.INTRA.DIHEDRAL.0>
0

>  <SCORE.INTRA.POLAR>
0

>  <SCORE.INTRA.POLAR.0>
0

>  <SCORE.INTRA.REPUL>
0

>  <SCORE.INTRA.REPUL.0>
0

>  <SCORE.INTRA.SOLV>
0

>  <SCORE.INTRA.SOLV.lig_0>
-4.28614

>  <SCORE.INTRA.VDW>
0

>  <SCORE.INTRA.VDW.0>
0

>  <SCORE.INTRA.norm>
0

>  <SCORE.RESTR>
0

>  <SCORE.RESTR.CAVITY>
0

>  <SCORE.RESTR.norm>
0

>  <SCORE.SYSTEM>
0

>  <SCORE.SYSTEM.CONST>
0

>  <SCORE.SYSTEM.DIHEDRAL>
0

>  <SCORE.SYSTEM.SOLV>
0

>  <SCORE.SYSTEM.norm>
0

>  <SCORE.heavy>
10

>  <SCORE.norm>
-1.69783

>  <RMSD>
0.671

$$$$
ligand
 OpenBabel11021811423D
libRbt.so/2013.1/901 2013/11/27
 10 11  0  0  0  0  0  0  0  0999 V2000
  -12.0568  -10.9669    8.8032 N   0  0  0  0  0  0  0  0  0  0  0  0
  -11.9038  -12.3429    8.9844 C   0  0  0  0  0  0  0  0  0  0  0  0
  -11.5622  -13.1679    7.9785 N   0  0  0  0  0  0  0  0  0  0  0  0
  -11.3783  -12.5070    6.7672 C   0  0  0  0  0  0  0  0  0  0  0  0
  -11.5149  -11.1447    6.4943 C   0  0  0  0  0  0  0  0  0  0  0  0
  -11.8867  -10.2585    7.5663 C   0  0  0  0  0  0  0  0  0  0  0  0
  -12.0623   -9.0642    7.5819 O   0  0  0  0  0  0  0  0  0  0  0  0
  -11.2224  -10.9237    5.1361 N   0  0  0  0  0  0  0  0  0  0  0  0
  -10.9145  -12.1482    4.6297 C   0  0  0  0  0  0  0  0  0  0  0  0
  -11.0035  -13.1424    5.6141 N   0  0  0  0  0  0  0  0  0  0  0  0
  1  2  1  0  0  0  0
  1  6  1  0  0  0  0
  2  3  2  0  0  0  0
  3  4  1  0  0  0  0
  4  5  2  0  0  0  0
  4 10  1  0  0  0  0
  5  6  1  0  0  0  0
  5  8  1  0  0  0  0
  6  7  2  0  0  0  0
  8  9  1  0  0  0  0
  9 10  2  0  0  0  0
M  END
>  <CHROM.1>
-11.56058849,-11.52028401,6.97011352,3.14136677,1.30277693,-0.56072007

>  <Name>
ligand

>  <RI>
0

>  <Rbt.Current_Directory>
/home/itssahil/PROJECTS/Mol_Feturizer/New_Systems/rnas/2EES

>  <Rbt.Executable>
rbdock ($Id: //depot/dev/client3/rdock/2013.1/src/exe/rbdock.cxx#4 $)

>  <Rbt.Library>
libRbt.so (2013.1, Build901 2013/11/27)

>  <Rbt.Parameter_File>
/export/apps/rDock/src/rDock_2013.1_src/data/scripts/dock_solv.prm

>  <Rbt.Receptor>
prm/pocket_docking_6.prm

>  <SCORE>
-17.0074

>  <SCORE.INTER>
-17.0074

>  <SCORE.INTER.CONST>
1

>  <SCORE.INTER.POLAR>
0

>  <SCORE.INTER.ROT>
0

>  <SCORE.INTER.SOLV>
3.60724

>  <SCORE.INTER.VDW>
-16.1406

>  <SCORE.INTER.norm>
-1.70074

>  <SCORE.INTRA>
0

>  <SCORE.INTRA.DIHEDRAL>
0

>  <SCORE.INTRA.DIHEDRAL.0>
0

>  <SCORE.INTRA.POLAR>
0

>  <SCORE.INTRA.POLAR.0>
0

>  <SCORE.INTRA.REPUL>
0

>  <SCORE.INTRA.REPUL.0>
0

>  <SCORE.INTRA.SOLV>
0

>  <SCORE.INTRA.SOLV.lig_0>
-4.28614

>  <SCORE.INTRA.VDW>
0

>  <SCORE.INTRA.VDW.0>
0

>  <SCORE.INTRA.norm>
0

>  <SCORE.RESTR>
0

>  <SCORE.RESTR.CAVITY>
0

>  <SCORE.RESTR.norm>
0

>  <SCORE.SYSTEM>
0

>  <SCORE.SYSTEM.CONST>
0

>  <SCORE.SYSTEM.DIHEDRAL>
0

>  <SCORE.SYSTEM.SOLV>
0

>  <SCORE.SYSTEM.norm>
0

>  <SCORE.heavy>
10

>  <SCORE.norm>
-1.70074

>  <RMSD>
0.671

$$$$
ligand
 OpenBabel11021811423D
libRbt.so/2013.1/901 2013/11/27
 10 11  0  0  0  0  0  0  0  0999 V2000
  -11.9588  -11.3334    8.8776 N   0  0  0  0  0  0  0  0  0  0  0  0
  -11.7651  -12.7159    8.9047 C   0  0  0  0  0  0  0  0  0  0  0  0
  -11.4280  -13.4172    7.8076 N   0  0  0  0  0  0  0  0  0  0  0  0
  -11.2928  -12.6244    6.6715 C   0  0  0  0  0  0  0  0  0  0  0  0
  -11.4721  -11.2451    6.5514 C   0  0  0  0  0  0  0  0  0  0  0  0
  -11.8392  -10.4910    7.7214 C   0  0  0  0  0  0  0  0  0  0  0  0
  -12.0458   -9.3109    7.8707 O   0  0  0  0  0  0  0  0  0  0  0  0
  -11.2206  -10.8704    5.2189 N   0  0  0  0  0  0  0  0  0  0  0  0
  -10.8938  -12.0237    4.5755 C   0  0  0  0  0  0  0  0  0  0  0  0
  -10.9313  -13.1205    5.4479 N   0  0  0  0  0  0  0  0  0  0  0  0
  1  2  1  0  0  0  0
  1  6  1  0  0  0  0
  2  3  2  0  0  0  0
  3  4  1  0  0  0  0
  4  5  2  0  0  0  0
  4 10  1  0  0  0  0
  5  6  1  0  0  0  0
  5  8  1  0  0  0  0
  6  7  2  0  0  0  0
  8  9  1  0  0  0  0
  9 10  2  0  0  0  0
M  END
>  <CHROM.1>
-11.49563065,-11.67104478,6.98443236,-3.00287848,1.30822508,-0.58625723

>  <Name>
ligand

>  <RI>
0

>  <Rbt.Current_Directory>
/home/itssahil/PROJECTS/Mol_Feturizer/New_Systems/rnas/2EES

>  <Rbt.Executable>
rbdock ($Id: //depot/dev/client3/rdock/2013.1/src/exe/rbdock.cxx#4 $)

>  <Rbt.Library>
libRbt.so (2013.1, Build901 2013/11/27)

>  <Rbt.Parameter_File>
/export/apps/rDock/src/rDock_2013.1_src/data/scripts/dock_solv.prm

>  <Rbt.Receptor>
prm/pocket_docking_7.prm

>  <SCORE>
-16.8371

>  <SCORE.INTER>
-16.8371

>  <SCORE.INTER.CONST>
1

>  <SCORE.INTER.POLAR>
0

>  <SCORE.INTER.ROT>
0

>  <SCORE.INTER.SOLV>
3.66655

>  <SCORE.INTER.VDW>
-16.0469

>  <SCORE.INTER.norm>
-1.68371

>  <SCORE.INTRA>
0

>  <SCORE.INTRA.DIHEDRAL>
0

>  <SCORE.INTRA.DIHEDRAL.0>
0

>  <SCORE.INTRA.POLAR>
0

>  <SCORE.INTRA.POLAR.0>
0

>  <SCORE.INTRA.REPUL>
0

>  <SCORE.INTRA.REPUL.0>
0

>  <SCORE.INTRA.SOLV>
0

>  <SCORE.INTRA.SOLV.lig_0>
-4.28614

>  <SCORE.INTRA.VDW>
0

>  <SCORE.INTRA.VDW.0>
0

>  <SCORE.INTRA.norm>
0

>  <SCORE.RESTR>
0

>  <SCORE.RESTR.CAVITY>
0

>  <SCORE.RESTR.norm>
0

>  <SCORE.SYSTEM>
0

>  <SCORE.SYSTEM.CONST>
0

>  <SCORE.SYSTEM.DIHEDRAL>
0

>  <SCORE.SYSTEM.SOLV>
0

>  <SCORE.SYSTEM.norm>
0

>  <SCORE.heavy>
10

>  <SCORE.norm>
-1.68371

>  <RMSD>
0.671

$$$$
ligand
 OpenBabel11021811423D
libRbt.so/2013.1/901 2013/11/27
 10 11  0  0  0  0  0  0  0  0999 V2000
  -12.0430  -11.0238    8.8114 N   0  0  0  0  0  0  0  0  0  0  0  0
  -11.8627  -12.4005    8.9586 C   0  0  0  0  0  0  0  0  0  0  0  0
  -11.5097  -13.1942    7.9317 N   0  0  0  0  0  0  0  0  0  0  0  0
  -11.3443  -12.5009    6.7360 C   0  0  0  0  0  0  0  0  0  0  0  0
  -11.5084  -11.1353    6.4967 C   0  0  0  0  0  0  0  0  0  0  0  0
  -11.8924  -10.2827    7.5913 C   0  0  0  0  0  0  0  0  0  0  0  0
  -12.0911   -9.0927    7.6365 O   0  0  0  0  0  0  0  0  0  0  0  0
  -11.2265  -10.8761    5.1430 N   0  0  0  0  0  0  0  0  0  0  0  0
  -10.8974  -12.0817    4.6058 C   0  0  0  0  0  0  0  0  0  0  0  0
  -10.9625  -13.1009    5.5663 N   0  0  0  0  0  0  0  0  0  0  0  0
  1  2  1  0  0  0  0
  1  6  1  0  0  0  0
  2  3  2  0  0  0  0
  3  4  1  0  0  0  0
  4  5  2  0  0  0  0
  4 10  1  0  0  0  0
  5  6  1  0  0  0  0
  5  8  1  0  0  0  0
  6  7  2  0  0  0  0
  8  9  1  0  0  0  0
  9 10  2  0  0  0  0
M  END
>  <CHROM.1>
-11.54469049,-11.52308870,6.96340681,-3.07235723,1.29575194,-0.60349327

>  <Name>
ligand

>  <RI>
0

>  <Rbt.Current_Directory>
/home/itssahil/PROJECTS/Mol_Feturizer/New_Systems/rnas/2EES

>  <Rbt.Executable>
rbdock ($Id: //depot/dev/client3/rdock/2013.1/src/exe/rbdock.cxx#4 $)

>  <Rbt.Library>
libRbt.so (2013.1, Build901 2013/11/27)

>  <Rbt.Parameter_File>
/export/apps/rDock/src/rDock_2013.1_src/data/scripts/dock_solv.prm

>  <Rbt.Receptor>
prm/pocket_docking_4.prm

>  <SCORE>
-16.9999

>  <SCORE.INTER>
-16.9999

>  <SCORE.INTER.CONST>
1

>  <SCORE.INTER.POLAR>
0

>  <SCORE.INTER.ROT>
0

>  <SCORE.INTER.SOLV>
3.56129

>  <SCORE.INTER.VDW>
-16.1204

>  <SCORE.INTER.norm>
-1.69999

>  <SCORE.INTRA>
0

>  <SCORE.INTRA.DIHEDRAL>
0

>  <SCORE.INTRA.DIHEDRAL.0>
0

>  <SCORE.INTRA.POLAR>
0

>  <SCORE.INTRA.POLAR.0>
0

>  <SCORE.INTRA.REPUL>
0

>  <SCORE.INTRA.REPUL.0>
0

>  <SCORE.INTRA.SOLV>
0

>  <SCORE.INTRA.SOLV.lig_0>
-4.28614

>  <SCORE.INTRA.VDW>
0

>  <SCORE.INTRA.VDW.0>
0

>  <SCORE.INTRA.norm>
0

>  <SCORE.RESTR>
0

>  <SCORE.RESTR.CAVITY>
0

>  <SCORE.RESTR.norm>
0

>  <SCORE.SYSTEM>
0

>  <SCORE.SYSTEM.CONST>
0

>  <SCORE.SYSTEM.DIHEDRAL>
0

>  <SCORE.SYSTEM.SOLV>
0

>  <SCORE.SYSTEM.norm>
0

>  <SCORE.heavy>
10

>  <SCORE.norm>
-1.69999

>  <RMSD>
0.672

$$$$
ligand
 OpenBabel11021811423D
libRbt.so/2013.1/901 2013/11/27
 10 11  0  0  0  0  0  0  0  0999 V2000
  -12.0565  -10.9674    8.8044 N   0  0  0  0  0  0  0  0  0  0  0  0
  -11.9059  -12.3438    8.9844 C   0  0  0  0  0  0  0  0  0  0  0  0
  -11.5682  -13.1688    7.9773 N   0  0  0  0  0  0  0  0  0  0  0  0
  -11.3858  -12.5076    6.7660 C   0  0  0  0  0  0  0  0  0  0  0  0
  -11.5204  -11.1448    6.4942 C   0  0  0  0  0  0  0  0  0  0  0  0
  -11.8879  -10.2586    7.5675 C   0  0  0  0  0  0  0  0  0  0  0  0
  -12.0613   -9.0639    7.5843 O   0  0  0  0  0  0  0  0  0  0  0  0
  -11.2306  -10.9237    5.1354 N   0  0  0  0  0  0  0  0  0  0  0  0
  -10.9263  -12.1484    4.6276 C   0  0  0  0  0  0  0  0  0  0  0  0
  -11.0149  -13.1430    5.6116 N   0  0  0  0  0  0  0  0  0  0  0  0
  1  2  1  0  0  0  0
  1  6  1  0  0  0  0
  2  3  2  0  0  0  0
  3  4  1  0  0  0  0
  4  5  2  0  0  0  0
  4 10  1  0  0  0  0
  5  6  1  0  0  0  0
  5  8  1  0  0  0  0
  6  7  2  0  0  0  0
  8  9  1  0  0  0  0
  9 10  2  0  0  0  0
M  END
>  <CHROM.1>
-11.56570974,-11.52063905,6.96984463,3.13981925,1.30577322,-0.55863107

>  <Name>
ligand

>  <RI>
0

>  <Rbt.Current_Directory>
/home/itssahil/PROJECTS/Mol_Feturizer/New_Systems/rnas/2EES

>  <Rbt.Executable>
rbdock ($Id: //depot/dev/client3/rdock/2013.1/src/exe/rbdock.cxx#4 $)

>  <Rbt.Library>
libRbt.so (2013.1, Build901 2013/11/27)

>  <Rbt.Parameter_File>
/export/apps/rDock/src/rDock_2013.1_src/data/scripts/dock_solv.prm

>  <Rbt.Receptor>
prm/pocket_docking_6.prm

>  <SCORE>
-17.0452

>  <SCORE.INTER>
-17.0452

>  <SCORE.INTER.CONST>
1

>  <SCORE.INTER.POLAR>
0

>  <SCORE.INTER.ROT>
0

>  <SCORE.INTER.SOLV>
3.61357

>  <SCORE.INTER.VDW>
-16.168

>  <SCORE.INTER.norm>
-1.70452

>  <SCORE.INTRA>
0

>  <SCORE.INTRA.DIHEDRAL>
0

>  <SCORE.INTRA.DIHEDRAL.0>
0

>  <SCORE.INTRA.POLAR>
0

>  <SCORE.INTRA.POLAR.0>
0

>  <SCORE.INTRA.REPUL>
0

>  <SCORE.INTRA.REPUL.0>
0

>  <SCORE.INTRA.SOLV>
0

>  <SCORE.INTRA.SOLV.lig_0>
-4.28614

>  <SCORE.INTRA.VDW>
0

>  <SCORE.INTRA.VDW.0>
0

>  <SCORE.INTRA.norm>
0

>  <SCORE.RESTR>
0

>  <SCORE.RESTR.CAVITY>
0

>  <SCORE.RESTR.norm>
0

>  <SCORE.SYSTEM>
0

>  <SCORE.SYSTEM.CONST>
0

>  <SCORE.SYSTEM.DIHEDRAL>
0

>  <SCORE.SYSTEM.SOLV>
0

>  <SCORE.SYSTEM.norm>
0

>  <SCORE.heavy>
10

>  <SCORE.norm>
-1.70452

>  <RMSD>
0.672

$$$$
ligand
 OpenBabel11021811423D
libRbt.so/2013.1/901 2013/11/27
 10 11  0  0  0  0  0  0  0  0999 V2000
  -12.0549  -10.9674    8.8068 N   0  0  0  0  0  0  0  0  0  0  0  0
  -11.9035  -12.3443    8.9822 C   0  0  0  0  0  0  0  0  0  0  0  0
  -11.5637  -13.1656    7.9726 N   0  0  0  0  0  0  0  0  0  0  0  0
  -11.3800  -12.4999    6.7639 C   0  0  0  0  0  0  0  0  0  0  0  0
  -11.5152  -11.1363    6.4968 C   0  0  0  0  0  0  0  0  0  0  0  0
  -11.8850  -10.2542    7.5727 C   0  0  0  0  0  0  0  0  0  0  0  0
  -12.0593   -9.0597    7.5935 O   0  0  0  0  0  0  0  0  0  0  0  0
  -11.2236  -10.9101    5.1393 N   0  0  0  0  0  0  0  0  0  0  0  0
  -10.9176  -12.1328    4.6275 C   0  0  0  0  0  0  0  0  0  0  0  0
  -11.0070  -13.1309    5.6079 N   0  0  0  0  0  0  0  0  0  0  0  0
  1  2  1  0  0  0  0
  1  6  1  0  0  0  0
  2  3  2  0  0  0  0
  3  4  1  0  0  0  0
  4  5  2  0  0  0  0
  4 10  1  0  0  0  0
  5  6  1  0  0  0  0
  5  8  1  0  0  0  0
  6  7  2  0  0  0  0
  8  9  1  0  0  0  0
  9 10  2  0  0  0  0
M  END
>  <CHROM.1>
-11.56095908,-11.51381377,6.97103523,3.13925711,1.30413060,-0.55453862

>  <Name>
ligand

>  <RI>
0

>  <Rbt.Current_Directory>
/home/itssahil/PROJECTS/Mol_Feturizer/New_Systems/rnas/2EES

>  <Rbt.Executable>
rbdock ($Id: //depot/dev/client3/rdock/2013.1/src/exe/rbdock.cxx#4 $)

>  <Rbt.Library>
libRbt.so (2013.1, Build901 2013/11/27)

>  <Rbt.Parameter_File>
/export/apps/rDock/src/rDock_2013.1_src/data/scripts/dock_solv.prm

>  <Rbt.Receptor>
prm/pocket_docking_8.prm

>  <SCORE>
-17.0475

>  <SCORE.INTER>
-17.0475

>  <SCORE.INTER.CONST>
1

>  <SCORE.INTER.POLAR>
0

>  <SCORE.INTER.ROT>
0

>  <SCORE.INTER.SOLV>
3.61243

>  <SCORE.INTER.VDW>
-16.1692

>  <SCORE.INTER.norm>
-1.70475

>  <SCORE.INTRA>
0

>  <SCORE.INTRA.DIHEDRAL>
0

>  <SCORE.INTRA.DIHEDRAL.0>
0

>  <SCORE.INTRA.POLAR>
0

>  <SCORE.INTRA.POLAR.0>
0

>  <SCORE.INTRA.REPUL>
0

>  <SCORE.INTRA.REPUL.0>
0

>  <SCORE.INTRA.SOLV>
0

>  <SCORE.INTRA.SOLV.lig_0>
-4.28614

>  <SCORE.INTRA.VDW>
0

>  <SCORE.INTRA.VDW.0>
0

>  <SCORE.INTRA.norm>
0

>  <SCORE.RESTR>
0

>  <SCORE.RESTR.CAVITY>
0

>  <SCORE.RESTR.norm>
0

>  <SCORE.SYSTEM>
0

>  <SCORE.SYSTEM.CONST>
0

>  <SCORE.SYSTEM.DIHEDRAL>
0

>  <SCORE.SYSTEM.SOLV>
0

>  <SCORE.SYSTEM.norm>
0

>  <SCORE.heavy>
10

>  <SCORE.norm>
-1.70475

>  <RMSD>
0.672

$$$$
ligand
 OpenBabel11021811423D
libRbt.so/2013.1/901 2013/11/27
 10 11  0  0  0  0  0  0  0  0999 V2000
  -12.0580  -10.9759    8.8029 N   0  0  0  0  0  0  0  0  0  0  0  0
  -11.8933  -12.3514    8.9769 C   0  0  0  0  0  0  0  0  0  0  0  0
  -11.5458  -13.1684    7.9665 N   0  0  0  0  0  0  0  0  0  0  0  0
  -11.3688  -12.4999    6.7584 C   0  0  0  0  0  0  0  0  0  0  0  0
  -11.5171  -11.1375    6.4926 C   0  0  0  0  0  0  0  0  0  0  0  0
  -11.8952  -10.2599    7.5694 C   0  0  0  0  0  0  0  0  0  0  0  0
  -12.0809   -9.0672    7.5912 O   0  0  0  0  0  0  0  0  0  0  0  0
  -11.2279  -10.9072    5.1352 N   0  0  0  0  0  0  0  0  0  0  0  0
  -10.9103  -12.1265    4.6223 C   0  0  0  0  0  0  0  0  0  0  0  0
  -10.9899  -13.1263    5.6017 N   0  0  0  0  0  0  0  0  0  0  0  0
  1  2  1  0  0  0  0
  1  6  1  0  0  0  0
  2  3  2  0  0  0  0
  3  4  1  0  0  0  0
  4  5  2  0  0  0  0
  4 10  1  0  0  0  0
  5  6  1  0  0  0  0
  5  8  1  0  0  0  0
  6  7  2  0  0  0  0
  8  9  1  0  0  0  0
  9 10  2  0  0  0  0
M  END
>  <CHROM.1>
-11.55917028,-11.51582902,6.96648729,-3.11314532,1.29909462,-0.58329852

>  <Name>
ligand

>  <RI>
0

>  <Rbt.Current_Directory>
/home/itssahil/PROJECTS/Mol_Feturizer/New_Systems/rnas/2EES

>  <Rbt.Executable>
rbdock ($Id: //depot/dev/client3/rdock/2013.1/src/exe/rbdock.cxx#4 $)

>  <Rbt.Library>
libRbt.so (2013.1, Build901 2013/11/27)

>  <Rbt.Parameter_File>
/export/apps/rDock/src/rDock_2013.1_src/data/scripts/dock_solv.prm

>  <Rbt.Receptor>
prm/pocket_docking_8.prm

>  <SCORE>
-17.0468

>  <SCORE.INTER>
-17.0468

>  <SCORE.INTER.CONST>
1

>  <SCORE.INTER.POLAR>
0

>  <SCORE.INTER.ROT>
0

>  <SCORE.INTER.SOLV>
3.58386

>  <SCORE.INTER.VDW>
-16.1591

>  <SCORE.INTER.norm>
-1.70468

>  <SCORE.INTRA>
0

>  <SCORE.INTRA.DIHEDRAL>
0

>  <SCORE.INTRA.DIHEDRAL.0>
0

>  <SCORE.INTRA.POLAR>
0

>  <SCORE.INTRA.POLAR.0>
0

>  <SCORE.INTRA.REPUL>
0

>  <SCORE.INTRA.REPUL.0>
0

>  <SCORE.INTRA.SOLV>
0

>  <SCORE.INTRA.SOLV.lig_0>
-4.28614

>  <SCORE.INTRA.VDW>
0

>  <SCORE.INTRA.VDW.0>
0

>  <SCORE.INTRA.norm>
0

>  <SCORE.RESTR>
0

>  <SCORE.RESTR.CAVITY>
0

>  <SCORE.RESTR.norm>
0

>  <SCORE.SYSTEM>
0

>  <SCORE.SYSTEM.CONST>
0

>  <SCORE.SYSTEM.DIHEDRAL>
0

>  <SCORE.SYSTEM.SOLV>
0

>  <SCORE.SYSTEM.norm>
0

>  <SCORE.heavy>
10

>  <SCORE.norm>
-1.70468

>  <RMSD>
0.672

$$$$
ligand
 OpenBabel11021811423D
libRbt.so/2013.1/901 2013/11/27
 10 11  0  0  0  0  0  0  0  0999 V2000
  -12.0499  -10.9680    8.8075 N   0  0  0  0  0  0  0  0  0  0  0  0
  -11.9077  -12.3457    8.9841 C   0  0  0  0  0  0  0  0  0  0  0  0
  -11.5734  -13.1701    7.9752 N   0  0  0  0  0  0  0  0  0  0  0  0
  -11.3851  -12.5067    6.7660 C   0  0  0  0  0  0  0  0  0  0  0  0
  -11.5110  -11.1425    6.4977 C   0  0  0  0  0  0  0  0  0  0  0  0
  -11.8750  -10.2569    7.5728 C   0  0  0  0  0  0  0  0  0  0  0  0
  -12.0412   -9.0613    7.5925 O   0  0  0  0  0  0  0  0  0  0  0  0
  -11.2177  -10.9194    5.1400 N   0  0  0  0  0  0  0  0  0  0  0  0
  -10.9200  -12.1446    4.6293 C   0  0  0  0  0  0  0  0  0  0  0  0
  -11.0161  -13.1412    5.6105 N   0  0  0  0  0  0  0  0  0  0  0  0
  1  2  1  0  0  0  0
  1  6  1  0  0  0  0
  2  3  2  0  0  0  0
  3  4  1  0  0  0  0
  4  5  2  0  0  0  0
  4 10  1  0  0  0  0
  5  6  1  0  0  0  0
  5  8  1  0  0  0  0
  6  7  2  0  0  0  0
  8  9  1  0  0  0  0
  9 10  2  0  0  0  0
M  END
>  <CHROM.1>
-11.55939275,-11.51926785,6.97225487,3.11698766,1.30752008,-0.53390102

>  <Name>
ligand

>  <RI>
0

>  <Rbt.Current_Directory>
/home/itssahil/PROJECTS/Mol_Feturizer/New_Systems/rnas/2EES

>  <Rbt.Executable>
rbdock ($Id: //depot/dev/client3/rdock/2013.1/src/exe/rbdock.cxx#4 $)

>  <Rbt.Library>
libRbt.so (2013.1, Build901 2013/11/27)

>  <Rbt.Parameter_File>
/export/apps/rDock/src/rDock_2013.1_src/data/scripts/dock_solv.prm

>  <Rbt.Receptor>
prm/blind_docking_100.prm

>  <SCORE>
-17.0451

>  <SCORE.INTER>
-17.0451

>  <SCORE.INTER.CONST>
1

>  <SCORE.INTER.POLAR>
0

>  <SCORE.INTER.ROT>
0

>  <SCORE.INTER.SOLV>
3.63406

>  <SCORE.INTER.VDW>
-16.1747

>  <SCORE.INTER.norm>
-1.70451

>  <SCORE.INTRA>
0

>  <SCORE.INTRA.DIHEDRAL>
0

>  <SCORE.INTRA.DIHEDRAL.0>
0

>  <SCORE.INTRA.POLAR>
0

>  <SCORE.INTRA.POLAR.0>
0

>  <SCORE.INTRA.REPUL>
0

>  <SCORE.INTRA.REPUL.0>
0

>  <SCORE.INTRA.SOLV>
0

>  <SCORE.INTRA.SOLV.lig_0>
-4.28614

>  <SCORE.INTRA.VDW>
0

>  <SCORE.INTRA.VDW.0>
0

>  <SCORE.INTRA.norm>
0

>  <SCORE.RESTR>
0

>  <SCORE.RESTR.CAVITY>
0

>  <SCORE.RESTR.norm>
0

>  <SCORE.SYSTEM>
0

>  <SCORE.SYSTEM.CONST>
0

>  <SCORE.SYSTEM.DIHEDRAL>
0

>  <SCORE.SYSTEM.SOLV>
0

>  <SCORE.SYSTEM.norm>
0

>  <SCORE.heavy>
10

>  <SCORE.norm>
-1.70451

>  <RMSD>
0.673

$$$$
ligand
 OpenBabel11021811423D
libRbt.so/2013.1/901 2013/11/27
 10 11  0  0  0  0  0  0  0  0999 V2000
  -12.0477  -10.9646    8.8115 N   0  0  0  0  0  0  0  0  0  0  0  0
  -11.9032  -12.3426    8.9838 C   0  0  0  0  0  0  0  0  0  0  0  0
  -11.5677  -13.1634    7.9724 N   0  0  0  0  0  0  0  0  0  0  0  0
  -11.3809  -12.4960    6.7652 C   0  0  0  0  0  0  0  0  0  0  0  0
  -11.5092  -11.1312    6.5010 C   0  0  0  0  0  0  0  0  0  0  0  0
  -11.8744  -10.2495    7.5789 C   0  0  0  0  0  0  0  0  0  0  0  0
  -12.0426   -9.0542    7.6022 O   0  0  0  0  0  0  0  0  0  0  0  0
  -11.2167  -10.9035    5.1439 N   0  0  0  0  0  0  0  0  0  0  0  0
  -10.9170  -12.1267    4.6294 C   0  0  0  0  0  0  0  0  0  0  0  0
  -11.0112  -13.1265    5.6077 N   0  0  0  0  0  0  0  0  0  0  0  0
  1  2  1  0  0  0  0
  1  6  1  0  0  0  0
  2  3  2  0  0  0  0
  3  4  1  0  0  0  0
  4  5  2  0  0  0  0
  4 10  1  0  0  0  0
  5  6  1  0  0  0  0
  5  8  1  0  0  0  0
  6  7  2  0  0  0  0
  8  9  1  0  0  0  0
  9 10  2  0  0  0  0
M  END
>  <CHROM.1>
-11.55680324,-11.50951209,6.97442362,3.12316948,1.30689575,-0.53686658

>  <Name>
ligand

>  <RI>
0

>  <Rbt.Current_Directory>
/home/itssahil/PROJECTS/Mol_Feturizer/New_Systems/rnas/2EES

>  <Rbt.Executable>
rbdock ($Id: //depot/dev/client3/rdock/2013.1/src/exe/rbdock.cxx#4 $)

>  <Rbt.Library>
libRbt.so (2013.1, Build901 2013/11/27)

>  <Rbt.Parameter_File>
/export/apps/rDock/src/rDock_2013.1_src/data/scripts/dock_solv.prm

>  <Rbt.Receptor>
prm/blind_docking_40.prm

>  <SCORE>
-17.01

>  <SCORE.INTER>
-17.01

>  <SCORE.INTER.CONST>
1

>  <SCORE.INTER.POLAR>
0

>  <SCORE.INTER.ROT>
0

>  <SCORE.INTER.SOLV>
3.63175

>  <SCORE.INTER.VDW>
-16.1506

>  <SCORE.INTER.norm>
-1.701

>  <SCORE.INTRA>
0

>  <SCORE.INTRA.DIHEDRAL>
0

>  <SCORE.INTRA.DIHEDRAL.0>
0

>  <SCORE.INTRA.POLAR>
0

>  <SCORE.INTRA.POLAR.0>
0

>  <SCORE.INTRA.REPUL>
0

>  <SCORE.INTRA.REPUL.0>
0

>  <SCORE.INTRA.SOLV>
0

>  <SCORE.INTRA.SOLV.lig_0>
-4.28614

>  <SCORE.INTRA.VDW>
0

>  <SCORE.INTRA.VDW.0>
0

>  <SCORE.INTRA.norm>
0

>  <SCORE.RESTR>
0

>  <SCORE.RESTR.CAVITY>
0

>  <SCORE.RESTR.norm>
0

>  <SCORE.SYSTEM>
0

>  <SCORE.SYSTEM.CONST>
0

>  <SCORE.SYSTEM.DIHEDRAL>
0

>  <SCORE.SYSTEM.SOLV>
0

>  <SCORE.SYSTEM.norm>
0

>  <SCORE.heavy>
10

>  <SCORE.norm>
-1.701

>  <RMSD>
0.673

$$$$
ligand
 OpenBabel11021811423D
libRbt.so/2013.1/901 2013/11/27
 10 11  0  0  0  0  0  0  0  0999 V2000
  -12.0476  -10.9663    8.8111 N   0  0  0  0  0  0  0  0  0  0  0  0
  -11.8995  -12.3441    8.9822 C   0  0  0  0  0  0  0  0  0  0  0  0
  -11.5625  -13.1632    7.9699 N   0  0  0  0  0  0  0  0  0  0  0  0
  -11.3781  -12.4943    6.7631 C   0  0  0  0  0  0  0  0  0  0  0  0
  -11.5100  -11.1296    6.5002 C   0  0  0  0  0  0  0  0  0  0  0  0
  -11.8768  -10.2498    7.5790 C   0  0  0  0  0  0  0  0  0  0  0  0
  -12.0480   -9.0549    7.6035 O   0  0  0  0  0  0  0  0  0  0  0  0
  -11.2188  -10.9000    5.1431 N   0  0  0  0  0  0  0  0  0  0  0  0
  -10.9163  -12.1220    4.6274 C   0  0  0  0  0  0  0  0  0  0  0  0
  -11.0075  -13.1228    5.6048 N   0  0  0  0  0  0  0  0  0  0  0  0
  1  2  1  0  0  0  0
  1  6  1  0  0  0  0
  2  3  2  0  0  0  0
  3  4  1  0  0  0  0
  4  5  2  0  0  0  0
  4 10  1  0  0  0  0
  5  6  1  0  0  0  0
  5  8  1  0  0  0  0
  6  7  2  0  0  0  0
  8  9  1  0  0  0  0
  9 10  2  0  0  0  0
M  END
>  <CHROM.1>
-11.55636925,-11.50842408,6.97329483,3.13247525,1.30609969,-0.54497593

>  <Name>
ligand

>  <RI>
0

>  <Rbt.Current_Directory>
/home/itssahil/PROJECTS/Mol_Feturizer/New_Systems/rnas/2EES

>  <Rbt.Executable>
rbdock ($Id: //depot/dev/client3/rdock/2013.1/src/exe/rbdock.cxx#4 $)

>  <Rbt.Library>
libRbt.so (2013.1, Build901 2013/11/27)

>  <Rbt.Parameter_File>
/export/apps/rDock/src/rDock_2013.1_src/data/scripts/dock_solv.prm

>  <Rbt.Receptor>
prm/blind_docking_60.prm

>  <SCORE>
-17.0106

>  <SCORE.INTER>
-17.0106

>  <SCORE.INTER.CONST>
1

>  <SCORE.INTER.POLAR>
0

>  <SCORE.INTER.ROT>
0

>  <SCORE.INTER.SOLV>
3.62561

>  <SCORE.INTER.VDW>
-16.1489

>  <SCORE.INTER.norm>
-1.70106

>  <SCORE.INTRA>
0

>  <SCORE.INTRA.DIHEDRAL>
0

>  <SCORE.INTRA.DIHEDRAL.0>
0

>  <SCORE.INTRA.POLAR>
0

>  <SCORE.INTRA.POLAR.0>
0

>  <SCORE.INTRA.REPUL>
0

>  <SCORE.INTRA.REPUL.0>
0

>  <SCORE.INTRA.SOLV>
0

>  <SCORE.INTRA.SOLV.lig_0>
-4.28614

>  <SCORE.INTRA.VDW>
0

>  <SCORE.INTRA.VDW.0>
0

>  <SCORE.INTRA.norm>
0

>  <SCORE.RESTR>
0

>  <SCORE.RESTR.CAVITY>
0

>  <SCORE.RESTR.norm>
0

>  <SCORE.SYSTEM>
0

>  <SCORE.SYSTEM.CONST>
0

>  <SCORE.SYSTEM.DIHEDRAL>
0

>  <SCORE.SYSTEM.SOLV>
0

>  <SCORE.SYSTEM.norm>
0

>  <SCORE.heavy>
10

>  <SCORE.norm>
-1.70106

>  <RMSD>
0.673

$$$$
ligand
 OpenBabel11021811423D
libRbt.so/2013.1/901 2013/11/27
 10 11  0  0  0  0  0  0  0  0999 V2000
  -12.0003  -11.2621    8.8358 N   0  0  0  0  0  0  0  0  0  0  0  0
  -11.7602  -12.6358    8.9051 C   0  0  0  0  0  0  0  0  0  0  0  0
  -11.3960  -13.3581    7.8305 N   0  0  0  0  0  0  0  0  0  0  0  0
  -11.2841  -12.5958    6.6711 C   0  0  0  0  0  0  0  0  0  0  0  0
  -11.5095  -11.2276    6.5090 C   0  0  0  0  0  0  0  0  0  0  0  0
  -11.9057  -10.4514    7.6549 C   0  0  0  0  0  0  0  0  0  0  0  0
  -12.1524   -9.2750    7.7680 O   0  0  0  0  0  0  0  0  0  0  0  0
  -11.2665  -10.8850    5.1663 N   0  0  0  0  0  0  0  0  0  0  0  0
  -10.8990  -12.0453    4.5589 C   0  0  0  0  0  0  0  0  0  0  0  0
  -10.9021  -13.1160    5.4639 N   0  0  0  0  0  0  0  0  0  0  0  0
  1  2  1  0  0  0  0
  1  6  1  0  0  0  0
  2  3  2  0  0  0  0
  3  4  1  0  0  0  0
  4  5  2  0  0  0  0
  4 10  1  0  0  0  0
  5  6  1  0  0  0  0
  5  8  1  0  0  0  0
  6  7  2  0  0  0  0
  8  9  1  0  0  0  0
  9 10  2  0  0  0  0
M  END
>  <CHROM.1>
-11.52002931,-11.64081881,6.95467617,-2.90896232,1.28567648,-0.70689820

>  <Name>
ligand

>  <RI>
0

>  <Rbt.Current_Directory>
/home/itssahil/PROJECTS/Mol_Feturizer/New_Systems/rnas/2EES

>  <Rbt.Executable>
rbdock ($Id: //depot/dev/client3/rdock/2013.1/src/exe/rbdock.cxx#4 $)

>  <Rbt.Library>
libRbt.so (2013.1, Build901 2013/11/27)

>  <Rbt.Parameter_File>
/export/apps/rDock/src/rDock_2013.1_src/data/scripts/dock_solv.prm

>  <Rbt.Receptor>
prm/pocket_docking_6.prm

>  <SCORE>
-16.9855

>  <SCORE.INTER>
-16.9855

>  <SCORE.INTER.CONST>
1

>  <SCORE.INTER.POLAR>
0

>  <SCORE.INTER.ROT>
0

>  <SCORE.INTER.SOLV>
3.52753

>  <SCORE.INTER.VDW>
-16.0995

>  <SCORE.INTER.norm>
-1.69855

>  <SCORE.INTRA>
0

>  <SCORE.INTRA.DIHEDRAL>
0

>  <SCORE.INTRA.DIHEDRAL.0>
0

>  <SCORE.INTRA.POLAR>
0

>  <SCORE.INTRA.POLAR.0>
0

>  <SCORE.INTRA.REPUL>
0

>  <SCORE.INTRA.REPUL.0>
0

>  <SCORE.INTRA.SOLV>
0

>  <SCORE.INTRA.SOLV.lig_0>
-4.28614

>  <SCORE.INTRA.VDW>
0

>  <SCORE.INTRA.VDW.0>
0

>  <SCORE.INTRA.norm>
0

>  <SCORE.RESTR>
0

>  <SCORE.RESTR.CAVITY>
0

>  <SCORE.RESTR.norm>
0

>  <SCORE.SYSTEM>
0

>  <SCORE.SYSTEM.CONST>
0

>  <SCORE.SYSTEM.DIHEDRAL>
0

>  <SCORE.SYSTEM.SOLV>
0

>  <SCORE.SYSTEM.norm>
0

>  <SCORE.heavy>
10

>  <SCORE.norm>
-1.69855

>  <RMSD>
0.673

$$$$
ligand
 OpenBabel11021811423D
libRbt.so/2013.1/901 2013/11/27
 10 11  0  0  0  0  0  0  0  0999 V2000
  -12.0563  -10.9757    8.8034 N   0  0  0  0  0  0  0  0  0  0  0  0
  -11.8948  -12.3516    8.9782 C   0  0  0  0  0  0  0  0  0  0  0  0
  -11.5506  -13.1701    7.9679 N   0  0  0  0  0  0  0  0  0  0  0  0
  -11.3735  -12.5029    6.7591 C   0  0  0  0  0  0  0  0  0  0  0  0
  -11.5187  -11.1402    6.4925 C   0  0  0  0  0  0  0  0  0  0  0  0
  -11.8933  -10.2610    7.5692 C   0  0  0  0  0  0  0  0  0  0  0  0
  -12.0760   -9.0678    7.5905 O   0  0  0  0  0  0  0  0  0  0  0  0
  -11.2307  -10.9116    5.1346 N   0  0  0  0  0  0  0  0  0  0  0  0
  -10.9168  -12.1320    4.6221 C   0  0  0  0  0  0  0  0  0  0  0  0
  -10.9977  -13.1310    5.6024 N   0  0  0  0  0  0  0  0  0  0  0  0
  1  2  1  0  0  0  0
  1  6  1  0  0  0  0
  2  3  2  0  0  0  0
  3  4  1  0  0  0  0
  4  5  2  0  0  0  0
  4 10  1  0  0  0  0
  5  6  1  0  0  0  0
  5  8  1  0  0  0  0
  6  7  2  0  0  0  0
  8  9  1  0  0  0  0
  9 10  2  0  0  0  0
M  END
>  <CHROM.1>
-11.56113764,-11.51817724,6.96675036,-3.11832502,1.30155221,-0.57899673

>  <Name>
ligand

>  <RI>
0

>  <Rbt.Current_Directory>
/home/itssahil/PROJECTS/Mol_Feturizer/New_Systems/rnas/2EES

>  <Rbt.Executable>
rbdock ($Id: //depot/dev/client3/rdock/2013.1/src/exe/rbdock.cxx#4 $)

>  <Rbt.Library>
libRbt.so (2013.1, Build901 2013/11/27)

>  <Rbt.Parameter_File>
/export/apps/rDock/src/rDock_2013.1_src/data/scripts/dock_solv.prm

>  <Rbt.Receptor>
prm/pocket_docking_7.prm

>  <SCORE>
-17.0478

>  <SCORE.INTER>
-17.0478

>  <SCORE.INTER.CONST>
1

>  <SCORE.INTER.POLAR>
0

>  <SCORE.INTER.ROT>
0

>  <SCORE.INTER.SOLV>
3.59257

>  <SCORE.INTER.VDW>
-16.1627

>  <SCORE.INTER.norm>
-1.70478

>  <SCORE.INTRA>
0

>  <SCORE.INTRA.DIHEDRAL>
0

>  <SCORE.INTRA.DIHEDRAL.0>
0

>  <SCORE.INTRA.POLAR>
0

>  <SCORE.INTRA.POLAR.0>
0

>  <SCORE.INTRA.REPUL>
0

>  <SCORE.INTRA.REPUL.0>
0

>  <SCORE.INTRA.SOLV>
0

>  <SCORE.INTRA.SOLV.lig_0>
-4.28614

>  <SCORE.INTRA.VDW>
0

>  <SCORE.INTRA.VDW.0>
0

>  <SCORE.INTRA.norm>
0

>  <SCORE.RESTR>
0

>  <SCORE.RESTR.CAVITY>
0

>  <SCORE.RESTR.norm>
0

>  <SCORE.SYSTEM>
0

>  <SCORE.SYSTEM.CONST>
0

>  <SCORE.SYSTEM.DIHEDRAL>
0

>  <SCORE.SYSTEM.SOLV>
0

>  <SCORE.SYSTEM.norm>
0

>  <SCORE.heavy>
10

>  <SCORE.norm>
-1.70478

>  <RMSD>
0.673

$$$$
ligand
 OpenBabel11021811423D
libRbt.so/2013.1/901 2013/11/27
 10 11  0  0  0  0  0  0  0  0999 V2000
  -12.0399  -11.0293    8.8086 N   0  0  0  0  0  0  0  0  0  0  0  0
  -11.8577  -12.4059    8.9549 C   0  0  0  0  0  0  0  0  0  0  0  0
  -11.5041  -13.1984    7.9273 N   0  0  0  0  0  0  0  0  0  0  0  0
  -11.3400  -12.5042    6.7320 C   0  0  0  0  0  0  0  0  0  0  0  0
  -11.5061  -11.1386    6.4937 C   0  0  0  0  0  0  0  0  0  0  0  0
  -11.8907  -10.2872    7.5889 C   0  0  0  0  0  0  0  0  0  0  0  0
  -12.0910   -9.0975    7.6350 O   0  0  0  0  0  0  0  0  0  0  0  0
  -11.2251  -10.8782    5.1400 N   0  0  0  0  0  0  0  0  0  0  0  0
  -10.8945  -12.0831    4.6020 C   0  0  0  0  0  0  0  0  0  0  0  0
  -10.9580  -13.1029    5.5618 N   0  0  0  0  0  0  0  0  0  0  0  0
  1  2  1  0  0  0  0
  1  6  1  0  0  0  0
  2  3  2  0  0  0  0
  3  4  1  0  0  0  0
  4  5  2  0  0  0  0
  4 10  1  0  0  0  0
  5  6  1  0  0  0  0
  5  8  1  0  0  0  0
  6  7  2  0  0  0  0
  8  9  1  0  0  0  0
  9 10  2  0  0  0  0
M  END
>  <CHROM.1>
-11.54164953,-11.52676701,6.96014627,-3.06755146,1.29533541,-0.60748594

>  <Name>
ligand

>  <RI>
0

>  <Rbt.Current_Directory>
/home/itssahil/PROJECTS/Mol_Feturizer/New_Systems/rnas/2EES

>  <Rbt.Executable>
rbdock ($Id: //depot/dev/client3/rdock/2013.1/src/exe/rbdock.cxx#4 $)

>  <Rbt.Library>
libRbt.so (2013.1, Build901 2013/11/27)

>  <Rbt.Parameter_File>
/export/apps/rDock/src/rDock_2013.1_src/data/scripts/dock_solv.prm

>  <Rbt.Receptor>
prm/pocket_docking_4.prm

>  <SCORE>
-16.9992

>  <SCORE.INTER>
-16.9992

>  <SCORE.INTER.CONST>
1

>  <SCORE.INTER.POLAR>
0

>  <SCORE.INTER.ROT>
0

>  <SCORE.INTER.SOLV>
3.56143

>  <SCORE.INTER.VDW>
-16.1199

>  <SCORE.INTER.norm>
-1.69992

>  <SCORE.INTRA>
0

>  <SCORE.INTRA.DIHEDRAL>
0

>  <SCORE.INTRA.DIHEDRAL.0>
0

>  <SCORE.INTRA.POLAR>
0

>  <SCORE.INTRA.POLAR.0>
0

>  <SCORE.INTRA.REPUL>
0

>  <SCORE.INTRA.REPUL.0>
0

>  <SCORE.INTRA.SOLV>
0

>  <SCORE.INTRA.SOLV.lig_0>
-4.28614

>  <SCORE.INTRA.VDW>
0

>  <SCORE.INTRA.VDW.0>
0

>  <SCORE.INTRA.norm>
0

>  <SCORE.RESTR>
0

>  <SCORE.RESTR.CAVITY>
0

>  <SCORE.RESTR.norm>
0

>  <SCORE.SYSTEM>
0

>  <SCORE.SYSTEM.CONST>
0

>  <SCORE.SYSTEM.DIHEDRAL>
0

>  <SCORE.SYSTEM.SOLV>
0

>  <SCORE.SYSTEM.norm>
0

>  <SCORE.heavy>
10

>  <SCORE.norm>
-1.69992

>  <RMSD>
0.674

$$$$
ligand
 OpenBabel11021811423D
libRbt.so/2013.1/901 2013/11/27
 10 11  0  0  0  0  0  0  0  0999 V2000
  -12.0530  -10.9692    8.8040 N   0  0  0  0  0  0  0  0  0  0  0  0
  -11.9048  -12.3464    8.9800 C   0  0  0  0  0  0  0  0  0  0  0  0
  -11.5660  -13.1688    7.9710 N   0  0  0  0  0  0  0  0  0  0  0  0
  -11.3799  -12.5040    6.7622 C   0  0  0  0  0  0  0  0  0  0  0  0
  -11.5118  -11.1402    6.4945 C   0  0  0  0  0  0  0  0  0  0  0  0
  -11.8805  -10.2568    7.5698 C   0  0  0  0  0  0  0  0  0  0  0  0
  -12.0521   -9.0619    7.5900 O   0  0  0  0  0  0  0  0  0  0  0  0
  -11.2186  -10.9151    5.1371 N   0  0  0  0  0  0  0  0  0  0  0  0
  -10.9150  -12.1387    4.6260 C   0  0  0  0  0  0  0  0  0  0  0  0
  -11.0074  -13.1363    5.6067 N   0  0  0  0  0  0  0  0  0  0  0  0
  1  2  1  0  0  0  0
  1  6  1  0  0  0  0
  2  3  2  0  0  0  0
  3  4  1  0  0  0  0
  4  5  2  0  0  0  0
  4 10  1  0  0  0  0
  5  6  1  0  0  0  0
  5  8  1  0  0  0  0
  6  7  2  0  0  0  0
  8  9  1  0  0  0  0
  9 10  2  0  0  0  0
M  END
>  <CHROM.1>
-11.55880757,-11.51742396,6.96884888,3.13043881,1.30463618,-0.54640658

>  <Name>
ligand

>  <RI>
0

>  <Rbt.Current_Directory>
/home/itssahil/PROJECTS/Mol_Feturizer/New_Systems/rnas/2EES

>  <Rbt.Executable>
rbdock ($Id: //depot/dev/client3/rdock/2013.1/src/exe/rbdock.cxx#4 $)

>  <Rbt.Library>
libRbt.so (2013.1, Build901 2013/11/27)

>  <Rbt.Parameter_File>
/export/apps/rDock/src/rDock_2013.1_src/data/scripts/dock_solv.prm

>  <Rbt.Receptor>
prm/blind_docking_40.prm

>  <SCORE>
-17.046

>  <SCORE.INTER>
-17.046

>  <SCORE.INTER.CONST>
1

>  <SCORE.INTER.POLAR>
0

>  <SCORE.INTER.ROT>
0

>  <SCORE.INTER.SOLV>
3.62007

>  <SCORE.INTER.VDW>
-16.1707

>  <SCORE.INTER.norm>
-1.7046

>  <SCORE.INTRA>
0

>  <SCORE.INTRA.DIHEDRAL>
0

>  <SCORE.INTRA.DIHEDRAL.0>
0

>  <SCORE.INTRA.POLAR>
0

>  <SCORE.INTRA.POLAR.0>
0

>  <SCORE.INTRA.REPUL>
0

>  <SCORE.INTRA.REPUL.0>
0

>  <SCORE.INTRA.SOLV>
0

>  <SCORE.INTRA.SOLV.lig_0>
-4.28614

>  <SCORE.INTRA.VDW>
0

>  <SCORE.INTRA.VDW.0>
0

>  <SCORE.INTRA.norm>
0

>  <SCORE.RESTR>
0

>  <SCORE.RESTR.CAVITY>
0

>  <SCORE.RESTR.norm>
0

>  <SCORE.SYSTEM>
0

>  <SCORE.SYSTEM.CONST>
0

>  <SCORE.SYSTEM.DIHEDRAL>
0

>  <SCORE.SYSTEM.SOLV>
0

>  <SCORE.SYSTEM.norm>
0

>  <SCORE.heavy>
10

>  <SCORE.norm>
-1.7046

>  <RMSD>
0.675

$$$$
ligand
 OpenBabel11021811423D
libRbt.so/2013.1/901 2013/11/27
 10 11  0  0  0  0  0  0  0  0999 V2000
  -11.9866  -11.2731    8.8379 N   0  0  0  0  0  0  0  0  0  0  0  0
  -11.7529  -12.6481    8.9045 C   0  0  0  0  0  0  0  0  0  0  0  0
  -11.3921  -13.3700    7.8285 N   0  0  0  0  0  0  0  0  0  0  0  0
  -11.2765  -12.6059    6.6706 C   0  0  0  0  0  0  0  0  0  0  0  0
  -11.4955  -11.2363    6.5112 C   0  0  0  0  0  0  0  0  0  0  0  0
  -11.8880  -10.4606    7.6587 C   0  0  0  0  0  0  0  0  0  0  0  0
  -12.1293   -9.2832    7.7741 O   0  0  0  0  0  0  0  0  0  0  0  0
  -11.2509  -10.8922    5.1693 N   0  0  0  0  0  0  0  0  0  0  0  0
  -10.8887  -12.0531    4.5595 C   0  0  0  0  0  0  0  0  0  0  0  0
  -10.8970  -13.1255    5.4624 N   0  0  0  0  0  0  0  0  0  0  0  0
  1  2  1  0  0  0  0
  1  6  1  0  0  0  0
  2  3  2  0  0  0  0
  3  4  1  0  0  0  0
  4  5  2  0  0  0  0
  4 10  1  0  0  0  0
  5  6  1  0  0  0  0
  5  8  1  0  0  0  0
  6  7  2  0  0  0  0
  8  9  1  0  0  0  0
  9 10  2  0  0  0  0
M  END
>  <CHROM.1>
-11.50798475,-11.65038692,6.95609363,-2.92189668,1.28868309,-0.69249438

>  <Name>
ligand

>  <RI>
0

>  <Rbt.Current_Directory>
/home/itssahil/PROJECTS/Mol_Feturizer/New_Systems/rnas/2EES

>  <Rbt.Executable>
rbdock ($Id: //depot/dev/client3/rdock/2013.1/src/exe/rbdock.cxx#4 $)

>  <Rbt.Library>
libRbt.so (2013.1, Build901 2013/11/27)

>  <Rbt.Parameter_File>
/export/apps/rDock/src/rDock_2013.1_src/data/scripts/dock_solv.prm

>  <Rbt.Receptor>
prm/blind_docking_60.prm

>  <SCORE>
-16.9855

>  <SCORE.INTER>
-16.9855

>  <SCORE.INTER.CONST>
1

>  <SCORE.INTER.POLAR>
0

>  <SCORE.INTER.ROT>
0

>  <SCORE.INTER.SOLV>
3.5503

>  <SCORE.INTER.VDW>
-16.1071

>  <SCORE.INTER.norm>
-1.69855

>  <SCORE.INTRA>
0

>  <SCORE.INTRA.DIHEDRAL>
0

>  <SCORE.INTRA.DIHEDRAL.0>
0

>  <SCORE.INTRA.POLAR>
0

>  <SCORE.INTRA.POLAR.0>
0

>  <SCORE.INTRA.REPUL>
0

>  <SCORE.INTRA.REPUL.0>
0

>  <SCORE.INTRA.SOLV>
0

>  <SCORE.INTRA.SOLV.lig_0>
-4.28614

>  <SCORE.INTRA.VDW>
0

>  <SCORE.INTRA.VDW.0>
0

>  <SCORE.INTRA.norm>
0

>  <SCORE.RESTR>
0

>  <SCORE.RESTR.CAVITY>
0

>  <SCORE.RESTR.norm>
0

>  <SCORE.SYSTEM>
0

>  <SCORE.SYSTEM.CONST>
0

>  <SCORE.SYSTEM.DIHEDRAL>
0

>  <SCORE.SYSTEM.SOLV>
0

>  <SCORE.SYSTEM.norm>
0

>  <SCORE.heavy>
10

>  <SCORE.norm>
-1.69855

>  <RMSD>
0.675

$$$$
ligand
 OpenBabel11021811423D
libRbt.so/2013.1/901 2013/11/27
 10 11  0  0  0  0  0  0  0  0999 V2000
  -12.0487  -11.0049    8.8030 N   0  0  0  0  0  0  0  0  0  0  0  0
  -11.8611  -12.3796    8.9601 C   0  0  0  0  0  0  0  0  0  0  0  0
  -11.5022  -13.1785    7.9394 N   0  0  0  0  0  0  0  0  0  0  0  0
  -11.3384  -12.4927    6.7391 C   0  0  0  0  0  0  0  0  0  0  0  0
  -11.5095  -11.1297    6.4900 C   0  0  0  0  0  0  0  0  0  0  0  0
  -11.9000  -10.2716    7.5779 C   0  0  0  0  0  0  0  0  0  0  0  0
  -12.1052   -9.0824    7.6145 O   0  0  0  0  0  0  0  0  0  0  0  0
  -11.2267  -10.8784    5.1350 N   0  0  0  0  0  0  0  0  0  0  0  0
  -10.8901  -12.0860    4.6069 C   0  0  0  0  0  0  0  0  0  0  0  0
  -10.9514  -13.0988    5.5743 N   0  0  0  0  0  0  0  0  0  0  0  0
  1  2  1  0  0  0  0
  1  6  1  0  0  0  0
  2  3  2  0  0  0  0
  3  4  1  0  0  0  0
  4  5  2  0  0  0  0
  4 10  1  0  0  0  0
  5  6  1  0  0  0  0
  5  8  1  0  0  0  0
  6  7  2  0  0  0  0
  8  9  1  0  0  0  0
  9 10  2  0  0  0  0
M  END
>  <CHROM.1>
-11.54448113,-11.51444733,6.95937877,-3.05973566,1.29124131,-0.62262350

>  <Name>
ligand

>  <RI>
0

>  <Rbt.Current_Directory>
/home/itssahil/PROJECTS/Mol_Feturizer/New_Systems/rnas/2EES

>  <Rbt.Executable>
rbdock ($Id: //depot/dev/client3/rdock/2013.1/src/exe/rbdock.cxx#4 $)

>  <Rbt.Library>
libRbt.so (2013.1, Build901 2013/11/27)

>  <Rbt.Parameter_File>
/export/apps/rDock/src/rDock_2013.1_src/data/scripts/dock_solv.prm

>  <Rbt.Receptor>
prm/blind_docking_60.prm

>  <SCORE>
-16.9928

>  <SCORE.INTER>
-16.9928

>  <SCORE.INTER.CONST>
1

>  <SCORE.INTER.POLAR>
0

>  <SCORE.INTER.ROT>
0

>  <SCORE.INTER.SOLV>
3.54489

>  <SCORE.INTER.VDW>
-16.1101

>  <SCORE.INTER.norm>
-1.69928

>  <SCORE.INTRA>
0

>  <SCORE.INTRA.DIHEDRAL>
0

>  <SCORE.INTRA.DIHEDRAL.0>
0

>  <SCORE.INTRA.POLAR>
0

>  <SCORE.INTRA.POLAR.0>
0

>  <SCORE.INTRA.REPUL>
0

>  <SCORE.INTRA.REPUL.0>
0

>  <SCORE.INTRA.SOLV>
0

>  <SCORE.INTRA.SOLV.lig_0>
-4.28614

>  <SCORE.INTRA.VDW>
0

>  <SCORE.INTRA.VDW.0>
0

>  <SCORE.INTRA.norm>
0

>  <SCORE.RESTR>
0

>  <SCORE.RESTR.CAVITY>
0

>  <SCORE.RESTR.norm>
0

>  <SCORE.SYSTEM>
0

>  <SCORE.SYSTEM.CONST>
0

>  <SCORE.SYSTEM.DIHEDRAL>
0

>  <SCORE.SYSTEM.SOLV>
0

>  <SCORE.SYSTEM.norm>
0

>  <SCORE.heavy>
10

>  <SCORE.norm>
-1.69928

>  <RMSD>
0.675

$$$$
ligand
 OpenBabel11021811423D
libRbt.so/2013.1/901 2013/11/27
 10 11  0  0  0  0  0  0  0  0999 V2000
  -12.0548  -10.9728    8.8023 N   0  0  0  0  0  0  0  0  0  0  0  0
  -11.8769  -12.3475    8.9700 C   0  0  0  0  0  0  0  0  0  0  0  0
  -11.5200  -13.1562    7.9562 N   0  0  0  0  0  0  0  0  0  0  0  0
  -11.3478  -12.4801    6.7516 C   0  0  0  0  0  0  0  0  0  0  0  0
  -11.5090  -11.1179    6.4921 C   0  0  0  0  0  0  0  0  0  0  0  0
  -11.8972  -10.2493    7.5725 C   0  0  0  0  0  0  0  0  0  0  0  0
  -12.0946   -9.0585    7.5999 O   0  0  0  0  0  0  0  0  0  0  0  0
  -11.2202  -10.8782    5.1363 N   0  0  0  0  0  0  0  0  0  0  0  0
  -10.8900  -12.0918    4.6179 C   0  0  0  0  0  0  0  0  0  0  0  0
  -10.9612  -13.0971    5.5924 N   0  0  0  0  0  0  0  0  0  0  0  0
  1  2  1  0  0  0  0
  1  6  1  0  0  0  0
  2  3  2  0  0  0  0
  3  4  1  0  0  0  0
  4  5  2  0  0  0  0
  4 10  1  0  0  0  0
  5  6  1  0  0  0  0
  5  8  1  0  0  0  0
  6  7  2  0  0  0  0
  8  9  1  0  0  0  0
  9 10  2  0  0  0  0
M  END
>  <CHROM.1>
-11.54808220,-11.49894013,6.96409149,-3.08635085,1.29245295,-0.60424446

>  <Name>
ligand

>  <RI>
0

>  <Rbt.Current_Directory>
/home/itssahil/PROJECTS/Mol_Feturizer/New_Systems/rnas/2EES

>  <Rbt.Executable>
rbdock ($Id: //depot/dev/client3/rdock/2013.1/src/exe/rbdock.cxx#4 $)

>  <Rbt.Library>
libRbt.so (2013.1, Build901 2013/11/27)

>  <Rbt.Parameter_File>
/export/apps/rDock/src/rDock_2013.1_src/data/scripts/dock_solv.prm

>  <Rbt.Receptor>
prm/pocket_docking_7.prm

>  <SCORE>
-16.9903

>  <SCORE.INTER>
-16.9903

>  <SCORE.INTER.CONST>
1

>  <SCORE.INTER.POLAR>
0

>  <SCORE.INTER.ROT>
0

>  <SCORE.INTER.SOLV>
3.56125

>  <SCORE.INTER.VDW>
-16.114

>  <SCORE.INTER.norm>
-1.69903

>  <SCORE.INTRA>
0

>  <SCORE.INTRA.DIHEDRAL>
0

>  <SCORE.INTRA.DIHEDRAL.0>
0

>  <SCORE.INTRA.POLAR>
0

>  <SCORE.INTRA.POLAR.0>
0

>  <SCORE.INTRA.REPUL>
0

>  <SCORE.INTRA.REPUL.0>
0

>  <SCORE.INTRA.SOLV>
0

>  <SCORE.INTRA.SOLV.lig_0>
-4.28614

>  <SCORE.INTRA.VDW>
0

>  <SCORE.INTRA.VDW.0>
0

>  <SCORE.INTRA.norm>
0

>  <SCORE.RESTR>
0

>  <SCORE.RESTR.CAVITY>
0

>  <SCORE.RESTR.norm>
0

>  <SCORE.SYSTEM>
0

>  <SCORE.SYSTEM.CONST>
0

>  <SCORE.SYSTEM.DIHEDRAL>
0

>  <SCORE.SYSTEM.SOLV>
0

>  <SCORE.SYSTEM.norm>
0

>  <SCORE.heavy>
10

>  <SCORE.norm>
-1.69903

>  <RMSD>
0.675

$$$$
ligand
 OpenBabel11021811423D
libRbt.so/2013.1/901 2013/11/27
 10 11  0  0  0  0  0  0  0  0999 V2000
  -12.0448  -10.9576    8.8096 N   0  0  0  0  0  0  0  0  0  0  0  0
  -11.9059  -12.3358    8.9856 C   0  0  0  0  0  0  0  0  0  0  0  0
  -11.5751  -13.1607    7.9761 N   0  0  0  0  0  0  0  0  0  0  0  0
  -11.3870  -12.4976    6.7667 C   0  0  0  0  0  0  0  0  0  0  0  0
  -11.5099  -11.1330    6.4989 C   0  0  0  0  0  0  0  0  0  0  0  0
  -11.8701  -10.2467    7.5748 C   0  0  0  0  0  0  0  0  0  0  0  0
  -12.0332   -9.0507    7.5950 O   0  0  0  0  0  0  0  0  0  0  0  0
  -11.2181  -10.9103    5.1408 N   0  0  0  0  0  0  0  0  0  0  0  0
  -10.9242  -12.1361    4.6294 C   0  0  0  0  0  0  0  0  0  0  0  0
  -11.0214  -13.1328    5.6106 N   0  0  0  0  0  0  0  0  0  0  0  0
  1  2  1  0  0  0  0
  1  6  1  0  0  0  0
  2  3  2  0  0  0  0
  3  4  1  0  0  0  0
  4  5  2  0  0  0  0
  4 10  1  0  0  0  0
  5  6  1  0  0  0  0
  5  8  1  0  0  0  0
  6  7  2  0  0  0  0
  8  9  1  0  0  0  0
  9 10  2  0  0  0  0
M  END
>  <CHROM.1>
-11.55851854,-11.50973118,6.97345995,3.11160503,1.31010006,-0.52849103

>  <Name>
ligand

>  <RI>
0

>  <Rbt.Current_Directory>
/home/itssahil/PROJECTS/Mol_Feturizer/New_Systems/rnas/2EES

>  <Rbt.Executable>
rbdock ($Id: //depot/dev/client3/rdock/2013.1/src/exe/rbdock.cxx#4 $)

>  <Rbt.Library>
libRbt.so (2013.1, Build901 2013/11/27)

>  <Rbt.Parameter_File>
/export/apps/rDock/src/rDock_2013.1_src/data/scripts/dock_solv.prm

>  <Rbt.Receptor>
prm/blind_docking_60.prm

>  <SCORE>
-17.008

>  <SCORE.INTER>
-17.008

>  <SCORE.INTER.CONST>
1

>  <SCORE.INTER.POLAR>
0

>  <SCORE.INTER.ROT>
0

>  <SCORE.INTER.SOLV>
3.64668

>  <SCORE.INTER.VDW>
-16.1542

>  <SCORE.INTER.norm>
-1.7008

>  <SCORE.INTRA>
0

>  <SCORE.INTRA.DIHEDRAL>
0

>  <SCORE.INTRA.DIHEDRAL.0>
0

>  <SCORE.INTRA.POLAR>
0

>  <SCORE.INTRA.POLAR.0>
0

>  <SCORE.INTRA.REPUL>
0

>  <SCORE.INTRA.REPUL.0>
0

>  <SCORE.INTRA.SOLV>
0

>  <SCORE.INTRA.SOLV.lig_0>
-4.28614

>  <SCORE.INTRA.VDW>
0

>  <SCORE.INTRA.VDW.0>
0

>  <SCORE.INTRA.norm>
0

>  <SCORE.RESTR>
0

>  <SCORE.RESTR.CAVITY>
0

>  <SCORE.RESTR.norm>
0

>  <SCORE.SYSTEM>
0

>  <SCORE.SYSTEM.CONST>
0

>  <SCORE.SYSTEM.DIHEDRAL>
0

>  <SCORE.SYSTEM.SOLV>
0

>  <SCORE.SYSTEM.norm>
0

>  <SCORE.heavy>
10

>  <SCORE.norm>
-1.7008

>  <RMSD>
0.676

$$$$
ligand
 OpenBabel11021811423D
libRbt.so/2013.1/901 2013/11/27
 10 11  0  0  0  0  0  0  0  0999 V2000
  -11.9926  -11.2647    8.8332 N   0  0  0  0  0  0  0  0  0  0  0  0
  -11.7584  -12.6394    8.9029 C   0  0  0  0  0  0  0  0  0  0  0  0
  -11.3960  -13.3633    7.8288 N   0  0  0  0  0  0  0  0  0  0  0  0
  -11.2793  -12.6015    6.6695 C   0  0  0  0  0  0  0  0  0  0  0  0
  -11.4987  -11.2324    6.5071 C   0  0  0  0  0  0  0  0  0  0  0  0
  -11.8930  -10.4545    7.6525 C   0  0  0  0  0  0  0  0  0  0  0  0
  -12.1349   -9.2770    7.7652 O   0  0  0  0  0  0  0  0  0  0  0  0
  -11.2526  -10.8908    5.1647 N   0  0  0  0  0  0  0  0  0  0  0  0
  -10.8892  -12.0528    4.5578 C   0  0  0  0  0  0  0  0  0  0  0  0
  -10.8980  -13.1233    5.4628 N   0  0  0  0  0  0  0  0  0  0  0  0
  1  2  1  0  0  0  0
  1  6  1  0  0  0  0
  2  3  2  0  0  0  0
  3  4  1  0  0  0  0
  4  5  2  0  0  0  0
  4 10  1  0  0  0  0
  5  6  1  0  0  0  0
  5  8  1  0  0  0  0
  6  7  2  0  0  0  0
  8  9  1  0  0  0  0
  9 10  2  0  0  0  0
M  END
>  <CHROM.1>
-11.51154238,-11.64555136,6.95277518,-2.92352462,1.28745583,-0.69294147

>  <Name>
ligand

>  <RI>
0

>  <Rbt.Current_Directory>
/home/itssahil/PROJECTS/Mol_Feturizer/New_Systems/rnas/2EES

>  <Rbt.Executable>
rbdock ($Id: //depot/dev/client3/rdock/2013.1/src/exe/rbdock.cxx#4 $)

>  <Rbt.Library>
libRbt.so (2013.1, Build901 2013/11/27)

>  <Rbt.Parameter_File>
/export/apps/rDock/src/rDock_2013.1_src/data/scripts/dock_solv.prm

>  <Rbt.Receptor>
prm/pocket_docking_4.prm

>  <SCORE>
-16.9855

>  <SCORE.INTER>
-16.9855

>  <SCORE.INTER.CONST>
1

>  <SCORE.INTER.POLAR>
0

>  <SCORE.INTER.ROT>
0

>  <SCORE.INTER.SOLV>
3.54227

>  <SCORE.INTER.VDW>
-16.1044

>  <SCORE.INTER.norm>
-1.69855

>  <SCORE.INTRA>
0

>  <SCORE.INTRA.DIHEDRAL>
0

>  <SCORE.INTRA.DIHEDRAL.0>
0

>  <SCORE.INTRA.POLAR>
0

>  <SCORE.INTRA.POLAR.0>
0

>  <SCORE.INTRA.REPUL>
0

>  <SCORE.INTRA.REPUL.0>
0

>  <SCORE.INTRA.SOLV>
0

>  <SCORE.INTRA.SOLV.lig_0>
-4.28614

>  <SCORE.INTRA.VDW>
0

>  <SCORE.INTRA.VDW.0>
0

>  <SCORE.INTRA.norm>
0

>  <SCORE.RESTR>
0

>  <SCORE.RESTR.CAVITY>
0

>  <SCORE.RESTR.norm>
0

>  <SCORE.SYSTEM>
0

>  <SCORE.SYSTEM.CONST>
0

>  <SCORE.SYSTEM.DIHEDRAL>
0

>  <SCORE.SYSTEM.SOLV>
0

>  <SCORE.SYSTEM.norm>
0

>  <SCORE.heavy>
10

>  <SCORE.norm>
-1.69855

>  <RMSD>
0.677

$$$$
ligand
 OpenBabel11021811423D
libRbt.so/2013.1/901 2013/11/27
 10 11  0  0  0  0  0  0  0  0999 V2000
  -12.0296  -11.2732    8.8275 N   0  0  0  0  0  0  0  0  0  0  0  0
  -11.7814  -12.6459    8.8865 C   0  0  0  0  0  0  0  0  0  0  0  0
  -11.4005  -13.3556    7.8093 N   0  0  0  0  0  0  0  0  0  0  0  0
  -11.2805  -12.5815    6.6586 C   0  0  0  0  0  0  0  0  0  0  0  0
  -11.5129  -11.2133    6.5068 C   0  0  0  0  0  0  0  0  0  0  0  0
  -11.9270  -10.4507    7.6555 C   0  0  0  0  0  0  0  0  0  0  0  0
  -12.1827   -9.2770    7.7770 O   0  0  0  0  0  0  0  0  0  0  0  0
  -11.2571  -10.8564    5.1703 N   0  0  0  0  0  0  0  0  0  0  0  0
  -10.8752  -12.0085    4.5561 C   0  0  0  0  0  0  0  0  0  0  0  0
  -10.8816  -13.0877    5.4509 N   0  0  0  0  0  0  0  0  0  0  0  0
  1  2  1  0  0  0  0
  1  6  1  0  0  0  0
  2  3  2  0  0  0  0
  3  4  1  0  0  0  0
  4  5  2  0  0  0  0
  4 10  1  0  0  0  0
  5  6  1  0  0  0  0
  5  8  1  0  0  0  0
  6  7  2  0  0  0  0
  8  9  1  0  0  0  0
  9 10  2  0  0  0  0
M  END
>  <CHROM.1>
-11.52578832,-11.63087331,6.94845695,-2.91697921,1.27290351,-0.68970820

>  <Name>
ligand

>  <RI>
0

>  <Rbt.Current_Directory>
/home/itssahil/PROJECTS/Mol_Feturizer/New_Systems/rnas/2EES

>  <Rbt.Executable>
rbdock ($Id: //depot/dev/client3/rdock/2013.1/src/exe/rbdock.cxx#4 $)

>  <Rbt.Library>
libRbt.so (2013.1, Build901 2013/11/27)

>  <Rbt.Parameter_File>
/export/apps/rDock/src/rDock_2013.1_src/data/scripts/dock_solv.prm

>  <Rbt.Receptor>
prm/blind_docking_40.prm

>  <SCORE>
-16.9732

>  <SCORE.INTER>
-16.9732

>  <SCORE.INTER.CONST>
1

>  <SCORE.INTER.POLAR>
0

>  <SCORE.INTER.ROT>
0

>  <SCORE.INTER.SOLV>
3.49487

>  <SCORE.INTER.VDW>
-16.0804

>  <SCORE.INTER.norm>
-1.69732

>  <SCORE.INTRA>
0

>  <SCORE.INTRA.DIHEDRAL>
0

>  <SCORE.INTRA.DIHEDRAL.0>
0

>  <SCORE.INTRA.POLAR>
0

>  <SCORE.INTRA.POLAR.0>
0

>  <SCORE.INTRA.REPUL>
0

>  <SCORE.INTRA.REPUL.0>
0

>  <SCORE.INTRA.SOLV>
0

>  <SCORE.INTRA.SOLV.lig_0>
-4.28614

>  <SCORE.INTRA.VDW>
0

>  <SCORE.INTRA.VDW.0>
0

>  <SCORE.INTRA.norm>
0

>  <SCORE.RESTR>
0

>  <SCORE.RESTR.CAVITY>
0

>  <SCORE.RESTR.norm>
0

>  <SCORE.SYSTEM>
0

>  <SCORE.SYSTEM.CONST>
0

>  <SCORE.SYSTEM.DIHEDRAL>
0

>  <SCORE.SYSTEM.SOLV>
0

>  <SCORE.SYSTEM.norm>
0

>  <SCORE.heavy>
10

>  <SCORE.norm>
-1.69732

>  <RMSD>
0.678

$$$$
ligand
 OpenBabel11021811423D
libRbt.so/2013.1/901 2013/11/27
 10 11  0  0  0  0  0  0  0  0999 V2000
  -12.0341  -11.0202    8.8063 N   0  0  0  0  0  0  0  0  0  0  0  0
  -11.8574  -12.3973    8.9549 C   0  0  0  0  0  0  0  0  0  0  0  0
  -11.5062  -13.1929    7.9289 N   0  0  0  0  0  0  0  0  0  0  0  0
  -11.3384  -12.5012    6.7326 C   0  0  0  0  0  0  0  0  0  0  0  0
  -11.4989  -11.1355    6.4919 C   0  0  0  0  0  0  0  0  0  0  0  0
  -11.8810  -10.2807    7.5855 C   0  0  0  0  0  0  0  0  0  0  0  0
  -12.0766   -9.0902    7.6295 O   0  0  0  0  0  0  0  0  0  0  0  0
  -11.2158  -10.8783    5.1381 N   0  0  0  0  0  0  0  0  0  0  0  0
  -10.8896  -12.0853    4.6022 C   0  0  0  0  0  0  0  0  0  0  0  0
  -10.9578  -13.1034    5.5637 N   0  0  0  0  0  0  0  0  0  0  0  0
  1  2  1  0  0  0  0
  1  6  1  0  0  0  0
  2  3  2  0  0  0  0
  3  4  1  0  0  0  0
  4  5  2  0  0  0  0
  4 10  1  0  0  0  0
  5  6  1  0  0  0  0
  5  8  1  0  0  0  0
  6  7  2  0  0  0  0
  8  9  1  0  0  0  0
  9 10  2  0  0  0  0
M  END
>  <CHROM.1>
-11.53637194,-11.52267529,6.95900152,-3.08119750,1.29690760,-0.59596778

>  <Name>
ligand

>  <RI>
0

>  <Rbt.Current_Directory>
/home/itssahil/PROJECTS/Mol_Feturizer/New_Systems/rnas/2EES

>  <Rbt.Executable>
rbdock ($Id: //depot/dev/client3/rdock/2013.1/src/exe/rbdock.cxx#4 $)

>  <Rbt.Library>
libRbt.so (2013.1, Build901 2013/11/27)

>  <Rbt.Parameter_File>
/export/apps/rDock/src/rDock_2013.1_src/data/scripts/dock_solv.prm

>  <Rbt.Receptor>
prm/blind_docking_80.prm

>  <SCORE>
-16.9991

>  <SCORE.INTER>
-16.9991

>  <SCORE.INTER.CONST>
1

>  <SCORE.INTER.POLAR>
0

>  <SCORE.INTER.ROT>
0

>  <SCORE.INTER.SOLV>
3.57825

>  <SCORE.INTER.VDW>
-16.1255

>  <SCORE.INTER.norm>
-1.69991

>  <SCORE.INTRA>
0

>  <SCORE.INTRA.DIHEDRAL>
0

>  <SCORE.INTRA.DIHEDRAL.0>
0

>  <SCORE.INTRA.POLAR>
0

>  <SCORE.INTRA.POLAR.0>
0

>  <SCORE.INTRA.REPUL>
0

>  <SCORE.INTRA.REPUL.0>
0

>  <SCORE.INTRA.SOLV>
0

>  <SCORE.INTRA.SOLV.lig_0>
-4.28614

>  <SCORE.INTRA.VDW>
0

>  <SCORE.INTRA.VDW.0>
0

>  <SCORE.INTRA.norm>
0

>  <SCORE.RESTR>
0

>  <SCORE.RESTR.CAVITY>
0

>  <SCORE.RESTR.norm>
0

>  <SCORE.SYSTEM>
0

>  <SCORE.SYSTEM.CONST>
0

>  <SCORE.SYSTEM.DIHEDRAL>
0

>  <SCORE.SYSTEM.SOLV>
0

>  <SCORE.SYSTEM.norm>
0

>  <SCORE.heavy>
10

>  <SCORE.norm>
-1.69991

>  <RMSD>
0.678

$$$$
ligand
 OpenBabel11021811423D
libRbt.so/2013.1/901 2013/11/27
 10 11  0  0  0  0  0  0  0  0999 V2000
  -11.9495  -11.2236    8.8346 N   0  0  0  0  0  0  0  0  0  0  0  0
  -11.7085  -12.5963    8.9182 C   0  0  0  0  0  0  0  0  0  0  0  0
  -11.3527  -13.3311    7.8493 N   0  0  0  0  0  0  0  0  0  0  0  0
  -11.2501  -12.5825    6.6802 C   0  0  0  0  0  0  0  0  0  0  0  0
  -11.4771  -11.2163    6.5038 C   0  0  0  0  0  0  0  0  0  0  0  0
  -11.8644  -10.4268    7.6436 C   0  0  0  0  0  0  0  0  0  0  0  0
  -12.1106   -9.2492    7.7448 O   0  0  0  0  0  0  0  0  0  0  0  0
  -11.2449  -10.8895    5.1553 N   0  0  0  0  0  0  0  0  0  0  0  0
  -10.8818  -12.0568    4.5586 C   0  0  0  0  0  0  0  0  0  0  0  0
  -10.8775  -13.1167    5.4762 N   0  0  0  0  0  0  0  0  0  0  0  0
  1  2  1  0  0  0  0
  1  6  1  0  0  0  0
  2  3  2  0  0  0  0
  3  4  1  0  0  0  0
  4  5  2  0  0  0  0
  4 10  1  0  0  0  0
  5  6  1  0  0  0  0
  5  8  1  0  0  0  0
  6  7  2  0  0  0  0
  8  9  1  0  0  0  0
  9 10  2  0  0  0  0
M  END
>  <CHROM.1>
-11.48400900,-11.62428846,6.95438448,-2.88959950,1.29147674,-0.73724219

>  <Name>
ligand

>  <RI>
0

>  <Rbt.Current_Directory>
/home/itssahil/PROJECTS/Mol_Feturizer/New_Systems/rnas/2EES

>  <Rbt.Executable>
rbdock ($Id: //depot/dev/client3/rdock/2013.1/src/exe/rbdock.cxx#4 $)

>  <Rbt.Library>
libRbt.so (2013.1, Build901 2013/11/27)

>  <Rbt.Parameter_File>
/export/apps/rDock/src/rDock_2013.1_src/data/scripts/dock_solv.prm

>  <Rbt.Receptor>
prm/blind_docking_100.prm

>  <SCORE>
-16.9607

>  <SCORE.INTER>
-16.9607

>  <SCORE.INTER.CONST>
1

>  <SCORE.INTER.POLAR>
0

>  <SCORE.INTER.ROT>
0

>  <SCORE.INTER.SOLV>
3.56203

>  <SCORE.INTER.VDW>
-16.0945

>  <SCORE.INTER.norm>
-1.69607

>  <SCORE.INTRA>
0

>  <SCORE.INTRA.DIHEDRAL>
0

>  <SCORE.INTRA.DIHEDRAL.0>
0

>  <SCORE.INTRA.POLAR>
0

>  <SCORE.INTRA.POLAR.0>
0

>  <SCORE.INTRA.REPUL>
0

>  <SCORE.INTRA.REPUL.0>
0

>  <SCORE.INTRA.SOLV>
0

>  <SCORE.INTRA.SOLV.lig_0>
-4.28614

>  <SCORE.INTRA.VDW>
0

>  <SCORE.INTRA.VDW.0>
0

>  <SCORE.INTRA.norm>
0

>  <SCORE.RESTR>
0

>  <SCORE.RESTR.CAVITY>
0

>  <SCORE.RESTR.norm>
0

>  <SCORE.SYSTEM>
0

>  <SCORE.SYSTEM.CONST>
0

>  <SCORE.SYSTEM.DIHEDRAL>
0

>  <SCORE.SYSTEM.SOLV>
0

>  <SCORE.SYSTEM.norm>
0

>  <SCORE.heavy>
10

>  <SCORE.norm>
-1.69607

>  <RMSD>
0.680

$$$$
ligand
 OpenBabel11021811423D
libRbt.so/2013.1/901 2013/11/27
 10 11  0  0  0  0  0  0  0  0999 V2000
  -12.0374  -10.9918    8.8027 N   0  0  0  0  0  0  0  0  0  0  0  0
  -11.8958  -12.3710    8.9684 C   0  0  0  0  0  0  0  0  0  0  0  0
  -11.5609  -13.1874    7.9533 N   0  0  0  0  0  0  0  0  0  0  0  0
  -11.3717  -12.5145    6.7495 C   0  0  0  0  0  0  0  0  0  0  0  0
  -11.4971  -11.1481    6.4920 C   0  0  0  0  0  0  0  0  0  0  0  0
  -11.8615  -10.2711    7.5738 C   0  0  0  0  0  0  0  0  0  0  0  0
  -12.0274   -9.0755    7.6030 O   0  0  0  0  0  0  0  0  0  0  0  0
  -11.2028  -10.9143    5.1363 N   0  0  0  0  0  0  0  0  0  0  0  0
  -10.9051  -12.1355    4.6160 C   0  0  0  0  0  0  0  0  0  0  0  0
  -11.0022  -13.1399    5.5892 N   0  0  0  0  0  0  0  0  0  0  0  0
  1  2  1  0  0  0  0
  1  6  1  0  0  0  0
  2  3  2  0  0  0  0
  3  4  1  0  0  0  0
  4  5  2  0  0  0  0
  4 10  1  0  0  0  0
  5  6  1  0  0  0  0
  5  8  1  0  0  0  0
  6  7  2  0  0  0  0
  8  9  1  0  0  0  0
  9 10  2  0  0  0  0
M  END
>  <CHROM.1>
-11.54584490,-11.52864988,6.96346489,3.11475568,1.30710034,-0.52378367

>  <Name>
ligand

>  <RI>
0

>  <Rbt.Current_Directory>
/home/itssahil/PROJECTS/Mol_Feturizer/New_Systems/rnas/2EES

>  <Rbt.Executable>
rbdock ($Id: //depot/dev/client3/rdock/2013.1/src/exe/rbdock.cxx#4 $)

>  <Rbt.Library>
libRbt.so (2013.1, Build901 2013/11/27)

>  <Rbt.Parameter_File>
/export/apps/rDock/src/rDock_2013.1_src/data/scripts/dock_solv.prm

>  <Rbt.Receptor>
prm/pocket_docking_4.prm

>  <SCORE>
-16.9646

>  <SCORE.INTER>
-16.9646

>  <SCORE.INTER.CONST>
1

>  <SCORE.INTER.POLAR>
0

>  <SCORE.INTER.ROT>
0

>  <SCORE.INTER.SOLV>
3.64431

>  <SCORE.INTER.VDW>
-16.1245

>  <SCORE.INTER.norm>
-1.69646

>  <SCORE.INTRA>
0

>  <SCORE.INTRA.DIHEDRAL>
0

>  <SCORE.INTRA.DIHEDRAL.0>
0

>  <SCORE.INTRA.POLAR>
0

>  <SCORE.INTRA.POLAR.0>
0

>  <SCORE.INTRA.REPUL>
0

>  <SCORE.INTRA.REPUL.0>
0

>  <SCORE.INTRA.SOLV>
0

>  <SCORE.INTRA.SOLV.lig_0>
-4.28614

>  <SCORE.INTRA.VDW>
0

>  <SCORE.INTRA.VDW.0>
0

>  <SCORE.INTRA.norm>
0

>  <SCORE.RESTR>
0

>  <SCORE.RESTR.CAVITY>
0

>  <SCORE.RESTR.norm>
0

>  <SCORE.SYSTEM>
0

>  <SCORE.SYSTEM.CONST>
0

>  <SCORE.SYSTEM.DIHEDRAL>
0

>  <SCORE.SYSTEM.SOLV>
0

>  <SCORE.SYSTEM.norm>
0

>  <SCORE.heavy>
10

>  <SCORE.norm>
-1.69646

>  <RMSD>
0.680

$$$$
ligand
 OpenBabel11021811423D
libRbt.so/2013.1/901 2013/11/27
 10 11  0  0  0  0  0  0  0  0999 V2000
  -12.0335  -11.0195    8.8025 N   0  0  0  0  0  0  0  0  0  0  0  0
  -11.8495  -12.3954    8.9526 C   0  0  0  0  0  0  0  0  0  0  0  0
  -11.4967  -13.1907    7.9268 N   0  0  0  0  0  0  0  0  0  0  0  0
  -11.3354  -12.4999    6.7291 C   0  0  0  0  0  0  0  0  0  0  0  0
  -11.5034  -11.1353    6.4869 C   0  0  0  0  0  0  0  0  0  0  0  0
  -11.8872  -10.2809    7.5802 C   0  0  0  0  0  0  0  0  0  0  0  0
  -12.0887   -9.0913    7.6231 O   0  0  0  0  0  0  0  0  0  0  0  0
  -11.2250  -10.8786    5.1321 N   0  0  0  0  0  0  0  0  0  0  0  0
  -10.8940  -12.0848    4.5971 C   0  0  0  0  0  0  0  0  0  0  0  0
  -10.9547  -13.1017    5.5601 N   0  0  0  0  0  0  0  0  0  0  0  0
  1  2  1  0  0  0  0
  1  6  1  0  0  0  0
  2  3  2  0  0  0  0
  3  4  1  0  0  0  0
  4  5  2  0  0  0  0
  4 10  1  0  0  0  0
  5  6  1  0  0  0  0
  5  8  1  0  0  0  0
  6  7  2  0  0  0  0
  8  9  1  0  0  0  0
  9 10  2  0  0  0  0
M  END
>  <CHROM.1>
-11.53776276,-11.52203737,6.95465011,-3.06064250,1.29606864,-0.61716583

>  <Name>
ligand

>  <RI>
0

>  <Rbt.Current_Directory>
/home/itssahil/PROJECTS/Mol_Feturizer/New_Systems/rnas/2EES

>  <Rbt.Executable>
rbdock ($Id: //depot/dev/client3/rdock/2013.1/src/exe/rbdock.cxx#4 $)

>  <Rbt.Library>
libRbt.so (2013.1, Build901 2013/11/27)

>  <Rbt.Parameter_File>
/export/apps/rDock/src/rDock_2013.1_src/data/scripts/dock_solv.prm

>  <Rbt.Receptor>
prm/pocket_docking_7.prm

>  <SCORE>
-16.9966

>  <SCORE.INTER>
-16.9966

>  <SCORE.INTER.CONST>
1

>  <SCORE.INTER.POLAR>
0

>  <SCORE.INTER.ROT>
0

>  <SCORE.INTER.SOLV>
3.5673

>  <SCORE.INTER.VDW>
-16.1201

>  <SCORE.INTER.norm>
-1.69966

>  <SCORE.INTRA>
0

>  <SCORE.INTRA.DIHEDRAL>
0

>  <SCORE.INTRA.DIHEDRAL.0>
0

>  <SCORE.INTRA.POLAR>
0

>  <SCORE.INTRA.POLAR.0>
0

>  <SCORE.INTRA.REPUL>
0

>  <SCORE.INTRA.REPUL.0>
0

>  <SCORE.INTRA.SOLV>
0

>  <SCORE.INTRA.SOLV.lig_0>
-4.28614

>  <SCORE.INTRA.VDW>
0

>  <SCORE.INTRA.VDW.0>
0

>  <SCORE.INTRA.norm>
0

>  <SCORE.RESTR>
0

>  <SCORE.RESTR.CAVITY>
0

>  <SCORE.RESTR.norm>
0

>  <SCORE.SYSTEM>
0

>  <SCORE.SYSTEM.CONST>
0

>  <SCORE.SYSTEM.DIHEDRAL>
0

>  <SCORE.SYSTEM.SOLV>
0

>  <SCORE.SYSTEM.norm>
0

>  <SCORE.heavy>
10

>  <SCORE.norm>
-1.69966

>  <RMSD>
0.680

$$$$
ligand
 OpenBabel11021811423D
libRbt.so/2013.1/901 2013/11/27
 10 11  0  0  0  0  0  0  0  0999 V2000
  -12.0184  -11.0134    8.8079 N   0  0  0  0  0  0  0  0  0  0  0  0
  -11.8701  -12.3930    8.9633 C   0  0  0  0  0  0  0  0  0  0  0  0
  -11.5435  -13.2018    7.9395 N   0  0  0  0  0  0  0  0  0  0  0  0
  -11.3696  -12.5207    6.7380 C   0  0  0  0  0  0  0  0  0  0  0  0
  -11.5025  -11.1532    6.4905 C   0  0  0  0  0  0  0  0  0  0  0  0
  -11.8583  -10.2843    7.5818 C   0  0  0  0  0  0  0  0  0  0  0  0
  -12.0281   -9.0896    7.6202 O   0  0  0  0  0  0  0  0  0  0  0  0
  -11.2238  -10.9098    5.1332 N   0  0  0  0  0  0  0  0  0  0  0  0
  -10.9274  -12.1266    4.6021 C   0  0  0  0  0  0  0  0  0  0  0  0
  -11.0105  -13.1375    5.5699 N   0  0  0  0  0  0  0  0  0  0  0  0
  1  2  1  0  0  0  0
  1  6  1  0  0  0  0
  2  3  2  0  0  0  0
  3  4  1  0  0  0  0
  4  5  2  0  0  0  0
  4 10  1  0  0  0  0
  5  6  1  0  0  0  0
  5  8  1  0  0  0  0
  6  7  2  0  0  0  0
  8  9  1  0  0  0  0
  9 10  2  0  0  0  0
M  END
>  <CHROM.1>
-11.54489970,-11.53685360,6.96009350,-3.13511000,1.31458234,-0.54968084

>  <Name>
ligand

>  <RI>
0

>  <Rbt.Current_Directory>
/home/itssahil/PROJECTS/Mol_Feturizer/New_Systems/rnas/2EES

>  <Rbt.Executable>
rbdock ($Id: //depot/dev/client3/rdock/2013.1/src/exe/rbdock.cxx#4 $)

>  <Rbt.Library>
libRbt.so (2013.1, Build901 2013/11/27)

>  <Rbt.Parameter_File>
/export/apps/rDock/src/rDock_2013.1_src/data/scripts/dock_solv.prm

>  <Rbt.Receptor>
prm/blind_docking_40.prm

>  <SCORE>
-16.9723

>  <SCORE.INTER>
-16.9723

>  <SCORE.INTER.CONST>
1

>  <SCORE.INTER.POLAR>
0

>  <SCORE.INTER.ROT>
0

>  <SCORE.INTER.SOLV>
3.65239

>  <SCORE.INTER.VDW>
-16.1323

>  <SCORE.INTER.norm>
-1.69723

>  <SCORE.INTRA>
0

>  <SCORE.INTRA.DIHEDRAL>
0

>  <SCORE.INTRA.DIHEDRAL.0>
0

>  <SCORE.INTRA.POLAR>
0

>  <SCORE.INTRA.POLAR.0>
0

>  <SCORE.INTRA.REPUL>
0

>  <SCORE.INTRA.REPUL.0>
0

>  <SCORE.INTRA.SOLV>
0

>  <SCORE.INTRA.SOLV.lig_0>
-4.28614

>  <SCORE.INTRA.VDW>
0

>  <SCORE.INTRA.VDW.0>
0

>  <SCORE.INTRA.norm>
0

>  <SCORE.RESTR>
0

>  <SCORE.RESTR.CAVITY>
0

>  <SCORE.RESTR.norm>
0

>  <SCORE.SYSTEM>
0

>  <SCORE.SYSTEM.CONST>
0

>  <SCORE.SYSTEM.DIHEDRAL>
0

>  <SCORE.SYSTEM.SOLV>
0

>  <SCORE.SYSTEM.norm>
0

>  <SCORE.heavy>
10

>  <SCORE.norm>
-1.69723

>  <RMSD>
0.682

$$$$
ligand
 OpenBabel11021811423D
libRbt.so/2013.1/901 2013/11/27
 10 11  0  0  0  0  0  0  0  0999 V2000
  -12.0494  -10.9388    8.7969 N   0  0  0  0  0  0  0  0  0  0  0  0
  -11.9022  -12.3144    8.9856 C   0  0  0  0  0  0  0  0  0  0  0  0
  -11.5683  -13.1469    7.9833 N   0  0  0  0  0  0  0  0  0  0  0  0
  -11.3861  -12.4940    6.7674 C   0  0  0  0  0  0  0  0  0  0  0  0
  -11.5174  -11.1326    6.4871 C   0  0  0  0  0  0  0  0  0  0  0  0
  -11.8809  -10.2385    7.5552 C   0  0  0  0  0  0  0  0  0  0  0  0
  -12.0510   -9.0433    7.5646 O   0  0  0  0  0  0  0  0  0  0  0  0
  -11.2293  -10.9210    5.1265 N   0  0  0  0  0  0  0  0  0  0  0  0
  -10.9291  -12.1498    4.6260 C   0  0  0  0  0  0  0  0  0  0  0  0
  -11.0188  -13.1378    5.6166 N   0  0  0  0  0  0  0  0  0  0  0  0
  1  2  1  0  0  0  0
  1  6  1  0  0  0  0
  2  3  2  0  0  0  0
  3  4  1  0  0  0  0
  4  5  2  0  0  0  0
  4 10  1  0  0  0  0
  5  6  1  0  0  0  0
  5  8  1  0  0  0  0
  6  7  2  0  0  0  0
  8  9  1  0  0  0  0
  9 10  2  0  0  0  0
M  END
>  <CHROM.1>
-11.56304113,-11.50523876,6.96521204,3.13434240,1.30855655,-0.55979748

>  <Name>
ligand

>  <RI>
0

>  <Rbt.Current_Directory>
/home/itssahil/PROJECTS/Mol_Feturizer/New_Systems/rnas/2EES

>  <Rbt.Executable>
rbdock ($Id: //depot/dev/client3/rdock/2013.1/src/exe/rbdock.cxx#4 $)

>  <Rbt.Library>
libRbt.so (2013.1, Build901 2013/11/27)

>  <Rbt.Parameter_File>
/export/apps/rDock/src/rDock_2013.1_src/data/scripts/dock_solv.prm

>  <Rbt.Receptor>
prm/pocket_docking_5.prm

>  <SCORE>
-17.0049

>  <SCORE.INTER>
-17.0049

>  <SCORE.INTER.CONST>
1

>  <SCORE.INTER.POLAR>
0

>  <SCORE.INTER.ROT>
0

>  <SCORE.INTER.SOLV>
3.63306

>  <SCORE.INTER.VDW>
-16.1476

>  <SCORE.INTER.norm>
-1.70049

>  <SCORE.INTRA>
0

>  <SCORE.INTRA.DIHEDRAL>
0

>  <SCORE.INTRA.DIHEDRAL.0>
0

>  <SCORE.INTRA.POLAR>
0

>  <SCORE.INTRA.POLAR.0>
0

>  <SCORE.INTRA.REPUL>
0

>  <SCORE.INTRA.REPUL.0>
0

>  <SCORE.INTRA.SOLV>
0

>  <SCORE.INTRA.SOLV.lig_0>
-4.28614

>  <SCORE.INTRA.VDW>
0

>  <SCORE.INTRA.VDW.0>
0

>  <SCORE.INTRA.norm>
0

>  <SCORE.RESTR>
0

>  <SCORE.RESTR.CAVITY>
0

>  <SCORE.RESTR.norm>
0

>  <SCORE.SYSTEM>
0

>  <SCORE.SYSTEM.CONST>
0

>  <SCORE.SYSTEM.DIHEDRAL>
0

>  <SCORE.SYSTEM.SOLV>
0

>  <SCORE.SYSTEM.norm>
0

>  <SCORE.heavy>
10

>  <SCORE.norm>
-1.70049

>  <RMSD>
0.682

$$$$
ligand
 OpenBabel11021811423D
libRbt.so/2013.1/901 2013/11/27
 10 11  0  0  0  0  0  0  0  0999 V2000
  -12.0459  -10.9408    8.7964 N   0  0  0  0  0  0  0  0  0  0  0  0
  -11.9004  -12.3166    8.9848 C   0  0  0  0  0  0  0  0  0  0  0  0
  -11.5657  -13.1491    7.9828 N   0  0  0  0  0  0  0  0  0  0  0  0
  -11.3808  -12.4960    6.7675 C   0  0  0  0  0  0  0  0  0  0  0  0
  -11.5102  -11.1345    6.4873 C   0  0  0  0  0  0  0  0  0  0  0  0
  -11.8745  -10.2403    7.5552 C   0  0  0  0  0  0  0  0  0  0  0  0
  -12.0434   -9.0449    7.5646 O   0  0  0  0  0  0  0  0  0  0  0  0
  -11.2196  -10.9227    5.1273 N   0  0  0  0  0  0  0  0  0  0  0  0
  -10.9198  -12.1517    4.6269 C   0  0  0  0  0  0  0  0  0  0  0  0
  -11.0123  -13.1399    5.6171 N   0  0  0  0  0  0  0  0  0  0  0  0
  1  2  1  0  0  0  0
  1  6  1  0  0  0  0
  2  3  2  0  0  0  0
  3  4  1  0  0  0  0
  4  5  2  0  0  0  0
  4 10  1  0  0  0  0
  5  6  1  0  0  0  0
  5  8  1  0  0  0  0
  6  7  2  0  0  0  0
  8  9  1  0  0  0  0
  9 10  2  0  0  0  0
M  END
>  <CHROM.1>
-11.55702005,-11.50717530,6.96527332,3.12743408,1.30770987,-0.55280716

>  <Name>
ligand

>  <RI>
0

>  <Rbt.Current_Directory>
/home/itssahil/PROJECTS/Mol_Feturizer/New_Systems/rnas/2EES

>  <Rbt.Executable>
rbdock ($Id: //depot/dev/client3/rdock/2013.1/src/exe/rbdock.cxx#4 $)

>  <Rbt.Library>
libRbt.so (2013.1, Build901 2013/11/27)

>  <Rbt.Parameter_File>
/export/apps/rDock/src/rDock_2013.1_src/data/scripts/dock_solv.prm

>  <Rbt.Receptor>
prm/blind_docking_60.prm

>  <SCORE>
-17.0062

>  <SCORE.INTER>
-17.0062

>  <SCORE.INTER.CONST>
1

>  <SCORE.INTER.POLAR>
0

>  <SCORE.INTER.ROT>
0

>  <SCORE.INTER.SOLV>
3.63776

>  <SCORE.INTER.VDW>
-16.15

>  <SCORE.INTER.norm>
-1.70062

>  <SCORE.INTRA>
0

>  <SCORE.INTRA.DIHEDRAL>
0

>  <SCORE.INTRA.DIHEDRAL.0>
0

>  <SCORE.INTRA.POLAR>
0

>  <SCORE.INTRA.POLAR.0>
0

>  <SCORE.INTRA.REPUL>
0

>  <SCORE.INTRA.REPUL.0>
0

>  <SCORE.INTRA.SOLV>
0

>  <SCORE.INTRA.SOLV.lig_0>
-4.28614

>  <SCORE.INTRA.VDW>
0

>  <SCORE.INTRA.VDW.0>
0

>  <SCORE.INTRA.norm>
0

>  <SCORE.RESTR>
0

>  <SCORE.RESTR.CAVITY>
0

>  <SCORE.RESTR.norm>
0

>  <SCORE.SYSTEM>
0

>  <SCORE.SYSTEM.CONST>
0

>  <SCORE.SYSTEM.DIHEDRAL>
0

>  <SCORE.SYSTEM.SOLV>
0

>  <SCORE.SYSTEM.norm>
0

>  <SCORE.heavy>
10

>  <SCORE.norm>
-1.70062

>  <RMSD>
0.683

$$$$
ligand
 OpenBabel11021811423D
libRbt.so/2013.1/901 2013/11/27
 10 11  0  0  0  0  0  0  0  0999 V2000
  -12.0111  -11.2741    8.8233 N   0  0  0  0  0  0  0  0  0  0  0  0
  -11.7756  -12.6491    8.8830 C   0  0  0  0  0  0  0  0  0  0  0  0
  -11.4095  -13.3642    7.8043 N   0  0  0  0  0  0  0  0  0  0  0  0
  -11.2905  -12.5933    6.6513 C   0  0  0  0  0  0  0  0  0  0  0  0
  -11.5108  -11.2232    6.4989 C   0  0  0  0  0  0  0  0  0  0  0  0
  -11.9091  -10.4546    7.6491 C   0  0  0  0  0  0  0  0  0  0  0  0
  -12.1526   -9.2784    7.7704 O   0  0  0  0  0  0  0  0  0  0  0  0
  -11.2614  -10.8710    5.1599 N   0  0  0  0  0  0  0  0  0  0  0  0
  -10.8951  -12.0279    4.5449 C   0  0  0  0  0  0  0  0  0  0  0  0
  -10.9053  -13.1054    5.4417 N   0  0  0  0  0  0  0  0  0  0  0  0
  1  2  1  0  0  0  0
  1  6  1  0  0  0  0
  2  3  2  0  0  0  0
  3  4  1  0  0  0  0
  4  5  2  0  0  0  0
  4 10  1  0  0  0  0
  5  6  1  0  0  0  0
  5  8  1  0  0  0  0
  6  7  2  0  0  0  0
  8  9  1  0  0  0  0
  9 10  2  0  0  0  0
M  END
>  <CHROM.1>
-11.52446924,-11.63985885,6.94129115,-2.92679120,1.28466056,-0.68206333

>  <Name>
ligand

>  <RI>
0

>  <Rbt.Current_Directory>
/home/itssahil/PROJECTS/Mol_Feturizer/New_Systems/rnas/2EES

>  <Rbt.Executable>
rbdock ($Id: //depot/dev/client3/rdock/2013.1/src/exe/rbdock.cxx#4 $)

>  <Rbt.Library>
libRbt.so (2013.1, Build901 2013/11/27)

>  <Rbt.Parameter_File>
/export/apps/rDock/src/rDock_2013.1_src/data/scripts/dock_solv.prm

>  <Rbt.Receptor>
prm/pocket_docking_6.prm

>  <SCORE>
-17.0005

>  <SCORE.INTER>
-17.0005

>  <SCORE.INTER.CONST>
1

>  <SCORE.INTER.POLAR>
0

>  <SCORE.INTER.ROT>
0

>  <SCORE.INTER.SOLV>
3.53104

>  <SCORE.INTER.VDW>
-16.1107

>  <SCORE.INTER.norm>
-1.70005

>  <SCORE.INTRA>
0

>  <SCORE.INTRA.DIHEDRAL>
0

>  <SCORE.INTRA.DIHEDRAL.0>
0

>  <SCORE.INTRA.POLAR>
0

>  <SCORE.INTRA.POLAR.0>
0

>  <SCORE.INTRA.REPUL>
0

>  <SCORE.INTRA.REPUL.0>
0

>  <SCORE.INTRA.SOLV>
0

>  <SCORE.INTRA.SOLV.lig_0>
-4.28614

>  <SCORE.INTRA.VDW>
0

>  <SCORE.INTRA.VDW.0>
0

>  <SCORE.INTRA.norm>
0

>  <SCORE.RESTR>
0

>  <SCORE.RESTR.CAVITY>
0

>  <SCORE.RESTR.norm>
0

>  <SCORE.SYSTEM>
0

>  <SCORE.SYSTEM.CONST>
0

>  <SCORE.SYSTEM.DIHEDRAL>
0

>  <SCORE.SYSTEM.SOLV>
0

>  <SCORE.SYSTEM.norm>
0

>  <SCORE.heavy>
10

>  <SCORE.norm>
-1.70005

>  <RMSD>
0.687

$$$$
ligand
 OpenBabel11021811423D
libRbt.so/2013.1/901 2013/11/27
 10 11  0  0  0  0  0  0  0  0999 V2000
  -11.9567  -11.2185    8.8242 N   0  0  0  0  0  0  0  0  0  0  0  0
  -11.7418  -12.5959    8.9020 C   0  0  0  0  0  0  0  0  0  0  0  0
  -11.3969  -13.3324    7.8307 N   0  0  0  0  0  0  0  0  0  0  0  0
  -11.2771  -12.5804    6.6654 C   0  0  0  0  0  0  0  0  0  0  0  0
  -11.4778  -11.2094    6.4947 C   0  0  0  0  0  0  0  0  0  0  0  0
  -11.8534  -10.4180    7.6371 C   0  0  0  0  0  0  0  0  0  0  0  0
  -12.0776   -9.2364    7.7432 O   0  0  0  0  0  0  0  0  0  0  0  0
  -11.2358  -10.8808    5.1484 N   0  0  0  0  0  0  0  0  0  0  0  0
  -10.8931  -12.0521    4.5473 C   0  0  0  0  0  0  0  0  0  0  0  0
  -10.9113  -13.1161    5.4599 N   0  0  0  0  0  0  0  0  0  0  0  0
  1  2  1  0  0  0  0
  1  6  1  0  0  0  0
  2  3  2  0  0  0  0
  3  4  1  0  0  0  0
  4  5  2  0  0  0  0
  4 10  1  0  0  0  0
  5  6  1  0  0  0  0
  5  8  1  0  0  0  0
  6  7  2  0  0  0  0
  8  9  1  0  0  0  0
  9 10  2  0  0  0  0
M  END
>  <CHROM.1>
-11.49367796,-11.61927448,6.94337536,-2.94898509,1.30164322,-0.67545822

>  <Name>
ligand

>  <RI>
0

>  <Rbt.Current_Directory>
/home/itssahil/PROJECTS/Mol_Feturizer/New_Systems/rnas/2EES

>  <Rbt.Executable>
rbdock ($Id: //depot/dev/client3/rdock/2013.1/src/exe/rbdock.cxx#4 $)

>  <Rbt.Library>
libRbt.so (2013.1, Build901 2013/11/27)

>  <Rbt.Parameter_File>
/export/apps/rDock/src/rDock_2013.1_src/data/scripts/dock_solv.prm

>  <Rbt.Receptor>
prm/blind_docking_100.prm

>  <SCORE>
-16.9784

>  <SCORE.INTER>
-16.9784

>  <SCORE.INTER.CONST>
1

>  <SCORE.INTER.POLAR>
0

>  <SCORE.INTER.ROT>
0

>  <SCORE.INTER.SOLV>
3.60763

>  <SCORE.INTER.VDW>
-16.1215

>  <SCORE.INTER.norm>
-1.69784

>  <SCORE.INTRA>
0

>  <SCORE.INTRA.DIHEDRAL>
0

>  <SCORE.INTRA.DIHEDRAL.0>
0

>  <SCORE.INTRA.POLAR>
0

>  <SCORE.INTRA.POLAR.0>
0

>  <SCORE.INTRA.REPUL>
0

>  <SCORE.INTRA.REPUL.0>
0

>  <SCORE.INTRA.SOLV>
0

>  <SCORE.INTRA.SOLV.lig_0>
-4.28614

>  <SCORE.INTRA.VDW>
0

>  <SCORE.INTRA.VDW.0>
0

>  <SCORE.INTRA.norm>
0

>  <SCORE.RESTR>
0

>  <SCORE.RESTR.CAVITY>
0

>  <SCORE.RESTR.norm>
0

>  <SCORE.SYSTEM>
0

>  <SCORE.SYSTEM.CONST>
0

>  <SCORE.SYSTEM.DIHEDRAL>
0

>  <SCORE.SYSTEM.SOLV>
0

>  <SCORE.SYSTEM.norm>
0

>  <SCORE.heavy>
10

>  <SCORE.norm>
-1.69784

>  <RMSD>
0.693

$$$$
ligand
 OpenBabel11021811423D
libRbt.so/2013.1/901 2013/11/27
 10 11  0  0  0  0  0  0  0  0999 V2000
  -11.9808  -11.0451    8.7682 N   0  0  0  0  0  0  0  0  0  0  0  0
  -11.7755  -12.4201    8.8977 C   0  0  0  0  0  0  0  0  0  0  0  0
  -11.4214  -13.1962    7.8578 N   0  0  0  0  0  0  0  0  0  0  0  0
  -11.2817  -12.4868    6.6682 C   0  0  0  0  0  0  0  0  0  0  0  0
  -11.4717  -11.1217    6.4463 C   0  0  0  0  0  0  0  0  0  0  0  0
  -11.8570  -10.2879    7.5549 C   0  0  0  0  0  0  0  0  0  0  0  0
  -12.0752   -9.1021    7.6160 O   0  0  0  0  0  0  0  0  0  0  0  0
  -11.2102  -10.8426    5.0925 N   0  0  0  0  0  0  0  0  0  0  0  0
  -10.8671  -12.0364    4.5379 C   0  0  0  0  0  0  0  0  0  0  0  0
  -10.9038  -13.0672    5.4874 N   0  0  0  0  0  0  0  0  0  0  0  0
  1  2  1  0  0  0  0
  1  6  1  0  0  0  0
  2  3  2  0  0  0  0
  3  4  1  0  0  0  0
  4  5  2  0  0  0  0
  4 10  1  0  0  0  0
  5  6  1  0  0  0  0
  5  8  1  0  0  0  0
  6  7  2  0  0  0  0
  8  9  1  0  0  0  0
  9 10  2  0  0  0  0
M  END
>  <CHROM.1>
-11.49590747,-11.51518669,6.90901481,-2.99678699,1.29514562,-0.66495043

>  <Name>
ligand

>  <RI>
0

>  <Rbt.Current_Directory>
/home/itssahil/PROJECTS/Mol_Feturizer/New_Systems/rnas/2EES

>  <Rbt.Executable>
rbdock ($Id: //depot/dev/client3/rdock/2013.1/src/exe/rbdock.cxx#4 $)

>  <Rbt.Library>
libRbt.so (2013.1, Build901 2013/11/27)

>  <Rbt.Parameter_File>
/export/apps/rDock/src/rDock_2013.1_src/data/scripts/dock_solv.prm

>  <Rbt.Receptor>
prm/pocket_docking_4.prm

>  <SCORE>
-16.9542

>  <SCORE.INTER>
-16.9542

>  <SCORE.INTER.CONST>
1

>  <SCORE.INTER.POLAR>
0

>  <SCORE.INTER.ROT>
0

>  <SCORE.INTER.SOLV>
3.59036

>  <SCORE.INTER.VDW>
-16.0996

>  <SCORE.INTER.norm>
-1.69542

>  <SCORE.INTRA>
0

>  <SCORE.INTRA.DIHEDRAL>
0

>  <SCORE.INTRA.DIHEDRAL.0>
0

>  <SCORE.INTRA.POLAR>
0

>  <SCORE.INTRA.POLAR.0>
0

>  <SCORE.INTRA.REPUL>
0

>  <SCORE.INTRA.REPUL.0>
0

>  <SCORE.INTRA.SOLV>
0

>  <SCORE.INTRA.SOLV.lig_0>
-4.28614

>  <SCORE.INTRA.VDW>
0

>  <SCORE.INTRA.VDW.0>
0

>  <SCORE.INTRA.norm>
0

>  <SCORE.RESTR>
0

>  <SCORE.RESTR.CAVITY>
0

>  <SCORE.RESTR.norm>
0

>  <SCORE.SYSTEM>
0

>  <SCORE.SYSTEM.CONST>
0

>  <SCORE.SYSTEM.DIHEDRAL>
0

>  <SCORE.SYSTEM.SOLV>
0

>  <SCORE.SYSTEM.norm>
0

>  <SCORE.heavy>
10

>  <SCORE.norm>
-1.69542

>  <RMSD>
0.729

$$$$
ligand
 OpenBabel11021811423D
libRbt.so/2013.1/901 2013/11/27
 10 11  0  0  0  0  0  0  0  0999 V2000
  -12.0592  -10.8836    8.7427 N   0  0  0  0  0  0  0  0  0  0  0  0
  -11.8549  -12.2509    8.9380 C   0  0  0  0  0  0  0  0  0  0  0  0
  -11.4810  -13.0726    7.9409 N   0  0  0  0  0  0  0  0  0  0  0  0
  -11.3204  -12.4176    6.7232 C   0  0  0  0  0  0  0  0  0  0  0  0
  -11.5077  -11.0642    6.4363 C   0  0  0  0  0  0  0  0  0  0  0  0
  -11.9141  -10.1819    7.4988 C   0  0  0  0  0  0  0  0  0  0  0  0
  -12.1346   -8.9949    7.5021 O   0  0  0  0  0  0  0  0  0  0  0  0
  -11.2218  -10.8462    5.0762 N   0  0  0  0  0  0  0  0  0  0  0  0
  -10.8674  -12.0633    4.5826 C   0  0  0  0  0  0  0  0  0  0  0  0
  -10.9203  -13.0501    5.5770 N   0  0  0  0  0  0  0  0  0  0  0  0
  1  2  1  0  0  0  0
  1  6  1  0  0  0  0
  2  3  2  0  0  0  0
  3  4  1  0  0  0  0
  4  5  2  0  0  0  0
  4 10  1  0  0  0  0
  5  6  1  0  0  0  0
  5  8  1  0  0  0  0
  6  7  2  0  0  0  0
  8  9  1  0  0  0  0
  9 10  2  0  0  0  0
M  END
>  <CHROM.1>
-11.53995667,-11.43644289,6.91582500,-3.03318530,1.27994813,-0.67530379

>  <Name>
ligand

>  <RI>
0

>  <Rbt.Current_Directory>
/home/itssahil/PROJECTS/Mol_Feturizer/New_Systems/rnas/2EES

>  <Rbt.Executable>
rbdock ($Id: //depot/dev/client3/rdock/2013.1/src/exe/rbdock.cxx#4 $)

>  <Rbt.Library>
libRbt.so (2013.1, Build901 2013/11/27)

>  <Rbt.Parameter_File>
/export/apps/rDock/src/rDock_2013.1_src/data/scripts/dock_solv.prm

>  <Rbt.Receptor>
prm/pocket_docking_6.prm

>  <SCORE>
-16.9759

>  <SCORE.INTER>
-16.9759

>  <SCORE.INTER.CONST>
1

>  <SCORE.INTER.POLAR>
0

>  <SCORE.INTER.ROT>
0

>  <SCORE.INTER.SOLV>
3.53532

>  <SCORE.INTER.VDW>
-16.0957

>  <SCORE.INTER.norm>
-1.69759

>  <SCORE.INTRA>
0

>  <SCORE.INTRA.DIHEDRAL>
0

>  <SCORE.INTRA.DIHEDRAL.0>
0

>  <SCORE.INTRA.POLAR>
0

>  <SCORE.INTRA.POLAR.0>
0

>  <SCORE.INTRA.REPUL>
0

>  <SCORE.INTRA.REPUL.0>
0

>  <SCORE.INTRA.SOLV>
0

>  <SCORE.INTRA.SOLV.lig_0>
-4.28614

>  <SCORE.INTRA.VDW>
0

>  <SCORE.INTRA.VDW.0>
0

>  <SCORE.INTRA.norm>
0

>  <SCORE.RESTR>
0

>  <SCORE.RESTR.CAVITY>
0

>  <SCORE.RESTR.norm>
0

>  <SCORE.SYSTEM>
0

>  <SCORE.SYSTEM.CONST>
0

>  <SCORE.SYSTEM.DIHEDRAL>
0

>  <SCORE.SYSTEM.SOLV>
0

>  <SCORE.SYSTEM.norm>
0

>  <SCORE.heavy>
10

>  <SCORE.norm>
-1.69759

>  <RMSD>
0.733

$$$$
ligand
 OpenBabel11021811423D
libRbt.so/2013.1/901 2013/11/27
 10 11  0  0  0  0  0  0  0  0999 V2000
  -12.0288  -10.9705    8.7585 N   0  0  0  0  0  0  0  0  0  0  0  0
  -11.8640  -12.3488    8.9096 C   0  0  0  0  0  0  0  0  0  0  0  0
  -11.5185  -13.1491    7.8853 N   0  0  0  0  0  0  0  0  0  0  0  0
  -11.3436  -12.4608    6.6880 C   0  0  0  0  0  0  0  0  0  0  0  0
  -11.4922  -11.0941    6.4449 C   0  0  0  0  0  0  0  0  0  0  0  0
  -11.8682  -10.2344    7.5367 C   0  0  0  0  0  0  0  0  0  0  0  0
  -12.0537   -9.0421    7.5785 O   0  0  0  0  0  0  0  0  0  0  0  0
  -11.2055  -10.8416    5.0910 N   0  0  0  0  0  0  0  0  0  0  0  0
  -10.8890  -12.0523    4.5574 C   0  0  0  0  0  0  0  0  0  0  0  0
  -10.9669  -13.0681    5.5205 N   0  0  0  0  0  0  0  0  0  0  0  0
  1  2  1  0  0  0  0
  1  6  1  0  0  0  0
  2  3  2  0  0  0  0
  3  4  1  0  0  0  0
  4  5  2  0  0  0  0
  4 10  1  0  0  0  0
  5  6  1  0  0  0  0
  5  8  1  0  0  0  0
  6  7  2  0  0  0  0
  8  9  1  0  0  0  0
  9 10  2  0  0  0  0
M  END
>  <CHROM.1>
-11.53343874,-11.48024809,6.91257953,-3.10978326,1.30072405,-0.57009017

>  <Name>
ligand

>  <RI>
0

>  <Rbt.Current_Directory>
/home/itssahil/PROJECTS/Mol_Feturizer/New_Systems/rnas/2EES

>  <Rbt.Executable>
rbdock ($Id: //depot/dev/client3/rdock/2013.1/src/exe/rbdock.cxx#4 $)

>  <Rbt.Library>
libRbt.so (2013.1, Build901 2013/11/27)

>  <Rbt.Parameter_File>
/export/apps/rDock/src/rDock_2013.1_src/data/scripts/dock_solv.prm

>  <Rbt.Receptor>
prm/pocket_docking_8.prm

>  <SCORE>
-17.0158

>  <SCORE.INTER>
-17.0158

>  <SCORE.INTER.CONST>
1

>  <SCORE.INTER.POLAR>
0

>  <SCORE.INTER.ROT>
0

>  <SCORE.INTER.SOLV>
3.62691

>  <SCORE.INTER.VDW>
-16.1528

>  <SCORE.INTER.norm>
-1.70158

>  <SCORE.INTRA>
0

>  <SCORE.INTRA.DIHEDRAL>
0

>  <SCORE.INTRA.DIHEDRAL.0>
0

>  <SCORE.INTRA.POLAR>
0

>  <SCORE.INTRA.POLAR.0>
0

>  <SCORE.INTRA.REPUL>
0

>  <SCORE.INTRA.REPUL.0>
0

>  <SCORE.INTRA.SOLV>
0

>  <SCORE.INTRA.SOLV.lig_0>
-4.28614

>  <SCORE.INTRA.VDW>
0

>  <SCORE.INTRA.VDW.0>
0

>  <SCORE.INTRA.norm>
0

>  <SCORE.RESTR>
0

>  <SCORE.RESTR.CAVITY>
0

>  <SCORE.RESTR.norm>
0

>  <SCORE.SYSTEM>
0

>  <SCORE.SYSTEM.CONST>
0

>  <SCORE.SYSTEM.DIHEDRAL>
0

>  <SCORE.SYSTEM.SOLV>
0

>  <SCORE.SYSTEM.norm>
0

>  <SCORE.heavy>
10

>  <SCORE.norm>
-1.70158

>  <RMSD>
0.733

$$$$
ligand
 OpenBabel11021811423D
libRbt.so/2013.1/901 2013/11/27
 10 11  0  0  0  0  0  0  0  0999 V2000
  -12.0454  -10.9762    8.7532 N   0  0  0  0  0  0  0  0  0  0  0  0
  -11.8987  -12.3569    8.8999 C   0  0  0  0  0  0  0  0  0  0  0  0
  -11.5480  -13.1564    7.8767 N   0  0  0  0  0  0  0  0  0  0  0  0
  -11.3483  -12.4646    6.6854 C   0  0  0  0  0  0  0  0  0  0  0  0
  -11.4776  -11.0951    6.4468 C   0  0  0  0  0  0  0  0  0  0  0  0
  -11.8590  -10.2362    7.5374 C   0  0  0  0  0  0  0  0  0  0  0  0
  -12.0313   -9.0421    7.5824 O   0  0  0  0  0  0  0  0  0  0  0  0
  -11.1689  -10.8396    5.0983 N   0  0  0  0  0  0  0  0  0  0  0  0
  -10.8589  -12.0514    4.5634 C   0  0  0  0  0  0  0  0  0  0  0  0
  -10.9621  -13.0707    5.5203 N   0  0  0  0  0  0  0  0  0  0  0  0
  1  2  1  0  0  0  0
  1  6  1  0  0  0  0
  2  3  2  0  0  0  0
  3  4  1  0  0  0  0
  4  5  2  0  0  0  0
  4 10  1  0  0  0  0
  5  6  1  0  0  0  0
  5  8  1  0  0  0  0
  6  7  2  0  0  0  0
  8  9  1  0  0  0  0
  9 10  2  0  0  0  0
M  END
>  <CHROM.1>
-11.52990631,-11.48292525,6.91202921,3.10972045,1.29450542,-0.50398518

>  <Name>
ligand

>  <RI>
0

>  <Rbt.Current_Directory>
/home/itssahil/PROJECTS/Mol_Feturizer/New_Systems/rnas/2EES

>  <Rbt.Executable>
rbdock ($Id: //depot/dev/client3/rdock/2013.1/src/exe/rbdock.cxx#4 $)

>  <Rbt.Library>
libRbt.so (2013.1, Build901 2013/11/27)

>  <Rbt.Parameter_File>
/export/apps/rDock/src/rDock_2013.1_src/data/scripts/dock_solv.prm

>  <Rbt.Receptor>
prm/pocket_docking_7.prm

>  <SCORE>
-17.0035

>  <SCORE.INTER>
-17.0035

>  <SCORE.INTER.CONST>
1

>  <SCORE.INTER.POLAR>
0

>  <SCORE.INTER.ROT>
0

>  <SCORE.INTER.SOLV>
3.64079

>  <SCORE.INTER.VDW>
-16.1492

>  <SCORE.INTER.norm>
-1.70035

>  <SCORE.INTRA>
0

>  <SCORE.INTRA.DIHEDRAL>
0

>  <SCORE.INTRA.DIHEDRAL.0>
0

>  <SCORE.INTRA.POLAR>
0

>  <SCORE.INTRA.POLAR.0>
0

>  <SCORE.INTRA.REPUL>
0

>  <SCORE.INTRA.REPUL.0>
0

>  <SCORE.INTRA.SOLV>
0

>  <SCORE.INTRA.SOLV.lig_0>
-4.28614

>  <SCORE.INTRA.VDW>
0

>  <SCORE.INTRA.VDW.0>
0

>  <SCORE.INTRA.norm>
0

>  <SCORE.RESTR>
0

>  <SCORE.RESTR.CAVITY>
0

>  <SCORE.RESTR.norm>
0

>  <SCORE.SYSTEM>
0

>  <SCORE.SYSTEM.CONST>
0

>  <SCORE.SYSTEM.DIHEDRAL>
0

>  <SCORE.SYSTEM.SOLV>
0

>  <SCORE.SYSTEM.norm>
0

>  <SCORE.heavy>
10

>  <SCORE.norm>
-1.70035

>  <RMSD>
0.735

$$$$
ligand
 OpenBabel11021811423D
libRbt.so/2013.1/901 2013/11/27
 10 11  0  0  0  0  0  0  0  0999 V2000
  -12.0718  -10.9017    8.7421 N   0  0  0  0  0  0  0  0  0  0  0  0
  -11.9296  -12.2784    8.9261 C   0  0  0  0  0  0  0  0  0  0  0  0
  -11.5789  -13.1060    7.9255 N   0  0  0  0  0  0  0  0  0  0  0  0
  -11.3741  -12.4469    6.7166 C   0  0  0  0  0  0  0  0  0  0  0  0
  -11.4988  -11.0840    6.4412 C   0  0  0  0  0  0  0  0  0  0  0  0
  -11.8802  -10.1950    7.5074 C   0  0  0  0  0  0  0  0  0  0  0  0
  -12.0490   -8.9997    7.5200 O   0  0  0  0  0  0  0  0  0  0  0  0
  -11.1860  -10.8655    5.0871 N   0  0  0  0  0  0  0  0  0  0  0  0
  -10.8784  -12.0921    4.5855 C   0  0  0  0  0  0  0  0  0  0  0  0
  -10.9870  -13.0852    5.5691 N   0  0  0  0  0  0  0  0  0  0  0  0
  1  2  1  0  0  0  0
  1  6  1  0  0  0  0
  2  3  2  0  0  0  0
  3  4  1  0  0  0  0
  4  5  2  0  0  0  0
  4 10  1  0  0  0  0
  5  6  1  0  0  0  0
  5  8  1  0  0  0  0
  6  7  2  0  0  0  0
  8  9  1  0  0  0  0
  9 10  2  0  0  0  0
M  END
>  <CHROM.1>
-11.55336699,-11.45904088,6.91641025,3.09572789,1.29383291,-0.51728092

>  <Name>
ligand

>  <RI>
0

>  <Rbt.Current_Directory>
/home/itssahil/PROJECTS/Mol_Feturizer/New_Systems/rnas/2EES

>  <Rbt.Executable>
rbdock ($Id: //depot/dev/client3/rdock/2013.1/src/exe/rbdock.cxx#4 $)

>  <Rbt.Library>
libRbt.so (2013.1, Build901 2013/11/27)

>  <Rbt.Parameter_File>
/export/apps/rDock/src/rDock_2013.1_src/data/scripts/dock_solv.prm

>  <Rbt.Receptor>
prm/pocket_docking_7.prm

>  <SCORE>
-16.996

>  <SCORE.INTER>
-16.996

>  <SCORE.INTER.CONST>
1

>  <SCORE.INTER.POLAR>
0

>  <SCORE.INTER.ROT>
0

>  <SCORE.INTER.SOLV>
3.63777

>  <SCORE.INTER.VDW>
-16.1433

>  <SCORE.INTER.norm>
-1.6996

>  <SCORE.INTRA>
0

>  <SCORE.INTRA.DIHEDRAL>
0

>  <SCORE.INTRA.DIHEDRAL.0>
0

>  <SCORE.INTRA.POLAR>
0

>  <SCORE.INTRA.POLAR.0>
0

>  <SCORE.INTRA.REPUL>
0

>  <SCORE.INTRA.REPUL.0>
0

>  <SCORE.INTRA.SOLV>
0

>  <SCORE.INTRA.SOLV.lig_0>
-4.28614

>  <SCORE.INTRA.VDW>
0

>  <SCORE.INTRA.VDW.0>
0

>  <SCORE.INTRA.norm>
0

>  <SCORE.RESTR>
0

>  <SCORE.RESTR.CAVITY>
0

>  <SCORE.RESTR.norm>
0

>  <SCORE.SYSTEM>
0

>  <SCORE.SYSTEM.CONST>
0

>  <SCORE.SYSTEM.DIHEDRAL>
0

>  <SCORE.SYSTEM.SOLV>
0

>  <SCORE.SYSTEM.norm>
0

>  <SCORE.heavy>
10

>  <SCORE.norm>
-1.6996

>  <RMSD>
0.736

$$$$
ligand
 OpenBabel11021811423D
libRbt.so/2013.1/901 2013/11/27
 10 11  0  0  0  0  0  0  0  0999 V2000
  -12.0077  -10.9749    8.7571 N   0  0  0  0  0  0  0  0  0  0  0  0
  -11.8161  -12.3496    8.9085 C   0  0  0  0  0  0  0  0  0  0  0  0
  -11.4663  -13.1452    7.8819 N   0  0  0  0  0  0  0  0  0  0  0  0
  -11.3164  -12.4558    6.6819 C   0  0  0  0  0  0  0  0  0  0  0  0
  -11.4925  -11.0925    6.4383 C   0  0  0  0  0  0  0  0  0  0  0  0
  -11.8731  -10.2380    7.5325 C   0  0  0  0  0  0  0  0  0  0  0  0
  -12.0801   -9.0493    7.5745 O   0  0  0  0  0  0  0  0  0  0  0  0
  -11.2244  -10.8370    5.0811 N   0  0  0  0  0  0  0  0  0  0  0  0
  -10.8911  -12.0426    4.5462 C   0  0  0  0  0  0  0  0  0  0  0  0
  -10.9405  -13.0580    5.5115 N   0  0  0  0  0  0  0  0  0  0  0  0
  1  2  1  0  0  0  0
  1  6  1  0  0  0  0
  2  3  2  0  0  0  0
  3  4  1  0  0  0  0
  4  5  2  0  0  0  0
  4 10  1  0  0  0  0
  5  6  1  0  0  0  0
  5  8  1  0  0  0  0
  6  7  2  0  0  0  0
  8  9  1  0  0  0  0
  9 10  2  0  0  0  0
M  END
>  <CHROM.1>
-11.52189806,-11.47853728,6.90693655,-3.03161809,1.29857826,-0.64698713

>  <Name>
ligand

>  <RI>
0

>  <Rbt.Current_Directory>
/home/itssahil/PROJECTS/Mol_Feturizer/New_Systems/rnas/2EES

>  <Rbt.Executable>
rbdock ($Id: //depot/dev/client3/rdock/2013.1/src/exe/rbdock.cxx#4 $)

>  <Rbt.Library>
libRbt.so (2013.1, Build901 2013/11/27)

>  <Rbt.Parameter_File>
/export/apps/rDock/src/rDock_2013.1_src/data/scripts/dock_solv.prm

>  <Rbt.Receptor>
prm/pocket_docking_8.prm

>  <SCORE>
-16.987

>  <SCORE.INTER>
-16.987

>  <SCORE.INTER.CONST>
1

>  <SCORE.INTER.POLAR>
0

>  <SCORE.INTER.ROT>
0

>  <SCORE.INTER.SOLV>
3.59645

>  <SCORE.INTER.VDW>
-16.1235

>  <SCORE.INTER.norm>
-1.6987

>  <SCORE.INTRA>
0

>  <SCORE.INTRA.DIHEDRAL>
0

>  <SCORE.INTRA.DIHEDRAL.0>
0

>  <SCORE.INTRA.POLAR>
0

>  <SCORE.INTRA.POLAR.0>
0

>  <SCORE.INTRA.REPUL>
0

>  <SCORE.INTRA.REPUL.0>
0

>  <SCORE.INTRA.SOLV>
0

>  <SCORE.INTRA.SOLV.lig_0>
-4.28614

>  <SCORE.INTRA.VDW>
0

>  <SCORE.INTRA.VDW.0>
0

>  <SCORE.INTRA.norm>
0

>  <SCORE.RESTR>
0

>  <SCORE.RESTR.CAVITY>
0

>  <SCORE.RESTR.norm>
0

>  <SCORE.SYSTEM>
0

>  <SCORE.SYSTEM.CONST>
0

>  <SCORE.SYSTEM.DIHEDRAL>
0

>  <SCORE.SYSTEM.SOLV>
0

>  <SCORE.SYSTEM.norm>
0

>  <SCORE.heavy>
10

>  <SCORE.norm>
-1.6987

>  <RMSD>
0.736

$$$$
ligand
 OpenBabel11021811423D
libRbt.so/2013.1/901 2013/11/27
 10 11  0  0  0  0  0  0  0  0999 V2000
  -12.0484  -10.8689    8.7521 N   0  0  0  0  0  0  0  0  0  0  0  0
  -11.9085  -12.2448    8.9443 C   0  0  0  0  0  0  0  0  0  0  0  0
  -11.5692  -13.0803    7.9464 N   0  0  0  0  0  0  0  0  0  0  0  0
  -11.3735  -12.4303    6.7311 C   0  0  0  0  0  0  0  0  0  0  0  0
  -11.4966  -11.0689    6.4474 C   0  0  0  0  0  0  0  0  0  0  0  0
  -11.8659  -10.1714    7.5107 C   0  0  0  0  0  0  0  0  0  0  0  0
  -12.0311   -8.9755    7.5165 O   0  0  0  0  0  0  0  0  0  0  0  0
  -11.1955  -10.8608    5.0890 N   0  0  0  0  0  0  0  0  0  0  0  0
  -10.8960  -12.0917    4.5933 C   0  0  0  0  0  0  0  0  0  0  0  0
  -10.9986  -13.0776    5.5847 N   0  0  0  0  0  0  0  0  0  0  0  0
  1  2  1  0  0  0  0
  1  6  1  0  0  0  0
  2  3  2  0  0  0  0
  3  4  1  0  0  0  0
  4  5  2  0  0  0  0
  4 10  1  0  0  0  0
  5  6  1  0  0  0  0
  5  8  1  0  0  0  0
  6  7  2  0  0  0  0
  8  9  1  0  0  0  0
  9 10  2  0  0  0  0
M  END
>  <CHROM.1>
-11.54805473,-11.44046662,6.92568579,3.10307527,1.30310215,-0.53131408

>  <Name>
ligand

>  <RI>
0

>  <Rbt.Current_Directory>
/home/itssahil/PROJECTS/Mol_Feturizer/New_Systems/rnas/2EES

>  <Rbt.Executable>
rbdock ($Id: //depot/dev/client3/rdock/2013.1/src/exe/rbdock.cxx#4 $)

>  <Rbt.Library>
libRbt.so (2013.1, Build901 2013/11/27)

>  <Rbt.Parameter_File>
/export/apps/rDock/src/rDock_2013.1_src/data/scripts/dock_solv.prm

>  <Rbt.Receptor>
prm/blind_docking_100.prm

>  <SCORE>
-16.9677

>  <SCORE.INTER>
-16.9677

>  <SCORE.INTER.CONST>
1

>  <SCORE.INTER.POLAR>
0

>  <SCORE.INTER.ROT>
0

>  <SCORE.INTER.SOLV>
3.6721

>  <SCORE.INTER.VDW>
-16.1358

>  <SCORE.INTER.norm>
-1.69677

>  <SCORE.INTRA>
0

>  <SCORE.INTRA.DIHEDRAL>
0

>  <SCORE.INTRA.DIHEDRAL.0>
0

>  <SCORE.INTRA.POLAR>
0

>  <SCORE.INTRA.POLAR.0>
0

>  <SCORE.INTRA.REPUL>
0

>  <SCORE.INTRA.REPUL.0>
0

>  <SCORE.INTRA.SOLV>
0

>  <SCORE.INTRA.SOLV.lig_0>
-4.28614

>  <SCORE.INTRA.VDW>
0

>  <SCORE.INTRA.VDW.0>
0

>  <SCORE.INTRA.norm>
0

>  <SCORE.RESTR>
0

>  <SCORE.RESTR.CAVITY>
0

>  <SCORE.RESTR.norm>
0

>  <SCORE.SYSTEM>
0

>  <SCORE.SYSTEM.CONST>
0

>  <SCORE.SYSTEM.DIHEDRAL>
0

>  <SCORE.SYSTEM.SOLV>
0

>  <SCORE.SYSTEM.norm>
0

>  <SCORE.heavy>
10

>  <SCORE.norm>
-1.69677

>  <RMSD>
0.737

$$$$
ligand
 OpenBabel11021811423D
libRbt.so/2013.1/901 2013/11/27
 10 11  0  0  0  0  0  0  0  0999 V2000
  -12.0681  -10.8978    8.7379 N   0  0  0  0  0  0  0  0  0  0  0  0
  -11.8822  -12.2693    8.9219 C   0  0  0  0  0  0  0  0  0  0  0  0
  -11.5026  -13.0849    7.9220 N   0  0  0  0  0  0  0  0  0  0  0  0
  -11.3162  -12.4192    6.7137 C   0  0  0  0  0  0  0  0  0  0  0  0
  -11.4839  -11.0608    6.4383 C   0  0  0  0  0  0  0  0  0  0  0  0
  -11.8963  -10.1850    7.5038 C   0  0  0  0  0  0  0  0  0  0  0  0
  -12.1035   -8.9956    7.5163 O   0  0  0  0  0  0  0  0  0  0  0  0
  -11.1750  -10.8320    5.0850 N   0  0  0  0  0  0  0  0  0  0  0  0
  -10.8269  -12.0479    4.5840 C   0  0  0  0  0  0  0  0  0  0  0  0
  -10.9060  -13.0443    5.5671 N   0  0  0  0  0  0  0  0  0  0  0  0
  1  2  1  0  0  0  0
  1  6  1  0  0  0  0
  2  3  2  0  0  0  0
  3  4  1  0  0  0  0
  4  5  2  0  0  0  0
  4 10  1  0  0  0  0
  5  6  1  0  0  0  0
  5  8  1  0  0  0  0
  6  7  2  0  0  0  0
  8  9  1  0  0  0  0
  9 10  2  0  0  0  0
M  END
>  <CHROM.1>
-11.52758937,-11.43762208,6.91334475,-3.09572628,1.27464348,-0.60500353

>  <Name>
ligand

>  <RI>
0

>  <Rbt.Current_Directory>
/home/itssahil/PROJECTS/Mol_Feturizer/New_Systems/rnas/2EES

>  <Rbt.Executable>
rbdock ($Id: //depot/dev/client3/rdock/2013.1/src/exe/rbdock.cxx#4 $)

>  <Rbt.Library>
libRbt.so (2013.1, Build901 2013/11/27)

>  <Rbt.Parameter_File>
/export/apps/rDock/src/rDock_2013.1_src/data/scripts/dock_solv.prm

>  <Rbt.Receptor>
prm/pocket_docking_7.prm

>  <SCORE>
-17.0011

>  <SCORE.INTER>
-17.0011

>  <SCORE.INTER.CONST>
1

>  <SCORE.INTER.POLAR>
0

>  <SCORE.INTER.ROT>
0

>  <SCORE.INTER.SOLV>
3.55646

>  <SCORE.INTER.VDW>
-16.1196

>  <SCORE.INTER.norm>
-1.70011

>  <SCORE.INTRA>
0

>  <SCORE.INTRA.DIHEDRAL>
0

>  <SCORE.INTRA.DIHEDRAL.0>
0

>  <SCORE.INTRA.POLAR>
0

>  <SCORE.INTRA.POLAR.0>
0

>  <SCORE.INTRA.REPUL>
0

>  <SCORE.INTRA.REPUL.0>
0

>  <SCORE.INTRA.SOLV>
0

>  <SCORE.INTRA.SOLV.lig_0>
-4.28614

>  <SCORE.INTRA.VDW>
0

>  <SCORE.INTRA.VDW.0>
0

>  <SCORE.INTRA.norm>
0

>  <SCORE.RESTR>
0

>  <SCORE.RESTR.CAVITY>
0

>  <SCORE.RESTR.norm>
0

>  <SCORE.SYSTEM>
0

>  <SCORE.SYSTEM.CONST>
0

>  <SCORE.SYSTEM.DIHEDRAL>
0

>  <SCORE.SYSTEM.SOLV>
0

>  <SCORE.SYSTEM.norm>
0

>  <SCORE.heavy>
10

>  <SCORE.norm>
-1.70011

>  <RMSD>
0.737

$$$$
ligand
 OpenBabel11021811423D
libRbt.so/2013.1/901 2013/11/27
 10 11  0  0  0  0  0  0  0  0999 V2000
  -12.0387  -10.9287    8.7490 N   0  0  0  0  0  0  0  0  0  0  0  0
  -11.8982  -12.3074    8.9190 C   0  0  0  0  0  0  0  0  0  0  0  0
  -11.5608  -13.1269    7.9072 N   0  0  0  0  0  0  0  0  0  0  0  0
  -11.3677  -12.4575    6.7021 C   0  0  0  0  0  0  0  0  0  0  0  0
  -11.4916  -11.0918    6.4403 C   0  0  0  0  0  0  0  0  0  0  0  0
  -11.8589  -10.2115    7.5186 C   0  0  0  0  0  0  0  0  0  0  0  0
  -12.0242   -9.0158    7.5438 O   0  0  0  0  0  0  0  0  0  0  0  0
  -11.1932  -10.8620    5.0848 N   0  0  0  0  0  0  0  0  0  0  0  0
  -10.8945  -12.0848    4.5690 C   0  0  0  0  0  0  0  0  0  0  0  0
  -10.9950  -13.0864    5.5448 N   0  0  0  0  0  0  0  0  0  0  0  0
  1  2  1  0  0  0  0
  1  6  1  0  0  0  0
  2  3  2  0  0  0  0
  3  4  1  0  0  0  0
  4  5  2  0  0  0  0
  4 10  1  0  0  0  0
  5  6  1  0  0  0  0
  5  8  1  0  0  0  0
  6  7  2  0  0  0  0
  8  9  1  0  0  0  0
  9 10  2  0  0  0  0
M  END
>  <CHROM.1>
-11.54198506,-11.47095411,6.91275637,3.10755736,1.30476132,-0.51969977

>  <Name>
ligand

>  <RI>
0

>  <Rbt.Current_Directory>
/home/itssahil/PROJECTS/Mol_Feturizer/New_Systems/rnas/2EES

>  <Rbt.Executable>
rbdock ($Id: //depot/dev/client3/rdock/2013.1/src/exe/rbdock.cxx#4 $)

>  <Rbt.Library>
libRbt.so (2013.1, Build901 2013/11/27)

>  <Rbt.Parameter_File>
/export/apps/rDock/src/rDock_2013.1_src/data/scripts/dock_solv.prm

>  <Rbt.Receptor>
prm/blind_docking_60.prm

>  <SCORE>
-17.0003

>  <SCORE.INTER>
-17.0003

>  <SCORE.INTER.CONST>
1

>  <SCORE.INTER.POLAR>
0

>  <SCORE.INTER.ROT>
0

>  <SCORE.INTER.SOLV>
3.66885

>  <SCORE.INTER.VDW>
-16.1565

>  <SCORE.INTER.norm>
-1.70003

>  <SCORE.INTRA>
0

>  <SCORE.INTRA.DIHEDRAL>
0

>  <SCORE.INTRA.DIHEDRAL.0>
0

>  <SCORE.INTRA.POLAR>
0

>  <SCORE.INTRA.POLAR.0>
0

>  <SCORE.INTRA.REPUL>
0

>  <SCORE.INTRA.REPUL.0>
0

>  <SCORE.INTRA.SOLV>
0

>  <SCORE.INTRA.SOLV.lig_0>
-4.28614

>  <SCORE.INTRA.VDW>
0

>  <SCORE.INTRA.VDW.0>
0

>  <SCORE.INTRA.norm>
0

>  <SCORE.RESTR>
0

>  <SCORE.RESTR.CAVITY>
0

>  <SCORE.RESTR.norm>
0

>  <SCORE.SYSTEM>
0

>  <SCORE.SYSTEM.CONST>
0

>  <SCORE.SYSTEM.DIHEDRAL>
0

>  <SCORE.SYSTEM.SOLV>
0

>  <SCORE.SYSTEM.norm>
0

>  <SCORE.heavy>
10

>  <SCORE.norm>
-1.70003

>  <RMSD>
0.740

$$$$
ligand
 OpenBabel11021811423D
libRbt.so/2013.1/901 2013/11/27
 10 11  0  0  0  0  0  0  0  0999 V2000
  -12.0176  -10.9708    8.7520 N   0  0  0  0  0  0  0  0  0  0  0  0
  -11.8525  -12.3488    8.9050 C   0  0  0  0  0  0  0  0  0  0  0  0
  -11.5099  -13.1509    7.8812 N   0  0  0  0  0  0  0  0  0  0  0  0
  -11.3384  -12.4648    6.6822 C   0  0  0  0  0  0  0  0  0  0  0  0
  -11.4876  -11.0986    6.4371 C   0  0  0  0  0  0  0  0  0  0  0  0
  -11.8604  -10.2368    7.5284 C   0  0  0  0  0  0  0  0  0  0  0  0
  -12.0457   -9.0445    7.5686 O   0  0  0  0  0  0  0  0  0  0  0  0
  -11.2048  -10.8485    5.0819 N   0  0  0  0  0  0  0  0  0  0  0  0
  -10.8899  -12.0601    4.5496 C   0  0  0  0  0  0  0  0  0  0  0  0
  -10.9651  -13.0742    5.5146 N   0  0  0  0  0  0  0  0  0  0  0  0
  1  2  1  0  0  0  0
  1  6  1  0  0  0  0
  2  3  2  0  0  0  0
  3  4  1  0  0  0  0
  4  5  2  0  0  0  0
  4 10  1  0  0  0  0
  5  6  1  0  0  0  0
  5  8  1  0  0  0  0
  6  7  2  0  0  0  0
  8  9  1  0  0  0  0
  9 10  2  0  0  0  0
M  END
>  <CHROM.1>
-11.52753313,-11.48383931,6.90555312,-3.10417979,1.30316413,-0.57725917

>  <Name>
ligand

>  <RI>
0

>  <Rbt.Current_Directory>
/home/itssahil/PROJECTS/Mol_Feturizer/New_Systems/rnas/2EES

>  <Rbt.Executable>
rbdock ($Id: //depot/dev/client3/rdock/2013.1/src/exe/rbdock.cxx#4 $)

>  <Rbt.Library>
libRbt.so (2013.1, Build901 2013/11/27)

>  <Rbt.Parameter_File>
/export/apps/rDock/src/rDock_2013.1_src/data/scripts/dock_solv.prm

>  <Rbt.Receptor>
prm/blind_docking_60.prm

>  <SCORE>
-17.0193

>  <SCORE.INTER>
-17.0193

>  <SCORE.INTER.CONST>
1

>  <SCORE.INTER.POLAR>
0

>  <SCORE.INTER.ROT>
0

>  <SCORE.INTER.SOLV>
3.63921

>  <SCORE.INTER.VDW>
-16.1593

>  <SCORE.INTER.norm>
-1.70193

>  <SCORE.INTRA>
0

>  <SCORE.INTRA.DIHEDRAL>
0

>  <SCORE.INTRA.DIHEDRAL.0>
0

>  <SCORE.INTRA.POLAR>
0

>  <SCORE.INTRA.POLAR.0>
0

>  <SCORE.INTRA.REPUL>
0

>  <SCORE.INTRA.REPUL.0>
0

>  <SCORE.INTRA.SOLV>
0

>  <SCORE.INTRA.SOLV.lig_0>
-4.28614

>  <SCORE.INTRA.VDW>
0

>  <SCORE.INTRA.VDW.0>
0

>  <SCORE.INTRA.norm>
0

>  <SCORE.RESTR>
0

>  <SCORE.RESTR.CAVITY>
0

>  <SCORE.RESTR.norm>
0

>  <SCORE.SYSTEM>
0

>  <SCORE.SYSTEM.CONST>
0

>  <SCORE.SYSTEM.DIHEDRAL>
0

>  <SCORE.SYSTEM.SOLV>
0

>  <SCORE.SYSTEM.norm>
0

>  <SCORE.heavy>
10

>  <SCORE.norm>
-1.70193

>  <RMSD>
0.740

$$$$
ligand
 OpenBabel11021811423D
libRbt.so/2013.1/901 2013/11/27
 10 11  0  0  0  0  0  0  0  0999 V2000
  -12.0679  -10.8913    8.7360 N   0  0  0  0  0  0  0  0  0  0  0  0
  -11.8898  -12.2640    8.9191 C   0  0  0  0  0  0  0  0  0  0  0  0
  -11.5148  -13.0810    7.9187 N   0  0  0  0  0  0  0  0  0  0  0  0
  -11.3245  -12.4157    6.7109 C   0  0  0  0  0  0  0  0  0  0  0  0
  -11.4845  -11.0562    6.4363 C   0  0  0  0  0  0  0  0  0  0  0  0
  -11.8920  -10.1787    7.5023 C   0  0  0  0  0  0  0  0  0  0  0  0
  -12.0924   -8.9882    7.5155 O   0  0  0  0  0  0  0  0  0  0  0  0
  -11.1742  -10.8284    5.0832 N   0  0  0  0  0  0  0  0  0  0  0  0
  -10.8330  -12.0459    4.5814 C   0  0  0  0  0  0  0  0  0  0  0  0
  -10.9178  -13.0424    5.5639 N   0  0  0  0  0  0  0  0  0  0  0  0
  1  2  1  0  0  0  0
  1  6  1  0  0  0  0
  2  3  2  0  0  0  0
  3  4  1  0  0  0  0
  4  5  2  0  0  0  0
  4 10  1  0  0  0  0
  5  6  1  0  0  0  0
  5  8  1  0  0  0  0
  6  7  2  0  0  0  0
  8  9  1  0  0  0  0
  9 10  2  0  0  0  0
M  END
>  <CHROM.1>
-11.53034810,-11.43305362,6.91112181,-3.11203842,1.27777402,-0.58878121

>  <Name>
ligand

>  <RI>
0

>  <Rbt.Current_Directory>
/home/itssahil/PROJECTS/Mol_Feturizer/New_Systems/rnas/2EES

>  <Rbt.Executable>
rbdock ($Id: //depot/dev/client3/rdock/2013.1/src/exe/rbdock.cxx#4 $)

>  <Rbt.Library>
libRbt.so (2013.1, Build901 2013/11/27)

>  <Rbt.Parameter_File>
/export/apps/rDock/src/rDock_2013.1_src/data/scripts/dock_solv.prm

>  <Rbt.Receptor>
prm/pocket_docking_6.prm

>  <SCORE>
-17.0049

>  <SCORE.INTER>
-17.0049

>  <SCORE.INTER.CONST>
1

>  <SCORE.INTER.POLAR>
0

>  <SCORE.INTER.ROT>
0

>  <SCORE.INTER.SOLV>
3.57416

>  <SCORE.INTER.VDW>
-16.128

>  <SCORE.INTER.norm>
-1.70049

>  <SCORE.INTRA>
0

>  <SCORE.INTRA.DIHEDRAL>
0

>  <SCORE.INTRA.DIHEDRAL.0>
0

>  <SCORE.INTRA.POLAR>
0

>  <SCORE.INTRA.POLAR.0>
0

>  <SCORE.INTRA.REPUL>
0

>  <SCORE.INTRA.REPUL.0>
0

>  <SCORE.INTRA.SOLV>
0

>  <SCORE.INTRA.SOLV.lig_0>
-4.28614

>  <SCORE.INTRA.VDW>
0

>  <SCORE.INTRA.VDW.0>
0

>  <SCORE.INTRA.norm>
0

>  <SCORE.RESTR>
0

>  <SCORE.RESTR.CAVITY>
0

>  <SCORE.RESTR.norm>
0

>  <SCORE.SYSTEM>
0

>  <SCORE.SYSTEM.CONST>
0

>  <SCORE.SYSTEM.DIHEDRAL>
0

>  <SCORE.SYSTEM.SOLV>
0

>  <SCORE.SYSTEM.norm>
0

>  <SCORE.heavy>
10

>  <SCORE.norm>
-1.70049

>  <RMSD>
0.742

$$$$
ligand
 OpenBabel11021811423D
libRbt.so/2013.1/901 2013/11/27
 10 11  0  0  0  0  0  0  0  0999 V2000
  -12.0199  -10.9615    8.7464 N   0  0  0  0  0  0  0  0  0  0  0  0
  -11.8532  -12.3387    8.9045 C   0  0  0  0  0  0  0  0  0  0  0  0
  -11.5078  -13.1440    7.8841 N   0  0  0  0  0  0  0  0  0  0  0  0
  -11.3349  -12.4618    6.6830 C   0  0  0  0  0  0  0  0  0  0  0  0
  -11.4855  -11.0966    6.4329 C   0  0  0  0  0  0  0  0  0  0  0  0
  -11.8614  -10.2315    7.5206 C   0  0  0  0  0  0  0  0  0  0  0  0
  -12.0483   -9.0393    7.5564 O   0  0  0  0  0  0  0  0  0  0  0  0
  -11.2004  -10.8508    5.0774 N   0  0  0  0  0  0  0  0  0  0  0  0
  -10.8830  -12.0639    4.5499 C   0  0  0  0  0  0  0  0  0  0  0  0
  -10.9587  -13.0747    5.5183 N   0  0  0  0  0  0  0  0  0  0  0  0
  1  2  1  0  0  0  0
  1  6  1  0  0  0  0
  2  3  2  0  0  0  0
  3  4  1  0  0  0  0
  4  5  2  0  0  0  0
  4 10  1  0  0  0  0
  5  6  1  0  0  0  0
  5  8  1  0  0  0  0
  6  7  2  0  0  0  0
  8  9  1  0  0  0  0
  9 10  2  0  0  0  0
M  END
>  <CHROM.1>
-11.52575179,-11.48026689,6.90267135,-3.10386693,1.30090852,-0.58101954

>  <Name>
ligand

>  <RI>
0

>  <Rbt.Current_Directory>
/home/itssahil/PROJECTS/Mol_Feturizer/New_Systems/rnas/2EES

>  <Rbt.Executable>
rbdock ($Id: //depot/dev/client3/rdock/2013.1/src/exe/rbdock.cxx#4 $)

>  <Rbt.Library>
libRbt.so (2013.1, Build901 2013/11/27)

>  <Rbt.Parameter_File>
/export/apps/rDock/src/rDock_2013.1_src/data/scripts/dock_solv.prm

>  <Rbt.Receptor>
prm/blind_docking_80.prm

>  <SCORE>
-17.0194

>  <SCORE.INTER>
-17.0194

>  <SCORE.INTER.CONST>
1

>  <SCORE.INTER.POLAR>
0

>  <SCORE.INTER.ROT>
0

>  <SCORE.INTER.SOLV>
3.63452

>  <SCORE.INTER.VDW>
-16.1577

>  <SCORE.INTER.norm>
-1.70194

>  <SCORE.INTRA>
0

>  <SCORE.INTRA.DIHEDRAL>
0

>  <SCORE.INTRA.DIHEDRAL.0>
0

>  <SCORE.INTRA.POLAR>
0

>  <SCORE.INTRA.POLAR.0>
0

>  <SCORE.INTRA.REPUL>
0

>  <SCORE.INTRA.REPUL.0>
0

>  <SCORE.INTRA.SOLV>
0

>  <SCORE.INTRA.SOLV.lig_0>
-4.28614

>  <SCORE.INTRA.VDW>
0

>  <SCORE.INTRA.VDW.0>
0

>  <SCORE.INTRA.norm>
0

>  <SCORE.RESTR>
0

>  <SCORE.RESTR.CAVITY>
0

>  <SCORE.RESTR.norm>
0

>  <SCORE.SYSTEM>
0

>  <SCORE.SYSTEM.CONST>
0

>  <SCORE.SYSTEM.DIHEDRAL>
0

>  <SCORE.SYSTEM.SOLV>
0

>  <SCORE.SYSTEM.norm>
0

>  <SCORE.heavy>
10

>  <SCORE.norm>
-1.70194

>  <RMSD>
0.743

$$$$
ligand
 OpenBabel11021811423D
libRbt.so/2013.1/901 2013/11/27
 10 11  0  0  0  0  0  0  0  0999 V2000
  -12.0285  -10.9005    8.7415 N   0  0  0  0  0  0  0  0  0  0  0  0
  -11.8284  -12.2700    8.9261 C   0  0  0  0  0  0  0  0  0  0  0  0
  -11.4667  -13.0867    7.9205 N   0  0  0  0  0  0  0  0  0  0  0  0
  -11.3138  -12.4244    6.7057 C   0  0  0  0  0  0  0  0  0  0  0  0
  -11.4977  -11.0683    6.4293 C   0  0  0  0  0  0  0  0  0  0  0  0
  -11.8912  -10.1913    7.5010 C   0  0  0  0  0  0  0  0  0  0  0  0
  -12.1065   -9.0034    7.5139 O   0  0  0  0  0  0  0  0  0  0  0  0
  -11.2226  -10.8426    5.0682 N   0  0  0  0  0  0  0  0  0  0  0  0
  -10.8777  -12.0579    4.5636 C   0  0  0  0  0  0  0  0  0  0  0  0
  -10.9263  -13.0510    5.5520 N   0  0  0  0  0  0  0  0  0  0  0  0
  1  2  1  0  0  0  0
  1  6  1  0  0  0  0
  2  3  2  0  0  0  0
  3  4  1  0  0  0  0
  4  5  2  0  0  0  0
  4 10  1  0  0  0  0
  5  6  1  0  0  0  0
  5  8  1  0  0  0  0
  6  7  2  0  0  0  0
  8  9  1  0  0  0  0
  9 10  2  0  0  0  0
M  END
>  <CHROM.1>
-11.52743060,-11.44356829,6.90662160,-3.02581884,1.28933263,-0.67582349

>  <Name>
ligand

>  <RI>
0

>  <Rbt.Current_Directory>
/home/itssahil/PROJECTS/Mol_Feturizer/New_Systems/rnas/2EES

>  <Rbt.Executable>
rbdock ($Id: //depot/dev/client3/rdock/2013.1/src/exe/rbdock.cxx#4 $)

>  <Rbt.Library>
libRbt.so (2013.1, Build901 2013/11/27)

>  <Rbt.Parameter_File>
/export/apps/rDock/src/rDock_2013.1_src/data/scripts/dock_solv.prm

>  <Rbt.Receptor>
prm/pocket_docking_4.prm

>  <SCORE>
-16.982

>  <SCORE.INTER>
-16.982

>  <SCORE.INTER.CONST>
1

>  <SCORE.INTER.POLAR>
0

>  <SCORE.INTER.ROT>
0

>  <SCORE.INTER.SOLV>
3.57001

>  <SCORE.INTER.VDW>
-16.1114

>  <SCORE.INTER.norm>
-1.6982

>  <SCORE.INTRA>
0

>  <SCORE.INTRA.DIHEDRAL>
0

>  <SCORE.INTRA.DIHEDRAL.0>
0

>  <SCORE.INTRA.POLAR>
0

>  <SCORE.INTRA.POLAR.0>
0

>  <SCORE.INTRA.REPUL>
0

>  <SCORE.INTRA.REPUL.0>
0

>  <SCORE.INTRA.SOLV>
0

>  <SCORE.INTRA.SOLV.lig_0>
-4.28614

>  <SCORE.INTRA.VDW>
0

>  <SCORE.INTRA.VDW.0>
0

>  <SCORE.INTRA.norm>
0

>  <SCORE.RESTR>
0

>  <SCORE.RESTR.CAVITY>
0

>  <SCORE.RESTR.norm>
0

>  <SCORE.SYSTEM>
0

>  <SCORE.SYSTEM.CONST>
0

>  <SCORE.SYSTEM.DIHEDRAL>
0

>  <SCORE.SYSTEM.SOLV>
0

>  <SCORE.SYSTEM.norm>
0

>  <SCORE.heavy>
10

>  <SCORE.norm>
-1.6982

>  <RMSD>
0.743

$$$$
ligand
 OpenBabel11021811423D
libRbt.so/2013.1/901 2013/11/27
 10 11  0  0  0  0  0  0  0  0999 V2000
  -12.0145  -10.9593    8.7559 N   0  0  0  0  0  0  0  0  0  0  0  0
  -11.8545  -12.3381    8.9077 C   0  0  0  0  0  0  0  0  0  0  0  0
  -11.5215  -13.1414    7.8816 N   0  0  0  0  0  0  0  0  0  0  0  0
  -11.3540  -12.4557    6.6818 C   0  0  0  0  0  0  0  0  0  0  0  0
  -11.4987  -11.0888    6.4379 C   0  0  0  0  0  0  0  0  0  0  0  0
  -11.8613  -10.2257    7.5316 C   0  0  0  0  0  0  0  0  0  0  0  0
  -12.0411   -9.0326    7.5732 O   0  0  0  0  0  0  0  0  0  0  0  0
  -11.2227  -10.8395    5.0811 N   0  0  0  0  0  0  0  0  0  0  0  0
  -10.9163  -12.0524    4.5467 C   0  0  0  0  0  0  0  0  0  0  0  0
  -10.9903  -13.0664    5.5119 N   0  0  0  0  0  0  0  0  0  0  0  0
  1  2  1  0  0  0  0
  1  6  1  0  0  0  0
  2  3  2  0  0  0  0
  3  4  1  0  0  0  0
  4  5  2  0  0  0  0
  4 10  1  0  0  0  0
  5  6  1  0  0  0  0
  5  8  1  0  0  0  0
  6  7  2  0  0  0  0
  8  9  1  0  0  0  0
  9 10  2  0  0  0  0
M  END
>  <CHROM.1>
-11.53754310,-11.47400534,6.90650107,-3.10600334,1.31048571,-0.57523387

>  <Name>
ligand

>  <RI>
0

>  <Rbt.Current_Directory>
/home/itssahil/PROJECTS/Mol_Feturizer/New_Systems/rnas/2EES

>  <Rbt.Executable>
rbdock ($Id: //depot/dev/client3/rdock/2013.1/src/exe/rbdock.cxx#4 $)

>  <Rbt.Library>
libRbt.so (2013.1, Build901 2013/11/27)

>  <Rbt.Parameter_File>
/export/apps/rDock/src/rDock_2013.1_src/data/scripts/dock_solv.prm

>  <Rbt.Receptor>
prm/pocket_docking_7.prm

>  <SCORE>
-17.0001

>  <SCORE.INTER>
-17.0001

>  <SCORE.INTER.CONST>
1

>  <SCORE.INTER.POLAR>
0

>  <SCORE.INTER.ROT>
0

>  <SCORE.INTER.SOLV>
3.65875

>  <SCORE.INTER.VDW>
-16.153

>  <SCORE.INTER.norm>
-1.70001

>  <SCORE.INTRA>
0

>  <SCORE.INTRA.DIHEDRAL>
0

>  <SCORE.INTRA.DIHEDRAL.0>
0

>  <SCORE.INTRA.POLAR>
0

>  <SCORE.INTRA.POLAR.0>
0

>  <SCORE.INTRA.REPUL>
0

>  <SCORE.INTRA.REPUL.0>
0

>  <SCORE.INTRA.SOLV>
0

>  <SCORE.INTRA.SOLV.lig_0>
-4.28614

>  <SCORE.INTRA.VDW>
0

>  <SCORE.INTRA.VDW.0>
0

>  <SCORE.INTRA.norm>
0

>  <SCORE.RESTR>
0

>  <SCORE.RESTR.CAVITY>
0

>  <SCORE.RESTR.norm>
0

>  <SCORE.SYSTEM>
0

>  <SCORE.SYSTEM.CONST>
0

>  <SCORE.SYSTEM.DIHEDRAL>
0

>  <SCORE.SYSTEM.SOLV>
0

>  <SCORE.SYSTEM.norm>
0

>  <SCORE.heavy>
10

>  <SCORE.norm>
-1.70001

>  <RMSD>
0.743

$$$$
ligand
 OpenBabel11021811423D
libRbt.so/2013.1/901 2013/11/27
 10 11  0  0  0  0  0  0  0  0999 V2000
  -12.0144  -10.9626    8.7462 N   0  0  0  0  0  0  0  0  0  0  0  0
  -11.8522  -12.3405    8.9032 C   0  0  0  0  0  0  0  0  0  0  0  0
  -11.5091  -13.1459    7.8821 N   0  0  0  0  0  0  0  0  0  0  0  0
  -11.3338  -12.4633    6.6817 C   0  0  0  0  0  0  0  0  0  0  0  0
  -11.4799  -11.0974    6.4327 C   0  0  0  0  0  0  0  0  0  0  0  0
  -11.8532  -10.2321    7.5210 C   0  0  0  0  0  0  0  0  0  0  0  0
  -12.0363   -9.0393    7.5577 O   0  0  0  0  0  0  0  0  0  0  0  0
  -11.1937  -10.8514    5.0774 N   0  0  0  0  0  0  0  0  0  0  0  0
  -10.8801  -12.0650    4.5490 C   0  0  0  0  0  0  0  0  0  0  0  0
  -10.9593  -13.0764    5.5165 N   0  0  0  0  0  0  0  0  0  0  0  0
  1  2  1  0  0  0  0
  1  6  1  0  0  0  0
  2  3  2  0  0  0  0
  3  4  1  0  0  0  0
  4  5  2  0  0  0  0
  4 10  1  0  0  0  0
  5  6  1  0  0  0  0
  5  8  1  0  0  0  0
  6  7  2  0  0  0  0
  8  9  1  0  0  0  0
  9 10  2  0  0  0  0
M  END
>  <CHROM.1>
-11.52149973,-11.48135750,6.90210506,-3.11452492,1.30247151,-0.56989699

>  <Name>
ligand

>  <RI>
0

>  <Rbt.Current_Directory>
/home/itssahil/PROJECTS/Mol_Feturizer/New_Systems/rnas/2EES

>  <Rbt.Executable>
rbdock ($Id: //depot/dev/client3/rdock/2013.1/src/exe/rbdock.cxx#4 $)

>  <Rbt.Library>
libRbt.so (2013.1, Build901 2013/11/27)

>  <Rbt.Parameter_File>
/export/apps/rDock/src/rDock_2013.1_src/data/scripts/dock_solv.prm

>  <Rbt.Receptor>
prm/blind_docking_80.prm

>  <SCORE>
-17.0205

>  <SCORE.INTER>
-17.0205

>  <SCORE.INTER.CONST>
1

>  <SCORE.INTER.POLAR>
0

>  <SCORE.INTER.ROT>
0

>  <SCORE.INTER.SOLV>
3.6478

>  <SCORE.INTER.VDW>
-16.1629

>  <SCORE.INTER.norm>
-1.70205

>  <SCORE.INTRA>
0

>  <SCORE.INTRA.DIHEDRAL>
0

>  <SCORE.INTRA.DIHEDRAL.0>
0

>  <SCORE.INTRA.POLAR>
0

>  <SCORE.INTRA.POLAR.0>
0

>  <SCORE.INTRA.REPUL>
0

>  <SCORE.INTRA.REPUL.0>
0

>  <SCORE.INTRA.SOLV>
0

>  <SCORE.INTRA.SOLV.lig_0>
-4.28614

>  <SCORE.INTRA.VDW>
0

>  <SCORE.INTRA.VDW.0>
0

>  <SCORE.INTRA.norm>
0

>  <SCORE.RESTR>
0

>  <SCORE.RESTR.CAVITY>
0

>  <SCORE.RESTR.norm>
0

>  <SCORE.SYSTEM>
0

>  <SCORE.SYSTEM.CONST>
0

>  <SCORE.SYSTEM.DIHEDRAL>
0

>  <SCORE.SYSTEM.SOLV>
0

>  <SCORE.SYSTEM.norm>
0

>  <SCORE.heavy>
10

>  <SCORE.norm>
-1.70205

>  <RMSD>
0.745

$$$$
ligand
 OpenBabel11021811423D
libRbt.so/2013.1/901 2013/11/27
 10 11  0  0  0  0  0  0  0  0999 V2000
  -12.0180  -10.9110    8.7483 N   0  0  0  0  0  0  0  0  0  0  0  0
  -11.8785  -12.2890    8.9248 C   0  0  0  0  0  0  0  0  0  0  0  0
  -11.5476  -13.1142    7.9155 N   0  0  0  0  0  0  0  0  0  0  0  0
  -11.3600  -12.4514    6.7058 C   0  0  0  0  0  0  0  0  0  0  0  0
  -11.4835  -11.0869    6.4376 C   0  0  0  0  0  0  0  0  0  0  0  0
  -11.8438  -10.2005    7.5132 C   0  0  0  0  0  0  0  0  0  0  0  0
  -12.0075   -9.0045    7.5330 O   0  0  0  0  0  0  0  0  0  0  0  0
  -11.1921  -10.8646    5.0794 N   0  0  0  0  0  0  0  0  0  0  0  0
  -10.8977  -12.0905    4.5683 C   0  0  0  0  0  0  0  0  0  0  0  0
  -10.9943  -13.0868    5.5498 N   0  0  0  0  0  0  0  0  0  0  0  0
  1  2  1  0  0  0  0
  1  6  1  0  0  0  0
  2  3  2  0  0  0  0
  3  4  1  0  0  0  0
  4  5  2  0  0  0  0
  4 10  1  0  0  0  0
  5  6  1  0  0  0  0
  5  8  1  0  0  0  0
  6  7  2  0  0  0  0
  8  9  1  0  0  0  0
  9 10  2  0  0  0  0
M  END
>  <CHROM.1>
-11.53185866,-11.46352292,6.91226515,3.11337554,1.31005519,-0.53054477

>  <Name>
ligand

>  <RI>
0

>  <Rbt.Current_Directory>
/home/itssahil/PROJECTS/Mol_Feturizer/New_Systems/rnas/2EES

>  <Rbt.Executable>
rbdock ($Id: //depot/dev/client3/rdock/2013.1/src/exe/rbdock.cxx#4 $)

>  <Rbt.Library>
libRbt.so (2013.1, Build901 2013/11/27)

>  <Rbt.Parameter_File>
/export/apps/rDock/src/rDock_2013.1_src/data/scripts/dock_solv.prm

>  <Rbt.Receptor>
prm/pocket_docking_4.prm

>  <SCORE>
-16.9665

>  <SCORE.INTER>
-16.9665

>  <SCORE.INTER.CONST>
1

>  <SCORE.INTER.POLAR>
0

>  <SCORE.INTER.ROT>
0

>  <SCORE.INTER.SOLV>
3.69259

>  <SCORE.INTER.VDW>
-16.1419

>  <SCORE.INTER.norm>
-1.69665

>  <SCORE.INTRA>
0

>  <SCORE.INTRA.DIHEDRAL>
0

>  <SCORE.INTRA.DIHEDRAL.0>
0

>  <SCORE.INTRA.POLAR>
0

>  <SCORE.INTRA.POLAR.0>
0

>  <SCORE.INTRA.REPUL>
0

>  <SCORE.INTRA.REPUL.0>
0

>  <SCORE.INTRA.SOLV>
0

>  <SCORE.INTRA.SOLV.lig_0>
-4.28614

>  <SCORE.INTRA.VDW>
0

>  <SCORE.INTRA.VDW.0>
0

>  <SCORE.INTRA.norm>
0

>  <SCORE.RESTR>
0

>  <SCORE.RESTR.CAVITY>
0

>  <SCORE.RESTR.norm>
0

>  <SCORE.SYSTEM>
0

>  <SCORE.SYSTEM.CONST>
0

>  <SCORE.SYSTEM.DIHEDRAL>
0

>  <SCORE.SYSTEM.SOLV>
0

>  <SCORE.SYSTEM.norm>
0

>  <SCORE.heavy>
10

>  <SCORE.norm>
-1.69665

>  <RMSD>
0.745

$$$$
ligand
 OpenBabel11021811423D
libRbt.so/2013.1/901 2013/11/27
 10 11  0  0  0  0  0  0  0  0999 V2000
  -12.0579  -10.8489    8.7316 N   0  0  0  0  0  0  0  0  0  0  0  0
  -11.8844  -12.2189    8.9376 C   0  0  0  0  0  0  0  0  0  0  0  0
  -11.5180  -13.0548    7.9496 N   0  0  0  0  0  0  0  0  0  0  0  0
  -11.3315  -12.4113    6.7294 C   0  0  0  0  0  0  0  0  0  0  0  0
  -11.4874  -11.0562    6.4321 C   0  0  0  0  0  0  0  0  0  0  0  0
  -11.8856  -10.1585    7.4848 C   0  0  0  0  0  0  0  0  0  0  0  0
  -12.0811   -8.9672    7.4784 O   0  0  0  0  0  0  0  0  0  0  0  0
  -11.1834  -10.8531    5.0737 N   0  0  0  0  0  0  0  0  0  0  0  0
  -10.8498  -12.0806    4.5913 C   0  0  0  0  0  0  0  0  0  0  0  0
  -10.9334  -13.0595    5.5914 N   0  0  0  0  0  0  0  0  0  0  0  0
  1  2  1  0  0  0  0
  1  6  1  0  0  0  0
  2  3  2  0  0  0  0
  3  4  1  0  0  0  0
  4  5  2  0  0  0  0
  4 10  1  0  0  0  0
  5  6  1  0  0  0  0
  5  8  1  0  0  0  0
  6  7  2  0  0  0  0
  8  9  1  0  0  0  0
  9 10  2  0  0  0  0
M  END
>  <CHROM.1>
-11.53222904,-11.42446965,6.91364098,-3.11354232,1.28446800,-0.60470711

>  <Name>
ligand

>  <RI>
0

>  <Rbt.Current_Directory>
/home/itssahil/PROJECTS/Mol_Feturizer/New_Systems/rnas/2EES

>  <Rbt.Executable>
rbdock ($Id: //depot/dev/client3/rdock/2013.1/src/exe/rbdock.cxx#4 $)

>  <Rbt.Library>
libRbt.so (2013.1, Build901 2013/11/27)

>  <Rbt.Parameter_File>
/export/apps/rDock/src/rDock_2013.1_src/data/scripts/dock_solv.prm

>  <Rbt.Receptor>
prm/blind_docking_60.prm

>  <SCORE>
-17.0002

>  <SCORE.INTER>
-17.0002

>  <SCORE.INTER.CONST>
1

>  <SCORE.INTER.POLAR>
0

>  <SCORE.INTER.ROT>
0

>  <SCORE.INTER.SOLV>
3.60301

>  <SCORE.INTER.VDW>
-16.1345

>  <SCORE.INTER.norm>
-1.70002

>  <SCORE.INTRA>
0

>  <SCORE.INTRA.DIHEDRAL>
0

>  <SCORE.INTRA.DIHEDRAL.0>
0

>  <SCORE.INTRA.POLAR>
0

>  <SCORE.INTRA.POLAR.0>
0

>  <SCORE.INTRA.REPUL>
0

>  <SCORE.INTRA.REPUL.0>
0

>  <SCORE.INTRA.SOLV>
0

>  <SCORE.INTRA.SOLV.lig_0>
-4.28614

>  <SCORE.INTRA.VDW>
0

>  <SCORE.INTRA.VDW.0>
0

>  <SCORE.INTRA.norm>
0

>  <SCORE.RESTR>
0

>  <SCORE.RESTR.CAVITY>
0

>  <SCORE.RESTR.norm>
0

>  <SCORE.SYSTEM>
0

>  <SCORE.SYSTEM.CONST>
0

>  <SCORE.SYSTEM.DIHEDRAL>
0

>  <SCORE.SYSTEM.SOLV>
0

>  <SCORE.SYSTEM.norm>
0

>  <SCORE.heavy>
10

>  <SCORE.norm>
-1.70002

>  <RMSD>
0.746

$$$$
ligand
 OpenBabel11021811423D
libRbt.so/2013.1/901 2013/11/27
 10 11  0  0  0  0  0  0  0  0999 V2000
  -12.0384  -10.9216    8.7408 N   0  0  0  0  0  0  0  0  0  0  0  0
  -11.9013  -12.3002    8.9144 C   0  0  0  0  0  0  0  0  0  0  0  0
  -11.5632  -13.1227    7.9053 N   0  0  0  0  0  0  0  0  0  0  0  0
  -11.3657  -12.4566    6.6991 C   0  0  0  0  0  0  0  0  0  0  0  0
  -11.4861  -11.0913    6.4338 C   0  0  0  0  0  0  0  0  0  0  0  0
  -11.8541  -10.2076    7.5091 C   0  0  0  0  0  0  0  0  0  0  0  0
  -12.0169   -9.0116    7.5312 O   0  0  0  0  0  0  0  0  0  0  0  0
  -11.1840  -10.8653    5.0785 N   0  0  0  0  0  0  0  0  0  0  0  0
  -10.8867  -12.0899    4.5662 C   0  0  0  0  0  0  0  0  0  0  0  0
  -10.9916  -13.0890    5.5441 N   0  0  0  0  0  0  0  0  0  0  0  0
  1  2  1  0  0  0  0
  1  6  1  0  0  0  0
  2  3  2  0  0  0  0
  3  4  1  0  0  0  0
  4  5  2  0  0  0  0
  4 10  1  0  0  0  0
  5  6  1  0  0  0  0
  5  8  1  0  0  0  0
  6  7  2  0  0  0  0
  8  9  1  0  0  0  0
  9 10  2  0  0  0  0
M  END
>  <CHROM.1>
-11.53843902,-11.46921547,6.90700267,3.09598807,1.30373431,-0.51087435

>  <Name>
ligand

>  <RI>
0

>  <Rbt.Current_Directory>
/home/itssahil/PROJECTS/Mol_Feturizer/New_Systems/rnas/2EES

>  <Rbt.Executable>
rbdock ($Id: //depot/dev/client3/rdock/2013.1/src/exe/rbdock.cxx#4 $)

>  <Rbt.Library>
libRbt.so (2013.1, Build901 2013/11/27)

>  <Rbt.Parameter_File>
/export/apps/rDock/src/rDock_2013.1_src/data/scripts/dock_solv.prm

>  <Rbt.Receptor>
prm/pocket_docking_7.prm

>  <SCORE>
-16.9986

>  <SCORE.INTER>
-16.9986

>  <SCORE.INTER.CONST>
1

>  <SCORE.INTER.POLAR>
0

>  <SCORE.INTER.ROT>
0

>  <SCORE.INTER.SOLV>
3.67679

>  <SCORE.INTER.VDW>
-16.158

>  <SCORE.INTER.norm>
-1.69986

>  <SCORE.INTRA>
0

>  <SCORE.INTRA.DIHEDRAL>
0

>  <SCORE.INTRA.DIHEDRAL.0>
0

>  <SCORE.INTRA.POLAR>
0

>  <SCORE.INTRA.POLAR.0>
0

>  <SCORE.INTRA.REPUL>
0

>  <SCORE.INTRA.REPUL.0>
0

>  <SCORE.INTRA.SOLV>
0

>  <SCORE.INTRA.SOLV.lig_0>
-4.28614

>  <SCORE.INTRA.VDW>
0

>  <SCORE.INTRA.VDW.0>
0

>  <SCORE.INTRA.norm>
0

>  <SCORE.RESTR>
0

>  <SCORE.RESTR.CAVITY>
0

>  <SCORE.RESTR.norm>
0

>  <SCORE.SYSTEM>
0

>  <SCORE.SYSTEM.CONST>
0

>  <SCORE.SYSTEM.DIHEDRAL>
0

>  <SCORE.SYSTEM.SOLV>
0

>  <SCORE.SYSTEM.norm>
0

>  <SCORE.heavy>
10

>  <SCORE.norm>
-1.69986

>  <RMSD>
0.746

$$$$
ligand
 OpenBabel11021811423D
libRbt.so/2013.1/901 2013/11/27
 10 11  0  0  0  0  0  0  0  0999 V2000
  -12.0011  -10.9561    8.7483 N   0  0  0  0  0  0  0  0  0  0  0  0
  -11.8365  -12.3336    8.9068 C   0  0  0  0  0  0  0  0  0  0  0  0
  -11.4989  -13.1405    7.8850 N   0  0  0  0  0  0  0  0  0  0  0  0
  -11.3317  -12.4597    6.6823 C   0  0  0  0  0  0  0  0  0  0  0  0
  -11.4807  -11.0944    6.4319 C   0  0  0  0  0  0  0  0  0  0  0  0
  -11.8483  -10.2276    7.5209 C   0  0  0  0  0  0  0  0  0  0  0  0
  -12.0324   -9.0350    7.5567 O   0  0  0  0  0  0  0  0  0  0  0  0
  -11.2032  -10.8505    5.0744 N   0  0  0  0  0  0  0  0  0  0  0  0
  -10.8915  -12.0648    4.5462 C   0  0  0  0  0  0  0  0  0  0  0  0
  -10.9637  -13.0746    5.5160 N   0  0  0  0  0  0  0  0  0  0  0  0
  1  2  1  0  0  0  0
  1  6  1  0  0  0  0
  2  3  2  0  0  0  0
  3  4  1  0  0  0  0
  4  5  2  0  0  0  0
  4 10  1  0  0  0  0
  5  6  1  0  0  0  0
  5  8  1  0  0  0  0
  6  7  2  0  0  0  0
  8  9  1  0  0  0  0
  9 10  2  0  0  0  0
M  END
>  <CHROM.1>
-11.51902763,-11.47762911,6.90218737,-3.09836981,1.30706829,-0.58724330

>  <Name>
ligand

>  <RI>
0

>  <Rbt.Current_Directory>
/home/itssahil/PROJECTS/Mol_Feturizer/New_Systems/rnas/2EES

>  <Rbt.Executable>
rbdock ($Id: //depot/dev/client3/rdock/2013.1/src/exe/rbdock.cxx#4 $)

>  <Rbt.Library>
libRbt.so (2013.1, Build901 2013/11/27)

>  <Rbt.Parameter_File>
/export/apps/rDock/src/rDock_2013.1_src/data/scripts/dock_solv.prm

>  <Rbt.Receptor>
prm/blind_docking_100.prm

>  <SCORE>
-17.0171

>  <SCORE.INTER>
-17.0171

>  <SCORE.INTER.CONST>
1

>  <SCORE.INTER.POLAR>
0

>  <SCORE.INTER.ROT>
0

>  <SCORE.INTER.SOLV>
3.65856

>  <SCORE.INTER.VDW>
-16.1642

>  <SCORE.INTER.norm>
-1.70171

>  <SCORE.INTRA>
0

>  <SCORE.INTRA.DIHEDRAL>
0

>  <SCORE.INTRA.DIHEDRAL.0>
0

>  <SCORE.INTRA.POLAR>
0

>  <SCORE.INTRA.POLAR.0>
0

>  <SCORE.INTRA.REPUL>
0

>  <SCORE.INTRA.REPUL.0>
0

>  <SCORE.INTRA.SOLV>
0

>  <SCORE.INTRA.SOLV.lig_0>
-4.28614

>  <SCORE.INTRA.VDW>
0

>  <SCORE.INTRA.VDW.0>
0

>  <SCORE.INTRA.norm>
0

>  <SCORE.RESTR>
0

>  <SCORE.RESTR.CAVITY>
0

>  <SCORE.RESTR.norm>
0

>  <SCORE.SYSTEM>
0

>  <SCORE.SYSTEM.CONST>
0

>  <SCORE.SYSTEM.DIHEDRAL>
0

>  <SCORE.SYSTEM.SOLV>
0

>  <SCORE.SYSTEM.norm>
0

>  <SCORE.heavy>
10

>  <SCORE.norm>
-1.70171

>  <RMSD>
0.747

$$$$
ligand
 OpenBabel11021811423D
libRbt.so/2013.1/901 2013/11/27
 10 11  0  0  0  0  0  0  0  0999 V2000
  -12.0134  -10.9677    8.7441 N   0  0  0  0  0  0  0  0  0  0  0  0
  -11.8548  -12.3462    8.8992 C   0  0  0  0  0  0  0  0  0  0  0  0
  -11.5134  -13.1512    7.8771 N   0  0  0  0  0  0  0  0  0  0  0  0
  -11.3360  -12.4673    6.6777 C   0  0  0  0  0  0  0  0  0  0  0  0
  -11.4785  -11.1007    6.4306 C   0  0  0  0  0  0  0  0  0  0  0  0
  -11.8500  -10.2359    7.5200 C   0  0  0  0  0  0  0  0  0  0  0  0
  -12.0300   -9.0428    7.5583 O   0  0  0  0  0  0  0  0  0  0  0  0
  -11.1913  -10.8535    5.0758 N   0  0  0  0  0  0  0  0  0  0  0  0
  -10.8806  -12.0672    4.5457 C   0  0  0  0  0  0  0  0  0  0  0  0
  -10.9626  -13.0798    5.5118 N   0  0  0  0  0  0  0  0  0  0  0  0
  1  2  1  0  0  0  0
  1  6  1  0  0  0  0
  2  3  2  0  0  0  0
  3  4  1  0  0  0  0
  4  5  2  0  0  0  0
  4 10  1  0  0  0  0
  5  6  1  0  0  0  0
  5  8  1  0  0  0  0
  6  7  2  0  0  0  0
  8  9  1  0  0  0  0
  9 10  2  0  0  0  0
M  END
>  <CHROM.1>
-11.52122383,-11.48519771,6.89945592,-3.12328555,1.30356898,-0.56005701

>  <Name>
ligand

>  <RI>
0

>  <Rbt.Current_Directory>
/home/itssahil/PROJECTS/Mol_Feturizer/New_Systems/rnas/2EES

>  <Rbt.Executable>
rbdock ($Id: //depot/dev/client3/rdock/2013.1/src/exe/rbdock.cxx#4 $)

>  <Rbt.Library>
libRbt.so (2013.1, Build901 2013/11/27)

>  <Rbt.Parameter_File>
/export/apps/rDock/src/rDock_2013.1_src/data/scripts/dock_solv.prm

>  <Rbt.Receptor>
prm/blind_docking_80.prm

>  <SCORE>
-17.0211

>  <SCORE.INTER>
-17.0211

>  <SCORE.INTER.CONST>
1

>  <SCORE.INTER.POLAR>
0

>  <SCORE.INTER.ROT>
0

>  <SCORE.INTER.SOLV>
3.65599

>  <SCORE.INTER.VDW>
-16.1661

>  <SCORE.INTER.norm>
-1.70211

>  <SCORE.INTRA>
0

>  <SCORE.INTRA.DIHEDRAL>
0

>  <SCORE.INTRA.DIHEDRAL.0>
0

>  <SCORE.INTRA.POLAR>
0

>  <SCORE.INTRA.POLAR.0>
0

>  <SCORE.INTRA.REPUL>
0

>  <SCORE.INTRA.REPUL.0>
0

>  <SCORE.INTRA.SOLV>
0

>  <SCORE.INTRA.SOLV.lig_0>
-4.28614

>  <SCORE.INTRA.VDW>
0

>  <SCORE.INTRA.VDW.0>
0

>  <SCORE.INTRA.norm>
0

>  <SCORE.RESTR>
0

>  <SCORE.RESTR.CAVITY>
0

>  <SCORE.RESTR.norm>
0

>  <SCORE.SYSTEM>
0

>  <SCORE.SYSTEM.CONST>
0

>  <SCORE.SYSTEM.DIHEDRAL>
0

>  <SCORE.SYSTEM.SOLV>
0

>  <SCORE.SYSTEM.norm>
0

>  <SCORE.heavy>
10

>  <SCORE.norm>
-1.70211

>  <RMSD>
0.747

$$$$
ligand
 OpenBabel11021811423D
libRbt.so/2013.1/901 2013/11/27
 10 11  0  0  0  0  0  0  0  0999 V2000
  -12.0309  -10.8437    8.7346 N   0  0  0  0  0  0  0  0  0  0  0  0
  -11.8432  -12.2112    8.9455 C   0  0  0  0  0  0  0  0  0  0  0  0
  -11.4848  -13.0496    7.9567 N   0  0  0  0  0  0  0  0  0  0  0  0
  -11.3217  -12.4114    6.7304 C   0  0  0  0  0  0  0  0  0  0  0  0
  -11.4931  -11.0592    6.4280 C   0  0  0  0  0  0  0  0  0  0  0  0
  -11.8829  -10.1590    7.4817 C   0  0  0  0  0  0  0  0  0  0  0  0
  -12.0881   -8.9693    7.4717 O   0  0  0  0  0  0  0  0  0  0  0  0
  -11.2110  -10.8613    5.0641 N   0  0  0  0  0  0  0  0  0  0  0  0
  -10.8747  -12.0887    4.5835 C   0  0  0  0  0  0  0  0  0  0  0  0
  -10.9354  -13.0627    5.5900 N   0  0  0  0  0  0  0  0  0  0  0  0
  1  2  1  0  0  0  0
  1  6  1  0  0  0  0
  2  3  2  0  0  0  0
  3  4  1  0  0  0  0
  4  5  2  0  0  0  0
  4 10  1  0  0  0  0
  5  6  1  0  0  0  0
  5  8  1  0  0  0  0
  6  7  2  0  0  0  0
  8  9  1  0  0  0  0
  9 10  2  0  0  0  0
M  END
>  <CHROM.1>
-11.52774060,-11.42520507,6.91215953,-3.05844803,1.29168748,-0.66312461

>  <Name>
ligand

>  <RI>
0

>  <Rbt.Current_Directory>
/home/itssahil/PROJECTS/Mol_Feturizer/New_Systems/rnas/2EES

>  <Rbt.Executable>
rbdock ($Id: //depot/dev/client3/rdock/2013.1/src/exe/rbdock.cxx#4 $)

>  <Rbt.Library>
libRbt.so (2013.1, Build901 2013/11/27)

>  <Rbt.Parameter_File>
/export/apps/rDock/src/rDock_2013.1_src/data/scripts/dock_solv.prm

>  <Rbt.Receptor>
prm/blind_docking_80.prm

>  <SCORE>
-16.9664

>  <SCORE.INTER>
-16.9664

>  <SCORE.INTER.CONST>
1

>  <SCORE.INTER.POLAR>
0

>  <SCORE.INTER.ROT>
0

>  <SCORE.INTER.SOLV>
3.60415

>  <SCORE.INTER.VDW>
-16.1123

>  <SCORE.INTER.norm>
-1.69664

>  <SCORE.INTRA>
0

>  <SCORE.INTRA.DIHEDRAL>
0

>  <SCORE.INTRA.DIHEDRAL.0>
0

>  <SCORE.INTRA.POLAR>
0

>  <SCORE.INTRA.POLAR.0>
0

>  <SCORE.INTRA.REPUL>
0

>  <SCORE.INTRA.REPUL.0>
0

>  <SCORE.INTRA.SOLV>
0

>  <SCORE.INTRA.SOLV.lig_0>
-4.28614

>  <SCORE.INTRA.VDW>
0

>  <SCORE.INTRA.VDW.0>
0

>  <SCORE.INTRA.norm>
0

>  <SCORE.RESTR>
0

>  <SCORE.RESTR.CAVITY>
0

>  <SCORE.RESTR.norm>
0

>  <SCORE.SYSTEM>
0

>  <SCORE.SYSTEM.CONST>
0

>  <SCORE.SYSTEM.DIHEDRAL>
0

>  <SCORE.SYSTEM.SOLV>
0

>  <SCORE.SYSTEM.norm>
0

>  <SCORE.heavy>
10

>  <SCORE.norm>
-1.69664

>  <RMSD>
0.748

$$$$
ligand
 OpenBabel11021811423D
libRbt.so/2013.1/901 2013/11/27
 10 11  0  0  0  0  0  0  0  0999 V2000
  -12.0297  -10.9213    8.7422 N   0  0  0  0  0  0  0  0  0  0  0  0
  -11.8983  -12.3004    8.9168 C   0  0  0  0  0  0  0  0  0  0  0  0
  -11.5673  -13.1256    7.9076 N   0  0  0  0  0  0  0  0  0  0  0  0
  -11.3708  -12.4616    6.6999 C   0  0  0  0  0  0  0  0  0  0  0  0
  -11.4858  -11.0960    6.4336 C   0  0  0  0  0  0  0  0  0  0  0  0
  -11.8462  -10.2096    7.5092 C   0  0  0  0  0  0  0  0  0  0  0  0
  -12.0036   -9.0128    7.5304 O   0  0  0  0  0  0  0  0  0  0  0  0
  -11.1872  -10.8729    5.0771 N   0  0  0  0  0  0  0  0  0  0  0  0
  -10.8971  -12.0994    4.5651 C   0  0  0  0  0  0  0  0  0  0  0  0
  -11.0034  -13.0969    5.5444 N   0  0  0  0  0  0  0  0  0  0  0  0
  1  2  1  0  0  0  0
  1  6  1  0  0  0  0
  2  3  2  0  0  0  0
  3  4  1  0  0  0  0
  4  5  2  0  0  0  0
  4 10  1  0  0  0  0
  5  6  1  0  0  0  0
  5  8  1  0  0  0  0
  6  7  2  0  0  0  0
  8  9  1  0  0  0  0
  9 10  2  0  0  0  0
M  END
>  <CHROM.1>
-11.53830527,-11.47322762,6.90736049,3.08695687,1.30883162,-0.50324638

>  <Name>
ligand

>  <RI>
0

>  <Rbt.Current_Directory>
/home/itssahil/PROJECTS/Mol_Feturizer/New_Systems/rnas/2EES

>  <Rbt.Executable>
rbdock ($Id: //depot/dev/client3/rdock/2013.1/src/exe/rbdock.cxx#4 $)

>  <Rbt.Library>
libRbt.so (2013.1, Build901 2013/11/27)

>  <Rbt.Parameter_File>
/export/apps/rDock/src/rDock_2013.1_src/data/scripts/dock_solv.prm

>  <Rbt.Receptor>
prm/pocket_docking_4.prm

>  <SCORE>
-16.9669

>  <SCORE.INTER>
-16.9669

>  <SCORE.INTER.CONST>
1

>  <SCORE.INTER.POLAR>
0

>  <SCORE.INTER.ROT>
0

>  <SCORE.INTER.SOLV>
3.69713

>  <SCORE.INTER.VDW>
-16.1436

>  <SCORE.INTER.norm>
-1.69669

>  <SCORE.INTRA>
0

>  <SCORE.INTRA.DIHEDRAL>
0

>  <SCORE.INTRA.DIHEDRAL.0>
0

>  <SCORE.INTRA.POLAR>
0

>  <SCORE.INTRA.POLAR.0>
0

>  <SCORE.INTRA.REPUL>
0

>  <SCORE.INTRA.REPUL.0>
0

>  <SCORE.INTRA.SOLV>
0

>  <SCORE.INTRA.SOLV.lig_0>
-4.28614

>  <SCORE.INTRA.VDW>
0

>  <SCORE.INTRA.VDW.0>
0

>  <SCORE.INTRA.norm>
0

>  <SCORE.RESTR>
0

>  <SCORE.RESTR.CAVITY>
0

>  <SCORE.RESTR.norm>
0

>  <SCORE.SYSTEM>
0

>  <SCORE.SYSTEM.CONST>
0

>  <SCORE.SYSTEM.DIHEDRAL>
0

>  <SCORE.SYSTEM.SOLV>
0

>  <SCORE.SYSTEM.norm>
0

>  <SCORE.heavy>
10

>  <SCORE.norm>
-1.69669

>  <RMSD>
0.748

$$$$
ligand
 OpenBabel11021811423D
libRbt.so/2013.1/901 2013/11/27
 10 11  0  0  0  0  0  0  0  0999 V2000
  -11.9763  -10.9984    8.7518 N   0  0  0  0  0  0  0  0  0  0  0  0
  -11.7796  -12.3736    8.8925 C   0  0  0  0  0  0  0  0  0  0  0  0
  -11.4321  -13.1606    7.8586 N   0  0  0  0  0  0  0  0  0  0  0  0
  -11.2899  -12.4622    6.6629 C   0  0  0  0  0  0  0  0  0  0  0  0
  -11.4715  -11.0977    6.4299 C   0  0  0  0  0  0  0  0  0  0  0  0
  -11.8497  -10.2523    7.5320 C   0  0  0  0  0  0  0  0  0  0  0  0
  -12.0602   -9.0646    7.5835 O   0  0  0  0  0  0  0  0  0  0  0  0
  -11.2104  -10.8317    5.0734 N   0  0  0  0  0  0  0  0  0  0  0  0
  -10.8758  -12.0323    4.5283 C   0  0  0  0  0  0  0  0  0  0  0  0
  -10.9175  -13.0548    5.4864 N   0  0  0  0  0  0  0  0  0  0  0  0
  1  2  1  0  0  0  0
  1  6  1  0  0  0  0
  2  3  2  0  0  0  0
  3  4  1  0  0  0  0
  4  5  2  0  0  0  0
  4 10  1  0  0  0  0
  5  6  1  0  0  0  0
  5  8  1  0  0  0  0
  6  7  2  0  0  0  0
  8  9  1  0  0  0  0
  9 10  2  0  0  0  0
M  END
>  <CHROM.1>
-11.49745597,-11.48721178,6.89590305,-3.01180892,1.30032915,-0.65887109

>  <Name>
ligand

>  <RI>
0

>  <Rbt.Current_Directory>
/home/itssahil/PROJECTS/Mol_Feturizer/New_Systems/rnas/2EES

>  <Rbt.Executable>
rbdock ($Id: //depot/dev/client3/rdock/2013.1/src/exe/rbdock.cxx#4 $)

>  <Rbt.Library>
libRbt.so (2013.1, Build901 2013/11/27)

>  <Rbt.Parameter_File>
/export/apps/rDock/src/rDock_2013.1_src/data/scripts/dock_solv.prm

>  <Rbt.Receptor>
prm/blind_docking_100.prm

>  <SCORE>
-16.9802

>  <SCORE.INTER>
-16.9802

>  <SCORE.INTER.CONST>
1

>  <SCORE.INTER.POLAR>
0

>  <SCORE.INTER.ROT>
0

>  <SCORE.INTER.SOLV>
3.61775

>  <SCORE.INTER.VDW>
-16.126

>  <SCORE.INTER.norm>
-1.69802

>  <SCORE.INTRA>
0

>  <SCORE.INTRA.DIHEDRAL>
0

>  <SCORE.INTRA.DIHEDRAL.0>
0

>  <SCORE.INTRA.POLAR>
0

>  <SCORE.INTRA.POLAR.0>
0

>  <SCORE.INTRA.REPUL>
0

>  <SCORE.INTRA.REPUL.0>
0

>  <SCORE.INTRA.SOLV>
0

>  <SCORE.INTRA.SOLV.lig_0>
-4.28614

>  <SCORE.INTRA.VDW>
0

>  <SCORE.INTRA.VDW.0>
0

>  <SCORE.INTRA.norm>
0

>  <SCORE.RESTR>
0

>  <SCORE.RESTR.CAVITY>
0

>  <SCORE.RESTR.norm>
0

>  <SCORE.SYSTEM>
0

>  <SCORE.SYSTEM.CONST>
0

>  <SCORE.SYSTEM.DIHEDRAL>
0

>  <SCORE.SYSTEM.SOLV>
0

>  <SCORE.SYSTEM.norm>
0

>  <SCORE.heavy>
10

>  <SCORE.norm>
-1.69802

>  <RMSD>
0.749

$$$$
ligand
 OpenBabel11021811423D
libRbt.so/2013.1/901 2013/11/27
 10 11  0  0  0  0  0  0  0  0999 V2000
  -11.9845  -10.9415    8.7488 N   0  0  0  0  0  0  0  0  0  0  0  0
  -11.8114  -12.3172    8.9136 C   0  0  0  0  0  0  0  0  0  0  0  0
  -11.4761  -13.1278    7.8940 N   0  0  0  0  0  0  0  0  0  0  0  0
  -11.3206  -12.4528    6.6866 C   0  0  0  0  0  0  0  0  0  0  0  0
  -11.4787  -11.0897    6.4297 C   0  0  0  0  0  0  0  0  0  0  0  0
  -11.8438  -10.2189    7.5164 C   0  0  0  0  0  0  0  0  0  0  0  0
  -12.0342   -9.0271    7.5469 O   0  0  0  0  0  0  0  0  0  0  0  0
  -11.2115  -10.8517    5.0691 N   0  0  0  0  0  0  0  0  0  0  0  0
  -10.8967  -12.0671    4.5454 C   0  0  0  0  0  0  0  0  0  0  0  0
  -10.9569  -13.0720    5.5211 N   0  0  0  0  0  0  0  0  0  0  0  0
  1  2  1  0  0  0  0
  1  6  1  0  0  0  0
  2  3  2  0  0  0  0
  3  4  1  0  0  0  0
  4  5  2  0  0  0  0
  4 10  1  0  0  0  0
  5  6  1  0  0  0  0
  5  8  1  0  0  0  0
  6  7  2  0  0  0  0
  8  9  1  0  0  0  0
  9 10  2  0  0  0  0
M  END
>  <CHROM.1>
-11.51182926,-11.47051546,6.90231961,-3.06657440,1.30941704,-0.62340320

>  <Name>
ligand

>  <RI>
0

>  <Rbt.Current_Directory>
/home/itssahil/PROJECTS/Mol_Feturizer/New_Systems/rnas/2EES

>  <Rbt.Executable>
rbdock ($Id: //depot/dev/client3/rdock/2013.1/src/exe/rbdock.cxx#4 $)

>  <Rbt.Library>
libRbt.so (2013.1, Build901 2013/11/27)

>  <Rbt.Parameter_File>
/export/apps/rDock/src/rDock_2013.1_src/data/scripts/dock_solv.prm

>  <Rbt.Receptor>
prm/blind_docking_40.prm

>  <SCORE>
-17.0056

>  <SCORE.INTER>
-17.0056

>  <SCORE.INTER.CONST>
1

>  <SCORE.INTER.POLAR>
0

>  <SCORE.INTER.ROT>
0

>  <SCORE.INTER.SOLV>
3.66072

>  <SCORE.INTER.VDW>
-16.1573

>  <SCORE.INTER.norm>
-1.70056

>  <SCORE.INTRA>
0

>  <SCORE.INTRA.DIHEDRAL>
0

>  <SCORE.INTRA.DIHEDRAL.0>
0

>  <SCORE.INTRA.POLAR>
0

>  <SCORE.INTRA.POLAR.0>
0

>  <SCORE.INTRA.REPUL>
0

>  <SCORE.INTRA.REPUL.0>
0

>  <SCORE.INTRA.SOLV>
0

>  <SCORE.INTRA.SOLV.lig_0>
-4.28614

>  <SCORE.INTRA.VDW>
0

>  <SCORE.INTRA.VDW.0>
0

>  <SCORE.INTRA.norm>
0

>  <SCORE.RESTR>
0

>  <SCORE.RESTR.CAVITY>
0

>  <SCORE.RESTR.norm>
0

>  <SCORE.SYSTEM>
0

>  <SCORE.SYSTEM.CONST>
0

>  <SCORE.SYSTEM.DIHEDRAL>
0

>  <SCORE.SYSTEM.SOLV>
0

>  <SCORE.SYSTEM.norm>
0

>  <SCORE.heavy>
10

>  <SCORE.norm>
-1.70056

>  <RMSD>
0.749

$$$$
ligand
 OpenBabel11021811423D
libRbt.so/2013.1/901 2013/11/27
 10 11  0  0  0  0  0  0  0  0999 V2000
  -12.0317  -10.9562    8.7397 N   0  0  0  0  0  0  0  0  0  0  0  0
  -11.8796  -12.3352    8.8968 C   0  0  0  0  0  0  0  0  0  0  0  0
  -11.5330  -13.1420    7.8779 N   0  0  0  0  0  0  0  0  0  0  0  0
  -11.3434  -12.4594    6.6796 C   0  0  0  0  0  0  0  0  0  0  0  0
  -11.4788  -11.0924    6.4306 C   0  0  0  0  0  0  0  0  0  0  0  0
  -11.8558  -10.2257    7.5165 C   0  0  0  0  0  0  0  0  0  0  0  0
  -12.0317   -9.0318    7.5528 O   0  0  0  0  0  0  0  0  0  0  0  0
  -11.1798  -10.8471    5.0780 N   0  0  0  0  0  0  0  0  0  0  0  0
  -10.8694  -12.0622    4.5511 C   0  0  0  0  0  0  0  0  0  0  0  0
  -10.9630  -13.0739    5.5170 N   0  0  0  0  0  0  0  0  0  0  0  0
  1  2  1  0  0  0  0
  1  6  1  0  0  0  0
  2  3  2  0  0  0  0
  3  4  1  0  0  0  0
  4  5  2  0  0  0  0
  4 10  1  0  0  0  0
  5  6  1  0  0  0  0
  5  8  1  0  0  0  0
  6  7  2  0  0  0  0
  8  9  1  0  0  0  0
  9 10  2  0  0  0  0
M  END
>  <CHROM.1>
-11.52675252,-11.47650942,6.89930533,3.13220414,1.29866813,-0.53390135

>  <Name>
ligand

>  <RI>
0

>  <Rbt.Current_Directory>
/home/itssahil/PROJECTS/Mol_Feturizer/New_Systems/rnas/2EES

>  <Rbt.Executable>
rbdock ($Id: //depot/dev/client3/rdock/2013.1/src/exe/rbdock.cxx#4 $)

>  <Rbt.Library>
libRbt.so (2013.1, Build901 2013/11/27)

>  <Rbt.Parameter_File>
/export/apps/rDock/src/rDock_2013.1_src/data/scripts/dock_solv.prm

>  <Rbt.Receptor>
prm/blind_docking_60.prm

>  <SCORE>
-17.0138

>  <SCORE.INTER>
-17.0138

>  <SCORE.INTER.CONST>
1

>  <SCORE.INTER.POLAR>
0

>  <SCORE.INTER.ROT>
0

>  <SCORE.INTER.SOLV>
3.65053

>  <SCORE.INTER.VDW>
-16.1594

>  <SCORE.INTER.norm>
-1.70138

>  <SCORE.INTRA>
0

>  <SCORE.INTRA.DIHEDRAL>
0

>  <SCORE.INTRA.DIHEDRAL.0>
0

>  <SCORE.INTRA.POLAR>
0

>  <SCORE.INTRA.POLAR.0>
0

>  <SCORE.INTRA.REPUL>
0

>  <SCORE.INTRA.REPUL.0>
0

>  <SCORE.INTRA.SOLV>
0

>  <SCORE.INTRA.SOLV.lig_0>
-4.28614

>  <SCORE.INTRA.VDW>
0

>  <SCORE.INTRA.VDW.0>
0

>  <SCORE.INTRA.norm>
0

>  <SCORE.RESTR>
0

>  <SCORE.RESTR.CAVITY>
0

>  <SCORE.RESTR.norm>
0

>  <SCORE.SYSTEM>
0

>  <SCORE.SYSTEM.CONST>
0

>  <SCORE.SYSTEM.DIHEDRAL>
0

>  <SCORE.SYSTEM.SOLV>
0

>  <SCORE.SYSTEM.norm>
0

>  <SCORE.heavy>
10

>  <SCORE.norm>
-1.70138

>  <RMSD>
0.749

$$$$
ligand
 OpenBabel11021811423D
libRbt.so/2013.1/901 2013/11/27
 10 11  0  0  0  0  0  0  0  0999 V2000
  -12.0147  -10.9645    8.7420 N   0  0  0  0  0  0  0  0  0  0  0  0
  -11.8577  -12.3431    8.8982 C   0  0  0  0  0  0  0  0  0  0  0  0
  -11.5155  -13.1490    7.8772 N   0  0  0  0  0  0  0  0  0  0  0  0
  -11.3354  -12.4661    6.6777 C   0  0  0  0  0  0  0  0  0  0  0  0
  -11.4761  -11.0994    6.4295 C   0  0  0  0  0  0  0  0  0  0  0  0
  -11.8486  -10.2337    7.5177 C   0  0  0  0  0  0  0  0  0  0  0  0
  -12.0276   -9.0403    7.5550 O   0  0  0  0  0  0  0  0  0  0  0  0
  -11.1865  -10.8534    5.0750 N   0  0  0  0  0  0  0  0  0  0  0  0
  -10.8761  -12.0677    4.5462 C   0  0  0  0  0  0  0  0  0  0  0  0
  -10.9607  -13.0796    5.5128 N   0  0  0  0  0  0  0  0  0  0  0  0
  1  2  1  0  0  0  0
  1  6  1  0  0  0  0
  2  3  2  0  0  0  0
  3  4  1  0  0  0  0
  4  5  2  0  0  0  0
  4 10  1  0  0  0  0
  5  6  1  0  0  0  0
  5  8  1  0  0  0  0
  6  7  2  0  0  0  0
  8  9  1  0  0  0  0
  9 10  2  0  0  0  0
M  END
>  <CHROM.1>
-11.52005796,-11.48363925,6.89848787,-3.12972608,1.30268924,-0.55446353

>  <Name>
ligand

>  <RI>
0

>  <Rbt.Current_Directory>
/home/itssahil/PROJECTS/Mol_Feturizer/New_Systems/rnas/2EES

>  <Rbt.Executable>
rbdock ($Id: //depot/dev/client3/rdock/2013.1/src/exe/rbdock.cxx#4 $)

>  <Rbt.Library>
libRbt.so (2013.1, Build901 2013/11/27)

>  <Rbt.Parameter_File>
/export/apps/rDock/src/rDock_2013.1_src/data/scripts/dock_solv.prm

>  <Rbt.Receptor>
prm/pocket_docking_4.prm

>  <SCORE>
-17.0199

>  <SCORE.INTER>
-17.0199

>  <SCORE.INTER.CONST>
1

>  <SCORE.INTER.POLAR>
0

>  <SCORE.INTER.ROT>
0

>  <SCORE.INTER.SOLV>
3.65774

>  <SCORE.INTER.VDW>
-16.1658

>  <SCORE.INTER.norm>
-1.70199

>  <SCORE.INTRA>
0

>  <SCORE.INTRA.DIHEDRAL>
0

>  <SCORE.INTRA.DIHEDRAL.0>
0

>  <SCORE.INTRA.POLAR>
0

>  <SCORE.INTRA.POLAR.0>
0

>  <SCORE.INTRA.REPUL>
0

>  <SCORE.INTRA.REPUL.0>
0

>  <SCORE.INTRA.SOLV>
0

>  <SCORE.INTRA.SOLV.lig_0>
-4.28614

>  <SCORE.INTRA.VDW>
0

>  <SCORE.INTRA.VDW.0>
0

>  <SCORE.INTRA.norm>
0

>  <SCORE.RESTR>
0

>  <SCORE.RESTR.CAVITY>
0

>  <SCORE.RESTR.norm>
0

>  <SCORE.SYSTEM>
0

>  <SCORE.SYSTEM.CONST>
0

>  <SCORE.SYSTEM.DIHEDRAL>
0

>  <SCORE.SYSTEM.SOLV>
0

>  <SCORE.SYSTEM.norm>
0

>  <SCORE.heavy>
10

>  <SCORE.norm>
-1.70199

>  <RMSD>
0.749

$$$$
ligand
 OpenBabel11021811423D
libRbt.so/2013.1/901 2013/11/27
 10 11  0  0  0  0  0  0  0  0999 V2000
  -12.0124  -10.9622    8.7401 N   0  0  0  0  0  0  0  0  0  0  0  0
  -11.8570  -12.3408    8.8974 C   0  0  0  0  0  0  0  0  0  0  0  0
  -11.5144  -13.1478    7.8773 N   0  0  0  0  0  0  0  0  0  0  0  0
  -11.3324  -12.4658    6.6775 C   0  0  0  0  0  0  0  0  0  0  0  0
  -11.4714  -11.0992    6.4283 C   0  0  0  0  0  0  0  0  0  0  0  0
  -11.8442  -10.2323    7.5155 C   0  0  0  0  0  0  0  0  0  0  0  0
  -12.0219   -9.0387    7.5518 O   0  0  0  0  0  0  0  0  0  0  0  0
  -11.1801  -10.8544    5.0739 N   0  0  0  0  0  0  0  0  0  0  0  0
  -10.8704  -12.0694    4.5462 C   0  0  0  0  0  0  0  0  0  0  0  0
  -10.9571  -13.0805    5.5134 N   0  0  0  0  0  0  0  0  0  0  0  0
  1  2  1  0  0  0  0
  1  6  1  0  0  0  0
  2  3  2  0  0  0  0
  3  4  1  0  0  0  0
  4  5  2  0  0  0  0
  4 10  1  0  0  0  0
  5  6  1  0  0  0  0
  5  8  1  0  0  0  0
  6  7  2  0  0  0  0
  8  9  1  0  0  0  0
  9 10  2  0  0  0  0
M  END
>  <CHROM.1>
-11.51624200,-11.48304516,6.89748796,-3.13520381,1.30231924,-0.54984791

>  <Name>
ligand

>  <RI>
0

>  <Rbt.Current_Directory>
/home/itssahil/PROJECTS/Mol_Feturizer/New_Systems/rnas/2EES

>  <Rbt.Executable>
rbdock ($Id: //depot/dev/client3/rdock/2013.1/src/exe/rbdock.cxx#4 $)

>  <Rbt.Library>
libRbt.so (2013.1, Build901 2013/11/27)

>  <Rbt.Parameter_File>
/export/apps/rDock/src/rDock_2013.1_src/data/scripts/dock_solv.prm

>  <Rbt.Receptor>
prm/blind_docking_40.prm

>  <SCORE>
-17.018

>  <SCORE.INTER>
-17.018

>  <SCORE.INTER.CONST>
1

>  <SCORE.INTER.POLAR>
0

>  <SCORE.INTER.ROT>
0

>  <SCORE.INTER.SOLV>
3.66266

>  <SCORE.INTER.VDW>
-16.1662

>  <SCORE.INTER.norm>
-1.7018

>  <SCORE.INTRA>
0

>  <SCORE.INTRA.DIHEDRAL>
0

>  <SCORE.INTRA.DIHEDRAL.0>
0

>  <SCORE.INTRA.POLAR>
0

>  <SCORE.INTRA.POLAR.0>
0

>  <SCORE.INTRA.REPUL>
0

>  <SCORE.INTRA.REPUL.0>
0

>  <SCORE.INTRA.SOLV>
0

>  <SCORE.INTRA.SOLV.lig_0>
-4.28614

>  <SCORE.INTRA.VDW>
0

>  <SCORE.INTRA.VDW.0>
0

>  <SCORE.INTRA.norm>
0

>  <SCORE.RESTR>
0

>  <SCORE.RESTR.CAVITY>
0

>  <SCORE.RESTR.norm>
0

>  <SCORE.SYSTEM>
0

>  <SCORE.SYSTEM.CONST>
0

>  <SCORE.SYSTEM.DIHEDRAL>
0

>  <SCORE.SYSTEM.SOLV>
0

>  <SCORE.SYSTEM.norm>
0

>  <SCORE.heavy>
10

>  <SCORE.norm>
-1.7018

>  <RMSD>
0.751

$$$$
ligand
 OpenBabel11021811423D
libRbt.so/2013.1/901 2013/11/27
 10 11  0  0  0  0  0  0  0  0999 V2000
  -12.0193  -10.9576    8.7408 N   0  0  0  0  0  0  0  0  0  0  0  0
  -11.8698  -12.3371    8.8964 C   0  0  0  0  0  0  0  0  0  0  0  0
  -11.5298  -13.1440    7.8755 N   0  0  0  0  0  0  0  0  0  0  0  0
  -11.3438  -12.4612    6.6768 C   0  0  0  0  0  0  0  0  0  0  0  0
  -11.4769  -11.0937    6.4292 C   0  0  0  0  0  0  0  0  0  0  0  0
  -11.8469  -10.2268    7.5173 C   0  0  0  0  0  0  0  0  0  0  0  0
  -12.0196   -9.0325    7.5551 O   0  0  0  0  0  0  0  0  0  0  0  0
  -11.1833  -10.8483    5.0755 N   0  0  0  0  0  0  0  0  0  0  0  0
  -10.8783  -12.0639    4.5464 C   0  0  0  0  0  0  0  0  0  0  0  0
  -10.9701  -13.0760    5.5122 N   0  0  0  0  0  0  0  0  0  0  0  0
  1  2  1  0  0  0  0
  1  6  1  0  0  0  0
  2  3  2  0  0  0  0
  3  4  1  0  0  0  0
  4  5  2  0  0  0  0
  4 10  1  0  0  0  0
  5  6  1  0  0  0  0
  5  8  1  0  0  0  0
  6  7  2  0  0  0  0
  8  9  1  0  0  0  0
  9 10  2  0  0  0  0
M  END
>  <CHROM.1>
-11.52373788,-11.47800460,6.89791260,3.13258726,1.30374793,-0.53364343

>  <Name>
ligand

>  <RI>
0

>  <Rbt.Current_Directory>
/home/itssahil/PROJECTS/Mol_Feturizer/New_Systems/rnas/2EES

>  <Rbt.Executable>
rbdock ($Id: //depot/dev/client3/rdock/2013.1/src/exe/rbdock.cxx#4 $)

>  <Rbt.Library>
libRbt.so (2013.1, Build901 2013/11/27)

>  <Rbt.Parameter_File>
/export/apps/rDock/src/rDock_2013.1_src/data/scripts/dock_solv.prm

>  <Rbt.Receptor>
prm/blind_docking_40.prm

>  <SCORE>
-17.0166

>  <SCORE.INTER>
-17.0166

>  <SCORE.INTER.CONST>
1

>  <SCORE.INTER.POLAR>
0

>  <SCORE.INTER.ROT>
0

>  <SCORE.INTER.SOLV>
3.66908

>  <SCORE.INTER.VDW>
-16.1674

>  <SCORE.INTER.norm>
-1.70166

>  <SCORE.INTRA>
0

>  <SCORE.INTRA.DIHEDRAL>
0

>  <SCORE.INTRA.DIHEDRAL.0>
0

>  <SCORE.INTRA.POLAR>
0

>  <SCORE.INTRA.POLAR.0>
0

>  <SCORE.INTRA.REPUL>
0

>  <SCORE.INTRA.REPUL.0>
0

>  <SCORE.INTRA.SOLV>
0

>  <SCORE.INTRA.SOLV.lig_0>
-4.28614

>  <SCORE.INTRA.VDW>
0

>  <SCORE.INTRA.VDW.0>
0

>  <SCORE.INTRA.norm>
0

>  <SCORE.RESTR>
0

>  <SCORE.RESTR.CAVITY>
0

>  <SCORE.RESTR.norm>
0

>  <SCORE.SYSTEM>
0

>  <SCORE.SYSTEM.CONST>
0

>  <SCORE.SYSTEM.DIHEDRAL>
0

>  <SCORE.SYSTEM.SOLV>
0

>  <SCORE.SYSTEM.norm>
0

>  <SCORE.heavy>
10

>  <SCORE.norm>
-1.70166

>  <RMSD>
0.752

$$$$
ligand
 OpenBabel11021811423D
libRbt.so/2013.1/901 2013/11/27
 10 11  0  0  0  0  0  0  0  0999 V2000
  -12.0092  -10.9570    8.7408 N   0  0  0  0  0  0  0  0  0  0  0  0
  -11.8599  -12.3364    8.8975 C   0  0  0  0  0  0  0  0  0  0  0  0
  -11.5197  -13.1442    7.8773 N   0  0  0  0  0  0  0  0  0  0  0  0
  -11.3334  -12.4623    6.6781 C   0  0  0  0  0  0  0  0  0  0  0  0
  -11.4664  -11.0950    6.4294 C   0  0  0  0  0  0  0  0  0  0  0  0
  -11.8366  -10.2272    7.5168 C   0  0  0  0  0  0  0  0  0  0  0  0
  -12.0093   -9.0328    7.5536 O   0  0  0  0  0  0  0  0  0  0  0  0
  -11.1725  -10.8507    5.0755 N   0  0  0  0  0  0  0  0  0  0  0  0
  -10.8675  -12.0667    4.5475 C   0  0  0  0  0  0  0  0  0  0  0  0
  -10.9595  -13.0780    5.5141 N   0  0  0  0  0  0  0  0  0  0  0  0
  1  2  1  0  0  0  0
  1  6  1  0  0  0  0
  2  3  2  0  0  0  0
  3  4  1  0  0  0  0
  4  5  2  0  0  0  0
  4 10  1  0  0  0  0
  5  6  1  0  0  0  0
  5  8  1  0  0  0  0
  6  7  2  0  0  0  0
  8  9  1  0  0  0  0
  9 10  2  0  0  0  0
M  END
>  <CHROM.1>
-11.51335091,-11.47891518,6.89841847,3.13208670,1.30360636,-0.53395471

>  <Name>
ligand

>  <RI>
0

>  <Rbt.Current_Directory>
/home/itssahil/PROJECTS/Mol_Feturizer/New_Systems/rnas/2EES

>  <Rbt.Executable>
rbdock ($Id: //depot/dev/client3/rdock/2013.1/src/exe/rbdock.cxx#4 $)

>  <Rbt.Library>
libRbt.so (2013.1, Build901 2013/11/27)

>  <Rbt.Parameter_File>
/export/apps/rDock/src/rDock_2013.1_src/data/scripts/dock_solv.prm

>  <Rbt.Receptor>
prm/blind_docking_40.prm

>  <SCORE>
-17.0137

>  <SCORE.INTER>
-17.0137

>  <SCORE.INTER.CONST>
1

>  <SCORE.INTER.POLAR>
0

>  <SCORE.INTER.ROT>
0

>  <SCORE.INTER.SOLV>
3.67675

>  <SCORE.INTER.VDW>
-16.1681

>  <SCORE.INTER.norm>
-1.70137

>  <SCORE.INTRA>
0

>  <SCORE.INTRA.DIHEDRAL>
0

>  <SCORE.INTRA.DIHEDRAL.0>
0

>  <SCORE.INTRA.POLAR>
0

>  <SCORE.INTRA.POLAR.0>
0

>  <SCORE.INTRA.REPUL>
0

>  <SCORE.INTRA.REPUL.0>
0

>  <SCORE.INTRA.SOLV>
0

>  <SCORE.INTRA.SOLV.lig_0>
-4.28614

>  <SCORE.INTRA.VDW>
0

>  <SCORE.INTRA.VDW.0>
0

>  <SCORE.INTRA.norm>
0

>  <SCORE.RESTR>
0

>  <SCORE.RESTR.CAVITY>
0

>  <SCORE.RESTR.norm>
0

>  <SCORE.SYSTEM>
0

>  <SCORE.SYSTEM.CONST>
0

>  <SCORE.SYSTEM.DIHEDRAL>
0

>  <SCORE.SYSTEM.SOLV>
0

>  <SCORE.SYSTEM.norm>
0

>  <SCORE.heavy>
10

>  <SCORE.norm>
-1.70137

>  <RMSD>
0.752

$$$$
ligand
 OpenBabel11021811423D
libRbt.so/2013.1/901 2013/11/27
 10 11  0  0  0  0  0  0  0  0999 V2000
  -12.0045  -10.9536    8.7444 N   0  0  0  0  0  0  0  0  0  0  0  0
  -11.8488  -12.3323    8.9015 C   0  0  0  0  0  0  0  0  0  0  0  0
  -11.5142  -13.1401    7.8795 N   0  0  0  0  0  0  0  0  0  0  0  0
  -11.3404  -12.4591    6.6780 C   0  0  0  0  0  0  0  0  0  0  0  0
  -11.4804  -11.0926    6.4287 C   0  0  0  0  0  0  0  0  0  0  0  0
  -11.8447  -10.2247    7.5181 C   0  0  0  0  0  0  0  0  0  0  0  0
  -12.0215   -9.0310    7.5548 O   0  0  0  0  0  0  0  0  0  0  0  0
  -11.1987  -10.8489    5.0721 N   0  0  0  0  0  0  0  0  0  0  0  0
  -10.8936  -12.0644    4.5431 C   0  0  0  0  0  0  0  0  0  0  0  0
  -10.9740  -13.0748    5.5116 N   0  0  0  0  0  0  0  0  0  0  0  0
  1  2  1  0  0  0  0
  1  6  1  0  0  0  0
  2  3  2  0  0  0  0
  3  4  1  0  0  0  0
  4  5  2  0  0  0  0
  4 10  1  0  0  0  0
  5  6  1  0  0  0  0
  5  8  1  0  0  0  0
  6  7  2  0  0  0  0
  8  9  1  0  0  0  0
  9 10  2  0  0  0  0
M  END
>  <CHROM.1>
-11.52207828,-11.47606112,6.89855617,-3.12256651,1.30880089,-0.56274014

>  <Name>
ligand

>  <RI>
0

>  <Rbt.Current_Directory>
/home/itssahil/PROJECTS/Mol_Feturizer/New_Systems/rnas/2EES

>  <Rbt.Executable>
rbdock ($Id: //depot/dev/client3/rdock/2013.1/src/exe/rbdock.cxx#4 $)

>  <Rbt.Library>
libRbt.so (2013.1, Build901 2013/11/27)

>  <Rbt.Parameter_File>
/export/apps/rDock/src/rDock_2013.1_src/data/scripts/dock_solv.prm

>  <Rbt.Receptor>
prm/pocket_docking_7.prm

>  <SCORE>
-17.0161

>  <SCORE.INTER>
-17.0161

>  <SCORE.INTER.CONST>
1

>  <SCORE.INTER.POLAR>
0

>  <SCORE.INTER.ROT>
0

>  <SCORE.INTER.SOLV>
3.6742

>  <SCORE.INTER.VDW>
-16.1688

>  <SCORE.INTER.norm>
-1.70161

>  <SCORE.INTRA>
0

>  <SCORE.INTRA.DIHEDRAL>
0

>  <SCORE.INTRA.DIHEDRAL.0>
0

>  <SCORE.INTRA.POLAR>
0

>  <SCORE.INTRA.POLAR.0>
0

>  <SCORE.INTRA.REPUL>
0

>  <SCORE.INTRA.REPUL.0>
0

>  <SCORE.INTRA.SOLV>
0

>  <SCORE.INTRA.SOLV.lig_0>
-4.28614

>  <SCORE.INTRA.VDW>
0

>  <SCORE.INTRA.VDW.0>
0

>  <SCORE.INTRA.norm>
0

>  <SCORE.RESTR>
0

>  <SCORE.RESTR.CAVITY>
0

>  <SCORE.RESTR.norm>
0

>  <SCORE.SYSTEM>
0

>  <SCORE.SYSTEM.CONST>
0

>  <SCORE.SYSTEM.DIHEDRAL>
0

>  <SCORE.SYSTEM.SOLV>
0

>  <SCORE.SYSTEM.norm>
0

>  <SCORE.heavy>
10

>  <SCORE.norm>
-1.70161

>  <RMSD>
0.752

$$$$
ligand
 OpenBabel11021811423D
libRbt.so/2013.1/901 2013/11/27
 10 11  0  0  0  0  0  0  0  0999 V2000
  -11.9956  -10.9447    8.7415 N   0  0  0  0  0  0  0  0  0  0  0  0
  -11.8358  -12.3222    8.9047 C   0  0  0  0  0  0  0  0  0  0  0  0
  -11.4962  -13.1331    7.8868 N   0  0  0  0  0  0  0  0  0  0  0  0
  -11.3220  -12.4565    6.6828 C   0  0  0  0  0  0  0  0  0  0  0  0
  -11.4659  -11.0915    6.4277 C   0  0  0  0  0  0  0  0  0  0  0  0
  -11.8355  -10.2203    7.5126 C   0  0  0  0  0  0  0  0  0  0  0  0
  -12.0162   -9.0271    7.5441 O   0  0  0  0  0  0  0  0  0  0  0  0
  -11.1820  -10.8525    5.0707 N   0  0  0  0  0  0  0  0  0  0  0  0
  -10.8717  -12.0692    4.5474 C   0  0  0  0  0  0  0  0  0  0  0  0
  -10.9509  -13.0759    5.5199 N   0  0  0  0  0  0  0  0  0  0  0  0
  1  2  1  0  0  0  0
  1  6  1  0  0  0  0
  2  3  2  0  0  0  0
  3  4  1  0  0  0  0
  4  5  2  0  0  0  0
  4 10  1  0  0  0  0
  5  6  1  0  0  0  0
  5  8  1  0  0  0  0
  6  7  2  0  0  0  0
  8  9  1  0  0  0  0
  9 10  2  0  0  0  0
M  END
>  <CHROM.1>
-11.50737163,-11.47317040,6.89898491,-3.11657393,1.30516932,-0.57265330

>  <Name>
ligand

>  <RI>
0

>  <Rbt.Current_Directory>
/home/itssahil/PROJECTS/Mol_Feturizer/New_Systems/rnas/2EES

>  <Rbt.Executable>
rbdock ($Id: //depot/dev/client3/rdock/2013.1/src/exe/rbdock.cxx#4 $)

>  <Rbt.Library>
libRbt.so (2013.1, Build901 2013/11/27)

>  <Rbt.Parameter_File>
/export/apps/rDock/src/rDock_2013.1_src/data/scripts/dock_solv.prm

>  <Rbt.Receptor>
prm/blind_docking_40.prm

>  <SCORE>
-17.0125

>  <SCORE.INTER>
-17.0125

>  <SCORE.INTER.CONST>
1

>  <SCORE.INTER.POLAR>
0

>  <SCORE.INTER.ROT>
0

>  <SCORE.INTER.SOLV>
3.67148

>  <SCORE.INTER.VDW>
-16.1655

>  <SCORE.INTER.norm>
-1.70125

>  <SCORE.INTRA>
0

>  <SCORE.INTRA.DIHEDRAL>
0

>  <SCORE.INTRA.DIHEDRAL.0>
0

>  <SCORE.INTRA.POLAR>
0

>  <SCORE.INTRA.POLAR.0>
0

>  <SCORE.INTRA.REPUL>
0

>  <SCORE.INTRA.REPUL.0>
0

>  <SCORE.INTRA.SOLV>
0

>  <SCORE.INTRA.SOLV.lig_0>
-4.28614

>  <SCORE.INTRA.VDW>
0

>  <SCORE.INTRA.VDW.0>
0

>  <SCORE.INTRA.norm>
0

>  <SCORE.RESTR>
0

>  <SCORE.RESTR.CAVITY>
0

>  <SCORE.RESTR.norm>
0

>  <SCORE.SYSTEM>
0

>  <SCORE.SYSTEM.CONST>
0

>  <SCORE.SYSTEM.DIHEDRAL>
0

>  <SCORE.SYSTEM.SOLV>
0

>  <SCORE.SYSTEM.norm>
0

>  <SCORE.heavy>
10

>  <SCORE.norm>
-1.70125

>  <RMSD>
0.753

$$$$
ligand
 OpenBabel11021811423D
libRbt.so/2013.1/901 2013/11/27
 10 11  0  0  0  0  0  0  0  0999 V2000
  -12.0129  -10.9484    8.7425 N   0  0  0  0  0  0  0  0  0  0  0  0
  -11.8601  -12.3272    8.9005 C   0  0  0  0  0  0  0  0  0  0  0  0
  -11.5232  -13.1359    7.8799 N   0  0  0  0  0  0  0  0  0  0  0  0
  -11.3438  -12.4554    6.6788 C   0  0  0  0  0  0  0  0  0  0  0  0
  -11.4806  -11.0887    6.4288 C   0  0  0  0  0  0  0  0  0  0  0  0
  -11.8474  -10.2200    7.5166 C   0  0  0  0  0  0  0  0  0  0  0  0
  -12.0222   -9.0260    7.5525 O   0  0  0  0  0  0  0  0  0  0  0  0
  -11.1935  -10.8458    5.0732 N   0  0  0  0  0  0  0  0  0  0  0  0
  -10.8885  -12.0620    4.5456 C   0  0  0  0  0  0  0  0  0  0  0  0
  -10.9742  -13.0721    5.5140 N   0  0  0  0  0  0  0  0  0  0  0  0
  1  2  1  0  0  0  0
  1  6  1  0  0  0  0
  2  3  2  0  0  0  0
  3  4  1  0  0  0  0
  4  5  2  0  0  0  0
  4 10  1  0  0  0  0
  5  6  1  0  0  0  0
  5  8  1  0  0  0  0
  6  7  2  0  0  0  0
  8  9  1  0  0  0  0
  9 10  2  0  0  0  0
M  END
>  <CHROM.1>
-11.52458794,-11.47204215,6.89856283,-3.13567968,1.30660349,-0.55030174

>  <Name>
ligand

>  <RI>
0

>  <Rbt.Current_Directory>
/home/itssahil/PROJECTS/Mol_Feturizer/New_Systems/rnas/2EES

>  <Rbt.Executable>
rbdock ($Id: //depot/dev/client3/rdock/2013.1/src/exe/rbdock.cxx#4 $)

>  <Rbt.Library>
libRbt.so (2013.1, Build901 2013/11/27)

>  <Rbt.Parameter_File>
/export/apps/rDock/src/rDock_2013.1_src/data/scripts/dock_solv.prm

>  <Rbt.Receptor>
prm/pocket_docking_6.prm

>  <SCORE>
-17.0151

>  <SCORE.INTER>
-17.0151

>  <SCORE.INTER.CONST>
1

>  <SCORE.INTER.POLAR>
0

>  <SCORE.INTER.ROT>
0

>  <SCORE.INTER.SOLV>
3.67146

>  <SCORE.INTER.VDW>
-16.1672

>  <SCORE.INTER.norm>
-1.70151

>  <SCORE.INTRA>
0

>  <SCORE.INTRA.DIHEDRAL>
0

>  <SCORE.INTRA.DIHEDRAL.0>
0

>  <SCORE.INTRA.POLAR>
0

>  <SCORE.INTRA.POLAR.0>
0

>  <SCORE.INTRA.REPUL>
0

>  <SCORE.INTRA.REPUL.0>
0

>  <SCORE.INTRA.SOLV>
0

>  <SCORE.INTRA.SOLV.lig_0>
-4.28614

>  <SCORE.INTRA.VDW>
0

>  <SCORE.INTRA.VDW.0>
0

>  <SCORE.INTRA.norm>
0

>  <SCORE.RESTR>
0

>  <SCORE.RESTR.CAVITY>
0

>  <SCORE.RESTR.norm>
0

>  <SCORE.SYSTEM>
0

>  <SCORE.SYSTEM.CONST>
0

>  <SCORE.SYSTEM.DIHEDRAL>
0

>  <SCORE.SYSTEM.SOLV>
0

>  <SCORE.SYSTEM.norm>
0

>  <SCORE.heavy>
10

>  <SCORE.norm>
-1.70151

>  <RMSD>
0.753

$$$$
ligand
 OpenBabel11021811423D
libRbt.so/2013.1/901 2013/11/27
 10 11  0  0  0  0  0  0  0  0999 V2000
  -12.0520  -10.8631    8.7429 N   0  0  0  0  0  0  0  0  0  0  0  0
  -11.9052  -12.2402    8.9208 C   0  0  0  0  0  0  0  0  0  0  0  0
  -11.5489  -13.0618    7.9173 N   0  0  0  0  0  0  0  0  0  0  0  0
  -11.3436  -12.3964    6.7120 C   0  0  0  0  0  0  0  0  0  0  0  0
  -11.4725  -11.0326    6.4425 C   0  0  0  0  0  0  0  0  0  0  0  0
  -11.8599  -10.1501    7.5119 C   0  0  0  0  0  0  0  0  0  0  0  0
  -12.0332   -8.9554    7.5296 O   0  0  0  0  0  0  0  0  0  0  0  0
  -11.1572  -10.8068    5.0903 N   0  0  0  0  0  0  0  0  0  0  0  0
  -10.8437  -12.0298    4.5839 C   0  0  0  0  0  0  0  0  0  0  0  0
  -10.9512  -13.0278    5.5625 N   0  0  0  0  0  0  0  0  0  0  0  0
  1  2  1  0  0  0  0
  1  6  1  0  0  0  0
  2  3  2  0  0  0  0
  3  4  1  0  0  0  0
  4  5  2  0  0  0  0
  4 10  1  0  0  0  0
  5  6  1  0  0  0  0
  5  8  1  0  0  0  0
  6  7  2  0  0  0  0
  8  9  1  0  0  0  0
  9 10  2  0  0  0  0
M  END
>  <CHROM.1>
-11.52693673,-11.41009176,6.91591738,3.10282447,1.28980897,-0.51946585

>  <Name>
ligand

>  <RI>
0

>  <Rbt.Current_Directory>
/home/itssahil/PROJECTS/Mol_Feturizer/New_Systems/rnas/2EES

>  <Rbt.Executable>
rbdock ($Id: //depot/dev/client3/rdock/2013.1/src/exe/rbdock.cxx#4 $)

>  <Rbt.Library>
libRbt.so (2013.1, Build901 2013/11/27)

>  <Rbt.Parameter_File>
/export/apps/rDock/src/rDock_2013.1_src/data/scripts/dock_solv.prm

>  <Rbt.Receptor>
prm/pocket_docking_8.prm

>  <SCORE>
-16.989

>  <SCORE.INTER>
-16.989

>  <SCORE.INTER.CONST>
1

>  <SCORE.INTER.POLAR>
0

>  <SCORE.INTER.ROT>
0

>  <SCORE.INTER.SOLV>
3.65307

>  <SCORE.INTER.VDW>
-16.1437

>  <SCORE.INTER.norm>
-1.6989

>  <SCORE.INTRA>
0

>  <SCORE.INTRA.DIHEDRAL>
0

>  <SCORE.INTRA.DIHEDRAL.0>
0

>  <SCORE.INTRA.POLAR>
0

>  <SCORE.INTRA.POLAR.0>
0

>  <SCORE.INTRA.REPUL>
0

>  <SCORE.INTRA.REPUL.0>
0

>  <SCORE.INTRA.SOLV>
0

>  <SCORE.INTRA.SOLV.lig_0>
-4.28614

>  <SCORE.INTRA.VDW>
0

>  <SCORE.INTRA.VDW.0>
0

>  <SCORE.INTRA.norm>
0

>  <SCORE.RESTR>
0

>  <SCORE.RESTR.CAVITY>
0

>  <SCORE.RESTR.norm>
0

>  <SCORE.SYSTEM>
0

>  <SCORE.SYSTEM.CONST>
0

>  <SCORE.SYSTEM.DIHEDRAL>
0

>  <SCORE.SYSTEM.SOLV>
0

>  <SCORE.SYSTEM.norm>
0

>  <SCORE.heavy>
10

>  <SCORE.norm>
-1.6989

>  <RMSD>
0.753

$$$$
ligand
 OpenBabel11021811423D
libRbt.so/2013.1/901 2013/11/27
 10 11  0  0  0  0  0  0  0  0999 V2000
  -12.0059  -10.9652    8.7367 N   0  0  0  0  0  0  0  0  0  0  0  0
  -11.8172  -12.3403    8.8888 C   0  0  0  0  0  0  0  0  0  0  0  0
  -11.4535  -13.1345    7.8660 N   0  0  0  0  0  0  0  0  0  0  0  0
  -11.2864  -12.4435    6.6693 C   0  0  0  0  0  0  0  0  0  0  0  0
  -11.4584  -11.0797    6.4252 C   0  0  0  0  0  0  0  0  0  0  0  0
  -11.8538  -10.2265    7.5153 C   0  0  0  0  0  0  0  0  0  0  0  0
  -12.0607   -9.0378    7.5561 O   0  0  0  0  0  0  0  0  0  0  0  0
  -11.1711  -10.8224    5.0723 N   0  0  0  0  0  0  0  0  0  0  0  0
  -10.8310  -12.0274    4.5403 C   0  0  0  0  0  0  0  0  0  0  0  0
  -10.8945  -13.0442    5.5033 N   0  0  0  0  0  0  0  0  0  0  0  0
  1  2  1  0  0  0  0
  1  6  1  0  0  0  0
  2  3  2  0  0  0  0
  3  4  1  0  0  0  0
  4  5  2  0  0  0  0
  4 10  1  0  0  0  0
  5  6  1  0  0  0  0
  5  8  1  0  0  0  0
  6  7  2  0  0  0  0
  8  9  1  0  0  0  0
  9 10  2  0  0  0  0
M  END
>  <CHROM.1>
-11.49451064,-11.46639606,6.89281609,-3.06339092,1.28759395,-0.61496526

>  <Name>
ligand

>  <RI>
0

>  <Rbt.Current_Directory>
/home/itssahil/PROJECTS/Mol_Feturizer/New_Systems/rnas/2EES

>  <Rbt.Executable>
rbdock ($Id: //depot/dev/client3/rdock/2013.1/src/exe/rbdock.cxx#4 $)

>  <Rbt.Library>
libRbt.so (2013.1, Build901 2013/11/27)

>  <Rbt.Parameter_File>
/export/apps/rDock/src/rDock_2013.1_src/data/scripts/dock_solv.prm

>  <Rbt.Receptor>
prm/blind_docking_80.prm

>  <SCORE>
-17.0053

>  <SCORE.INTER>
-17.0053

>  <SCORE.INTER.CONST>
1

>  <SCORE.INTER.POLAR>
0

>  <SCORE.INTER.ROT>
0

>  <SCORE.INTER.SOLV>
3.60246

>  <SCORE.INTER.VDW>
-16.1377

>  <SCORE.INTER.norm>
-1.70053

>  <SCORE.INTRA>
0

>  <SCORE.INTRA.DIHEDRAL>
0

>  <SCORE.INTRA.DIHEDRAL.0>
0

>  <SCORE.INTRA.POLAR>
0

>  <SCORE.INTRA.POLAR.0>
0

>  <SCORE.INTRA.REPUL>
0

>  <SCORE.INTRA.REPUL.0>
0

>  <SCORE.INTRA.SOLV>
0

>  <SCORE.INTRA.SOLV.lig_0>
-4.28614

>  <SCORE.INTRA.VDW>
0

>  <SCORE.INTRA.VDW.0>
0

>  <SCORE.INTRA.norm>
0

>  <SCORE.RESTR>
0

>  <SCORE.RESTR.CAVITY>
0

>  <SCORE.RESTR.norm>
0

>  <SCORE.SYSTEM>
0

>  <SCORE.SYSTEM.CONST>
0

>  <SCORE.SYSTEM.DIHEDRAL>
0

>  <SCORE.SYSTEM.SOLV>
0

>  <SCORE.SYSTEM.norm>
0

>  <SCORE.heavy>
10

>  <SCORE.norm>
-1.70053

>  <RMSD>
0.754

$$$$
ligand
 OpenBabel11021811423D
libRbt.so/2013.1/901 2013/11/27
 10 11  0  0  0  0  0  0  0  0999 V2000
  -11.9746  -10.9533    8.7444 N   0  0  0  0  0  0  0  0  0  0  0  0
  -11.8062  -12.3300    8.9046 C   0  0  0  0  0  0  0  0  0  0  0  0
  -11.4733  -13.1384    7.8824 N   0  0  0  0  0  0  0  0  0  0  0  0
  -11.3152  -12.4598    6.6773 C   0  0  0  0  0  0  0  0  0  0  0  0
  -11.4686  -11.0953    6.4250 C   0  0  0  0  0  0  0  0  0  0  0  0
  -11.8311  -10.2270    7.5146 C   0  0  0  0  0  0  0  0  0  0  0  0
  -12.0174   -9.0346    7.5491 O   0  0  0  0  0  0  0  0  0  0  0  0
  -11.2002  -10.8536    5.0653 N   0  0  0  0  0  0  0  0  0  0  0  0
  -10.8894  -12.0683    4.5376 C   0  0  0  0  0  0  0  0  0  0  0  0
  -10.9533  -13.0762    5.5099 N   0  0  0  0  0  0  0  0  0  0  0  0
  1  2  1  0  0  0  0
  1  6  1  0  0  0  0
  2  3  2  0  0  0  0
  3  4  1  0  0  0  0
  4  5  2  0  0  0  0
  4 10  1  0  0  0  0
  5  6  1  0  0  0  0
  5  8  1  0  0  0  0
  6  7  2  0  0  0  0
  8  9  1  0  0  0  0
  9 10  2  0  0  0  0
M  END
>  <CHROM.1>
-11.50319287,-11.47757951,6.89633479,-3.07793196,1.31113841,-0.60902899

>  <Name>
ligand

>  <RI>
0

>  <Rbt.Current_Directory>
/home/itssahil/PROJECTS/Mol_Feturizer/New_Systems/rnas/2EES

>  <Rbt.Executable>
rbdock ($Id: //depot/dev/client3/rdock/2013.1/src/exe/rbdock.cxx#4 $)

>  <Rbt.Library>
libRbt.so (2013.1, Build901 2013/11/27)

>  <Rbt.Parameter_File>
/export/apps/rDock/src/rDock_2013.1_src/data/scripts/dock_solv.prm

>  <Rbt.Receptor>
prm/blind_docking_80.prm

>  <SCORE>
-17.0021

>  <SCORE.INTER>
-17.0021

>  <SCORE.INTER.CONST>
1

>  <SCORE.INTER.POLAR>
0

>  <SCORE.INTER.ROT>
0

>  <SCORE.INTER.SOLV>
3.67737

>  <SCORE.INTER.VDW>
-16.1605

>  <SCORE.INTER.norm>
-1.70021

>  <SCORE.INTRA>
0

>  <SCORE.INTRA.DIHEDRAL>
0

>  <SCORE.INTRA.DIHEDRAL.0>
0

>  <SCORE.INTRA.POLAR>
0

>  <SCORE.INTRA.POLAR.0>
0

>  <SCORE.INTRA.REPUL>
0

>  <SCORE.INTRA.REPUL.0>
0

>  <SCORE.INTRA.SOLV>
0

>  <SCORE.INTRA.SOLV.lig_0>
-4.28614

>  <SCORE.INTRA.VDW>
0

>  <SCORE.INTRA.VDW.0>
0

>  <SCORE.INTRA.norm>
0

>  <SCORE.RESTR>
0

>  <SCORE.RESTR.CAVITY>
0

>  <SCORE.RESTR.norm>
0

>  <SCORE.SYSTEM>
0

>  <SCORE.SYSTEM.CONST>
0

>  <SCORE.SYSTEM.DIHEDRAL>
0

>  <SCORE.SYSTEM.SOLV>
0

>  <SCORE.SYSTEM.norm>
0

>  <SCORE.heavy>
10

>  <SCORE.norm>
-1.70021

>  <RMSD>
0.755

$$$$
ligand
 OpenBabel11021811423D
libRbt.so/2013.1/901 2013/11/27
 10 11  0  0  0  0  0  0  0  0999 V2000
  -12.0192  -10.9343    8.7345 N   0  0  0  0  0  0  0  0  0  0  0  0
  -11.8838  -12.3137    8.9032 C   0  0  0  0  0  0  0  0  0  0  0  0
  -11.5462  -13.1330    7.8914 N   0  0  0  0  0  0  0  0  0  0  0  0
  -11.3473  -12.4628    6.6876 C   0  0  0  0  0  0  0  0  0  0  0  0
  -11.4660  -11.0963    6.4272 C   0  0  0  0  0  0  0  0  0  0  0  0
  -11.8335  -10.2162    7.5055 C   0  0  0  0  0  0  0  0  0  0  0  0
  -11.9950   -9.0200    7.5317 O   0  0  0  0  0  0  0  0  0  0  0  0
  -11.1630  -10.8659    5.0729 N   0  0  0  0  0  0  0  0  0  0  0  0
  -10.8668  -12.0890    4.5563 C   0  0  0  0  0  0  0  0  0  0  0  0
  -10.9734  -13.0914    5.5306 N   0  0  0  0  0  0  0  0  0  0  0  0
  1  2  1  0  0  0  0
  1  6  1  0  0  0  0
  2  3  2  0  0  0  0
  3  4  1  0  0  0  0
  4  5  2  0  0  0  0
  4 10  1  0  0  0  0
  5  6  1  0  0  0  0
  5  8  1  0  0  0  0
  6  7  2  0  0  0  0
  8  9  1  0  0  0  0
  9 10  2  0  0  0  0
M  END
>  <CHROM.1>
-11.51901874,-11.47593728,6.89900454,3.09127202,1.30386568,-0.50273907

>  <Name>
ligand

>  <RI>
0

>  <Rbt.Current_Directory>
/home/itssahil/PROJECTS/Mol_Feturizer/New_Systems/rnas/2EES

>  <Rbt.Executable>
rbdock ($Id: //depot/dev/client3/rdock/2013.1/src/exe/rbdock.cxx#4 $)

>  <Rbt.Library>
libRbt.so (2013.1, Build901 2013/11/27)

>  <Rbt.Parameter_File>
/export/apps/rDock/src/rDock_2013.1_src/data/scripts/dock_solv.prm

>  <Rbt.Receptor>
prm/pocket_docking_7.prm

>  <SCORE>
-16.9875

>  <SCORE.INTER>
-16.9875

>  <SCORE.INTER.CONST>
1

>  <SCORE.INTER.POLAR>
0

>  <SCORE.INTER.ROT>
0

>  <SCORE.INTER.SOLV>
3.6948

>  <SCORE.INTER.VDW>
-16.1566

>  <SCORE.INTER.norm>
-1.69875

>  <SCORE.INTRA>
0

>  <SCORE.INTRA.DIHEDRAL>
0

>  <SCORE.INTRA.DIHEDRAL.0>
0

>  <SCORE.INTRA.POLAR>
0

>  <SCORE.INTRA.POLAR.0>
0

>  <SCORE.INTRA.REPUL>
0

>  <SCORE.INTRA.REPUL.0>
0

>  <SCORE.INTRA.SOLV>
0

>  <SCORE.INTRA.SOLV.lig_0>
-4.28614

>  <SCORE.INTRA.VDW>
0

>  <SCORE.INTRA.VDW.0>
0

>  <SCORE.INTRA.norm>
0

>  <SCORE.RESTR>
0

>  <SCORE.RESTR.CAVITY>
0

>  <SCORE.RESTR.norm>
0

>  <SCORE.SYSTEM>
0

>  <SCORE.SYSTEM.CONST>
0

>  <SCORE.SYSTEM.DIHEDRAL>
0

>  <SCORE.SYSTEM.SOLV>
0

>  <SCORE.SYSTEM.norm>
0

>  <SCORE.heavy>
10

>  <SCORE.norm>
-1.69875

>  <RMSD>
0.755

$$$$
ligand
 OpenBabel11021811423D
libRbt.so/2013.1/901 2013/11/27
 10 11  0  0  0  0  0  0  0  0999 V2000
  -12.0094  -10.8828    8.7284 N   0  0  0  0  0  0  0  0  0  0  0  0
  -11.8261  -12.2533    8.9228 C   0  0  0  0  0  0  0  0  0  0  0  0
  -11.4704  -13.0808    7.9240 N   0  0  0  0  0  0  0  0  0  0  0  0
  -11.3052  -12.4285    6.7054 C   0  0  0  0  0  0  0  0  0  0  0  0
  -11.4721  -11.0722    6.4194 C   0  0  0  0  0  0  0  0  0  0  0  0
  -11.8591  -10.1835    7.4838 C   0  0  0  0  0  0  0  0  0  0  0  0
  -12.0604   -8.9931    7.4882 O   0  0  0  0  0  0  0  0  0  0  0  0
  -11.1893  -10.8588    5.0579 N   0  0  0  0  0  0  0  0  0  0  0  0
  -10.8569  -12.0814    4.5626 C   0  0  0  0  0  0  0  0  0  0  0  0
  -10.9209  -13.0672    5.5573 N   0  0  0  0  0  0  0  0  0  0  0  0
  1  2  1  0  0  0  0
  1  6  1  0  0  0  0
  2  3  2  0  0  0  0
  3  4  1  0  0  0  0
  4  5  2  0  0  0  0
  4 10  1  0  0  0  0
  5  6  1  0  0  0  0
  5  8  1  0  0  0  0
  6  7  2  0  0  0  0
  8  9  1  0  0  0  0
  9 10  2  0  0  0  0
M  END
>  <CHROM.1>
-11.50798175,-11.44389816,6.89909404,-3.06790418,1.29363452,-0.64197856

>  <Name>
ligand

>  <RI>
0

>  <Rbt.Current_Directory>
/home/itssahil/PROJECTS/Mol_Feturizer/New_Systems/rnas/2EES

>  <Rbt.Executable>
rbdock ($Id: //depot/dev/client3/rdock/2013.1/src/exe/rbdock.cxx#4 $)

>  <Rbt.Library>
libRbt.so (2013.1, Build901 2013/11/27)

>  <Rbt.Parameter_File>
/export/apps/rDock/src/rDock_2013.1_src/data/scripts/dock_solv.prm

>  <Rbt.Receptor>
prm/blind_docking_80.prm

>  <SCORE>
-16.9679

>  <SCORE.INTER>
-16.9679

>  <SCORE.INTER.CONST>
1

>  <SCORE.INTER.POLAR>
0

>  <SCORE.INTER.ROT>
0

>  <SCORE.INTER.SOLV>
3.62185

>  <SCORE.INTER.VDW>
-16.1192

>  <SCORE.INTER.norm>
-1.69679

>  <SCORE.INTRA>
0

>  <SCORE.INTRA.DIHEDRAL>
0

>  <SCORE.INTRA.DIHEDRAL.0>
0

>  <SCORE.INTRA.POLAR>
0

>  <SCORE.INTRA.POLAR.0>
0

>  <SCORE.INTRA.REPUL>
0

>  <SCORE.INTRA.REPUL.0>
0

>  <SCORE.INTRA.SOLV>
0

>  <SCORE.INTRA.SOLV.lig_0>
-4.28614

>  <SCORE.INTRA.VDW>
0

>  <SCORE.INTRA.VDW.0>
0

>  <SCORE.INTRA.norm>
0

>  <SCORE.RESTR>
0

>  <SCORE.RESTR.CAVITY>
0

>  <SCORE.RESTR.norm>
0

>  <SCORE.SYSTEM>
0

>  <SCORE.SYSTEM.CONST>
0

>  <SCORE.SYSTEM.DIHEDRAL>
0

>  <SCORE.SYSTEM.SOLV>
0

>  <SCORE.SYSTEM.norm>
0

>  <SCORE.heavy>
10

>  <SCORE.norm>
-1.69679

>  <RMSD>
0.756

$$$$
ligand
 OpenBabel11021811423D
libRbt.so/2013.1/901 2013/11/27
 10 11  0  0  0  0  0  0  0  0999 V2000
  -12.0335  -10.8872    8.7252 N   0  0  0  0  0  0  0  0  0  0  0  0
  -11.8483  -12.2584    8.9127 C   0  0  0  0  0  0  0  0  0  0  0  0
  -11.4896  -13.0802    7.9102 N   0  0  0  0  0  0  0  0  0  0  0  0
  -11.3235  -12.4212    6.6953 C   0  0  0  0  0  0  0  0  0  0  0  0
  -11.4922  -11.0637    6.4161 C   0  0  0  0  0  0  0  0  0  0  0  0
  -11.8824  -10.1812    7.4845 C   0  0  0  0  0  0  0  0  0  0  0  0
  -12.0857   -8.9912    7.4947 O   0  0  0  0  0  0  0  0  0  0  0  0
  -11.2076  -10.8427    5.0562 N   0  0  0  0  0  0  0  0  0  0  0  0
  -10.8724  -12.0622    4.5551 C   0  0  0  0  0  0  0  0  0  0  0  0
  -10.9363  -13.0533    5.5445 N   0  0  0  0  0  0  0  0  0  0  0  0
  1  2  1  0  0  0  0
  1  6  1  0  0  0  0
  2  3  2  0  0  0  0
  3  4  1  0  0  0  0
  4  5  2  0  0  0  0
  4 10  1  0  0  0  0
  5  6  1  0  0  0  0
  5  8  1  0  0  0  0
  6  7  2  0  0  0  0
  8  9  1  0  0  0  0
  9 10  2  0  0  0  0
M  END
>  <CHROM.1>
-11.52823436,-11.43795864,6.89379079,-3.06657690,1.29133725,-0.63804340

>  <Name>
ligand

>  <RI>
0

>  <Rbt.Current_Directory>
/home/itssahil/PROJECTS/Mol_Feturizer/New_Systems/rnas/2EES

>  <Rbt.Executable>
rbdock ($Id: //depot/dev/client3/rdock/2013.1/src/exe/rbdock.cxx#4 $)

>  <Rbt.Library>
libRbt.so (2013.1, Build901 2013/11/27)

>  <Rbt.Parameter_File>
/export/apps/rDock/src/rDock_2013.1_src/data/scripts/dock_solv.prm

>  <Rbt.Receptor>
prm/pocket_docking_7.prm

>  <SCORE>
-16.948

>  <SCORE.INTER>
-16.948

>  <SCORE.INTER.CONST>
1

>  <SCORE.INTER.POLAR>
0

>  <SCORE.INTER.ROT>
0

>  <SCORE.INTER.SOLV>
3.60011

>  <SCORE.INTER.VDW>
-16.0987

>  <SCORE.INTER.norm>
-1.6948

>  <SCORE.INTRA>
0

>  <SCORE.INTRA.DIHEDRAL>
0

>  <SCORE.INTRA.DIHEDRAL.0>
0

>  <SCORE.INTRA.POLAR>
0

>  <SCORE.INTRA.POLAR.0>
0

>  <SCORE.INTRA.REPUL>
0

>  <SCORE.INTRA.REPUL.0>
0

>  <SCORE.INTRA.SOLV>
0

>  <SCORE.INTRA.SOLV.lig_0>
-4.28614

>  <SCORE.INTRA.VDW>
0

>  <SCORE.INTRA.VDW.0>
0

>  <SCORE.INTRA.norm>
0

>  <SCORE.RESTR>
0

>  <SCORE.RESTR.CAVITY>
0

>  <SCORE.RESTR.norm>
0

>  <SCORE.SYSTEM>
0

>  <SCORE.SYSTEM.CONST>
0

>  <SCORE.SYSTEM.DIHEDRAL>
0

>  <SCORE.SYSTEM.SOLV>
0

>  <SCORE.SYSTEM.norm>
0

>  <SCORE.heavy>
10

>  <SCORE.norm>
-1.6948

>  <RMSD>
0.758

$$$$
ligand
 OpenBabel11021811423D
libRbt.so/2013.1/901 2013/11/27
 10 11  0  0  0  0  0  0  0  0999 V2000
  -11.9963  -10.9650    8.7339 N   0  0  0  0  0  0  0  0  0  0  0  0
  -11.8383  -12.3434    8.8905 C   0  0  0  0  0  0  0  0  0  0  0  0
  -11.4953  -13.1493    7.8697 N   0  0  0  0  0  0  0  0  0  0  0  0
  -11.3155  -12.4665    6.6700 C   0  0  0  0  0  0  0  0  0  0  0  0
  -11.4572  -11.1001    6.4215 C   0  0  0  0  0  0  0  0  0  0  0  0
  -11.8305  -10.2343    7.5094 C   0  0  0  0  0  0  0  0  0  0  0  0
  -12.0103   -9.0411    7.5464 O   0  0  0  0  0  0  0  0  0  0  0  0
  -11.1675  -10.8542    5.0670 N   0  0  0  0  0  0  0  0  0  0  0  0
  -10.8561  -12.0684    4.5385 C   0  0  0  0  0  0  0  0  0  0  0  0
  -10.9402  -13.0801    5.5054 N   0  0  0  0  0  0  0  0  0  0  0  0
  1  2  1  0  0  0  0
  1  6  1  0  0  0  0
  2  3  2  0  0  0  0
  3  4  1  0  0  0  0
  4  5  2  0  0  0  0
  4 10  1  0  0  0  0
  5  6  1  0  0  0  0
  5  8  1  0  0  0  0
  6  7  2  0  0  0  0
  8  9  1  0  0  0  0
  9 10  2  0  0  0  0
M  END
>  <CHROM.1>
-11.50091480,-11.48419881,6.89058722,-3.12781606,1.30215777,-0.55654744

>  <Name>
ligand

>  <RI>
0

>  <Rbt.Current_Directory>
/home/itssahil/PROJECTS/Mol_Feturizer/New_Systems/rnas/2EES

>  <Rbt.Executable>
rbdock ($Id: //depot/dev/client3/rdock/2013.1/src/exe/rbdock.cxx#4 $)

>  <Rbt.Library>
libRbt.so (2013.1, Build901 2013/11/27)

>  <Rbt.Parameter_File>
/export/apps/rDock/src/rDock_2013.1_src/data/scripts/dock_solv.prm

>  <Rbt.Receptor>
prm/blind_docking_40.prm

>  <SCORE>
-17.0003

>  <SCORE.INTER>
-17.0003

>  <SCORE.INTER.CONST>
1

>  <SCORE.INTER.POLAR>
0

>  <SCORE.INTER.ROT>
0

>  <SCORE.INTER.SOLV>
3.67276

>  <SCORE.INTER.VDW>
-16.1578

>  <SCORE.INTER.norm>
-1.70003

>  <SCORE.INTRA>
0

>  <SCORE.INTRA.DIHEDRAL>
0

>  <SCORE.INTRA.DIHEDRAL.0>
0

>  <SCORE.INTRA.POLAR>
0

>  <SCORE.INTRA.POLAR.0>
0

>  <SCORE.INTRA.REPUL>
0

>  <SCORE.INTRA.REPUL.0>
0

>  <SCORE.INTRA.SOLV>
0

>  <SCORE.INTRA.SOLV.lig_0>
-4.28614

>  <SCORE.INTRA.VDW>
0

>  <SCORE.INTRA.VDW.0>
0

>  <SCORE.INTRA.norm>
0

>  <SCORE.RESTR>
0

>  <SCORE.RESTR.CAVITY>
0

>  <SCORE.RESTR.norm>
0

>  <SCORE.SYSTEM>
0

>  <SCORE.SYSTEM.CONST>
0

>  <SCORE.SYSTEM.DIHEDRAL>
0

>  <SCORE.SYSTEM.SOLV>
0

>  <SCORE.SYSTEM.norm>
0

>  <SCORE.heavy>
10

>  <SCORE.norm>
-1.70003

>  <RMSD>
0.759

$$$$
ligand
 OpenBabel11021811423D
libRbt.so/2013.1/901 2013/11/27
 10 11  0  0  0  0  0  0  0  0999 V2000
  -11.9939  -10.9921    8.7379 N   0  0  0  0  0  0  0  0  0  0  0  0
  -11.8099  -12.3689    8.8797 C   0  0  0  0  0  0  0  0  0  0  0  0
  -11.4623  -13.1587    7.8480 N   0  0  0  0  0  0  0  0  0  0  0  0
  -11.3062  -12.4615    6.6534 C   0  0  0  0  0  0  0  0  0  0  0  0
  -11.4746  -11.0955    6.4194 C   0  0  0  0  0  0  0  0  0  0  0  0
  -11.8528  -10.2469    7.5191 C   0  0  0  0  0  0  0  0  0  0  0  0
  -12.0536   -9.0575    7.5693 O   0  0  0  0  0  0  0  0  0  0  0  0
  -11.2022  -10.8315    5.0647 N   0  0  0  0  0  0  0  0  0  0  0  0
  -10.8743  -12.0349    4.5216 C   0  0  0  0  0  0  0  0  0  0  0  0
  -10.9311  -13.0571    5.4794 N   0  0  0  0  0  0  0  0  0  0  0  0
  1  2  1  0  0  0  0
  1  6  1  0  0  0  0
  2  3  2  0  0  0  0
  3  4  1  0  0  0  0
  4  5  2  0  0  0  0
  4 10  1  0  0  0  0
  5  6  1  0  0  0  0
  5  8  1  0  0  0  0
  6  7  2  0  0  0  0
  8  9  1  0  0  0  0
  9 10  2  0  0  0  0
M  END
>  <CHROM.1>
-11.50695533,-11.48474961,6.88513861,-3.05222212,1.30009228,-0.61982277

>  <Name>
ligand

>  <RI>
0

>  <Rbt.Current_Directory>
/home/itssahil/PROJECTS/Mol_Feturizer/New_Systems/rnas/2EES

>  <Rbt.Executable>
rbdock ($Id: //depot/dev/client3/rdock/2013.1/src/exe/rbdock.cxx#4 $)

>  <Rbt.Library>
libRbt.so (2013.1, Build901 2013/11/27)

>  <Rbt.Parameter_File>
/export/apps/rDock/src/rDock_2013.1_src/data/scripts/dock_solv.prm

>  <Rbt.Receptor>
prm/blind_docking_80.prm

>  <SCORE>
-16.9866

>  <SCORE.INTER>
-16.9866

>  <SCORE.INTER.CONST>
1

>  <SCORE.INTER.POLAR>
0

>  <SCORE.INTER.ROT>
0

>  <SCORE.INTER.SOLV>
3.62908

>  <SCORE.INTER.VDW>
-16.1341

>  <SCORE.INTER.norm>
-1.69866

>  <SCORE.INTRA>
0

>  <SCORE.INTRA.DIHEDRAL>
0

>  <SCORE.INTRA.DIHEDRAL.0>
0

>  <SCORE.INTRA.POLAR>
0

>  <SCORE.INTRA.POLAR.0>
0

>  <SCORE.INTRA.REPUL>
0

>  <SCORE.INTRA.REPUL.0>
0

>  <SCORE.INTRA.SOLV>
0

>  <SCORE.INTRA.SOLV.lig_0>
-4.28614

>  <SCORE.INTRA.VDW>
0

>  <SCORE.INTRA.VDW.0>
0

>  <SCORE.INTRA.norm>
0

>  <SCORE.RESTR>
0

>  <SCORE.RESTR.CAVITY>
0

>  <SCORE.RESTR.norm>
0

>  <SCORE.SYSTEM>
0

>  <SCORE.SYSTEM.CONST>
0

>  <SCORE.SYSTEM.DIHEDRAL>
0

>  <SCORE.SYSTEM.SOLV>
0

>  <SCORE.SYSTEM.norm>
0

>  <SCORE.heavy>
10

>  <SCORE.norm>
-1.69866

>  <RMSD>
0.759

$$$$
ligand
 OpenBabel11021811423D
libRbt.so/2013.1/901 2013/11/27
 10 11  0  0  0  0  0  0  0  0999 V2000
  -12.0245  -10.8473    8.7228 N   0  0  0  0  0  0  0  0  0  0  0  0
  -11.8532  -12.2174    8.9304 C   0  0  0  0  0  0  0  0  0  0  0  0
  -11.4998  -13.0569    7.9408 N   0  0  0  0  0  0  0  0  0  0  0  0
  -11.3239  -12.4170    6.7171 C   0  0  0  0  0  0  0  0  0  0  0  0
  -11.4786  -11.0621    6.4180 C   0  0  0  0  0  0  0  0  0  0  0  0
  -11.8630  -10.1606    7.4725 C   0  0  0  0  0  0  0  0  0  0  0  0
  -12.0548   -8.9687    7.4651 O   0  0  0  0  0  0  0  0  0  0  0  0
  -11.1881  -10.8634    5.0560 N   0  0  0  0  0  0  0  0  0  0  0  0
  -10.8634  -12.0931    4.5733 C   0  0  0  0  0  0  0  0  0  0  0  0
  -10.9397  -13.0693    5.5766 N   0  0  0  0  0  0  0  0  0  0  0  0
  1  2  1  0  0  0  0
  1  6  1  0  0  0  0
  2  3  2  0  0  0  0
  3  4  1  0  0  0  0
  4  5  2  0  0  0  0
  4 10  1  0  0  0  0
  5  6  1  0  0  0  0
  5  8  1  0  0  0  0
  6  7  2  0  0  0  0
  8  9  1  0  0  0  0
  9 10  2  0  0  0  0
M  END
>  <CHROM.1>
-11.51959227,-11.42908856,6.90089132,-3.10144615,1.29479015,-0.61882785

>  <Name>
ligand

>  <RI>
0

>  <Rbt.Current_Directory>
/home/itssahil/PROJECTS/Mol_Feturizer/New_Systems/rnas/2EES

>  <Rbt.Executable>
rbdock ($Id: //depot/dev/client3/rdock/2013.1/src/exe/rbdock.cxx#4 $)

>  <Rbt.Library>
libRbt.so (2013.1, Build901 2013/11/27)

>  <Rbt.Parameter_File>
/export/apps/rDock/src/rDock_2013.1_src/data/scripts/dock_solv.prm

>  <Rbt.Receptor>
prm/pocket_docking_6.prm

>  <SCORE>
-16.9768

>  <SCORE.INTER>
-16.9768

>  <SCORE.INTER.CONST>
1

>  <SCORE.INTER.POLAR>
0

>  <SCORE.INTER.ROT>
0

>  <SCORE.INTER.SOLV>
3.64055

>  <SCORE.INTER.VDW>
-16.1314

>  <SCORE.INTER.norm>
-1.69768

>  <SCORE.INTRA>
0

>  <SCORE.INTRA.DIHEDRAL>
0

>  <SCORE.INTRA.DIHEDRAL.0>
0

>  <SCORE.INTRA.POLAR>
0

>  <SCORE.INTRA.POLAR.0>
0

>  <SCORE.INTRA.REPUL>
0

>  <SCORE.INTRA.REPUL.0>
0

>  <SCORE.INTRA.SOLV>
0

>  <SCORE.INTRA.SOLV.lig_0>
-4.28614

>  <SCORE.INTRA.VDW>
0

>  <SCORE.INTRA.VDW.0>
0

>  <SCORE.INTRA.norm>
0

>  <SCORE.RESTR>
0

>  <SCORE.RESTR.CAVITY>
0

>  <SCORE.RESTR.norm>
0

>  <SCORE.SYSTEM>
0

>  <SCORE.SYSTEM.CONST>
0

>  <SCORE.SYSTEM.DIHEDRAL>
0

>  <SCORE.SYSTEM.SOLV>
0

>  <SCORE.SYSTEM.norm>
0

>  <SCORE.heavy>
10

>  <SCORE.norm>
-1.69768

>  <RMSD>
0.760

$$$$
ligand
 OpenBabel11021811423D
libRbt.so/2013.1/901 2013/11/27
 10 11  0  0  0  0  0  0  0  0999 V2000
  -11.9780  -10.9408    8.7361 N   0  0  0  0  0  0  0  0  0  0  0  0
  -11.8158  -12.3176    8.9026 C   0  0  0  0  0  0  0  0  0  0  0  0
  -11.4813  -13.1313    7.8853 N   0  0  0  0  0  0  0  0  0  0  0  0
  -11.3146  -12.4582    6.6783 C   0  0  0  0  0  0  0  0  0  0  0  0
  -11.4613  -11.0941    6.4198 C   0  0  0  0  0  0  0  0  0  0  0  0
  -11.8256  -10.2200    7.5041 C   0  0  0  0  0  0  0  0  0  0  0  0
  -12.0073   -9.0268    7.5330 O   0  0  0  0  0  0  0  0  0  0  0  0
  -11.1854  -10.8589    5.0605 N   0  0  0  0  0  0  0  0  0  0  0  0
  -10.8769  -12.0769    4.5391 C   0  0  0  0  0  0  0  0  0  0  0  0
  -10.9495  -13.0807    5.5151 N   0  0  0  0  0  0  0  0  0  0  0  0
  1  2  1  0  0  0  0
  1  6  1  0  0  0  0
  2  3  2  0  0  0  0
  3  4  1  0  0  0  0
  4  5  2  0  0  0  0
  4 10  1  0  0  0  0
  5  6  1  0  0  0  0
  5  8  1  0  0  0  0
  6  7  2  0  0  0  0
  8  9  1  0  0  0  0
  9 10  2  0  0  0  0
M  END
>  <CHROM.1>
-11.49969439,-11.47439227,6.89245913,-3.10138700,1.30938127,-0.59035711

>  <Name>
ligand

>  <RI>
0

>  <Rbt.Current_Directory>
/home/itssahil/PROJECTS/Mol_Feturizer/New_Systems/rnas/2EES

>  <Rbt.Executable>
rbdock ($Id: //depot/dev/client3/rdock/2013.1/src/exe/rbdock.cxx#4 $)

>  <Rbt.Library>
libRbt.so (2013.1, Build901 2013/11/27)

>  <Rbt.Parameter_File>
/export/apps/rDock/src/rDock_2013.1_src/data/scripts/dock_solv.prm

>  <Rbt.Receptor>
prm/pocket_docking_6.prm

>  <SCORE>
-17.0052

>  <SCORE.INTER>
-17.0052

>  <SCORE.INTER.CONST>
1

>  <SCORE.INTER.POLAR>
0

>  <SCORE.INTER.ROT>
0

>  <SCORE.INTER.SOLV>
3.68642

>  <SCORE.INTER.VDW>
-16.1656

>  <SCORE.INTER.norm>
-1.70052

>  <SCORE.INTRA>
0

>  <SCORE.INTRA.DIHEDRAL>
0

>  <SCORE.INTRA.DIHEDRAL.0>
0

>  <SCORE.INTRA.POLAR>
0

>  <SCORE.INTRA.POLAR.0>
0

>  <SCORE.INTRA.REPUL>
0

>  <SCORE.INTRA.REPUL.0>
0

>  <SCORE.INTRA.SOLV>
0

>  <SCORE.INTRA.SOLV.lig_0>
-4.28614

>  <SCORE.INTRA.VDW>
0

>  <SCORE.INTRA.VDW.0>
0

>  <SCORE.INTRA.norm>
0

>  <SCORE.RESTR>
0

>  <SCORE.RESTR.CAVITY>
0

>  <SCORE.RESTR.norm>
0

>  <SCORE.SYSTEM>
0

>  <SCORE.SYSTEM.CONST>
0

>  <SCORE.SYSTEM.DIHEDRAL>
0

>  <SCORE.SYSTEM.SOLV>
0

>  <SCORE.SYSTEM.norm>
0

>  <SCORE.heavy>
10

>  <SCORE.norm>
-1.70052

>  <RMSD>
0.761

$$$$
ligand
 OpenBabel11021811423D
libRbt.so/2013.1/901 2013/11/27
 10 11  0  0  0  0  0  0  0  0999 V2000
  -11.9935  -10.9290    8.7301 N   0  0  0  0  0  0  0  0  0  0  0  0
  -11.8208  -12.3044    8.8973 C   0  0  0  0  0  0  0  0  0  0  0  0
  -11.4680  -13.1142    7.8830 N   0  0  0  0  0  0  0  0  0  0  0  0
  -11.2944  -12.4386    6.6783 C   0  0  0  0  0  0  0  0  0  0  0  0
  -11.4507  -11.0757    6.4193 C   0  0  0  0  0  0  0  0  0  0  0  0
  -11.8344  -10.2059    7.5003 C   0  0  0  0  0  0  0  0  0  0  0  0
  -12.0272   -9.0144    7.5280 O   0  0  0  0  0  0  0  0  0  0  0  0
  -11.1623  -10.8370    5.0632 N   0  0  0  0  0  0  0  0  0  0  0  0
  -10.8372  -12.0517    4.5443 C   0  0  0  0  0  0  0  0  0  0  0  0
  -10.9113  -13.0569    5.5187 N   0  0  0  0  0  0  0  0  0  0  0  0
  1  2  1  0  0  0  0
  1  6  1  0  0  0  0
  2  3  2  0  0  0  0
  3  4  1  0  0  0  0
  4  5  2  0  0  0  0
  4 10  1  0  0  0  0
  5  6  1  0  0  0  0
  5  8  1  0  0  0  0
  6  7  2  0  0  0  0
  8  9  1  0  0  0  0
  9 10  2  0  0  0  0
M  END
>  <CHROM.1>
-11.49068149,-11.45673766,6.89124797,-3.09586236,1.29543873,-0.59491500

>  <Name>
ligand

>  <RI>
0

>  <Rbt.Current_Directory>
/home/itssahil/PROJECTS/Mol_Feturizer/New_Systems/rnas/2EES

>  <Rbt.Executable>
rbdock ($Id: //depot/dev/client3/rdock/2013.1/src/exe/rbdock.cxx#4 $)

>  <Rbt.Library>
libRbt.so (2013.1, Build901 2013/11/27)

>  <Rbt.Parameter_File>
/export/apps/rDock/src/rDock_2013.1_src/data/scripts/dock_solv.prm

>  <Rbt.Receptor>
prm/blind_docking_40.prm

>  <SCORE>
-17.0033

>  <SCORE.INTER>
-17.0033

>  <SCORE.INTER.CONST>
1

>  <SCORE.INTER.POLAR>
0

>  <SCORE.INTER.ROT>
0

>  <SCORE.INTER.SOLV>
3.64924

>  <SCORE.INTER.VDW>
-16.1519

>  <SCORE.INTER.norm>
-1.70033

>  <SCORE.INTRA>
0

>  <SCORE.INTRA.DIHEDRAL>
0

>  <SCORE.INTRA.DIHEDRAL.0>
0

>  <SCORE.INTRA.POLAR>
0

>  <SCORE.INTRA.POLAR.0>
0

>  <SCORE.INTRA.REPUL>
0

>  <SCORE.INTRA.REPUL.0>
0

>  <SCORE.INTRA.SOLV>
0

>  <SCORE.INTRA.SOLV.lig_0>
-4.28614

>  <SCORE.INTRA.VDW>
0

>  <SCORE.INTRA.VDW.0>
0

>  <SCORE.INTRA.norm>
0

>  <SCORE.RESTR>
0

>  <SCORE.RESTR.CAVITY>
0

>  <SCORE.RESTR.norm>
0

>  <SCORE.SYSTEM>
0

>  <SCORE.SYSTEM.CONST>
0

>  <SCORE.SYSTEM.DIHEDRAL>
0

>  <SCORE.SYSTEM.SOLV>
0

>  <SCORE.SYSTEM.norm>
0

>  <SCORE.heavy>
10

>  <SCORE.norm>
-1.70033

>  <RMSD>
0.763

$$$$
ligand
 OpenBabel11021811423D
libRbt.so/2013.1/901 2013/11/27
 10 11  0  0  0  0  0  0  0  0999 V2000
  -11.9794  -10.8882    8.7428 N   0  0  0  0  0  0  0  0  0  0  0  0
  -11.8276  -12.2652    8.9173 C   0  0  0  0  0  0  0  0  0  0  0  0
  -11.4967  -13.0870    7.9053 N   0  0  0  0  0  0  0  0  0  0  0  0
  -11.3225  -12.4219    6.6949 C   0  0  0  0  0  0  0  0  0  0  0  0
  -11.4589  -11.0583    6.4284 C   0  0  0  0  0  0  0  0  0  0  0  0
  -11.8192  -10.1755    7.5070 C   0  0  0  0  0  0  0  0  0  0  0  0
  -11.9925   -8.9809    7.5288 O   0  0  0  0  0  0  0  0  0  0  0  0
  -11.1784  -10.8328    5.0684 N   0  0  0  0  0  0  0  0  0  0  0  0
  -10.8775  -12.0559    4.5546 C   0  0  0  0  0  0  0  0  0  0  0  0
  -10.9595  -13.0536    5.5360 N   0  0  0  0  0  0  0  0  0  0  0  0
  1  2  1  0  0  0  0
  1  6  1  0  0  0  0
  2  3  2  0  0  0  0
  3  4  1  0  0  0  0
  4  5  2  0  0  0  0
  4 10  1  0  0  0  0
  5  6  1  0  0  0  0
  5  8  1  0  0  0  0
  6  7  2  0  0  0  0
  8  9  1  0  0  0  0
  9 10  2  0  0  0  0
M  END
>  <CHROM.1>
-11.50104923,-11.43560714,6.90315479,-3.12933199,1.31149143,-0.56899444

>  <Name>
ligand

>  <RI>
0

>  <Rbt.Current_Directory>
/home/itssahil/PROJECTS/Mol_Feturizer/New_Systems/rnas/2EES

>  <Rbt.Executable>
rbdock ($Id: //depot/dev/client3/rdock/2013.1/src/exe/rbdock.cxx#4 $)

>  <Rbt.Library>
libRbt.so (2013.1, Build901 2013/11/27)

>  <Rbt.Parameter_File>
/export/apps/rDock/src/rDock_2013.1_src/data/scripts/dock_solv.prm

>  <Rbt.Receptor>
prm/blind_docking_40.prm

>  <SCORE>
-16.9838

>  <SCORE.INTER>
-16.9838

>  <SCORE.INTER.CONST>
1

>  <SCORE.INTER.POLAR>
0

>  <SCORE.INTER.ROT>
0

>  <SCORE.INTER.SOLV>
3.70692

>  <SCORE.INTER.VDW>
-16.1581

>  <SCORE.INTER.norm>
-1.69838

>  <SCORE.INTRA>
0

>  <SCORE.INTRA.DIHEDRAL>
0

>  <SCORE.INTRA.DIHEDRAL.0>
0

>  <SCORE.INTRA.POLAR>
0

>  <SCORE.INTRA.POLAR.0>
0

>  <SCORE.INTRA.REPUL>
0

>  <SCORE.INTRA.REPUL.0>
0

>  <SCORE.INTRA.SOLV>
0

>  <SCORE.INTRA.SOLV.lig_0>
-4.28614

>  <SCORE.INTRA.VDW>
0

>  <SCORE.INTRA.VDW.0>
0

>  <SCORE.INTRA.norm>
0

>  <SCORE.RESTR>
0

>  <SCORE.RESTR.CAVITY>
0

>  <SCORE.RESTR.norm>
0

>  <SCORE.SYSTEM>
0

>  <SCORE.SYSTEM.CONST>
0

>  <SCORE.SYSTEM.DIHEDRAL>
0

>  <SCORE.SYSTEM.SOLV>
0

>  <SCORE.SYSTEM.norm>
0

>  <SCORE.heavy>
10

>  <SCORE.norm>
-1.69838

>  <RMSD>
0.764

$$$$
ligand
 OpenBabel11021811423D
libRbt.so/2013.1/901 2013/11/27
 10 11  0  0  0  0  0  0  0  0999 V2000
  -11.9923  -10.9772    8.7241 N   0  0  0  0  0  0  0  0  0  0  0  0
  -11.8118  -12.3535    8.8750 C   0  0  0  0  0  0  0  0  0  0  0  0
  -11.4599  -13.1500    7.8499 N   0  0  0  0  0  0  0  0  0  0  0  0
  -11.2955  -12.4600    6.6522 C   0  0  0  0  0  0  0  0  0  0  0  0
  -11.4598  -11.0951    6.4092 C   0  0  0  0  0  0  0  0  0  0  0  0
  -11.8427  -10.2394    7.5018 C   0  0  0  0  0  0  0  0  0  0  0  0
  -12.0413   -9.0493    7.5440 O   0  0  0  0  0  0  0  0  0  0  0  0
  -11.1792  -10.8396    5.0546 N   0  0  0  0  0  0  0  0  0  0  0  0
  -10.8505  -12.0468    4.5205 C   0  0  0  0  0  0  0  0  0  0  0  0
  -10.9149  -13.0633    5.4838 N   0  0  0  0  0  0  0  0  0  0  0  0
  1  2  1  0  0  0  0
  1  6  1  0  0  0  0
  2  3  2  0  0  0  0
  3  4  1  0  0  0  0
  4  5  2  0  0  0  0
  4 10  1  0  0  0  0
  5  6  1  0  0  0  0
  5  8  1  0  0  0  0
  6  7  2  0  0  0  0
  8  9  1  0  0  0  0
  9 10  2  0  0  0  0
M  END
>  <CHROM.1>
-11.49565291,-11.48160437,6.87708019,-3.07052837,1.29652995,-0.60802317

>  <Name>
ligand

>  <RI>
0

>  <Rbt.Current_Directory>
/home/itssahil/PROJECTS/Mol_Feturizer/New_Systems/rnas/2EES

>  <Rbt.Executable>
rbdock ($Id: //depot/dev/client3/rdock/2013.1/src/exe/rbdock.cxx#4 $)

>  <Rbt.Library>
libRbt.so (2013.1, Build901 2013/11/27)

>  <Rbt.Parameter_File>
/export/apps/rDock/src/rDock_2013.1_src/data/scripts/dock_solv.prm

>  <Rbt.Receptor>
prm/blind_docking_100.prm

>  <SCORE>
-16.9846

>  <SCORE.INTER>
-16.9846

>  <SCORE.INTER.CONST>
1

>  <SCORE.INTER.POLAR>
0

>  <SCORE.INTER.ROT>
0

>  <SCORE.INTER.SOLV>
3.63753

>  <SCORE.INTER.VDW>
-16.1356

>  <SCORE.INTER.norm>
-1.69846

>  <SCORE.INTRA>
0

>  <SCORE.INTRA.DIHEDRAL>
0

>  <SCORE.INTRA.DIHEDRAL.0>
0

>  <SCORE.INTRA.POLAR>
0

>  <SCORE.INTRA.POLAR.0>
0

>  <SCORE.INTRA.REPUL>
0

>  <SCORE.INTRA.REPUL.0>
0

>  <SCORE.INTRA.SOLV>
0

>  <SCORE.INTRA.SOLV.lig_0>
-4.28614

>  <SCORE.INTRA.VDW>
0

>  <SCORE.INTRA.VDW.0>
0

>  <SCORE.INTRA.norm>
0

>  <SCORE.RESTR>
0

>  <SCORE.RESTR.CAVITY>
0

>  <SCORE.RESTR.norm>
0

>  <SCORE.SYSTEM>
0

>  <SCORE.SYSTEM.CONST>
0

>  <SCORE.SYSTEM.DIHEDRAL>
0

>  <SCORE.SYSTEM.SOLV>
0

>  <SCORE.SYSTEM.norm>
0

>  <SCORE.heavy>
10

>  <SCORE.norm>
-1.69846

>  <RMSD>
0.768

$$$$
ligand
 OpenBabel11021811423D
libRbt.so/2013.1/901 2013/11/27
 10 11  0  0  0  0  0  0  0  0999 V2000
  -11.9902  -10.9852    8.7180 N   0  0  0  0  0  0  0  0  0  0  0  0
  -11.7877  -12.3576    8.8761 C   0  0  0  0  0  0  0  0  0  0  0  0
  -11.4317  -13.1553    7.8533 N   0  0  0  0  0  0  0  0  0  0  0  0
  -11.2870  -12.4706    6.6500 C   0  0  0  0  0  0  0  0  0  0  0  0
  -11.4739  -11.1099    6.3998 C   0  0  0  0  0  0  0  0  0  0  0  0
  -11.8613  -10.2531    7.4899 C   0  0  0  0  0  0  0  0  0  0  0  0
  -12.0776   -9.0659    7.5261 O   0  0  0  0  0  0  0  0  0  0  0  0
  -11.2077  -10.8589    5.0414 N   0  0  0  0  0  0  0  0  0  0  0  0
  -10.8649  -12.0643    4.5123 C   0  0  0  0  0  0  0  0  0  0  0  0
  -10.9063  -13.0755    5.4825 N   0  0  0  0  0  0  0  0  0  0  0  0
  1  2  1  0  0  0  0
  1  6  1  0  0  0  0
  2  3  2  0  0  0  0
  3  4  1  0  0  0  0
  4  5  2  0  0  0  0
  4 10  1  0  0  0  0
  5  6  1  0  0  0  0
  5  8  1  0  0  0  0
  6  7  2  0  0  0  0
  8  9  1  0  0  0  0
  9 10  2  0  0  0  0
M  END
>  <CHROM.1>
-11.50028102,-11.49386544,6.87030979,-3.00883744,1.29371190,-0.67373271

>  <Name>
ligand

>  <RI>
0

>  <Rbt.Current_Directory>
/home/itssahil/PROJECTS/Mol_Feturizer/New_Systems/rnas/2EES

>  <Rbt.Executable>
rbdock ($Id: //depot/dev/client3/rdock/2013.1/src/exe/rbdock.cxx#4 $)

>  <Rbt.Library>
libRbt.so (2013.1, Build901 2013/11/27)

>  <Rbt.Parameter_File>
/export/apps/rDock/src/rDock_2013.1_src/data/scripts/dock_solv.prm

>  <Rbt.Receptor>
prm/blind_docking_60.prm

>  <SCORE>
-16.9504

>  <SCORE.INTER>
-16.9504

>  <SCORE.INTER.CONST>
1

>  <SCORE.INTER.POLAR>
0

>  <SCORE.INTER.ROT>
0

>  <SCORE.INTER.SOLV>
3.60086

>  <SCORE.INTER.VDW>
-16.1006

>  <SCORE.INTER.norm>
-1.69504

>  <SCORE.INTRA>
0

>  <SCORE.INTRA.DIHEDRAL>
0

>  <SCORE.INTRA.DIHEDRAL.0>
0

>  <SCORE.INTRA.POLAR>
0

>  <SCORE.INTRA.POLAR.0>
0

>  <SCORE.INTRA.REPUL>
0

>  <SCORE.INTRA.REPUL.0>
0

>  <SCORE.INTRA.SOLV>
0

>  <SCORE.INTRA.SOLV.lig_0>
-4.28614

>  <SCORE.INTRA.VDW>
0

>  <SCORE.INTRA.VDW.0>
0

>  <SCORE.INTRA.norm>
0

>  <SCORE.RESTR>
0

>  <SCORE.RESTR.CAVITY>
0

>  <SCORE.RESTR.norm>
0

>  <SCORE.SYSTEM>
0

>  <SCORE.SYSTEM.CONST>
0

>  <SCORE.SYSTEM.DIHEDRAL>
0

>  <SCORE.SYSTEM.SOLV>
0

>  <SCORE.SYSTEM.norm>
0

>  <SCORE.heavy>
10

>  <SCORE.norm>
-1.69504

>  <RMSD>
0.768

$$$$
ligand
 OpenBabel11021811423D
libRbt.so/2013.1/901 2013/11/27
 10 11  0  0  0  0  0  0  0  0999 V2000
  -12.0307  -10.7507    8.7318 N   0  0  0  0  0  0  0  0  0  0  0  0
  -11.9055  -12.1213    8.9668 C   0  0  0  0  0  0  0  0  0  0  0  0
  -11.5731  -12.9908    7.9959 N   0  0  0  0  0  0  0  0  0  0  0  0
  -11.3686  -12.3807    6.7615 C   0  0  0  0  0  0  0  0  0  0  0  0
  -11.4771  -11.0276    6.4355 C   0  0  0  0  0  0  0  0  0  0  0  0
  -11.8389  -10.0939    7.4698 C   0  0  0  0  0  0  0  0  0  0  0  0
  -11.9917   -8.8967    7.4383 O   0  0  0  0  0  0  0  0  0  0  0  0
  -11.1715  -10.8648    5.0720 N   0  0  0  0  0  0  0  0  0  0  0  0
  -10.8838  -12.1134    4.6152 C   0  0  0  0  0  0  0  0  0  0  0  0
  -10.9984  -13.0671    5.6364 N   0  0  0  0  0  0  0  0  0  0  0  0
  1  2  1  0  0  0  0
  1  6  1  0  0  0  0
  2  3  2  0  0  0  0
  3  4  1  0  0  0  0
  4  5  2  0  0  0  0
  4 10  1  0  0  0  0
  5  6  1  0  0  0  0
  5  8  1  0  0  0  0
  6  7  2  0  0  0  0
  8  9  1  0  0  0  0
  9 10  2  0  0  0  0
M  END
>  <CHROM.1>
-11.53318432,-11.38364639,6.92498989,3.06551175,1.30668355,-0.52602424

>  <Name>
ligand

>  <RI>
0

>  <Rbt.Current_Directory>
/home/itssahil/PROJECTS/Mol_Feturizer/New_Systems/rnas/2EES

>  <Rbt.Executable>
rbdock ($Id: //depot/dev/client3/rdock/2013.1/src/exe/rbdock.cxx#4 $)

>  <Rbt.Library>
libRbt.so (2013.1, Build901 2013/11/27)

>  <Rbt.Parameter_File>
/export/apps/rDock/src/rDock_2013.1_src/data/scripts/dock_solv.prm

>  <Rbt.Receptor>
prm/blind_docking_40.prm

>  <SCORE>
-17.0046

>  <SCORE.INTER>
-17.0046

>  <SCORE.INTER.CONST>
1

>  <SCORE.INTER.POLAR>
0

>  <SCORE.INTER.ROT>
0

>  <SCORE.INTER.SOLV>
3.73796

>  <SCORE.INTER.VDW>
-16.1824

>  <SCORE.INTER.norm>
-1.70046

>  <SCORE.INTRA>
0

>  <SCORE.INTRA.DIHEDRAL>
0

>  <SCORE.INTRA.DIHEDRAL.0>
0

>  <SCORE.INTRA.POLAR>
0

>  <SCORE.INTRA.POLAR.0>
0

>  <SCORE.INTRA.REPUL>
0

>  <SCORE.INTRA.REPUL.0>
0

>  <SCORE.INTRA.SOLV>
0

>  <SCORE.INTRA.SOLV.lig_0>
-4.28614

>  <SCORE.INTRA.VDW>
0

>  <SCORE.INTRA.VDW.0>
0

>  <SCORE.INTRA.norm>
0

>  <SCORE.RESTR>
0

>  <SCORE.RESTR.CAVITY>
0

>  <SCORE.RESTR.norm>
0

>  <SCORE.SYSTEM>
0

>  <SCORE.SYSTEM.CONST>
0

>  <SCORE.SYSTEM.DIHEDRAL>
0

>  <SCORE.SYSTEM.SOLV>
0

>  <SCORE.SYSTEM.norm>
0

>  <SCORE.heavy>
10

>  <SCORE.norm>
-1.70046

>  <RMSD>
0.769

$$$$
ligand
 OpenBabel11021811423D
libRbt.so/2013.1/901 2013/11/27
 10 11  0  0  0  0  0  0  0  0999 V2000
  -12.0326  -10.7282    8.7345 N   0  0  0  0  0  0  0  0  0  0  0  0
  -11.9181  -12.0982    8.9783 C   0  0  0  0  0  0  0  0  0  0  0  0
  -11.5935  -12.9766    8.0128 N   0  0  0  0  0  0  0  0  0  0  0  0
  -11.3853  -12.3762    6.7743 C   0  0  0  0  0  0  0  0  0  0  0  0
  -11.4833  -11.0244    6.4396 C   0  0  0  0  0  0  0  0  0  0  0  0
  -11.8367  -10.0811    7.4682 C   0  0  0  0  0  0  0  0  0  0  0  0
  -11.9800   -8.8830    7.4290 O   0  0  0  0  0  0  0  0  0  0  0  0
  -11.1777  -10.8728    5.0748 N   0  0  0  0  0  0  0  0  0  0  0  0
  -10.9004  -12.1267    4.6259 C   0  0  0  0  0  0  0  0  0  0  0  0
  -11.0217  -13.0727    5.6534 N   0  0  0  0  0  0  0  0  0  0  0  0
  1  2  1  0  0  0  0
  1  6  1  0  0  0  0
  2  3  2  0  0  0  0
  3  4  1  0  0  0  0
  4  5  2  0  0  0  0
  4 10  1  0  0  0  0
  5  6  1  0  0  0  0
  5  8  1  0  0  0  0
  6  7  2  0  0  0  0
  8  9  1  0  0  0  0
  9 10  2  0  0  0  0
M  END
>  <CHROM.1>
-11.54179949,-11.37678354,6.93143766,3.04045940,1.31140111,-0.50830751

>  <Name>
ligand

>  <RI>
0

>  <Rbt.Current_Directory>
/home/itssahil/PROJECTS/Mol_Feturizer/New_Systems/rnas/2EES

>  <Rbt.Executable>
rbdock ($Id: //depot/dev/client3/rdock/2013.1/src/exe/rbdock.cxx#4 $)

>  <Rbt.Library>
libRbt.so (2013.1, Build901 2013/11/27)

>  <Rbt.Parameter_File>
/export/apps/rDock/src/rDock_2013.1_src/data/scripts/dock_solv.prm

>  <Rbt.Receptor>
prm/pocket_docking_7.prm

>  <SCORE>
-17.0094

>  <SCORE.INTER>
-17.0094

>  <SCORE.INTER.CONST>
1

>  <SCORE.INTER.POLAR>
0

>  <SCORE.INTER.ROT>
0

>  <SCORE.INTER.SOLV>
3.76357

>  <SCORE.INTER.VDW>
-16.1942

>  <SCORE.INTER.norm>
-1.70094

>  <SCORE.INTRA>
0

>  <SCORE.INTRA.DIHEDRAL>
0

>  <SCORE.INTRA.DIHEDRAL.0>
0

>  <SCORE.INTRA.POLAR>
0

>  <SCORE.INTRA.POLAR.0>
0

>  <SCORE.INTRA.REPUL>
0

>  <SCORE.INTRA.REPUL.0>
0

>  <SCORE.INTRA.SOLV>
0

>  <SCORE.INTRA.SOLV.lig_0>
-4.28614

>  <SCORE.INTRA.VDW>
0

>  <SCORE.INTRA.VDW.0>
0

>  <SCORE.INTRA.norm>
0

>  <SCORE.RESTR>
0

>  <SCORE.RESTR.CAVITY>
0

>  <SCORE.RESTR.norm>
0

>  <SCORE.SYSTEM>
0

>  <SCORE.SYSTEM.CONST>
0

>  <SCORE.SYSTEM.DIHEDRAL>
0

>  <SCORE.SYSTEM.SOLV>
0

>  <SCORE.SYSTEM.norm>
0

>  <SCORE.heavy>
10

>  <SCORE.norm>
-1.70094

>  <RMSD>
0.770

$$$$
ligand
 OpenBabel11021811423D
libRbt.so/2013.1/901 2013/11/27
 10 11  0  0  0  0  0  0  0  0999 V2000
  -11.9711  -10.9750    8.7182 N   0  0  0  0  0  0  0  0  0  0  0  0
  -11.7741  -12.3480    8.8785 C   0  0  0  0  0  0  0  0  0  0  0  0
  -11.4232  -13.1491    7.8566 N   0  0  0  0  0  0  0  0  0  0  0  0
  -11.2777  -12.4672    6.6518 C   0  0  0  0  0  0  0  0  0  0  0  0
  -11.4593  -11.1062    6.3993 C   0  0  0  0  0  0  0  0  0  0  0  0
  -11.8412  -10.2458    7.4885 C   0  0  0  0  0  0  0  0  0  0  0  0
  -12.0525   -9.0576    7.5229 O   0  0  0  0  0  0  0  0  0  0  0  0
  -11.1943  -10.8589    5.0400 N   0  0  0  0  0  0  0  0  0  0  0  0
  -10.8575  -12.0667    4.5126 C   0  0  0  0  0  0  0  0  0  0  0  0
  -10.9015  -13.0759    5.4848 N   0  0  0  0  0  0  0  0  0  0  0  0
  1  2  1  0  0  0  0
  1  6  1  0  0  0  0
  2  3  2  0  0  0  0
  3  4  1  0  0  0  0
  4  5  2  0  0  0  0
  4 10  1  0  0  0  0
  5  6  1  0  0  0  0
  5  8  1  0  0  0  0
  6  7  2  0  0  0  0
  8  9  1  0  0  0  0
  9 10  2  0  0  0  0
M  END
>  <CHROM.1>
-11.48647807,-11.48921211,6.87062112,-3.01701739,1.29764882,-0.66773048

>  <Name>
ligand

>  <RI>
0

>  <Rbt.Current_Directory>
/home/itssahil/PROJECTS/Mol_Feturizer/New_Systems/rnas/2EES

>  <Rbt.Executable>
rbdock ($Id: //depot/dev/client3/rdock/2013.1/src/exe/rbdock.cxx#4 $)

>  <Rbt.Library>
libRbt.so (2013.1, Build901 2013/11/27)

>  <Rbt.Parameter_File>
/export/apps/rDock/src/rDock_2013.1_src/data/scripts/dock_solv.prm

>  <Rbt.Receptor>
prm/pocket_docking_6.prm

>  <SCORE>
-16.9706

>  <SCORE.INTER>
-16.9706

>  <SCORE.INTER.CONST>
1

>  <SCORE.INTER.POLAR>
0

>  <SCORE.INTER.ROT>
0

>  <SCORE.INTER.SOLV>
3.62935

>  <SCORE.INTER.VDW>
-16.1235

>  <SCORE.INTER.norm>
-1.69706

>  <SCORE.INTRA>
0

>  <SCORE.INTRA.DIHEDRAL>
0

>  <SCORE.INTRA.DIHEDRAL.0>
0

>  <SCORE.INTRA.POLAR>
0

>  <SCORE.INTRA.POLAR.0>
0

>  <SCORE.INTRA.REPUL>
0

>  <SCORE.INTRA.REPUL.0>
0

>  <SCORE.INTRA.SOLV>
0

>  <SCORE.INTRA.SOLV.lig_0>
-4.28614

>  <SCORE.INTRA.VDW>
0

>  <SCORE.INTRA.VDW.0>
0

>  <SCORE.INTRA.norm>
0

>  <SCORE.RESTR>
0

>  <SCORE.RESTR.CAVITY>
0

>  <SCORE.RESTR.norm>
0

>  <SCORE.SYSTEM>
0

>  <SCORE.SYSTEM.CONST>
0

>  <SCORE.SYSTEM.DIHEDRAL>
0

>  <SCORE.SYSTEM.SOLV>
0

>  <SCORE.SYSTEM.norm>
0

>  <SCORE.heavy>
10

>  <SCORE.norm>
-1.69706

>  <RMSD>
0.772

$$$$
ligand
 OpenBabel11021811423D
libRbt.so/2013.1/901 2013/11/27
 10 11  0  0  0  0  0  0  0  0999 V2000
  -12.0310  -10.7513    8.7267 N   0  0  0  0  0  0  0  0  0  0  0  0
  -11.9028  -12.1214    8.9634 C   0  0  0  0  0  0  0  0  0  0  0  0
  -11.5700  -12.9915    7.9933 N   0  0  0  0  0  0  0  0  0  0  0  0
  -11.3683  -12.3828    6.7578 C   0  0  0  0  0  0  0  0  0  0  0  0
  -11.4799  -11.0303    6.4301 C   0  0  0  0  0  0  0  0  0  0  0  0
  -11.8421  -10.0959    7.4636 C   0  0  0  0  0  0  0  0  0  0  0  0
  -11.9973   -8.8990    7.4307 O   0  0  0  0  0  0  0  0  0  0  0  0
  -11.1763  -10.8687    5.0660 N   0  0  0  0  0  0  0  0  0  0  0  0
  -10.8868  -12.1175    4.6105 C   0  0  0  0  0  0  0  0  0  0  0  0
  -10.9982  -13.0699    5.6332 N   0  0  0  0  0  0  0  0  0  0  0  0
  1  2  1  0  0  0  0
  1  6  1  0  0  0  0
  2  3  2  0  0  0  0
  3  4  1  0  0  0  0
  4  5  2  0  0  0  0
  4 10  1  0  0  0  0
  5  6  1  0  0  0  0
  5  8  1  0  0  0  0
  6  7  2  0  0  0  0
  8  9  1  0  0  0  0
  9 10  2  0  0  0  0
M  END
>  <CHROM.1>
-11.53461239,-11.38577574,6.92013943,3.07443524,1.30680762,-0.53599849

>  <Name>
ligand

>  <RI>
0

>  <Rbt.Current_Directory>
/home/itssahil/PROJECTS/Mol_Feturizer/New_Systems/rnas/2EES

>  <Rbt.Executable>
rbdock ($Id: //depot/dev/client3/rdock/2013.1/src/exe/rbdock.cxx#4 $)

>  <Rbt.Library>
libRbt.so (2013.1, Build901 2013/11/27)

>  <Rbt.Parameter_File>
/export/apps/rDock/src/rDock_2013.1_src/data/scripts/dock_solv.prm

>  <Rbt.Receptor>
prm/pocket_docking_7.prm

>  <SCORE>
-17.0067

>  <SCORE.INTER>
-17.0067

>  <SCORE.INTER.CONST>
1

>  <SCORE.INTER.POLAR>
0

>  <SCORE.INTER.ROT>
0

>  <SCORE.INTER.SOLV>
3.73322

>  <SCORE.INTER.VDW>
-16.1822

>  <SCORE.INTER.norm>
-1.70067

>  <SCORE.INTRA>
0

>  <SCORE.INTRA.DIHEDRAL>
0

>  <SCORE.INTRA.DIHEDRAL.0>
0

>  <SCORE.INTRA.POLAR>
0

>  <SCORE.INTRA.POLAR.0>
0

>  <SCORE.INTRA.REPUL>
0

>  <SCORE.INTRA.REPUL.0>
0

>  <SCORE.INTRA.SOLV>
0

>  <SCORE.INTRA.SOLV.lig_0>
-4.28614

>  <SCORE.INTRA.VDW>
0

>  <SCORE.INTRA.VDW.0>
0

>  <SCORE.INTRA.norm>
0

>  <SCORE.RESTR>
0

>  <SCORE.RESTR.CAVITY>
0

>  <SCORE.RESTR.norm>
0

>  <SCORE.SYSTEM>
0

>  <SCORE.SYSTEM.CONST>
0

>  <SCORE.SYSTEM.DIHEDRAL>
0

>  <SCORE.SYSTEM.SOLV>
0

>  <SCORE.SYSTEM.norm>
0

>  <SCORE.heavy>
10

>  <SCORE.norm>
-1.70067

>  <RMSD>
0.772

$$$$
ligand
 OpenBabel11021811423D
libRbt.so/2013.1/901 2013/11/27
 10 11  0  0  0  0  0  0  0  0999 V2000
  -12.0305  -10.7464    8.7258 N   0  0  0  0  0  0  0  0  0  0  0  0
  -11.9049  -12.1168    8.9625 C   0  0  0  0  0  0  0  0  0  0  0  0
  -11.5745  -12.9876    7.9921 N   0  0  0  0  0  0  0  0  0  0  0  0
  -11.3723  -12.3792    6.7565 C   0  0  0  0  0  0  0  0  0  0  0  0
  -11.4814  -11.0265    6.4289 C   0  0  0  0  0  0  0  0  0  0  0  0
  -11.8411  -10.0914    7.4626 C   0  0  0  0  0  0  0  0  0  0  0  0
  -11.9939   -8.8942    7.4298 O   0  0  0  0  0  0  0  0  0  0  0  0
  -11.1784  -10.8655    5.0645 N   0  0  0  0  0  0  0  0  0  0  0  0
  -10.8917  -12.1149    4.6089 C   0  0  0  0  0  0  0  0  0  0  0  0
  -11.0044  -13.0671    5.6317 N   0  0  0  0  0  0  0  0  0  0  0  0
  1  2  1  0  0  0  0
  1  6  1  0  0  0  0
  2  3  2  0  0  0  0
  3  4  1  0  0  0  0
  4  5  2  0  0  0  0
  4 10  1  0  0  0  0
  5  6  1  0  0  0  0
  5  8  1  0  0  0  0
  6  7  2  0  0  0  0
  8  9  1  0  0  0  0
  9 10  2  0  0  0  0
M  END
>  <CHROM.1>
-11.53655381,-11.38188224,6.91894969,3.06910082,1.30838640,-0.53084809

>  <Name>
ligand

>  <RI>
0

>  <Rbt.Current_Directory>
/home/itssahil/PROJECTS/Mol_Feturizer/New_Systems/rnas/2EES

>  <Rbt.Executable>
rbdock ($Id: //depot/dev/client3/rdock/2013.1/src/exe/rbdock.cxx#4 $)

>  <Rbt.Library>
libRbt.so (2013.1, Build901 2013/11/27)

>  <Rbt.Parameter_File>
/export/apps/rDock/src/rDock_2013.1_src/data/scripts/dock_solv.prm

>  <Rbt.Receptor>
prm/blind_docking_60.prm

>  <SCORE>
-17.0045

>  <SCORE.INTER>
-17.0045

>  <SCORE.INTER.CONST>
1

>  <SCORE.INTER.POLAR>
0

>  <SCORE.INTER.ROT>
0

>  <SCORE.INTER.SOLV>
3.74094

>  <SCORE.INTER.VDW>
-16.1833

>  <SCORE.INTER.norm>
-1.70045

>  <SCORE.INTRA>
0

>  <SCORE.INTRA.DIHEDRAL>
0

>  <SCORE.INTRA.DIHEDRAL.0>
0

>  <SCORE.INTRA.POLAR>
0

>  <SCORE.INTRA.POLAR.0>
0

>  <SCORE.INTRA.REPUL>
0

>  <SCORE.INTRA.REPUL.0>
0

>  <SCORE.INTRA.SOLV>
0

>  <SCORE.INTRA.SOLV.lig_0>
-4.28614

>  <SCORE.INTRA.VDW>
0

>  <SCORE.INTRA.VDW.0>
0

>  <SCORE.INTRA.norm>
0

>  <SCORE.RESTR>
0

>  <SCORE.RESTR.CAVITY>
0

>  <SCORE.RESTR.norm>
0

>  <SCORE.SYSTEM>
0

>  <SCORE.SYSTEM.CONST>
0

>  <SCORE.SYSTEM.DIHEDRAL>
0

>  <SCORE.SYSTEM.SOLV>
0

>  <SCORE.SYSTEM.norm>
0

>  <SCORE.heavy>
10

>  <SCORE.norm>
-1.70045

>  <RMSD>
0.775

$$$$
ligand
 OpenBabel11021811423D
libRbt.so/2013.1/901 2013/11/27
 10 11  0  0  0  0  0  0  0  0999 V2000
  -11.9807  -10.9462    8.7163 N   0  0  0  0  0  0  0  0  0  0  0  0
  -11.8155  -12.3238    8.8736 C   0  0  0  0  0  0  0  0  0  0  0  0
  -11.4673  -13.1282    7.8534 N   0  0  0  0  0  0  0  0  0  0  0  0
  -11.2902  -12.4450    6.6536 C   0  0  0  0  0  0  0  0  0  0  0  0
  -11.4389  -11.0794    6.4044 C   0  0  0  0  0  0  0  0  0  0  0  0
  -11.8177  -10.2152    7.4917 C   0  0  0  0  0  0  0  0  0  0  0  0
  -12.0039   -9.0229    7.5280 O   0  0  0  0  0  0  0  0  0  0  0  0
  -11.1494  -10.8325    5.0500 N   0  0  0  0  0  0  0  0  0  0  0  0
  -10.8311  -12.0452    4.5223 C   0  0  0  0  0  0  0  0  0  0  0  0
  -10.9106  -13.0570    5.4895 N   0  0  0  0  0  0  0  0  0  0  0  0
  1  2  1  0  0  0  0
  1  6  1  0  0  0  0
  2  3  2  0  0  0  0
  3  4  1  0  0  0  0
  4  5  2  0  0  0  0
  4 10  1  0  0  0  0
  5  6  1  0  0  0  0
  5  8  1  0  0  0  0
  6  7  2  0  0  0  0
  8  9  1  0  0  0  0
  9 10  2  0  0  0  0
M  END
>  <CHROM.1>
-11.48098930,-11.46353404,6.87360101,-3.11260006,1.29861065,-0.57161166

>  <Name>
ligand

>  <RI>
0

>  <Rbt.Current_Directory>
/home/itssahil/PROJECTS/Mol_Feturizer/New_Systems/rnas/2EES

>  <Rbt.Executable>
rbdock ($Id: //depot/dev/client3/rdock/2013.1/src/exe/rbdock.cxx#4 $)

>  <Rbt.Library>
libRbt.so (2013.1, Build901 2013/11/27)

>  <Rbt.Parameter_File>
/export/apps/rDock/src/rDock_2013.1_src/data/scripts/dock_solv.prm

>  <Rbt.Receptor>
prm/pocket_docking_4.prm

>  <SCORE>
-17.0042

>  <SCORE.INTER>
-17.0042

>  <SCORE.INTER.CONST>
1

>  <SCORE.INTER.POLAR>
0

>  <SCORE.INTER.ROT>
0

>  <SCORE.INTER.SOLV>
3.67658

>  <SCORE.INTER.VDW>
-16.1616

>  <SCORE.INTER.norm>
-1.70042

>  <SCORE.INTRA>
0

>  <SCORE.INTRA.DIHEDRAL>
0

>  <SCORE.INTRA.DIHEDRAL.0>
0

>  <SCORE.INTRA.POLAR>
0

>  <SCORE.INTRA.POLAR.0>
0

>  <SCORE.INTRA.REPUL>
0

>  <SCORE.INTRA.REPUL.0>
0

>  <SCORE.INTRA.SOLV>
0

>  <SCORE.INTRA.SOLV.lig_0>
-4.28614

>  <SCORE.INTRA.VDW>
0

>  <SCORE.INTRA.VDW.0>
0

>  <SCORE.INTRA.norm>
0

>  <SCORE.RESTR>
0

>  <SCORE.RESTR.CAVITY>
0

>  <SCORE.RESTR.norm>
0

>  <SCORE.SYSTEM>
0

>  <SCORE.SYSTEM.CONST>
0

>  <SCORE.SYSTEM.DIHEDRAL>
0

>  <SCORE.SYSTEM.SOLV>
0

>  <SCORE.SYSTEM.norm>
0

>  <SCORE.heavy>
10

>  <SCORE.norm>
-1.70042

>  <RMSD>
0.781

$$$$
ligand
 OpenBabel11021811423D
libRbt.so/2013.1/901 2013/11/27
 10 11  0  0  0  0  0  0  0  0999 V2000
  -11.9759  -10.9539    8.7125 N   0  0  0  0  0  0  0  0  0  0  0  0
  -11.8036  -12.3310    8.8658 C   0  0  0  0  0  0  0  0  0  0  0  0
  -11.4593  -13.1319    7.8415 N   0  0  0  0  0  0  0  0  0  0  0  0
  -11.2938  -12.4455    6.6419 C   0  0  0  0  0  0  0  0  0  0  0  0
  -11.4503  -11.0801    6.3965 C   0  0  0  0  0  0  0  0  0  0  0  0
  -11.8250  -10.2197    7.4882 C   0  0  0  0  0  0  0  0  0  0  0  0
  -12.0161   -9.0283    7.5284 O   0  0  0  0  0  0  0  0  0  0  0  0
  -11.1716  -10.8292    5.0406 N   0  0  0  0  0  0  0  0  0  0  0  0
  -10.8518  -12.0395    4.5081 C   0  0  0  0  0  0  0  0  0  0  0  0
  -10.9199  -13.0535    5.4738 N   0  0  0  0  0  0  0  0  0  0  0  0
  1  2  1  0  0  0  0
  1  6  1  0  0  0  0
  2  3  2  0  0  0  0
  3  4  1  0  0  0  0
  4  5  2  0  0  0  0
  4 10  1  0  0  0  0
  5  6  1  0  0  0  0
  5  8  1  0  0  0  0
  6  7  2  0  0  0  0
  8  9  1  0  0  0  0
  9 10  2  0  0  0  0
M  END
>  <CHROM.1>
-11.48727716,-11.46534037,6.86521741,-3.08409148,1.30219874,-0.59706193

>  <Name>
ligand

>  <RI>
0

>  <Rbt.Current_Directory>
/home/itssahil/PROJECTS/Mol_Feturizer/New_Systems/rnas/2EES

>  <Rbt.Executable>
rbdock ($Id: //depot/dev/client3/rdock/2013.1/src/exe/rbdock.cxx#4 $)

>  <Rbt.Library>
libRbt.so (2013.1, Build901 2013/11/27)

>  <Rbt.Parameter_File>
/export/apps/rDock/src/rDock_2013.1_src/data/scripts/dock_solv.prm

>  <Rbt.Receptor>
prm/pocket_docking_4.prm

>  <SCORE>
-16.9992

>  <SCORE.INTER>
-16.9992

>  <SCORE.INTER.CONST>
1

>  <SCORE.INTER.POLAR>
0

>  <SCORE.INTER.ROT>
0

>  <SCORE.INTER.SOLV>
3.67239

>  <SCORE.INTER.VDW>
-16.157

>  <SCORE.INTER.norm>
-1.69992

>  <SCORE.INTRA>
0

>  <SCORE.INTRA.DIHEDRAL>
0

>  <SCORE.INTRA.DIHEDRAL.0>
0

>  <SCORE.INTRA.POLAR>
0

>  <SCORE.INTRA.POLAR.0>
0

>  <SCORE.INTRA.REPUL>
0

>  <SCORE.INTRA.REPUL.0>
0

>  <SCORE.INTRA.SOLV>
0

>  <SCORE.INTRA.SOLV.lig_0>
-4.28614

>  <SCORE.INTRA.VDW>
0

>  <SCORE.INTRA.VDW.0>
0

>  <SCORE.INTRA.norm>
0

>  <SCORE.RESTR>
0

>  <SCORE.RESTR.CAVITY>
0

>  <SCORE.RESTR.norm>
0

>  <SCORE.SYSTEM>
0

>  <SCORE.SYSTEM.CONST>
0

>  <SCORE.SYSTEM.DIHEDRAL>
0

>  <SCORE.SYSTEM.SOLV>
0

>  <SCORE.SYSTEM.norm>
0

>  <SCORE.heavy>
10

>  <SCORE.norm>
-1.69992

>  <RMSD>
0.787

$$$$
ligand
 OpenBabel11021811423D
libRbt.so/2013.1/901 2013/11/27
 10 11  0  0  0  0  0  0  0  0999 V2000
  -12.0182  -10.8690    8.7063 N   0  0  0  0  0  0  0  0  0  0  0  0
  -11.8971  -12.2486    8.8841 C   0  0  0  0  0  0  0  0  0  0  0  0
  -11.5592  -13.0770    7.8797 N   0  0  0  0  0  0  0  0  0  0  0  0
  -11.3445  -12.4157    6.6737 C   0  0  0  0  0  0  0  0  0  0  0  0
  -11.4482  -11.0498    6.4045 C   0  0  0  0  0  0  0  0  0  0  0  0
  -11.8159  -10.1599    7.4747 C   0  0  0  0  0  0  0  0  0  0  0  0
  -11.9663   -8.9621    7.4927 O   0  0  0  0  0  0  0  0  0  0  0  0
  -11.1323  -10.8301    5.0513 N   0  0  0  0  0  0  0  0  0  0  0  0
  -10.8436  -12.0590    4.5442 C   0  0  0  0  0  0  0  0  0  0  0  0
  -10.9674  -13.0546    5.5234 N   0  0  0  0  0  0  0  0  0  0  0  0
  1  2  1  0  0  0  0
  1  6  1  0  0  0  0
  2  3  2  0  0  0  0
  3  4  1  0  0  0  0
  4  5  2  0  0  0  0
  4 10  1  0  0  0  0
  5  6  1  0  0  0  0
  5  8  1  0  0  0  0
  6  7  2  0  0  0  0
  8  9  1  0  0  0  0
  9 10  2  0  0  0  0
M  END
>  <CHROM.1>
-11.50855215,-11.42606278,6.87803232,3.04580193,1.30119180,-0.46472660

>  <Name>
ligand

>  <RI>
0

>  <Rbt.Current_Directory>
/home/itssahil/PROJECTS/Mol_Feturizer/New_Systems/rnas/2EES

>  <Rbt.Executable>
rbdock ($Id: //depot/dev/client3/rdock/2013.1/src/exe/rbdock.cxx#4 $)

>  <Rbt.Library>
libRbt.so (2013.1, Build901 2013/11/27)

>  <Rbt.Parameter_File>
/export/apps/rDock/src/rDock_2013.1_src/data/scripts/dock_solv.prm

>  <Rbt.Receptor>
prm/blind_docking_100.prm

>  <SCORE>
-16.9903

>  <SCORE.INTER>
-16.9903

>  <SCORE.INTER.CONST>
1

>  <SCORE.INTER.POLAR>
0

>  <SCORE.INTER.ROT>
0

>  <SCORE.INTER.SOLV>
3.73409

>  <SCORE.INTER.VDW>
-16.1716

>  <SCORE.INTER.norm>
-1.69903

>  <SCORE.INTRA>
0

>  <SCORE.INTRA.DIHEDRAL>
0

>  <SCORE.INTRA.DIHEDRAL.0>
0

>  <SCORE.INTRA.POLAR>
0

>  <SCORE.INTRA.POLAR.0>
0

>  <SCORE.INTRA.REPUL>
0

>  <SCORE.INTRA.REPUL.0>
0

>  <SCORE.INTRA.SOLV>
0

>  <SCORE.INTRA.SOLV.lig_0>
-4.28614

>  <SCORE.INTRA.VDW>
0

>  <SCORE.INTRA.VDW.0>
0

>  <SCORE.INTRA.norm>
0

>  <SCORE.RESTR>
0

>  <SCORE.RESTR.CAVITY>
0

>  <SCORE.RESTR.norm>
0

>  <SCORE.SYSTEM>
0

>  <SCORE.SYSTEM.CONST>
0

>  <SCORE.SYSTEM.DIHEDRAL>
0

>  <SCORE.SYSTEM.SOLV>
0

>  <SCORE.SYSTEM.norm>
0

>  <SCORE.heavy>
10

>  <SCORE.norm>
-1.69903

>  <RMSD>
0.792

$$$$
ligand
 OpenBabel11021811423D
libRbt.so/2013.1/901 2013/11/27
 10 11  0  0  0  0  0  0  0  0999 V2000
  -11.9874  -10.8931    8.7149 N   0  0  0  0  0  0  0  0  0  0  0  0
  -11.8601  -12.2736    8.8809 C   0  0  0  0  0  0  0  0  0  0  0  0
  -11.5324  -13.0935    7.8663 N   0  0  0  0  0  0  0  0  0  0  0  0
  -11.3348  -12.4227    6.6626 C   0  0  0  0  0  0  0  0  0  0  0  0
  -11.4459  -11.0552    6.4048 C   0  0  0  0  0  0  0  0  0  0  0  0
  -11.8027  -10.1743    7.4861 C   0  0  0  0  0  0  0  0  0  0  0  0
  -11.9564   -8.9772    7.5149 O   0  0  0  0  0  0  0  0  0  0  0  0
  -11.1476  -10.8246    5.0494 N   0  0  0  0  0  0  0  0  0  0  0  0
  -10.8616  -12.0488    4.5297 C   0  0  0  0  0  0  0  0  0  0  0  0
  -10.9702  -13.0520    5.5029 N   0  0  0  0  0  0  0  0  0  0  0  0
  1  2  1  0  0  0  0
  1  6  1  0  0  0  0
  2  3  2  0  0  0  0
  3  4  1  0  0  0  0
  4  5  2  0  0  0  0
  4 10  1  0  0  0  0
  5  6  1  0  0  0  0
  5  8  1  0  0  0  0
  6  7  2  0  0  0  0
  8  9  1  0  0  0  0
  9 10  2  0  0  0  0
M  END
>  <CHROM.1>
-11.49911936,-11.43513456,6.87627516,3.07790971,1.31096516,-0.48831964

>  <Name>
ligand

>  <RI>
0

>  <Rbt.Current_Directory>
/home/itssahil/PROJECTS/Mol_Feturizer/New_Systems/rnas/2EES

>  <Rbt.Executable>
rbdock ($Id: //depot/dev/client3/rdock/2013.1/src/exe/rbdock.cxx#4 $)

>  <Rbt.Library>
libRbt.so (2013.1, Build901 2013/11/27)

>  <Rbt.Parameter_File>
/export/apps/rDock/src/rDock_2013.1_src/data/scripts/dock_solv.prm

>  <Rbt.Receptor>
prm/blind_docking_40.prm

>  <SCORE>
-16.9837

>  <SCORE.INTER>
-16.9837

>  <SCORE.INTER.CONST>
1

>  <SCORE.INTER.POLAR>
0

>  <SCORE.INTER.ROT>
0

>  <SCORE.INTER.SOLV>
3.75045

>  <SCORE.INTER.VDW>
-16.1726

>  <SCORE.INTER.norm>
-1.69837

>  <SCORE.INTRA>
0

>  <SCORE.INTRA.DIHEDRAL>
0

>  <SCORE.INTRA.DIHEDRAL.0>
0

>  <SCORE.INTRA.POLAR>
0

>  <SCORE.INTRA.POLAR.0>
0

>  <SCORE.INTRA.REPUL>
0

>  <SCORE.INTRA.REPUL.0>
0

>  <SCORE.INTRA.SOLV>
0

>  <SCORE.INTRA.SOLV.lig_0>
-4.28614

>  <SCORE.INTRA.VDW>
0

>  <SCORE.INTRA.VDW.0>
0

>  <SCORE.INTRA.norm>
0

>  <SCORE.RESTR>
0

>  <SCORE.RESTR.CAVITY>
0

>  <SCORE.RESTR.norm>
0

>  <SCORE.SYSTEM>
0

>  <SCORE.SYSTEM.CONST>
0

>  <SCORE.SYSTEM.DIHEDRAL>
0

>  <SCORE.SYSTEM.SOLV>
0

>  <SCORE.SYSTEM.norm>
0

>  <SCORE.heavy>
10

>  <SCORE.norm>
-1.69837

>  <RMSD>
0.792

$$$$
ligand
 OpenBabel11021811423D
libRbt.so/2013.1/901 2013/11/27
 10 11  0  0  0  0  0  0  0  0999 V2000
  -11.9889  -10.9295    8.6971 N   0  0  0  0  0  0  0  0  0  0  0  0
  -11.8305  -12.3075    8.8572 C   0  0  0  0  0  0  0  0  0  0  0  0
  -11.4907  -13.1163    7.8377 N   0  0  0  0  0  0  0  0  0  0  0  0
  -11.3148  -12.4370    6.6354 C   0  0  0  0  0  0  0  0  0  0  0  0
  -11.4573  -11.0713    6.3834 C   0  0  0  0  0  0  0  0  0  0  0  0
  -11.8271  -10.2024    7.4700 C   0  0  0  0  0  0  0  0  0  0  0  0
  -12.0067   -9.0090    7.5041 O   0  0  0  0  0  0  0  0  0  0  0  0
  -11.1719  -10.8293    5.0272 N   0  0  0  0  0  0  0  0  0  0  0  0
  -10.8622  -12.0450    4.5013 C   0  0  0  0  0  0  0  0  0  0  0  0
  -10.9432  -13.0539    5.4713 N   0  0  0  0  0  0  0  0  0  0  0  0
  1  2  1  0  0  0  0
  1  6  1  0  0  0  0
  2  3  2  0  0  0  0
  3  4  1  0  0  0  0
  4  5  2  0  0  0  0
  4 10  1  0  0  0  0
  5  6  1  0  0  0  0
  5  8  1  0  0  0  0
  6  7  2  0  0  0  0
  8  9  1  0  0  0  0
  9 10  2  0  0  0  0
M  END
>  <CHROM.1>
-11.49948329,-11.45402963,6.85373431,-3.12135063,1.30487861,-0.56567373

>  <Name>
ligand

>  <RI>
0

>  <Rbt.Current_Directory>
/home/itssahil/PROJECTS/Mol_Feturizer/New_Systems/rnas/2EES

>  <Rbt.Executable>
rbdock ($Id: //depot/dev/client3/rdock/2013.1/src/exe/rbdock.cxx#4 $)

>  <Rbt.Library>
libRbt.so (2013.1, Build901 2013/11/27)

>  <Rbt.Parameter_File>
/export/apps/rDock/src/rDock_2013.1_src/data/scripts/dock_solv.prm

>  <Rbt.Receptor>
prm/pocket_docking_8.prm

>  <SCORE>
-17.0116

>  <SCORE.INTER>
-17.0116

>  <SCORE.INTER.CONST>
1

>  <SCORE.INTER.POLAR>
0

>  <SCORE.INTER.ROT>
0

>  <SCORE.INTER.SOLV>
3.69195

>  <SCORE.INTER.VDW>
-16.1717

>  <SCORE.INTER.norm>
-1.70116

>  <SCORE.INTRA>
0

>  <SCORE.INTRA.DIHEDRAL>
0

>  <SCORE.INTRA.DIHEDRAL.0>
0

>  <SCORE.INTRA.POLAR>
0

>  <SCORE.INTRA.POLAR.0>
0

>  <SCORE.INTRA.REPUL>
0

>  <SCORE.INTRA.REPUL.0>
0

>  <SCORE.INTRA.SOLV>
0

>  <SCORE.INTRA.SOLV.lig_0>
-4.28614

>  <SCORE.INTRA.VDW>
0

>  <SCORE.INTRA.VDW.0>
0

>  <SCORE.INTRA.norm>
0

>  <SCORE.RESTR>
0

>  <SCORE.RESTR.CAVITY>
0

>  <SCORE.RESTR.norm>
0

>  <SCORE.SYSTEM>
0

>  <SCORE.SYSTEM.CONST>
0

>  <SCORE.SYSTEM.DIHEDRAL>
0

>  <SCORE.SYSTEM.SOLV>
0

>  <SCORE.SYSTEM.norm>
0

>  <SCORE.heavy>
10

>  <SCORE.norm>
-1.70116

>  <RMSD>
0.800

$$$$
ligand
 OpenBabel11021811423D
libRbt.so/2013.1/901 2013/11/27
 10 11  0  0  0  0  0  0  0  0999 V2000
  -11.9725  -10.9171    8.6969 N   0  0  0  0  0  0  0  0  0  0  0  0
  -11.8300  -12.2955    8.8680 C   0  0  0  0  0  0  0  0  0  0  0  0
  -11.5029  -13.1167    7.8543 N   0  0  0  0  0  0  0  0  0  0  0  0
  -11.3224  -12.4495    6.6460 C   0  0  0  0  0  0  0  0  0  0  0  0
  -11.4493  -11.0843    6.3830 C   0  0  0  0  0  0  0  0  0  0  0  0
  -11.8056  -10.2021    7.4634 C   0  0  0  0  0  0  0  0  0  0  0  0
  -11.9709   -9.0064    7.4881 O   0  0  0  0  0  0  0  0  0  0  0  0
  -11.1651  -10.8569    5.0241 N   0  0  0  0  0  0  0  0  0  0  0  0
  -10.8715  -12.0806    4.5074 C   0  0  0  0  0  0  0  0  0  0  0  0
  -10.9616  -13.0804    5.4860 N   0  0  0  0  0  0  0  0  0  0  0  0
  1  2  1  0  0  0  0
  1  6  1  0  0  0  0
  2  3  2  0  0  0  0
  3  4  1  0  0  0  0
  4  5  2  0  0  0  0
  4 10  1  0  0  0  0
  5  6  1  0  0  0  0
  5  8  1  0  0  0  0
  6  7  2  0  0  0  0
  8  9  1  0  0  0  0
  9 10  2  0  0  0  0
M  END
>  <CHROM.1>
-11.49471889,-11.46262220,6.85659799,3.12853503,1.31360581,-0.54179673

>  <Name>
ligand

>  <RI>
0

>  <Rbt.Current_Directory>
/home/itssahil/PROJECTS/Mol_Feturizer/New_Systems/rnas/2EES

>  <Rbt.Executable>
rbdock ($Id: //depot/dev/client3/rdock/2013.1/src/exe/rbdock.cxx#4 $)

>  <Rbt.Library>
libRbt.so (2013.1, Build901 2013/11/27)

>  <Rbt.Parameter_File>
/export/apps/rDock/src/rDock_2013.1_src/data/scripts/dock_solv.prm

>  <Rbt.Receptor>
prm/blind_docking_80.prm

>  <SCORE>
-16.9963

>  <SCORE.INTER>
-16.9963

>  <SCORE.INTER.CONST>
1

>  <SCORE.INTER.POLAR>
0

>  <SCORE.INTER.ROT>
0

>  <SCORE.INTER.SOLV>
3.73793

>  <SCORE.INTER.VDW>
-16.1769

>  <SCORE.INTER.norm>
-1.69963

>  <SCORE.INTRA>
0

>  <SCORE.INTRA.DIHEDRAL>
0

>  <SCORE.INTRA.DIHEDRAL.0>
0

>  <SCORE.INTRA.POLAR>
0

>  <SCORE.INTRA.POLAR.0>
0

>  <SCORE.INTRA.REPUL>
0

>  <SCORE.INTRA.REPUL.0>
0

>  <SCORE.INTRA.SOLV>
0

>  <SCORE.INTRA.SOLV.lig_0>
-4.28614

>  <SCORE.INTRA.VDW>
0

>  <SCORE.INTRA.VDW.0>
0

>  <SCORE.INTRA.norm>
0

>  <SCORE.RESTR>
0

>  <SCORE.RESTR.CAVITY>
0

>  <SCORE.RESTR.norm>
0

>  <SCORE.SYSTEM>
0

>  <SCORE.SYSTEM.CONST>
0

>  <SCORE.SYSTEM.DIHEDRAL>
0

>  <SCORE.SYSTEM.SOLV>
0

>  <SCORE.SYSTEM.norm>
0

>  <SCORE.heavy>
10

>  <SCORE.norm>
-1.69963

>  <RMSD>
0.801

$$$$
ligand
 OpenBabel11021811423D
libRbt.so/2013.1/901 2013/11/27
 10 11  0  0  0  0  0  0  0  0999 V2000
  -11.9837  -10.9343    8.6953 N   0  0  0  0  0  0  0  0  0  0  0  0
  -11.8297  -12.3130    8.8538 C   0  0  0  0  0  0  0  0  0  0  0  0
  -11.4893  -13.1213    7.8341 N   0  0  0  0  0  0  0  0  0  0  0  0
  -11.3079  -12.4406    6.6334 C   0  0  0  0  0  0  0  0  0  0  0  0
  -11.4457  -11.0741    6.3830 C   0  0  0  0  0  0  0  0  0  0  0  0
  -11.8161  -10.2058    7.4698 C   0  0  0  0  0  0  0  0  0  0  0  0
  -11.9925   -9.0120    7.5052 O   0  0  0  0  0  0  0  0  0  0  0  0
  -11.1556  -10.8309    5.0281 N   0  0  0  0  0  0  0  0  0  0  0  0
  -10.8479  -12.0468    4.5012 C   0  0  0  0  0  0  0  0  0  0  0  0
  -10.9347  -13.0569    5.4695 N   0  0  0  0  0  0  0  0  0  0  0  0
  1  2  1  0  0  0  0
  1  6  1  0  0  0  0
  2  3  2  0  0  0  0
  3  4  1  0  0  0  0
  4  5  2  0  0  0  0
  4 10  1  0  0  0  0
  5  6  1  0  0  0  0
  5  8  1  0  0  0  0
  6  7  2  0  0  0  0
  8  9  1  0  0  0  0
  9 10  2  0  0  0  0
M  END
>  <CHROM.1>
-11.49037719,-11.45747724,6.85264605,-3.13652083,1.30392318,-0.54954369

>  <Name>
ligand

>  <RI>
0

>  <Rbt.Current_Directory>
/home/itssahil/PROJECTS/Mol_Feturizer/New_Systems/rnas/2EES

>  <Rbt.Executable>
rbdock ($Id: //depot/dev/client3/rdock/2013.1/src/exe/rbdock.cxx#4 $)

>  <Rbt.Library>
libRbt.so (2013.1, Build901 2013/11/27)

>  <Rbt.Parameter_File>
/export/apps/rDock/src/rDock_2013.1_src/data/scripts/dock_solv.prm

>  <Rbt.Receptor>
prm/pocket_docking_4.prm

>  <SCORE>
-17.0056

>  <SCORE.INTER>
-17.0056

>  <SCORE.INTER.CONST>
1

>  <SCORE.INTER.POLAR>
0

>  <SCORE.INTER.ROT>
0

>  <SCORE.INTER.SOLV>
3.70269

>  <SCORE.INTER.VDW>
-16.1713

>  <SCORE.INTER.norm>
-1.70056

>  <SCORE.INTRA>
0

>  <SCORE.INTRA.DIHEDRAL>
0

>  <SCORE.INTRA.DIHEDRAL.0>
0

>  <SCORE.INTRA.POLAR>
0

>  <SCORE.INTRA.POLAR.0>
0

>  <SCORE.INTRA.REPUL>
0

>  <SCORE.INTRA.REPUL.0>
0

>  <SCORE.INTRA.SOLV>
0

>  <SCORE.INTRA.SOLV.lig_0>
-4.28614

>  <SCORE.INTRA.VDW>
0

>  <SCORE.INTRA.VDW.0>
0

>  <SCORE.INTRA.norm>
0

>  <SCORE.RESTR>
0

>  <SCORE.RESTR.CAVITY>
0

>  <SCORE.RESTR.norm>
0

>  <SCORE.SYSTEM>
0

>  <SCORE.SYSTEM.CONST>
0

>  <SCORE.SYSTEM.DIHEDRAL>
0

>  <SCORE.SYSTEM.SOLV>
0

>  <SCORE.SYSTEM.norm>
0

>  <SCORE.heavy>
10

>  <SCORE.norm>
-1.70056

>  <RMSD>
0.803

$$$$
ligand
 OpenBabel11021811423D
libRbt.so/2013.1/901 2013/11/27
 10 11  0  0  0  0  0  0  0  0999 V2000
  -11.9785  -10.9262    8.6861 N   0  0  0  0  0  0  0  0  0  0  0  0
  -11.8203  -12.3030    8.8561 C   0  0  0  0  0  0  0  0  0  0  0  0
  -11.4745  -13.1184    7.8439 N   0  0  0  0  0  0  0  0  0  0  0  0
  -11.2921  -12.4469    6.6382 C   0  0  0  0  0  0  0  0  0  0  0  0
  -11.4338  -11.0830    6.3764 C   0  0  0  0  0  0  0  0  0  0  0  0
  -11.8100  -10.2071    7.4552 C   0  0  0  0  0  0  0  0  0  0  0  0
  -11.9904   -9.0136    7.4804 O   0  0  0  0  0  0  0  0  0  0  0  0
  -11.1409  -10.8498    5.0203 N   0  0  0  0  0  0  0  0  0  0  0  0
  -10.8278  -12.0688    4.5041 C   0  0  0  0  0  0  0  0  0  0  0  0
  -10.9138  -13.0714    5.4803 N   0  0  0  0  0  0  0  0  0  0  0  0
  1  2  1  0  0  0  0
  1  6  1  0  0  0  0
  2  3  2  0  0  0  0
  3  4  1  0  0  0  0
  4  5  2  0  0  0  0
  4 10  1  0  0  0  0
  5  6  1  0  0  0  0
  5  8  1  0  0  0  0
  6  7  2  0  0  0  0
  8  9  1  0  0  0  0
  9 10  2  0  0  0  0
M  END
>  <CHROM.1>
-11.47847722,-11.46262671,6.84899571,-3.13119752,1.29989712,-0.56277597

>  <Name>
ligand

>  <RI>
0

>  <Rbt.Current_Directory>
/home/itssahil/PROJECTS/Mol_Feturizer/New_Systems/rnas/2EES

>  <Rbt.Executable>
rbdock ($Id: //depot/dev/client3/rdock/2013.1/src/exe/rbdock.cxx#4 $)

>  <Rbt.Library>
libRbt.so (2013.1, Build901 2013/11/27)

>  <Rbt.Parameter_File>
/export/apps/rDock/src/rDock_2013.1_src/data/scripts/dock_solv.prm

>  <Rbt.Receptor>
prm/blind_docking_100.prm

>  <SCORE>
-17.0166

>  <SCORE.INTER>
-17.0166

>  <SCORE.INTER.CONST>
1

>  <SCORE.INTER.POLAR>
0

>  <SCORE.INTER.ROT>
0

>  <SCORE.INTER.SOLV>
3.69718

>  <SCORE.INTER.VDW>
-16.1768

>  <SCORE.INTER.norm>
-1.70166

>  <SCORE.INTRA>
0

>  <SCORE.INTRA.DIHEDRAL>
0

>  <SCORE.INTRA.DIHEDRAL.0>
0

>  <SCORE.INTRA.POLAR>
0

>  <SCORE.INTRA.POLAR.0>
0

>  <SCORE.INTRA.REPUL>
0

>  <SCORE.INTRA.REPUL.0>
0

>  <SCORE.INTRA.SOLV>
0

>  <SCORE.INTRA.SOLV.lig_0>
-4.28614

>  <SCORE.INTRA.VDW>
0

>  <SCORE.INTRA.VDW.0>
0

>  <SCORE.INTRA.norm>
0

>  <SCORE.RESTR>
0

>  <SCORE.RESTR.CAVITY>
0

>  <SCORE.RESTR.norm>
0

>  <SCORE.SYSTEM>
0

>  <SCORE.SYSTEM.CONST>
0

>  <SCORE.SYSTEM.DIHEDRAL>
0

>  <SCORE.SYSTEM.SOLV>
0

>  <SCORE.SYSTEM.norm>
0

>  <SCORE.heavy>
10

>  <SCORE.norm>
-1.70166

>  <RMSD>
0.805

$$$$
ligand
 OpenBabel11021811423D
libRbt.so/2013.1/901 2013/11/27
 10 11  0  0  0  0  0  0  0  0999 V2000
  -11.9783  -10.9152    8.6939 N   0  0  0  0  0  0  0  0  0  0  0  0
  -11.8551  -12.2957    8.8632 C   0  0  0  0  0  0  0  0  0  0  0  0
  -11.5434  -13.1206    7.8476 N   0  0  0  0  0  0  0  0  0  0  0  0
  -11.3575  -12.4549    6.6393 C   0  0  0  0  0  0  0  0  0  0  0  0
  -11.4655  -11.0877    6.3780 C   0  0  0  0  0  0  0  0  0  0  0  0
  -11.8053  -10.2015    7.4605 C   0  0  0  0  0  0  0  0  0  0  0  0
  -11.9532   -9.0036    7.4869 O   0  0  0  0  0  0  0  0  0  0  0  0
  -11.1827  -10.8632    5.0183 N   0  0  0  0  0  0  0  0  0  0  0  0
  -10.9086  -12.0905    4.4995 C   0  0  0  0  0  0  0  0  0  0  0  0
  -11.0098  -13.0898    5.4775 N   0  0  0  0  0  0  0  0  0  0  0  0
  1  2  1  0  0  0  0
  1  6  1  0  0  0  0
  2  3  2  0  0  0  0
  3  4  1  0  0  0  0
  4  5  2  0  0  0  0
  4 10  1  0  0  0  0
  5  6  1  0  0  0  0
  5  8  1  0  0  0  0
  6  7  2  0  0  0  0
  8  9  1  0  0  0  0
  9 10  2  0  0  0  0
M  END
>  <CHROM.1>
-11.51477389,-11.46583748,6.85144677,3.08505453,1.32378707,-0.49873050

>  <Name>
ligand

>  <RI>
0

>  <Rbt.Current_Directory>
/home/itssahil/PROJECTS/Mol_Feturizer/New_Systems/rnas/2EES

>  <Rbt.Executable>
rbdock ($Id: //depot/dev/client3/rdock/2013.1/src/exe/rbdock.cxx#4 $)

>  <Rbt.Library>
libRbt.so (2013.1, Build901 2013/11/27)

>  <Rbt.Parameter_File>
/export/apps/rDock/src/rDock_2013.1_src/data/scripts/dock_solv.prm

>  <Rbt.Receptor>
prm/pocket_docking_4.prm

>  <SCORE>
-16.9605

>  <SCORE.INTER>
-16.9605

>  <SCORE.INTER.CONST>
1

>  <SCORE.INTER.POLAR>
0

>  <SCORE.INTER.ROT>
0

>  <SCORE.INTER.SOLV>
3.77684

>  <SCORE.INTER.VDW>
-16.166

>  <SCORE.INTER.norm>
-1.69605

>  <SCORE.INTRA>
0

>  <SCORE.INTRA.DIHEDRAL>
0

>  <SCORE.INTRA.DIHEDRAL.0>
0

>  <SCORE.INTRA.POLAR>
0

>  <SCORE.INTRA.POLAR.0>
0

>  <SCORE.INTRA.REPUL>
0

>  <SCORE.INTRA.REPUL.0>
0

>  <SCORE.INTRA.SOLV>
0

>  <SCORE.INTRA.SOLV.lig_0>
-4.28614

>  <SCORE.INTRA.VDW>
0

>  <SCORE.INTRA.VDW.0>
0

>  <SCORE.INTRA.norm>
0

>  <SCORE.RESTR>
0

>  <SCORE.RESTR.CAVITY>
0

>  <SCORE.RESTR.norm>
0

>  <SCORE.SYSTEM>
0

>  <SCORE.SYSTEM.CONST>
0

>  <SCORE.SYSTEM.DIHEDRAL>
0

>  <SCORE.SYSTEM.SOLV>
0

>  <SCORE.SYSTEM.norm>
0

>  <SCORE.heavy>
10

>  <SCORE.norm>
-1.69605

>  <RMSD>
0.808

$$$$
ligand
 OpenBabel11021811423D
libRbt.so/2013.1/901 2013/11/27
 10 11  0  0  0  0  0  0  0  0999 V2000
  -11.9963  -10.9158    8.6710 N   0  0  0  0  0  0  0  0  0  0  0  0
  -11.8624  -12.2946    8.8460 C   0  0  0  0  0  0  0  0  0  0  0  0
  -11.5293  -13.1193    7.8370 N   0  0  0  0  0  0  0  0  0  0  0  0
  -11.3336  -12.4553    6.6293 C   0  0  0  0  0  0  0  0  0  0  0  0
  -11.4511  -11.0900    6.3626 C   0  0  0  0  0  0  0  0  0  0  0  0
  -11.8136  -10.2040    7.4379 C   0  0  0  0  0  0  0  0  0  0  0  0
  -11.9733   -9.0075    7.4588 O   0  0  0  0  0  0  0  0  0  0  0  0
  -11.1523  -10.8665    5.0062 N   0  0  0  0  0  0  0  0  0  0  0  0
  -10.8597  -12.0926    4.4947 C   0  0  0  0  0  0  0  0  0  0  0  0
  -10.9645  -13.0901    5.4741 N   0  0  0  0  0  0  0  0  0  0  0  0
  1  2  1  0  0  0  0
  1  6  1  0  0  0  0
  2  3  2  0  0  0  0
  3  4  1  0  0  0  0
  4  5  2  0  0  0  0
  4 10  1  0  0  0  0
  5  6  1  0  0  0  0
  5  8  1  0  0  0  0
  6  7  2  0  0  0  0
  8  9  1  0  0  0  0
  9 10  2  0  0  0  0
M  END
>  <CHROM.1>
-11.50308643,-11.46716297,6.83649007,3.09255468,1.30752497,-0.50885883

>  <Name>
ligand

>  <RI>
0

>  <Rbt.Current_Directory>
/home/itssahil/PROJECTS/Mol_Feturizer/New_Systems/rnas/2EES

>  <Rbt.Executable>
rbdock ($Id: //depot/dev/client3/rdock/2013.1/src/exe/rbdock.cxx#4 $)

>  <Rbt.Library>
libRbt.so (2013.1, Build901 2013/11/27)

>  <Rbt.Parameter_File>
/export/apps/rDock/src/rDock_2013.1_src/data/scripts/dock_solv.prm

>  <Rbt.Receptor>
prm/pocket_docking_4.prm

>  <SCORE>
-16.9905

>  <SCORE.INTER>
-16.9905

>  <SCORE.INTER.CONST>
1

>  <SCORE.INTER.POLAR>
0

>  <SCORE.INTER.ROT>
0

>  <SCORE.INTER.SOLV>
3.73567

>  <SCORE.INTER.VDW>
-16.1722

>  <SCORE.INTER.norm>
-1.69905

>  <SCORE.INTRA>
0

>  <SCORE.INTRA.DIHEDRAL>
0

>  <SCORE.INTRA.DIHEDRAL.0>
0

>  <SCORE.INTRA.POLAR>
0

>  <SCORE.INTRA.POLAR.0>
0

>  <SCORE.INTRA.REPUL>
0

>  <SCORE.INTRA.REPUL.0>
0

>  <SCORE.INTRA.SOLV>
0

>  <SCORE.INTRA.SOLV.lig_0>
-4.28614

>  <SCORE.INTRA.VDW>
0

>  <SCORE.INTRA.VDW.0>
0

>  <SCORE.INTRA.norm>
0

>  <SCORE.RESTR>
0

>  <SCORE.RESTR.CAVITY>
0

>  <SCORE.RESTR.norm>
0

>  <SCORE.SYSTEM>
0

>  <SCORE.SYSTEM.CONST>
0

>  <SCORE.SYSTEM.DIHEDRAL>
0

>  <SCORE.SYSTEM.SOLV>
0

>  <SCORE.SYSTEM.norm>
0

>  <SCORE.heavy>
10

>  <SCORE.norm>
-1.69905

>  <RMSD>
0.817

$$$$
ligand
 OpenBabel11021811423D
libRbt.so/2013.1/901 2013/11/27
 10 11  0  0  0  0  0  0  0  0999 V2000
  -11.9843  -10.9125    8.6641 N   0  0  0  0  0  0  0  0  0  0  0  0
  -11.8087  -12.2852    8.8494 C   0  0  0  0  0  0  0  0  0  0  0  0
  -11.4565  -13.1080    7.8453 N   0  0  0  0  0  0  0  0  0  0  0  0
  -11.2866  -12.4483    6.6313 C   0  0  0  0  0  0  0  0  0  0  0  0
  -11.4459  -11.0893    6.3543 C   0  0  0  0  0  0  0  0  0  0  0  0
  -11.8290  -10.2057    7.4243 C   0  0  0  0  0  0  0  0  0  0  0  0
  -12.0239   -9.0142    7.4365 O   0  0  0  0  0  0  0  0  0  0  0  0
  -11.1607  -10.8682    4.9946 N   0  0  0  0  0  0  0  0  0  0  0  0
  -10.8345  -12.0892    4.4913 C   0  0  0  0  0  0  0  0  0  0  0  0
  -10.9048  -13.0814    5.4793 N   0  0  0  0  0  0  0  0  0  0  0  0
  1  2  1  0  0  0  0
  1  6  1  0  0  0  0
  2  3  2  0  0  0  0
  3  4  1  0  0  0  0
  4  5  2  0  0  0  0
  4 10  1  0  0  0  0
  5  6  1  0  0  0  0
  5  8  1  0  0  0  0
  6  7  2  0  0  0  0
  8  9  1  0  0  0  0
  9 10  2  0  0  0  0
M  END
>  <CHROM.1>
-11.48425875,-11.46397442,6.83143879,-3.08609032,1.29610127,-0.61773765

>  <Name>
ligand

>  <RI>
0

>  <Rbt.Current_Directory>
/home/itssahil/PROJECTS/Mol_Feturizer/New_Systems/rnas/2EES

>  <Rbt.Executable>
rbdock ($Id: //depot/dev/client3/rdock/2013.1/src/exe/rbdock.cxx#4 $)

>  <Rbt.Library>
libRbt.so (2013.1, Build901 2013/11/27)

>  <Rbt.Parameter_File>
/export/apps/rDock/src/rDock_2013.1_src/data/scripts/dock_solv.prm

>  <Rbt.Receptor>
prm/pocket_docking_8.prm

>  <SCORE>
-16.9766

>  <SCORE.INTER>
-16.9766

>  <SCORE.INTER.CONST>
1

>  <SCORE.INTER.POLAR>
0

>  <SCORE.INTER.ROT>
0

>  <SCORE.INTER.SOLV>
3.66683

>  <SCORE.INTER.VDW>
-16.14

>  <SCORE.INTER.norm>
-1.69766

>  <SCORE.INTRA>
0

>  <SCORE.INTRA.DIHEDRAL>
0

>  <SCORE.INTRA.DIHEDRAL.0>
0

>  <SCORE.INTRA.POLAR>
0

>  <SCORE.INTRA.POLAR.0>
0

>  <SCORE.INTRA.REPUL>
0

>  <SCORE.INTRA.REPUL.0>
0

>  <SCORE.INTRA.SOLV>
0

>  <SCORE.INTRA.SOLV.lig_0>
-4.28614

>  <SCORE.INTRA.VDW>
0

>  <SCORE.INTRA.VDW.0>
0

>  <SCORE.INTRA.norm>
0

>  <SCORE.RESTR>
0

>  <SCORE.RESTR.CAVITY>
0

>  <SCORE.RESTR.norm>
0

>  <SCORE.SYSTEM>
0

>  <SCORE.SYSTEM.CONST>
0

>  <SCORE.SYSTEM.DIHEDRAL>
0

>  <SCORE.SYSTEM.SOLV>
0

>  <SCORE.SYSTEM.norm>
0

>  <SCORE.heavy>
10

>  <SCORE.norm>
-1.69766

>  <RMSD>
0.817

$$$$
ligand
 OpenBabel11021811423D
libRbt.so/2013.1/901 2013/11/27
 10 11  0  0  0  0  0  0  0  0999 V2000
  -11.9949  -10.9112    8.6684 N   0  0  0  0  0  0  0  0  0  0  0  0
  -11.8528  -12.2894    8.8422 C   0  0  0  0  0  0  0  0  0  0  0  0
  -11.5055  -13.1100    7.8347 N   0  0  0  0  0  0  0  0  0  0  0  0
  -11.3041  -12.4425    6.6299 C   0  0  0  0  0  0  0  0  0  0  0  0
  -11.4289  -11.0776    6.3645 C   0  0  0  0  0  0  0  0  0  0  0  0
  -11.8067  -10.1960    7.4381 C   0  0  0  0  0  0  0  0  0  0  0  0
  -11.9748   -9.0007    7.4597 O   0  0  0  0  0  0  0  0  0  0  0  0
  -11.1201  -10.8497    5.0110 N   0  0  0  0  0  0  0  0  0  0  0  0
  -10.8146  -12.0729    4.4999 C   0  0  0  0  0  0  0  0  0  0  0  0
  -10.9208  -13.0728    5.4768 N   0  0  0  0  0  0  0  0  0  0  0  0
  1  2  1  0  0  0  0
  1  6  1  0  0  0  0
  2  3  2  0  0  0  0
  3  4  1  0  0  0  0
  4  5  2  0  0  0  0
  4 10  1  0  0  0  0
  5  6  1  0  0  0  0
  5  8  1  0  0  0  0
  6  7  2  0  0  0  0
  8  9  1  0  0  0  0
  9 10  2  0  0  0  0
M  END
>  <CHROM.1>
-11.48222636,-11.45595293,6.83724823,3.09965651,1.29670494,-0.51399689

>  <Name>
ligand

>  <RI>
0

>  <Rbt.Current_Directory>
/home/itssahil/PROJECTS/Mol_Feturizer/New_Systems/rnas/2EES

>  <Rbt.Executable>
rbdock ($Id: //depot/dev/client3/rdock/2013.1/src/exe/rbdock.cxx#4 $)

>  <Rbt.Library>
libRbt.so (2013.1, Build901 2013/11/27)

>  <Rbt.Parameter_File>
/export/apps/rDock/src/rDock_2013.1_src/data/scripts/dock_solv.prm

>  <Rbt.Receptor>
prm/pocket_docking_4.prm

>  <SCORE>
-17.0436

>  <SCORE.INTER>
-17.0436

>  <SCORE.INTER.CONST>
1

>  <SCORE.INTER.POLAR>
0

>  <SCORE.INTER.ROT>
0

>  <SCORE.INTER.SOLV>
3.71353

>  <SCORE.INTER.VDW>
-16.2002

>  <SCORE.INTER.norm>
-1.70436

>  <SCORE.INTRA>
0

>  <SCORE.INTRA.DIHEDRAL>
0

>  <SCORE.INTRA.DIHEDRAL.0>
0

>  <SCORE.INTRA.POLAR>
0

>  <SCORE.INTRA.POLAR.0>
0

>  <SCORE.INTRA.REPUL>
0

>  <SCORE.INTRA.REPUL.0>
0

>  <SCORE.INTRA.SOLV>
0

>  <SCORE.INTRA.SOLV.lig_0>
-4.28614

>  <SCORE.INTRA.VDW>
0

>  <SCORE.INTRA.VDW.0>
0

>  <SCORE.INTRA.norm>
0

>  <SCORE.RESTR>
0

>  <SCORE.RESTR.CAVITY>
0

>  <SCORE.RESTR.norm>
0

>  <SCORE.SYSTEM>
0

>  <SCORE.SYSTEM.CONST>
0

>  <SCORE.SYSTEM.DIHEDRAL>
0

>  <SCORE.SYSTEM.SOLV>
0

>  <SCORE.SYSTEM.norm>
0

>  <SCORE.heavy>
10

>  <SCORE.norm>
-1.70436

>  <RMSD>
0.819

$$$$
ligand
 OpenBabel11021811423D
libRbt.so/2013.1/901 2013/11/27
 10 11  0  0  0  0  0  0  0  0999 V2000
  -12.1374  -10.2890    8.7523 N   0  0  0  0  0  0  0  0  0  0  0  0
  -12.0216  -11.6127    9.1811 C   0  0  0  0  0  0  0  0  0  0  0  0
  -11.6841  -12.6127    8.3472 N   0  0  0  0  0  0  0  0  0  0  0  0
  -11.4641  -12.1851    7.0409 C   0  0  0  0  0  0  0  0  0  0  0  0
  -11.5624  -10.8917    6.5247 C   0  0  0  0  0  0  0  0  0  0  0  0
  -11.9296   -9.8191    7.4119 C   0  0  0  0  0  0  0  0  0  0  0  0
  -12.0759   -8.6380    7.2089 O   0  0  0  0  0  0  0  0  0  0  0  0
  -11.2423  -10.9255    5.1552 N   0  0  0  0  0  0  0  0  0  0  0  0
  -10.9566  -12.2275    4.8837 C   0  0  0  0  0  0  0  0  0  0  0  0
  -11.0863  -13.0258    6.0288 N   0  0  0  0  0  0  0  0  0  0  0  0
  1  2  1  0  0  0  0
  1  6  1  0  0  0  0
  2  3  2  0  0  0  0
  3  4  1  0  0  0  0
  4  5  2  0  0  0  0
  4 10  1  0  0  0  0
  5  6  1  0  0  0  0
  5  8  1  0  0  0  0
  6  7  2  0  0  0  0
  8  9  1  0  0  0  0
  9 10  2  0  0  0  0
M  END
>  <CHROM.1>
-11.62517256,-11.17429499,7.05921669,3.03003300,1.30049021,-0.63447818

>  <Name>
ligand

>  <RI>
0

>  <Rbt.Current_Directory>
/home/itssahil/PROJECTS/Mol_Feturizer/New_Systems/rnas/2EES

>  <Rbt.Executable>
rbdock ($Id: //depot/dev/client3/rdock/2013.1/src/exe/rbdock.cxx#4 $)

>  <Rbt.Library>
libRbt.so (2013.1, Build901 2013/11/27)

>  <Rbt.Parameter_File>
/export/apps/rDock/src/rDock_2013.1_src/data/scripts/dock_solv.prm

>  <Rbt.Receptor>
prm/blind_docking_20.prm

>  <SCORE>
-16.8138

>  <SCORE.INTER>
-16.8138

>  <SCORE.INTER.CONST>
1

>  <SCORE.INTER.POLAR>
0

>  <SCORE.INTER.ROT>
0

>  <SCORE.INTER.SOLV>
3.77064

>  <SCORE.INTER.VDW>
-16.0661

>  <SCORE.INTER.norm>
-1.68138

>  <SCORE.INTRA>
0

>  <SCORE.INTRA.DIHEDRAL>
0

>  <SCORE.INTRA.DIHEDRAL.0>
0

>  <SCORE.INTRA.POLAR>
0

>  <SCORE.INTRA.POLAR.0>
0

>  <SCORE.INTRA.REPUL>
0

>  <SCORE.INTRA.REPUL.0>
0

>  <SCORE.INTRA.SOLV>
0

>  <SCORE.INTRA.SOLV.lig_0>
-4.28614

>  <SCORE.INTRA.VDW>
0

>  <SCORE.INTRA.VDW.0>
0

>  <SCORE.INTRA.norm>
0

>  <SCORE.RESTR>
0

>  <SCORE.RESTR.CAVITY>
0

>  <SCORE.RESTR.norm>
0

>  <SCORE.SYSTEM>
0

>  <SCORE.SYSTEM.CONST>
0

>  <SCORE.SYSTEM.DIHEDRAL>
0

>  <SCORE.SYSTEM.SOLV>
0

>  <SCORE.SYSTEM.norm>
0

>  <SCORE.heavy>
10

>  <SCORE.norm>
-1.68138

>  <RMSD>
0.849

$$$$
ligand
 OpenBabel11021811423D
libRbt.so/2013.1/901 2013/11/27
 10 11  0  0  0  0  0  0  0  0999 V2000
  -12.1238  -10.2837    8.7539 N   0  0  0  0  0  0  0  0  0  0  0  0
  -12.0256  -11.6086    9.1837 C   0  0  0  0  0  0  0  0  0  0  0  0
  -11.6960  -12.6128    8.3519 N   0  0  0  0  0  0  0  0  0  0  0  0
  -11.4649  -12.1885    7.0464 C   0  0  0  0  0  0  0  0  0  0  0  0
  -11.5456  -10.8942    6.5292 C   0  0  0  0  0  0  0  0  0  0  0  0
  -11.9042   -9.8169    7.4143 C   0  0  0  0  0  0  0  0  0  0  0  0
  -12.0356   -8.6343    7.2101 O   0  0  0  0  0  0  0  0  0  0  0  0
  -11.2196  -10.9325    5.1612 N   0  0  0  0  0  0  0  0  0  0  0  0
  -10.9480  -12.2379    4.8916 C   0  0  0  0  0  0  0  0  0  0  0  0
  -11.0924  -13.0340    6.0364 N   0  0  0  0  0  0  0  0  0  0  0  0
  1  2  1  0  0  0  0
  1  6  1  0  0  0  0
  2  3  2  0  0  0  0
  3  4  1  0  0  0  0
  4  5  2  0  0  0  0
  4 10  1  0  0  0  0
  5  6  1  0  0  0  0
  5  8  1  0  0  0  0
  6  7  2  0  0  0  0
  8  9  1  0  0  0  0
  9 10  2  0  0  0  0
M  END
>  <CHROM.1>
-11.61417507,-11.17581985,7.06355598,2.98357368,1.30346795,-0.59012415

>  <Name>
ligand

>  <RI>
0

>  <Rbt.Current_Directory>
/home/itssahil/PROJECTS/Mol_Feturizer/New_Systems/rnas/2EES

>  <Rbt.Executable>
rbdock ($Id: //depot/dev/client3/rdock/2013.1/src/exe/rbdock.cxx#4 $)

>  <Rbt.Library>
libRbt.so (2013.1, Build901 2013/11/27)

>  <Rbt.Parameter_File>
/export/apps/rDock/src/rDock_2013.1_src/data/scripts/dock_solv.prm

>  <Rbt.Receptor>
prm/blind_docking_20.prm

>  <SCORE>
-16.844

>  <SCORE.INTER>
-16.844

>  <SCORE.INTER.CONST>
1

>  <SCORE.INTER.POLAR>
0

>  <SCORE.INTER.ROT>
0

>  <SCORE.INTER.SOLV>
3.82161

>  <SCORE.INTER.VDW>
-16.1032

>  <SCORE.INTER.norm>
-1.6844

>  <SCORE.INTRA>
0

>  <SCORE.INTRA.DIHEDRAL>
0

>  <SCORE.INTRA.DIHEDRAL.0>
0

>  <SCORE.INTRA.POLAR>
0

>  <SCORE.INTRA.POLAR.0>
0

>  <SCORE.INTRA.REPUL>
0

>  <SCORE.INTRA.REPUL.0>
0

>  <SCORE.INTRA.SOLV>
0

>  <SCORE.INTRA.SOLV.lig_0>
-4.28614

>  <SCORE.INTRA.VDW>
0

>  <SCORE.INTRA.VDW.0>
0

>  <SCORE.INTRA.norm>
0

>  <SCORE.RESTR>
0

>  <SCORE.RESTR.CAVITY>
0

>  <SCORE.RESTR.norm>
0

>  <SCORE.SYSTEM>
0

>  <SCORE.SYSTEM.CONST>
0

>  <SCORE.SYSTEM.DIHEDRAL>
0

>  <SCORE.SYSTEM.SOLV>
0

>  <SCORE.SYSTEM.norm>
0

>  <SCORE.heavy>
10

>  <SCORE.norm>
-1.6844

>  <RMSD>
0.852

$$$$
ligand
 OpenBabel11021811423D
libRbt.so/2013.1/901 2013/11/27
 10 11  0  0  0  0  0  0  0  0999 V2000
  -12.1087  -10.2804    8.7549 N   0  0  0  0  0  0  0  0  0  0  0  0
  -12.0191  -11.6052    9.1866 C   0  0  0  0  0  0  0  0  0  0  0  0
  -11.6963  -12.6128    8.3560 N   0  0  0  0  0  0  0  0  0  0  0  0
  -11.4627  -12.1917    7.0499 C   0  0  0  0  0  0  0  0  0  0  0  0
  -11.5349  -10.8977    6.5310 C   0  0  0  0  0  0  0  0  0  0  0  0
  -11.8864   -9.8169    7.4146 C   0  0  0  0  0  0  0  0  0  0  0  0
  -12.0101   -8.6337    7.2088 O   0  0  0  0  0  0  0  0  0  0  0  0
  -11.2095  -10.9400    5.1630 N   0  0  0  0  0  0  0  0  0  0  0  0
  -10.9465  -12.2475    4.8951 C   0  0  0  0  0  0  0  0  0  0  0  0
  -11.0959  -13.0411    6.0411 N   0  0  0  0  0  0  0  0  0  0  0  0
  1  2  1  0  0  0  0
  1  6  1  0  0  0  0
  2  3  2  0  0  0  0
  3  4  1  0  0  0  0
  4  5  2  0  0  0  0
  4 10  1  0  0  0  0
  5  6  1  0  0  0  0
  5  8  1  0  0  0  0
  6  7  2  0  0  0  0
  8  9  1  0  0  0  0
  9 10  2  0  0  0  0
M  END
>  <CHROM.1>
-11.60527955,-11.17811980,7.06571881,2.96312949,1.30722883,-0.57177083

>  <Name>
ligand

>  <RI>
0

>  <Rbt.Current_Directory>
/home/itssahil/PROJECTS/Mol_Feturizer/New_Systems/rnas/2EES

>  <Rbt.Executable>
rbdock ($Id: //depot/dev/client3/rdock/2013.1/src/exe/rbdock.cxx#4 $)

>  <Rbt.Library>
libRbt.so (2013.1, Build901 2013/11/27)

>  <Rbt.Parameter_File>
/export/apps/rDock/src/rDock_2013.1_src/data/scripts/dock_solv.prm

>  <Rbt.Receptor>
prm/blind_docking_20.prm

>  <SCORE>
-16.8425

>  <SCORE.INTER>
-16.8425

>  <SCORE.INTER.CONST>
1

>  <SCORE.INTER.POLAR>
0

>  <SCORE.INTER.ROT>
0

>  <SCORE.INTER.SOLV>
3.85624

>  <SCORE.INTER.VDW>
-16.1137

>  <SCORE.INTER.norm>
-1.68425

>  <SCORE.INTRA>
0

>  <SCORE.INTRA.DIHEDRAL>
0

>  <SCORE.INTRA.DIHEDRAL.0>
0

>  <SCORE.INTRA.POLAR>
0

>  <SCORE.INTRA.POLAR.0>
0

>  <SCORE.INTRA.REPUL>
0

>  <SCORE.INTRA.REPUL.0>
0

>  <SCORE.INTRA.SOLV>
0

>  <SCORE.INTRA.SOLV.lig_0>
-4.28614

>  <SCORE.INTRA.VDW>
0

>  <SCORE.INTRA.VDW.0>
0

>  <SCORE.INTRA.norm>
0

>  <SCORE.RESTR>
1.03527e-05

>  <SCORE.RESTR.CAVITY>
1.03527e-05

>  <SCORE.RESTR.norm>
1.03527e-06

>  <SCORE.SYSTEM>
0

>  <SCORE.SYSTEM.CONST>
0

>  <SCORE.SYSTEM.DIHEDRAL>
0

>  <SCORE.SYSTEM.SOLV>
0

>  <SCORE.SYSTEM.norm>
0

>  <SCORE.heavy>
10

>  <SCORE.norm>
-1.68425

>  <RMSD>
0.854

$$$$
ligand
 OpenBabel11021811423D
libRbt.so/2013.1/901 2013/11/27
 10 11  0  0  0  0  0  0  0  0999 V2000
  -12.1019  -10.2802    8.7548 N   0  0  0  0  0  0  0  0  0  0  0  0
  -12.0012  -11.6050    9.1842 C   0  0  0  0  0  0  0  0  0  0  0  0
  -11.6769  -12.6093    8.3503 N   0  0  0  0  0  0  0  0  0  0  0  0
  -11.4539  -12.1850    7.0434 C   0  0  0  0  0  0  0  0  0  0  0  0
  -11.5376  -10.8908    6.5267 C   0  0  0  0  0  0  0  0  0  0  0  0
  -11.8906   -9.8134    7.4139 C   0  0  0  0  0  0  0  0  0  0  0  0
  -12.0231   -8.6308    7.2104 O   0  0  0  0  0  0  0  0  0  0  0  0
  -11.2201  -10.9292    5.1567 N   0  0  0  0  0  0  0  0  0  0  0  0
  -10.9504  -12.2347    4.8854 C   0  0  0  0  0  0  0  0  0  0  0  0
  -11.0877  -13.0307    6.0312 N   0  0  0  0  0  0  0  0  0  0  0  0
  1  2  1  0  0  0  0
  1  6  1  0  0  0  0
  2  3  2  0  0  0  0
  3  4  1  0  0  0  0
  4  5  2  0  0  0  0
  4 10  1  0  0  0  0
  5  6  1  0  0  0  0
  5  8  1  0  0  0  0
  6  7  2  0  0  0  0
  8  9  1  0  0  0  0
  9 10  2  0  0  0  0
M  END
>  <CHROM.1>
-11.60289433,-11.17239291,7.06143189,2.99654772,1.30867970,-0.60269876

>  <Name>
ligand

>  <RI>
0

>  <Rbt.Current_Directory>
/home/itssahil/PROJECTS/Mol_Feturizer/New_Systems/rnas/2EES

>  <Rbt.Executable>
rbdock ($Id: //depot/dev/client3/rdock/2013.1/src/exe/rbdock.cxx#4 $)

>  <Rbt.Library>
libRbt.so (2013.1, Build901 2013/11/27)

>  <Rbt.Parameter_File>
/export/apps/rDock/src/rDock_2013.1_src/data/scripts/dock_solv.prm

>  <Rbt.Receptor>
prm/blind_docking_20.prm

>  <SCORE>
-16.8415

>  <SCORE.INTER>
-16.8415

>  <SCORE.INTER.CONST>
1

>  <SCORE.INTER.POLAR>
0

>  <SCORE.INTER.ROT>
0

>  <SCORE.INTER.SOLV>
3.84876

>  <SCORE.INTER.VDW>
-16.1106

>  <SCORE.INTER.norm>
-1.68415

>  <SCORE.INTRA>
0

>  <SCORE.INTRA.DIHEDRAL>
0

>  <SCORE.INTRA.DIHEDRAL.0>
0

>  <SCORE.INTRA.POLAR>
0

>  <SCORE.INTRA.POLAR.0>
0

>  <SCORE.INTRA.REPUL>
0

>  <SCORE.INTRA.REPUL.0>
0

>  <SCORE.INTRA.SOLV>
0

>  <SCORE.INTRA.SOLV.lig_0>
-4.28614

>  <SCORE.INTRA.VDW>
0

>  <SCORE.INTRA.VDW.0>
0

>  <SCORE.INTRA.norm>
0

>  <SCORE.RESTR>
0

>  <SCORE.RESTR.CAVITY>
0

>  <SCORE.RESTR.norm>
0

>  <SCORE.SYSTEM>
0

>  <SCORE.SYSTEM.CONST>
0

>  <SCORE.SYSTEM.DIHEDRAL>
0

>  <SCORE.SYSTEM.SOLV>
0

>  <SCORE.SYSTEM.norm>
0

>  <SCORE.heavy>
10

>  <SCORE.norm>
-1.68415

>  <RMSD>
0.855

$$$$
ligand
 OpenBabel11021811423D
libRbt.so/2013.1/901 2013/11/27
 10 11  0  0  0  0  0  0  0  0999 V2000
  -12.1067  -10.2819    8.7540 N   0  0  0  0  0  0  0  0  0  0  0  0
  -12.0272  -11.6098    9.1783 C   0  0  0  0  0  0  0  0  0  0  0  0
  -11.7098  -12.6148    8.3425 N   0  0  0  0  0  0  0  0  0  0  0  0
  -11.4708  -12.1879    7.0393 C   0  0  0  0  0  0  0  0  0  0  0  0
  -11.5330  -10.8904    6.5277 C   0  0  0  0  0  0  0  0  0  0  0  0
  -11.8785   -9.8122    7.4169 C   0  0  0  0  0  0  0  0  0  0  0  0
  -11.9936   -8.6271    7.2176 O   0  0  0  0  0  0  0  0  0  0  0  0
  -11.2052  -10.9272    5.1601 N   0  0  0  0  0  0  0  0  0  0  0  0
  -10.9509  -12.2349    4.8851 C   0  0  0  0  0  0  0  0  0  0  0  0
  -11.1080  -13.0340    6.0263 N   0  0  0  0  0  0  0  0  0  0  0  0
  1  2  1  0  0  0  0
  1  6  1  0  0  0  0
  2  3  2  0  0  0  0
  3  4  1  0  0  0  0
  4  5  2  0  0  0  0
  4 10  1  0  0  0  0
  5  6  1  0  0  0  0
  5  8  1  0  0  0  0
  6  7  2  0  0  0  0
  8  9  1  0  0  0  0
  9 10  2  0  0  0  0
M  END
>  <CHROM.1>
-11.60631662,-11.17341736,7.06066405,2.93637152,1.30931903,-0.54018939

>  <Name>
ligand

>  <RI>
0

>  <Rbt.Current_Directory>
/home/itssahil/PROJECTS/Mol_Feturizer/New_Systems/rnas/2EES

>  <Rbt.Executable>
rbdock ($Id: //depot/dev/client3/rdock/2013.1/src/exe/rbdock.cxx#4 $)

>  <Rbt.Library>
libRbt.so (2013.1, Build901 2013/11/27)

>  <Rbt.Parameter_File>
/export/apps/rDock/src/rDock_2013.1_src/data/scripts/dock_solv.prm

>  <Rbt.Receptor>
prm/blind_docking_20.prm

>  <SCORE>
-16.8421

>  <SCORE.INTER>
-16.8421

>  <SCORE.INTER.CONST>
1

>  <SCORE.INTER.POLAR>
0

>  <SCORE.INTER.ROT>
0

>  <SCORE.INTER.SOLV>
3.88248

>  <SCORE.INTER.VDW>
-16.1223

>  <SCORE.INTER.norm>
-1.68421

>  <SCORE.INTRA>
0

>  <SCORE.INTRA.DIHEDRAL>
0

>  <SCORE.INTRA.DIHEDRAL.0>
0

>  <SCORE.INTRA.POLAR>
0

>  <SCORE.INTRA.POLAR.0>
0

>  <SCORE.INTRA.REPUL>
0

>  <SCORE.INTRA.REPUL.0>
0

>  <SCORE.INTRA.SOLV>
0

>  <SCORE.INTRA.SOLV.lig_0>
-4.28614

>  <SCORE.INTRA.VDW>
0

>  <SCORE.INTRA.VDW.0>
0

>  <SCORE.INTRA.norm>
0

>  <SCORE.RESTR>
0

>  <SCORE.RESTR.CAVITY>
0

>  <SCORE.RESTR.norm>
0

>  <SCORE.SYSTEM>
0

>  <SCORE.SYSTEM.CONST>
0

>  <SCORE.SYSTEM.DIHEDRAL>
0

>  <SCORE.SYSTEM.SOLV>
0

>  <SCORE.SYSTEM.norm>
0

>  <SCORE.heavy>
10

>  <SCORE.norm>
-1.68421

>  <RMSD>
0.858

$$$$
ligand
 OpenBabel11021811423D
libRbt.so/2013.1/901 2013/11/27
 10 11  0  0  0  0  0  0  0  0999 V2000
  -12.1283  -10.2575    8.7637 N   0  0  0  0  0  0  0  0  0  0  0  0
  -12.0519  -11.5812    9.2012 C   0  0  0  0  0  0  0  0  0  0  0  0
  -11.7328  -12.5947    8.3766 N   0  0  0  0  0  0  0  0  0  0  0  0
  -11.4887  -12.1809    7.0700 C   0  0  0  0  0  0  0  0  0  0  0  0
  -11.5476  -10.8885    6.5455 C   0  0  0  0  0  0  0  0  0  0  0  0
  -11.8949   -9.8012    7.4228 C   0  0  0  0  0  0  0  0  0  0  0  0
  -12.0078   -8.6179    7.2116 O   0  0  0  0  0  0  0  0  0  0  0  0
  -11.2151  -10.9390    5.1795 N   0  0  0  0  0  0  0  0  0  0  0  0
  -10.9613  -12.2497    4.9183 C   0  0  0  0  0  0  0  0  0  0  0  0
  -11.1234  -13.0374    6.0666 N   0  0  0  0  0  0  0  0  0  0  0  0
  1  2  1  0  0  0  0
  1  6  1  0  0  0  0
  2  3  2  0  0  0  0
  3  4  1  0  0  0  0
  4  5  2  0  0  0  0
  4 10  1  0  0  0  0
  5  6  1  0  0  0  0
  5  8  1  0  0  0  0
  6  7  2  0  0  0  0
  8  9  1  0  0  0  0
  9 10  2  0  0  0  0
M  END
>  <CHROM.1>
-11.62309764,-11.16615036,7.08095782,2.92552488,1.30692399,-0.53952996

>  <Name>
ligand

>  <RI>
0

>  <Rbt.Current_Directory>
/home/itssahil/PROJECTS/Mol_Feturizer/New_Systems/rnas/2EES

>  <Rbt.Executable>
rbdock ($Id: //depot/dev/client3/rdock/2013.1/src/exe/rbdock.cxx#4 $)

>  <Rbt.Library>
libRbt.so (2013.1, Build901 2013/11/27)

>  <Rbt.Parameter_File>
/export/apps/rDock/src/rDock_2013.1_src/data/scripts/dock_solv.prm

>  <Rbt.Receptor>
prm/blind_docking_20.prm

>  <SCORE>
-16.8209

>  <SCORE.INTER>
-16.8209

>  <SCORE.INTER.CONST>
1

>  <SCORE.INTER.POLAR>
0

>  <SCORE.INTER.ROT>
0

>  <SCORE.INTER.SOLV>
3.86683

>  <SCORE.INTER.VDW>
-16.1029

>  <SCORE.INTER.norm>
-1.68209

>  <SCORE.INTRA>
0

>  <SCORE.INTRA.DIHEDRAL>
0

>  <SCORE.INTRA.DIHEDRAL.0>
0

>  <SCORE.INTRA.POLAR>
0

>  <SCORE.INTRA.POLAR.0>
0

>  <SCORE.INTRA.REPUL>
0

>  <SCORE.INTRA.REPUL.0>
0

>  <SCORE.INTRA.SOLV>
0

>  <SCORE.INTRA.SOLV.lig_0>
-4.28614

>  <SCORE.INTRA.VDW>
0

>  <SCORE.INTRA.VDW.0>
0

>  <SCORE.INTRA.norm>
0

>  <SCORE.RESTR>
0

>  <SCORE.RESTR.CAVITY>
0

>  <SCORE.RESTR.norm>
0

>  <SCORE.SYSTEM>
0

>  <SCORE.SYSTEM.CONST>
0

>  <SCORE.SYSTEM.DIHEDRAL>
0

>  <SCORE.SYSTEM.SOLV>
0

>  <SCORE.SYSTEM.norm>
0

>  <SCORE.heavy>
10

>  <SCORE.norm>
-1.68209

>  <RMSD>
0.860

$$$$
ligand
 OpenBabel11021811423D
libRbt.so/2013.1/901 2013/11/27
 10 11  0  0  0  0  0  0  0  0999 V2000
  -12.1003  -10.2726    8.7578 N   0  0  0  0  0  0  0  0  0  0  0  0
  -12.0203  -11.6004    9.1822 C   0  0  0  0  0  0  0  0  0  0  0  0
  -11.7067  -12.6060    8.3458 N   0  0  0  0  0  0  0  0  0  0  0  0
  -11.4719  -12.1798    7.0416 C   0  0  0  0  0  0  0  0  0  0  0  0
  -11.5350  -10.8825    6.5297 C   0  0  0  0  0  0  0  0  0  0  0  0
  -11.8766   -9.8037    7.4196 C   0  0  0  0  0  0  0  0  0  0  0  0
  -11.9914   -8.6185    7.2204 O   0  0  0  0  0  0  0  0  0  0  0  0
  -11.2121  -10.9199    5.1609 N   0  0  0  0  0  0  0  0  0  0  0  0
  -10.9598  -12.2280    4.8856 C   0  0  0  0  0  0  0  0  0  0  0  0
  -11.1134  -13.0266    6.0275 N   0  0  0  0  0  0  0  0  0  0  0  0
  1  2  1  0  0  0  0
  1  6  1  0  0  0  0
  2  3  2  0  0  0  0
  3  4  1  0  0  0  0
  4  5  2  0  0  0  0
  4 10  1  0  0  0  0
  5  6  1  0  0  0  0
  5  8  1  0  0  0  0
  6  7  2  0  0  0  0
  8  9  1  0  0  0  0
  9 10  2  0  0  0  0
M  END
>  <CHROM.1>
-11.60663208,-11.16518508,7.06299948,2.94101222,1.31275812,-0.54505713

>  <Name>
ligand

>  <RI>
0

>  <Rbt.Current_Directory>
/home/itssahil/PROJECTS/Mol_Feturizer/New_Systems/rnas/2EES

>  <Rbt.Executable>
rbdock ($Id: //depot/dev/client3/rdock/2013.1/src/exe/rbdock.cxx#4 $)

>  <Rbt.Library>
libRbt.so (2013.1, Build901 2013/11/27)

>  <Rbt.Parameter_File>
/export/apps/rDock/src/rDock_2013.1_src/data/scripts/dock_solv.prm

>  <Rbt.Receptor>
prm/blind_docking_20.prm

>  <SCORE>
-16.8359

>  <SCORE.INTER>
-16.8359

>  <SCORE.INTER.CONST>
1

>  <SCORE.INTER.POLAR>
0

>  <SCORE.INTER.ROT>
0

>  <SCORE.INTER.SOLV>
3.89762

>  <SCORE.INTER.VDW>
-16.1232

>  <SCORE.INTER.norm>
-1.68359

>  <SCORE.INTRA>
0

>  <SCORE.INTRA.DIHEDRAL>
0

>  <SCORE.INTRA.DIHEDRAL.0>
0

>  <SCORE.INTRA.POLAR>
0

>  <SCORE.INTRA.POLAR.0>
0

>  <SCORE.INTRA.REPUL>
0

>  <SCORE.INTRA.REPUL.0>
0

>  <SCORE.INTRA.SOLV>
0

>  <SCORE.INTRA.SOLV.lig_0>
-4.28614

>  <SCORE.INTRA.VDW>
0

>  <SCORE.INTRA.VDW.0>
0

>  <SCORE.INTRA.norm>
0

>  <SCORE.RESTR>
0

>  <SCORE.RESTR.CAVITY>
0

>  <SCORE.RESTR.norm>
0

>  <SCORE.SYSTEM>
0

>  <SCORE.SYSTEM.CONST>
0

>  <SCORE.SYSTEM.DIHEDRAL>
0

>  <SCORE.SYSTEM.SOLV>
0

>  <SCORE.SYSTEM.norm>
0

>  <SCORE.heavy>
10

>  <SCORE.norm>
-1.68359

>  <RMSD>
0.863

$$$$
ligand
 OpenBabel11021811423D
libRbt.so/2013.1/901 2013/11/27
 10 11  0  0  0  0  0  0  0  0999 V2000
  -12.1433  -10.2692    8.7557 N   0  0  0  0  0  0  0  0  0  0  0  0
  -12.0393  -11.5962    9.1774 C   0  0  0  0  0  0  0  0  0  0  0  0
  -11.7128  -12.5949    8.3377 N   0  0  0  0  0  0  0  0  0  0  0  0
  -11.4912  -12.1626    7.0332 C   0  0  0  0  0  0  0  0  0  0  0  0
  -11.5781  -10.8656    6.5239 C   0  0  0  0  0  0  0  0  0  0  0  0
  -11.9335   -9.7942    7.4174 C   0  0  0  0  0  0  0  0  0  0  0  0
  -12.0689   -8.6107    7.2209 O   0  0  0  0  0  0  0  0  0  0  0  0
  -11.2610  -10.8953    5.1537 N   0  0  0  0  0  0  0  0  0  0  0  0
  -10.9882  -12.1985    4.8748 C   0  0  0  0  0  0  0  0  0  0  0  0
  -11.1233  -13.0015    6.0160 N   0  0  0  0  0  0  0  0  0  0  0  0
  1  2  1  0  0  0  0
  1  6  1  0  0  0  0
  2  3  2  0  0  0  0
  3  4  1  0  0  0  0
  4  5  2  0  0  0  0
  4 10  1  0  0  0  0
  5  6  1  0  0  0  0
  5  8  1  0  0  0  0
  6  7  2  0  0  0  0
  8  9  1  0  0  0  0
  9 10  2  0  0  0  0
M  END
>  <CHROM.1>
-11.64263253,-11.15041163,7.05709220,3.00482839,1.30755125,-0.60492617

>  <Name>
ligand

>  <RI>
0

>  <Rbt.Current_Directory>
/home/itssahil/PROJECTS/Mol_Feturizer/New_Systems/rnas/2EES

>  <Rbt.Executable>
rbdock ($Id: //depot/dev/client3/rdock/2013.1/src/exe/rbdock.cxx#4 $)

>  <Rbt.Library>
libRbt.so (2013.1, Build901 2013/11/27)

>  <Rbt.Parameter_File>
/export/apps/rDock/src/rDock_2013.1_src/data/scripts/dock_solv.prm

>  <Rbt.Receptor>
prm/blind_docking_20.prm

>  <SCORE>
-16.811

>  <SCORE.INTER>
-16.811

>  <SCORE.INTER.CONST>
1

>  <SCORE.INTER.POLAR>
0

>  <SCORE.INTER.ROT>
0

>  <SCORE.INTER.SOLV>
3.81058

>  <SCORE.INTER.VDW>
-16.0775

>  <SCORE.INTER.norm>
-1.6811

>  <SCORE.INTRA>
0

>  <SCORE.INTRA.DIHEDRAL>
0

>  <SCORE.INTRA.DIHEDRAL.0>
0

>  <SCORE.INTRA.POLAR>
0

>  <SCORE.INTRA.POLAR.0>
0

>  <SCORE.INTRA.REPUL>
0

>  <SCORE.INTRA.REPUL.0>
0

>  <SCORE.INTRA.SOLV>
0

>  <SCORE.INTRA.SOLV.lig_0>
-4.28614

>  <SCORE.INTRA.VDW>
0

>  <SCORE.INTRA.VDW.0>
0

>  <SCORE.INTRA.norm>
0

>  <SCORE.RESTR>
0

>  <SCORE.RESTR.CAVITY>
0

>  <SCORE.RESTR.norm>
0

>  <SCORE.SYSTEM>
0

>  <SCORE.SYSTEM.CONST>
0

>  <SCORE.SYSTEM.DIHEDRAL>
0

>  <SCORE.SYSTEM.SOLV>
0

>  <SCORE.SYSTEM.norm>
0

>  <SCORE.heavy>
10

>  <SCORE.norm>
-1.6811

>  <RMSD>
0.864

$$$$
ligand
 OpenBabel11021811423D
libRbt.so/2013.1/901 2013/11/27
 10 11  0  0  0  0  0  0  0  0999 V2000
  -12.1380  -10.2900    8.7475 N   0  0  0  0  0  0  0  0  0  0  0  0
  -12.0655  -11.6233    9.1559 C   0  0  0  0  0  0  0  0  0  0  0  0
  -11.7431  -12.6186    8.3106 N   0  0  0  0  0  0  0  0  0  0  0  0
  -11.4913  -12.1762    7.0150 C   0  0  0  0  0  0  0  0  0  0  0  0
  -11.5458  -10.8723    6.5190 C   0  0  0  0  0  0  0  0  0  0  0  0
  -11.8967   -9.8044    7.4184 C   0  0  0  0  0  0  0  0  0  0  0  0
  -12.0071   -8.6165    7.2329 O   0  0  0  0  0  0  0  0  0  0  0  0
  -11.2059  -10.8928    5.1540 N   0  0  0  0  0  0  0  0  0  0  0  0
  -10.9522  -12.1977    4.8651 C   0  0  0  0  0  0  0  0  0  0  0  0
  -11.1215  -13.0105    5.9947 N   0  0  0  0  0  0  0  0  0  0  0  0
  1  2  1  0  0  0  0
  1  6  1  0  0  0  0
  2  3  2  0  0  0  0
  3  4  1  0  0  0  0
  4  5  2  0  0  0  0
  4 10  1  0  0  0  0
  5  6  1  0  0  0  0
  5  8  1  0  0  0  0
  6  7  2  0  0  0  0
  8  9  1  0  0  0  0
  9 10  2  0  0  0  0
M  END
>  <CHROM.1>
-11.62459429,-11.16167994,7.04772392,2.91116340,1.30278414,-0.50341241

>  <Name>
ligand

>  <RI>
0

>  <Rbt.Current_Directory>
/home/itssahil/PROJECTS/Mol_Feturizer/New_Systems/rnas/2EES

>  <Rbt.Executable>
rbdock ($Id: //depot/dev/client3/rdock/2013.1/src/exe/rbdock.cxx#4 $)

>  <Rbt.Library>
libRbt.so (2013.1, Build901 2013/11/27)

>  <Rbt.Parameter_File>
/export/apps/rDock/src/rDock_2013.1_src/data/scripts/dock_solv.prm

>  <Rbt.Receptor>
prm/blind_docking_20.prm

>  <SCORE>
-16.8429

>  <SCORE.INTER>
-16.8429

>  <SCORE.INTER.CONST>
1

>  <SCORE.INTER.POLAR>
0

>  <SCORE.INTER.ROT>
0

>  <SCORE.INTER.SOLV>
3.86471

>  <SCORE.INTER.VDW>
-16.1169

>  <SCORE.INTER.norm>
-1.68429

>  <SCORE.INTRA>
0

>  <SCORE.INTRA.DIHEDRAL>
0

>  <SCORE.INTRA.DIHEDRAL.0>
0

>  <SCORE.INTRA.POLAR>
0

>  <SCORE.INTRA.POLAR.0>
0

>  <SCORE.INTRA.REPUL>
0

>  <SCORE.INTRA.REPUL.0>
0

>  <SCORE.INTRA.SOLV>
0

>  <SCORE.INTRA.SOLV.lig_0>
-4.28614

>  <SCORE.INTRA.VDW>
0

>  <SCORE.INTRA.VDW.0>
0

>  <SCORE.INTRA.norm>
0

>  <SCORE.RESTR>
0

>  <SCORE.RESTR.CAVITY>
0

>  <SCORE.RESTR.norm>
0

>  <SCORE.SYSTEM>
0

>  <SCORE.SYSTEM.CONST>
0

>  <SCORE.SYSTEM.DIHEDRAL>
0

>  <SCORE.SYSTEM.SOLV>
0

>  <SCORE.SYSTEM.norm>
0

>  <SCORE.heavy>
10

>  <SCORE.norm>
-1.68429

>  <RMSD>
0.864

$$$$
ligand
 OpenBabel11021811423D
libRbt.so/2013.1/901 2013/11/27
 10 11  0  0  0  0  0  0  0  0999 V2000
  -12.1436  -10.2922    8.7378 N   0  0  0  0  0  0  0  0  0  0  0  0
  -12.0548  -11.6230    9.1509 C   0  0  0  0  0  0  0  0  0  0  0  0
  -11.7243  -12.6178    8.3083 N   0  0  0  0  0  0  0  0  0  0  0  0
  -11.4820  -12.1776    7.0101 C   0  0  0  0  0  0  0  0  0  0  0  0
  -11.5528  -10.8763    6.5094 C   0  0  0  0  0  0  0  0  0  0  0  0
  -11.9125   -9.8090    7.4060 C   0  0  0  0  0  0  0  0  0  0  0  0
  -12.0368   -8.6231    7.2164 O   0  0  0  0  0  0  0  0  0  0  0  0
  -11.2175  -10.8983    5.1433 N   0  0  0  0  0  0  0  0  0  0  0  0
  -10.9504  -12.2014    4.8584 C   0  0  0  0  0  0  0  0  0  0  0  0
  -11.1066  -13.0117    5.9917 N   0  0  0  0  0  0  0  0  0  0  0  0
  1  2  1  0  0  0  0
  1  6  1  0  0  0  0
  2  3  2  0  0  0  0
  3  4  1  0  0  0  0
  4  5  2  0  0  0  0
  4 10  1  0  0  0  0
  5  6  1  0  0  0  0
  5  8  1  0  0  0  0
  6  7  2  0  0  0  0
  8  9  1  0  0  0  0
  9 10  2  0  0  0  0
M  END
>  <CHROM.1>
-11.62652510,-11.16456100,7.03948078,2.95415903,1.30025069,-0.54866853

>  <Name>
ligand

>  <RI>
0

>  <Rbt.Current_Directory>
/home/itssahil/PROJECTS/Mol_Feturizer/New_Systems/rnas/2EES

>  <Rbt.Executable>
rbdock ($Id: //depot/dev/client3/rdock/2013.1/src/exe/rbdock.cxx#4 $)

>  <Rbt.Library>
libRbt.so (2013.1, Build901 2013/11/27)

>  <Rbt.Parameter_File>
/export/apps/rDock/src/rDock_2013.1_src/data/scripts/dock_solv.prm

>  <Rbt.Receptor>
prm/blind_docking_20.prm

>  <SCORE>
-16.8654

>  <SCORE.INTER>
-16.8654

>  <SCORE.INTER.CONST>
1

>  <SCORE.INTER.POLAR>
0

>  <SCORE.INTER.ROT>
0

>  <SCORE.INTER.SOLV>
3.82272

>  <SCORE.INTER.VDW>
-16.1178

>  <SCORE.INTER.norm>
-1.68654

>  <SCORE.INTRA>
0

>  <SCORE.INTRA.DIHEDRAL>
0

>  <SCORE.INTRA.DIHEDRAL.0>
0

>  <SCORE.INTRA.POLAR>
0

>  <SCORE.INTRA.POLAR.0>
0

>  <SCORE.INTRA.REPUL>
0

>  <SCORE.INTRA.REPUL.0>
0

>  <SCORE.INTRA.SOLV>
0

>  <SCORE.INTRA.SOLV.lig_0>
-4.28614

>  <SCORE.INTRA.VDW>
0

>  <SCORE.INTRA.VDW.0>
0

>  <SCORE.INTRA.norm>
0

>  <SCORE.RESTR>
0

>  <SCORE.RESTR.CAVITY>
0

>  <SCORE.RESTR.norm>
0

>  <SCORE.SYSTEM>
0

>  <SCORE.SYSTEM.CONST>
0

>  <SCORE.SYSTEM.DIHEDRAL>
0

>  <SCORE.SYSTEM.SOLV>
0

>  <SCORE.SYSTEM.norm>
0

>  <SCORE.heavy>
10

>  <SCORE.norm>
-1.68654

>  <RMSD>
0.865

$$$$
ligand
 OpenBabel11021811423D
libRbt.so/2013.1/901 2013/11/27
 10 11  0  0  0  0  0  0  0  0999 V2000
  -12.1150  -10.2937    8.7437 N   0  0  0  0  0  0  0  0  0  0  0  0
  -12.0336  -11.6271    9.1499 C   0  0  0  0  0  0  0  0  0  0  0  0
  -11.7120  -12.6199    8.3014 N   0  0  0  0  0  0  0  0  0  0  0  0
  -11.4708  -12.1747    7.0047 C   0  0  0  0  0  0  0  0  0  0  0  0
  -11.5347  -10.8705    6.5106 C   0  0  0  0  0  0  0  0  0  0  0  0
  -11.8847   -9.8054    7.4136 C   0  0  0  0  0  0  0  0  0  0  0  0
  -12.0019   -8.6178    7.2303 O   0  0  0  0  0  0  0  0  0  0  0  0
  -11.2035  -10.8878    5.1435 N   0  0  0  0  0  0  0  0  0  0  0  0
  -10.9457  -12.1912    4.8513 C   0  0  0  0  0  0  0  0  0  0  0  0
  -11.1037  -13.0061    5.9810 N   0  0  0  0  0  0  0  0  0  0  0  0
  1  2  1  0  0  0  0
  1  6  1  0  0  0  0
  2  3  2  0  0  0  0
  3  4  1  0  0  0  0
  4  5  2  0  0  0  0
  4 10  1  0  0  0  0
  5  6  1  0  0  0  0
  5  8  1  0  0  0  0
  6  7  2  0  0  0  0
  8  9  1  0  0  0  0
  9 10  2  0  0  0  0
M  END
>  <CHROM.1>
-11.60862991,-11.16092703,7.03952941,2.93902027,1.30612524,-0.52908708

>  <Name>
ligand

>  <RI>
0

>  <Rbt.Current_Directory>
/home/itssahil/PROJECTS/Mol_Feturizer/New_Systems/rnas/2EES

>  <Rbt.Executable>
rbdock ($Id: //depot/dev/client3/rdock/2013.1/src/exe/rbdock.cxx#4 $)

>  <Rbt.Library>
libRbt.so (2013.1, Build901 2013/11/27)

>  <Rbt.Parameter_File>
/export/apps/rDock/src/rDock_2013.1_src/data/scripts/dock_solv.prm

>  <Rbt.Receptor>
prm/blind_docking_20.prm

>  <SCORE>
-16.8453

>  <SCORE.INTER>
-16.8453

>  <SCORE.INTER.CONST>
1

>  <SCORE.INTER.POLAR>
0

>  <SCORE.INTER.ROT>
0

>  <SCORE.INTER.SOLV>
3.87793

>  <SCORE.INTER.VDW>
-16.1228

>  <SCORE.INTER.norm>
-1.68453

>  <SCORE.INTRA>
0

>  <SCORE.INTRA.DIHEDRAL>
0

>  <SCORE.INTRA.DIHEDRAL.0>
0

>  <SCORE.INTRA.POLAR>
0

>  <SCORE.INTRA.POLAR.0>
0

>  <SCORE.INTRA.REPUL>
0

>  <SCORE.INTRA.REPUL.0>
0

>  <SCORE.INTRA.SOLV>
0

>  <SCORE.INTRA.SOLV.lig_0>
-4.28614

>  <SCORE.INTRA.VDW>
0

>  <SCORE.INTRA.VDW.0>
0

>  <SCORE.INTRA.norm>
0

>  <SCORE.RESTR>
0

>  <SCORE.RESTR.CAVITY>
0

>  <SCORE.RESTR.norm>
0

>  <SCORE.SYSTEM>
0

>  <SCORE.SYSTEM.CONST>
0

>  <SCORE.SYSTEM.DIHEDRAL>
0

>  <SCORE.SYSTEM.SOLV>
0

>  <SCORE.SYSTEM.norm>
0

>  <SCORE.heavy>
10

>  <SCORE.norm>
-1.68453

>  <RMSD>
0.866

$$$$
ligand
 OpenBabel11021811423D
libRbt.so/2013.1/901 2013/11/27
 10 11  0  0  0  0  0  0  0  0999 V2000
  -12.1077  -10.2938    8.7486 N   0  0  0  0  0  0  0  0  0  0  0  0
  -12.0266  -11.6279    9.1526 C   0  0  0  0  0  0  0  0  0  0  0  0
  -11.7087  -12.6197    8.3015 N   0  0  0  0  0  0  0  0  0  0  0  0
  -11.4708  -12.1728    7.0048 C   0  0  0  0  0  0  0  0  0  0  0  0
  -11.5346  -10.8678    6.5130 C   0  0  0  0  0  0  0  0  0  0  0  0
  -11.8807   -9.8036    7.4186 C   0  0  0  0  0  0  0  0  0  0  0  0
  -11.9970   -8.6156    7.2375 O   0  0  0  0  0  0  0  0  0  0  0  0
  -11.2075  -10.8834    5.1448 N   0  0  0  0  0  0  0  0  0  0  0  0
  -10.9520  -12.1866    4.8499 C   0  0  0  0  0  0  0  0  0  0  0  0
  -11.1077  -13.0031    5.9788 N   0  0  0  0  0  0  0  0  0  0  0  0
  1  2  1  0  0  0  0
  1  6  1  0  0  0  0
  2  3  2  0  0  0  0
  3  4  1  0  0  0  0
  4  5  2  0  0  0  0
  4 10  1  0  0  0  0
  5  6  1  0  0  0  0
  5  8  1  0  0  0  0
  6  7  2  0  0  0  0
  8  9  1  0  0  0  0
  9 10  2  0  0  0  0
M  END
>  <CHROM.1>
-11.60732500,-11.15892457,7.04164909,2.94068873,1.30926098,-0.52914841

>  <Name>
ligand

>  <RI>
0

>  <Rbt.Current_Directory>
/home/itssahil/PROJECTS/Mol_Feturizer/New_Systems/rnas/2EES

>  <Rbt.Executable>
rbdock ($Id: //depot/dev/client3/rdock/2013.1/src/exe/rbdock.cxx#4 $)

>  <Rbt.Library>
libRbt.so (2013.1, Build901 2013/11/27)

>  <Rbt.Parameter_File>
/export/apps/rDock/src/rDock_2013.1_src/data/scripts/dock_solv.prm

>  <Rbt.Receptor>
prm/blind_docking_20.prm

>  <SCORE>
-16.8454

>  <SCORE.INTER>
-16.8454

>  <SCORE.INTER.CONST>
1

>  <SCORE.INTER.POLAR>
0

>  <SCORE.INTER.ROT>
0

>  <SCORE.INTER.SOLV>
3.89121

>  <SCORE.INTER.VDW>
-16.1273

>  <SCORE.INTER.norm>
-1.68454

>  <SCORE.INTRA>
0

>  <SCORE.INTRA.DIHEDRAL>
0

>  <SCORE.INTRA.DIHEDRAL.0>
0

>  <SCORE.INTRA.POLAR>
0

>  <SCORE.INTRA.POLAR.0>
0

>  <SCORE.INTRA.REPUL>
0

>  <SCORE.INTRA.REPUL.0>
0

>  <SCORE.INTRA.SOLV>
0

>  <SCORE.INTRA.SOLV.lig_0>
-4.28614

>  <SCORE.INTRA.VDW>
0

>  <SCORE.INTRA.VDW.0>
0

>  <SCORE.INTRA.norm>
0

>  <SCORE.RESTR>
0

>  <SCORE.RESTR.CAVITY>
0

>  <SCORE.RESTR.norm>
0

>  <SCORE.SYSTEM>
0

>  <SCORE.SYSTEM.CONST>
0

>  <SCORE.SYSTEM.DIHEDRAL>
0

>  <SCORE.SYSTEM.SOLV>
0

>  <SCORE.SYSTEM.norm>
0

>  <SCORE.heavy>
10

>  <SCORE.norm>
-1.68454

>  <RMSD>
0.866

$$$$
ligand
 OpenBabel11021811423D
libRbt.so/2013.1/901 2013/11/27
 10 11  0  0  0  0  0  0  0  0999 V2000
  -12.1076  -10.2912    8.7456 N   0  0  0  0  0  0  0  0  0  0  0  0
  -12.0377  -11.6249    9.1529 C   0  0  0  0  0  0  0  0  0  0  0  0
  -11.7234  -12.6209    8.3053 N   0  0  0  0  0  0  0  0  0  0  0  0
  -11.4770  -12.1787    7.0086 C   0  0  0  0  0  0  0  0  0  0  0  0
  -11.5295  -10.8744    6.5136 C   0  0  0  0  0  0  0  0  0  0  0  0
  -11.8717   -9.8057    7.4154 C   0  0  0  0  0  0  0  0  0  0  0  0
  -11.9788   -8.6173    7.2311 O   0  0  0  0  0  0  0  0  0  0  0  0
  -11.1970  -10.8954    5.1468 N   0  0  0  0  0  0  0  0  0  0  0  0
  -10.9496  -12.2011    4.8559 C   0  0  0  0  0  0  0  0  0  0  0  0
  -11.1157  -13.0139    5.9860 N   0  0  0  0  0  0  0  0  0  0  0  0
  1  2  1  0  0  0  0
  1  6  1  0  0  0  0
  2  3  2  0  0  0  0
  3  4  1  0  0  0  0
  4  5  2  0  0  0  0
  4 10  1  0  0  0  0
  5  6  1  0  0  0  0
  5  8  1  0  0  0  0
  6  7  2  0  0  0  0
  8  9  1  0  0  0  0
  9 10  2  0  0  0  0
M  END
>  <CHROM.1>
-11.60647345,-11.16376087,7.04259591,2.90904956,1.30922498,-0.50086349

>  <Name>
ligand

>  <RI>
0

>  <Rbt.Current_Directory>
/home/itssahil/PROJECTS/Mol_Feturizer/New_Systems/rnas/2EES

>  <Rbt.Executable>
rbdock ($Id: //depot/dev/client3/rdock/2013.1/src/exe/rbdock.cxx#4 $)

>  <Rbt.Library>
libRbt.so (2013.1, Build901 2013/11/27)

>  <Rbt.Parameter_File>
/export/apps/rDock/src/rDock_2013.1_src/data/scripts/dock_solv.prm

>  <Rbt.Receptor>
prm/blind_docking_20.prm

>  <SCORE>
-16.8746

>  <SCORE.INTER>
-16.8746

>  <SCORE.INTER.CONST>
1

>  <SCORE.INTER.POLAR>
0

>  <SCORE.INTER.ROT>
0

>  <SCORE.INTER.SOLV>
3.90762

>  <SCORE.INTER.VDW>
-16.1522

>  <SCORE.INTER.norm>
-1.68746

>  <SCORE.INTRA>
0

>  <SCORE.INTRA.DIHEDRAL>
0

>  <SCORE.INTRA.DIHEDRAL.0>
0

>  <SCORE.INTRA.POLAR>
0

>  <SCORE.INTRA.POLAR.0>
0

>  <SCORE.INTRA.REPUL>
0

>  <SCORE.INTRA.REPUL.0>
0

>  <SCORE.INTRA.SOLV>
0

>  <SCORE.INTRA.SOLV.lig_0>
-4.28614

>  <SCORE.INTRA.VDW>
0

>  <SCORE.INTRA.VDW.0>
0

>  <SCORE.INTRA.norm>
0

>  <SCORE.RESTR>
0

>  <SCORE.RESTR.CAVITY>
0

>  <SCORE.RESTR.norm>
0

>  <SCORE.SYSTEM>
0

>  <SCORE.SYSTEM.CONST>
0

>  <SCORE.SYSTEM.DIHEDRAL>
0

>  <SCORE.SYSTEM.SOLV>
0

>  <SCORE.SYSTEM.norm>
0

>  <SCORE.heavy>
10

>  <SCORE.norm>
-1.68746

>  <RMSD>
0.868

$$$$
ligand
 OpenBabel11021811423D
libRbt.so/2013.1/901 2013/11/27
 10 11  0  0  0  0  0  0  0  0999 V2000
  -12.1160  -10.2903    8.7444 N   0  0  0  0  0  0  0  0  0  0  0  0
  -12.0488  -11.6238    9.1527 C   0  0  0  0  0  0  0  0  0  0  0  0
  -11.7325  -12.6206    8.3069 N   0  0  0  0  0  0  0  0  0  0  0  0
  -11.4811  -12.1794    7.0107 C   0  0  0  0  0  0  0  0  0  0  0  0
  -11.5306  -10.8753    6.5148 C   0  0  0  0  0  0  0  0  0  0  0  0
  -11.8750   -9.8058    7.4148 C   0  0  0  0  0  0  0  0  0  0  0  0
  -11.9803   -8.6174    7.2294 O   0  0  0  0  0  0  0  0  0  0  0  0
  -11.1932  -10.8975    5.1492 N   0  0  0  0  0  0  0  0  0  0  0  0
  -10.9461  -12.2035    4.8599 C   0  0  0  0  0  0  0  0  0  0  0  0
  -11.1169  -13.0155    5.9899 N   0  0  0  0  0  0  0  0  0  0  0  0
  1  2  1  0  0  0  0
  1  6  1  0  0  0  0
  2  3  2  0  0  0  0
  3  4  1  0  0  0  0
  4  5  2  0  0  0  0
  4 10  1  0  0  0  0
  5  6  1  0  0  0  0
  5  8  1  0  0  0  0
  6  7  2  0  0  0  0
  8  9  1  0  0  0  0
  9 10  2  0  0  0  0
M  END
>  <CHROM.1>
-11.60969112,-11.16432874,7.04368781,2.89932931,1.30656287,-0.49205553

>  <Name>
ligand

>  <RI>
0

>  <Rbt.Current_Directory>
/home/itssahil/PROJECTS/Mol_Feturizer/New_Systems/rnas/2EES

>  <Rbt.Executable>
rbdock ($Id: //depot/dev/client3/rdock/2013.1/src/exe/rbdock.cxx#4 $)

>  <Rbt.Library>
libRbt.so (2013.1, Build901 2013/11/27)

>  <Rbt.Parameter_File>
/export/apps/rDock/src/rDock_2013.1_src/data/scripts/dock_solv.prm

>  <Rbt.Receptor>
prm/blind_docking_20.prm

>  <SCORE>
-16.873

>  <SCORE.INTER>
-16.873

>  <SCORE.INTER.CONST>
1

>  <SCORE.INTER.POLAR>
0

>  <SCORE.INTER.ROT>
0

>  <SCORE.INTER.SOLV>
3.90061

>  <SCORE.INTER.VDW>
-16.1488

>  <SCORE.INTER.norm>
-1.6873

>  <SCORE.INTRA>
0

>  <SCORE.INTRA.DIHEDRAL>
0

>  <SCORE.INTRA.DIHEDRAL.0>
0

>  <SCORE.INTRA.POLAR>
0

>  <SCORE.INTRA.POLAR.0>
0

>  <SCORE.INTRA.REPUL>
0

>  <SCORE.INTRA.REPUL.0>
0

>  <SCORE.INTRA.SOLV>
0

>  <SCORE.INTRA.SOLV.lig_0>
-4.28614

>  <SCORE.INTRA.VDW>
0

>  <SCORE.INTRA.VDW.0>
0

>  <SCORE.INTRA.norm>
0

>  <SCORE.RESTR>
0

>  <SCORE.RESTR.CAVITY>
0

>  <SCORE.RESTR.norm>
0

>  <SCORE.SYSTEM>
0

>  <SCORE.SYSTEM.CONST>
0

>  <SCORE.SYSTEM.DIHEDRAL>
0

>  <SCORE.SYSTEM.SOLV>
0

>  <SCORE.SYSTEM.norm>
0

>  <SCORE.heavy>
10

>  <SCORE.norm>
-1.6873

>  <RMSD>
0.868

$$$$
ligand
 OpenBabel11021811423D
libRbt.so/2013.1/901 2013/11/27
 10 11  0  0  0  0  0  0  0  0999 V2000
  -12.1000  -10.2899    8.7476 N   0  0  0  0  0  0  0  0  0  0  0  0
  -12.0279  -11.6239    9.1536 C   0  0  0  0  0  0  0  0  0  0  0  0
  -11.7153  -12.6190    8.3045 N   0  0  0  0  0  0  0  0  0  0  0  0
  -11.4730  -12.1756    7.0074 C   0  0  0  0  0  0  0  0  0  0  0  0
  -11.5278  -10.8709    6.5135 C   0  0  0  0  0  0  0  0  0  0  0  0
  -11.8683   -9.8032    7.4172 C   0  0  0  0  0  0  0  0  0  0  0  0
  -11.9768   -8.6148    7.2341 O   0  0  0  0  0  0  0  0  0  0  0  0
  -11.1992  -10.8907    5.1458 N   0  0  0  0  0  0  0  0  0  0  0  0
  -10.9516  -12.1959    4.8531 C   0  0  0  0  0  0  0  0  0  0  0  0
  -11.1139  -13.0097    5.9831 N   0  0  0  0  0  0  0  0  0  0  0  0
  1  2  1  0  0  0  0
  1  6  1  0  0  0  0
  2  3  2  0  0  0  0
  3  4  1  0  0  0  0
  4  5  2  0  0  0  0
  4 10  1  0  0  0  0
  5  6  1  0  0  0  0
  5  8  1  0  0  0  0
  6  7  2  0  0  0  0
  8  9  1  0  0  0  0
  9 10  2  0  0  0  0
M  END
>  <CHROM.1>
-11.60306090,-11.16080813,7.04253540,2.91689943,1.31136108,-0.50766013

>  <Name>
ligand

>  <RI>
0

>  <Rbt.Current_Directory>
/home/itssahil/PROJECTS/Mol_Feturizer/New_Systems/rnas/2EES

>  <Rbt.Executable>
rbdock ($Id: //depot/dev/client3/rdock/2013.1/src/exe/rbdock.cxx#4 $)

>  <Rbt.Library>
libRbt.so (2013.1, Build901 2013/11/27)

>  <Rbt.Parameter_File>
/export/apps/rDock/src/rDock_2013.1_src/data/scripts/dock_solv.prm

>  <Rbt.Receptor>
prm/blind_docking_20.prm

>  <SCORE>
-16.8717

>  <SCORE.INTER>
-16.8717

>  <SCORE.INTER.CONST>
1

>  <SCORE.INTER.POLAR>
0

>  <SCORE.INTER.ROT>
0

>  <SCORE.INTER.SOLV>
3.91648

>  <SCORE.INTER.VDW>
-16.1533

>  <SCORE.INTER.norm>
-1.68717

>  <SCORE.INTRA>
0

>  <SCORE.INTRA.DIHEDRAL>
0

>  <SCORE.INTRA.DIHEDRAL.0>
0

>  <SCORE.INTRA.POLAR>
0

>  <SCORE.INTRA.POLAR.0>
0

>  <SCORE.INTRA.REPUL>
0

>  <SCORE.INTRA.REPUL.0>
0

>  <SCORE.INTRA.SOLV>
0

>  <SCORE.INTRA.SOLV.lig_0>
-4.28614

>  <SCORE.INTRA.VDW>
0

>  <SCORE.INTRA.VDW.0>
0

>  <SCORE.INTRA.norm>
0

>  <SCORE.RESTR>
0

>  <SCORE.RESTR.CAVITY>
0

>  <SCORE.RESTR.norm>
0

>  <SCORE.SYSTEM>
0

>  <SCORE.SYSTEM.CONST>
0

>  <SCORE.SYSTEM.DIHEDRAL>
0

>  <SCORE.SYSTEM.SOLV>
0

>  <SCORE.SYSTEM.norm>
0

>  <SCORE.heavy>
10

>  <SCORE.norm>
-1.68717

>  <RMSD>
0.869

$$$$
ligand
 OpenBabel11021811423D
libRbt.so/2013.1/901 2013/11/27
 10 11  0  0  0  0  0  0  0  0999 V2000
  -12.1138  -10.2475    8.7683 N   0  0  0  0  0  0  0  0  0  0  0  0
  -12.0378  -11.5756    9.1926 C   0  0  0  0  0  0  0  0  0  0  0  0
  -11.7150  -12.5804    8.3587 N   0  0  0  0  0  0  0  0  0  0  0  0
  -11.4668  -12.1531    7.0573 C   0  0  0  0  0  0  0  0  0  0  0  0
  -11.5249  -10.8554    6.5458 C   0  0  0  0  0  0  0  0  0  0  0  0
  -11.8762   -9.7775    7.4329 C   0  0  0  0  0  0  0  0  0  0  0  0
  -11.9894   -8.5921    7.2334 O   0  0  0  0  0  0  0  0  0  0  0  0
  -11.1877  -10.8917    5.1805 N   0  0  0  0  0  0  0  0  0  0  0  0
  -10.9319  -12.1995    4.9068 C   0  0  0  0  0  0  0  0  0  0  0  0
  -11.0973  -12.9990    6.0465 N   0  0  0  0  0  0  0  0  0  0  0  0
  1  2  1  0  0  0  0
  1  6  1  0  0  0  0
  2  3  2  0  0  0  0
  3  4  1  0  0  0  0
  4  5  2  0  0  0  0
  4 10  1  0  0  0  0
  5  6  1  0  0  0  0
  5  8  1  0  0  0  0
  6  7  2  0  0  0  0
  8  9  1  0  0  0  0
  9 10  2  0  0  0  0
M  END
>  <CHROM.1>
-11.60204020,-11.13858651,7.07812070,2.92160110,1.30353460,-0.52554534

>  <Name>
ligand

>  <RI>
0

>  <Rbt.Current_Directory>
/home/itssahil/PROJECTS/Mol_Feturizer/New_Systems/rnas/2EES

>  <Rbt.Executable>
rbdock ($Id: //depot/dev/client3/rdock/2013.1/src/exe/rbdock.cxx#4 $)

>  <Rbt.Library>
libRbt.so (2013.1, Build901 2013/11/27)

>  <Rbt.Parameter_File>
/export/apps/rDock/src/rDock_2013.1_src/data/scripts/dock_solv.prm

>  <Rbt.Receptor>
prm/blind_docking_20.prm

>  <SCORE>
-16.8354

>  <SCORE.INTER>
-16.8354

>  <SCORE.INTER.CONST>
1

>  <SCORE.INTER.POLAR>
0

>  <SCORE.INTER.ROT>
0

>  <SCORE.INTER.SOLV>
3.90417

>  <SCORE.INTER.VDW>
-16.125

>  <SCORE.INTER.norm>
-1.68354

>  <SCORE.INTRA>
0

>  <SCORE.INTRA.DIHEDRAL>
0

>  <SCORE.INTRA.DIHEDRAL.0>
0

>  <SCORE.INTRA.POLAR>
0

>  <SCORE.INTRA.POLAR.0>
0

>  <SCORE.INTRA.REPUL>
0

>  <SCORE.INTRA.REPUL.0>
0

>  <SCORE.INTRA.SOLV>
0

>  <SCORE.INTRA.SOLV.lig_0>
-4.28614

>  <SCORE.INTRA.VDW>
0

>  <SCORE.INTRA.VDW.0>
0

>  <SCORE.INTRA.norm>
0

>  <SCORE.RESTR>
0

>  <SCORE.RESTR.CAVITY>
0

>  <SCORE.RESTR.norm>
0

>  <SCORE.SYSTEM>
0

>  <SCORE.SYSTEM.CONST>
0

>  <SCORE.SYSTEM.DIHEDRAL>
0

>  <SCORE.SYSTEM.SOLV>
0

>  <SCORE.SYSTEM.norm>
0

>  <SCORE.heavy>
10

>  <SCORE.norm>
-1.68354

>  <RMSD>
0.869

$$$$
ligand
 OpenBabel11021811423D
libRbt.so/2013.1/901 2013/11/27
 10 11  0  0  0  0  0  0  0  0999 V2000
  -12.1258  -10.2868    8.7392 N   0  0  0  0  0  0  0  0  0  0  0  0
  -12.0575  -11.6203    9.1476 C   0  0  0  0  0  0  0  0  0  0  0  0
  -11.7351  -12.6162    8.3030 N   0  0  0  0  0  0  0  0  0  0  0  0
  -11.4788  -12.1742    7.0081 C   0  0  0  0  0  0  0  0  0  0  0  0
  -11.5289  -10.8701    6.5122 C   0  0  0  0  0  0  0  0  0  0  0  0
  -11.8798   -9.8015    7.4108 C   0  0  0  0  0  0  0  0  0  0  0  0
  -11.9869   -8.6134    7.2252 O   0  0  0  0  0  0  0  0  0  0  0  0
  -11.1853  -10.8913    5.1482 N   0  0  0  0  0  0  0  0  0  0  0  0
  -10.9339  -12.1967    4.8598 C   0  0  0  0  0  0  0  0  0  0  0  0
  -11.1081  -13.0093    5.9888 N   0  0  0  0  0  0  0  0  0  0  0  0
  1  2  1  0  0  0  0
  1  6  1  0  0  0  0
  2  3  2  0  0  0  0
  3  4  1  0  0  0  0
  4  5  2  0  0  0  0
  4 10  1  0  0  0  0
  5  6  1  0  0  0  0
  5  8  1  0  0  0  0
  6  7  2  0  0  0  0
  8  9  1  0  0  0  0
  9 10  2  0  0  0  0
M  END
>  <CHROM.1>
-11.60978671,-11.15942157,7.04069090,2.89860406,1.30150281,-0.49117528

>  <Name>
ligand

>  <RI>
0

>  <Rbt.Current_Directory>
/home/itssahil/PROJECTS/Mol_Feturizer/New_Systems/rnas/2EES

>  <Rbt.Executable>
rbdock ($Id: //depot/dev/client3/rdock/2013.1/src/exe/rbdock.cxx#4 $)

>  <Rbt.Library>
libRbt.so (2013.1, Build901 2013/11/27)

>  <Rbt.Parameter_File>
/export/apps/rDock/src/rDock_2013.1_src/data/scripts/dock_solv.prm

>  <Rbt.Receptor>
prm/blind_docking_20.prm

>  <SCORE>
-16.8607

>  <SCORE.INTER>
-16.8607

>  <SCORE.INTER.CONST>
1

>  <SCORE.INTER.POLAR>
0

>  <SCORE.INTER.ROT>
0

>  <SCORE.INTER.SOLV>
3.88809

>  <SCORE.INTER.VDW>
-16.1365

>  <SCORE.INTER.norm>
-1.68607

>  <SCORE.INTRA>
0

>  <SCORE.INTRA.DIHEDRAL>
0

>  <SCORE.INTRA.DIHEDRAL.0>
0

>  <SCORE.INTRA.POLAR>
0

>  <SCORE.INTRA.POLAR.0>
0

>  <SCORE.INTRA.REPUL>
0

>  <SCORE.INTRA.REPUL.0>
0

>  <SCORE.INTRA.SOLV>
0

>  <SCORE.INTRA.SOLV.lig_0>
-4.28614

>  <SCORE.INTRA.VDW>
0

>  <SCORE.INTRA.VDW.0>
0

>  <SCORE.INTRA.norm>
0

>  <SCORE.RESTR>
0

>  <SCORE.RESTR.CAVITY>
0

>  <SCORE.RESTR.norm>
0

>  <SCORE.SYSTEM>
0

>  <SCORE.SYSTEM.CONST>
0

>  <SCORE.SYSTEM.DIHEDRAL>
0

>  <SCORE.SYSTEM.SOLV>
0

>  <SCORE.SYSTEM.norm>
0

>  <SCORE.heavy>
10

>  <SCORE.norm>
-1.68607

>  <RMSD>
0.871

$$$$
ligand
 OpenBabel11021811423D
libRbt.so/2013.1/901 2013/11/27
 10 11  0  0  0  0  0  0  0  0999 V2000
  -12.1171  -10.2723    8.7529 N   0  0  0  0  0  0  0  0  0  0  0  0
  -12.0531  -11.6047    9.1655 C   0  0  0  0  0  0  0  0  0  0  0  0
  -11.7389  -12.6050    8.3230 N   0  0  0  0  0  0  0  0  0  0  0  0
  -11.4863  -12.1685    7.0255 C   0  0  0  0  0  0  0  0  0  0  0  0
  -11.5326  -10.8659    6.5254 C   0  0  0  0  0  0  0  0  0  0  0  0
  -11.8747   -9.7927    7.4218 C   0  0  0  0  0  0  0  0  0  0  0  0
  -11.9772   -8.6047    7.2327 O   0  0  0  0  0  0  0  0  0  0  0  0
  -11.1950  -10.8932    5.1599 N   0  0  0  0  0  0  0  0  0  0  0  0
  -10.9508  -12.2008    4.8749 C   0  0  0  0  0  0  0  0  0  0  0  0
  -11.1239  -13.0087    6.0074 N   0  0  0  0  0  0  0  0  0  0  0  0
  1  2  1  0  0  0  0
  1  6  1  0  0  0  0
  2  3  2  0  0  0  0
  3  4  1  0  0  0  0
  4  5  2  0  0  0  0
  4 10  1  0  0  0  0
  5  6  1  0  0  0  0
  5  8  1  0  0  0  0
  6  7  2  0  0  0  0
  8  9  1  0  0  0  0
  9 10  2  0  0  0  0
M  END
>  <CHROM.1>
-11.61251434,-11.15302839,7.05516769,2.89104087,1.30746907,-0.48725387

>  <Name>
ligand

>  <RI>
0

>  <Rbt.Current_Directory>
/home/itssahil/PROJECTS/Mol_Feturizer/New_Systems/rnas/2EES

>  <Rbt.Executable>
rbdock ($Id: //depot/dev/client3/rdock/2013.1/src/exe/rbdock.cxx#4 $)

>  <Rbt.Library>
libRbt.so (2013.1, Build901 2013/11/27)

>  <Rbt.Parameter_File>
/export/apps/rDock/src/rDock_2013.1_src/data/scripts/dock_solv.prm

>  <Rbt.Receptor>
prm/blind_docking_20.prm

>  <SCORE>
-16.8548

>  <SCORE.INTER>
-16.8548

>  <SCORE.INTER.CONST>
1

>  <SCORE.INTER.POLAR>
0

>  <SCORE.INTER.ROT>
0

>  <SCORE.INTER.SOLV>
3.915

>  <SCORE.INTER.VDW>
-16.1415

>  <SCORE.INTER.norm>
-1.68548

>  <SCORE.INTRA>
0

>  <SCORE.INTRA.DIHEDRAL>
0

>  <SCORE.INTRA.DIHEDRAL.0>
0

>  <SCORE.INTRA.POLAR>
0

>  <SCORE.INTRA.POLAR.0>
0

>  <SCORE.INTRA.REPUL>
0

>  <SCORE.INTRA.REPUL.0>
0

>  <SCORE.INTRA.SOLV>
0

>  <SCORE.INTRA.SOLV.lig_0>
-4.28614

>  <SCORE.INTRA.VDW>
0

>  <SCORE.INTRA.VDW.0>
0

>  <SCORE.INTRA.norm>
0

>  <SCORE.RESTR>
0

>  <SCORE.RESTR.CAVITY>
0

>  <SCORE.RESTR.norm>
0

>  <SCORE.SYSTEM>
0

>  <SCORE.SYSTEM.CONST>
0

>  <SCORE.SYSTEM.DIHEDRAL>
0

>  <SCORE.SYSTEM.SOLV>
0

>  <SCORE.SYSTEM.norm>
0

>  <SCORE.heavy>
10

>  <SCORE.norm>
-1.68548

>  <RMSD>
0.871

$$$$
ligand
 OpenBabel11021811423D
libRbt.so/2013.1/901 2013/11/27
 10 11  0  0  0  0  0  0  0  0999 V2000
  -12.1180  -10.2840    8.7472 N   0  0  0  0  0  0  0  0  0  0  0  0
  -12.0635  -11.6186    9.1541 C   0  0  0  0  0  0  0  0  0  0  0  0
  -11.7510  -12.6168    8.3086 N   0  0  0  0  0  0  0  0  0  0  0  0
  -11.4897  -12.1760    7.0143 C   0  0  0  0  0  0  0  0  0  0  0  0
  -11.5262  -10.8709    6.5198 C   0  0  0  0  0  0  0  0  0  0  0  0
  -11.8665   -9.7998    7.4195 C   0  0  0  0  0  0  0  0  0  0  0  0
  -11.9613   -8.6104    7.2352 O   0  0  0  0  0  0  0  0  0  0  0  0
  -11.1823  -10.8941    5.1559 N   0  0  0  0  0  0  0  0  0  0  0  0
  -10.9443  -12.2017    4.8661 C   0  0  0  0  0  0  0  0  0  0  0  0
  -11.1273  -13.0137    5.9942 N   0  0  0  0  0  0  0  0  0  0  0  0
  1  2  1  0  0  0  0
  1  6  1  0  0  0  0
  2  3  2  0  0  0  0
  3  4  1  0  0  0  0
  4  5  2  0  0  0  0
  4 10  1  0  0  0  0
  5  6  1  0  0  0  0
  5  8  1  0  0  0  0
  6  7  2  0  0  0  0
  8  9  1  0  0  0  0
  9 10  2  0  0  0  0
M  END
>  <CHROM.1>
-11.61031660,-11.15997010,7.04793797,2.86329889,1.30583817,-0.45599008

>  <Name>
ligand

>  <RI>
0

>  <Rbt.Current_Directory>
/home/itssahil/PROJECTS/Mol_Feturizer/New_Systems/rnas/2EES

>  <Rbt.Executable>
rbdock ($Id: //depot/dev/client3/rdock/2013.1/src/exe/rbdock.cxx#4 $)

>  <Rbt.Library>
libRbt.so (2013.1, Build901 2013/11/27)

>  <Rbt.Parameter_File>
/export/apps/rDock/src/rDock_2013.1_src/data/scripts/dock_solv.prm

>  <Rbt.Receptor>
prm/blind_docking_20.prm

>  <SCORE>
-16.8599

>  <SCORE.INTER>
-16.8599

>  <SCORE.INTER.CONST>
1

>  <SCORE.INTER.POLAR>
0

>  <SCORE.INTER.ROT>
0

>  <SCORE.INTER.SOLV>
3.92528

>  <SCORE.INTER.VDW>
-16.1483

>  <SCORE.INTER.norm>
-1.68599

>  <SCORE.INTRA>
0

>  <SCORE.INTRA.DIHEDRAL>
0

>  <SCORE.INTRA.DIHEDRAL.0>
0

>  <SCORE.INTRA.POLAR>
0

>  <SCORE.INTRA.POLAR.0>
0

>  <SCORE.INTRA.REPUL>
0

>  <SCORE.INTRA.REPUL.0>
0

>  <SCORE.INTRA.SOLV>
0

>  <SCORE.INTRA.SOLV.lig_0>
-4.28614

>  <SCORE.INTRA.VDW>
0

>  <SCORE.INTRA.VDW.0>
0

>  <SCORE.INTRA.norm>
0

>  <SCORE.RESTR>
0

>  <SCORE.RESTR.CAVITY>
0

>  <SCORE.RESTR.norm>
0

>  <SCORE.SYSTEM>
0

>  <SCORE.SYSTEM.CONST>
0

>  <SCORE.SYSTEM.DIHEDRAL>
0

>  <SCORE.SYSTEM.SOLV>
0

>  <SCORE.SYSTEM.norm>
0

>  <SCORE.heavy>
10

>  <SCORE.norm>
-1.68599

>  <RMSD>
0.871

$$$$
ligand
 OpenBabel11021811423D
libRbt.so/2013.1/901 2013/11/27
 10 11  0  0  0  0  0  0  0  0999 V2000
  -12.1094  -10.2716    8.7546 N   0  0  0  0  0  0  0  0  0  0  0  0
  -12.0369  -11.6030    9.1689 C   0  0  0  0  0  0  0  0  0  0  0  0
  -11.7250  -12.6034    8.3256 N   0  0  0  0  0  0  0  0  0  0  0  0
  -11.4838  -12.1681    7.0256 C   0  0  0  0  0  0  0  0  0  0  0  0
  -11.5391  -10.8665    6.5237 C   0  0  0  0  0  0  0  0  0  0  0  0
  -11.8789   -9.7932    7.4210 C   0  0  0  0  0  0  0  0  0  0  0  0
  -11.9876   -8.6059    7.2306 O   0  0  0  0  0  0  0  0  0  0  0  0
  -11.2116  -10.8947    5.1558 N   0  0  0  0  0  0  0  0  0  0  0  0
  -10.9643  -12.2017    4.8711 C   0  0  0  0  0  0  0  0  0  0  0  0
  -11.1256  -13.0085    6.0062 N   0  0  0  0  0  0  0  0  0  0  0  0
  1  2  1  0  0  0  0
  1  6  1  0  0  0  0
  2  3  2  0  0  0  0
  3  4  1  0  0  0  0
  4  5  2  0  0  0  0
  4 10  1  0  0  0  0
  5  6  1  0  0  0  0
  5  8  1  0  0  0  0
  6  7  2  0  0  0  0
  8  9  1  0  0  0  0
  9 10  2  0  0  0  0
M  END
>  <CHROM.1>
-11.61390993,-11.15306287,7.05456532,2.91873095,1.31207608,-0.51565224

>  <Name>
ligand

>  <RI>
0

>  <Rbt.Current_Directory>
/home/itssahil/PROJECTS/Mol_Feturizer/New_Systems/rnas/2EES

>  <Rbt.Executable>
rbdock ($Id: //depot/dev/client3/rdock/2013.1/src/exe/rbdock.cxx#4 $)

>  <Rbt.Library>
libRbt.so (2013.1, Build901 2013/11/27)

>  <Rbt.Parameter_File>
/export/apps/rDock/src/rDock_2013.1_src/data/scripts/dock_solv.prm

>  <Rbt.Receptor>
prm/blind_docking_20.prm

>  <SCORE>
-16.8588

>  <SCORE.INTER>
-16.8588

>  <SCORE.INTER.CONST>
1

>  <SCORE.INTER.POLAR>
0

>  <SCORE.INTER.ROT>
0

>  <SCORE.INTER.SOLV>
3.91098

>  <SCORE.INTER.VDW>
-16.1429

>  <SCORE.INTER.norm>
-1.68588

>  <SCORE.INTRA>
0

>  <SCORE.INTRA.DIHEDRAL>
0

>  <SCORE.INTRA.DIHEDRAL.0>
0

>  <SCORE.INTRA.POLAR>
0

>  <SCORE.INTRA.POLAR.0>
0

>  <SCORE.INTRA.REPUL>
0

>  <SCORE.INTRA.REPUL.0>
0

>  <SCORE.INTRA.SOLV>
0

>  <SCORE.INTRA.SOLV.lig_0>
-4.28614

>  <SCORE.INTRA.VDW>
0

>  <SCORE.INTRA.VDW.0>
0

>  <SCORE.INTRA.norm>
0

>  <SCORE.RESTR>
0

>  <SCORE.RESTR.CAVITY>
0

>  <SCORE.RESTR.norm>
0

>  <SCORE.SYSTEM>
0

>  <SCORE.SYSTEM.CONST>
0

>  <SCORE.SYSTEM.DIHEDRAL>
0

>  <SCORE.SYSTEM.SOLV>
0

>  <SCORE.SYSTEM.norm>
0

>  <SCORE.heavy>
10

>  <SCORE.norm>
-1.68588

>  <RMSD>
0.871

$$$$
ligand
 OpenBabel11021811423D
libRbt.so/2013.1/901 2013/11/27
 10 11  0  0  0  0  0  0  0  0999 V2000
  -12.1130  -10.2720    8.7513 N   0  0  0  0  0  0  0  0  0  0  0  0
  -12.0391  -11.6028    9.1673 C   0  0  0  0  0  0  0  0  0  0  0  0
  -11.7263  -12.6039    8.3253 N   0  0  0  0  0  0  0  0  0  0  0  0
  -11.4858  -12.1701    7.0246 C   0  0  0  0  0  0  0  0  0  0  0  0
  -11.5426  -10.8692    6.5210 C   0  0  0  0  0  0  0  0  0  0  0  0
  -11.8832   -9.7951    7.4169 C   0  0  0  0  0  0  0  0  0  0  0  0
  -11.9932   -8.6082    7.2251 O   0  0  0  0  0  0  0  0  0  0  0  0
  -11.2153  -10.8989    5.1531 N   0  0  0  0  0  0  0  0  0  0  0  0
  -10.9667  -12.2061    4.8700 C   0  0  0  0  0  0  0  0  0  0  0  0
  -11.1269  -13.0115    6.0063 N   0  0  0  0  0  0  0  0  0  0  0  0
  1  2  1  0  0  0  0
  1  6  1  0  0  0  0
  2  3  2  0  0  0  0
  3  4  1  0  0  0  0
  4  5  2  0  0  0  0
  4 10  1  0  0  0  0
  5  6  1  0  0  0  0
  5  8  1  0  0  0  0
  6  7  2  0  0  0  0
  8  9  1  0  0  0  0
  9 10  2  0  0  0  0
M  END
>  <CHROM.1>
-11.61695336,-11.15518370,7.05227670,2.92254837,1.31174215,-0.52066123

>  <Name>
ligand

>  <RI>
0

>  <Rbt.Current_Directory>
/home/itssahil/PROJECTS/Mol_Feturizer/New_Systems/rnas/2EES

>  <Rbt.Executable>
rbdock ($Id: //depot/dev/client3/rdock/2013.1/src/exe/rbdock.cxx#4 $)

>  <Rbt.Library>
libRbt.so (2013.1, Build901 2013/11/27)

>  <Rbt.Parameter_File>
/export/apps/rDock/src/rDock_2013.1_src/data/scripts/dock_solv.prm

>  <Rbt.Receptor>
prm/blind_docking_20.prm

>  <SCORE>
-16.8592

>  <SCORE.INTER>
-16.8592

>  <SCORE.INTER.CONST>
1

>  <SCORE.INTER.POLAR>
0

>  <SCORE.INTER.ROT>
0

>  <SCORE.INTER.SOLV>
3.90193

>  <SCORE.INTER.VDW>
-16.1401

>  <SCORE.INTER.norm>
-1.68592

>  <SCORE.INTRA>
0

>  <SCORE.INTRA.DIHEDRAL>
0

>  <SCORE.INTRA.DIHEDRAL.0>
0

>  <SCORE.INTRA.POLAR>
0

>  <SCORE.INTRA.POLAR.0>
0

>  <SCORE.INTRA.REPUL>
0

>  <SCORE.INTRA.REPUL.0>
0

>  <SCORE.INTRA.SOLV>
0

>  <SCORE.INTRA.SOLV.lig_0>
-4.28614

>  <SCORE.INTRA.VDW>
0

>  <SCORE.INTRA.VDW.0>
0

>  <SCORE.INTRA.norm>
0

>  <SCORE.RESTR>
0

>  <SCORE.RESTR.CAVITY>
0

>  <SCORE.RESTR.norm>
0

>  <SCORE.SYSTEM>
0

>  <SCORE.SYSTEM.CONST>
0

>  <SCORE.SYSTEM.DIHEDRAL>
0

>  <SCORE.SYSTEM.SOLV>
0

>  <SCORE.SYSTEM.norm>
0

>  <SCORE.heavy>
10

>  <SCORE.norm>
-1.68592

>  <RMSD>
0.871

$$$$
ligand
 OpenBabel11021811423D
libRbt.so/2013.1/901 2013/11/27
 10 11  0  0  0  0  0  0  0  0999 V2000
  -12.1208  -10.2714    8.7482 N   0  0  0  0  0  0  0  0  0  0  0  0
  -12.0516  -11.6027    9.1634 C   0  0  0  0  0  0  0  0  0  0  0  0
  -11.7337  -12.6035    8.3228 N   0  0  0  0  0  0  0  0  0  0  0  0
  -11.4829  -12.1686    7.0244 C   0  0  0  0  0  0  0  0  0  0  0  0
  -11.5343  -10.8672    6.5217 C   0  0  0  0  0  0  0  0  0  0  0  0
  -11.8804   -9.7935    7.4161 C   0  0  0  0  0  0  0  0  0  0  0  0
  -11.9875   -8.6063    7.2246 O   0  0  0  0  0  0  0  0  0  0  0  0
  -11.1968  -10.8960    5.1563 N   0  0  0  0  0  0  0  0  0  0  0  0
  -10.9477  -12.2032    4.8738 C   0  0  0  0  0  0  0  0  0  0  0  0
  -11.1174  -13.0095    6.0080 N   0  0  0  0  0  0  0  0  0  0  0  0
  1  2  1  0  0  0  0
  1  6  1  0  0  0  0
  2  3  2  0  0  0  0
  3  4  1  0  0  0  0
  4  5  2  0  0  0  0
  4 10  1  0  0  0  0
  5  6  1  0  0  0  0
  5  8  1  0  0  0  0
  6  7  2  0  0  0  0
  8  9  1  0  0  0  0
  9 10  2  0  0  0  0
M  END
>  <CHROM.1>
-11.61304799,-11.15359528,7.05209798,2.90432073,1.30577624,-0.50208374

>  <Name>
ligand

>  <RI>
0

>  <Rbt.Current_Directory>
/home/itssahil/PROJECTS/Mol_Feturizer/New_Systems/rnas/2EES

>  <Rbt.Executable>
rbdock ($Id: //depot/dev/client3/rdock/2013.1/src/exe/rbdock.cxx#4 $)

>  <Rbt.Library>
libRbt.so (2013.1, Build901 2013/11/27)

>  <Rbt.Parameter_File>
/export/apps/rDock/src/rDock_2013.1_src/data/scripts/dock_solv.prm

>  <Rbt.Receptor>
prm/blind_docking_20.prm

>  <SCORE>
-16.854

>  <SCORE.INTER>
-16.854

>  <SCORE.INTER.CONST>
1

>  <SCORE.INTER.POLAR>
0

>  <SCORE.INTER.ROT>
0

>  <SCORE.INTER.SOLV>
3.89926

>  <SCORE.INTER.VDW>
-16.1358

>  <SCORE.INTER.norm>
-1.6854

>  <SCORE.INTRA>
0

>  <SCORE.INTRA.DIHEDRAL>
0

>  <SCORE.INTRA.DIHEDRAL.0>
0

>  <SCORE.INTRA.POLAR>
0

>  <SCORE.INTRA.POLAR.0>
0

>  <SCORE.INTRA.REPUL>
0

>  <SCORE.INTRA.REPUL.0>
0

>  <SCORE.INTRA.SOLV>
0

>  <SCORE.INTRA.SOLV.lig_0>
-4.28614

>  <SCORE.INTRA.VDW>
0

>  <SCORE.INTRA.VDW.0>
0

>  <SCORE.INTRA.norm>
0

>  <SCORE.RESTR>
0

>  <SCORE.RESTR.CAVITY>
0

>  <SCORE.RESTR.norm>
0

>  <SCORE.SYSTEM>
0

>  <SCORE.SYSTEM.CONST>
0

>  <SCORE.SYSTEM.DIHEDRAL>
0

>  <SCORE.SYSTEM.SOLV>
0

>  <SCORE.SYSTEM.norm>
0

>  <SCORE.heavy>
10

>  <SCORE.norm>
-1.6854

>  <RMSD>
0.872

$$$$
ligand
 OpenBabel11021811423D
libRbt.so/2013.1/901 2013/11/27
 10 11  0  0  0  0  0  0  0  0999 V2000
  -12.1160  -10.2657    8.7600 N   0  0  0  0  0  0  0  0  0  0  0  0
  -12.0546  -11.5975    9.1749 C   0  0  0  0  0  0  0  0  0  0  0  0
  -11.7491  -12.6006    8.3325 N   0  0  0  0  0  0  0  0  0  0  0  0
  -11.5023  -12.1677    7.0327 C   0  0  0  0  0  0  0  0  0  0  0  0
  -11.5467  -10.8659    6.5303 C   0  0  0  0  0  0  0  0  0  0  0  0
  -11.8795   -9.7896    7.4265 C   0  0  0  0  0  0  0  0  0  0  0  0
  -11.9787   -8.6017    7.2356 O   0  0  0  0  0  0  0  0  0  0  0  0
  -11.2171  -10.8972    5.1629 N   0  0  0  0  0  0  0  0  0  0  0  0
  -10.9795  -12.2062    4.8791 C   0  0  0  0  0  0  0  0  0  0  0  0
  -11.1490  -13.0113    6.0142 N   0  0  0  0  0  0  0  0  0  0  0  0
  1  2  1  0  0  0  0
  1  6  1  0  0  0  0
  2  3  2  0  0  0  0
  3  4  1  0  0  0  0
  4  5  2  0  0  0  0
  4 10  1  0  0  0  0
  5  6  1  0  0  0  0
  5  8  1  0  0  0  0
  6  7  2  0  0  0  0
  8  9  1  0  0  0  0
  9 10  2  0  0  0  0
M  END
>  <CHROM.1>
-11.62458489,-11.15169811,7.06108579,2.88869678,1.31436368,-0.48698416

>  <Name>
ligand

>  <RI>
0

>  <Rbt.Current_Directory>
/home/itssahil/PROJECTS/Mol_Feturizer/New_Systems/rnas/2EES

>  <Rbt.Executable>
rbdock ($Id: //depot/dev/client3/rdock/2013.1/src/exe/rbdock.cxx#4 $)

>  <Rbt.Library>
libRbt.so (2013.1, Build901 2013/11/27)

>  <Rbt.Parameter_File>
/export/apps/rDock/src/rDock_2013.1_src/data/scripts/dock_solv.prm

>  <Rbt.Receptor>
prm/blind_docking_20.prm

>  <SCORE>
-16.8527

>  <SCORE.INTER>
-16.8527

>  <SCORE.INTER.CONST>
1

>  <SCORE.INTER.POLAR>
0

>  <SCORE.INTER.ROT>
0

>  <SCORE.INTER.SOLV>
3.92606

>  <SCORE.INTER.VDW>
-16.1438

>  <SCORE.INTER.norm>
-1.68527

>  <SCORE.INTRA>
0

>  <SCORE.INTRA.DIHEDRAL>
0

>  <SCORE.INTRA.DIHEDRAL.0>
0

>  <SCORE.INTRA.POLAR>
0

>  <SCORE.INTRA.POLAR.0>
0

>  <SCORE.INTRA.REPUL>
0

>  <SCORE.INTRA.REPUL.0>
0

>  <SCORE.INTRA.SOLV>
0

>  <SCORE.INTRA.SOLV.lig_0>
-4.28614

>  <SCORE.INTRA.VDW>
0

>  <SCORE.INTRA.VDW.0>
0

>  <SCORE.INTRA.norm>
0

>  <SCORE.RESTR>
0

>  <SCORE.RESTR.CAVITY>
0

>  <SCORE.RESTR.norm>
0

>  <SCORE.SYSTEM>
0

>  <SCORE.SYSTEM.CONST>
0

>  <SCORE.SYSTEM.DIHEDRAL>
0

>  <SCORE.SYSTEM.SOLV>
0

>  <SCORE.SYSTEM.norm>
0

>  <SCORE.heavy>
10

>  <SCORE.norm>
-1.68527

>  <RMSD>
0.872

$$$$
ligand
 OpenBabel11021811423D
libRbt.so/2013.1/901 2013/11/27
 10 11  0  0  0  0  0  0  0  0999 V2000
  -12.0977  -10.2901    8.7367 N   0  0  0  0  0  0  0  0  0  0  0  0
  -12.0227  -11.6231    9.1453 C   0  0  0  0  0  0  0  0  0  0  0  0
  -11.7040  -12.6187    8.2989 N   0  0  0  0  0  0  0  0  0  0  0  0
  -11.4588  -12.1768    7.0019 C   0  0  0  0  0  0  0  0  0  0  0  0
  -11.5162  -10.8732    6.5056 C   0  0  0  0  0  0  0  0  0  0  0  0
  -11.8631   -9.8050    7.4062 C   0  0  0  0  0  0  0  0  0  0  0  0
  -11.9748   -8.6172    7.2207 O   0  0  0  0  0  0  0  0  0  0  0  0
  -11.1829  -10.8942    5.1390 N   0  0  0  0  0  0  0  0  0  0  0  0
  -10.9302  -12.1992    4.8494 C   0  0  0  0  0  0  0  0  0  0  0  0
  -11.0937  -13.0115    5.9802 N   0  0  0  0  0  0  0  0  0  0  0  0
  1  2  1  0  0  0  0
  1  6  1  0  0  0  0
  2  3  2  0  0  0  0
  3  4  1  0  0  0  0
  4  5  2  0  0  0  0
  4 10  1  0  0  0  0
  5  6  1  0  0  0  0
  5  8  1  0  0  0  0
  6  7  2  0  0  0  0
  8  9  1  0  0  0  0
  9 10  2  0  0  0  0
M  END
>  <CHROM.1>
-11.59226489,-11.16234361,7.03482535,2.92140196,1.30686551,-0.51376104

>  <Name>
ligand

>  <RI>
0

>  <Rbt.Current_Directory>
/home/itssahil/PROJECTS/Mol_Feturizer/New_Systems/rnas/2EES

>  <Rbt.Executable>
rbdock ($Id: //depot/dev/client3/rdock/2013.1/src/exe/rbdock.cxx#4 $)

>  <Rbt.Library>
libRbt.so (2013.1, Build901 2013/11/27)

>  <Rbt.Parameter_File>
/export/apps/rDock/src/rDock_2013.1_src/data/scripts/dock_solv.prm

>  <Rbt.Receptor>
prm/blind_docking_20.prm

>  <SCORE>
-16.8621

>  <SCORE.INTER>
-16.8621

>  <SCORE.INTER.CONST>
1

>  <SCORE.INTER.POLAR>
0

>  <SCORE.INTER.ROT>
0

>  <SCORE.INTER.SOLV>
3.90911

>  <SCORE.INTER.VDW>
-16.1445

>  <SCORE.INTER.norm>
-1.68621

>  <SCORE.INTRA>
0

>  <SCORE.INTRA.DIHEDRAL>
0

>  <SCORE.INTRA.DIHEDRAL.0>
0

>  <SCORE.INTRA.POLAR>
0

>  <SCORE.INTRA.POLAR.0>
0

>  <SCORE.INTRA.REPUL>
0

>  <SCORE.INTRA.REPUL.0>
0

>  <SCORE.INTRA.SOLV>
0

>  <SCORE.INTRA.SOLV.lig_0>
-4.28614

>  <SCORE.INTRA.VDW>
0

>  <SCORE.INTRA.VDW.0>
0

>  <SCORE.INTRA.norm>
0

>  <SCORE.RESTR>
0

>  <SCORE.RESTR.CAVITY>
0

>  <SCORE.RESTR.norm>
0

>  <SCORE.SYSTEM>
0

>  <SCORE.SYSTEM.CONST>
0

>  <SCORE.SYSTEM.DIHEDRAL>
0

>  <SCORE.SYSTEM.SOLV>
0

>  <SCORE.SYSTEM.norm>
0

>  <SCORE.heavy>
10

>  <SCORE.norm>
-1.68621

>  <RMSD>
0.873

$$$$
ligand
 OpenBabel11021811423D
libRbt.so/2013.1/901 2013/11/27
 10 11  0  0  0  0  0  0  0  0999 V2000
  -12.0968  -10.2653    8.7554 N   0  0  0  0  0  0  0  0  0  0  0  0
  -12.0151  -11.5961    9.1702 C   0  0  0  0  0  0  0  0  0  0  0  0
  -11.6989  -12.5949    8.3268 N   0  0  0  0  0  0  0  0  0  0  0  0
  -11.4635  -12.1588    7.0260 C   0  0  0  0  0  0  0  0  0  0  0  0
  -11.5281  -10.8579    6.5235 C   0  0  0  0  0  0  0  0  0  0  0  0
  -11.8724   -9.7862    7.4210 C   0  0  0  0  0  0  0  0  0  0  0  0
  -11.9890   -8.5998    7.2303 O   0  0  0  0  0  0  0  0  0  0  0  0
  -11.2037  -10.8848    5.1549 N   0  0  0  0  0  0  0  0  0  0  0  0
  -10.9489  -12.1904    4.8702 C   0  0  0  0  0  0  0  0  0  0  0  0
  -11.1025  -12.9975    6.0062 N   0  0  0  0  0  0  0  0  0  0  0  0
  1  2  1  0  0  0  0
  1  6  1  0  0  0  0
  2  3  2  0  0  0  0
  3  4  1  0  0  0  0
  4  5  2  0  0  0  0
  4 10  1  0  0  0  0
  5  6  1  0  0  0  0
  5  8  1  0  0  0  0
  6  7  2  0  0  0  0
  8  9  1  0  0  0  0
  9 10  2  0  0  0  0
M  END
>  <CHROM.1>
-11.59984130,-11.14460910,7.05469726,2.94432115,1.31097733,-0.54092312

>  <Name>
ligand

>  <RI>
0

>  <Rbt.Current_Directory>
/home/itssahil/PROJECTS/Mol_Feturizer/New_Systems/rnas/2EES

>  <Rbt.Executable>
rbdock ($Id: //depot/dev/client3/rdock/2013.1/src/exe/rbdock.cxx#4 $)

>  <Rbt.Library>
libRbt.so (2013.1, Build901 2013/11/27)

>  <Rbt.Parameter_File>
/export/apps/rDock/src/rDock_2013.1_src/data/scripts/dock_solv.prm

>  <Rbt.Receptor>
prm/blind_docking_20.prm

>  <SCORE>
-16.8461

>  <SCORE.INTER>
-16.8461

>  <SCORE.INTER.CONST>
1

>  <SCORE.INTER.POLAR>
0

>  <SCORE.INTER.ROT>
0

>  <SCORE.INTER.SOLV>
3.91485

>  <SCORE.INTER.VDW>
-16.1357

>  <SCORE.INTER.norm>
-1.68461

>  <SCORE.INTRA>
0

>  <SCORE.INTRA.DIHEDRAL>
0

>  <SCORE.INTRA.DIHEDRAL.0>
0

>  <SCORE.INTRA.POLAR>
0

>  <SCORE.INTRA.POLAR.0>
0

>  <SCORE.INTRA.REPUL>
0

>  <SCORE.INTRA.REPUL.0>
0

>  <SCORE.INTRA.SOLV>
0

>  <SCORE.INTRA.SOLV.lig_0>
-4.28614

>  <SCORE.INTRA.VDW>
0

>  <SCORE.INTRA.VDW.0>
0

>  <SCORE.INTRA.norm>
0

>  <SCORE.RESTR>
0

>  <SCORE.RESTR.CAVITY>
0

>  <SCORE.RESTR.norm>
0

>  <SCORE.SYSTEM>
0

>  <SCORE.SYSTEM.CONST>
0

>  <SCORE.SYSTEM.DIHEDRAL>
0

>  <SCORE.SYSTEM.SOLV>
0

>  <SCORE.SYSTEM.norm>
0

>  <SCORE.heavy>
10

>  <SCORE.norm>
-1.68461

>  <RMSD>
0.873

$$$$
ligand
 OpenBabel11021811423D
libRbt.so/2013.1/901 2013/11/27
 10 11  0  0  0  0  0  0  0  0999 V2000
  -12.1310  -10.2662    8.7427 N   0  0  0  0  0  0  0  0  0  0  0  0
  -12.0507  -11.5949    9.1641 C   0  0  0  0  0  0  0  0  0  0  0  0
  -11.7283  -12.5973    8.3273 N   0  0  0  0  0  0  0  0  0  0  0  0
  -11.4849  -12.1670    7.0260 C   0  0  0  0  0  0  0  0  0  0  0  0
  -11.5475  -10.8684    6.5172 C   0  0  0  0  0  0  0  0  0  0  0  0
  -11.8985   -9.7930    7.4075 C   0  0  0  0  0  0  0  0  0  0  0  0
  -12.0149   -8.6075    7.2107 O   0  0  0  0  0  0  0  0  0  0  0  0
  -11.2142  -10.9013    5.1508 N   0  0  0  0  0  0  0  0  0  0  0  0
  -10.9564  -12.2080    4.8738 C   0  0  0  0  0  0  0  0  0  0  0  0
  -11.1166  -13.0100    6.0124 N   0  0  0  0  0  0  0  0  0  0  0  0
  1  2  1  0  0  0  0
  1  6  1  0  0  0  0
  2  3  2  0  0  0  0
  3  4  1  0  0  0  0
  4  5  2  0  0  0  0
  4 10  1  0  0  0  0
  5  6  1  0  0  0  0
  5  8  1  0  0  0  0
  6  7  2  0  0  0  0
  8  9  1  0  0  0  0
  9 10  2  0  0  0  0
M  END
>  <CHROM.1>
-11.62235686,-11.15277733,7.04921149,2.93463630,1.30500761,-0.53614638

>  <Name>
ligand

>  <RI>
0

>  <Rbt.Current_Directory>
/home/itssahil/PROJECTS/Mol_Feturizer/New_Systems/rnas/2EES

>  <Rbt.Executable>
rbdock ($Id: //depot/dev/client3/rdock/2013.1/src/exe/rbdock.cxx#4 $)

>  <Rbt.Library>
libRbt.so (2013.1, Build901 2013/11/27)

>  <Rbt.Parameter_File>
/export/apps/rDock/src/rDock_2013.1_src/data/scripts/dock_solv.prm

>  <Rbt.Receptor>
prm/blind_docking_20.prm

>  <SCORE>
-16.8482

>  <SCORE.INTER>
-16.8482

>  <SCORE.INTER.CONST>
1

>  <SCORE.INTER.POLAR>
0

>  <SCORE.INTER.ROT>
0

>  <SCORE.INTER.SOLV>
3.86608

>  <SCORE.INTER.VDW>
-16.1208

>  <SCORE.INTER.norm>
-1.68482

>  <SCORE.INTRA>
0

>  <SCORE.INTRA.DIHEDRAL>
0

>  <SCORE.INTRA.DIHEDRAL.0>
0

>  <SCORE.INTRA.POLAR>
0

>  <SCORE.INTRA.POLAR.0>
0

>  <SCORE.INTRA.REPUL>
0

>  <SCORE.INTRA.REPUL.0>
0

>  <SCORE.INTRA.SOLV>
0

>  <SCORE.INTRA.SOLV.lig_0>
-4.28614

>  <SCORE.INTRA.VDW>
0

>  <SCORE.INTRA.VDW.0>
0

>  <SCORE.INTRA.norm>
0

>  <SCORE.RESTR>
0

>  <SCORE.RESTR.CAVITY>
0

>  <SCORE.RESTR.norm>
0

>  <SCORE.SYSTEM>
0

>  <SCORE.SYSTEM.CONST>
0

>  <SCORE.SYSTEM.DIHEDRAL>
0

>  <SCORE.SYSTEM.SOLV>
0

>  <SCORE.SYSTEM.norm>
0

>  <SCORE.heavy>
10

>  <SCORE.norm>
-1.68482

>  <RMSD>
0.874

$$$$
ligand
 OpenBabel11021811423D
libRbt.so/2013.1/901 2013/11/27
 10 11  0  0  0  0  0  0  0  0999 V2000
  -12.1275  -10.2595    8.7494 N   0  0  0  0  0  0  0  0  0  0  0  0
  -12.0486  -11.5891    9.1684 C   0  0  0  0  0  0  0  0  0  0  0  0
  -11.7237  -12.5898    8.3305 N   0  0  0  0  0  0  0  0  0  0  0  0
  -11.4763  -12.1568    7.0308 C   0  0  0  0  0  0  0  0  0  0  0  0
  -11.5373  -10.8573    6.5244 C   0  0  0  0  0  0  0  0  0  0  0  0
  -11.8909   -9.7836    7.4159 C   0  0  0  0  0  0  0  0  0  0  0  0
  -12.0066   -8.5977    7.2211 O   0  0  0  0  0  0  0  0  0  0  0  0
  -11.2000  -10.8874    5.1590 N   0  0  0  0  0  0  0  0  0  0  0  0
  -10.9415  -12.1935    4.8801 C   0  0  0  0  0  0  0  0  0  0  0  0
  -11.1051  -12.9979    6.0166 N   0  0  0  0  0  0  0  0  0  0  0  0
  1  2  1  0  0  0  0
  1  6  1  0  0  0  0
  2  3  2  0  0  0  0
  3  4  1  0  0  0  0
  4  5  2  0  0  0  0
  4 10  1  0  0  0  0
  5  6  1  0  0  0  0
  5  8  1  0  0  0  0
  6  7  2  0  0  0  0
  8  9  1  0  0  0  0
  9 10  2  0  0  0  0
M  END
>  <CHROM.1>
-11.61380985,-11.14270876,7.05566105,2.92864432,1.30246229,-0.52834932

>  <Name>
ligand

>  <RI>
0

>  <Rbt.Current_Directory>
/home/itssahil/PROJECTS/Mol_Feturizer/New_Systems/rnas/2EES

>  <Rbt.Executable>
rbdock ($Id: //depot/dev/client3/rdock/2013.1/src/exe/rbdock.cxx#4 $)

>  <Rbt.Library>
libRbt.so (2013.1, Build901 2013/11/27)

>  <Rbt.Parameter_File>
/export/apps/rDock/src/rDock_2013.1_src/data/scripts/dock_solv.prm

>  <Rbt.Receptor>
prm/blind_docking_20.prm

>  <SCORE>
-16.8403

>  <SCORE.INTER>
-16.8403

>  <SCORE.INTER.CONST>
1

>  <SCORE.INTER.POLAR>
0

>  <SCORE.INTER.ROT>
0

>  <SCORE.INTER.SOLV>
3.87993

>  <SCORE.INTER.VDW>
-16.1201

>  <SCORE.INTER.norm>
-1.68403

>  <SCORE.INTRA>
0

>  <SCORE.INTRA.DIHEDRAL>
0

>  <SCORE.INTRA.DIHEDRAL.0>
0

>  <SCORE.INTRA.POLAR>
0

>  <SCORE.INTRA.POLAR.0>
0

>  <SCORE.INTRA.REPUL>
0

>  <SCORE.INTRA.REPUL.0>
0

>  <SCORE.INTRA.SOLV>
0

>  <SCORE.INTRA.SOLV.lig_0>
-4.28614

>  <SCORE.INTRA.VDW>
0

>  <SCORE.INTRA.VDW.0>
0

>  <SCORE.INTRA.norm>
0

>  <SCORE.RESTR>
0

>  <SCORE.RESTR.CAVITY>
0

>  <SCORE.RESTR.norm>
0

>  <SCORE.SYSTEM>
0

>  <SCORE.SYSTEM.CONST>
0

>  <SCORE.SYSTEM.DIHEDRAL>
0

>  <SCORE.SYSTEM.SOLV>
0

>  <SCORE.SYSTEM.norm>
0

>  <SCORE.heavy>
10

>  <SCORE.norm>
-1.68403

>  <RMSD>
0.875

$$$$
ligand
 OpenBabel11021811423D
libRbt.so/2013.1/901 2013/11/27
 10 11  0  0  0  0  0  0  0  0999 V2000
  -12.1132  -10.2466    8.7631 N   0  0  0  0  0  0  0  0  0  0  0  0
  -12.0375  -11.5768    9.1807 C   0  0  0  0  0  0  0  0  0  0  0  0
  -11.7177  -12.5778    8.3412 N   0  0  0  0  0  0  0  0  0  0  0  0
  -11.4722  -12.1445    7.0413 C   0  0  0  0  0  0  0  0  0  0  0  0
  -11.5302  -10.8443    6.5363 C   0  0  0  0  0  0  0  0  0  0  0  0
  -11.8783   -9.7703    7.4295 C   0  0  0  0  0  0  0  0  0  0  0  0
  -11.9908   -8.5839    7.2360 O   0  0  0  0  0  0  0  0  0  0  0  0
  -11.1963  -10.8743    5.1700 N   0  0  0  0  0  0  0  0  0  0  0  0
  -10.9426  -12.1810    4.8893 C   0  0  0  0  0  0  0  0  0  0  0  0
  -11.1060  -12.9858    6.0255 N   0  0  0  0  0  0  0  0  0  0  0  0
  1  2  1  0  0  0  0
  1  6  1  0  0  0  0
  2  3  2  0  0  0  0
  3  4  1  0  0  0  0
  4  5  2  0  0  0  0
  4 10  1  0  0  0  0
  5  6  1  0  0  0  0
  5  8  1  0  0  0  0
  6  7  2  0  0  0  0
  8  9  1  0  0  0  0
  9 10  2  0  0  0  0
M  END
>  <CHROM.1>
-11.60638405,-11.12992517,7.06740013,2.92283862,1.30612105,-0.52187615

>  <Name>
ligand

>  <RI>
0

>  <Rbt.Current_Directory>
/home/itssahil/PROJECTS/Mol_Feturizer/New_Systems/rnas/2EES

>  <Rbt.Executable>
rbdock ($Id: //depot/dev/client3/rdock/2013.1/src/exe/rbdock.cxx#4 $)

>  <Rbt.Library>
libRbt.so (2013.1, Build901 2013/11/27)

>  <Rbt.Parameter_File>
/export/apps/rDock/src/rDock_2013.1_src/data/scripts/dock_solv.prm

>  <Rbt.Receptor>
prm/blind_docking_20.prm

>  <SCORE>
-16.862

>  <SCORE.INTER>
-16.862

>  <SCORE.INTER.CONST>
1

>  <SCORE.INTER.POLAR>
0

>  <SCORE.INTER.ROT>
0

>  <SCORE.INTER.SOLV>
3.91547

>  <SCORE.INTER.VDW>
-16.1465

>  <SCORE.INTER.norm>
-1.6862

>  <SCORE.INTRA>
0

>  <SCORE.INTRA.DIHEDRAL>
0

>  <SCORE.INTRA.DIHEDRAL.0>
0

>  <SCORE.INTRA.POLAR>
0

>  <SCORE.INTRA.POLAR.0>
0

>  <SCORE.INTRA.REPUL>
0

>  <SCORE.INTRA.REPUL.0>
0

>  <SCORE.INTRA.SOLV>
0

>  <SCORE.INTRA.SOLV.lig_0>
-4.28614

>  <SCORE.INTRA.VDW>
0

>  <SCORE.INTRA.VDW.0>
0

>  <SCORE.INTRA.norm>
0

>  <SCORE.RESTR>
0

>  <SCORE.RESTR.CAVITY>
0

>  <SCORE.RESTR.norm>
0

>  <SCORE.SYSTEM>
0

>  <SCORE.SYSTEM.CONST>
0

>  <SCORE.SYSTEM.DIHEDRAL>
0

>  <SCORE.SYSTEM.SOLV>
0

>  <SCORE.SYSTEM.norm>
0

>  <SCORE.heavy>
10

>  <SCORE.norm>
-1.6862

>  <RMSD>
0.877

$$$$
ligand
 OpenBabel11021811423D
libRbt.so/2013.1/901 2013/11/27
 10 11  0  0  0  0  0  0  0  0999 V2000
  -12.1083  -10.2473    8.7671 N   0  0  0  0  0  0  0  0  0  0  0  0
  -12.0428  -11.5788    9.1824 C   0  0  0  0  0  0  0  0  0  0  0  0
  -11.7312  -12.5808    8.3411 N   0  0  0  0  0  0  0  0  0  0  0  0
  -11.4827  -12.1472    7.0418 C   0  0  0  0  0  0  0  0  0  0  0  0
  -11.5308  -10.8458    6.5390 C   0  0  0  0  0  0  0  0  0  0  0  0
  -11.8702   -9.7706    7.4342 C   0  0  0  0  0  0  0  0  0  0  0  0
  -11.9734   -8.5830    7.2427 O   0  0  0  0  0  0  0  0  0  0  0  0
  -11.1976  -10.8760    5.1725 N   0  0  0  0  0  0  0  0  0  0  0  0
  -10.9542  -12.1842    4.8896 C   0  0  0  0  0  0  0  0  0  0  0  0
  -11.1235  -12.9897    6.0244 N   0  0  0  0  0  0  0  0  0  0  0  0
  1  2  1  0  0  0  0
  1  6  1  0  0  0  0
  2  3  2  0  0  0  0
  3  4  1  0  0  0  0
  4  5  2  0  0  0  0
  4 10  1  0  0  0  0
  5  6  1  0  0  0  0
  5  8  1  0  0  0  0
  6  7  2  0  0  0  0
  8  9  1  0  0  0  0
  9 10  2  0  0  0  0
M  END
>  <CHROM.1>
-11.60900292,-11.13171142,7.06966408,2.89727056,1.31025746,-0.49548790

>  <Name>
ligand

>  <RI>
0

>  <Rbt.Current_Directory>
/home/itssahil/PROJECTS/Mol_Feturizer/New_Systems/rnas/2EES

>  <Rbt.Executable>
rbdock ($Id: //depot/dev/client3/rdock/2013.1/src/exe/rbdock.cxx#4 $)

>  <Rbt.Library>
libRbt.so (2013.1, Build901 2013/11/27)

>  <Rbt.Parameter_File>
/export/apps/rDock/src/rDock_2013.1_src/data/scripts/dock_solv.prm

>  <Rbt.Receptor>
prm/blind_docking_20.prm

>  <SCORE>
-16.8633

>  <SCORE.INTER>
-16.8633

>  <SCORE.INTER.CONST>
1

>  <SCORE.INTER.POLAR>
0

>  <SCORE.INTER.ROT>
0

>  <SCORE.INTER.SOLV>
3.9415

>  <SCORE.INTER.VDW>
-16.156

>  <SCORE.INTER.norm>
-1.68633

>  <SCORE.INTRA>
0

>  <SCORE.INTRA.DIHEDRAL>
0

>  <SCORE.INTRA.DIHEDRAL.0>
0

>  <SCORE.INTRA.POLAR>
0

>  <SCORE.INTRA.POLAR.0>
0

>  <SCORE.INTRA.REPUL>
0

>  <SCORE.INTRA.REPUL.0>
0

>  <SCORE.INTRA.SOLV>
0

>  <SCORE.INTRA.SOLV.lig_0>
-4.28614

>  <SCORE.INTRA.VDW>
0

>  <SCORE.INTRA.VDW.0>
0

>  <SCORE.INTRA.norm>
0

>  <SCORE.RESTR>
0

>  <SCORE.RESTR.CAVITY>
0

>  <SCORE.RESTR.norm>
0

>  <SCORE.SYSTEM>
0

>  <SCORE.SYSTEM.CONST>
0

>  <SCORE.SYSTEM.DIHEDRAL>
0

>  <SCORE.SYSTEM.SOLV>
0

>  <SCORE.SYSTEM.norm>
0

>  <SCORE.heavy>
10

>  <SCORE.norm>
-1.68633

>  <RMSD>
0.877

$$$$
ligand
 OpenBabel11021811423D
libRbt.so/2013.1/901 2013/11/27
 10 11  0  0  0  0  0  0  0  0999 V2000
  -12.1327  -10.2668    8.7458 N   0  0  0  0  0  0  0  0  0  0  0  0
  -12.0672  -11.5996    9.1571 C   0  0  0  0  0  0  0  0  0  0  0  0
  -11.7495  -12.5983    8.3142 N   0  0  0  0  0  0  0  0  0  0  0  0
  -11.4949  -12.1600    7.0177 C   0  0  0  0  0  0  0  0  0  0  0  0
  -11.5425  -10.8570    6.5189 C   0  0  0  0  0  0  0  0  0  0  0  0
  -11.8883   -9.7853    7.4158 C   0  0  0  0  0  0  0  0  0  0  0  0
  -11.9925   -8.5973    7.2277 O   0  0  0  0  0  0  0  0  0  0  0  0
  -11.2020  -10.8822    5.1541 N   0  0  0  0  0  0  0  0  0  0  0  0
  -10.9549  -12.1890    4.8682 C   0  0  0  0  0  0  0  0  0  0  0  0
  -11.1289  -12.9985    5.9995 N   0  0  0  0  0  0  0  0  0  0  0  0
  1  2  1  0  0  0  0
  1  6  1  0  0  0  0
  2  3  2  0  0  0  0
  3  4  1  0  0  0  0
  4  5  2  0  0  0  0
  4 10  1  0  0  0  0
  5  6  1  0  0  0  0
  5  8  1  0  0  0  0
  6  7  2  0  0  0  0
  8  9  1  0  0  0  0
  9 10  2  0  0  0  0
M  END
>  <CHROM.1>
-11.62296755,-11.14482298,7.04819675,2.89325768,1.30479547,-0.48832301

>  <Name>
ligand

>  <RI>
0

>  <Rbt.Current_Directory>
/home/itssahil/PROJECTS/Mol_Feturizer/New_Systems/rnas/2EES

>  <Rbt.Executable>
rbdock ($Id: //depot/dev/client3/rdock/2013.1/src/exe/rbdock.cxx#4 $)

>  <Rbt.Library>
libRbt.so (2013.1, Build901 2013/11/27)

>  <Rbt.Parameter_File>
/export/apps/rDock/src/rDock_2013.1_src/data/scripts/dock_solv.prm

>  <Rbt.Receptor>
prm/blind_docking_20.prm

>  <SCORE>
-16.8772

>  <SCORE.INTER>
-16.8772

>  <SCORE.INTER.CONST>
1

>  <SCORE.INTER.POLAR>
0

>  <SCORE.INTER.ROT>
0

>  <SCORE.INTER.SOLV>
3.89932

>  <SCORE.INTER.VDW>
-16.1512

>  <SCORE.INTER.norm>
-1.68772

>  <SCORE.INTRA>
0

>  <SCORE.INTRA.DIHEDRAL>
0

>  <SCORE.INTRA.DIHEDRAL.0>
0

>  <SCORE.INTRA.POLAR>
0

>  <SCORE.INTRA.POLAR.0>
0

>  <SCORE.INTRA.REPUL>
0

>  <SCORE.INTRA.REPUL.0>
0

>  <SCORE.INTRA.SOLV>
0

>  <SCORE.INTRA.SOLV.lig_0>
-4.28614

>  <SCORE.INTRA.VDW>
0

>  <SCORE.INTRA.VDW.0>
0

>  <SCORE.INTRA.norm>
0

>  <SCORE.RESTR>
0

>  <SCORE.RESTR.CAVITY>
0

>  <SCORE.RESTR.norm>
0

>  <SCORE.SYSTEM>
0

>  <SCORE.SYSTEM.CONST>
0

>  <SCORE.SYSTEM.DIHEDRAL>
0

>  <SCORE.SYSTEM.SOLV>
0

>  <SCORE.SYSTEM.norm>
0

>  <SCORE.heavy>
10

>  <SCORE.norm>
-1.68772

>  <RMSD>
0.878

$$$$
ligand
 OpenBabel11021811423D
libRbt.so/2013.1/901 2013/11/27
 10 11  0  0  0  0  0  0  0  0999 V2000
  -12.1090  -10.2667    8.7547 N   0  0  0  0  0  0  0  0  0  0  0  0
  -12.0543  -11.6007    9.1631 C   0  0  0  0  0  0  0  0  0  0  0  0
  -11.7514  -12.6010    8.3164 N   0  0  0  0  0  0  0  0  0  0  0  0
  -11.5000  -12.1627    7.0193 C   0  0  0  0  0  0  0  0  0  0  0  0
  -11.5376  -10.8583    6.5232 C   0  0  0  0  0  0  0  0  0  0  0  0
  -11.8676   -9.7850    7.4241 C   0  0  0  0  0  0  0  0  0  0  0  0
  -11.9612   -8.5957    7.2389 O   0  0  0  0  0  0  0  0  0  0  0  0
  -11.2053  -10.8843    5.1565 N   0  0  0  0  0  0  0  0  0  0  0  0
  -10.9728  -12.1929    4.8666 C   0  0  0  0  0  0  0  0  0  0  0  0
  -11.1482  -13.0028    5.9974 N   0  0  0  0  0  0  0  0  0  0  0  0
  1  2  1  0  0  0  0
  1  6  1  0  0  0  0
  2  3  2  0  0  0  0
  3  4  1  0  0  0  0
  4  5  2  0  0  0  0
  4 10  1  0  0  0  0
  5  6  1  0  0  0  0
  5  8  1  0  0  0  0
  6  7  2  0  0  0  0
  8  9  1  0  0  0  0
  9 10  2  0  0  0  0
M  END
>  <CHROM.1>
-11.61786970,-11.14633863,7.05245552,2.86958436,1.31449901,-0.46354700

>  <Name>
ligand

>  <RI>
0

>  <Rbt.Current_Directory>
/home/itssahil/PROJECTS/Mol_Feturizer/New_Systems/rnas/2EES

>  <Rbt.Executable>
rbdock ($Id: //depot/dev/client3/rdock/2013.1/src/exe/rbdock.cxx#4 $)

>  <Rbt.Library>
libRbt.so (2013.1, Build901 2013/11/27)

>  <Rbt.Parameter_File>
/export/apps/rDock/src/rDock_2013.1_src/data/scripts/dock_solv.prm

>  <Rbt.Receptor>
prm/blind_docking_20.prm

>  <SCORE>
-16.8773

>  <SCORE.INTER>
-16.8773

>  <SCORE.INTER.CONST>
1

>  <SCORE.INTER.POLAR>
0

>  <SCORE.INTER.ROT>
0

>  <SCORE.INTER.SOLV>
3.95193

>  <SCORE.INTER.VDW>
-16.1689

>  <SCORE.INTER.norm>
-1.68773

>  <SCORE.INTRA>
0

>  <SCORE.INTRA.DIHEDRAL>
0

>  <SCORE.INTRA.DIHEDRAL.0>
0

>  <SCORE.INTRA.POLAR>
0

>  <SCORE.INTRA.POLAR.0>
0

>  <SCORE.INTRA.REPUL>
0

>  <SCORE.INTRA.REPUL.0>
0

>  <SCORE.INTRA.SOLV>
0

>  <SCORE.INTRA.SOLV.lig_0>
-4.28614

>  <SCORE.INTRA.VDW>
0

>  <SCORE.INTRA.VDW.0>
0

>  <SCORE.INTRA.norm>
0

>  <SCORE.RESTR>
0

>  <SCORE.RESTR.CAVITY>
0

>  <SCORE.RESTR.norm>
0

>  <SCORE.SYSTEM>
0

>  <SCORE.SYSTEM.CONST>
0

>  <SCORE.SYSTEM.DIHEDRAL>
0

>  <SCORE.SYSTEM.SOLV>
0

>  <SCORE.SYSTEM.norm>
0

>  <SCORE.heavy>
10

>  <SCORE.norm>
-1.68773

>  <RMSD>
0.879

$$$$
ligand
 OpenBabel11021811423D
libRbt.so/2013.1/901 2013/11/27
 10 11  0  0  0  0  0  0  0  0999 V2000
  -12.1239  -10.2630    8.7465 N   0  0  0  0  0  0  0  0  0  0  0  0
  -12.0531  -11.5945    9.1609 C   0  0  0  0  0  0  0  0  0  0  0  0
  -11.7406  -12.5951    8.3181 N   0  0  0  0  0  0  0  0  0  0  0  0
  -11.4969  -12.1599    7.0185 C   0  0  0  0  0  0  0  0  0  0  0  0
  -11.5504  -10.8583    6.5165 C   0  0  0  0  0  0  0  0  0  0  0  0
  -11.8908   -9.7847    7.4133 C   0  0  0  0  0  0  0  0  0  0  0  0
  -11.9982   -8.5974    7.2228 O   0  0  0  0  0  0  0  0  0  0  0  0
  -11.2207  -10.8867    5.1492 N   0  0  0  0  0  0  0  0  0  0  0  0
  -10.9739  -12.1939    4.8648 C   0  0  0  0  0  0  0  0  0  0  0  0
  -11.1377  -13.0006    5.9996 N   0  0  0  0  0  0  0  0  0  0  0  0
  1  2  1  0  0  0  0
  1  6  1  0  0  0  0
  2  3  2  0  0  0  0
  3  4  1  0  0  0  0
  4  5  2  0  0  0  0
  4 10  1  0  0  0  0
  5  6  1  0  0  0  0
  5  8  1  0  0  0  0
  6  7  2  0  0  0  0
  8  9  1  0  0  0  0
  9 10  2  0  0  0  0
M  END
>  <CHROM.1>
-11.62628912,-11.14482764,7.04726607,2.91288500,1.31104534,-0.50996829

>  <Name>
ligand

>  <RI>
0

>  <Rbt.Current_Directory>
/home/itssahil/PROJECTS/Mol_Feturizer/New_Systems/rnas/2EES

>  <Rbt.Executable>
rbdock ($Id: //depot/dev/client3/rdock/2013.1/src/exe/rbdock.cxx#4 $)

>  <Rbt.Library>
libRbt.so (2013.1, Build901 2013/11/27)

>  <Rbt.Parameter_File>
/export/apps/rDock/src/rDock_2013.1_src/data/scripts/dock_solv.prm

>  <Rbt.Receptor>
prm/blind_docking_20.prm

>  <SCORE>
-16.8751

>  <SCORE.INTER>
-16.8751

>  <SCORE.INTER.CONST>
1

>  <SCORE.INTER.POLAR>
0

>  <SCORE.INTER.ROT>
0

>  <SCORE.INTER.SOLV>
3.90346

>  <SCORE.INTER.VDW>
-16.1513

>  <SCORE.INTER.norm>
-1.68751

>  <SCORE.INTRA>
0

>  <SCORE.INTRA.DIHEDRAL>
0

>  <SCORE.INTRA.DIHEDRAL.0>
0

>  <SCORE.INTRA.POLAR>
0

>  <SCORE.INTRA.POLAR.0>
0

>  <SCORE.INTRA.REPUL>
0

>  <SCORE.INTRA.REPUL.0>
0

>  <SCORE.INTRA.SOLV>
0

>  <SCORE.INTRA.SOLV.lig_0>
-4.28614

>  <SCORE.INTRA.VDW>
0

>  <SCORE.INTRA.VDW.0>
0

>  <SCORE.INTRA.norm>
0

>  <SCORE.RESTR>
0

>  <SCORE.RESTR.CAVITY>
0

>  <SCORE.RESTR.norm>
0

>  <SCORE.SYSTEM>
0

>  <SCORE.SYSTEM.CONST>
0

>  <SCORE.SYSTEM.DIHEDRAL>
0

>  <SCORE.SYSTEM.SOLV>
0

>  <SCORE.SYSTEM.norm>
0

>  <SCORE.heavy>
10

>  <SCORE.norm>
-1.68751

>  <RMSD>
0.880

$$$$
ligand
 OpenBabel11021811423D
libRbt.so/2013.1/901 2013/11/27
 10 11  0  0  0  0  0  0  0  0999 V2000
  -12.1256  -10.2655    8.7469 N   0  0  0  0  0  0  0  0  0  0  0  0
  -12.0713  -11.5995    9.1558 C   0  0  0  0  0  0  0  0  0  0  0  0
  -11.7575  -12.5989    8.3121 N   0  0  0  0  0  0  0  0  0  0  0  0
  -11.4947  -12.1599    7.0175 C   0  0  0  0  0  0  0  0  0  0  0  0
  -11.5309  -10.8555    6.5211 C   0  0  0  0  0  0  0  0  0  0  0  0
  -11.8726   -9.7832    7.4188 C   0  0  0  0  0  0  0  0  0  0  0  0
  -11.9676   -8.5941    7.2326 O   0  0  0  0  0  0  0  0  0  0  0  0
  -11.1853  -10.8806    5.1577 N   0  0  0  0  0  0  0  0  0  0  0  0
  -10.9465  -12.1886    4.8701 C   0  0  0  0  0  0  0  0  0  0  0  0
  -11.1307  -12.9990    5.9991 N   0  0  0  0  0  0  0  0  0  0  0  0
  1  2  1  0  0  0  0
  1  6  1  0  0  0  0
  2  3  2  0  0  0  0
  3  4  1  0  0  0  0
  4  5  2  0  0  0  0
  4 10  1  0  0  0  0
  5  6  1  0  0  0  0
  5  8  1  0  0  0  0
  6  7  2  0  0  0  0
  8  9  1  0  0  0  0
  9 10  2  0  0  0  0
M  END
>  <CHROM.1>
-11.61559425,-11.14382252,7.04955556,2.86219182,1.30458677,-0.45638123

>  <Name>
ligand

>  <RI>
0

>  <Rbt.Current_Directory>
/home/itssahil/PROJECTS/Mol_Feturizer/New_Systems/rnas/2EES

>  <Rbt.Executable>
rbdock ($Id: //depot/dev/client3/rdock/2013.1/src/exe/rbdock.cxx#4 $)

>  <Rbt.Library>
libRbt.so (2013.1, Build901 2013/11/27)

>  <Rbt.Parameter_File>
/export/apps/rDock/src/rDock_2013.1_src/data/scripts/dock_solv.prm

>  <Rbt.Receptor>
prm/blind_docking_20.prm

>  <SCORE>
-16.8705

>  <SCORE.INTER>
-16.8705

>  <SCORE.INTER.CONST>
1

>  <SCORE.INTER.POLAR>
0

>  <SCORE.INTER.ROT>
0

>  <SCORE.INTER.SOLV>
3.92923

>  <SCORE.INTER.VDW>
-16.1567

>  <SCORE.INTER.norm>
-1.68705

>  <SCORE.INTRA>
0

>  <SCORE.INTRA.DIHEDRAL>
0

>  <SCORE.INTRA.DIHEDRAL.0>
0

>  <SCORE.INTRA.POLAR>
0

>  <SCORE.INTRA.POLAR.0>
0

>  <SCORE.INTRA.REPUL>
0

>  <SCORE.INTRA.REPUL.0>
0

>  <SCORE.INTRA.SOLV>
0

>  <SCORE.INTRA.SOLV.lig_0>
-4.28614

>  <SCORE.INTRA.VDW>
0

>  <SCORE.INTRA.VDW.0>
0

>  <SCORE.INTRA.norm>
0

>  <SCORE.RESTR>
0

>  <SCORE.RESTR.CAVITY>
0

>  <SCORE.RESTR.norm>
0

>  <SCORE.SYSTEM>
0

>  <SCORE.SYSTEM.CONST>
0

>  <SCORE.SYSTEM.DIHEDRAL>
0

>  <SCORE.SYSTEM.SOLV>
0

>  <SCORE.SYSTEM.norm>
0

>  <SCORE.heavy>
10

>  <SCORE.norm>
-1.68705

>  <RMSD>
0.881

$$$$
ligand
 OpenBabel11021811423D
libRbt.so/2013.1/901 2013/11/27
 10 11  0  0  0  0  0  0  0  0999 V2000
  -12.1402  -10.2558    8.7220 N   0  0  0  0  0  0  0  0  0  0  0  0
  -12.0498  -11.5800    9.1554 C   0  0  0  0  0  0  0  0  0  0  0  0
  -11.7170  -12.5871    8.3282 N   0  0  0  0  0  0  0  0  0  0  0  0
  -11.4742  -12.1662    7.0238 C   0  0  0  0  0  0  0  0  0  0  0  0
  -11.5463  -10.8728    6.5033 C   0  0  0  0  0  0  0  0  0  0  0  0
  -11.9084   -9.7925    7.3832 C   0  0  0  0  0  0  0  0  0  0  0  0
  -12.0342   -8.6098    7.1755 O   0  0  0  0  0  0  0  0  0  0  0  0
  -11.2096  -10.9150    5.1380 N   0  0  0  0  0  0  0  0  0  0  0  0
  -10.9403  -12.2219    4.8732 C   0  0  0  0  0  0  0  0  0  0  0  0
  -11.0964  -13.0152    6.0185 N   0  0  0  0  0  0  0  0  0  0  0  0
  1  2  1  0  0  0  0
  1  6  1  0  0  0  0
  2  3  2  0  0  0  0
  3  4  1  0  0  0  0
  4  5  2  0  0  0  0
  4 10  1  0  0  0  0
  5  6  1  0  0  0  0
  5  8  1  0  0  0  0
  6  7  2  0  0  0  0
  8  9  1  0  0  0  0
  9 10  2  0  0  0  0
M  END
>  <CHROM.1>
-11.62012759,-11.15306919,7.03762764,2.95681028,1.29864161,-0.56640935

>  <Name>
ligand

>  <RI>
0

>  <Rbt.Current_Directory>
/home/itssahil/PROJECTS/Mol_Feturizer/New_Systems/rnas/2EES

>  <Rbt.Executable>
rbdock ($Id: //depot/dev/client3/rdock/2013.1/src/exe/rbdock.cxx#4 $)

>  <Rbt.Library>
libRbt.so (2013.1, Build901 2013/11/27)

>  <Rbt.Parameter_File>
/export/apps/rDock/src/rDock_2013.1_src/data/scripts/dock_solv.prm

>  <Rbt.Receptor>
prm/blind_docking_20.prm

>  <SCORE>
-16.8174

>  <SCORE.INTER>
-16.8174

>  <SCORE.INTER.CONST>
1

>  <SCORE.INTER.POLAR>
0

>  <SCORE.INTER.ROT>
0

>  <SCORE.INTER.SOLV>
3.83071

>  <SCORE.INTER.VDW>
-16.0885

>  <SCORE.INTER.norm>
-1.68174

>  <SCORE.INTRA>
0

>  <SCORE.INTRA.DIHEDRAL>
0

>  <SCORE.INTRA.DIHEDRAL.0>
0

>  <SCORE.INTRA.POLAR>
0

>  <SCORE.INTRA.POLAR.0>
0

>  <SCORE.INTRA.REPUL>
0

>  <SCORE.INTRA.REPUL.0>
0

>  <SCORE.INTRA.SOLV>
0

>  <SCORE.INTRA.SOLV.lig_0>
-4.28614

>  <SCORE.INTRA.VDW>
0

>  <SCORE.INTRA.VDW.0>
0

>  <SCORE.INTRA.norm>
0

>  <SCORE.RESTR>
0

>  <SCORE.RESTR.CAVITY>
0

>  <SCORE.RESTR.norm>
0

>  <SCORE.SYSTEM>
0

>  <SCORE.SYSTEM.CONST>
0

>  <SCORE.SYSTEM.DIHEDRAL>
0

>  <SCORE.SYSTEM.SOLV>
0

>  <SCORE.SYSTEM.norm>
0

>  <SCORE.heavy>
10

>  <SCORE.norm>
-1.68174

>  <RMSD>
0.884

$$$$
ligand
 OpenBabel11021811423D
libRbt.so/2013.1/901 2013/11/27
 10 11  0  0  0  0  0  0  0  0999 V2000
  -12.0915  -10.2521    8.7487 N   0  0  0  0  0  0  0  0  0  0  0  0
  -12.0317  -11.5855    9.1585 C   0  0  0  0  0  0  0  0  0  0  0  0
  -11.7283  -12.5859    8.3121 N   0  0  0  0  0  0  0  0  0  0  0  0
  -11.4821  -12.1484    7.0137 C   0  0  0  0  0  0  0  0  0  0  0  0
  -11.5251  -10.8447    6.5162 C   0  0  0  0  0  0  0  0  0  0  0  0
  -11.8556   -9.7713    7.4169 C   0  0  0  0  0  0  0  0  0  0  0  0
  -11.9532   -8.5825    7.2305 O   0  0  0  0  0  0  0  0  0  0  0  0
  -11.1968  -10.8713    5.1485 N   0  0  0  0  0  0  0  0  0  0  0  0
  -10.9614  -12.1796    4.8595 C   0  0  0  0  0  0  0  0  0  0  0  0
  -11.1310  -12.9886    5.9917 N   0  0  0  0  0  0  0  0  0  0  0  0
  1  2  1  0  0  0  0
  1  6  1  0  0  0  0
  2  3  2  0  0  0  0
  3  4  1  0  0  0  0
  4  5  2  0  0  0  0
  4 10  1  0  0  0  0
  5  6  1  0  0  0  0
  5  8  1  0  0  0  0
  6  7  2  0  0  0  0
  8  9  1  0  0  0  0
  9 10  2  0  0  0  0
M  END
>  <CHROM.1>
-11.60291463,-11.13233449,7.04605779,2.88533855,1.31583939,-0.47995865

>  <Name>
ligand

>  <RI>
0

>  <Rbt.Current_Directory>
/home/itssahil/PROJECTS/Mol_Feturizer/New_Systems/rnas/2EES

>  <Rbt.Executable>
rbdock ($Id: //depot/dev/client3/rdock/2013.1/src/exe/rbdock.cxx#4 $)

>  <Rbt.Library>
libRbt.so (2013.1, Build901 2013/11/27)

>  <Rbt.Parameter_File>
/export/apps/rDock/src/rDock_2013.1_src/data/scripts/dock_solv.prm

>  <Rbt.Receptor>
prm/blind_docking_20.prm

>  <SCORE>
-16.8461

>  <SCORE.INTER>
-16.8461

>  <SCORE.INTER.CONST>
1

>  <SCORE.INTER.POLAR>
0

>  <SCORE.INTER.ROT>
0

>  <SCORE.INTER.SOLV>
3.97505

>  <SCORE.INTER.VDW>
-16.1557

>  <SCORE.INTER.norm>
-1.68461

>  <SCORE.INTRA>
0

>  <SCORE.INTRA.DIHEDRAL>
0

>  <SCORE.INTRA.DIHEDRAL.0>
0

>  <SCORE.INTRA.POLAR>
0

>  <SCORE.INTRA.POLAR.0>
0

>  <SCORE.INTRA.REPUL>
0

>  <SCORE.INTRA.REPUL.0>
0

>  <SCORE.INTRA.SOLV>
0

>  <SCORE.INTRA.SOLV.lig_0>
-4.28614

>  <SCORE.INTRA.VDW>
0

>  <SCORE.INTRA.VDW.0>
0

>  <SCORE.INTRA.norm>
0

>  <SCORE.RESTR>
0

>  <SCORE.RESTR.CAVITY>
0

>  <SCORE.RESTR.norm>
0

>  <SCORE.SYSTEM>
0

>  <SCORE.SYSTEM.CONST>
0

>  <SCORE.SYSTEM.DIHEDRAL>
0

>  <SCORE.SYSTEM.SOLV>
0

>  <SCORE.SYSTEM.norm>
0

>  <SCORE.heavy>
10

>  <SCORE.norm>
-1.68461

>  <RMSD>
0.890

$$$$
ligand
 OpenBabel11021811423D
libRbt.so/2013.1/901 2013/11/27
 10 11  0  0  0  0  0  0  0  0999 V2000
  -12.1267  -11.0325    9.1832 N   0  0  0  0  0  0  0  0  0  0  0  0
  -12.1235   -9.8225    8.4863 C   0  0  0  0  0  0  0  0  0  0  0  0
  -11.8323   -9.7476    7.1753 N   0  0  0  0  0  0  0  0  0  0  0  0
  -11.5465  -10.9856    6.6066 C   0  0  0  0  0  0  0  0  0  0  0  0
  -11.5201  -12.2372    7.2244 C   0  0  0  0  0  0  0  0  0  0  0  0
  -11.8248  -12.3218    8.6289 C   0  0  0  0  0  0  0  0  0  0  0  0
  -11.8688  -13.2705    9.3743 O   0  0  0  0  0  0  0  0  0  0  0  0
  -11.1922  -13.2099    6.2624 N   0  0  0  0  0  0  0  0  0  0  0  0
  -11.0353  -12.5259    5.0970 C   0  0  0  0  0  0  0  0  0  0  0  0
  -11.2475  -11.1524    5.2813 N   0  0  0  0  0  0  0  0  0  0  0  0
  1  2  1  0  0  0  0
  1  6  1  0  0  0  0
  2  3  2  0  0  0  0
  3  4  1  0  0  0  0
  4  5  2  0  0  0  0
  4 10  1  0  0  0  0
  5  6  1  0  0  0  0
  5  8  1  0  0  0  0
  6  7  2  0  0  0  0
  8  9  1  0  0  0  0
  9 10  2  0  0  0  0
M  END
>  <CHROM.1>
-11.63697689,-11.65924392,7.37209088,2.69198352,-1.32134220,2.61158986

>  <Name>
ligand

>  <RI>
0

>  <Rbt.Current_Directory>
/home/itssahil/PROJECTS/Mol_Feturizer/New_Systems/rnas/2EES

>  <Rbt.Executable>
rbdock ($Id: //depot/dev/client3/rdock/2013.1/src/exe/rbdock.cxx#4 $)

>  <Rbt.Library>
libRbt.so (2013.1, Build901 2013/11/27)

>  <Rbt.Parameter_File>
/export/apps/rDock/src/rDock_2013.1_src/data/scripts/dock_solv.prm

>  <Rbt.Receptor>
prm/pocket_docking_3.prm

>  <SCORE>
-16.8939

>  <SCORE.INTER>
-16.8939

>  <SCORE.INTER.CONST>
1

>  <SCORE.INTER.POLAR>
0

>  <SCORE.INTER.ROT>
0

>  <SCORE.INTER.SOLV>
3.74205

>  <SCORE.INTER.VDW>
-16.11

>  <SCORE.INTER.norm>
-1.68939

>  <SCORE.INTRA>
0

>  <SCORE.INTRA.DIHEDRAL>
0

>  <SCORE.INTRA.DIHEDRAL.0>
0

>  <SCORE.INTRA.POLAR>
0

>  <SCORE.INTRA.POLAR.0>
0

>  <SCORE.INTRA.REPUL>
0

>  <SCORE.INTRA.REPUL.0>
0

>  <SCORE.INTRA.SOLV>
0

>  <SCORE.INTRA.SOLV.lig_0>
-4.28614

>  <SCORE.INTRA.VDW>
0

>  <SCORE.INTRA.VDW.0>
0

>  <SCORE.INTRA.norm>
0

>  <SCORE.RESTR>
0

>  <SCORE.RESTR.CAVITY>
0

>  <SCORE.RESTR.norm>
0

>  <SCORE.SYSTEM>
0

>  <SCORE.SYSTEM.CONST>
0

>  <SCORE.SYSTEM.DIHEDRAL>
0

>  <SCORE.SYSTEM.SOLV>
0

>  <SCORE.SYSTEM.norm>
0

>  <SCORE.heavy>
10

>  <SCORE.norm>
-1.68939

>  <RMSD>
2.440

$$$$
ligand
 OpenBabel11021811423D
libRbt.so/2013.1/901 2013/11/27
 10 11  0  0  0  0  0  0  0  0999 V2000
  -12.1246  -11.0425    9.1553 N   0  0  0  0  0  0  0  0  0  0  0  0
  -12.1428   -9.8177    8.4851 C   0  0  0  0  0  0  0  0  0  0  0  0
  -11.8389   -9.7069    7.1795 N   0  0  0  0  0  0  0  0  0  0  0  0
  -11.5171  -10.9249    6.5873 C   0  0  0  0  0  0  0  0  0  0  0  0
  -11.4674  -12.1889    7.1780 C   0  0  0  0  0  0  0  0  0  0  0  0
  -11.7855  -12.3116    8.5766 C   0  0  0  0  0  0  0  0  0  0  0  0
  -11.8150  -13.2774    9.3006 O   0  0  0  0  0  0  0  0  0  0  0  0
  -11.1055  -13.1320    6.1988 N   0  0  0  0  0  0  0  0  0  0  0  0
  -10.9522  -12.4189    5.0505 C   0  0  0  0  0  0  0  0  0  0  0  0
  -11.1995  -11.0553    5.2622 N   0  0  0  0  0  0  0  0  0  0  0  0
  1  2  1  0  0  0  0
  1  6  1  0  0  0  0
  2  3  2  0  0  0  0
  3  4  1  0  0  0  0
  4  5  2  0  0  0  0
  4 10  1  0  0  0  0
  5  6  1  0  0  0  0
  5  8  1  0  0  0  0
  6  7  2  0  0  0  0
  8  9  1  0  0  0  0
  9 10  2  0  0  0  0
M  END
>  <CHROM.1>
-11.59983001,-11.61728498,7.33683748,2.63536746,-1.29917153,2.57880964

>  <Name>
ligand

>  <RI>
0

>  <Rbt.Current_Directory>
/home/itssahil/PROJECTS/Mol_Feturizer/New_Systems/rnas/2EES

>  <Rbt.Executable>
rbdock ($Id: //depot/dev/client3/rdock/2013.1/src/exe/rbdock.cxx#4 $)

>  <Rbt.Library>
libRbt.so (2013.1, Build901 2013/11/27)

>  <Rbt.Parameter_File>
/export/apps/rDock/src/rDock_2013.1_src/data/scripts/dock_solv.prm

>  <Rbt.Receptor>
prm/pocket_docking_3.prm

>  <SCORE>
-16.9811

>  <SCORE.INTER>
-16.9811

>  <SCORE.INTER.CONST>
1

>  <SCORE.INTER.POLAR>
0

>  <SCORE.INTER.ROT>
0

>  <SCORE.INTER.SOLV>
3.72836

>  <SCORE.INTER.VDW>
-16.1635

>  <SCORE.INTER.norm>
-1.69811

>  <SCORE.INTRA>
0

>  <SCORE.INTRA.DIHEDRAL>
0

>  <SCORE.INTRA.DIHEDRAL.0>
0

>  <SCORE.INTRA.POLAR>
0

>  <SCORE.INTRA.POLAR.0>
0

>  <SCORE.INTRA.REPUL>
0

>  <SCORE.INTRA.REPUL.0>
0

>  <SCORE.INTRA.SOLV>
0

>  <SCORE.INTRA.SOLV.lig_0>
-4.28614

>  <SCORE.INTRA.VDW>
0

>  <SCORE.INTRA.VDW.0>
0

>  <SCORE.INTRA.norm>
0

>  <SCORE.RESTR>
0

>  <SCORE.RESTR.CAVITY>
0

>  <SCORE.RESTR.norm>
0

>  <SCORE.SYSTEM>
0

>  <SCORE.SYSTEM.CONST>
0

>  <SCORE.SYSTEM.DIHEDRAL>
0

>  <SCORE.SYSTEM.SOLV>
0

>  <SCORE.SYSTEM.norm>
0

>  <SCORE.heavy>
10

>  <SCORE.norm>
-1.69811

>  <RMSD>
2.447

$$$$
ligand
 OpenBabel11021811423D
libRbt.so/2013.1/901 2013/11/27
 10 11  0  0  0  0  0  0  0  0999 V2000
  -12.1102  -11.1168    9.2089 N   0  0  0  0  0  0  0  0  0  0  0  0
  -12.1471   -9.8685    8.5845 C   0  0  0  0  0  0  0  0  0  0  0  0
  -11.8561   -9.7065    7.2814 N   0  0  0  0  0  0  0  0  0  0  0  0
  -11.5270  -10.8983    6.6419 C   0  0  0  0  0  0  0  0  0  0  0  0
  -11.4588  -12.1826    7.1851 C   0  0  0  0  0  0  0  0  0  0  0  0
  -11.7631  -12.3601    8.5810 C   0  0  0  0  0  0  0  0  0  0  0  0
  -11.7760  -13.3521    9.2691 O   0  0  0  0  0  0  0  0  0  0  0  0
  -11.0958  -13.0851    6.1688 N   0  0  0  0  0  0  0  0  0  0  0  0
  -10.9602  -12.3286    5.0463 C   0  0  0  0  0  0  0  0  0  0  0  0
  -11.2198  -10.9765    5.3102 N   0  0  0  0  0  0  0  0  0  0  0  0
  1  2  1  0  0  0  0
  1  6  1  0  0  0  0
  2  3  2  0  0  0  0
  3  4  1  0  0  0  0
  4  5  2  0  0  0  0
  4 10  1  0  0  0  0
  5  6  1  0  0  0  0
  5  8  1  0  0  0  0
  6  7  2  0  0  0  0
  8  9  1  0  0  0  0
  9 10  2  0  0  0  0
M  END
>  <CHROM.1>
-11.59572347,-11.61864724,7.36608453,2.58441302,-1.30082747,2.56655964

>  <Name>
ligand

>  <RI>
0

>  <Rbt.Current_Directory>
/home/itssahil/PROJECTS/Mol_Feturizer/New_Systems/rnas/2EES

>  <Rbt.Executable>
rbdock ($Id: //depot/dev/client3/rdock/2013.1/src/exe/rbdock.cxx#4 $)

>  <Rbt.Library>
libRbt.so (2013.1, Build901 2013/11/27)

>  <Rbt.Parameter_File>
/export/apps/rDock/src/rDock_2013.1_src/data/scripts/dock_solv.prm

>  <Rbt.Receptor>
prm/pocket_docking_3.prm

>  <SCORE>
-16.9702

>  <SCORE.INTER>
-16.9702

>  <SCORE.INTER.CONST>
1

>  <SCORE.INTER.POLAR>
0

>  <SCORE.INTER.ROT>
0

>  <SCORE.INTER.SOLV>
3.81451

>  <SCORE.INTER.VDW>
-16.1849

>  <SCORE.INTER.norm>
-1.69702

>  <SCORE.INTRA>
0

>  <SCORE.INTRA.DIHEDRAL>
0

>  <SCORE.INTRA.DIHEDRAL.0>
0

>  <SCORE.INTRA.POLAR>
0

>  <SCORE.INTRA.POLAR.0>
0

>  <SCORE.INTRA.REPUL>
0

>  <SCORE.INTRA.REPUL.0>
0

>  <SCORE.INTRA.SOLV>
0

>  <SCORE.INTRA.SOLV.lig_0>
-4.28614

>  <SCORE.INTRA.VDW>
0

>  <SCORE.INTRA.VDW.0>
0

>  <SCORE.INTRA.norm>
0

>  <SCORE.RESTR>
0

>  <SCORE.RESTR.CAVITY>
0

>  <SCORE.RESTR.norm>
0

>  <SCORE.SYSTEM>
0

>  <SCORE.SYSTEM.CONST>
0

>  <SCORE.SYSTEM.DIHEDRAL>
0

>  <SCORE.SYSTEM.SOLV>
0

>  <SCORE.SYSTEM.norm>
0

>  <SCORE.heavy>
10

>  <SCORE.norm>
-1.69702

>  <RMSD>
2.447

$$$$
ligand
 OpenBabel11021811423D
libRbt.so/2013.1/901 2013/11/27
 10 11  0  0  0  0  0  0  0  0999 V2000
  -12.1257  -11.0283    9.1547 N   0  0  0  0  0  0  0  0  0  0  0  0
  -12.1382   -9.8054    8.4810 C   0  0  0  0  0  0  0  0  0  0  0  0
  -11.8331   -9.6996    7.1754 N   0  0  0  0  0  0  0  0  0  0  0  0
  -11.5162  -10.9206    6.5868 C   0  0  0  0  0  0  0  0  0  0  0  0
  -11.4723  -12.1831    7.1810 C   0  0  0  0  0  0  0  0  0  0  0  0
  -11.7918  -12.3006    8.5798 C   0  0  0  0  0  0  0  0  0  0  0  0
  -11.8259  -13.2641    9.3065 O   0  0  0  0  0  0  0  0  0  0  0  0
  -11.1139  -13.1305    6.2047 N   0  0  0  0  0  0  0  0  0  0  0  0
  -10.9568  -12.4214    5.0545 C   0  0  0  0  0  0  0  0  0  0  0  0
  -11.1983  -11.0561    5.2622 N   0  0  0  0  0  0  0  0  0  0  0  0
  1  2  1  0  0  0  0
  1  6  1  0  0  0  0
  2  3  2  0  0  0  0
  3  4  1  0  0  0  0
  4  5  2  0  0  0  0
  4 10  1  0  0  0  0
  5  6  1  0  0  0  0
  5  8  1  0  0  0  0
  6  7  2  0  0  0  0
  8  9  1  0  0  0  0
  9 10  2  0  0  0  0
M  END
>  <CHROM.1>
-11.60233461,-11.61050685,7.33817895,2.65034211,-1.30095116,2.59043637

>  <Name>
ligand

>  <RI>
0

>  <Rbt.Current_Directory>
/home/itssahil/PROJECTS/Mol_Feturizer/New_Systems/rnas/2EES

>  <Rbt.Executable>
rbdock ($Id: //depot/dev/client3/rdock/2013.1/src/exe/rbdock.cxx#4 $)

>  <Rbt.Library>
libRbt.so (2013.1, Build901 2013/11/27)

>  <Rbt.Parameter_File>
/export/apps/rDock/src/rDock_2013.1_src/data/scripts/dock_solv.prm

>  <Rbt.Receptor>
prm/pocket_docking_3.prm

>  <SCORE>
-16.9764

>  <SCORE.INTER>
-16.9764

>  <SCORE.INTER.CONST>
1

>  <SCORE.INTER.POLAR>
0

>  <SCORE.INTER.ROT>
0

>  <SCORE.INTER.SOLV>
3.72452

>  <SCORE.INTER.VDW>
-16.1591

>  <SCORE.INTER.norm>
-1.69764

>  <SCORE.INTRA>
0

>  <SCORE.INTRA.DIHEDRAL>
0

>  <SCORE.INTRA.DIHEDRAL.0>
0

>  <SCORE.INTRA.POLAR>
0

>  <SCORE.INTRA.POLAR.0>
0

>  <SCORE.INTRA.REPUL>
0

>  <SCORE.INTRA.REPUL.0>
0

>  <SCORE.INTRA.SOLV>
0

>  <SCORE.INTRA.SOLV.lig_0>
-4.28614

>  <SCORE.INTRA.VDW>
0

>  <SCORE.INTRA.VDW.0>
0

>  <SCORE.INTRA.norm>
0

>  <SCORE.RESTR>
0

>  <SCORE.RESTR.CAVITY>
0

>  <SCORE.RESTR.norm>
0

>  <SCORE.SYSTEM>
0

>  <SCORE.SYSTEM.CONST>
0

>  <SCORE.SYSTEM.DIHEDRAL>
0

>  <SCORE.SYSTEM.SOLV>
0

>  <SCORE.SYSTEM.norm>
0

>  <SCORE.heavy>
10

>  <SCORE.norm>
-1.69764

>  <RMSD>
2.447

$$$$
ligand
 OpenBabel11021811423D
libRbt.so/2013.1/901 2013/11/27
 10 11  0  0  0  0  0  0  0  0999 V2000
  -12.1092  -11.0501    9.1706 N   0  0  0  0  0  0  0  0  0  0  0  0
  -12.1018   -9.8073    8.5343 C   0  0  0  0  0  0  0  0  0  0  0  0
  -11.7988   -9.6673    7.2314 N   0  0  0  0  0  0  0  0  0  0  0  0
  -11.5057  -10.8754    6.6049 C   0  0  0  0  0  0  0  0  0  0  0  0
  -11.4827  -12.1560    7.1604 C   0  0  0  0  0  0  0  0  0  0  0  0
  -11.8000  -12.3101    8.5561 C   0  0  0  0  0  0  0  0  0  0  0  0
  -11.8491  -13.2945    9.2534 O   0  0  0  0  0  0  0  0  0  0  0  0
  -11.1444  -13.0795    6.1546 N   0  0  0  0  0  0  0  0  0  0  0  0
  -10.9781  -12.3386    5.0258 C   0  0  0  0  0  0  0  0  0  0  0  0
  -11.1944  -10.9762    5.2757 N   0  0  0  0  0  0  0  0  0  0  0  0
  1  2  1  0  0  0  0
  1  6  1  0  0  0  0
  2  3  2  0  0  0  0
  3  4  1  0  0  0  0
  4  5  2  0  0  0  0
  4 10  1  0  0  0  0
  5  6  1  0  0  0  0
  5  8  1  0  0  0  0
  6  7  2  0  0  0  0
  8  9  1  0  0  0  0
  9 10  2  0  0  0  0
M  END
>  <CHROM.1>
-11.60194514,-11.58612621,7.33532655,2.70400654,-1.31262174,2.67260320

>  <Name>
ligand

>  <RI>
0

>  <Rbt.Current_Directory>
/home/itssahil/PROJECTS/Mol_Feturizer/New_Systems/rnas/2EES

>  <Rbt.Executable>
rbdock ($Id: //depot/dev/client3/rdock/2013.1/src/exe/rbdock.cxx#4 $)

>  <Rbt.Library>
libRbt.so (2013.1, Build901 2013/11/27)

>  <Rbt.Parameter_File>
/export/apps/rDock/src/rDock_2013.1_src/data/scripts/dock_solv.prm

>  <Rbt.Receptor>
prm/pocket_docking_3.prm

>  <SCORE>
-16.9775

>  <SCORE.INTER>
-16.9775

>  <SCORE.INTER.CONST>
1

>  <SCORE.INTER.POLAR>
0

>  <SCORE.INTER.ROT>
0

>  <SCORE.INTER.SOLV>
3.80401

>  <SCORE.INTER.VDW>
-16.1863

>  <SCORE.INTER.norm>
-1.69775

>  <SCORE.INTRA>
0

>  <SCORE.INTRA.DIHEDRAL>
0

>  <SCORE.INTRA.DIHEDRAL.0>
0

>  <SCORE.INTRA.POLAR>
0

>  <SCORE.INTRA.POLAR.0>
0

>  <SCORE.INTRA.REPUL>
0

>  <SCORE.INTRA.REPUL.0>
0

>  <SCORE.INTRA.SOLV>
0

>  <SCORE.INTRA.SOLV.lig_0>
-4.28614

>  <SCORE.INTRA.VDW>
0

>  <SCORE.INTRA.VDW.0>
0

>  <SCORE.INTRA.norm>
0

>  <SCORE.RESTR>
0

>  <SCORE.RESTR.CAVITY>
0

>  <SCORE.RESTR.norm>
0

>  <SCORE.SYSTEM>
0

>  <SCORE.SYSTEM.CONST>
0

>  <SCORE.SYSTEM.DIHEDRAL>
0

>  <SCORE.SYSTEM.SOLV>
0

>  <SCORE.SYSTEM.norm>
0

>  <SCORE.heavy>
10

>  <SCORE.norm>
-1.69775

>  <RMSD>
2.449

$$$$
ligand
 OpenBabel11021811423D
libRbt.so/2013.1/901 2013/11/27
 10 11  0  0  0  0  0  0  0  0999 V2000
  -12.0918  -11.1275    9.2129 N   0  0  0  0  0  0  0  0  0  0  0  0
  -12.1365   -9.8768    8.5937 C   0  0  0  0  0  0  0  0  0  0  0  0
  -11.8575   -9.7092    7.2887 N   0  0  0  0  0  0  0  0  0  0  0  0
  -11.5321  -10.8980    6.6416 C   0  0  0  0  0  0  0  0  0  0  0  0
  -11.4568  -12.1842    7.1791 C   0  0  0  0  0  0  0  0  0  0  0  0
  -11.7483  -12.3678    8.5769 C   0  0  0  0  0  0  0  0  0  0  0  0
  -11.7533  -13.3625    9.2611 O   0  0  0  0  0  0  0  0  0  0  0  0
  -11.1015  -13.0821    6.1560 N   0  0  0  0  0  0  0  0  0  0  0  0
  -10.9773  -12.3210    5.0353 C   0  0  0  0  0  0  0  0  0  0  0  0
  -11.2368  -10.9703    5.3069 N   0  0  0  0  0  0  0  0  0  0  0  0
  1  2  1  0  0  0  0
  1  6  1  0  0  0  0
  2  3  2  0  0  0  0
  3  4  1  0  0  0  0
  4  5  2  0  0  0  0
  4 10  1  0  0  0  0
  5  6  1  0  0  0  0
  5  8  1  0  0  0  0
  6  7  2  0  0  0  0
  8  9  1  0  0  0  0
  9 10  2  0  0  0  0
M  END
>  <CHROM.1>
-11.59309574,-11.62125493,7.36349530,2.56015784,-1.30738498,2.54710561

>  <Name>
ligand

>  <RI>
0

>  <Rbt.Current_Directory>
/home/itssahil/PROJECTS/Mol_Feturizer/New_Systems/rnas/2EES

>  <Rbt.Executable>
rbdock ($Id: //depot/dev/client3/rdock/2013.1/src/exe/rbdock.cxx#4 $)

>  <Rbt.Library>
libRbt.so (2013.1, Build901 2013/11/27)

>  <Rbt.Parameter_File>
/export/apps/rDock/src/rDock_2013.1_src/data/scripts/dock_solv.prm

>  <Rbt.Receptor>
prm/pocket_docking_7.prm

>  <SCORE>
-16.9826

>  <SCORE.INTER>
-16.9826

>  <SCORE.INTER.CONST>
1

>  <SCORE.INTER.POLAR>
0

>  <SCORE.INTER.ROT>
0

>  <SCORE.INTER.SOLV>
3.83506

>  <SCORE.INTER.VDW>
-16.2001

>  <SCORE.INTER.norm>
-1.69826

>  <SCORE.INTRA>
0

>  <SCORE.INTRA.DIHEDRAL>
0

>  <SCORE.INTRA.DIHEDRAL.0>
0

>  <SCORE.INTRA.POLAR>
0

>  <SCORE.INTRA.POLAR.0>
0

>  <SCORE.INTRA.REPUL>
0

>  <SCORE.INTRA.REPUL.0>
0

>  <SCORE.INTRA.SOLV>
0

>  <SCORE.INTRA.SOLV.lig_0>
-4.28614

>  <SCORE.INTRA.VDW>
0

>  <SCORE.INTRA.VDW.0>
0

>  <SCORE.INTRA.norm>
0

>  <SCORE.RESTR>
0

>  <SCORE.RESTR.CAVITY>
0

>  <SCORE.RESTR.norm>
0

>  <SCORE.SYSTEM>
0

>  <SCORE.SYSTEM.CONST>
0

>  <SCORE.SYSTEM.DIHEDRAL>
0

>  <SCORE.SYSTEM.SOLV>
0

>  <SCORE.SYSTEM.norm>
0

>  <SCORE.heavy>
10

>  <SCORE.norm>
-1.69826

>  <RMSD>
2.449

$$$$
ligand
 OpenBabel11021811423D
libRbt.so/2013.1/901 2013/11/27
 10 11  0  0  0  0  0  0  0  0999 V2000
  -12.1068  -11.0892    9.1904 N   0  0  0  0  0  0  0  0  0  0  0  0
  -12.1311   -9.8404    8.5662 C   0  0  0  0  0  0  0  0  0  0  0  0
  -11.8423   -9.6817    7.2622 N   0  0  0  0  0  0  0  0  0  0  0  0
  -11.5291  -10.8773    6.6216 C   0  0  0  0  0  0  0  0  0  0  0  0
  -11.4742  -12.1623    7.1645 C   0  0  0  0  0  0  0  0  0  0  0  0
  -11.7763  -12.3364    8.5613 C   0  0  0  0  0  0  0  0  0  0  0  0
  -11.7986  -13.3282    9.2494 O   0  0  0  0  0  0  0  0  0  0  0  0
  -11.1251  -13.0688    6.1470 N   0  0  0  0  0  0  0  0  0  0  0  0
  -10.9842  -12.3139    5.0241 C   0  0  0  0  0  0  0  0  0  0  0  0
  -11.2271  -10.9589    5.2890 N   0  0  0  0  0  0  0  0  0  0  0  0
  1  2  1  0  0  0  0
  1  6  1  0  0  0  0
  2  3  2  0  0  0  0
  3  4  1  0  0  0  0
  4  5  2  0  0  0  0
  4 10  1  0  0  0  0
  5  6  1  0  0  0  0
  5  8  1  0  0  0  0
  6  7  2  0  0  0  0
  8  9  1  0  0  0  0
  9 10  2  0  0  0  0
M  END
>  <CHROM.1>
-11.60402208,-11.59681458,7.34594741,2.61580034,-1.30969776,2.59693464

>  <Name>
ligand

>  <RI>
0

>  <Rbt.Current_Directory>
/home/itssahil/PROJECTS/Mol_Feturizer/New_Systems/rnas/2EES

>  <Rbt.Executable>
rbdock ($Id: //depot/dev/client3/rdock/2013.1/src/exe/rbdock.cxx#4 $)

>  <Rbt.Library>
libRbt.so (2013.1, Build901 2013/11/27)

>  <Rbt.Parameter_File>
/export/apps/rDock/src/rDock_2013.1_src/data/scripts/dock_solv.prm

>  <Rbt.Receptor>
prm/blind_docking_40.prm

>  <SCORE>
-16.974

>  <SCORE.INTER>
-16.974

>  <SCORE.INTER.CONST>
1

>  <SCORE.INTER.POLAR>
0

>  <SCORE.INTER.ROT>
0

>  <SCORE.INTER.SOLV>
3.8193

>  <SCORE.INTER.VDW>
-16.1891

>  <SCORE.INTER.norm>
-1.6974

>  <SCORE.INTRA>
0

>  <SCORE.INTRA.DIHEDRAL>
0

>  <SCORE.INTRA.DIHEDRAL.0>
0

>  <SCORE.INTRA.POLAR>
0

>  <SCORE.INTRA.POLAR.0>
0

>  <SCORE.INTRA.REPUL>
0

>  <SCORE.INTRA.REPUL.0>
0

>  <SCORE.INTRA.SOLV>
0

>  <SCORE.INTRA.SOLV.lig_0>
-4.28614

>  <SCORE.INTRA.VDW>
0

>  <SCORE.INTRA.VDW.0>
0

>  <SCORE.INTRA.norm>
0

>  <SCORE.RESTR>
0

>  <SCORE.RESTR.CAVITY>
0

>  <SCORE.RESTR.norm>
0

>  <SCORE.SYSTEM>
0

>  <SCORE.SYSTEM.CONST>
0

>  <SCORE.SYSTEM.DIHEDRAL>
0

>  <SCORE.SYSTEM.SOLV>
0

>  <SCORE.SYSTEM.norm>
0

>  <SCORE.heavy>
10

>  <SCORE.norm>
-1.6974

>  <RMSD>
2.450

$$$$
ligand
 OpenBabel11021811423D
libRbt.so/2013.1/901 2013/11/27
 10 11  0  0  0  0  0  0  0  0999 V2000
  -12.1017  -11.0616    9.1643 N   0  0  0  0  0  0  0  0  0  0  0  0
  -12.1045   -9.8174    8.5305 C   0  0  0  0  0  0  0  0  0  0  0  0
  -11.8060   -9.6728    7.2270 N   0  0  0  0  0  0  0  0  0  0  0  0
  -11.5064  -10.8776    6.5973 C   0  0  0  0  0  0  0  0  0  0  0  0
  -11.4732  -12.1591    7.1502 C   0  0  0  0  0  0  0  0  0  0  0  0
  -11.7857  -12.3182    8.5465 C   0  0  0  0  0  0  0  0  0  0  0  0
  -11.8262  -13.3043    9.2418 O   0  0  0  0  0  0  0  0  0  0  0  0
  -11.1314  -13.0783    6.1416 N   0  0  0  0  0  0  0  0  0  0  0  0
  -10.9733  -12.3340    5.0139 C   0  0  0  0  0  0  0  0  0  0  0  0
  -11.1980  -10.9736    5.2671 N   0  0  0  0  0  0  0  0  0  0  0  0
  1  2  1  0  0  0  0
  1  6  1  0  0  0  0
  2  3  2  0  0  0  0
  3  4  1  0  0  0  0
  4  5  2  0  0  0  0
  4 10  1  0  0  0  0
  5  6  1  0  0  0  0
  5  8  1  0  0  0  0
  6  7  2  0  0  0  0
  8  9  1  0  0  0  0
  9 10  2  0  0  0  0
M  END
>  <CHROM.1>
-11.59586860,-11.59041574,7.32659546,2.67564036,-1.31188225,2.64719334

>  <Name>
ligand

>  <RI>
0

>  <Rbt.Current_Directory>
/home/itssahil/PROJECTS/Mol_Feturizer/New_Systems/rnas/2EES

>  <Rbt.Executable>
rbdock ($Id: //depot/dev/client3/rdock/2013.1/src/exe/rbdock.cxx#4 $)

>  <Rbt.Library>
libRbt.so (2013.1, Build901 2013/11/27)

>  <Rbt.Parameter_File>
/export/apps/rDock/src/rDock_2013.1_src/data/scripts/dock_solv.prm

>  <Rbt.Receptor>
prm/pocket_docking_3.prm

>  <SCORE>
-16.9593

>  <SCORE.INTER>
-16.9593

>  <SCORE.INTER.CONST>
1

>  <SCORE.INTER.POLAR>
0

>  <SCORE.INTER.ROT>
0

>  <SCORE.INTER.SOLV>
3.80728

>  <SCORE.INTER.VDW>
-16.1753

>  <SCORE.INTER.norm>
-1.69593

>  <SCORE.INTRA>
0

>  <SCORE.INTRA.DIHEDRAL>
0

>  <SCORE.INTRA.DIHEDRAL.0>
0

>  <SCORE.INTRA.POLAR>
0

>  <SCORE.INTRA.POLAR.0>
0

>  <SCORE.INTRA.REPUL>
0

>  <SCORE.INTRA.REPUL.0>
0

>  <SCORE.INTRA.SOLV>
0

>  <SCORE.INTRA.SOLV.lig_0>
-4.28614

>  <SCORE.INTRA.VDW>
0

>  <SCORE.INTRA.VDW.0>
0

>  <SCORE.INTRA.norm>
0

>  <SCORE.RESTR>
0

>  <SCORE.RESTR.CAVITY>
0

>  <SCORE.RESTR.norm>
0

>  <SCORE.SYSTEM>
0

>  <SCORE.SYSTEM.CONST>
0

>  <SCORE.SYSTEM.DIHEDRAL>
0

>  <SCORE.SYSTEM.SOLV>
0

>  <SCORE.SYSTEM.norm>
0

>  <SCORE.heavy>
10

>  <SCORE.norm>
-1.69593

>  <RMSD>
2.450

$$$$
ligand
 OpenBabel11021811423D
libRbt.so/2013.1/901 2013/11/27
 10 11  0  0  0  0  0  0  0  0999 V2000
  -12.1320  -11.1007    9.1524 N   0  0  0  0  0  0  0  0  0  0  0  0
  -12.1443   -9.8532    8.5253 C   0  0  0  0  0  0  0  0  0  0  0  0
  -11.8375   -9.6981    7.2249 N   0  0  0  0  0  0  0  0  0  0  0  0
  -11.5192  -10.8959    6.5911 C   0  0  0  0  0  0  0  0  0  0  0  0
  -11.4754  -12.1799    7.1374 C   0  0  0  0  0  0  0  0  0  0  0  0
  -11.7967  -12.3502    8.5304 C   0  0  0  0  0  0  0  0  0  0  0  0
  -11.8312  -13.3405    9.2201 O   0  0  0  0  0  0  0  0  0  0  0  0
  -11.1153  -13.0897    6.1266 N   0  0  0  0  0  0  0  0  0  0  0  0
  -10.9571  -12.3376    5.0041 C   0  0  0  0  0  0  0  0  0  0  0  0
  -11.1995  -10.9812    5.2628 N   0  0  0  0  0  0  0  0  0  0  0  0
  1  2  1  0  0  0  0
  1  6  1  0  0  0  0
  2  3  2  0  0  0  0
  3  4  1  0  0  0  0
  4  5  2  0  0  0  0
  4 10  1  0  0  0  0
  5  6  1  0  0  0  0
  5  8  1  0  0  0  0
  6  7  2  0  0  0  0
  8  9  1  0  0  0  0
  9 10  2  0  0  0  0
M  END
>  <CHROM.1>
-11.60598765,-11.61370206,7.31587494,2.65118726,-1.29955069,2.62896522

>  <Name>
ligand

>  <RI>
0

>  <Rbt.Current_Directory>
/home/itssahil/PROJECTS/Mol_Feturizer/New_Systems/rnas/2EES

>  <Rbt.Executable>
rbdock ($Id: //depot/dev/client3/rdock/2013.1/src/exe/rbdock.cxx#4 $)

>  <Rbt.Library>
libRbt.so (2013.1, Build901 2013/11/27)

>  <Rbt.Parameter_File>
/export/apps/rDock/src/rDock_2013.1_src/data/scripts/dock_solv.prm

>  <Rbt.Receptor>
prm/pocket_docking_3.prm

>  <SCORE>
-16.9423

>  <SCORE.INTER>
-16.9423

>  <SCORE.INTER.CONST>
1

>  <SCORE.INTER.POLAR>
0

>  <SCORE.INTER.ROT>
0

>  <SCORE.INTER.SOLV>
3.80221

>  <SCORE.INTER.VDW>
-16.1623

>  <SCORE.INTER.norm>
-1.69423

>  <SCORE.INTRA>
0

>  <SCORE.INTRA.DIHEDRAL>
0

>  <SCORE.INTRA.DIHEDRAL.0>
0

>  <SCORE.INTRA.POLAR>
0

>  <SCORE.INTRA.POLAR.0>
0

>  <SCORE.INTRA.REPUL>
0

>  <SCORE.INTRA.REPUL.0>
0

>  <SCORE.INTRA.SOLV>
0

>  <SCORE.INTRA.SOLV.lig_0>
-4.28614

>  <SCORE.INTRA.VDW>
0

>  <SCORE.INTRA.VDW.0>
0

>  <SCORE.INTRA.norm>
0

>  <SCORE.RESTR>
0

>  <SCORE.RESTR.CAVITY>
0

>  <SCORE.RESTR.norm>
0

>  <SCORE.SYSTEM>
0

>  <SCORE.SYSTEM.CONST>
0

>  <SCORE.SYSTEM.DIHEDRAL>
0

>  <SCORE.SYSTEM.SOLV>
0

>  <SCORE.SYSTEM.norm>
0

>  <SCORE.heavy>
10

>  <SCORE.norm>
-1.69423

>  <RMSD>
2.451

$$$$
ligand
 OpenBabel11021811423D
libRbt.so/2013.1/901 2013/11/27
 10 11  0  0  0  0  0  0  0  0999 V2000
  -12.1371  -11.0320    9.1363 N   0  0  0  0  0  0  0  0  0  0  0  0
  -12.1646   -9.8022    8.4758 C   0  0  0  0  0  0  0  0  0  0  0  0
  -11.8492   -9.6768    7.1743 N   0  0  0  0  0  0  0  0  0  0  0  0
  -11.5056  -10.8856    6.5756 C   0  0  0  0  0  0  0  0  0  0  0  0
  -11.4453  -12.1536    7.1566 C   0  0  0  0  0  0  0  0  0  0  0  0
  -11.7757  -12.2919    8.5509 C   0  0  0  0  0  0  0  0  0  0  0  0
  -11.7998  -13.2638    9.2668 O   0  0  0  0  0  0  0  0  0  0  0  0
  -11.0614  -13.0839    6.1736 N   0  0  0  0  0  0  0  0  0  0  0  0
  -10.9059  -12.3596    5.0326 C   0  0  0  0  0  0  0  0  0  0  0  0
  -11.1731  -11.0010    5.2528 N   0  0  0  0  0  0  0  0  0  0  0  0
  1  2  1  0  0  0  0
  1  6  1  0  0  0  0
  2  3  2  0  0  0  0
  3  4  1  0  0  0  0
  4  5  2  0  0  0  0
  4 10  1  0  0  0  0
  5  6  1  0  0  0  0
  5  8  1  0  0  0  0
  6  7  2  0  0  0  0
  8  9  1  0  0  0  0
  9 10  2  0  0  0  0
M  END
>  <CHROM.1>
-11.58673658,-11.58510157,7.31868409,2.61519002,-1.28371397,2.56753390

>  <Name>
ligand

>  <RI>
0

>  <Rbt.Current_Directory>
/home/itssahil/PROJECTS/Mol_Feturizer/New_Systems/rnas/2EES

>  <Rbt.Executable>
rbdock ($Id: //depot/dev/client3/rdock/2013.1/src/exe/rbdock.cxx#4 $)

>  <Rbt.Library>
libRbt.so (2013.1, Build901 2013/11/27)

>  <Rbt.Parameter_File>
/export/apps/rDock/src/rDock_2013.1_src/data/scripts/dock_solv.prm

>  <Rbt.Receptor>
prm/pocket_docking_3.prm

>  <SCORE>
-17.0233

>  <SCORE.INTER>
-17.0233

>  <SCORE.INTER.CONST>
1

>  <SCORE.INTER.POLAR>
0

>  <SCORE.INTER.ROT>
0

>  <SCORE.INTER.SOLV>
3.70279

>  <SCORE.INTER.VDW>
-16.1831

>  <SCORE.INTER.norm>
-1.70233

>  <SCORE.INTRA>
0

>  <SCORE.INTRA.DIHEDRAL>
0

>  <SCORE.INTRA.DIHEDRAL.0>
0

>  <SCORE.INTRA.POLAR>
0

>  <SCORE.INTRA.POLAR.0>
0

>  <SCORE.INTRA.REPUL>
0

>  <SCORE.INTRA.REPUL.0>
0

>  <SCORE.INTRA.SOLV>
0

>  <SCORE.INTRA.SOLV.lig_0>
-4.28614

>  <SCORE.INTRA.VDW>
0

>  <SCORE.INTRA.VDW.0>
0

>  <SCORE.INTRA.norm>
0

>  <SCORE.RESTR>
0

>  <SCORE.RESTR.CAVITY>
0

>  <SCORE.RESTR.norm>
0

>  <SCORE.SYSTEM>
0

>  <SCORE.SYSTEM.CONST>
0

>  <SCORE.SYSTEM.DIHEDRAL>
0

>  <SCORE.SYSTEM.SOLV>
0

>  <SCORE.SYSTEM.norm>
0

>  <SCORE.heavy>
10

>  <SCORE.norm>
-1.70233

>  <RMSD>
2.451

$$$$
ligand
 OpenBabel11021811423D
libRbt.so/2013.1/901 2013/11/27
 10 11  0  0  0  0  0  0  0  0999 V2000
  -12.1177  -11.0399    9.1569 N   0  0  0  0  0  0  0  0  0  0  0  0
  -12.1198   -9.7991    8.5165 C   0  0  0  0  0  0  0  0  0  0  0  0
  -11.8147   -9.6608    7.2138 N   0  0  0  0  0  0  0  0  0  0  0  0
  -11.5093  -10.8683    6.5921 C   0  0  0  0  0  0  0  0  0  0  0  0
  -11.4762  -12.1467    7.1520 C   0  0  0  0  0  0  0  0  0  0  0  0
  -11.7957  -12.2991    8.5475 C   0  0  0  0  0  0  0  0  0  0  0  0
  -11.8378  -13.2815    9.2478 O   0  0  0  0  0  0  0  0  0  0  0  0
  -11.1270  -13.0705    6.1501 N   0  0  0  0  0  0  0  0  0  0  0  0
  -10.9645  -12.3320    5.0193 C   0  0  0  0  0  0  0  0  0  0  0  0
  -11.1936  -10.9707    5.2641 N   0  0  0  0  0  0  0  0  0  0  0  0
  1  2  1  0  0  0  0
  1  6  1  0  0  0  0
  2  3  2  0  0  0  0
  3  4  1  0  0  0  0
  4  5  2  0  0  0  0
  4 10  1  0  0  0  0
  5  6  1  0  0  0  0
  5  8  1  0  0  0  0
  6  7  2  0  0  0  0
  8  9  1  0  0  0  0
  9 10  2  0  0  0  0
M  END
>  <CHROM.1>
-11.60099009,-11.57740233,7.32472710,2.67791168,-1.30619091,2.64404826

>  <Name>
ligand

>  <RI>
0

>  <Rbt.Current_Directory>
/home/itssahil/PROJECTS/Mol_Feturizer/New_Systems/rnas/2EES

>  <Rbt.Executable>
rbdock ($Id: //depot/dev/client3/rdock/2013.1/src/exe/rbdock.cxx#4 $)

>  <Rbt.Library>
libRbt.so (2013.1, Build901 2013/11/27)

>  <Rbt.Parameter_File>
/export/apps/rDock/src/rDock_2013.1_src/data/scripts/dock_solv.prm

>  <Rbt.Receptor>
prm/pocket_docking_3.prm

>  <SCORE>
-16.9532

>  <SCORE.INTER>
-16.9532

>  <SCORE.INTER.CONST>
1

>  <SCORE.INTER.POLAR>
0

>  <SCORE.INTER.ROT>
0

>  <SCORE.INTER.SOLV>
3.77556

>  <SCORE.INTER.VDW>
-16.1606

>  <SCORE.INTER.norm>
-1.69532

>  <SCORE.INTRA>
0

>  <SCORE.INTRA.DIHEDRAL>
0

>  <SCORE.INTRA.DIHEDRAL.0>
0

>  <SCORE.INTRA.POLAR>
0

>  <SCORE.INTRA.POLAR.0>
0

>  <SCORE.INTRA.REPUL>
0

>  <SCORE.INTRA.REPUL.0>
0

>  <SCORE.INTRA.SOLV>
0

>  <SCORE.INTRA.SOLV.lig_0>
-4.28614

>  <SCORE.INTRA.VDW>
0

>  <SCORE.INTRA.VDW.0>
0

>  <SCORE.INTRA.norm>
0

>  <SCORE.RESTR>
0

>  <SCORE.RESTR.CAVITY>
0

>  <SCORE.RESTR.norm>
0

>  <SCORE.SYSTEM>
0

>  <SCORE.SYSTEM.CONST>
0

>  <SCORE.SYSTEM.DIHEDRAL>
0

>  <SCORE.SYSTEM.SOLV>
0

>  <SCORE.SYSTEM.norm>
0

>  <SCORE.heavy>
10

>  <SCORE.norm>
-1.69532

>  <RMSD>
2.451

$$$$
ligand
 OpenBabel11021811423D
libRbt.so/2013.1/901 2013/11/27
 10 11  0  0  0  0  0  0  0  0999 V2000
  -12.0965  -11.1278    9.2055 N   0  0  0  0  0  0  0  0  0  0  0  0
  -12.1497   -9.8768    8.5876 C   0  0  0  0  0  0  0  0  0  0  0  0
  -11.8794   -9.7072    7.2810 N   0  0  0  0  0  0  0  0  0  0  0  0
  -11.5536  -10.8942    6.6310 C   0  0  0  0  0  0  0  0  0  0  0  0
  -11.4703  -12.1806    7.1670 C   0  0  0  0  0  0  0  0  0  0  0  0
  -11.7524  -12.3663    8.5665 C   0  0  0  0  0  0  0  0  0  0  0  0
  -11.7495  -13.3615    9.2500 O   0  0  0  0  0  0  0  0  0  0  0  0
  -11.1180  -13.0764    6.1411 N   0  0  0  0  0  0  0  0  0  0  0  0
  -11.0036  -12.3140    5.0202 C   0  0  0  0  0  0  0  0  0  0  0  0
  -11.2664  -10.9645    5.2945 N   0  0  0  0  0  0  0  0  0  0  0  0
  1  2  1  0  0  0  0
  1  6  1  0  0  0  0
  2  3  2  0  0  0  0
  3  4  1  0  0  0  0
  4  5  2  0  0  0  0
  4 10  1  0  0  0  0
  5  6  1  0  0  0  0
  5  8  1  0  0  0  0
  6  7  2  0  0  0  0
  8  9  1  0  0  0  0
  9 10  2  0  0  0  0
M  END
>  <CHROM.1>
-11.60751126,-11.61827531,7.35271373,2.53476944,-1.31038132,2.52333096

>  <Name>
ligand

>  <RI>
0

>  <Rbt.Current_Directory>
/home/itssahil/PROJECTS/Mol_Feturizer/New_Systems/rnas/2EES

>  <Rbt.Executable>
rbdock ($Id: //depot/dev/client3/rdock/2013.1/src/exe/rbdock.cxx#4 $)

>  <Rbt.Library>
libRbt.so (2013.1, Build901 2013/11/27)

>  <Rbt.Parameter_File>
/export/apps/rDock/src/rDock_2013.1_src/data/scripts/dock_solv.prm

>  <Rbt.Receptor>
prm/pocket_docking_7.prm

>  <SCORE>
-16.9873

>  <SCORE.INTER>
-16.9873

>  <SCORE.INTER.CONST>
1

>  <SCORE.INTER.POLAR>
0

>  <SCORE.INTER.ROT>
0

>  <SCORE.INTER.SOLV>
3.83482

>  <SCORE.INTER.VDW>
-16.2032

>  <SCORE.INTER.norm>
-1.69873

>  <SCORE.INTRA>
0

>  <SCORE.INTRA.DIHEDRAL>
0

>  <SCORE.INTRA.DIHEDRAL.0>
0

>  <SCORE.INTRA.POLAR>
0

>  <SCORE.INTRA.POLAR.0>
0

>  <SCORE.INTRA.REPUL>
0

>  <SCORE.INTRA.REPUL.0>
0

>  <SCORE.INTRA.SOLV>
0

>  <SCORE.INTRA.SOLV.lig_0>
-4.28614

>  <SCORE.INTRA.VDW>
0

>  <SCORE.INTRA.VDW.0>
0

>  <SCORE.INTRA.norm>
0

>  <SCORE.RESTR>
0

>  <SCORE.RESTR.CAVITY>
0

>  <SCORE.RESTR.norm>
0

>  <SCORE.SYSTEM>
0

>  <SCORE.SYSTEM.CONST>
0

>  <SCORE.SYSTEM.DIHEDRAL>
0

>  <SCORE.SYSTEM.SOLV>
0

>  <SCORE.SYSTEM.norm>
0

>  <SCORE.heavy>
10

>  <SCORE.norm>
-1.69873

>  <RMSD>
2.451

$$$$
ligand
 OpenBabel11021811423D
libRbt.so/2013.1/901 2013/11/27
 10 11  0  0  0  0  0  0  0  0999 V2000
  -12.1055  -11.1360    9.1897 N   0  0  0  0  0  0  0  0  0  0  0  0
  -12.1310   -9.8774    8.5858 C   0  0  0  0  0  0  0  0  0  0  0  0
  -11.8387   -9.6967    7.2854 N   0  0  0  0  0  0  0  0  0  0  0  0
  -11.5207  -10.8809    6.6264 C   0  0  0  0  0  0  0  0  0  0  0  0
  -11.4643  -12.1745    7.1485 C   0  0  0  0  0  0  0  0  0  0  0  0
  -11.7701  -12.3721    8.5413 C   0  0  0  0  0  0  0  0  0  0  0  0
  -11.7920  -13.3750    9.2130 O   0  0  0  0  0  0  0  0  0  0  0  0
  -11.1100  -13.0635    6.1174 N   0  0  0  0  0  0  0  0  0  0  0  0
  -10.9676  -12.2900    5.0074 C   0  0  0  0  0  0  0  0  0  0  0  0
  -11.2145  -10.9400    5.2935 N   0  0  0  0  0  0  0  0  0  0  0  0
  1  2  1  0  0  0  0
  1  6  1  0  0  0  0
  2  3  2  0  0  0  0
  3  4  1  0  0  0  0
  4  5  2  0  0  0  0
  4 10  1  0  0  0  0
  5  6  1  0  0  0  0
  5  8  1  0  0  0  0
  6  7  2  0  0  0  0
  8  9  1  0  0  0  0
  9 10  2  0  0  0  0
M  END
>  <CHROM.1>
-11.59604028,-11.61234782,7.33868379,2.61376282,-1.30591202,2.61127296

>  <Name>
ligand

>  <RI>
0

>  <Rbt.Current_Directory>
/home/itssahil/PROJECTS/Mol_Feturizer/New_Systems/rnas/2EES

>  <Rbt.Executable>
rbdock ($Id: //depot/dev/client3/rdock/2013.1/src/exe/rbdock.cxx#4 $)

>  <Rbt.Library>
libRbt.so (2013.1, Build901 2013/11/27)

>  <Rbt.Parameter_File>
/export/apps/rDock/src/rDock_2013.1_src/data/scripts/dock_solv.prm

>  <Rbt.Receptor>
prm/pocket_docking_8.prm

>  <SCORE>
-16.9497

>  <SCORE.INTER>
-16.9497

>  <SCORE.INTER.CONST>
1

>  <SCORE.INTER.POLAR>
0

>  <SCORE.INTER.ROT>
0

>  <SCORE.INTER.SOLV>
3.85484

>  <SCORE.INTER.VDW>
-16.1847

>  <SCORE.INTER.norm>
-1.69497

>  <SCORE.INTRA>
0

>  <SCORE.INTRA.DIHEDRAL>
0

>  <SCORE.INTRA.DIHEDRAL.0>
0

>  <SCORE.INTRA.POLAR>
0

>  <SCORE.INTRA.POLAR.0>
0

>  <SCORE.INTRA.REPUL>
0

>  <SCORE.INTRA.REPUL.0>
0

>  <SCORE.INTRA.SOLV>
0

>  <SCORE.INTRA.SOLV.lig_0>
-4.28614

>  <SCORE.INTRA.VDW>
0

>  <SCORE.INTRA.VDW.0>
0

>  <SCORE.INTRA.norm>
0

>  <SCORE.RESTR>
0

>  <SCORE.RESTR.CAVITY>
0

>  <SCORE.RESTR.norm>
0

>  <SCORE.SYSTEM>
0

>  <SCORE.SYSTEM.CONST>
0

>  <SCORE.SYSTEM.DIHEDRAL>
0

>  <SCORE.SYSTEM.SOLV>
0

>  <SCORE.SYSTEM.norm>
0

>  <SCORE.heavy>
10

>  <SCORE.norm>
-1.69497

>  <RMSD>
2.451

$$$$
ligand
 OpenBabel11021811423D
libRbt.so/2013.1/901 2013/11/27
 10 11  0  0  0  0  0  0  0  0999 V2000
  -12.1103  -11.0902    9.1809 N   0  0  0  0  0  0  0  0  0  0  0  0
  -12.1368   -9.8431    8.5536 C   0  0  0  0  0  0  0  0  0  0  0  0
  -11.8472   -9.6870    7.2494 N   0  0  0  0  0  0  0  0  0  0  0  0
  -11.5310  -10.8834    6.6121 C   0  0  0  0  0  0  0  0  0  0  0  0
  -11.4738  -12.1670    7.1582 C   0  0  0  0  0  0  0  0  0  0  0  0
  -11.7766  -12.3383    8.5551 C   0  0  0  0  0  0  0  0  0  0  0  0
  -11.7974  -13.3285    9.2456 O   0  0  0  0  0  0  0  0  0  0  0  0
  -11.1219  -13.0753    6.1432 N   0  0  0  0  0  0  0  0  0  0  0  0
  -10.9817  -12.3229    5.0186 C   0  0  0  0  0  0  0  0  0  0  0  0
  -11.2276  -10.9676    5.2799 N   0  0  0  0  0  0  0  0  0  0  0  0
  1  2  1  0  0  0  0
  1  6  1  0  0  0  0
  2  3  2  0  0  0  0
  3  4  1  0  0  0  0
  4  5  2  0  0  0  0
  4 10  1  0  0  0  0
  5  6  1  0  0  0  0
  5  8  1  0  0  0  0
  6  7  2  0  0  0  0
  8  9  1  0  0  0  0
  9 10  2  0  0  0  0
M  END
>  <CHROM.1>
-11.60495590,-11.60133497,7.33810641,2.61055297,-1.30789785,2.58940830

>  <Name>
ligand

>  <RI>
0

>  <Rbt.Current_Directory>
/home/itssahil/PROJECTS/Mol_Feturizer/New_Systems/rnas/2EES

>  <Rbt.Executable>
rbdock ($Id: //depot/dev/client3/rdock/2013.1/src/exe/rbdock.cxx#4 $)

>  <Rbt.Library>
libRbt.so (2013.1, Build901 2013/11/27)

>  <Rbt.Parameter_File>
/export/apps/rDock/src/rDock_2013.1_src/data/scripts/dock_solv.prm

>  <Rbt.Receptor>
prm/pocket_docking_8.prm

>  <SCORE>
-16.9803

>  <SCORE.INTER>
-16.9803

>  <SCORE.INTER.CONST>
1

>  <SCORE.INTER.POLAR>
0

>  <SCORE.INTER.ROT>
0

>  <SCORE.INTER.SOLV>
3.811

>  <SCORE.INTER.VDW>
-16.1905

>  <SCORE.INTER.norm>
-1.69803

>  <SCORE.INTRA>
0

>  <SCORE.INTRA.DIHEDRAL>
0

>  <SCORE.INTRA.DIHEDRAL.0>
0

>  <SCORE.INTRA.POLAR>
0

>  <SCORE.INTRA.POLAR.0>
0

>  <SCORE.INTRA.REPUL>
0

>  <SCORE.INTRA.REPUL.0>
0

>  <SCORE.INTRA.SOLV>
0

>  <SCORE.INTRA.SOLV.lig_0>
-4.28614

>  <SCORE.INTRA.VDW>
0

>  <SCORE.INTRA.VDW.0>
0

>  <SCORE.INTRA.norm>
0

>  <SCORE.RESTR>
0

>  <SCORE.RESTR.CAVITY>
0

>  <SCORE.RESTR.norm>
0

>  <SCORE.SYSTEM>
0

>  <SCORE.SYSTEM.CONST>
0

>  <SCORE.SYSTEM.DIHEDRAL>
0

>  <SCORE.SYSTEM.SOLV>
0

>  <SCORE.SYSTEM.norm>
0

>  <SCORE.heavy>
10

>  <SCORE.norm>
-1.69803

>  <RMSD>
2.451

$$$$
ligand
 OpenBabel11021811423D
libRbt.so/2013.1/901 2013/11/27
 10 11  0  0  0  0  0  0  0  0999 V2000
  -12.0841  -11.1107    9.1551 N   0  0  0  0  0  0  0  0  0  0  0  0
  -12.0914   -9.8612    8.5320 C   0  0  0  0  0  0  0  0  0  0  0  0
  -11.7986   -9.7051    7.2285 N   0  0  0  0  0  0  0  0  0  0  0  0
  -11.4999  -10.9040    6.5873 C   0  0  0  0  0  0  0  0  0  0  0  0
  -11.4624  -12.1901    7.1292 C   0  0  0  0  0  0  0  0  0  0  0  0
  -11.7688  -12.3615    8.5253 C   0  0  0  0  0  0  0  0  0  0  0  0
  -11.8049  -13.3536    9.2125 O   0  0  0  0  0  0  0  0  0  0  0  0
  -11.1235  -13.1002    6.1114 N   0  0  0  0  0  0  0  0  0  0  0  0
  -10.9712  -12.3462    4.9894 C   0  0  0  0  0  0  0  0  0  0  0  0
  -11.1969  -10.9883    5.2551 N   0  0  0  0  0  0  0  0  0  0  0  0
  1  2  1  0  0  0  0
  1  6  1  0  0  0  0
  2  3  2  0  0  0  0
  3  4  1  0  0  0  0
  4  5  2  0  0  0  0
  4 10  1  0  0  0  0
  5  6  1  0  0  0  0
  5  8  1  0  0  0  0
  6  7  2  0  0  0  0
  8  9  1  0  0  0  0
  9 10  2  0  0  0  0
M  END
>  <CHROM.1>
-11.58518512,-11.62315600,7.31089568,2.66249138,-1.31483372,2.64296163

>  <Name>
ligand

>  <RI>
0

>  <Rbt.Current_Directory>
/home/itssahil/PROJECTS/Mol_Feturizer/New_Systems/rnas/2EES

>  <Rbt.Executable>
rbdock ($Id: //depot/dev/client3/rdock/2013.1/src/exe/rbdock.cxx#4 $)

>  <Rbt.Library>
libRbt.so (2013.1, Build901 2013/11/27)

>  <Rbt.Parameter_File>
/export/apps/rDock/src/rDock_2013.1_src/data/scripts/dock_solv.prm

>  <Rbt.Receptor>
prm/pocket_docking_3.prm

>  <SCORE>
-16.9847

>  <SCORE.INTER>
-16.9847

>  <SCORE.INTER.CONST>
1

>  <SCORE.INTER.POLAR>
0

>  <SCORE.INTER.ROT>
0

>  <SCORE.INTER.SOLV>
3.84681

>  <SCORE.INTER.VDW>
-16.2054

>  <SCORE.INTER.norm>
-1.69847

>  <SCORE.INTRA>
0

>  <SCORE.INTRA.DIHEDRAL>
0

>  <SCORE.INTRA.DIHEDRAL.0>
0

>  <SCORE.INTRA.POLAR>
0

>  <SCORE.INTRA.POLAR.0>
0

>  <SCORE.INTRA.REPUL>
0

>  <SCORE.INTRA.REPUL.0>
0

>  <SCORE.INTRA.SOLV>
0

>  <SCORE.INTRA.SOLV.lig_0>
-4.28614

>  <SCORE.INTRA.VDW>
0

>  <SCORE.INTRA.VDW.0>
0

>  <SCORE.INTRA.norm>
0

>  <SCORE.RESTR>
0

>  <SCORE.RESTR.CAVITY>
0

>  <SCORE.RESTR.norm>
0

>  <SCORE.SYSTEM>
0

>  <SCORE.SYSTEM.CONST>
0

>  <SCORE.SYSTEM.DIHEDRAL>
0

>  <SCORE.SYSTEM.SOLV>
0

>  <SCORE.SYSTEM.norm>
0

>  <SCORE.heavy>
10

>  <SCORE.norm>
-1.69847

>  <RMSD>
2.452

$$$$
ligand
 OpenBabel11021811423D
libRbt.so/2013.1/901 2013/11/27
 10 11  0  0  0  0  0  0  0  0999 V2000
  -12.0817  -11.1039    9.1555 N   0  0  0  0  0  0  0  0  0  0  0  0
  -12.0980   -9.8563    8.5287 C   0  0  0  0  0  0  0  0  0  0  0  0
  -11.8069   -9.7019    7.2247 N   0  0  0  0  0  0  0  0  0  0  0  0
  -11.5000  -10.9006    6.5869 C   0  0  0  0  0  0  0  0  0  0  0  0
  -11.4533  -12.1848    7.1324 C   0  0  0  0  0  0  0  0  0  0  0  0
  -11.7578  -12.3543    8.5292 C   0  0  0  0  0  0  0  0  0  0  0  0
  -11.7866  -13.3446    9.2193 O   0  0  0  0  0  0  0  0  0  0  0  0
  -11.1084  -13.0955    6.1171 N   0  0  0  0  0  0  0  0  0  0  0  0
  -10.9619  -12.3437    4.9929 C   0  0  0  0  0  0  0  0  0  0  0  0
  -11.1971  -10.9867    5.2547 N   0  0  0  0  0  0  0  0  0  0  0  0
  1  2  1  0  0  0  0
  1  6  1  0  0  0  0
  2  3  2  0  0  0  0
  3  4  1  0  0  0  0
  4  5  2  0  0  0  0
  4 10  1  0  0  0  0
  5  6  1  0  0  0  0
  5  8  1  0  0  0  0
  6  7  2  0  0  0  0
  8  9  1  0  0  0  0
  9 10  2  0  0  0  0
M  END
>  <CHROM.1>
-11.57993097,-11.61822612,7.31257089,2.63753358,-1.31178327,2.61591545

>  <Name>
ligand

>  <RI>
0

>  <Rbt.Current_Directory>
/home/itssahil/PROJECTS/Mol_Feturizer/New_Systems/rnas/2EES

>  <Rbt.Executable>
rbdock ($Id: //depot/dev/client3/rdock/2013.1/src/exe/rbdock.cxx#4 $)

>  <Rbt.Library>
libRbt.so (2013.1, Build901 2013/11/27)

>  <Rbt.Parameter_File>
/export/apps/rDock/src/rDock_2013.1_src/data/scripts/dock_solv.prm

>  <Rbt.Receptor>
prm/pocket_docking_3.prm

>  <SCORE>
-16.9885

>  <SCORE.INTER>
-16.9892

>  <SCORE.INTER.CONST>
1

>  <SCORE.INTER.POLAR>
0

>  <SCORE.INTER.ROT>
0

>  <SCORE.INTER.SOLV>
3.83178

>  <SCORE.INTER.VDW>
-16.2034

>  <SCORE.INTER.norm>
-1.69892

>  <SCORE.INTRA>
0

>  <SCORE.INTRA.DIHEDRAL>
0

>  <SCORE.INTRA.DIHEDRAL.0>
0

>  <SCORE.INTRA.POLAR>
0

>  <SCORE.INTRA.POLAR.0>
0

>  <SCORE.INTRA.REPUL>
0

>  <SCORE.INTRA.REPUL.0>
0

>  <SCORE.INTRA.SOLV>
0

>  <SCORE.INTRA.SOLV.lig_0>
-4.28614

>  <SCORE.INTRA.VDW>
0

>  <SCORE.INTRA.VDW.0>
0

>  <SCORE.INTRA.norm>
0

>  <SCORE.RESTR>
0.000646022

>  <SCORE.RESTR.CAVITY>
0.000646022

>  <SCORE.RESTR.norm>
6.46022e-05

>  <SCORE.SYSTEM>
0

>  <SCORE.SYSTEM.CONST>
0

>  <SCORE.SYSTEM.DIHEDRAL>
0

>  <SCORE.SYSTEM.SOLV>
0

>  <SCORE.SYSTEM.norm>
0

>  <SCORE.heavy>
10

>  <SCORE.norm>
-1.69885

>  <RMSD>
2.452

$$$$
ligand
 OpenBabel11021811423D
libRbt.so/2013.1/901 2013/11/27
 10 11  0  0  0  0  0  0  0  0999 V2000
  -12.1286  -11.0407    9.1412 N   0  0  0  0  0  0  0  0  0  0  0  0
  -12.1345   -9.8012    8.4984 C   0  0  0  0  0  0  0  0  0  0  0  0
  -11.8296   -9.6645    7.1955 N   0  0  0  0  0  0  0  0  0  0  0  0
  -11.5200  -10.8722    6.5763 C   0  0  0  0  0  0  0  0  0  0  0  0
  -11.4830  -12.1494    7.1388 C   0  0  0  0  0  0  0  0  0  0  0  0
  -11.8023  -12.3000    8.5344 C   0  0  0  0  0  0  0  0  0  0  0  0
  -11.8414  -13.2812    9.2368 O   0  0  0  0  0  0  0  0  0  0  0  0
  -11.1306  -13.0741    6.1388 N   0  0  0  0  0  0  0  0  0  0  0  0
  -10.9702  -12.3373    5.0066 C   0  0  0  0  0  0  0  0  0  0  0  0
  -11.2037  -10.9763    5.2486 N   0  0  0  0  0  0  0  0  0  0  0  0
  1  2  1  0  0  0  0
  1  6  1  0  0  0  0
  2  3  2  0  0  0  0
  3  4  1  0  0  0  0
  4  5  2  0  0  0  0
  4 10  1  0  0  0  0
  5  6  1  0  0  0  0
  5  8  1  0  0  0  0
  6  7  2  0  0  0  0
  8  9  1  0  0  0  0
  9 10  2  0  0  0  0
M  END
>  <CHROM.1>
-11.60965794,-11.58015815,7.31031037,2.66757879,-1.30440250,2.63208894

>  <Name>
ligand

>  <RI>
0

>  <Rbt.Current_Directory>
/home/itssahil/PROJECTS/Mol_Feturizer/New_Systems/rnas/2EES

>  <Rbt.Executable>
rbdock ($Id: //depot/dev/client3/rdock/2013.1/src/exe/rbdock.cxx#4 $)

>  <Rbt.Library>
libRbt.so (2013.1, Build901 2013/11/27)

>  <Rbt.Parameter_File>
/export/apps/rDock/src/rDock_2013.1_src/data/scripts/dock_solv.prm

>  <Rbt.Receptor>
prm/pocket_docking_5.prm

>  <SCORE>
-17.0033

>  <SCORE.INTER>
-17.0033

>  <SCORE.INTER.CONST>
1

>  <SCORE.INTER.POLAR>
0

>  <SCORE.INTER.ROT>
0

>  <SCORE.INTER.SOLV>
3.76545

>  <SCORE.INTER.VDW>
-16.1907

>  <SCORE.INTER.norm>
-1.70033

>  <SCORE.INTRA>
0

>  <SCORE.INTRA.DIHEDRAL>
0

>  <SCORE.INTRA.DIHEDRAL.0>
0

>  <SCORE.INTRA.POLAR>
0

>  <SCORE.INTRA.POLAR.0>
0

>  <SCORE.INTRA.REPUL>
0

>  <SCORE.INTRA.REPUL.0>
0

>  <SCORE.INTRA.SOLV>
0

>  <SCORE.INTRA.SOLV.lig_0>
-4.28614

>  <SCORE.INTRA.VDW>
0

>  <SCORE.INTRA.VDW.0>
0

>  <SCORE.INTRA.norm>
0

>  <SCORE.RESTR>
0

>  <SCORE.RESTR.CAVITY>
0

>  <SCORE.RESTR.norm>
0

>  <SCORE.SYSTEM>
0

>  <SCORE.SYSTEM.CONST>
0

>  <SCORE.SYSTEM.DIHEDRAL>
0

>  <SCORE.SYSTEM.SOLV>
0

>  <SCORE.SYSTEM.norm>
0

>  <SCORE.heavy>
10

>  <SCORE.norm>
-1.70033

>  <RMSD>
2.452

$$$$
ligand
 OpenBabel11021811423D
libRbt.so/2013.1/901 2013/11/27
 10 11  0  0  0  0  0  0  0  0999 V2000
  -12.1256  -11.0476    9.1464 N   0  0  0  0  0  0  0  0  0  0  0  0
  -12.1319   -9.8065    8.5067 C   0  0  0  0  0  0  0  0  0  0  0  0
  -11.8331   -9.6672    7.2027 N   0  0  0  0  0  0  0  0  0  0  0  0
  -11.5293  -10.8740    6.5790 C   0  0  0  0  0  0  0  0  0  0  0  0
  -11.4923  -12.1527    7.1380 C   0  0  0  0  0  0  0  0  0  0  0  0
  -11.8052  -12.3061    8.5349 C   0  0  0  0  0  0  0  0  0  0  0  0
  -11.8430  -13.2890    9.2349 O   0  0  0  0  0  0  0  0  0  0  0  0
  -11.1469  -13.0757    6.1341 N   0  0  0  0  0  0  0  0  0  0  0  0
  -10.9904  -12.3364    5.0029 C   0  0  0  0  0  0  0  0  0  0  0  0
  -11.2197  -10.9755    5.2494 N   0  0  0  0  0  0  0  0  0  0  0  0
  1  2  1  0  0  0  0
  1  6  1  0  0  0  0
  2  3  2  0  0  0  0
  3  4  1  0  0  0  0
  4  5  2  0  0  0  0
  4 10  1  0  0  0  0
  5  6  1  0  0  0  0
  5  8  1  0  0  0  0
  6  7  2  0  0  0  0
  8  9  1  0  0  0  0
  9 10  2  0  0  0  0
M  END
>  <CHROM.1>
-11.61690061,-11.58364632,7.31162201,2.66589324,-1.30978952,2.63296648

>  <Name>
ligand

>  <RI>
0

>  <Rbt.Current_Directory>
/home/itssahil/PROJECTS/Mol_Feturizer/New_Systems/rnas/2EES

>  <Rbt.Executable>
rbdock ($Id: //depot/dev/client3/rdock/2013.1/src/exe/rbdock.cxx#4 $)

>  <Rbt.Library>
libRbt.so (2013.1, Build901 2013/11/27)

>  <Rbt.Parameter_File>
/export/apps/rDock/src/rDock_2013.1_src/data/scripts/dock_solv.prm

>  <Rbt.Receptor>
prm/pocket_docking_7.prm

>  <SCORE>
-17.0068

>  <SCORE.INTER>
-17.0068

>  <SCORE.INTER.CONST>
1

>  <SCORE.INTER.POLAR>
0

>  <SCORE.INTER.ROT>
0

>  <SCORE.INTER.SOLV>
3.78177

>  <SCORE.INTER.VDW>
-16.1985

>  <SCORE.INTER.norm>
-1.70068

>  <SCORE.INTRA>
0

>  <SCORE.INTRA.DIHEDRAL>
0

>  <SCORE.INTRA.DIHEDRAL.0>
0

>  <SCORE.INTRA.POLAR>
0

>  <SCORE.INTRA.POLAR.0>
0

>  <SCORE.INTRA.REPUL>
0

>  <SCORE.INTRA.REPUL.0>
0

>  <SCORE.INTRA.SOLV>
0

>  <SCORE.INTRA.SOLV.lig_0>
-4.28614

>  <SCORE.INTRA.VDW>
0

>  <SCORE.INTRA.VDW.0>
0

>  <SCORE.INTRA.norm>
0

>  <SCORE.RESTR>
0

>  <SCORE.RESTR.CAVITY>
0

>  <SCORE.RESTR.norm>
0

>  <SCORE.SYSTEM>
0

>  <SCORE.SYSTEM.CONST>
0

>  <SCORE.SYSTEM.DIHEDRAL>
0

>  <SCORE.SYSTEM.SOLV>
0

>  <SCORE.SYSTEM.norm>
0

>  <SCORE.heavy>
10

>  <SCORE.norm>
-1.70068

>  <RMSD>
2.452

$$$$
ligand
 OpenBabel11021811423D
libRbt.so/2013.1/901 2013/11/27
 10 11  0  0  0  0  0  0  0  0999 V2000
  -12.0875  -11.0742    9.1559 N   0  0  0  0  0  0  0  0  0  0  0  0
  -12.0994   -9.8294    8.5236 C   0  0  0  0  0  0  0  0  0  0  0  0
  -11.8120   -9.6824    7.2178 N   0  0  0  0  0  0  0  0  0  0  0  0
  -11.5138  -10.8855    6.5843 C   0  0  0  0  0  0  0  0  0  0  0  0
  -11.4720  -12.1675    7.1355 C   0  0  0  0  0  0  0  0  0  0  0  0
  -11.7725  -12.3292    8.5341 C   0  0  0  0  0  0  0  0  0  0  0  0
  -11.8042  -13.3162    9.2286 O   0  0  0  0  0  0  0  0  0  0  0  0
  -11.1355  -13.0845    6.1230 N   0  0  0  0  0  0  0  0  0  0  0  0
  -10.9890  -12.3386    4.9949 C   0  0  0  0  0  0  0  0  0  0  0  0
  -11.2160  -10.9791    5.2515 N   0  0  0  0  0  0  0  0  0  0  0  0
  1  2  1  0  0  0  0
  1  6  1  0  0  0  0
  2  3  2  0  0  0  0
  3  4  1  0  0  0  0
  4  5  2  0  0  0  0
  4 10  1  0  0  0  0
  5  6  1  0  0  0  0
  5  8  1  0  0  0  0
  6  7  2  0  0  0  0
  8  9  1  0  0  0  0
  9 10  2  0  0  0  0
M  END
>  <CHROM.1>
-11.59500680,-11.59946583,7.31350717,2.64892703,-1.31749618,2.62246401

>  <Name>
ligand

>  <RI>
0

>  <Rbt.Current_Directory>
/home/itssahil/PROJECTS/Mol_Feturizer/New_Systems/rnas/2EES

>  <Rbt.Executable>
rbdock ($Id: //depot/dev/client3/rdock/2013.1/src/exe/rbdock.cxx#4 $)

>  <Rbt.Library>
libRbt.so (2013.1, Build901 2013/11/27)

>  <Rbt.Parameter_File>
/export/apps/rDock/src/rDock_2013.1_src/data/scripts/dock_solv.prm

>  <Rbt.Receptor>
prm/blind_docking_100.prm

>  <SCORE>
-17.0163

>  <SCORE.INTER>
-17.0163

>  <SCORE.INTER.CONST>
1

>  <SCORE.INTER.POLAR>
0

>  <SCORE.INTER.ROT>
0

>  <SCORE.INTER.SOLV>
3.82147

>  <SCORE.INTER.VDW>
-16.218

>  <SCORE.INTER.norm>
-1.70163

>  <SCORE.INTRA>
0

>  <SCORE.INTRA.DIHEDRAL>
0

>  <SCORE.INTRA.DIHEDRAL.0>
0

>  <SCORE.INTRA.POLAR>
0

>  <SCORE.INTRA.POLAR.0>
0

>  <SCORE.INTRA.REPUL>
0

>  <SCORE.INTRA.REPUL.0>
0

>  <SCORE.INTRA.SOLV>
0

>  <SCORE.INTRA.SOLV.lig_0>
-4.28614

>  <SCORE.INTRA.VDW>
0

>  <SCORE.INTRA.VDW.0>
0

>  <SCORE.INTRA.norm>
0

>  <SCORE.RESTR>
0

>  <SCORE.RESTR.CAVITY>
0

>  <SCORE.RESTR.norm>
0

>  <SCORE.SYSTEM>
0

>  <SCORE.SYSTEM.CONST>
0

>  <SCORE.SYSTEM.DIHEDRAL>
0

>  <SCORE.SYSTEM.SOLV>
0

>  <SCORE.SYSTEM.norm>
0

>  <SCORE.heavy>
10

>  <SCORE.norm>
-1.70163

>  <RMSD>
2.453

$$$$
ligand
 OpenBabel11021811423D
libRbt.so/2013.1/901 2013/11/27
 10 11  0  0  0  0  0  0  0  0999 V2000
  -12.1409  -11.0351    9.1354 N   0  0  0  0  0  0  0  0  0  0  0  0
  -12.1604   -9.7990    8.4863 C   0  0  0  0  0  0  0  0  0  0  0  0
  -11.8539   -9.6651    7.1835 N   0  0  0  0  0  0  0  0  0  0  0  0
  -11.5280  -10.8720    6.5712 C   0  0  0  0  0  0  0  0  0  0  0  0
  -11.4768  -12.1458    7.1401 C   0  0  0  0  0  0  0  0  0  0  0  0
  -11.7977  -12.2934    8.5357 C   0  0  0  0  0  0  0  0  0  0  0  0
  -11.8266  -13.2715    9.2428 O   0  0  0  0  0  0  0  0  0  0  0  0
  -11.1106  -13.0711    6.1456 N   0  0  0  0  0  0  0  0  0  0  0  0
  -10.9564  -12.3380    5.0101 C   0  0  0  0  0  0  0  0  0  0  0  0
  -11.2072  -10.9788    5.2447 N   0  0  0  0  0  0  0  0  0  0  0  0
  1  2  1  0  0  0  0
  1  6  1  0  0  0  0
  2  3  2  0  0  0  0
  3  4  1  0  0  0  0
  4  5  2  0  0  0  0
  4 10  1  0  0  0  0
  5  6  1  0  0  0  0
  5  8  1  0  0  0  0
  6  7  2  0  0  0  0
  8  9  1  0  0  0  0
  9 10  2  0  0  0  0
M  END
>  <CHROM.1>
-11.61082493,-11.57732458,7.30845517,2.63270800,-1.29609995,2.59348610

>  <Name>
ligand

>  <RI>
0

>  <Rbt.Current_Directory>
/home/itssahil/PROJECTS/Mol_Feturizer/New_Systems/rnas/2EES

>  <Rbt.Executable>
rbdock ($Id: //depot/dev/client3/rdock/2013.1/src/exe/rbdock.cxx#4 $)

>  <Rbt.Library>
libRbt.so (2013.1, Build901 2013/11/27)

>  <Rbt.Parameter_File>
/export/apps/rDock/src/rDock_2013.1_src/data/scripts/dock_solv.prm

>  <Rbt.Receptor>
prm/blind_docking_60.prm

>  <SCORE>
-16.9987

>  <SCORE.INTER>
-16.9987

>  <SCORE.INTER.CONST>
1

>  <SCORE.INTER.POLAR>
0

>  <SCORE.INTER.ROT>
0

>  <SCORE.INTER.SOLV>
3.73583

>  <SCORE.INTER.VDW>
-16.1778

>  <SCORE.INTER.norm>
-1.69987

>  <SCORE.INTRA>
0

>  <SCORE.INTRA.DIHEDRAL>
0

>  <SCORE.INTRA.DIHEDRAL.0>
0

>  <SCORE.INTRA.POLAR>
0

>  <SCORE.INTRA.POLAR.0>
0

>  <SCORE.INTRA.REPUL>
0

>  <SCORE.INTRA.REPUL.0>
0

>  <SCORE.INTRA.SOLV>
0

>  <SCORE.INTRA.SOLV.lig_0>
-4.28614

>  <SCORE.INTRA.VDW>
0

>  <SCORE.INTRA.VDW.0>
0

>  <SCORE.INTRA.norm>
0

>  <SCORE.RESTR>
0

>  <SCORE.RESTR.CAVITY>
0

>  <SCORE.RESTR.norm>
0

>  <SCORE.SYSTEM>
0

>  <SCORE.SYSTEM.CONST>
0

>  <SCORE.SYSTEM.DIHEDRAL>
0

>  <SCORE.SYSTEM.SOLV>
0

>  <SCORE.SYSTEM.norm>
0

>  <SCORE.heavy>
10

>  <SCORE.norm>
-1.69987

>  <RMSD>
2.453

$$$$
ligand
 OpenBabel11021811423D
libRbt.so/2013.1/901 2013/11/27
 10 11  0  0  0  0  0  0  0  0999 V2000
  -12.1007  -11.1048    9.1407 N   0  0  0  0  0  0  0  0  0  0  0  0
  -12.0959   -9.8516    8.5251 C   0  0  0  0  0  0  0  0  0  0  0  0
  -11.7963   -9.6899    7.2239 N   0  0  0  0  0  0  0  0  0  0  0  0
  -11.5038  -10.8872    6.5768 C   0  0  0  0  0  0  0  0  0  0  0  0
  -11.4783  -12.1767    7.1110 C   0  0  0  0  0  0  0  0  0  0  0  0
  -11.7920  -12.3542    8.5048 C   0  0  0  0  0  0  0  0  0  0  0  0
  -11.8386  -13.3501    9.1858 O   0  0  0  0  0  0  0  0  0  0  0  0
  -11.1417  -13.0832    6.0892 N   0  0  0  0  0  0  0  0  0  0  0  0
  -10.9789  -12.3237    4.9725 C   0  0  0  0  0  0  0  0  0  0  0  0
  -11.1957  -10.9658    5.2454 N   0  0  0  0  0  0  0  0  0  0  0  0
  1  2  1  0  0  0  0
  1  6  1  0  0  0  0
  2  3  2  0  0  0  0
  3  4  1  0  0  0  0
  4  5  2  0  0  0  0
  4 10  1  0  0  0  0
  5  6  1  0  0  0  0
  5  8  1  0  0  0  0
  6  7  2  0  0  0  0
  8  9  1  0  0  0  0
  9 10  2  0  0  0  0
M  END
>  <CHROM.1>
-11.59759856,-11.60999600,7.29565225,2.69665139,-1.31443789,2.68201365

>  <Name>
ligand

>  <RI>
0

>  <Rbt.Current_Directory>
/home/itssahil/PROJECTS/Mol_Feturizer/New_Systems/rnas/2EES

>  <Rbt.Executable>
rbdock ($Id: //depot/dev/client3/rdock/2013.1/src/exe/rbdock.cxx#4 $)

>  <Rbt.Library>
libRbt.so (2013.1, Build901 2013/11/27)

>  <Rbt.Parameter_File>
/export/apps/rDock/src/rDock_2013.1_src/data/scripts/dock_solv.prm

>  <Rbt.Receptor>
prm/blind_docking_80.prm

>  <SCORE>
-16.9771

>  <SCORE.INTER>
-16.9771

>  <SCORE.INTER.CONST>
1

>  <SCORE.INTER.POLAR>
0

>  <SCORE.INTER.ROT>
0

>  <SCORE.INTER.SOLV>
3.85192

>  <SCORE.INTER.VDW>
-16.202

>  <SCORE.INTER.norm>
-1.69771

>  <SCORE.INTRA>
0

>  <SCORE.INTRA.DIHEDRAL>
0

>  <SCORE.INTRA.DIHEDRAL.0>
0

>  <SCORE.INTRA.POLAR>
0

>  <SCORE.INTRA.POLAR.0>
0

>  <SCORE.INTRA.REPUL>
0

>  <SCORE.INTRA.REPUL.0>
0

>  <SCORE.INTRA.SOLV>
0

>  <SCORE.INTRA.SOLV.lig_0>
-4.28614

>  <SCORE.INTRA.VDW>
0

>  <SCORE.INTRA.VDW.0>
0

>  <SCORE.INTRA.norm>
0

>  <SCORE.RESTR>
0

>  <SCORE.RESTR.CAVITY>
0

>  <SCORE.RESTR.norm>
0

>  <SCORE.SYSTEM>
0

>  <SCORE.SYSTEM.CONST>
0

>  <SCORE.SYSTEM.DIHEDRAL>
0

>  <SCORE.SYSTEM.SOLV>
0

>  <SCORE.SYSTEM.norm>
0

>  <SCORE.heavy>
10

>  <SCORE.norm>
-1.69771

>  <RMSD>
2.453

$$$$
ligand
 OpenBabel11021811423D
libRbt.so/2013.1/901 2013/11/27
 10 11  0  0  0  0  0  0  0  0999 V2000
  -12.0812  -11.0865    9.1467 N   0  0  0  0  0  0  0  0  0  0  0  0
  -12.0966   -9.8413    8.5152 C   0  0  0  0  0  0  0  0  0  0  0  0
  -11.8024   -9.6916    7.2113 N   0  0  0  0  0  0  0  0  0  0  0  0
  -11.4934  -10.8925    6.5788 C   0  0  0  0  0  0  0  0  0  0  0  0
  -11.4473  -12.1746    7.1292 C   0  0  0  0  0  0  0  0  0  0  0  0
  -11.7552  -12.3391    8.5259 C   0  0  0  0  0  0  0  0  0  0  0  0
  -11.7852  -13.3268    9.2196 O   0  0  0  0  0  0  0  0  0  0  0  0
  -11.0995  -13.0889    6.1182 N   0  0  0  0  0  0  0  0  0  0  0  0
  -10.9507  -12.3412    4.9915 C   0  0  0  0  0  0  0  0  0  0  0  0
  -11.1872  -10.9834    5.2477 N   0  0  0  0  0  0  0  0  0  0  0  0
  1  2  1  0  0  0  0
  1  6  1  0  0  0  0
  2  3  2  0  0  0  0
  3  4  1  0  0  0  0
  4  5  2  0  0  0  0
  4 10  1  0  0  0  0
  5  6  1  0  0  0  0
  5  8  1  0  0  0  0
  6  7  2  0  0  0  0
  8  9  1  0  0  0  0
  9 10  2  0  0  0  0
M  END
>  <CHROM.1>
-11.57471417,-11.60742830,7.30692630,2.64063218,-1.30943572,2.61517154

>  <Name>
ligand

>  <RI>
0

>  <Rbt.Current_Directory>
/home/itssahil/PROJECTS/Mol_Feturizer/New_Systems/rnas/2EES

>  <Rbt.Executable>
rbdock ($Id: //depot/dev/client3/rdock/2013.1/src/exe/rbdock.cxx#4 $)

>  <Rbt.Library>
libRbt.so (2013.1, Build901 2013/11/27)

>  <Rbt.Parameter_File>
/export/apps/rDock/src/rDock_2013.1_src/data/scripts/dock_solv.prm

>  <Rbt.Receptor>
prm/pocket_docking_3.prm

>  <SCORE>
-17.0083

>  <SCORE.INTER>
-17.0083

>  <SCORE.INTER.CONST>
1

>  <SCORE.INTER.POLAR>
0

>  <SCORE.INTER.ROT>
0

>  <SCORE.INTER.SOLV>
3.81421

>  <SCORE.INTER.VDW>
-16.2103

>  <SCORE.INTER.norm>
-1.70083

>  <SCORE.INTRA>
0

>  <SCORE.INTRA.DIHEDRAL>
0

>  <SCORE.INTRA.DIHEDRAL.0>
0

>  <SCORE.INTRA.POLAR>
0

>  <SCORE.INTRA.POLAR.0>
0

>  <SCORE.INTRA.REPUL>
0

>  <SCORE.INTRA.REPUL.0>
0

>  <SCORE.INTRA.SOLV>
0

>  <SCORE.INTRA.SOLV.lig_0>
-4.28614

>  <SCORE.INTRA.VDW>
0

>  <SCORE.INTRA.VDW.0>
0

>  <SCORE.INTRA.norm>
0

>  <SCORE.RESTR>
0

>  <SCORE.RESTR.CAVITY>
0

>  <SCORE.RESTR.norm>
0

>  <SCORE.SYSTEM>
0

>  <SCORE.SYSTEM.CONST>
0

>  <SCORE.SYSTEM.DIHEDRAL>
0

>  <SCORE.SYSTEM.SOLV>
0

>  <SCORE.SYSTEM.norm>
0

>  <SCORE.heavy>
10

>  <SCORE.norm>
-1.70083

>  <RMSD>
2.453

$$$$
ligand
 OpenBabel11021811423D
libRbt.so/2013.1/901 2013/11/27
 10 11  0  0  0  0  0  0  0  0999 V2000
  -12.0754  -11.0989    9.1540 N   0  0  0  0  0  0  0  0  0  0  0  0
  -12.1072   -9.8548    8.5209 C   0  0  0  0  0  0  0  0  0  0  0  0
  -11.8191   -9.7036    7.2158 N   0  0  0  0  0  0  0  0  0  0  0  0
  -11.4986  -10.9017    6.5838 C   0  0  0  0  0  0  0  0  0  0  0  0
  -11.4360  -12.1825    7.1358 C   0  0  0  0  0  0  0  0  0  0  0  0
  -11.7372  -12.3485    8.5338 C   0  0  0  0  0  0  0  0  0  0  0  0
  -11.7536  -13.3355    9.2288 O   0  0  0  0  0  0  0  0  0  0  0  0
  -11.0812  -13.0942    6.1248 N   0  0  0  0  0  0  0  0  0  0  0  0
  -10.9447  -12.3464    4.9966 C   0  0  0  0  0  0  0  0  0  0  0  0
  -11.1959  -10.9910    5.2518 N   0  0  0  0  0  0  0  0  0  0  0  0
  1  2  1  0  0  0  0
  1  6  1  0  0  0  0
  2  3  2  0  0  0  0
  3  4  1  0  0  0  0
  4  5  2  0  0  0  0
  4 10  1  0  0  0  0
  5  6  1  0  0  0  0
  5  8  1  0  0  0  0
  6  7  2  0  0  0  0
  8  9  1  0  0  0  0
  9 10  2  0  0  0  0
M  END
>  <CHROM.1>
-11.56925832,-11.61656422,7.31318361,2.59631978,-1.30638506,2.57101438

>  <Name>
ligand

>  <RI>
0

>  <Rbt.Current_Directory>
/home/itssahil/PROJECTS/Mol_Feturizer/New_Systems/rnas/2EES

>  <Rbt.Executable>
rbdock ($Id: //depot/dev/client3/rdock/2013.1/src/exe/rbdock.cxx#4 $)

>  <Rbt.Library>
libRbt.so (2013.1, Build901 2013/11/27)

>  <Rbt.Parameter_File>
/export/apps/rDock/src/rDock_2013.1_src/data/scripts/dock_solv.prm

>  <Rbt.Receptor>
prm/pocket_docking_3.prm

>  <SCORE>
-17.0155

>  <SCORE.INTER>
-17.0155

>  <SCORE.INTER.CONST>
1

>  <SCORE.INTER.POLAR>
0

>  <SCORE.INTER.ROT>
0

>  <SCORE.INTER.SOLV>
3.80897

>  <SCORE.INTER.VDW>
-16.2133

>  <SCORE.INTER.norm>
-1.70155

>  <SCORE.INTRA>
0

>  <SCORE.INTRA.DIHEDRAL>
0

>  <SCORE.INTRA.DIHEDRAL.0>
0

>  <SCORE.INTRA.POLAR>
0

>  <SCORE.INTRA.POLAR.0>
0

>  <SCORE.INTRA.REPUL>
0

>  <SCORE.INTRA.REPUL.0>
0

>  <SCORE.INTRA.SOLV>
0

>  <SCORE.INTRA.SOLV.lig_0>
-4.28614

>  <SCORE.INTRA.VDW>
0

>  <SCORE.INTRA.VDW.0>
0

>  <SCORE.INTRA.norm>
0

>  <SCORE.RESTR>
0

>  <SCORE.RESTR.CAVITY>
0

>  <SCORE.RESTR.norm>
0

>  <SCORE.SYSTEM>
0

>  <SCORE.SYSTEM.CONST>
0

>  <SCORE.SYSTEM.DIHEDRAL>
0

>  <SCORE.SYSTEM.SOLV>
0

>  <SCORE.SYSTEM.norm>
0

>  <SCORE.heavy>
10

>  <SCORE.norm>
-1.70155

>  <RMSD>
2.453

$$$$
ligand
 OpenBabel11021811423D
libRbt.so/2013.1/901 2013/11/27
 10 11  0  0  0  0  0  0  0  0999 V2000
  -12.0657  -11.1040    9.1572 N   0  0  0  0  0  0  0  0  0  0  0  0
  -12.0907   -9.8579    8.5278 C   0  0  0  0  0  0  0  0  0  0  0  0
  -11.8054   -9.7048    7.2223 N   0  0  0  0  0  0  0  0  0  0  0  0
  -11.4950  -10.9033    6.5859 C   0  0  0  0  0  0  0  0  0  0  0  0
  -11.4396  -12.1861    7.1340 C   0  0  0  0  0  0  0  0  0  0  0  0
  -11.7379  -12.3541    8.5323 C   0  0  0  0  0  0  0  0  0  0  0  0
  -11.7591  -13.3430    9.2246 O   0  0  0  0  0  0  0  0  0  0  0  0
  -11.0940  -13.0972    6.1193 N   0  0  0  0  0  0  0  0  0  0  0  0
  -10.9557  -12.3471    4.9929 C   0  0  0  0  0  0  0  0  0  0  0  0
  -11.1967  -10.9907    5.2528 N   0  0  0  0  0  0  0  0  0  0  0  0
  1  2  1  0  0  0  0
  1  6  1  0  0  0  0
  2  3  2  0  0  0  0
  3  4  1  0  0  0  0
  4  5  2  0  0  0  0
  4 10  1  0  0  0  0
  5  6  1  0  0  0  0
  5  8  1  0  0  0  0
  6  7  2  0  0  0  0
  8  9  1  0  0  0  0
  9 10  2  0  0  0  0
M  END
>  <CHROM.1>
-11.56845083,-11.61975735,7.31342515,2.61288103,-1.31250717,2.58992915

>  <Name>
ligand

>  <RI>
0

>  <Rbt.Current_Directory>
/home/itssahil/PROJECTS/Mol_Feturizer/New_Systems/rnas/2EES

>  <Rbt.Executable>
rbdock ($Id: //depot/dev/client3/rdock/2013.1/src/exe/rbdock.cxx#4 $)

>  <Rbt.Library>
libRbt.so (2013.1, Build901 2013/11/27)

>  <Rbt.Parameter_File>
/export/apps/rDock/src/rDock_2013.1_src/data/scripts/dock_solv.prm

>  <Rbt.Receptor>
prm/pocket_docking_3.prm

>  <SCORE>
-17.0128

>  <SCORE.INTER>
-17.0128

>  <SCORE.INTER.CONST>
1

>  <SCORE.INTER.POLAR>
0

>  <SCORE.INTER.ROT>
0

>  <SCORE.INTER.SOLV>
3.82946

>  <SCORE.INTER.VDW>
-16.2184

>  <SCORE.INTER.norm>
-1.70128

>  <SCORE.INTRA>
0

>  <SCORE.INTRA.DIHEDRAL>
0

>  <SCORE.INTRA.DIHEDRAL.0>
0

>  <SCORE.INTRA.POLAR>
0

>  <SCORE.INTRA.POLAR.0>
0

>  <SCORE.INTRA.REPUL>
0

>  <SCORE.INTRA.REPUL.0>
0

>  <SCORE.INTRA.SOLV>
0

>  <SCORE.INTRA.SOLV.lig_0>
-4.28614

>  <SCORE.INTRA.VDW>
0

>  <SCORE.INTRA.VDW.0>
0

>  <SCORE.INTRA.norm>
0

>  <SCORE.RESTR>
5.62192e-05

>  <SCORE.RESTR.CAVITY>
5.62192e-05

>  <SCORE.RESTR.norm>
5.62192e-06

>  <SCORE.SYSTEM>
0

>  <SCORE.SYSTEM.CONST>
0

>  <SCORE.SYSTEM.DIHEDRAL>
0

>  <SCORE.SYSTEM.SOLV>
0

>  <SCORE.SYSTEM.norm>
0

>  <SCORE.heavy>
10

>  <SCORE.norm>
-1.70128

>  <RMSD>
2.453

$$$$
ligand
 OpenBabel11021811423D
libRbt.so/2013.1/901 2013/11/27
 10 11  0  0  0  0  0  0  0  0999 V2000
  -12.1341  -11.0101    9.1294 N   0  0  0  0  0  0  0  0  0  0  0  0
  -12.1530   -9.7810    8.4672 C   0  0  0  0  0  0  0  0  0  0  0  0
  -11.8403   -9.6601    7.1646 N   0  0  0  0  0  0  0  0  0  0  0  0
  -11.5089  -10.8727    6.5666 C   0  0  0  0  0  0  0  0  0  0  0  0
  -11.4577  -12.1403    7.1492 C   0  0  0  0  0  0  0  0  0  0  0  0
  -11.7853  -12.2738    8.5447 C   0  0  0  0  0  0  0  0  0  0  0  0
  -11.8156  -13.2445    9.2620 O   0  0  0  0  0  0  0  0  0  0  0  0
  -11.0847  -13.0752    6.1664 N   0  0  0  0  0  0  0  0  0  0  0  0
  -10.9264  -12.3538    5.0240 C   0  0  0  0  0  0  0  0  0  0  0  0
  -11.1812  -10.9928    5.2430 N   0  0  0  0  0  0  0  0  0  0  0  0
  1  2  1  0  0  0  0
  1  6  1  0  0  0  0
  2  3  2  0  0  0  0
  3  4  1  0  0  0  0
  4  5  2  0  0  0  0
  4 10  1  0  0  0  0
  5  6  1  0  0  0  0
  5  8  1  0  0  0  0
  6  7  2  0  0  0  0
  8  9  1  0  0  0  0
  9 10  2  0  0  0  0
M  END
>  <CHROM.1>
-11.59382854,-11.57038509,7.31089873,2.63552472,-1.29076024,2.58564592

>  <Name>
ligand

>  <RI>
0

>  <Rbt.Current_Directory>
/home/itssahil/PROJECTS/Mol_Feturizer/New_Systems/rnas/2EES

>  <Rbt.Executable>
rbdock ($Id: //depot/dev/client3/rdock/2013.1/src/exe/rbdock.cxx#4 $)

>  <Rbt.Library>
libRbt.so (2013.1, Build901 2013/11/27)

>  <Rbt.Parameter_File>
/export/apps/rDock/src/rDock_2013.1_src/data/scripts/dock_solv.prm

>  <Rbt.Receptor>
prm/pocket_docking_3.prm

>  <SCORE>
-17.0032

>  <SCORE.INTER>
-17.0032

>  <SCORE.INTER.CONST>
1

>  <SCORE.INTER.POLAR>
0

>  <SCORE.INTER.ROT>
0

>  <SCORE.INTER.SOLV>
3.70765

>  <SCORE.INTER.VDW>
-16.1713

>  <SCORE.INTER.norm>
-1.70032

>  <SCORE.INTRA>
0

>  <SCORE.INTRA.DIHEDRAL>
0

>  <SCORE.INTRA.DIHEDRAL.0>
0

>  <SCORE.INTRA.POLAR>
0

>  <SCORE.INTRA.POLAR.0>
0

>  <SCORE.INTRA.REPUL>
0

>  <SCORE.INTRA.REPUL.0>
0

>  <SCORE.INTRA.SOLV>
0

>  <SCORE.INTRA.SOLV.lig_0>
-4.28614

>  <SCORE.INTRA.VDW>
0

>  <SCORE.INTRA.VDW.0>
0

>  <SCORE.INTRA.norm>
0

>  <SCORE.RESTR>
0

>  <SCORE.RESTR.CAVITY>
0

>  <SCORE.RESTR.norm>
0

>  <SCORE.SYSTEM>
0

>  <SCORE.SYSTEM.CONST>
0

>  <SCORE.SYSTEM.DIHEDRAL>
0

>  <SCORE.SYSTEM.SOLV>
0

>  <SCORE.SYSTEM.norm>
0

>  <SCORE.heavy>
10

>  <SCORE.norm>
-1.70032

>  <RMSD>
2.453

$$$$
ligand
 OpenBabel11021811423D
libRbt.so/2013.1/901 2013/11/27
 10 11  0  0  0  0  0  0  0  0999 V2000
  -12.0911  -11.0680    9.1508 N   0  0  0  0  0  0  0  0  0  0  0  0
  -12.0999   -9.8226    8.5196 C   0  0  0  0  0  0  0  0  0  0  0  0
  -11.8101   -9.6750    7.2145 N   0  0  0  0  0  0  0  0  0  0  0  0
  -11.5127  -10.8781    6.5805 C   0  0  0  0  0  0  0  0  0  0  0  0
  -11.4740  -12.1606    7.1306 C   0  0  0  0  0  0  0  0  0  0  0  0
  -11.7771  -12.3229    8.5286 C   0  0  0  0  0  0  0  0  0  0  0  0
  -11.8116  -13.3105    9.2222 O   0  0  0  0  0  0  0  0  0  0  0  0
  -11.1372  -13.0773    6.1180 N   0  0  0  0  0  0  0  0  0  0  0  0
  -10.9875  -12.3307    4.9908 C   0  0  0  0  0  0  0  0  0  0  0  0
  -11.2128  -10.9711    5.2481 N   0  0  0  0  0  0  0  0  0  0  0  0
  1  2  1  0  0  0  0
  1  6  1  0  0  0  0
  2  3  2  0  0  0  0
  3  4  1  0  0  0  0
  4  5  2  0  0  0  0
  4 10  1  0  0  0  0
  5  6  1  0  0  0  0
  5  8  1  0  0  0  0
  6  7  2  0  0  0  0
  8  9  1  0  0  0  0
  9 10  2  0  0  0  0
M  END
>  <CHROM.1>
-11.59632863,-11.59250835,7.30891334,2.65796455,-1.31679512,2.63204170

>  <Name>
ligand

>  <RI>
0

>  <Rbt.Current_Directory>
/home/itssahil/PROJECTS/Mol_Feturizer/New_Systems/rnas/2EES

>  <Rbt.Executable>
rbdock ($Id: //depot/dev/client3/rdock/2013.1/src/exe/rbdock.cxx#4 $)

>  <Rbt.Library>
libRbt.so (2013.1, Build901 2013/11/27)

>  <Rbt.Parameter_File>
/export/apps/rDock/src/rDock_2013.1_src/data/scripts/dock_solv.prm

>  <Rbt.Receptor>
prm/pocket_docking_4.prm

>  <SCORE>
-17.0131

>  <SCORE.INTER>
-17.0131

>  <SCORE.INTER.CONST>
1

>  <SCORE.INTER.POLAR>
0

>  <SCORE.INTER.ROT>
0

>  <SCORE.INTER.SOLV>
3.8184

>  <SCORE.INTER.VDW>
-16.2149

>  <SCORE.INTER.norm>
-1.70131

>  <SCORE.INTRA>
0

>  <SCORE.INTRA.DIHEDRAL>
0

>  <SCORE.INTRA.DIHEDRAL.0>
0

>  <SCORE.INTRA.POLAR>
0

>  <SCORE.INTRA.POLAR.0>
0

>  <SCORE.INTRA.REPUL>
0

>  <SCORE.INTRA.REPUL.0>
0

>  <SCORE.INTRA.SOLV>
0

>  <SCORE.INTRA.SOLV.lig_0>
-4.28614

>  <SCORE.INTRA.VDW>
0

>  <SCORE.INTRA.VDW.0>
0

>  <SCORE.INTRA.norm>
0

>  <SCORE.RESTR>
0

>  <SCORE.RESTR.CAVITY>
0

>  <SCORE.RESTR.norm>
0

>  <SCORE.SYSTEM>
0

>  <SCORE.SYSTEM.CONST>
0

>  <SCORE.SYSTEM.DIHEDRAL>
0

>  <SCORE.SYSTEM.SOLV>
0

>  <SCORE.SYSTEM.norm>
0

>  <SCORE.heavy>
10

>  <SCORE.norm>
-1.70131

>  <RMSD>
2.453

$$$$
ligand
 OpenBabel11021811423D
libRbt.so/2013.1/901 2013/11/27
 10 11  0  0  0  0  0  0  0  0999 V2000
  -12.1360  -11.0366    9.1302 N   0  0  0  0  0  0  0  0  0  0  0  0
  -12.1640   -9.8017    8.4793 C   0  0  0  0  0  0  0  0  0  0  0  0
  -11.8577   -9.6675    7.1765 N   0  0  0  0  0  0  0  0  0  0  0  0
  -11.5228  -10.8729    6.5662 C   0  0  0  0  0  0  0  0  0  0  0  0
  -11.4627  -12.1455    7.1370 C   0  0  0  0  0  0  0  0  0  0  0  0
  -11.7835  -12.2933    8.5326 C   0  0  0  0  0  0  0  0  0  0  0  0
  -11.8057  -13.2705    9.2412 O   0  0  0  0  0  0  0  0  0  0  0  0
  -11.0893  -13.0696    6.1442 N   0  0  0  0  0  0  0  0  0  0  0  0
  -10.9396  -12.3371    5.0077 C   0  0  0  0  0  0  0  0  0  0  0  0
  -11.2003  -10.9794    5.2401 N   0  0  0  0  0  0  0  0  0  0  0  0
  1  2  1  0  0  0  0
  1  6  1  0  0  0  0
  2  3  2  0  0  0  0
  3  4  1  0  0  0  0
  4  5  2  0  0  0  0
  4 10  1  0  0  0  0
  5  6  1  0  0  0  0
  5  8  1  0  0  0  0
  6  7  2  0  0  0  0
  8  9  1  0  0  0  0
  9 10  2  0  0  0  0
M  END
>  <CHROM.1>
-11.60095891,-11.57773806,7.30445644,2.61163073,-1.29176950,2.57171664

>  <Name>
ligand

>  <RI>
0

>  <Rbt.Current_Directory>
/home/itssahil/PROJECTS/Mol_Feturizer/New_Systems/rnas/2EES

>  <Rbt.Executable>
rbdock ($Id: //depot/dev/client3/rdock/2013.1/src/exe/rbdock.cxx#4 $)

>  <Rbt.Library>
libRbt.so (2013.1, Build901 2013/11/27)

>  <Rbt.Parameter_File>
/export/apps/rDock/src/rDock_2013.1_src/data/scripts/dock_solv.prm

>  <Rbt.Receptor>
prm/blind_docking_40.prm

>  <SCORE>
-17.0282

>  <SCORE.INTER>
-17.0282

>  <SCORE.INTER.CONST>
1

>  <SCORE.INTER.POLAR>
0

>  <SCORE.INTER.ROT>
0

>  <SCORE.INTER.SOLV>
3.72656

>  <SCORE.INTER.VDW>
-16.1944

>  <SCORE.INTER.norm>
-1.70282

>  <SCORE.INTRA>
0

>  <SCORE.INTRA.DIHEDRAL>
0

>  <SCORE.INTRA.DIHEDRAL.0>
0

>  <SCORE.INTRA.POLAR>
0

>  <SCORE.INTRA.POLAR.0>
0

>  <SCORE.INTRA.REPUL>
0

>  <SCORE.INTRA.REPUL.0>
0

>  <SCORE.INTRA.SOLV>
0

>  <SCORE.INTRA.SOLV.lig_0>
-4.28614

>  <SCORE.INTRA.VDW>
0

>  <SCORE.INTRA.VDW.0>
0

>  <SCORE.INTRA.norm>
0

>  <SCORE.RESTR>
0

>  <SCORE.RESTR.CAVITY>
0

>  <SCORE.RESTR.norm>
0

>  <SCORE.SYSTEM>
0

>  <SCORE.SYSTEM.CONST>
0

>  <SCORE.SYSTEM.DIHEDRAL>
0

>  <SCORE.SYSTEM.SOLV>
0

>  <SCORE.SYSTEM.norm>
0

>  <SCORE.heavy>
10

>  <SCORE.norm>
-1.70282

>  <RMSD>
2.454

$$$$
ligand
 OpenBabel11021811423D
libRbt.so/2013.1/901 2013/11/27
 10 11  0  0  0  0  0  0  0  0999 V2000
  -12.1284  -11.0424    9.1419 N   0  0  0  0  0  0  0  0  0  0  0  0
  -12.1420   -9.8023    8.5004 C   0  0  0  0  0  0  0  0  0  0  0  0
  -11.8438   -9.6631    7.1962 N   0  0  0  0  0  0  0  0  0  0  0  0
  -11.5326  -10.8690    6.5743 C   0  0  0  0  0  0  0  0  0  0  0  0
  -11.4880  -12.1467    7.1353 C   0  0  0  0  0  0  0  0  0  0  0  0
  -11.8002  -12.2999    8.5323 C   0  0  0  0  0  0  0  0  0  0  0  0
  -11.8323  -13.2820    9.2337 O   0  0  0  0  0  0  0  0  0  0  0  0
  -11.1369  -13.0690    6.1327 N   0  0  0  0  0  0  0  0  0  0  0  0
  -10.9846  -12.3304    5.0005 C   0  0  0  0  0  0  0  0  0  0  0  0
  -11.2222  -10.9706    5.2450 N   0  0  0  0  0  0  0  0  0  0  0  0
  1  2  1  0  0  0  0
  1  6  1  0  0  0  0
  2  3  2  0  0  0  0
  3  4  1  0  0  0  0
  4  5  2  0  0  0  0
  4 10  1  0  0  0  0
  5  6  1  0  0  0  0
  5  8  1  0  0  0  0
  6  7  2  0  0  0  0
  8  9  1  0  0  0  0
  9 10  2  0  0  0  0
M  END
>  <CHROM.1>
-11.61605216,-11.57809104,7.30798672,2.64610256,-1.30663473,2.61239072

>  <Name>
ligand

>  <RI>
0

>  <Rbt.Current_Directory>
/home/itssahil/PROJECTS/Mol_Feturizer/New_Systems/rnas/2EES

>  <Rbt.Executable>
rbdock ($Id: //depot/dev/client3/rdock/2013.1/src/exe/rbdock.cxx#4 $)

>  <Rbt.Library>
libRbt.so (2013.1, Build901 2013/11/27)

>  <Rbt.Parameter_File>
/export/apps/rDock/src/rDock_2013.1_src/data/scripts/dock_solv.prm

>  <Rbt.Receptor>
prm/blind_docking_80.prm

>  <SCORE>
-17.0093

>  <SCORE.INTER>
-17.0093

>  <SCORE.INTER.CONST>
1

>  <SCORE.INTER.POLAR>
0

>  <SCORE.INTER.ROT>
0

>  <SCORE.INTER.SOLV>
3.76865

>  <SCORE.INTER.VDW>
-16.1957

>  <SCORE.INTER.norm>
-1.70093

>  <SCORE.INTRA>
0

>  <SCORE.INTRA.DIHEDRAL>
0

>  <SCORE.INTRA.DIHEDRAL.0>
0

>  <SCORE.INTRA.POLAR>
0

>  <SCORE.INTRA.POLAR.0>
0

>  <SCORE.INTRA.REPUL>
0

>  <SCORE.INTRA.REPUL.0>
0

>  <SCORE.INTRA.SOLV>
0

>  <SCORE.INTRA.SOLV.lig_0>
-4.28614

>  <SCORE.INTRA.VDW>
0

>  <SCORE.INTRA.VDW.0>
0

>  <SCORE.INTRA.norm>
0

>  <SCORE.RESTR>
0

>  <SCORE.RESTR.CAVITY>
0

>  <SCORE.RESTR.norm>
0

>  <SCORE.SYSTEM>
0

>  <SCORE.SYSTEM.CONST>
0

>  <SCORE.SYSTEM.DIHEDRAL>
0

>  <SCORE.SYSTEM.SOLV>
0

>  <SCORE.SYSTEM.norm>
0

>  <SCORE.heavy>
10

>  <SCORE.norm>
-1.70093

>  <RMSD>
2.454

$$$$
ligand
 OpenBabel11021811423D
libRbt.so/2013.1/901 2013/11/27
 10 11  0  0  0  0  0  0  0  0999 V2000
  -12.1411  -11.0547    9.1253 N   0  0  0  0  0  0  0  0  0  0  0  0
  -12.1637   -9.8180    8.4775 C   0  0  0  0  0  0  0  0  0  0  0  0
  -11.8586   -9.6821    7.1746 N   0  0  0  0  0  0  0  0  0  0  0  0
  -11.5309  -10.8877    6.5607 C   0  0  0  0  0  0  0  0  0  0  0  0
  -11.4765  -12.1620    7.1283 C   0  0  0  0  0  0  0  0  0  0  0  0
  -11.7959  -12.3116    8.5240 C   0  0  0  0  0  0  0  0  0  0  0  0
  -11.8221  -13.2905    9.2302 O   0  0  0  0  0  0  0  0  0  0  0  0
  -11.1094  -13.0855    6.1326 N   0  0  0  0  0  0  0  0  0  0  0  0
  -10.9577  -12.3510    4.9976 C   0  0  0  0  0  0  0  0  0  0  0  0
  -11.2110  -10.9925    5.2339 N   0  0  0  0  0  0  0  0  0  0  0  0
  1  2  1  0  0  0  0
  1  6  1  0  0  0  0
  2  3  2  0  0  0  0
  3  4  1  0  0  0  0
  4  5  2  0  0  0  0
  4 10  1  0  0  0  0
  5  6  1  0  0  0  0
  5  8  1  0  0  0  0
  6  7  2  0  0  0  0
  8  9  1  0  0  0  0
  9 10  2  0  0  0  0
M  END
>  <CHROM.1>
-11.61157400,-11.59396138,7.29734819,2.62456097,-1.29581422,2.58666352

>  <Name>
ligand

>  <RI>
0

>  <Rbt.Current_Directory>
/home/itssahil/PROJECTS/Mol_Feturizer/New_Systems/rnas/2EES

>  <Rbt.Executable>
rbdock ($Id: //depot/dev/client3/rdock/2013.1/src/exe/rbdock.cxx#4 $)

>  <Rbt.Library>
libRbt.so (2013.1, Build901 2013/11/27)

>  <Rbt.Parameter_File>
/export/apps/rDock/src/rDock_2013.1_src/data/scripts/dock_solv.prm

>  <Rbt.Receptor>
prm/pocket_docking_4.prm

>  <SCORE>
-17.0029

>  <SCORE.INTER>
-17.0029

>  <SCORE.INTER.CONST>
1

>  <SCORE.INTER.POLAR>
0

>  <SCORE.INTER.ROT>
0

>  <SCORE.INTER.SOLV>
3.74417

>  <SCORE.INTER.VDW>
-16.1833

>  <SCORE.INTER.norm>
-1.70029

>  <SCORE.INTRA>
0

>  <SCORE.INTRA.DIHEDRAL>
0

>  <SCORE.INTRA.DIHEDRAL.0>
0

>  <SCORE.INTRA.POLAR>
0

>  <SCORE.INTRA.POLAR.0>
0

>  <SCORE.INTRA.REPUL>
0

>  <SCORE.INTRA.REPUL.0>
0

>  <SCORE.INTRA.SOLV>
0

>  <SCORE.INTRA.SOLV.lig_0>
-4.28614

>  <SCORE.INTRA.VDW>
0

>  <SCORE.INTRA.VDW.0>
0

>  <SCORE.INTRA.norm>
0

>  <SCORE.RESTR>
0

>  <SCORE.RESTR.CAVITY>
0

>  <SCORE.RESTR.norm>
0

>  <SCORE.SYSTEM>
0

>  <SCORE.SYSTEM.CONST>
0

>  <SCORE.SYSTEM.DIHEDRAL>
0

>  <SCORE.SYSTEM.SOLV>
0

>  <SCORE.SYSTEM.norm>
0

>  <SCORE.heavy>
10

>  <SCORE.norm>
-1.70029

>  <RMSD>
2.454

$$$$
ligand
 OpenBabel11021811423D
libRbt.so/2013.1/901 2013/11/27
 10 11  0  0  0  0  0  0  0  0999 V2000
  -12.1304  -11.0360    9.1380 N   0  0  0  0  0  0  0  0  0  0  0  0
  -12.1557   -9.8000    8.4889 C   0  0  0  0  0  0  0  0  0  0  0  0
  -11.8539   -9.6652    7.1852 N   0  0  0  0  0  0  0  0  0  0  0  0
  -11.5263  -10.8711    6.5718 C   0  0  0  0  0  0  0  0  0  0  0  0
  -11.4692  -12.1447    7.1406 C   0  0  0  0  0  0  0  0  0  0  0  0
  -11.7852  -12.2932    8.5372 C   0  0  0  0  0  0  0  0  0  0  0  0
  -11.8088  -13.2714    9.2445 O   0  0  0  0  0  0  0  0  0  0  0  0
  -11.1034  -13.0689    6.1450 N   0  0  0  0  0  0  0  0  0  0  0  0
  -10.9552  -12.3354    5.0090 C   0  0  0  0  0  0  0  0  0  0  0  0
  -11.2094  -10.9770    5.2443 N   0  0  0  0  0  0  0  0  0  0  0  0
  1  2  1  0  0  0  0
  1  6  1  0  0  0  0
  2  3  2  0  0  0  0
  3  4  1  0  0  0  0
  4  5  2  0  0  0  0
  4 10  1  0  0  0  0
  5  6  1  0  0  0  0
  5  8  1  0  0  0  0
  6  7  2  0  0  0  0
  8  9  1  0  0  0  0
  9 10  2  0  0  0  0
M  END
>  <CHROM.1>
-11.60452144,-11.57664769,7.30938243,2.61672163,-1.29721850,2.57805272

>  <Name>
ligand

>  <RI>
0

>  <Rbt.Current_Directory>
/home/itssahil/PROJECTS/Mol_Feturizer/New_Systems/rnas/2EES

>  <Rbt.Executable>
rbdock ($Id: //depot/dev/client3/rdock/2013.1/src/exe/rbdock.cxx#4 $)

>  <Rbt.Library>
libRbt.so (2013.1, Build901 2013/11/27)

>  <Rbt.Parameter_File>
/export/apps/rDock/src/rDock_2013.1_src/data/scripts/dock_solv.prm

>  <Rbt.Receptor>
prm/pocket_docking_8.prm

>  <SCORE>
-17.0036

>  <SCORE.INTER>
-17.0036

>  <SCORE.INTER.CONST>
1

>  <SCORE.INTER.POLAR>
0

>  <SCORE.INTER.ROT>
0

>  <SCORE.INTER.SOLV>
3.73842

>  <SCORE.INTER.VDW>
-16.1819

>  <SCORE.INTER.norm>
-1.70036

>  <SCORE.INTRA>
0

>  <SCORE.INTRA.DIHEDRAL>
0

>  <SCORE.INTRA.DIHEDRAL.0>
0

>  <SCORE.INTRA.POLAR>
0

>  <SCORE.INTRA.POLAR.0>
0

>  <SCORE.INTRA.REPUL>
0

>  <SCORE.INTRA.REPUL.0>
0

>  <SCORE.INTRA.SOLV>
0

>  <SCORE.INTRA.SOLV.lig_0>
-4.28614

>  <SCORE.INTRA.VDW>
0

>  <SCORE.INTRA.VDW.0>
0

>  <SCORE.INTRA.norm>
0

>  <SCORE.RESTR>
0

>  <SCORE.RESTR.CAVITY>
0

>  <SCORE.RESTR.norm>
0

>  <SCORE.SYSTEM>
0

>  <SCORE.SYSTEM.CONST>
0

>  <SCORE.SYSTEM.DIHEDRAL>
0

>  <SCORE.SYSTEM.SOLV>
0

>  <SCORE.SYSTEM.norm>
0

>  <SCORE.heavy>
10

>  <SCORE.norm>
-1.70036

>  <RMSD>
2.454

$$$$
ligand
 OpenBabel11021811423D
libRbt.so/2013.1/901 2013/11/27
 10 11  0  0  0  0  0  0  0  0999 V2000
  -12.1377  -11.0031    9.1233 N   0  0  0  0  0  0  0  0  0  0  0  0
  -12.1148   -9.7644    8.4794 C   0  0  0  0  0  0  0  0  0  0  0  0
  -11.8019   -9.6354    7.1776 N   0  0  0  0  0  0  0  0  0  0  0  0
  -11.5154  -10.8500    6.5607 C   0  0  0  0  0  0  0  0  0  0  0  0
  -11.5076  -12.1272    7.1244 C   0  0  0  0  0  0  0  0  0  0  0  0
  -11.8357  -12.2697    8.5189 C   0  0  0  0  0  0  0  0  0  0  0  0
  -11.8983  -13.2492    9.2219 O   0  0  0  0  0  0  0  0  0  0  0  0
  -11.1708  -13.0600    6.1267 N   0  0  0  0  0  0  0  0  0  0  0  0
  -10.9904  -12.3279    4.9945 C   0  0  0  0  0  0  0  0  0  0  0  0
  -11.1961  -10.9620    5.2344 N   0  0  0  0  0  0  0  0  0  0  0  0
  1  2  1  0  0  0  0
  1  6  1  0  0  0  0
  2  3  2  0  0  0  0
  3  4  1  0  0  0  0
  4  5  2  0  0  0  0
  4 10  1  0  0  0  0
  5  6  1  0  0  0  0
  5  8  1  0  0  0  0
  6  7  2  0  0  0  0
  8  9  1  0  0  0  0
  9 10  2  0  0  0  0
M  END
>  <CHROM.1>
-11.62292993,-11.55521226,7.29496910,2.74693956,-1.31043770,2.70780189

>  <Name>
ligand

>  <RI>
0

>  <Rbt.Current_Directory>
/home/itssahil/PROJECTS/Mol_Feturizer/New_Systems/rnas/2EES

>  <Rbt.Executable>
rbdock ($Id: //depot/dev/client3/rdock/2013.1/src/exe/rbdock.cxx#4 $)

>  <Rbt.Library>
libRbt.so (2013.1, Build901 2013/11/27)

>  <Rbt.Parameter_File>
/export/apps/rDock/src/rDock_2013.1_src/data/scripts/dock_solv.prm

>  <Rbt.Receptor>
prm/pocket_docking_8.prm

>  <SCORE>
-17

>  <SCORE.INTER>
-17

>  <SCORE.INTER.CONST>
1

>  <SCORE.INTER.POLAR>
0

>  <SCORE.INTER.ROT>
0

>  <SCORE.INTER.SOLV>
3.77163

>  <SCORE.INTER.VDW>
-16.1905

>  <SCORE.INTER.norm>
-1.7

>  <SCORE.INTRA>
0

>  <SCORE.INTRA.DIHEDRAL>
0

>  <SCORE.INTRA.DIHEDRAL.0>
0

>  <SCORE.INTRA.POLAR>
0

>  <SCORE.INTRA.POLAR.0>
0

>  <SCORE.INTRA.REPUL>
0

>  <SCORE.INTRA.REPUL.0>
0

>  <SCORE.INTRA.SOLV>
0

>  <SCORE.INTRA.SOLV.lig_0>
-4.28614

>  <SCORE.INTRA.VDW>
0

>  <SCORE.INTRA.VDW.0>
0

>  <SCORE.INTRA.norm>
0

>  <SCORE.RESTR>
0

>  <SCORE.RESTR.CAVITY>
0

>  <SCORE.RESTR.norm>
0

>  <SCORE.SYSTEM>
0

>  <SCORE.SYSTEM.CONST>
0

>  <SCORE.SYSTEM.DIHEDRAL>
0

>  <SCORE.SYSTEM.SOLV>
0

>  <SCORE.SYSTEM.norm>
0

>  <SCORE.heavy>
10

>  <SCORE.norm>
-1.7

>  <RMSD>
2.454

$$$$
ligand
 OpenBabel11021811423D
libRbt.so/2013.1/901 2013/11/27
 10 11  0  0  0  0  0  0  0  0999 V2000
  -12.0784  -11.1102    9.1694 N   0  0  0  0  0  0  0  0  0  0  0  0
  -12.1267   -9.8617    8.5460 C   0  0  0  0  0  0  0  0  0  0  0  0
  -11.8562   -9.6989    7.2385 N   0  0  0  0  0  0  0  0  0  0  0  0
  -11.5355  -10.8902    6.5936 C   0  0  0  0  0  0  0  0  0  0  0  0
  -11.4572  -12.1745    7.1353 C   0  0  0  0  0  0  0  0  0  0  0  0
  -11.7396  -12.3528    8.5357 C   0  0  0  0  0  0  0  0  0  0  0  0
  -11.7405  -13.3450    9.2235 O   0  0  0  0  0  0  0  0  0  0  0  0
  -11.1090  -13.0762    6.1132 N   0  0  0  0  0  0  0  0  0  0  0  0
  -10.9919  -12.3193    4.9889 C   0  0  0  0  0  0  0  0  0  0  0  0
  -11.2490  -10.9675    5.2573 N   0  0  0  0  0  0  0  0  0  0  0  0
  1  2  1  0  0  0  0
  1  6  1  0  0  0  0
  2  3  2  0  0  0  0
  3  4  1  0  0  0  0
  4  5  2  0  0  0  0
  4 10  1  0  0  0  0
  5  6  1  0  0  0  0
  5  8  1  0  0  0  0
  6  7  2  0  0  0  0
  8  9  1  0  0  0  0
  9 10  2  0  0  0  0
M  END
>  <CHROM.1>
-11.59206857,-11.61079272,7.31854571,2.54696802,-1.31304351,2.53072372

>  <Name>
ligand

>  <RI>
0

>  <Rbt.Current_Directory>
/home/itssahil/PROJECTS/Mol_Feturizer/New_Systems/rnas/2EES

>  <Rbt.Executable>
rbdock ($Id: //depot/dev/client3/rdock/2013.1/src/exe/rbdock.cxx#4 $)

>  <Rbt.Library>
libRbt.so (2013.1, Build901 2013/11/27)

>  <Rbt.Parameter_File>
/export/apps/rDock/src/rDock_2013.1_src/data/scripts/dock_solv.prm

>  <Rbt.Receptor>
prm/blind_docking_40.prm

>  <SCORE>
-16.9998

>  <SCORE.INTER>
-16.9998

>  <SCORE.INTER.CONST>
1

>  <SCORE.INTER.POLAR>
0

>  <SCORE.INTER.ROT>
0

>  <SCORE.INTER.SOLV>
3.82767

>  <SCORE.INTER.VDW>
-16.2091

>  <SCORE.INTER.norm>
-1.69998

>  <SCORE.INTRA>
0

>  <SCORE.INTRA.DIHEDRAL>
0

>  <SCORE.INTRA.DIHEDRAL.0>
0

>  <SCORE.INTRA.POLAR>
0

>  <SCORE.INTRA.POLAR.0>
0

>  <SCORE.INTRA.REPUL>
0

>  <SCORE.INTRA.REPUL.0>
0

>  <SCORE.INTRA.SOLV>
0

>  <SCORE.INTRA.SOLV.lig_0>
-4.28614

>  <SCORE.INTRA.VDW>
0

>  <SCORE.INTRA.VDW.0>
0

>  <SCORE.INTRA.norm>
0

>  <SCORE.RESTR>
0

>  <SCORE.RESTR.CAVITY>
0

>  <SCORE.RESTR.norm>
0

>  <SCORE.SYSTEM>
0

>  <SCORE.SYSTEM.CONST>
0

>  <SCORE.SYSTEM.DIHEDRAL>
0

>  <SCORE.SYSTEM.SOLV>
0

>  <SCORE.SYSTEM.norm>
0

>  <SCORE.heavy>
10

>  <SCORE.norm>
-1.69998

>  <RMSD>
2.455

$$$$
ligand
 OpenBabel11021811423D
libRbt.so/2013.1/901 2013/11/27
 10 11  0  0  0  0  0  0  0  0999 V2000
  -12.0797  -11.0911    9.1500 N   0  0  0  0  0  0  0  0  0  0  0  0
  -12.1058   -9.8441    8.5225 C   0  0  0  0  0  0  0  0  0  0  0  0
  -11.8230   -9.6893    7.2167 N   0  0  0  0  0  0  0  0  0  0  0  0
  -11.5139  -10.8869    6.5780 C   0  0  0  0  0  0  0  0  0  0  0  0
  -11.4577  -12.1705    7.1242 C   0  0  0  0  0  0  0  0  0  0  0  0
  -11.7533  -12.3404    8.5228 C   0  0  0  0  0  0  0  0  0  0  0  0
  -11.7733  -13.3303    9.2137 O   0  0  0  0  0  0  0  0  0  0  0  0
  -11.1141  -13.0802    6.1075 N   0  0  0  0  0  0  0  0  0  0  0  0
  -10.9778  -12.3285    4.9819 C   0  0  0  0  0  0  0  0  0  0  0  0
  -11.2182  -10.9725    5.2441 N   0  0  0  0  0  0  0  0  0  0  0  0
  1  2  1  0  0  0  0
  1  6  1  0  0  0  0
  2  3  2  0  0  0  0
  3  4  1  0  0  0  0
  4  5  2  0  0  0  0
  4 10  1  0  0  0  0
  5  6  1  0  0  0  0
  5  8  1  0  0  0  0
  6  7  2  0  0  0  0
  8  9  1  0  0  0  0
  9 10  2  0  0  0  0
M  END
>  <CHROM.1>
-11.58608774,-11.60436141,7.30461287,2.60932798,-1.31418438,2.58790215

>  <Name>
ligand

>  <RI>
0

>  <Rbt.Current_Directory>
/home/itssahil/PROJECTS/Mol_Feturizer/New_Systems/rnas/2EES

>  <Rbt.Executable>
rbdock ($Id: //depot/dev/client3/rdock/2013.1/src/exe/rbdock.cxx#4 $)

>  <Rbt.Library>
libRbt.so (2013.1, Build901 2013/11/27)

>  <Rbt.Parameter_File>
/export/apps/rDock/src/rDock_2013.1_src/data/scripts/dock_solv.prm

>  <Rbt.Receptor>
prm/blind_docking_40.prm

>  <SCORE>
-17.0307

>  <SCORE.INTER>
-17.0307

>  <SCORE.INTER.CONST>
1

>  <SCORE.INTER.POLAR>
0

>  <SCORE.INTER.ROT>
0

>  <SCORE.INTER.SOLV>
3.82325

>  <SCORE.INTER.VDW>
-16.2282

>  <SCORE.INTER.norm>
-1.70307

>  <SCORE.INTRA>
0

>  <SCORE.INTRA.DIHEDRAL>
0

>  <SCORE.INTRA.DIHEDRAL.0>
0

>  <SCORE.INTRA.POLAR>
0

>  <SCORE.INTRA.POLAR.0>
0

>  <SCORE.INTRA.REPUL>
0

>  <SCORE.INTRA.REPUL.0>
0

>  <SCORE.INTRA.SOLV>
0

>  <SCORE.INTRA.SOLV.lig_0>
-4.28614

>  <SCORE.INTRA.VDW>
0

>  <SCORE.INTRA.VDW.0>
0

>  <SCORE.INTRA.norm>
0

>  <SCORE.RESTR>
0

>  <SCORE.RESTR.CAVITY>
0

>  <SCORE.RESTR.norm>
0

>  <SCORE.SYSTEM>
0

>  <SCORE.SYSTEM.CONST>
0

>  <SCORE.SYSTEM.DIHEDRAL>
0

>  <SCORE.SYSTEM.SOLV>
0

>  <SCORE.SYSTEM.norm>
0

>  <SCORE.heavy>
10

>  <SCORE.norm>
-1.70307

>  <RMSD>
2.455

$$$$
ligand
 OpenBabel11021811423D
libRbt.so/2013.1/901 2013/11/27
 10 11  0  0  0  0  0  0  0  0999 V2000
  -12.0786  -11.0922    9.1497 N   0  0  0  0  0  0  0  0  0  0  0  0
  -12.1087   -9.8456    8.5216 C   0  0  0  0  0  0  0  0  0  0  0  0
  -11.8273   -9.6904    7.2155 N   0  0  0  0  0  0  0  0  0  0  0  0
  -11.5153  -10.8874    6.5771 C   0  0  0  0  0  0  0  0  0  0  0  0
  -11.4550  -12.1706    7.1238 C   0  0  0  0  0  0  0  0  0  0  0  0
  -11.7491  -12.3408    8.5227 C   0  0  0  0  0  0  0  0  0  0  0  0
  -11.7658  -13.3305    9.2140 O   0  0  0  0  0  0  0  0  0  0  0  0
  -11.1096  -13.0797    6.1072 N   0  0  0  0  0  0  0  0  0  0  0  0
  -10.9763  -12.3281    4.9812 C   0  0  0  0  0  0  0  0  0  0  0  0
  -11.2204  -10.9727    5.2431 N   0  0  0  0  0  0  0  0  0  0  0  0
  1  2  1  0  0  0  0
  1  6  1  0  0  0  0
  2  3  2  0  0  0  0
  3  4  1  0  0  0  0
  4  5  2  0  0  0  0
  4 10  1  0  0  0  0
  5  6  1  0  0  0  0
  5  8  1  0  0  0  0
  6  7  2  0  0  0  0
  8  9  1  0  0  0  0
  9 10  2  0  0  0  0
M  END
>  <CHROM.1>
-11.58489407,-11.60480798,7.30408849,2.59829161,-1.31332316,2.57683033

>  <Name>
ligand

>  <RI>
0

>  <Rbt.Current_Directory>
/home/itssahil/PROJECTS/Mol_Feturizer/New_Systems/rnas/2EES

>  <Rbt.Executable>
rbdock ($Id: //depot/dev/client3/rdock/2013.1/src/exe/rbdock.cxx#4 $)

>  <Rbt.Library>
libRbt.so (2013.1, Build901 2013/11/27)

>  <Rbt.Parameter_File>
/export/apps/rDock/src/rDock_2013.1_src/data/scripts/dock_solv.prm

>  <Rbt.Receptor>
prm/blind_docking_60.prm

>  <SCORE>
-17.0328

>  <SCORE.INTER>
-17.0328

>  <SCORE.INTER.CONST>
1

>  <SCORE.INTER.POLAR>
0

>  <SCORE.INTER.ROT>
0

>  <SCORE.INTER.SOLV>
3.82079

>  <SCORE.INTER.VDW>
-16.2288

>  <SCORE.INTER.norm>
-1.70328

>  <SCORE.INTRA>
0

>  <SCORE.INTRA.DIHEDRAL>
0

>  <SCORE.INTRA.DIHEDRAL.0>
0

>  <SCORE.INTRA.POLAR>
0

>  <SCORE.INTRA.POLAR.0>
0

>  <SCORE.INTRA.REPUL>
0

>  <SCORE.INTRA.REPUL.0>
0

>  <SCORE.INTRA.SOLV>
0

>  <SCORE.INTRA.SOLV.lig_0>
-4.28614

>  <SCORE.INTRA.VDW>
0

>  <SCORE.INTRA.VDW.0>
0

>  <SCORE.INTRA.norm>
0

>  <SCORE.RESTR>
0

>  <SCORE.RESTR.CAVITY>
0

>  <SCORE.RESTR.norm>
0

>  <SCORE.SYSTEM>
0

>  <SCORE.SYSTEM.CONST>
0

>  <SCORE.SYSTEM.DIHEDRAL>
0

>  <SCORE.SYSTEM.SOLV>
0

>  <SCORE.SYSTEM.norm>
0

>  <SCORE.heavy>
10

>  <SCORE.norm>
-1.70328

>  <RMSD>
2.455

$$$$
ligand
 OpenBabel11021811423D
libRbt.so/2013.1/901 2013/11/27
 10 11  0  0  0  0  0  0  0  0999 V2000
  -12.0959  -11.0746    9.1441 N   0  0  0  0  0  0  0  0  0  0  0  0
  -12.1225   -9.8305    8.5106 C   0  0  0  0  0  0  0  0  0  0  0  0
  -11.8344   -9.6810    7.2054 N   0  0  0  0  0  0  0  0  0  0  0  0
  -11.5194  -10.8808    6.5736 C   0  0  0  0  0  0  0  0  0  0  0  0
  -11.4622  -12.1616    7.1260 C   0  0  0  0  0  0  0  0  0  0  0  0
  -11.7634  -12.3259    8.5241 C   0  0  0  0  0  0  0  0  0  0  0  0
  -11.7838  -13.3126    9.2195 O   0  0  0  0  0  0  0  0  0  0  0  0
  -11.1118  -13.0751    6.1151 N   0  0  0  0  0  0  0  0  0  0  0  0
  -10.9726  -12.3283    4.9866 C   0  0  0  0  0  0  0  0  0  0  0  0
  -11.2177  -10.9717    5.2415 N   0  0  0  0  0  0  0  0  0  0  0  0
  1  2  1  0  0  0  0
  1  6  1  0  0  0  0
  2  3  2  0  0  0  0
  3  4  1  0  0  0  0
  4  5  2  0  0  0  0
  4 10  1  0  0  0  0
  5  6  1  0  0  0  0
  5  8  1  0  0  0  0
  6  7  2  0  0  0  0
  8  9  1  0  0  0  0
  9 10  2  0  0  0  0
M  END
>  <CHROM.1>
-11.59286685,-11.59502669,7.30325740,2.60955376,-1.30910602,2.58347897

>  <Name>
ligand

>  <RI>
0

>  <Rbt.Current_Directory>
/home/itssahil/PROJECTS/Mol_Feturizer/New_Systems/rnas/2EES

>  <Rbt.Executable>
rbdock ($Id: //depot/dev/client3/rdock/2013.1/src/exe/rbdock.cxx#4 $)

>  <Rbt.Library>
libRbt.so (2013.1, Build901 2013/11/27)

>  <Rbt.Parameter_File>
/export/apps/rDock/src/rDock_2013.1_src/data/scripts/dock_solv.prm

>  <Rbt.Receptor>
prm/blind_docking_80.prm

>  <SCORE>
-16.9925

>  <SCORE.INTER>
-16.9925

>  <SCORE.INTER.CONST>
1

>  <SCORE.INTER.POLAR>
0

>  <SCORE.INTER.ROT>
0

>  <SCORE.INTER.SOLV>
3.79724

>  <SCORE.INTER.VDW>
-16.1941

>  <SCORE.INTER.norm>
-1.69925

>  <SCORE.INTRA>
0

>  <SCORE.INTRA.DIHEDRAL>
0

>  <SCORE.INTRA.DIHEDRAL.0>
0

>  <SCORE.INTRA.POLAR>
0

>  <SCORE.INTRA.POLAR.0>
0

>  <SCORE.INTRA.REPUL>
0

>  <SCORE.INTRA.REPUL.0>
0

>  <SCORE.INTRA.SOLV>
0

>  <SCORE.INTRA.SOLV.lig_0>
-4.28614

>  <SCORE.INTRA.VDW>
0

>  <SCORE.INTRA.VDW.0>
0

>  <SCORE.INTRA.norm>
0

>  <SCORE.RESTR>
0

>  <SCORE.RESTR.CAVITY>
0

>  <SCORE.RESTR.norm>
0

>  <SCORE.SYSTEM>
0

>  <SCORE.SYSTEM.CONST>
0

>  <SCORE.SYSTEM.DIHEDRAL>
0

>  <SCORE.SYSTEM.SOLV>
0

>  <SCORE.SYSTEM.norm>
0

>  <SCORE.heavy>
10

>  <SCORE.norm>
-1.69925

>  <RMSD>
2.455

$$$$
ligand
 OpenBabel11021811423D
libRbt.so/2013.1/901 2013/11/27
 10 11  0  0  0  0  0  0  0  0999 V2000
  -12.0802  -11.0879    9.1483 N   0  0  0  0  0  0  0  0  0  0  0  0
  -12.1043   -9.8417    8.5192 C   0  0  0  0  0  0  0  0  0  0  0  0
  -11.8203   -9.6889    7.2134 N   0  0  0  0  0  0  0  0  0  0  0  0
  -11.5122  -10.8877    6.5764 C   0  0  0  0  0  0  0  0  0  0  0  0
  -11.4580  -12.1706    7.1243 C   0  0  0  0  0  0  0  0  0  0  0  0
  -11.7548  -12.3384    8.5229 C   0  0  0  0  0  0  0  0  0  0  0  0
  -11.7766  -13.3274    9.2151 O   0  0  0  0  0  0  0  0  0  0  0  0
  -11.1148  -13.0820    6.1091 N   0  0  0  0  0  0  0  0  0  0  0  0
  -10.9768  -12.3320    4.9826 C   0  0  0  0  0  0  0  0  0  0  0  0
  -11.2157  -10.9753    5.2429 N   0  0  0  0  0  0  0  0  0  0  0  0
  1  2  1  0  0  0  0
  1  6  1  0  0  0  0
  2  3  2  0  0  0  0
  3  4  1  0  0  0  0
  4  5  2  0  0  0  0
  4 10  1  0  0  0  0
  5  6  1  0  0  0  0
  5  8  1  0  0  0  0
  6  7  2  0  0  0  0
  8  9  1  0  0  0  0
  9 10  2  0  0  0  0
M  END
>  <CHROM.1>
-11.58583046,-11.60413635,7.30392894,2.61499996,-1.31422359,2.59211567

>  <Name>
ligand

>  <RI>
0

>  <Rbt.Current_Directory>
/home/itssahil/PROJECTS/Mol_Feturizer/New_Systems/rnas/2EES

>  <Rbt.Executable>
rbdock ($Id: //depot/dev/client3/rdock/2013.1/src/exe/rbdock.cxx#4 $)

>  <Rbt.Library>
libRbt.so (2013.1, Build901 2013/11/27)

>  <Rbt.Parameter_File>
/export/apps/rDock/src/rDock_2013.1_src/data/scripts/dock_solv.prm

>  <Rbt.Receptor>
prm/blind_docking_80.prm

>  <SCORE>
-17.0289

>  <SCORE.INTER>
-17.0289

>  <SCORE.INTER.CONST>
1

>  <SCORE.INTER.POLAR>
0

>  <SCORE.INTER.ROT>
0

>  <SCORE.INTER.SOLV>
3.82069

>  <SCORE.INTER.VDW>
-16.2262

>  <SCORE.INTER.norm>
-1.70289

>  <SCORE.INTRA>
0

>  <SCORE.INTRA.DIHEDRAL>
0

>  <SCORE.INTRA.DIHEDRAL.0>
0

>  <SCORE.INTRA.POLAR>
0

>  <SCORE.INTRA.POLAR.0>
0

>  <SCORE.INTRA.REPUL>
0

>  <SCORE.INTRA.REPUL.0>
0

>  <SCORE.INTRA.SOLV>
0

>  <SCORE.INTRA.SOLV.lig_0>
-4.28614

>  <SCORE.INTRA.VDW>
0

>  <SCORE.INTRA.VDW.0>
0

>  <SCORE.INTRA.norm>
0

>  <SCORE.RESTR>
0

>  <SCORE.RESTR.CAVITY>
0

>  <SCORE.RESTR.norm>
0

>  <SCORE.SYSTEM>
0

>  <SCORE.SYSTEM.CONST>
0

>  <SCORE.SYSTEM.DIHEDRAL>
0

>  <SCORE.SYSTEM.SOLV>
0

>  <SCORE.SYSTEM.norm>
0

>  <SCORE.heavy>
10

>  <SCORE.norm>
-1.70289

>  <RMSD>
2.455

$$$$
ligand
 OpenBabel11021811423D
libRbt.so/2013.1/901 2013/11/27
 10 11  0  0  0  0  0  0  0  0999 V2000
  -12.0777  -11.0911    9.1503 N   0  0  0  0  0  0  0  0  0  0  0  0
  -12.1059   -9.8443    8.5224 C   0  0  0  0  0  0  0  0  0  0  0  0
  -11.8248   -9.6896    7.2162 N   0  0  0  0  0  0  0  0  0  0  0  0
  -11.5151  -10.8870    6.5775 C   0  0  0  0  0  0  0  0  0  0  0  0
  -11.4568  -12.1704    7.1241 C   0  0  0  0  0  0  0  0  0  0  0  0
  -11.7506  -12.3402    8.5231 C   0  0  0  0  0  0  0  0  0  0  0  0
  -11.7686  -13.3299    9.2144 O   0  0  0  0  0  0  0  0  0  0  0  0
  -11.1134  -13.0800    6.1074 N   0  0  0  0  0  0  0  0  0  0  0  0
  -10.9793  -12.3285    4.9813 C   0  0  0  0  0  0  0  0  0  0  0  0
  -11.2209  -10.9727    5.2434 N   0  0  0  0  0  0  0  0  0  0  0  0
  1  2  1  0  0  0  0
  1  6  1  0  0  0  0
  2  3  2  0  0  0  0
  3  4  1  0  0  0  0
  4  5  2  0  0  0  0
  4 10  1  0  0  0  0
  5  6  1  0  0  0  0
  5  8  1  0  0  0  0
  6  7  2  0  0  0  0
  8  9  1  0  0  0  0
  9 10  2  0  0  0  0
M  END
>  <CHROM.1>
-11.58564081,-11.60433793,7.30450954,2.60309763,-1.31458683,2.58154980

>  <Name>
ligand

>  <RI>
0

>  <Rbt.Current_Directory>
/home/itssahil/PROJECTS/Mol_Feturizer/New_Systems/rnas/2EES

>  <Rbt.Executable>
rbdock ($Id: //depot/dev/client3/rdock/2013.1/src/exe/rbdock.cxx#4 $)

>  <Rbt.Library>
libRbt.so (2013.1, Build901 2013/11/27)

>  <Rbt.Parameter_File>
/export/apps/rDock/src/rDock_2013.1_src/data/scripts/dock_solv.prm

>  <Rbt.Receptor>
prm/blind_docking_80.prm

>  <SCORE>
-17.0315

>  <SCORE.INTER>
-17.0315

>  <SCORE.INTER.CONST>
1

>  <SCORE.INTER.POLAR>
0

>  <SCORE.INTER.ROT>
0

>  <SCORE.INTER.SOLV>
3.82316

>  <SCORE.INTER.VDW>
-16.2287

>  <SCORE.INTER.norm>
-1.70315

>  <SCORE.INTRA>
0

>  <SCORE.INTRA.DIHEDRAL>
0

>  <SCORE.INTRA.DIHEDRAL.0>
0

>  <SCORE.INTRA.POLAR>
0

>  <SCORE.INTRA.POLAR.0>
0

>  <SCORE.INTRA.REPUL>
0

>  <SCORE.INTRA.REPUL.0>
0

>  <SCORE.INTRA.SOLV>
0

>  <SCORE.INTRA.SOLV.lig_0>
-4.28614

>  <SCORE.INTRA.VDW>
0

>  <SCORE.INTRA.VDW.0>
0

>  <SCORE.INTRA.norm>
0

>  <SCORE.RESTR>
0

>  <SCORE.RESTR.CAVITY>
0

>  <SCORE.RESTR.norm>
0

>  <SCORE.SYSTEM>
0

>  <SCORE.SYSTEM.CONST>
0

>  <SCORE.SYSTEM.DIHEDRAL>
0

>  <SCORE.SYSTEM.SOLV>
0

>  <SCORE.SYSTEM.norm>
0

>  <SCORE.heavy>
10

>  <SCORE.norm>
-1.70315

>  <RMSD>
2.455

$$$$
ligand
 OpenBabel11021811423D
libRbt.so/2013.1/901 2013/11/27
 10 11  0  0  0  0  0  0  0  0999 V2000
  -12.0880  -11.0942    9.1454 N   0  0  0  0  0  0  0  0  0  0  0  0
  -12.1092   -9.8458    8.5204 C   0  0  0  0  0  0  0  0  0  0  0  0
  -11.8225   -9.6890    7.2157 N   0  0  0  0  0  0  0  0  0  0  0  0
  -11.5148  -10.8861    6.5753 C   0  0  0  0  0  0  0  0  0  0  0  0
  -11.4634  -12.1709    7.1190 C   0  0  0  0  0  0  0  0  0  0  0  0
  -11.7632  -12.3430    8.5165 C   0  0  0  0  0  0  0  0  0  0  0  0
  -11.7876  -13.3343    9.2052 O   0  0  0  0  0  0  0  0  0  0  0  0
  -11.1195  -13.0794    6.1013 N   0  0  0  0  0  0  0  0  0  0  0  0
  -10.9782  -12.3257    4.9777 C   0  0  0  0  0  0  0  0  0  0  0  0
  -11.2158  -10.9696    5.2421 N   0  0  0  0  0  0  0  0  0  0  0  0
  1  2  1  0  0  0  0
  1  6  1  0  0  0  0
  2  3  2  0  0  0  0
  3  4  1  0  0  0  0
  4  5  2  0  0  0  0
  4 10  1  0  0  0  0
  5  6  1  0  0  0  0
  5  8  1  0  0  0  0
  6  7  2  0  0  0  0
  8  9  1  0  0  0  0
  9 10  2  0  0  0  0
M  END
>  <CHROM.1>
-11.59080518,-11.60484150,7.30024811,2.62352571,-1.31327633,2.60372674

>  <Name>
ligand

>  <RI>
0

>  <Rbt.Current_Directory>
/home/itssahil/PROJECTS/Mol_Feturizer/New_Systems/rnas/2EES

>  <Rbt.Executable>
rbdock ($Id: //depot/dev/client3/rdock/2013.1/src/exe/rbdock.cxx#4 $)

>  <Rbt.Library>
libRbt.so (2013.1, Build901 2013/11/27)

>  <Rbt.Parameter_File>
/export/apps/rDock/src/rDock_2013.1_src/data/scripts/dock_solv.prm

>  <Rbt.Receptor>
prm/blind_docking_80.prm

>  <SCORE>
-17.0027

>  <SCORE.INTER>
-17.0027

>  <SCORE.INTER.CONST>
1

>  <SCORE.INTER.POLAR>
0

>  <SCORE.INTER.ROT>
0

>  <SCORE.INTER.SOLV>
3.82566

>  <SCORE.INTER.VDW>
-16.2104

>  <SCORE.INTER.norm>
-1.70027

>  <SCORE.INTRA>
0

>  <SCORE.INTRA.DIHEDRAL>
0

>  <SCORE.INTRA.DIHEDRAL.0>
0

>  <SCORE.INTRA.POLAR>
0

>  <SCORE.INTRA.POLAR.0>
0

>  <SCORE.INTRA.REPUL>
0

>  <SCORE.INTRA.REPUL.0>
0

>  <SCORE.INTRA.SOLV>
0

>  <SCORE.INTRA.SOLV.lig_0>
-4.28614

>  <SCORE.INTRA.VDW>
0

>  <SCORE.INTRA.VDW.0>
0

>  <SCORE.INTRA.norm>
0

>  <SCORE.RESTR>
0

>  <SCORE.RESTR.CAVITY>
0

>  <SCORE.RESTR.norm>
0

>  <SCORE.SYSTEM>
0

>  <SCORE.SYSTEM.CONST>
0

>  <SCORE.SYSTEM.DIHEDRAL>
0

>  <SCORE.SYSTEM.SOLV>
0

>  <SCORE.SYSTEM.norm>
0

>  <SCORE.heavy>
10

>  <SCORE.norm>
-1.70027

>  <RMSD>
2.455

$$$$
ligand
 OpenBabel11021811423D
libRbt.so/2013.1/901 2013/11/27
 10 11  0  0  0  0  0  0  0  0999 V2000
  -12.0785  -11.0891    9.1511 N   0  0  0  0  0  0  0  0  0  0  0  0
  -12.1081   -9.8431    8.5217 C   0  0  0  0  0  0  0  0  0  0  0  0
  -11.8263   -9.6895    7.2155 N   0  0  0  0  0  0  0  0  0  0  0  0
  -11.5144  -10.8872    6.5784 C   0  0  0  0  0  0  0  0  0  0  0  0
  -11.4546  -12.1698    7.1265 C   0  0  0  0  0  0  0  0  0  0  0  0
  -11.7492  -12.3385    8.5255 C   0  0  0  0  0  0  0  0  0  0  0  0
  -11.7663  -13.3274    9.2179 O   0  0  0  0  0  0  0  0  0  0  0  0
  -11.1092  -13.0801    6.1110 N   0  0  0  0  0  0  0  0  0  0  0  0
  -10.9753  -12.3298    4.9843 C   0  0  0  0  0  0  0  0  0  0  0  0
  -11.2190  -10.9740    5.2446 N   0  0  0  0  0  0  0  0  0  0  0  0
  1  2  1  0  0  0  0
  1  6  1  0  0  0  0
  2  3  2  0  0  0  0
  3  4  1  0  0  0  0
  4  5  2  0  0  0  0
  4 10  1  0  0  0  0
  5  6  1  0  0  0  0
  5  8  1  0  0  0  0
  6  7  2  0  0  0  0
  8  9  1  0  0  0  0
  9 10  2  0  0  0  0
M  END
>  <CHROM.1>
-11.58438902,-11.60378787,7.30616495,2.59986874,-1.31320697,2.57729011

>  <Name>
ligand

>  <RI>
0

>  <Rbt.Current_Directory>
/home/itssahil/PROJECTS/Mol_Feturizer/New_Systems/rnas/2EES

>  <Rbt.Executable>
rbdock ($Id: //depot/dev/client3/rdock/2013.1/src/exe/rbdock.cxx#4 $)

>  <Rbt.Library>
libRbt.so (2013.1, Build901 2013/11/27)

>  <Rbt.Parameter_File>
/export/apps/rDock/src/rDock_2013.1_src/data/scripts/dock_solv.prm

>  <Rbt.Receptor>
prm/pocket_docking_4.prm

>  <SCORE>
-17.0311

>  <SCORE.INTER>
-17.0311

>  <SCORE.INTER.CONST>
1

>  <SCORE.INTER.POLAR>
0

>  <SCORE.INTER.ROT>
0

>  <SCORE.INTER.SOLV>
3.81823

>  <SCORE.INTER.VDW>
-16.2268

>  <SCORE.INTER.norm>
-1.70311

>  <SCORE.INTRA>
0

>  <SCORE.INTRA.DIHEDRAL>
0

>  <SCORE.INTRA.DIHEDRAL.0>
0

>  <SCORE.INTRA.POLAR>
0

>  <SCORE.INTRA.POLAR.0>
0

>  <SCORE.INTRA.REPUL>
0

>  <SCORE.INTRA.REPUL.0>
0

>  <SCORE.INTRA.SOLV>
0

>  <SCORE.INTRA.SOLV.lig_0>
-4.28614

>  <SCORE.INTRA.VDW>
0

>  <SCORE.INTRA.VDW.0>
0

>  <SCORE.INTRA.norm>
0

>  <SCORE.RESTR>
0

>  <SCORE.RESTR.CAVITY>
0

>  <SCORE.RESTR.norm>
0

>  <SCORE.SYSTEM>
0

>  <SCORE.SYSTEM.CONST>
0

>  <SCORE.SYSTEM.DIHEDRAL>
0

>  <SCORE.SYSTEM.SOLV>
0

>  <SCORE.SYSTEM.norm>
0

>  <SCORE.heavy>
10

>  <SCORE.norm>
-1.70311

>  <RMSD>
2.455

$$$$
ligand
 OpenBabel11021811423D
libRbt.so/2013.1/901 2013/11/27
 10 11  0  0  0  0  0  0  0  0999 V2000
  -12.0746  -11.0984    9.1517 N   0  0  0  0  0  0  0  0  0  0  0  0
  -12.1039   -9.8513    8.5245 C   0  0  0  0  0  0  0  0  0  0  0  0
  -11.8200   -9.6952    7.2190 N   0  0  0  0  0  0  0  0  0  0  0  0
  -11.5064  -10.8916    6.5804 C   0  0  0  0  0  0  0  0  0  0  0  0
  -11.4468  -12.1752    7.1262 C   0  0  0  0  0  0  0  0  0  0  0  0
  -11.7435  -12.3465    8.5245 C   0  0  0  0  0  0  0  0  0  0  0  0
  -11.7612  -13.3366    9.2151 O   0  0  0  0  0  0  0  0  0  0  0  0
  -11.0992  -13.0835    6.1097 N   0  0  0  0  0  0  0  0  0  0  0  0
  -10.9639  -12.3311    4.9845 C   0  0  0  0  0  0  0  0  0  0  0  0
  -11.2089  -10.9759    5.2469 N   0  0  0  0  0  0  0  0  0  0  0  0
  1  2  1  0  0  0  0
  1  6  1  0  0  0  0
  2  3  2  0  0  0  0
  3  4  1  0  0  0  0
  4  5  2  0  0  0  0
  4 10  1  0  0  0  0
  5  6  1  0  0  0  0
  5  8  1  0  0  0  0
  6  7  2  0  0  0  0
  8  9  1  0  0  0  0
  9 10  2  0  0  0  0
M  END
>  <CHROM.1>
-11.57719733,-11.60954838,7.30670544,2.60135165,-1.31152106,2.58049661

>  <Name>
ligand

>  <RI>
0

>  <Rbt.Current_Directory>
/home/itssahil/PROJECTS/Mol_Feturizer/New_Systems/rnas/2EES

>  <Rbt.Executable>
rbdock ($Id: //depot/dev/client3/rdock/2013.1/src/exe/rbdock.cxx#4 $)

>  <Rbt.Library>
libRbt.so (2013.1, Build901 2013/11/27)

>  <Rbt.Parameter_File>
/export/apps/rDock/src/rDock_2013.1_src/data/scripts/dock_solv.prm

>  <Rbt.Receptor>
prm/pocket_docking_5.prm

>  <SCORE>
-17.028

>  <SCORE.INTER>
-17.028

>  <SCORE.INTER.CONST>
1

>  <SCORE.INTER.POLAR>
0

>  <SCORE.INTER.ROT>
0

>  <SCORE.INTER.SOLV>
3.82341

>  <SCORE.INTER.VDW>
-16.2264

>  <SCORE.INTER.norm>
-1.7028

>  <SCORE.INTRA>
0

>  <SCORE.INTRA.DIHEDRAL>
0

>  <SCORE.INTRA.DIHEDRAL.0>
0

>  <SCORE.INTRA.POLAR>
0

>  <SCORE.INTRA.POLAR.0>
0

>  <SCORE.INTRA.REPUL>
0

>  <SCORE.INTRA.REPUL.0>
0

>  <SCORE.INTRA.SOLV>
0

>  <SCORE.INTRA.SOLV.lig_0>
-4.28614

>  <SCORE.INTRA.VDW>
0

>  <SCORE.INTRA.VDW.0>
0

>  <SCORE.INTRA.norm>
0

>  <SCORE.RESTR>
0

>  <SCORE.RESTR.CAVITY>
0

>  <SCORE.RESTR.norm>
0

>  <SCORE.SYSTEM>
0

>  <SCORE.SYSTEM.CONST>
0

>  <SCORE.SYSTEM.DIHEDRAL>
0

>  <SCORE.SYSTEM.SOLV>
0

>  <SCORE.SYSTEM.norm>
0

>  <SCORE.heavy>
10

>  <SCORE.norm>
-1.7028

>  <RMSD>
2.455

$$$$
ligand
 OpenBabel11021811423D
libRbt.so/2013.1/901 2013/11/27
 10 11  0  0  0  0  0  0  0  0999 V2000
  -12.1299  -11.0225    9.1379 N   0  0  0  0  0  0  0  0  0  0  0  0
  -12.1634   -9.7886    8.4852 C   0  0  0  0  0  0  0  0  0  0  0  0
  -11.8707   -9.6568    7.1790 N   0  0  0  0  0  0  0  0  0  0  0  0
  -11.5435  -10.8636    6.5672 C   0  0  0  0  0  0  0  0  0  0  0  0
  -11.4787  -12.1353    7.1395 C   0  0  0  0  0  0  0  0  0  0  0  0
  -11.7849  -12.2805    8.5386 C   0  0  0  0  0  0  0  0  0  0  0  0
  -11.8006  -13.2565    9.2491 O   0  0  0  0  0  0  0  0  0  0  0  0
  -11.1167  -13.0614    6.1443 N   0  0  0  0  0  0  0  0  0  0  0  0
  -10.9783  -12.3310    5.0050 C   0  0  0  0  0  0  0  0  0  0  0  0
  -11.2351  -10.9726    5.2379 N   0  0  0  0  0  0  0  0  0  0  0  0
  1  2  1  0  0  0  0
  1  6  1  0  0  0  0
  2  3  2  0  0  0  0
  3  4  1  0  0  0  0
  4  5  2  0  0  0  0
  4 10  1  0  0  0  0
  5  6  1  0  0  0  0
  5  8  1  0  0  0  0
  6  7  2  0  0  0  0
  8  9  1  0  0  0  0
  9 10  2  0  0  0  0
M  END
>  <CHROM.1>
-11.61459077,-11.56714185,7.30742082,2.59340553,-1.30113997,2.55252557

>  <Name>
ligand

>  <RI>
0

>  <Rbt.Current_Directory>
/home/itssahil/PROJECTS/Mol_Feturizer/New_Systems/rnas/2EES

>  <Rbt.Executable>
rbdock ($Id: //depot/dev/client3/rdock/2013.1/src/exe/rbdock.cxx#4 $)

>  <Rbt.Library>
libRbt.so (2013.1, Build901 2013/11/27)

>  <Rbt.Parameter_File>
/export/apps/rDock/src/rDock_2013.1_src/data/scripts/dock_solv.prm

>  <Rbt.Receptor>
prm/pocket_docking_5.prm

>  <SCORE>
-17.0379

>  <SCORE.INTER>
-17.0379

>  <SCORE.INTER.CONST>
1

>  <SCORE.INTER.POLAR>
0

>  <SCORE.INTER.ROT>
0

>  <SCORE.INTER.SOLV>
3.73174

>  <SCORE.INTER.VDW>
-16.2025

>  <SCORE.INTER.norm>
-1.70379

>  <SCORE.INTRA>
0

>  <SCORE.INTRA.DIHEDRAL>
0

>  <SCORE.INTRA.DIHEDRAL.0>
0

>  <SCORE.INTRA.POLAR>
0

>  <SCORE.INTRA.POLAR.0>
0

>  <SCORE.INTRA.REPUL>
0

>  <SCORE.INTRA.REPUL.0>
0

>  <SCORE.INTRA.SOLV>
0

>  <SCORE.INTRA.SOLV.lig_0>
-4.28614

>  <SCORE.INTRA.VDW>
0

>  <SCORE.INTRA.VDW.0>
0

>  <SCORE.INTRA.norm>
0

>  <SCORE.RESTR>
0

>  <SCORE.RESTR.CAVITY>
0

>  <SCORE.RESTR.norm>
0

>  <SCORE.SYSTEM>
0

>  <SCORE.SYSTEM.CONST>
0

>  <SCORE.SYSTEM.DIHEDRAL>
0

>  <SCORE.SYSTEM.SOLV>
0

>  <SCORE.SYSTEM.norm>
0

>  <SCORE.heavy>
10

>  <SCORE.norm>
-1.70379

>  <RMSD>
2.455

$$$$
ligand
 OpenBabel11021811423D
libRbt.so/2013.1/901 2013/11/27
 10 11  0  0  0  0  0  0  0  0999 V2000
  -12.0834  -11.0918    9.1474 N   0  0  0  0  0  0  0  0  0  0  0  0
  -12.1104   -9.8447    8.5200 C   0  0  0  0  0  0  0  0  0  0  0  0
  -11.8263   -9.6893    7.2146 N   0  0  0  0  0  0  0  0  0  0  0  0
  -11.5148  -10.8865    6.5761 C   0  0  0  0  0  0  0  0  0  0  0  0
  -11.4575  -12.1700    7.1222 C   0  0  0  0  0  0  0  0  0  0  0  0
  -11.7546  -12.3406    8.5204 C   0  0  0  0  0  0  0  0  0  0  0  0
  -11.7741  -13.3306    9.2112 O   0  0  0  0  0  0  0  0  0  0  0  0
  -11.1116  -13.0791    6.1058 N   0  0  0  0  0  0  0  0  0  0  0  0
  -10.9749  -12.3271    4.9805 C   0  0  0  0  0  0  0  0  0  0  0  0
  -11.2174  -10.9714    5.2426 N   0  0  0  0  0  0  0  0  0  0  0  0
  1  2  1  0  0  0  0
  1  6  1  0  0  0  0
  2  3  2  0  0  0  0
  3  4  1  0  0  0  0
  4  5  2  0  0  0  0
  4 10  1  0  0  0  0
  5  6  1  0  0  0  0
  5  8  1  0  0  0  0
  6  7  2  0  0  0  0
  8  9  1  0  0  0  0
  9 10  2  0  0  0  0
M  END
>  <CHROM.1>
-11.58692087,-11.60411615,7.30253030,2.60738061,-1.31247513,2.58615985

>  <Name>
ligand

>  <RI>
0

>  <Rbt.Current_Directory>
/home/itssahil/PROJECTS/Mol_Feturizer/New_Systems/rnas/2EES

>  <Rbt.Executable>
rbdock ($Id: //depot/dev/client3/rdock/2013.1/src/exe/rbdock.cxx#4 $)

>  <Rbt.Library>
libRbt.so (2013.1, Build901 2013/11/27)

>  <Rbt.Parameter_File>
/export/apps/rDock/src/rDock_2013.1_src/data/scripts/dock_solv.prm

>  <Rbt.Receptor>
prm/pocket_docking_5.prm

>  <SCORE>
-17.0324

>  <SCORE.INTER>
-17.0324

>  <SCORE.INTER.CONST>
1

>  <SCORE.INTER.POLAR>
0

>  <SCORE.INTER.ROT>
0

>  <SCORE.INTER.SOLV>
3.8197

>  <SCORE.INTER.VDW>
-16.2282

>  <SCORE.INTER.norm>
-1.70324

>  <SCORE.INTRA>
0

>  <SCORE.INTRA.DIHEDRAL>
0

>  <SCORE.INTRA.DIHEDRAL.0>
0

>  <SCORE.INTRA.POLAR>
0

>  <SCORE.INTRA.POLAR.0>
0

>  <SCORE.INTRA.REPUL>
0

>  <SCORE.INTRA.REPUL.0>
0

>  <SCORE.INTRA.SOLV>
0

>  <SCORE.INTRA.SOLV.lig_0>
-4.28614

>  <SCORE.INTRA.VDW>
0

>  <SCORE.INTRA.VDW.0>
0

>  <SCORE.INTRA.norm>
0

>  <SCORE.RESTR>
0

>  <SCORE.RESTR.CAVITY>
0

>  <SCORE.RESTR.norm>
0

>  <SCORE.SYSTEM>
0

>  <SCORE.SYSTEM.CONST>
0

>  <SCORE.SYSTEM.DIHEDRAL>
0

>  <SCORE.SYSTEM.SOLV>
0

>  <SCORE.SYSTEM.norm>
0

>  <SCORE.heavy>
10

>  <SCORE.norm>
-1.70324

>  <RMSD>
2.455

$$$$
ligand
 OpenBabel11021811423D
libRbt.so/2013.1/901 2013/11/27
 10 11  0  0  0  0  0  0  0  0999 V2000
  -12.0867  -11.0814    9.1509 N   0  0  0  0  0  0  0  0  0  0  0  0
  -12.1104   -9.8343    8.5234 C   0  0  0  0  0  0  0  0  0  0  0  0
  -11.8290   -9.6802    7.2172 N   0  0  0  0  0  0  0  0  0  0  0  0
  -11.5240  -10.8786    6.5781 C   0  0  0  0  0  0  0  0  0  0  0  0
  -11.4703  -12.1623    7.1242 C   0  0  0  0  0  0  0  0  0  0  0  0
  -11.7644  -12.3315    8.5233 C   0  0  0  0  0  0  0  0  0  0  0  0
  -11.7861  -13.3213    9.2142 O   0  0  0  0  0  0  0  0  0  0  0  0
  -11.1305  -13.0729    6.1071 N   0  0  0  0  0  0  0  0  0  0  0  0
  -10.9938  -12.3217    4.9813 C   0  0  0  0  0  0  0  0  0  0  0  0
  -11.2303  -10.9650    5.2438 N   0  0  0  0  0  0  0  0  0  0  0  0
  1  2  1  0  0  0  0
  1  6  1  0  0  0  0
  2  3  2  0  0  0  0
  3  4  1  0  0  0  0
  4  5  2  0  0  0  0
  4 10  1  0  0  0  0
  5  6  1  0  0  0  0
  5  8  1  0  0  0  0
  6  7  2  0  0  0  0
  8  9  1  0  0  0  0
  9 10  2  0  0  0  0
M  END
>  <CHROM.1>
-11.59699502,-11.59589963,7.30483674,2.61529266,-1.31673805,2.59365974

>  <Name>
ligand

>  <RI>
0

>  <Rbt.Current_Directory>
/home/itssahil/PROJECTS/Mol_Feturizer/New_Systems/rnas/2EES

>  <Rbt.Executable>
rbdock ($Id: //depot/dev/client3/rdock/2013.1/src/exe/rbdock.cxx#4 $)

>  <Rbt.Library>
libRbt.so (2013.1, Build901 2013/11/27)

>  <Rbt.Parameter_File>
/export/apps/rDock/src/rDock_2013.1_src/data/scripts/dock_solv.prm

>  <Rbt.Receptor>
prm/pocket_docking_6.prm

>  <SCORE>
-17.0273

>  <SCORE.INTER>
-17.0273

>  <SCORE.INTER.CONST>
1

>  <SCORE.INTER.POLAR>
0

>  <SCORE.INTER.ROT>
0

>  <SCORE.INTER.SOLV>
3.82264

>  <SCORE.INTER.VDW>
-16.2258

>  <SCORE.INTER.norm>
-1.70273

>  <SCORE.INTRA>
0

>  <SCORE.INTRA.DIHEDRAL>
0

>  <SCORE.INTRA.DIHEDRAL.0>
0

>  <SCORE.INTRA.POLAR>
0

>  <SCORE.INTRA.POLAR.0>
0

>  <SCORE.INTRA.REPUL>
0

>  <SCORE.INTRA.REPUL.0>
0

>  <SCORE.INTRA.SOLV>
0

>  <SCORE.INTRA.SOLV.lig_0>
-4.28614

>  <SCORE.INTRA.VDW>
0

>  <SCORE.INTRA.VDW.0>
0

>  <SCORE.INTRA.norm>
0

>  <SCORE.RESTR>
0

>  <SCORE.RESTR.CAVITY>
0

>  <SCORE.RESTR.norm>
0

>  <SCORE.SYSTEM>
0

>  <SCORE.SYSTEM.CONST>
0

>  <SCORE.SYSTEM.DIHEDRAL>
0

>  <SCORE.SYSTEM.SOLV>
0

>  <SCORE.SYSTEM.norm>
0

>  <SCORE.heavy>
10

>  <SCORE.norm>
-1.70273

>  <RMSD>
2.455

$$$$
ligand
 OpenBabel11021811423D
libRbt.so/2013.1/901 2013/11/27
 10 11  0  0  0  0  0  0  0  0999 V2000
  -12.0766  -11.0811    9.1533 N   0  0  0  0  0  0  0  0  0  0  0  0
  -12.1099   -9.8361    8.5221 C   0  0  0  0  0  0  0  0  0  0  0  0
  -11.8312   -9.6839    7.2150 N   0  0  0  0  0  0  0  0  0  0  0  0
  -11.5185  -10.8820    6.5791 C   0  0  0  0  0  0  0  0  0  0  0  0
  -11.4551  -12.1637    7.1290 C   0  0  0  0  0  0  0  0  0  0  0  0
  -11.7462  -12.3308    8.5289 C   0  0  0  0  0  0  0  0  0  0  0  0
  -11.7600  -13.3187    9.2228 O   0  0  0  0  0  0  0  0  0  0  0  0
  -11.1102  -13.0749    6.1141 N   0  0  0  0  0  0  0  0  0  0  0  0
  -10.9802  -12.3260    4.9859 C   0  0  0  0  0  0  0  0  0  0  0  0
  -11.2259  -10.9703    5.2448 N   0  0  0  0  0  0  0  0  0  0  0  0
  1  2  1  0  0  0  0
  1  6  1  0  0  0  0
  2  3  2  0  0  0  0
  3  4  1  0  0  0  0
  4  5  2  0  0  0  0
  4 10  1  0  0  0  0
  5  6  1  0  0  0  0
  5  8  1  0  0  0  0
  6  7  2  0  0  0  0
  8  9  1  0  0  0  0
  9 10  2  0  0  0  0
M  END
>  <CHROM.1>
-11.58552907,-11.59764987,7.30806750,2.58890851,-1.31404845,2.56517298

>  <Name>
ligand

>  <RI>
0

>  <Rbt.Current_Directory>
/home/itssahil/PROJECTS/Mol_Feturizer/New_Systems/rnas/2EES

>  <Rbt.Executable>
rbdock ($Id: //depot/dev/client3/rdock/2013.1/src/exe/rbdock.cxx#4 $)

>  <Rbt.Library>
libRbt.so (2013.1, Build901 2013/11/27)

>  <Rbt.Parameter_File>
/export/apps/rDock/src/rDock_2013.1_src/data/scripts/dock_solv.prm

>  <Rbt.Receptor>
prm/pocket_docking_6.prm

>  <SCORE>
-17.0297

>  <SCORE.INTER>
-17.0297

>  <SCORE.INTER.CONST>
1

>  <SCORE.INTER.POLAR>
0

>  <SCORE.INTER.ROT>
0

>  <SCORE.INTER.SOLV>
3.81328

>  <SCORE.INTER.VDW>
-16.2242

>  <SCORE.INTER.norm>
-1.70297

>  <SCORE.INTRA>
0

>  <SCORE.INTRA.DIHEDRAL>
0

>  <SCORE.INTRA.DIHEDRAL.0>
0

>  <SCORE.INTRA.POLAR>
0

>  <SCORE.INTRA.POLAR.0>
0

>  <SCORE.INTRA.REPUL>
0

>  <SCORE.INTRA.REPUL.0>
0

>  <SCORE.INTRA.SOLV>
0

>  <SCORE.INTRA.SOLV.lig_0>
-4.28614

>  <SCORE.INTRA.VDW>
0

>  <SCORE.INTRA.VDW.0>
0

>  <SCORE.INTRA.norm>
0

>  <SCORE.RESTR>
0

>  <SCORE.RESTR.CAVITY>
0

>  <SCORE.RESTR.norm>
0

>  <SCORE.SYSTEM>
0

>  <SCORE.SYSTEM.CONST>
0

>  <SCORE.SYSTEM.DIHEDRAL>
0

>  <SCORE.SYSTEM.SOLV>
0

>  <SCORE.SYSTEM.norm>
0

>  <SCORE.heavy>
10

>  <SCORE.norm>
-1.70297

>  <RMSD>
2.455

$$$$
ligand
 OpenBabel11021811423D
libRbt.so/2013.1/901 2013/11/27
 10 11  0  0  0  0  0  0  0  0999 V2000
  -12.1438  -11.0214    9.1184 N   0  0  0  0  0  0  0  0  0  0  0  0
  -12.1567   -9.7859    8.4682 C   0  0  0  0  0  0  0  0  0  0  0  0
  -11.8469   -9.6545    7.1659 N   0  0  0  0  0  0  0  0  0  0  0  0
  -11.5250  -10.8633    6.5553 C   0  0  0  0  0  0  0  0  0  0  0  0
  -11.4803  -12.1369    7.1255 C   0  0  0  0  0  0  0  0  0  0  0  0
  -11.8047  -12.2817    8.5206 C   0  0  0  0  0  0  0  0  0  0  0  0
  -11.8392  -13.2590    9.2286 O   0  0  0  0  0  0  0  0  0  0  0  0
  -11.1160  -13.0646    6.1327 N   0  0  0  0  0  0  0  0  0  0  0  0
  -10.9563  -12.3333    4.9968 C   0  0  0  0  0  0  0  0  0  0  0  0
  -11.2018  -10.9728    5.2296 N   0  0  0  0  0  0  0  0  0  0  0  0
  1  2  1  0  0  0  0
  1  6  1  0  0  0  0
  2  3  2  0  0  0  0
  3  4  1  0  0  0  0
  4  5  2  0  0  0  0
  4 10  1  0  0  0  0
  5  6  1  0  0  0  0
  5  8  1  0  0  0  0
  6  7  2  0  0  0  0
  8  9  1  0  0  0  0
  9 10  2  0  0  0  0
M  END
>  <CHROM.1>
-11.61226223,-11.56763552,7.29310883,2.65005365,-1.29652978,2.60923835

>  <Name>
ligand

>  <RI>
0

>  <Rbt.Current_Directory>
/home/itssahil/PROJECTS/Mol_Feturizer/New_Systems/rnas/2EES

>  <Rbt.Executable>
rbdock ($Id: //depot/dev/client3/rdock/2013.1/src/exe/rbdock.cxx#4 $)

>  <Rbt.Library>
libRbt.so (2013.1, Build901 2013/11/27)

>  <Rbt.Parameter_File>
/export/apps/rDock/src/rDock_2013.1_src/data/scripts/dock_solv.prm

>  <Rbt.Receptor>
prm/pocket_docking_7.prm

>  <SCORE>
-17.0274

>  <SCORE.INTER>
-17.0274

>  <SCORE.INTER.CONST>
1

>  <SCORE.INTER.POLAR>
0

>  <SCORE.INTER.ROT>
0

>  <SCORE.INTER.SOLV>
3.72998

>  <SCORE.INTER.VDW>
-16.1949

>  <SCORE.INTER.norm>
-1.70274

>  <SCORE.INTRA>
0

>  <SCORE.INTRA.DIHEDRAL>
0

>  <SCORE.INTRA.DIHEDRAL.0>
0

>  <SCORE.INTRA.POLAR>
0

>  <SCORE.INTRA.POLAR.0>
0

>  <SCORE.INTRA.REPUL>
0

>  <SCORE.INTRA.REPUL.0>
0

>  <SCORE.INTRA.SOLV>
0

>  <SCORE.INTRA.SOLV.lig_0>
-4.28614

>  <SCORE.INTRA.VDW>
0

>  <SCORE.INTRA.VDW.0>
0

>  <SCORE.INTRA.norm>
0

>  <SCORE.RESTR>
0

>  <SCORE.RESTR.CAVITY>
0

>  <SCORE.RESTR.norm>
0

>  <SCORE.SYSTEM>
0

>  <SCORE.SYSTEM.CONST>
0

>  <SCORE.SYSTEM.DIHEDRAL>
0

>  <SCORE.SYSTEM.SOLV>
0

>  <SCORE.SYSTEM.norm>
0

>  <SCORE.heavy>
10

>  <SCORE.norm>
-1.70274

>  <RMSD>
2.455

$$$$
ligand
 OpenBabel11021811423D
libRbt.so/2013.1/901 2013/11/27
 10 11  0  0  0  0  0  0  0  0999 V2000
  -12.1406  -11.0142    9.1209 N   0  0  0  0  0  0  0  0  0  0  0  0
  -12.1278   -9.7739    8.4797 C   0  0  0  0  0  0  0  0  0  0  0  0
  -11.8176   -9.6396    7.1779 N   0  0  0  0  0  0  0  0  0  0  0  0
  -11.5229  -10.8506    6.5579 C   0  0  0  0  0  0  0  0  0  0  0  0
  -11.5048  -12.1290    7.1186 C   0  0  0  0  0  0  0  0  0  0  0  0
  -11.8299  -12.2771    8.5132 C   0  0  0  0  0  0  0  0  0  0  0  0
  -11.8842  -13.2586    9.2141 O   0  0  0  0  0  0  0  0  0  0  0  0
  -11.1624  -13.0570    6.1183 N   0  0  0  0  0  0  0  0  0  0  0  0
  -10.9889  -12.3210    4.9876 C   0  0  0  0  0  0  0  0  0  0  0  0
  -11.2045  -10.9572    5.2308 N   0  0  0  0  0  0  0  0  0  0  0  0
  1  2  1  0  0  0  0
  1  6  1  0  0  0  0
  2  3  2  0  0  0  0
  3  4  1  0  0  0  0
  4  5  2  0  0  0  0
  4 10  1  0  0  0  0
  5  6  1  0  0  0  0
  5  8  1  0  0  0  0
  6  7  2  0  0  0  0
  8  9  1  0  0  0  0
  9 10  2  0  0  0  0
M  END
>  <CHROM.1>
-11.62414272,-11.55829323,7.29061450,2.71857359,-1.30840738,2.68267007

>  <Name>
ligand

>  <RI>
0

>  <Rbt.Current_Directory>
/home/itssahil/PROJECTS/Mol_Feturizer/New_Systems/rnas/2EES

>  <Rbt.Executable>
rbdock ($Id: //depot/dev/client3/rdock/2013.1/src/exe/rbdock.cxx#4 $)

>  <Rbt.Library>
libRbt.so (2013.1, Build901 2013/11/27)

>  <Rbt.Parameter_File>
/export/apps/rDock/src/rDock_2013.1_src/data/scripts/dock_solv.prm

>  <Rbt.Receptor>
prm/pocket_docking_7.prm

>  <SCORE>
-17.0147

>  <SCORE.INTER>
-17.0147

>  <SCORE.INTER.CONST>
1

>  <SCORE.INTER.POLAR>
0

>  <SCORE.INTER.ROT>
0

>  <SCORE.INTER.SOLV>
3.76871

>  <SCORE.INTER.VDW>
-16.1994

>  <SCORE.INTER.norm>
-1.70147

>  <SCORE.INTRA>
0

>  <SCORE.INTRA.DIHEDRAL>
0

>  <SCORE.INTRA.DIHEDRAL.0>
0

>  <SCORE.INTRA.POLAR>
0

>  <SCORE.INTRA.POLAR.0>
0

>  <SCORE.INTRA.REPUL>
0

>  <SCORE.INTRA.REPUL.0>
0

>  <SCORE.INTRA.SOLV>
0

>  <SCORE.INTRA.SOLV.lig_0>
-4.28614

>  <SCORE.INTRA.VDW>
0

>  <SCORE.INTRA.VDW.0>
0

>  <SCORE.INTRA.norm>
0

>  <SCORE.RESTR>
0

>  <SCORE.RESTR.CAVITY>
0

>  <SCORE.RESTR.norm>
0

>  <SCORE.SYSTEM>
0

>  <SCORE.SYSTEM.CONST>
0

>  <SCORE.SYSTEM.DIHEDRAL>
0

>  <SCORE.SYSTEM.SOLV>
0

>  <SCORE.SYSTEM.norm>
0

>  <SCORE.heavy>
10

>  <SCORE.norm>
-1.70147

>  <RMSD>
2.455

$$$$
ligand
 OpenBabel11021811423D
libRbt.so/2013.1/901 2013/11/27
 10 11  0  0  0  0  0  0  0  0999 V2000
  -12.0846  -11.1016    9.1587 N   0  0  0  0  0  0  0  0  0  0  0  0
  -12.1205   -9.8537    8.5334 C   0  0  0  0  0  0  0  0  0  0  0  0
  -11.8412   -9.6946    7.2273 N   0  0  0  0  0  0  0  0  0  0  0  0
  -11.5249  -10.8889    6.5860 C   0  0  0  0  0  0  0  0  0  0  0  0
  -11.4586  -12.1730    7.1298 C   0  0  0  0  0  0  0  0  0  0  0  0
  -11.7505  -12.3475    8.5287 C   0  0  0  0  0  0  0  0  0  0  0  0
  -11.7623  -13.3386    9.2179 O   0  0  0  0  0  0  0  0  0  0  0  0
  -11.1106  -13.0785    6.1110 N   0  0  0  0  0  0  0  0  0  0  0  0
  -10.9816  -12.3240    4.9865 C   0  0  0  0  0  0  0  0  0  0  0  0
  -11.2310  -10.9701    5.2515 N   0  0  0  0  0  0  0  0  0  0  0  0
  1  2  1  0  0  0  0
  1  6  1  0  0  0  0
  2  3  2  0  0  0  0
  3  4  1  0  0  0  0
  4  5  2  0  0  0  0
  4 10  1  0  0  0  0
  5  6  1  0  0  0  0
  5  8  1  0  0  0  0
  6  7  2  0  0  0  0
  8  9  1  0  0  0  0
  9 10  2  0  0  0  0
M  END
>  <CHROM.1>
-11.59069235,-11.60814661,7.31151434,2.58230779,-1.31195911,2.56351122

>  <Name>
ligand

>  <RI>
0

>  <Rbt.Current_Directory>
/home/itssahil/PROJECTS/Mol_Feturizer/New_Systems/rnas/2EES

>  <Rbt.Executable>
rbdock ($Id: //depot/dev/client3/rdock/2013.1/src/exe/rbdock.cxx#4 $)

>  <Rbt.Library>
libRbt.so (2013.1, Build901 2013/11/27)

>  <Rbt.Parameter_File>
/export/apps/rDock/src/rDock_2013.1_src/data/scripts/dock_solv.prm

>  <Rbt.Receptor>
prm/pocket_docking_8.prm

>  <SCORE>
-16.9983

>  <SCORE.INTER>
-16.9983

>  <SCORE.INTER.CONST>
1

>  <SCORE.INTER.POLAR>
0

>  <SCORE.INTER.ROT>
0

>  <SCORE.INTER.SOLV>
3.82268

>  <SCORE.INTER.VDW>
-16.2064

>  <SCORE.INTER.norm>
-1.69983

>  <SCORE.INTRA>
0

>  <SCORE.INTRA.DIHEDRAL>
0

>  <SCORE.INTRA.DIHEDRAL.0>
0

>  <SCORE.INTRA.POLAR>
0

>  <SCORE.INTRA.POLAR.0>
0

>  <SCORE.INTRA.REPUL>
0

>  <SCORE.INTRA.REPUL.0>
0

>  <SCORE.INTRA.SOLV>
0

>  <SCORE.INTRA.SOLV.lig_0>
-4.28614

>  <SCORE.INTRA.VDW>
0

>  <SCORE.INTRA.VDW.0>
0

>  <SCORE.INTRA.norm>
0

>  <SCORE.RESTR>
0

>  <SCORE.RESTR.CAVITY>
0

>  <SCORE.RESTR.norm>
0

>  <SCORE.SYSTEM>
0

>  <SCORE.SYSTEM.CONST>
0

>  <SCORE.SYSTEM.DIHEDRAL>
0

>  <SCORE.SYSTEM.SOLV>
0

>  <SCORE.SYSTEM.norm>
0

>  <SCORE.heavy>
10

>  <SCORE.norm>
-1.69983

>  <RMSD>
2.455

$$$$
ligand
 OpenBabel11021811423D
libRbt.so/2013.1/901 2013/11/27
 10 11  0  0  0  0  0  0  0  0999 V2000
  -12.0833  -11.1018    9.1470 N   0  0  0  0  0  0  0  0  0  0  0  0
  -12.1018   -9.8520    8.5248 C   0  0  0  0  0  0  0  0  0  0  0  0
  -11.8155   -9.6929    7.2202 N   0  0  0  0  0  0  0  0  0  0  0  0
  -11.5110  -10.8893    6.5770 C   0  0  0  0  0  0  0  0  0  0  0  0
  -11.4623  -12.1755    7.1178 C   0  0  0  0  0  0  0  0  0  0  0  0
  -11.7617  -12.3500    8.5150 C   0  0  0  0  0  0  0  0  0  0  0  0
  -11.7882  -13.3427    9.2016 O   0  0  0  0  0  0  0  0  0  0  0  0
  -11.1211  -13.0825    6.0979 N   0  0  0  0  0  0  0  0  0  0  0  0
  -10.9787  -12.3267    4.9759 C   0  0  0  0  0  0  0  0  0  0  0  0
  -11.2129  -10.9706    5.2434 N   0  0  0  0  0  0  0  0  0  0  0  0
  1  2  1  0  0  0  0
  1  6  1  0  0  0  0
  2  3  2  0  0  0  0
  3  4  1  0  0  0  0
  4  5  2  0  0  0  0
  4 10  1  0  0  0  0
  5  6  1  0  0  0  0
  5  8  1  0  0  0  0
  6  7  2  0  0  0  0
  8  9  1  0  0  0  0
  9 10  2  0  0  0  0
M  END
>  <CHROM.1>
-11.58828757,-11.60953081,7.30038888,2.63051945,-1.31495389,2.61272721

>  <Name>
ligand

>  <RI>
0

>  <Rbt.Current_Directory>
/home/itssahil/PROJECTS/Mol_Feturizer/New_Systems/rnas/2EES

>  <Rbt.Executable>
rbdock ($Id: //depot/dev/client3/rdock/2013.1/src/exe/rbdock.cxx#4 $)

>  <Rbt.Library>
libRbt.so (2013.1, Build901 2013/11/27)

>  <Rbt.Parameter_File>
/export/apps/rDock/src/rDock_2013.1_src/data/scripts/dock_solv.prm

>  <Rbt.Receptor>
prm/pocket_docking_8.prm

>  <SCORE>
-17.001

>  <SCORE.INTER>
-17.001

>  <SCORE.INTER.CONST>
1

>  <SCORE.INTER.POLAR>
0

>  <SCORE.INTER.ROT>
0

>  <SCORE.INTER.SOLV>
3.83717

>  <SCORE.INTER.VDW>
-16.213

>  <SCORE.INTER.norm>
-1.7001

>  <SCORE.INTRA>
0

>  <SCORE.INTRA.DIHEDRAL>
0

>  <SCORE.INTRA.DIHEDRAL.0>
0

>  <SCORE.INTRA.POLAR>
0

>  <SCORE.INTRA.POLAR.0>
0

>  <SCORE.INTRA.REPUL>
0

>  <SCORE.INTRA.REPUL.0>
0

>  <SCORE.INTRA.SOLV>
0

>  <SCORE.INTRA.SOLV.lig_0>
-4.28614

>  <SCORE.INTRA.VDW>
0

>  <SCORE.INTRA.VDW.0>
0

>  <SCORE.INTRA.norm>
0

>  <SCORE.RESTR>
0

>  <SCORE.RESTR.CAVITY>
0

>  <SCORE.RESTR.norm>
0

>  <SCORE.SYSTEM>
0

>  <SCORE.SYSTEM.CONST>
0

>  <SCORE.SYSTEM.DIHEDRAL>
0

>  <SCORE.SYSTEM.SOLV>
0

>  <SCORE.SYSTEM.norm>
0

>  <SCORE.heavy>
10

>  <SCORE.norm>
-1.7001

>  <RMSD>
2.455

$$$$
ligand
 OpenBabel11021811423D
libRbt.so/2013.1/901 2013/11/27
 10 11  0  0  0  0  0  0  0  0999 V2000
  -12.1368  -11.0142    9.1259 N   0  0  0  0  0  0  0  0  0  0  0  0
  -12.1228   -9.7730    8.4866 C   0  0  0  0  0  0  0  0  0  0  0  0
  -11.8136   -9.6373    7.1846 N   0  0  0  0  0  0  0  0  0  0  0  0
  -11.5213  -10.8478    6.5626 C   0  0  0  0  0  0  0  0  0  0  0  0
  -11.5046  -12.1270    7.1214 C   0  0  0  0  0  0  0  0  0  0  0  0
  -11.8286  -12.2767    8.5161 C   0  0  0  0  0  0  0  0  0  0  0  0
  -11.8839  -13.2592    9.2156 O   0  0  0  0  0  0  0  0  0  0  0  0
  -11.1645  -13.0541    6.1194 N   0  0  0  0  0  0  0  0  0  0  0  0
  -10.9910  -12.3166    4.9896 C   0  0  0  0  0  0  0  0  0  0  0  0
  -11.2043  -10.9530    5.2351 N   0  0  0  0  0  0  0  0  0  0  0  0
  1  2  1  0  0  0  0
  1  6  1  0  0  0  0
  2  3  2  0  0  0  0
  3  4  1  0  0  0  0
  4  5  2  0  0  0  0
  4 10  1  0  0  0  0
  5  6  1  0  0  0  0
  5  8  1  0  0  0  0
  6  7  2  0  0  0  0
  8  9  1  0  0  0  0
  9 10  2  0  0  0  0
M  END
>  <CHROM.1>
-11.62293536,-11.55639917,7.29435888,2.72229349,-1.30991038,2.68774034

>  <Name>
ligand

>  <RI>
0

>  <Rbt.Current_Directory>
/home/itssahil/PROJECTS/Mol_Feturizer/New_Systems/rnas/2EES

>  <Rbt.Executable>
rbdock ($Id: //depot/dev/client3/rdock/2013.1/src/exe/rbdock.cxx#4 $)

>  <Rbt.Library>
libRbt.so (2013.1, Build901 2013/11/27)

>  <Rbt.Parameter_File>
/export/apps/rDock/src/rDock_2013.1_src/data/scripts/dock_solv.prm

>  <Rbt.Receptor>
prm/pocket_docking_8.prm

>  <SCORE>
-17.0126

>  <SCORE.INTER>
-17.0126

>  <SCORE.INTER.CONST>
1

>  <SCORE.INTER.POLAR>
0

>  <SCORE.INTER.ROT>
0

>  <SCORE.INTER.SOLV>
3.77466

>  <SCORE.INTER.VDW>
-16.1999

>  <SCORE.INTER.norm>
-1.70126

>  <SCORE.INTRA>
0

>  <SCORE.INTRA.DIHEDRAL>
0

>  <SCORE.INTRA.DIHEDRAL.0>
0

>  <SCORE.INTRA.POLAR>
0

>  <SCORE.INTRA.POLAR.0>
0

>  <SCORE.INTRA.REPUL>
0

>  <SCORE.INTRA.REPUL.0>
0

>  <SCORE.INTRA.SOLV>
0

>  <SCORE.INTRA.SOLV.lig_0>
-4.28614

>  <SCORE.INTRA.VDW>
0

>  <SCORE.INTRA.VDW.0>
0

>  <SCORE.INTRA.norm>
0

>  <SCORE.RESTR>
0

>  <SCORE.RESTR.CAVITY>
0

>  <SCORE.RESTR.norm>
0

>  <SCORE.SYSTEM>
0

>  <SCORE.SYSTEM.CONST>
0

>  <SCORE.SYSTEM.DIHEDRAL>
0

>  <SCORE.SYSTEM.SOLV>
0

>  <SCORE.SYSTEM.norm>
0

>  <SCORE.heavy>
10

>  <SCORE.norm>
-1.70126

>  <RMSD>
2.455

$$$$
ligand
 OpenBabel11021811423D
libRbt.so/2013.1/901 2013/11/27
 10 11  0  0  0  0  0  0  0  0999 V2000
  -12.1343  -11.0101    9.1303 N   0  0  0  0  0  0  0  0  0  0  0  0
  -12.1564   -9.7769    8.4759 C   0  0  0  0  0  0  0  0  0  0  0  0
  -11.8592   -9.6493    7.1704 N   0  0  0  0  0  0  0  0  0  0  0  0
  -11.5399  -10.8594    6.5610 C   0  0  0  0  0  0  0  0  0  0  0  0
  -11.4866  -12.1308    7.1352 C   0  0  0  0  0  0  0  0  0  0  0  0
  -11.7976  -12.2716    8.5338 C   0  0  0  0  0  0  0  0  0  0  0  0
  -11.8229  -13.2466    9.2454 O   0  0  0  0  0  0  0  0  0  0  0  0
  -11.1292  -13.0611    6.1423 N   0  0  0  0  0  0  0  0  0  0  0  0
  -10.9820  -12.3333    5.0024 C   0  0  0  0  0  0  0  0  0  0  0  0
  -11.2288  -10.9727    5.2328 N   0  0  0  0  0  0  0  0  0  0  0  0
  1  2  1  0  0  0  0
  1  6  1  0  0  0  0
  2  3  2  0  0  0  0
  3  4  1  0  0  0  0
  4  5  2  0  0  0  0
  4 10  1  0  0  0  0
  5  6  1  0  0  0  0
  5  8  1  0  0  0  0
  6  7  2  0  0  0  0
  8  9  1  0  0  0  0
  9 10  2  0  0  0  0
M  END
>  <CHROM.1>
-11.61844653,-11.56135999,7.30202413,2.62371040,-1.30317783,2.58037664

>  <Name>
ligand

>  <RI>
0

>  <Rbt.Current_Directory>
/home/itssahil/PROJECTS/Mol_Feturizer/New_Systems/rnas/2EES

>  <Rbt.Executable>
rbdock ($Id: //depot/dev/client3/rdock/2013.1/src/exe/rbdock.cxx#4 $)

>  <Rbt.Library>
libRbt.so (2013.1, Build901 2013/11/27)

>  <Rbt.Parameter_File>
/export/apps/rDock/src/rDock_2013.1_src/data/scripts/dock_solv.prm

>  <Rbt.Receptor>
prm/blind_docking_40.prm

>  <SCORE>
-17.0314

>  <SCORE.INTER>
-17.0314

>  <SCORE.INTER.CONST>
1

>  <SCORE.INTER.POLAR>
0

>  <SCORE.INTER.ROT>
0

>  <SCORE.INTER.SOLV>
3.73318

>  <SCORE.INTER.VDW>
-16.1987

>  <SCORE.INTER.norm>
-1.70314

>  <SCORE.INTRA>
0

>  <SCORE.INTRA.DIHEDRAL>
0

>  <SCORE.INTRA.DIHEDRAL.0>
0

>  <SCORE.INTRA.POLAR>
0

>  <SCORE.INTRA.POLAR.0>
0

>  <SCORE.INTRA.REPUL>
0

>  <SCORE.INTRA.REPUL.0>
0

>  <SCORE.INTRA.SOLV>
0

>  <SCORE.INTRA.SOLV.lig_0>
-4.28614

>  <SCORE.INTRA.VDW>
0

>  <SCORE.INTRA.VDW.0>
0

>  <SCORE.INTRA.norm>
0

>  <SCORE.RESTR>
0

>  <SCORE.RESTR.CAVITY>
0

>  <SCORE.RESTR.norm>
0

>  <SCORE.SYSTEM>
0

>  <SCORE.SYSTEM.CONST>
0

>  <SCORE.SYSTEM.DIHEDRAL>
0

>  <SCORE.SYSTEM.SOLV>
0

>  <SCORE.SYSTEM.norm>
0

>  <SCORE.heavy>
10

>  <SCORE.norm>
-1.70314

>  <RMSD>
2.456

$$$$
ligand
 OpenBabel11021811423D
libRbt.so/2013.1/901 2013/11/27
 10 11  0  0  0  0  0  0  0  0999 V2000
  -12.1002  -11.0626    9.1455 N   0  0  0  0  0  0  0  0  0  0  0  0
  -12.1276   -9.8195    8.5103 C   0  0  0  0  0  0  0  0  0  0  0  0
  -11.8442   -9.6722    7.2038 N   0  0  0  0  0  0  0  0  0  0  0  0
  -11.5330  -10.8733    6.5726 C   0  0  0  0  0  0  0  0  0  0  0  0
  -11.4753  -12.1534    7.1266 C   0  0  0  0  0  0  0  0  0  0  0  0
  -11.7716  -12.3152    8.5261 C   0  0  0  0  0  0  0  0  0  0  0  0
  -11.7906  -13.3009    9.2230 O   0  0  0  0  0  0  0  0  0  0  0  0
  -11.1298  -13.0688    6.1158 N   0  0  0  0  0  0  0  0  0  0  0  0
  -10.9939  -12.3238    4.9857 C   0  0  0  0  0  0  0  0  0  0  0  0
  -11.2363  -10.9665    5.2395 N   0  0  0  0  0  0  0  0  0  0  0  0
  1  2  1  0  0  0  0
  1  6  1  0  0  0  0
  2  3  2  0  0  0  0
  3  4  1  0  0  0  0
  4  5  2  0  0  0  0
  4 10  1  0  0  0  0
  5  6  1  0  0  0  0
  5  8  1  0  0  0  0
  6  7  2  0  0  0  0
  8  9  1  0  0  0  0
  9 10  2  0  0  0  0
M  END
>  <CHROM.1>
-11.60462735,-11.58638223,7.30355533,2.60598075,-1.31291048,2.57858389

>  <Name>
ligand

>  <RI>
0

>  <Rbt.Current_Directory>
/home/itssahil/PROJECTS/Mol_Feturizer/New_Systems/rnas/2EES

>  <Rbt.Executable>
rbdock ($Id: //depot/dev/client3/rdock/2013.1/src/exe/rbdock.cxx#4 $)

>  <Rbt.Library>
libRbt.so (2013.1, Build901 2013/11/27)

>  <Rbt.Parameter_File>
/export/apps/rDock/src/rDock_2013.1_src/data/scripts/dock_solv.prm

>  <Rbt.Receptor>
prm/blind_docking_60.prm

>  <SCORE>
-16.9886

>  <SCORE.INTER>
-16.9886

>  <SCORE.INTER.CONST>
1

>  <SCORE.INTER.POLAR>
0

>  <SCORE.INTER.ROT>
0

>  <SCORE.INTER.SOLV>
3.7948

>  <SCORE.INTER.VDW>
-16.1907

>  <SCORE.INTER.norm>
-1.69886

>  <SCORE.INTRA>
0

>  <SCORE.INTRA.DIHEDRAL>
0

>  <SCORE.INTRA.DIHEDRAL.0>
0

>  <SCORE.INTRA.POLAR>
0

>  <SCORE.INTRA.POLAR.0>
0

>  <SCORE.INTRA.REPUL>
0

>  <SCORE.INTRA.REPUL.0>
0

>  <SCORE.INTRA.SOLV>
0

>  <SCORE.INTRA.SOLV.lig_0>
-4.28614

>  <SCORE.INTRA.VDW>
0

>  <SCORE.INTRA.VDW.0>
0

>  <SCORE.INTRA.norm>
0

>  <SCORE.RESTR>
0

>  <SCORE.RESTR.CAVITY>
0

>  <SCORE.RESTR.norm>
0

>  <SCORE.SYSTEM>
0

>  <SCORE.SYSTEM.CONST>
0

>  <SCORE.SYSTEM.DIHEDRAL>
0

>  <SCORE.SYSTEM.SOLV>
0

>  <SCORE.SYSTEM.norm>
0

>  <SCORE.heavy>
10

>  <SCORE.norm>
-1.69886

>  <RMSD>
2.456

$$$$
ligand
 OpenBabel11021811423D
libRbt.so/2013.1/901 2013/11/27
 10 11  0  0  0  0  0  0  0  0999 V2000
  -12.0880  -11.0977    9.1244 N   0  0  0  0  0  0  0  0  0  0  0  0
  -12.1292   -9.8579    8.4835 C   0  0  0  0  0  0  0  0  0  0  0  0
  -11.8324   -9.7111    7.1799 N   0  0  0  0  0  0  0  0  0  0  0  0
  -11.4927  -10.9092    6.5578 C   0  0  0  0  0  0  0  0  0  0  0  0
  -11.4196  -12.1858    7.1181 C   0  0  0  0  0  0  0  0  0  0  0  0
  -11.7302  -12.3470    8.5145 C   0  0  0  0  0  0  0  0  0  0  0  0
  -11.7407  -13.3300    9.2154 O   0  0  0  0  0  0  0  0  0  0  0  0
  -11.0460  -13.0992    6.1155 N   0  0  0  0  0  0  0  0  0  0  0  0
  -10.9091  -12.3566    4.9839 C   0  0  0  0  0  0  0  0  0  0  0  0
  -11.1782  -11.0028    5.2288 N   0  0  0  0  0  0  0  0  0  0  0  0
  1  2  1  0  0  0  0
  1  6  1  0  0  0  0
  2  3  2  0  0  0  0
  3  4  1  0  0  0  0
  4  5  2  0  0  0  0
  4 10  1  0  0  0  0
  5  6  1  0  0  0  0
  5  8  1  0  0  0  0
  6  7  2  0  0  0  0
  8  9  1  0  0  0  0
  9 10  2  0  0  0  0
M  END
>  <CHROM.1>
-11.56093560,-11.62039385,7.29091857,2.57633066,-1.29316472,2.54574097

>  <Name>
ligand

>  <RI>
0

>  <Rbt.Current_Directory>
/home/itssahil/PROJECTS/Mol_Feturizer/New_Systems/rnas/2EES

>  <Rbt.Executable>
rbdock ($Id: //depot/dev/client3/rdock/2013.1/src/exe/rbdock.cxx#4 $)

>  <Rbt.Library>
libRbt.so (2013.1, Build901 2013/11/27)

>  <Rbt.Parameter_File>
/export/apps/rDock/src/rDock_2013.1_src/data/scripts/dock_solv.prm

>  <Rbt.Receptor>
prm/pocket_docking_3.prm

>  <SCORE>
-16.953

>  <SCORE.INTER>
-16.953

>  <SCORE.INTER.CONST>
1

>  <SCORE.INTER.POLAR>
0

>  <SCORE.INTER.ROT>
0

>  <SCORE.INTER.SOLV>
3.77089

>  <SCORE.INTER.VDW>
-16.1589

>  <SCORE.INTER.norm>
-1.6953

>  <SCORE.INTRA>
0

>  <SCORE.INTRA.DIHEDRAL>
0

>  <SCORE.INTRA.DIHEDRAL.0>
0

>  <SCORE.INTRA.POLAR>
0

>  <SCORE.INTRA.POLAR.0>
0

>  <SCORE.INTRA.REPUL>
0

>  <SCORE.INTRA.REPUL.0>
0

>  <SCORE.INTRA.SOLV>
0

>  <SCORE.INTRA.SOLV.lig_0>
-4.28614

>  <SCORE.INTRA.VDW>
0

>  <SCORE.INTRA.VDW.0>
0

>  <SCORE.INTRA.norm>
0

>  <SCORE.RESTR>
0

>  <SCORE.RESTR.CAVITY>
0

>  <SCORE.RESTR.norm>
0

>  <SCORE.SYSTEM>
0

>  <SCORE.SYSTEM.CONST>
0

>  <SCORE.SYSTEM.DIHEDRAL>
0

>  <SCORE.SYSTEM.SOLV>
0

>  <SCORE.SYSTEM.norm>
0

>  <SCORE.heavy>
10

>  <SCORE.norm>
-1.6953

>  <RMSD>
2.456

$$$$
ligand
 OpenBabel11021811423D
libRbt.so/2013.1/901 2013/11/27
 10 11  0  0  0  0  0  0  0  0999 V2000
  -12.1081  -11.0644    9.1310 N   0  0  0  0  0  0  0  0  0  0  0  0
  -12.1445   -9.8253    8.4883 C   0  0  0  0  0  0  0  0  0  0  0  0
  -11.8568   -9.6831    7.1821 N   0  0  0  0  0  0  0  0  0  0  0  0
  -11.5317  -10.8849    6.5594 C   0  0  0  0  0  0  0  0  0  0  0  0
  -11.4644  -12.1611    7.1213 C   0  0  0  0  0  0  0  0  0  0  0  0
  -11.7652  -12.3175    8.5204 C   0  0  0  0  0  0  0  0  0  0  0  0
  -11.7780  -13.2992    9.2231 O   0  0  0  0  0  0  0  0  0  0  0  0
  -11.1061  -13.0792    6.1174 N   0  0  0  0  0  0  0  0  0  0  0  0
  -10.9722  -12.3396    4.9834 C   0  0  0  0  0  0  0  0  0  0  0  0
  -11.2284  -10.9832    5.2282 N   0  0  0  0  0  0  0  0  0  0  0  0
  1  2  1  0  0  0  0
  1  6  1  0  0  0  0
  2  3  2  0  0  0  0
  3  4  1  0  0  0  0
  4  5  2  0  0  0  0
  4 10  1  0  0  0  0
  5  6  1  0  0  0  0
  5  8  1  0  0  0  0
  6  7  2  0  0  0  0
  8  9  1  0  0  0  0
  9 10  2  0  0  0  0
M  END
>  <CHROM.1>
-11.59980865,-11.59432614,7.29427429,2.58470776,-1.30422417,2.55211288

>  <Name>
ligand

>  <RI>
0

>  <Rbt.Current_Directory>
/home/itssahil/PROJECTS/Mol_Feturizer/New_Systems/rnas/2EES

>  <Rbt.Executable>
rbdock ($Id: //depot/dev/client3/rdock/2013.1/src/exe/rbdock.cxx#4 $)

>  <Rbt.Library>
libRbt.so (2013.1, Build901 2013/11/27)

>  <Rbt.Parameter_File>
/export/apps/rDock/src/rDock_2013.1_src/data/scripts/dock_solv.prm

>  <Rbt.Receptor>
prm/pocket_docking_4.prm

>  <SCORE>
-16.9904

>  <SCORE.INTER>
-16.9904

>  <SCORE.INTER.CONST>
1

>  <SCORE.INTER.POLAR>
0

>  <SCORE.INTER.ROT>
0

>  <SCORE.INTER.SOLV>
3.76835

>  <SCORE.INTER.VDW>
-16.183

>  <SCORE.INTER.norm>
-1.69904

>  <SCORE.INTRA>
0

>  <SCORE.INTRA.DIHEDRAL>
0

>  <SCORE.INTRA.DIHEDRAL.0>
0

>  <SCORE.INTRA.POLAR>
0

>  <SCORE.INTRA.POLAR.0>
0

>  <SCORE.INTRA.REPUL>
0

>  <SCORE.INTRA.REPUL.0>
0

>  <SCORE.INTRA.SOLV>
0

>  <SCORE.INTRA.SOLV.lig_0>
-4.28614

>  <SCORE.INTRA.VDW>
0

>  <SCORE.INTRA.VDW.0>
0

>  <SCORE.INTRA.norm>
0

>  <SCORE.RESTR>
0

>  <SCORE.RESTR.CAVITY>
0

>  <SCORE.RESTR.norm>
0

>  <SCORE.SYSTEM>
0

>  <SCORE.SYSTEM.CONST>
0

>  <SCORE.SYSTEM.DIHEDRAL>
0

>  <SCORE.SYSTEM.SOLV>
0

>  <SCORE.SYSTEM.norm>
0

>  <SCORE.heavy>
10

>  <SCORE.norm>
-1.69904

>  <RMSD>
2.456

$$$$
ligand
 OpenBabel11021811423D
libRbt.so/2013.1/901 2013/11/27
 10 11  0  0  0  0  0  0  0  0999 V2000
  -12.0628  -11.0917    9.1563 N   0  0  0  0  0  0  0  0  0  0  0  0
  -12.1006   -9.8449    8.5289 C   0  0  0  0  0  0  0  0  0  0  0  0
  -11.8297   -9.6887    7.2207 N   0  0  0  0  0  0  0  0  0  0  0  0
  -11.5198  -10.8847    6.5795 C   0  0  0  0  0  0  0  0  0  0  0  0
  -11.4523  -12.1679    7.1253 C   0  0  0  0  0  0  0  0  0  0  0  0
  -11.7353  -12.3393    8.5264 C   0  0  0  0  0  0  0  0  0  0  0  0
  -11.7443  -13.3292    9.2175 O   0  0  0  0  0  0  0  0  0  0  0  0
  -11.1127  -13.0760    6.1058 N   0  0  0  0  0  0  0  0  0  0  0  0
  -10.9898  -12.3237    4.9791 C   0  0  0  0  0  0  0  0  0  0  0  0
  -11.2349  -10.9689    5.2432 N   0  0  0  0  0  0  0  0  0  0  0  0
  1  2  1  0  0  0  0
  1  6  1  0  0  0  0
  2  3  2  0  0  0  0
  3  4  1  0  0  0  0
  4  5  2  0  0  0  0
  4 10  1  0  0  0  0
  5  6  1  0  0  0  0
  5  8  1  0  0  0  0
  6  7  2  0  0  0  0
  8  9  1  0  0  0  0
  9 10  2  0  0  0  0
M  END
>  <CHROM.1>
-11.58214174,-11.60250309,7.30677914,2.57399837,-1.31850714,2.55364478

>  <Name>
ligand

>  <RI>
0

>  <Rbt.Current_Directory>
/home/itssahil/PROJECTS/Mol_Feturizer/New_Systems/rnas/2EES

>  <Rbt.Executable>
rbdock ($Id: //depot/dev/client3/rdock/2013.1/src/exe/rbdock.cxx#4 $)

>  <Rbt.Library>
libRbt.so (2013.1, Build901 2013/11/27)

>  <Rbt.Parameter_File>
/export/apps/rDock/src/rDock_2013.1_src/data/scripts/dock_solv.prm

>  <Rbt.Receptor>
prm/pocket_docking_5.prm

>  <SCORE>
-17.0291

>  <SCORE.INTER>
-17.0291

>  <SCORE.INTER.CONST>
1

>  <SCORE.INTER.POLAR>
0

>  <SCORE.INTER.ROT>
0

>  <SCORE.INTER.SOLV>
3.83036

>  <SCORE.INTER.VDW>
-16.2295

>  <SCORE.INTER.norm>
-1.70291

>  <SCORE.INTRA>
0

>  <SCORE.INTRA.DIHEDRAL>
0

>  <SCORE.INTRA.DIHEDRAL.0>
0

>  <SCORE.INTRA.POLAR>
0

>  <SCORE.INTRA.POLAR.0>
0

>  <SCORE.INTRA.REPUL>
0

>  <SCORE.INTRA.REPUL.0>
0

>  <SCORE.INTRA.SOLV>
0

>  <SCORE.INTRA.SOLV.lig_0>
-4.28614

>  <SCORE.INTRA.VDW>
0

>  <SCORE.INTRA.VDW.0>
0

>  <SCORE.INTRA.norm>
0

>  <SCORE.RESTR>
0

>  <SCORE.RESTR.CAVITY>
0

>  <SCORE.RESTR.norm>
0

>  <SCORE.SYSTEM>
0

>  <SCORE.SYSTEM.CONST>
0

>  <SCORE.SYSTEM.DIHEDRAL>
0

>  <SCORE.SYSTEM.SOLV>
0

>  <SCORE.SYSTEM.norm>
0

>  <SCORE.heavy>
10

>  <SCORE.norm>
-1.70291

>  <RMSD>
2.456

$$$$
ligand
 OpenBabel11021811423D
libRbt.so/2013.1/901 2013/11/27
 10 11  0  0  0  0  0  0  0  0999 V2000
  -12.0788  -11.0920    9.1489 N   0  0  0  0  0  0  0  0  0  0  0  0
  -12.1073   -9.8444    8.5225 C   0  0  0  0  0  0  0  0  0  0  0  0
  -11.8268   -9.6881    7.2164 N   0  0  0  0  0  0  0  0  0  0  0  0
  -11.5176  -10.8848    6.5761 C   0  0  0  0  0  0  0  0  0  0  0  0
  -11.4590  -12.1688    7.1210 C   0  0  0  0  0  0  0  0  0  0  0  0
  -11.7521  -12.3403    8.5200 C   0  0  0  0  0  0  0  0  0  0  0  0
  -11.7698  -13.3308    9.2100 O   0  0  0  0  0  0  0  0  0  0  0  0
  -11.1162  -13.0772    6.1030 N   0  0  0  0  0  0  0  0  0  0  0  0
  -10.9826  -12.3244    4.9778 C   0  0  0  0  0  0  0  0  0  0  0  0
  -11.2240  -10.9688    5.2417 N   0  0  0  0  0  0  0  0  0  0  0  0
  1  2  1  0  0  0  0
  1  6  1  0  0  0  0
  2  3  2  0  0  0  0
  3  4  1  0  0  0  0
  4  5  2  0  0  0  0
  4 10  1  0  0  0  0
  5  6  1  0  0  0  0
  5  8  1  0  0  0  0
  6  7  2  0  0  0  0
  8  9  1  0  0  0  0
  9 10  2  0  0  0  0
M  END
>  <CHROM.1>
-11.58772325,-11.60298442,7.30218572,2.60221373,-1.31506869,2.58192655

>  <Name>
ligand

>  <RI>
0

>  <Rbt.Current_Directory>
/home/itssahil/PROJECTS/Mol_Feturizer/New_Systems/rnas/2EES

>  <Rbt.Executable>
rbdock ($Id: //depot/dev/client3/rdock/2013.1/src/exe/rbdock.cxx#4 $)

>  <Rbt.Library>
libRbt.so (2013.1, Build901 2013/11/27)

>  <Rbt.Parameter_File>
/export/apps/rDock/src/rDock_2013.1_src/data/scripts/dock_solv.prm

>  <Rbt.Receptor>
prm/pocket_docking_6.prm

>  <SCORE>
-17.0325

>  <SCORE.INTER>
-17.0325

>  <SCORE.INTER.CONST>
1

>  <SCORE.INTER.POLAR>
0

>  <SCORE.INTER.ROT>
0

>  <SCORE.INTER.SOLV>
3.82544

>  <SCORE.INTER.VDW>
-16.2302

>  <SCORE.INTER.norm>
-1.70325

>  <SCORE.INTRA>
0

>  <SCORE.INTRA.DIHEDRAL>
0

>  <SCORE.INTRA.DIHEDRAL.0>
0

>  <SCORE.INTRA.POLAR>
0

>  <SCORE.INTRA.POLAR.0>
0

>  <SCORE.INTRA.REPUL>
0

>  <SCORE.INTRA.REPUL.0>
0

>  <SCORE.INTRA.SOLV>
0

>  <SCORE.INTRA.SOLV.lig_0>
-4.28614

>  <SCORE.INTRA.VDW>
0

>  <SCORE.INTRA.VDW.0>
0

>  <SCORE.INTRA.norm>
0

>  <SCORE.RESTR>
0

>  <SCORE.RESTR.CAVITY>
0

>  <SCORE.RESTR.norm>
0

>  <SCORE.SYSTEM>
0

>  <SCORE.SYSTEM.CONST>
0

>  <SCORE.SYSTEM.DIHEDRAL>
0

>  <SCORE.SYSTEM.SOLV>
0

>  <SCORE.SYSTEM.norm>
0

>  <SCORE.heavy>
10

>  <SCORE.norm>
-1.70325

>  <RMSD>
2.456

$$$$
ligand
 OpenBabel11021811423D
libRbt.so/2013.1/901 2013/11/27
 10 11  0  0  0  0  0  0  0  0999 V2000
  -12.1329  -11.0223    9.1334 N   0  0  0  0  0  0  0  0  0  0  0  0
  -12.1353   -9.7803    8.4955 C   0  0  0  0  0  0  0  0  0  0  0  0
  -11.8373   -9.6401    7.1914 N   0  0  0  0  0  0  0  0  0  0  0  0
  -11.5385  -10.8471    6.5656 C   0  0  0  0  0  0  0  0  0  0  0  0
  -11.5057  -12.1268    7.1227 C   0  0  0  0  0  0  0  0  0  0  0  0
  -11.8176  -12.2811    8.5196 C   0  0  0  0  0  0  0  0  0  0  0  0
  -11.8583  -13.2649    9.2183 O   0  0  0  0  0  0  0  0  0  0  0  0
  -11.1647  -13.0495    6.1170 N   0  0  0  0  0  0  0  0  0  0  0  0
  -11.0066  -12.3091    4.9868 C   0  0  0  0  0  0  0  0  0  0  0  0
  -11.2307  -10.9478    5.2356 N   0  0  0  0  0  0  0  0  0  0  0  0
  1  2  1  0  0  0  0
  1  6  1  0  0  0  0
  2  3  2  0  0  0  0
  3  4  1  0  0  0  0
  4  5  2  0  0  0  0
  4 10  1  0  0  0  0
  5  6  1  0  0  0  0
  5  8  1  0  0  0  0
  6  7  2  0  0  0  0
  8  9  1  0  0  0  0
  9 10  2  0  0  0  0
M  END
>  <CHROM.1>
-11.62798332,-11.55752646,7.29727141,2.67641981,-1.31243804,2.64461922

>  <Name>
ligand

>  <RI>
0

>  <Rbt.Current_Directory>
/home/itssahil/PROJECTS/Mol_Feturizer/New_Systems/rnas/2EES

>  <Rbt.Executable>
rbdock ($Id: //depot/dev/client3/rdock/2013.1/src/exe/rbdock.cxx#4 $)

>  <Rbt.Library>
libRbt.so (2013.1, Build901 2013/11/27)

>  <Rbt.Parameter_File>
/export/apps/rDock/src/rDock_2013.1_src/data/scripts/dock_solv.prm

>  <Rbt.Receptor>
prm/pocket_docking_7.prm

>  <SCORE>
-17.0232

>  <SCORE.INTER>
-17.0232

>  <SCORE.INTER.CONST>
1

>  <SCORE.INTER.POLAR>
0

>  <SCORE.INTER.ROT>
0

>  <SCORE.INTER.SOLV>
3.77618

>  <SCORE.INTER.VDW>
-16.2075

>  <SCORE.INTER.norm>
-1.70232

>  <SCORE.INTRA>
0

>  <SCORE.INTRA.DIHEDRAL>
0

>  <SCORE.INTRA.DIHEDRAL.0>
0

>  <SCORE.INTRA.POLAR>
0

>  <SCORE.INTRA.POLAR.0>
0

>  <SCORE.INTRA.REPUL>
0

>  <SCORE.INTRA.REPUL.0>
0

>  <SCORE.INTRA.SOLV>
0

>  <SCORE.INTRA.SOLV.lig_0>
-4.28614

>  <SCORE.INTRA.VDW>
0

>  <SCORE.INTRA.VDW.0>
0

>  <SCORE.INTRA.norm>
0

>  <SCORE.RESTR>
0

>  <SCORE.RESTR.CAVITY>
0

>  <SCORE.RESTR.norm>
0

>  <SCORE.SYSTEM>
0

>  <SCORE.SYSTEM.CONST>
0

>  <SCORE.SYSTEM.DIHEDRAL>
0

>  <SCORE.SYSTEM.SOLV>
0

>  <SCORE.SYSTEM.norm>
0

>  <SCORE.heavy>
10

>  <SCORE.norm>
-1.70232

>  <RMSD>
2.456

$$$$
ligand
 OpenBabel11021811423D
libRbt.so/2013.1/901 2013/11/27
 10 11  0  0  0  0  0  0  0  0999 V2000
  -12.0962  -11.1084    9.1402 N   0  0  0  0  0  0  0  0  0  0  0  0
  -12.1561   -9.8642    8.5093 C   0  0  0  0  0  0  0  0  0  0  0  0
  -11.8802   -9.7056    7.2025 N   0  0  0  0  0  0  0  0  0  0  0  0
  -11.5414  -10.8965    6.5663 C   0  0  0  0  0  0  0  0  0  0  0  0
  -11.4505  -12.1767    7.1158 C   0  0  0  0  0  0  0  0  0  0  0  0
  -11.7387  -12.3505    8.5156 C   0  0  0  0  0  0  0  0  0  0  0  0
  -11.7314  -13.3387    9.2091 O   0  0  0  0  0  0  0  0  0  0  0  0
  -11.0856  -13.0799    6.1009 N   0  0  0  0  0  0  0  0  0  0  0  0
  -10.9713  -12.3280    4.9729 C   0  0  0  0  0  0  0  0  0  0  0  0
  -11.2464  -10.9780    5.2321 N   0  0  0  0  0  0  0  0  0  0  0  0
  1  2  1  0  0  0  0
  1  6  1  0  0  0  0
  2  3  2  0  0  0  0
  3  4  1  0  0  0  0
  4  5  2  0  0  0  0
  4 10  1  0  0  0  0
  5  6  1  0  0  0  0
  5  8  1  0  0  0  0
  6  7  2  0  0  0  0
  8  9  1  0  0  0  0
  9 10  2  0  0  0  0
M  END
>  <CHROM.1>
-11.59327259,-11.61364357,7.29503502,2.52179698,-1.30131793,2.50068502

>  <Name>
ligand

>  <RI>
0

>  <Rbt.Current_Directory>
/home/itssahil/PROJECTS/Mol_Feturizer/New_Systems/rnas/2EES

>  <Rbt.Executable>
rbdock ($Id: //depot/dev/client3/rdock/2013.1/src/exe/rbdock.cxx#4 $)

>  <Rbt.Library>
libRbt.so (2013.1, Build901 2013/11/27)

>  <Rbt.Parameter_File>
/export/apps/rDock/src/rDock_2013.1_src/data/scripts/dock_solv.prm

>  <Rbt.Receptor>
prm/blind_docking_80.prm

>  <SCORE>
-16.9589

>  <SCORE.INTER>
-16.9589

>  <SCORE.INTER.CONST>
1

>  <SCORE.INTER.POLAR>
0

>  <SCORE.INTER.ROT>
0

>  <SCORE.INTER.SOLV>
3.79029

>  <SCORE.INTER.VDW>
-16.1694

>  <SCORE.INTER.norm>
-1.69589

>  <SCORE.INTRA>
0

>  <SCORE.INTRA.DIHEDRAL>
0

>  <SCORE.INTRA.DIHEDRAL.0>
0

>  <SCORE.INTRA.POLAR>
0

>  <SCORE.INTRA.POLAR.0>
0

>  <SCORE.INTRA.REPUL>
0

>  <SCORE.INTRA.REPUL.0>
0

>  <SCORE.INTRA.SOLV>
0

>  <SCORE.INTRA.SOLV.lig_0>
-4.28614

>  <SCORE.INTRA.VDW>
0

>  <SCORE.INTRA.VDW.0>
0

>  <SCORE.INTRA.norm>
0

>  <SCORE.RESTR>
0

>  <SCORE.RESTR.CAVITY>
0

>  <SCORE.RESTR.norm>
0

>  <SCORE.SYSTEM>
0

>  <SCORE.SYSTEM.CONST>
0

>  <SCORE.SYSTEM.DIHEDRAL>
0

>  <SCORE.SYSTEM.SOLV>
0

>  <SCORE.SYSTEM.norm>
0

>  <SCORE.heavy>
10

>  <SCORE.norm>
-1.69589

>  <RMSD>
2.457

$$$$
ligand
 OpenBabel11021811423D
libRbt.so/2013.1/901 2013/11/27
 10 11  0  0  0  0  0  0  0  0999 V2000
  -12.0656  -11.0862    9.1528 N   0  0  0  0  0  0  0  0  0  0  0  0
  -12.1081   -9.8411    8.5224 C   0  0  0  0  0  0  0  0  0  0  0  0
  -11.8365   -9.6870    7.2141 N   0  0  0  0  0  0  0  0  0  0  0  0
  -11.5209  -10.8833    6.5761 C   0  0  0  0  0  0  0  0  0  0  0  0
  -11.4485  -12.1649    7.1251 C   0  0  0  0  0  0  0  0  0  0  0  0
  -11.7322  -12.3340    8.5264 C   0  0  0  0  0  0  0  0  0  0  0  0
  -11.7377  -13.3222    9.2199 O   0  0  0  0  0  0  0  0  0  0  0  0
  -11.1040  -13.0739    6.1083 N   0  0  0  0  0  0  0  0  0  0  0  0
  -10.9831  -12.3239    4.9798 C   0  0  0  0  0  0  0  0  0  0  0  0
  -11.2343  -10.9695    5.2404 N   0  0  0  0  0  0  0  0  0  0  0  0
  1  2  1  0  0  0  0
  1  6  1  0  0  0  0
  2  3  2  0  0  0  0
  3  4  1  0  0  0  0
  4  5  2  0  0  0  0
  4 10  1  0  0  0  0
  5  6  1  0  0  0  0
  5  8  1  0  0  0  0
  6  7  2  0  0  0  0
  8  9  1  0  0  0  0
  9 10  2  0  0  0  0
M  END
>  <CHROM.1>
-11.58092398,-11.59951953,7.30509935,2.56224082,-1.31529209,2.53980362

>  <Name>
ligand

>  <RI>
0

>  <Rbt.Current_Directory>
/home/itssahil/PROJECTS/Mol_Feturizer/New_Systems/rnas/2EES

>  <Rbt.Executable>
rbdock ($Id: //depot/dev/client3/rdock/2013.1/src/exe/rbdock.cxx#4 $)

>  <Rbt.Library>
libRbt.so (2013.1, Build901 2013/11/27)

>  <Rbt.Parameter_File>
/export/apps/rDock/src/rDock_2013.1_src/data/scripts/dock_solv.prm

>  <Rbt.Receptor>
prm/pocket_docking_5.prm

>  <SCORE>
-17.0304

>  <SCORE.INTER>
-17.0304

>  <SCORE.INTER.CONST>
1

>  <SCORE.INTER.POLAR>
0

>  <SCORE.INTER.ROT>
0

>  <SCORE.INTER.SOLV>
3.81738

>  <SCORE.INTER.VDW>
-16.226

>  <SCORE.INTER.norm>
-1.70304

>  <SCORE.INTRA>
0

>  <SCORE.INTRA.DIHEDRAL>
0

>  <SCORE.INTRA.DIHEDRAL.0>
0

>  <SCORE.INTRA.POLAR>
0

>  <SCORE.INTRA.POLAR.0>
0

>  <SCORE.INTRA.REPUL>
0

>  <SCORE.INTRA.REPUL.0>
0

>  <SCORE.INTRA.SOLV>
0

>  <SCORE.INTRA.SOLV.lig_0>
-4.28614

>  <SCORE.INTRA.VDW>
0

>  <SCORE.INTRA.VDW.0>
0

>  <SCORE.INTRA.norm>
0

>  <SCORE.RESTR>
0

>  <SCORE.RESTR.CAVITY>
0

>  <SCORE.RESTR.norm>
0

>  <SCORE.SYSTEM>
0

>  <SCORE.SYSTEM.CONST>
0

>  <SCORE.SYSTEM.DIHEDRAL>
0

>  <SCORE.SYSTEM.SOLV>
0

>  <SCORE.SYSTEM.norm>
0

>  <SCORE.heavy>
10

>  <SCORE.norm>
-1.70304

>  <RMSD>
2.457

$$$$
ligand
 OpenBabel11021811423D
libRbt.so/2013.1/901 2013/11/27
 10 11  0  0  0  0  0  0  0  0999 V2000
  -12.1496  -10.9935    9.1117 N   0  0  0  0  0  0  0  0  0  0  0  0
  -12.1500   -9.7589    8.4595 C   0  0  0  0  0  0  0  0  0  0  0  0
  -11.8433   -9.6334    7.1559 N   0  0  0  0  0  0  0  0  0  0  0  0
  -11.5380  -10.8470    6.5462 C   0  0  0  0  0  0  0  0  0  0  0  0
  -11.5065  -12.1200    7.1184 C   0  0  0  0  0  0  0  0  0  0  0  0
  -11.8278  -12.2587    8.5148 C   0  0  0  0  0  0  0  0  0  0  0  0
  -11.8714  -13.2344    9.2246 O   0  0  0  0  0  0  0  0  0  0  0  0
  -11.1569  -13.0536    6.1258 N   0  0  0  0  0  0  0  0  0  0  0  0
  -10.9925  -12.3261    4.9882 C   0  0  0  0  0  0  0  0  0  0  0  0
  -11.2209  -10.9624    5.2196 N   0  0  0  0  0  0  0  0  0  0  0  0
  1  2  1  0  0  0  0
  1  6  1  0  0  0  0
  2  3  2  0  0  0  0
  3  4  1  0  0  0  0
  4  5  2  0  0  0  0
  4 10  1  0  0  0  0
  5  6  1  0  0  0  0
  5  8  1  0  0  0  0
  6  7  2  0  0  0  0
  8  9  1  0  0  0  0
  9 10  2  0  0  0  0
M  END
>  <CHROM.1>
-11.63112455,-11.54896873,7.28545300,2.68252225,-1.30550309,2.63889927

>  <Name>
ligand

>  <RI>
0

>  <Rbt.Current_Directory>
/home/itssahil/PROJECTS/Mol_Feturizer/New_Systems/rnas/2EES

>  <Rbt.Executable>
rbdock ($Id: //depot/dev/client3/rdock/2013.1/src/exe/rbdock.cxx#4 $)

>  <Rbt.Library>
libRbt.so (2013.1, Build901 2013/11/27)

>  <Rbt.Parameter_File>
/export/apps/rDock/src/rDock_2013.1_src/data/scripts/dock_solv.prm

>  <Rbt.Receptor>
prm/pocket_docking_6.prm

>  <SCORE>
-17.0465

>  <SCORE.INTER>
-17.0465

>  <SCORE.INTER.CONST>
1

>  <SCORE.INTER.POLAR>
0

>  <SCORE.INTER.ROT>
0

>  <SCORE.INTER.SOLV>
3.73939

>  <SCORE.INTER.VDW>
-16.2108

>  <SCORE.INTER.norm>
-1.70465

>  <SCORE.INTRA>
0

>  <SCORE.INTRA.DIHEDRAL>
0

>  <SCORE.INTRA.DIHEDRAL.0>
0

>  <SCORE.INTRA.POLAR>
0

>  <SCORE.INTRA.POLAR.0>
0

>  <SCORE.INTRA.REPUL>
0

>  <SCORE.INTRA.REPUL.0>
0

>  <SCORE.INTRA.SOLV>
0

>  <SCORE.INTRA.SOLV.lig_0>
-4.28614

>  <SCORE.INTRA.VDW>
0

>  <SCORE.INTRA.VDW.0>
0

>  <SCORE.INTRA.norm>
0

>  <SCORE.RESTR>
0

>  <SCORE.RESTR.CAVITY>
0

>  <SCORE.RESTR.norm>
0

>  <SCORE.SYSTEM>
0

>  <SCORE.SYSTEM.CONST>
0

>  <SCORE.SYSTEM.DIHEDRAL>
0

>  <SCORE.SYSTEM.SOLV>
0

>  <SCORE.SYSTEM.norm>
0

>  <SCORE.heavy>
10

>  <SCORE.norm>
-1.70465

>  <RMSD>
2.457

$$$$
ligand
 OpenBabel11021811423D
libRbt.so/2013.1/901 2013/11/27
 10 11  0  0  0  0  0  0  0  0999 V2000
  -12.0704  -11.1239    9.1648 N   0  0  0  0  0  0  0  0  0  0  0  0
  -12.1326   -9.8734    8.5467 C   0  0  0  0  0  0  0  0  0  0  0  0
  -11.8657   -9.7025    7.2395 N   0  0  0  0  0  0  0  0  0  0  0  0
  -11.5335  -10.8876    6.5893 C   0  0  0  0  0  0  0  0  0  0  0  0
  -11.4410  -12.1733    7.1255 C   0  0  0  0  0  0  0  0  0  0  0  0
  -11.7195  -12.3603    8.5255 C   0  0  0  0  0  0  0  0  0  0  0  0
  -11.7091  -13.3553    9.2093 O   0  0  0  0  0  0  0  0  0  0  0  0
  -11.0849  -13.0671    6.0992 N   0  0  0  0  0  0  0  0  0  0  0  0
  -10.9773  -12.3044    4.9779 C   0  0  0  0  0  0  0  0  0  0  0  0
  -11.2481  -10.9565    5.2523 N   0  0  0  0  0  0  0  0  0  0  0  0
  1  2  1  0  0  0  0
  1  6  1  0  0  0  0
  2  3  2  0  0  0  0
  3  4  1  0  0  0  0
  4  5  2  0  0  0  0
  4 10  1  0  0  0  0
  5  6  1  0  0  0  0
  5  8  1  0  0  0  0
  6  7  2  0  0  0  0
  8  9  1  0  0  0  0
  9 10  2  0  0  0  0
M  END
>  <CHROM.1>
-11.58149466,-11.61180026,7.31130370,2.51095145,-1.30805188,2.50004309

>  <Name>
ligand

>  <RI>
0

>  <Rbt.Current_Directory>
/home/itssahil/PROJECTS/Mol_Feturizer/New_Systems/rnas/2EES

>  <Rbt.Executable>
rbdock ($Id: //depot/dev/client3/rdock/2013.1/src/exe/rbdock.cxx#4 $)

>  <Rbt.Library>
libRbt.so (2013.1, Build901 2013/11/27)

>  <Rbt.Parameter_File>
/export/apps/rDock/src/rDock_2013.1_src/data/scripts/dock_solv.prm

>  <Rbt.Receptor>
prm/pocket_docking_7.prm

>  <SCORE>
-16.9632

>  <SCORE.INTER>
-16.9632

>  <SCORE.INTER.CONST>
1

>  <SCORE.INTER.POLAR>
0

>  <SCORE.INTER.ROT>
0

>  <SCORE.INTER.SOLV>
3.82791

>  <SCORE.INTER.VDW>
-16.1848

>  <SCORE.INTER.norm>
-1.69632

>  <SCORE.INTRA>
0

>  <SCORE.INTRA.DIHEDRAL>
0

>  <SCORE.INTRA.DIHEDRAL.0>
0

>  <SCORE.INTRA.POLAR>
0

>  <SCORE.INTRA.POLAR.0>
0

>  <SCORE.INTRA.REPUL>
0

>  <SCORE.INTRA.REPUL.0>
0

>  <SCORE.INTRA.SOLV>
0

>  <SCORE.INTRA.SOLV.lig_0>
-4.28614

>  <SCORE.INTRA.VDW>
0

>  <SCORE.INTRA.VDW.0>
0

>  <SCORE.INTRA.norm>
0

>  <SCORE.RESTR>
0

>  <SCORE.RESTR.CAVITY>
0

>  <SCORE.RESTR.norm>
0

>  <SCORE.SYSTEM>
0

>  <SCORE.SYSTEM.CONST>
0

>  <SCORE.SYSTEM.DIHEDRAL>
0

>  <SCORE.SYSTEM.SOLV>
0

>  <SCORE.SYSTEM.norm>
0

>  <SCORE.heavy>
10

>  <SCORE.norm>
-1.69632

>  <RMSD>
2.457

$$$$
ligand
 OpenBabel11021811423D
libRbt.so/2013.1/901 2013/11/27
 10 11  0  0  0  0  0  0  0  0999 V2000
  -12.1435  -11.0063    9.1163 N   0  0  0  0  0  0  0  0  0  0  0  0
  -12.1570   -9.7705    8.4664 C   0  0  0  0  0  0  0  0  0  0  0  0
  -11.8551   -9.6397    7.1622 N   0  0  0  0  0  0  0  0  0  0  0  0
  -11.5405  -10.8493    6.5494 C   0  0  0  0  0  0  0  0  0  0  0  0
  -11.4958  -12.1231    7.1190 C   0  0  0  0  0  0  0  0  0  0  0  0
  -11.8119  -12.2674    8.5160 C   0  0  0  0  0  0  0  0  0  0  0  0
  -11.8447  -13.2448    9.2240 O   0  0  0  0  0  0  0  0  0  0  0  0
  -11.1405  -13.0516    6.1236 N   0  0  0  0  0  0  0  0  0  0  0  0
  -10.9859  -12.3204    4.9869 C   0  0  0  0  0  0  0  0  0  0  0  0
  -11.2260  -10.9593    5.2216 N   0  0  0  0  0  0  0  0  0  0  0  0
  1  2  1  0  0  0  0
  1  6  1  0  0  0  0
  2  3  2  0  0  0  0
  3  4  1  0  0  0  0
  4  5  2  0  0  0  0
  4 10  1  0  0  0  0
  5  6  1  0  0  0  0
  5  8  1  0  0  0  0
  6  7  2  0  0  0  0
  8  9  1  0  0  0  0
  9 10  2  0  0  0  0
M  END
>  <CHROM.1>
-11.62514368,-11.55352555,7.28749752,2.64731721,-1.30342717,2.60686000

>  <Name>
ligand

>  <RI>
0

>  <Rbt.Current_Directory>
/home/itssahil/PROJECTS/Mol_Feturizer/New_Systems/rnas/2EES

>  <Rbt.Executable>
rbdock ($Id: //depot/dev/client3/rdock/2013.1/src/exe/rbdock.cxx#4 $)

>  <Rbt.Library>
libRbt.so (2013.1, Build901 2013/11/27)

>  <Rbt.Parameter_File>
/export/apps/rDock/src/rDock_2013.1_src/data/scripts/dock_solv.prm

>  <Rbt.Receptor>
prm/pocket_docking_7.prm

>  <SCORE>
-17.0595

>  <SCORE.INTER>
-17.0595

>  <SCORE.INTER.CONST>
1

>  <SCORE.INTER.POLAR>
0

>  <SCORE.INTER.ROT>
0

>  <SCORE.INTER.SOLV>
3.73798

>  <SCORE.INTER.VDW>
-16.219

>  <SCORE.INTER.norm>
-1.70595

>  <SCORE.INTRA>
0

>  <SCORE.INTRA.DIHEDRAL>
0

>  <SCORE.INTRA.DIHEDRAL.0>
0

>  <SCORE.INTRA.POLAR>
0

>  <SCORE.INTRA.POLAR.0>
0

>  <SCORE.INTRA.REPUL>
0

>  <SCORE.INTRA.REPUL.0>
0

>  <SCORE.INTRA.SOLV>
0

>  <SCORE.INTRA.SOLV.lig_0>
-4.28614

>  <SCORE.INTRA.VDW>
0

>  <SCORE.INTRA.VDW.0>
0

>  <SCORE.INTRA.norm>
0

>  <SCORE.RESTR>
0

>  <SCORE.RESTR.CAVITY>
0

>  <SCORE.RESTR.norm>
0

>  <SCORE.SYSTEM>
0

>  <SCORE.SYSTEM.CONST>
0

>  <SCORE.SYSTEM.DIHEDRAL>
0

>  <SCORE.SYSTEM.SOLV>
0

>  <SCORE.SYSTEM.norm>
0

>  <SCORE.heavy>
10

>  <SCORE.norm>
-1.70595

>  <RMSD>
2.457

$$$$
ligand
 OpenBabel11021811423D
libRbt.so/2013.1/901 2013/11/27
 10 11  0  0  0  0  0  0  0  0999 V2000
  -12.0715  -11.0905    9.1478 N   0  0  0  0  0  0  0  0  0  0  0  0
  -12.1034   -9.8426    8.5223 C   0  0  0  0  0  0  0  0  0  0  0  0
  -11.8248   -9.6848    7.2159 N   0  0  0  0  0  0  0  0  0  0  0  0
  -11.5136  -10.8804    6.5745 C   0  0  0  0  0  0  0  0  0  0  0  0
  -11.4517  -12.1646    7.1185 C   0  0  0  0  0  0  0  0  0  0  0  0
  -11.7428  -12.3377    8.5177 C   0  0  0  0  0  0  0  0  0  0  0  0
  -11.7577  -13.3287    9.2071 O   0  0  0  0  0  0  0  0  0  0  0  0
  -11.1081  -13.0716    6.0995 N   0  0  0  0  0  0  0  0  0  0  0  0
  -10.9774  -12.3178    4.9747 C   0  0  0  0  0  0  0  0  0  0  0  0
  -11.2214  -10.9629    5.2397 N   0  0  0  0  0  0  0  0  0  0  0  0
  1  2  1  0  0  0  0
  1  6  1  0  0  0  0
  2  3  2  0  0  0  0
  3  4  1  0  0  0  0
  4  5  2  0  0  0  0
  4 10  1  0  0  0  0
  5  6  1  0  0  0  0
  5  8  1  0  0  0  0
  6  7  2  0  0  0  0
  8  9  1  0  0  0  0
  9 10  2  0  0  0  0
M  END
>  <CHROM.1>
-11.58143398,-11.59922218,7.30020878,2.59262577,-1.31485428,2.57330368

>  <Name>
ligand

>  <RI>
0

>  <Rbt.Current_Directory>
/home/itssahil/PROJECTS/Mol_Feturizer/New_Systems/rnas/2EES

>  <Rbt.Executable>
rbdock ($Id: //depot/dev/client3/rdock/2013.1/src/exe/rbdock.cxx#4 $)

>  <Rbt.Library>
libRbt.so (2013.1, Build901 2013/11/27)

>  <Rbt.Parameter_File>
/export/apps/rDock/src/rDock_2013.1_src/data/scripts/dock_solv.prm

>  <Rbt.Receptor>
prm/pocket_docking_8.prm

>  <SCORE>
-16.9943

>  <SCORE.INTER>
-16.9943

>  <SCORE.INTER.CONST>
1

>  <SCORE.INTER.POLAR>
0

>  <SCORE.INTER.ROT>
0

>  <SCORE.INTER.SOLV>
3.82582

>  <SCORE.INTER.VDW>
-16.2048

>  <SCORE.INTER.norm>
-1.69943

>  <SCORE.INTRA>
0

>  <SCORE.INTRA.DIHEDRAL>
0

>  <SCORE.INTRA.DIHEDRAL.0>
0

>  <SCORE.INTRA.POLAR>
0

>  <SCORE.INTRA.POLAR.0>
0

>  <SCORE.INTRA.REPUL>
0

>  <SCORE.INTRA.REPUL.0>
0

>  <SCORE.INTRA.SOLV>
0

>  <SCORE.INTRA.SOLV.lig_0>
-4.28614

>  <SCORE.INTRA.VDW>
0

>  <SCORE.INTRA.VDW.0>
0

>  <SCORE.INTRA.norm>
0

>  <SCORE.RESTR>
0

>  <SCORE.RESTR.CAVITY>
0

>  <SCORE.RESTR.norm>
0

>  <SCORE.SYSTEM>
0

>  <SCORE.SYSTEM.CONST>
0

>  <SCORE.SYSTEM.DIHEDRAL>
0

>  <SCORE.SYSTEM.SOLV>
0

>  <SCORE.SYSTEM.norm>
0

>  <SCORE.heavy>
10

>  <SCORE.norm>
-1.69943

>  <RMSD>
2.457

$$$$
ligand
 OpenBabel11021811423D
libRbt.so/2013.1/901 2013/11/27
 10 11  0  0  0  0  0  0  0  0999 V2000
  -12.1382  -11.0228    9.1259 N   0  0  0  0  0  0  0  0  0  0  0  0
  -12.1656   -9.7845    8.4815 C   0  0  0  0  0  0  0  0  0  0  0  0
  -11.8766   -9.6462    7.1752 N   0  0  0  0  0  0  0  0  0  0  0  0
  -11.5598  -10.8511    6.5543 C   0  0  0  0  0  0  0  0  0  0  0  0
  -11.5017  -12.1270    7.1180 C   0  0  0  0  0  0  0  0  0  0  0  0
  -11.8039  -12.2792    8.5173 C   0  0  0  0  0  0  0  0  0  0  0  0
  -11.8239  -13.2598    9.2213 O   0  0  0  0  0  0  0  0  0  0  0  0
  -11.1495  -13.0490    6.1155 N   0  0  0  0  0  0  0  0  0  0  0  0
  -11.0101  -12.3120    4.9806 C   0  0  0  0  0  0  0  0  0  0  0  0
  -11.2568  -10.9535    5.2233 N   0  0  0  0  0  0  0  0  0  0  0  0
  1  2  1  0  0  0  0
  1  6  1  0  0  0  0
  2  3  2  0  0  0  0
  3  4  1  0  0  0  0
  4  5  2  0  0  0  0
  4 10  1  0  0  0  0
  5  6  1  0  0  0  0
  5  8  1  0  0  0  0
  6  7  2  0  0  0  0
  8  9  1  0  0  0  0
  9 10  2  0  0  0  0
M  END
>  <CHROM.1>
-11.63309850,-11.55897946,7.29013880,2.60785863,-1.30784572,2.57302784

>  <Name>
ligand

>  <RI>
0

>  <Rbt.Current_Directory>
/home/itssahil/PROJECTS/Mol_Feturizer/New_Systems/rnas/2EES

>  <Rbt.Executable>
rbdock ($Id: //depot/dev/client3/rdock/2013.1/src/exe/rbdock.cxx#4 $)

>  <Rbt.Library>
libRbt.so (2013.1, Build901 2013/11/27)

>  <Rbt.Parameter_File>
/export/apps/rDock/src/rDock_2013.1_src/data/scripts/dock_solv.prm

>  <Rbt.Receptor>
prm/blind_docking_40.prm

>  <SCORE>
-17.0198

>  <SCORE.INTER>
-17.0198

>  <SCORE.INTER.CONST>
1

>  <SCORE.INTER.POLAR>
0

>  <SCORE.INTER.ROT>
0

>  <SCORE.INTER.SOLV>
3.75284

>  <SCORE.INTER.VDW>
-16.1975

>  <SCORE.INTER.norm>
-1.70198

>  <SCORE.INTRA>
0

>  <SCORE.INTRA.DIHEDRAL>
0

>  <SCORE.INTRA.DIHEDRAL.0>
0

>  <SCORE.INTRA.POLAR>
0

>  <SCORE.INTRA.POLAR.0>
0

>  <SCORE.INTRA.REPUL>
0

>  <SCORE.INTRA.REPUL.0>
0

>  <SCORE.INTRA.SOLV>
0

>  <SCORE.INTRA.SOLV.lig_0>
-4.28614

>  <SCORE.INTRA.VDW>
0

>  <SCORE.INTRA.VDW.0>
0

>  <SCORE.INTRA.norm>
0

>  <SCORE.RESTR>
0

>  <SCORE.RESTR.CAVITY>
0

>  <SCORE.RESTR.norm>
0

>  <SCORE.SYSTEM>
0

>  <SCORE.SYSTEM.CONST>
0

>  <SCORE.SYSTEM.DIHEDRAL>
0

>  <SCORE.SYSTEM.SOLV>
0

>  <SCORE.SYSTEM.norm>
0

>  <SCORE.heavy>
10

>  <SCORE.norm>
-1.70198

>  <RMSD>
2.458

$$$$
ligand
 OpenBabel11021811423D
libRbt.so/2013.1/901 2013/11/27
 10 11  0  0  0  0  0  0  0  0999 V2000
  -12.1035  -11.0543    9.1308 N   0  0  0  0  0  0  0  0  0  0  0  0
  -12.1558   -9.8171    8.4857 C   0  0  0  0  0  0  0  0  0  0  0  0
  -11.8781   -9.6751    7.1774 N   0  0  0  0  0  0  0  0  0  0  0  0
  -11.5457  -10.8752    6.5551 C   0  0  0  0  0  0  0  0  0  0  0  0
  -11.4627  -12.1495    7.1193 C   0  0  0  0  0  0  0  0  0  0  0  0
  -11.7527  -12.3055    8.5208 C   0  0  0  0  0  0  0  0  0  0  0  0
  -11.7516  -13.2857    9.2257 O   0  0  0  0  0  0  0  0  0  0  0  0
  -11.1022  -13.0663    6.1151 N   0  0  0  0  0  0  0  0  0  0  0  0
  -10.9829  -12.3281    4.9787 C   0  0  0  0  0  0  0  0  0  0  0  0
  -11.2503  -10.9736    5.2221 N   0  0  0  0  0  0  0  0  0  0  0  0
  1  2  1  0  0  0  0
  1  6  1  0  0  0  0
  2  3  2  0  0  0  0
  3  4  1  0  0  0  0
  4  5  2  0  0  0  0
  4 10  1  0  0  0  0
  5  6  1  0  0  0  0
  5  8  1  0  0  0  0
  6  7  2  0  0  0  0
  8  9  1  0  0  0  0
  9 10  2  0  0  0  0
M  END
>  <CHROM.1>
-11.60227180,-11.58357766,7.29199435,2.54080806,-1.30417445,2.50754470

>  <Name>
ligand

>  <RI>
0

>  <Rbt.Current_Directory>
/home/itssahil/PROJECTS/Mol_Feturizer/New_Systems/rnas/2EES

>  <Rbt.Executable>
rbdock ($Id: //depot/dev/client3/rdock/2013.1/src/exe/rbdock.cxx#4 $)

>  <Rbt.Library>
libRbt.so (2013.1, Build901 2013/11/27)

>  <Rbt.Parameter_File>
/export/apps/rDock/src/rDock_2013.1_src/data/scripts/dock_solv.prm

>  <Rbt.Receptor>
prm/blind_docking_40.prm

>  <SCORE>
-16.9816

>  <SCORE.INTER>
-16.9816

>  <SCORE.INTER.CONST>
1

>  <SCORE.INTER.POLAR>
0

>  <SCORE.INTER.ROT>
0

>  <SCORE.INTER.SOLV>
3.75822

>  <SCORE.INTER.VDW>
-16.1738

>  <SCORE.INTER.norm>
-1.69816

>  <SCORE.INTRA>
0

>  <SCORE.INTRA.DIHEDRAL>
0

>  <SCORE.INTRA.DIHEDRAL.0>
0

>  <SCORE.INTRA.POLAR>
0

>  <SCORE.INTRA.POLAR.0>
0

>  <SCORE.INTRA.REPUL>
0

>  <SCORE.INTRA.REPUL.0>
0

>  <SCORE.INTRA.SOLV>
0

>  <SCORE.INTRA.SOLV.lig_0>
-4.28614

>  <SCORE.INTRA.VDW>
0

>  <SCORE.INTRA.VDW.0>
0

>  <SCORE.INTRA.norm>
0

>  <SCORE.RESTR>
0

>  <SCORE.RESTR.CAVITY>
0

>  <SCORE.RESTR.norm>
0

>  <SCORE.SYSTEM>
0

>  <SCORE.SYSTEM.CONST>
0

>  <SCORE.SYSTEM.DIHEDRAL>
0

>  <SCORE.SYSTEM.SOLV>
0

>  <SCORE.SYSTEM.norm>
0

>  <SCORE.heavy>
10

>  <SCORE.norm>
-1.69816

>  <RMSD>
2.458

$$$$
ligand
 OpenBabel11021811423D
libRbt.so/2013.1/901 2013/11/27
 10 11  0  0  0  0  0  0  0  0999 V2000
  -12.0864  -11.0659    9.1391 N   0  0  0  0  0  0  0  0  0  0  0  0
  -12.1408   -9.8276    8.4963 C   0  0  0  0  0  0  0  0  0  0  0  0
  -11.8672   -9.6834    7.1874 N   0  0  0  0  0  0  0  0  0  0  0  0
  -11.5367  -10.8823    6.5620 C   0  0  0  0  0  0  0  0  0  0  0  0
  -11.4518  -12.1576    7.1238 C   0  0  0  0  0  0  0  0  0  0  0  0
  -11.7375  -12.3160    8.5259 C   0  0  0  0  0  0  0  0  0  0  0  0
  -11.7341  -13.2974    9.2290 O   0  0  0  0  0  0  0  0  0  0  0  0
  -11.0944  -13.0727    6.1168 N   0  0  0  0  0  0  0  0  0  0  0  0
  -10.9786  -12.3325    4.9814 C   0  0  0  0  0  0  0  0  0  0  0  0
  -11.2454  -10.9785    5.2280 N   0  0  0  0  0  0  0  0  0  0  0  0
  1  2  1  0  0  0  0
  1  6  1  0  0  0  0
  2  3  2  0  0  0  0
  3  4  1  0  0  0  0
  4  5  2  0  0  0  0
  4 10  1  0  0  0  0
  5  6  1  0  0  0  0
  5  8  1  0  0  0  0
  6  7  2  0  0  0  0
  8  9  1  0  0  0  0
  9 10  2  0  0  0  0
M  END
>  <CHROM.1>
-11.59088085,-11.59198349,7.29784825,2.53362454,-1.30664456,2.50233256

>  <Name>
ligand

>  <RI>
0

>  <Rbt.Current_Directory>
/home/itssahil/PROJECTS/Mol_Feturizer/New_Systems/rnas/2EES

>  <Rbt.Executable>
rbdock ($Id: //depot/dev/client3/rdock/2013.1/src/exe/rbdock.cxx#4 $)

>  <Rbt.Library>
libRbt.so (2013.1, Build901 2013/11/27)

>  <Rbt.Parameter_File>
/export/apps/rDock/src/rDock_2013.1_src/data/scripts/dock_solv.prm

>  <Rbt.Receptor>
prm/blind_docking_60.prm

>  <SCORE>
-16.9896

>  <SCORE.INTER>
-16.9896

>  <SCORE.INTER.CONST>
1

>  <SCORE.INTER.POLAR>
0

>  <SCORE.INTER.ROT>
0

>  <SCORE.INTER.SOLV>
3.77241

>  <SCORE.INTER.VDW>
-16.1839

>  <SCORE.INTER.norm>
-1.69896

>  <SCORE.INTRA>
0

>  <SCORE.INTRA.DIHEDRAL>
0

>  <SCORE.INTRA.DIHEDRAL.0>
0

>  <SCORE.INTRA.POLAR>
0

>  <SCORE.INTRA.POLAR.0>
0

>  <SCORE.INTRA.REPUL>
0

>  <SCORE.INTRA.REPUL.0>
0

>  <SCORE.INTRA.SOLV>
0

>  <SCORE.INTRA.SOLV.lig_0>
-4.28614

>  <SCORE.INTRA.VDW>
0

>  <SCORE.INTRA.VDW.0>
0

>  <SCORE.INTRA.norm>
0

>  <SCORE.RESTR>
0

>  <SCORE.RESTR.CAVITY>
0

>  <SCORE.RESTR.norm>
0

>  <SCORE.SYSTEM>
0

>  <SCORE.SYSTEM.CONST>
0

>  <SCORE.SYSTEM.DIHEDRAL>
0

>  <SCORE.SYSTEM.SOLV>
0

>  <SCORE.SYSTEM.norm>
0

>  <SCORE.heavy>
10

>  <SCORE.norm>
-1.69896

>  <RMSD>
2.458

$$$$
ligand
 OpenBabel11021811423D
libRbt.so/2013.1/901 2013/11/27
 10 11  0  0  0  0  0  0  0  0999 V2000
  -12.0721  -11.0870    9.1372 N   0  0  0  0  0  0  0  0  0  0  0  0
  -12.1333   -9.8474    8.4976 C   0  0  0  0  0  0  0  0  0  0  0  0
  -11.8606   -9.6982    7.1890 N   0  0  0  0  0  0  0  0  0  0  0  0
  -11.5236  -10.8938    6.5606 C   0  0  0  0  0  0  0  0  0  0  0  0
  -11.4317  -12.1700    7.1190 C   0  0  0  0  0  0  0  0  0  0  0  0
  -11.7164  -12.3336    8.5207 C   0  0  0  0  0  0  0  0  0  0  0  0
  -11.7077  -13.3168    9.2213 O   0  0  0  0  0  0  0  0  0  0  0  0
  -11.0695  -13.0805    6.1097 N   0  0  0  0  0  0  0  0  0  0  0  0
  -10.9578  -12.3368    4.9761 C   0  0  0  0  0  0  0  0  0  0  0  0
  -11.2319  -10.9849    5.2262 N   0  0  0  0  0  0  0  0  0  0  0  0
  1  2  1  0  0  0  0
  1  6  1  0  0  0  0
  2  3  2  0  0  0  0
  3  4  1  0  0  0  0
  4  5  2  0  0  0  0
  4 10  1  0  0  0  0
  5  6  1  0  0  0  0
  5  8  1  0  0  0  0
  6  7  2  0  0  0  0
  8  9  1  0  0  0  0
  9 10  2  0  0  0  0
M  END
>  <CHROM.1>
-11.57388997,-11.60561301,7.29454246,2.51693587,-1.30343019,2.48880830

>  <Name>
ligand

>  <RI>
0

>  <Rbt.Current_Directory>
/home/itssahil/PROJECTS/Mol_Feturizer/New_Systems/rnas/2EES

>  <Rbt.Executable>
rbdock ($Id: //depot/dev/client3/rdock/2013.1/src/exe/rbdock.cxx#4 $)

>  <Rbt.Library>
libRbt.so (2013.1, Build901 2013/11/27)

>  <Rbt.Parameter_File>
/export/apps/rDock/src/rDock_2013.1_src/data/scripts/dock_solv.prm

>  <Rbt.Receptor>
prm/blind_docking_60.prm

>  <SCORE>
-16.9889

>  <SCORE.INTER>
-16.9889

>  <SCORE.INTER.CONST>
1

>  <SCORE.INTER.POLAR>
0

>  <SCORE.INTER.ROT>
0

>  <SCORE.INTER.SOLV>
3.78126

>  <SCORE.INTER.VDW>
-16.1864

>  <SCORE.INTER.norm>
-1.69889

>  <SCORE.INTRA>
0

>  <SCORE.INTRA.DIHEDRAL>
0

>  <SCORE.INTRA.DIHEDRAL.0>
0

>  <SCORE.INTRA.POLAR>
0

>  <SCORE.INTRA.POLAR.0>
0

>  <SCORE.INTRA.REPUL>
0

>  <SCORE.INTRA.REPUL.0>
0

>  <SCORE.INTRA.SOLV>
0

>  <SCORE.INTRA.SOLV.lig_0>
-4.28614

>  <SCORE.INTRA.VDW>
0

>  <SCORE.INTRA.VDW.0>
0

>  <SCORE.INTRA.norm>
0

>  <SCORE.RESTR>
0

>  <SCORE.RESTR.CAVITY>
0

>  <SCORE.RESTR.norm>
0

>  <SCORE.SYSTEM>
0

>  <SCORE.SYSTEM.CONST>
0

>  <SCORE.SYSTEM.DIHEDRAL>
0

>  <SCORE.SYSTEM.SOLV>
0

>  <SCORE.SYSTEM.norm>
0

>  <SCORE.heavy>
10

>  <SCORE.norm>
-1.69889

>  <RMSD>
2.458

$$$$
ligand
 OpenBabel11021811423D
libRbt.so/2013.1/901 2013/11/27
 10 11  0  0  0  0  0  0  0  0999 V2000
  -12.0912  -11.0807    9.1272 N   0  0  0  0  0  0  0  0  0  0  0  0
  -12.1495   -9.8424    8.4848 C   0  0  0  0  0  0  0  0  0  0  0  0
  -11.8705   -9.6959    7.1772 N   0  0  0  0  0  0  0  0  0  0  0  0
  -11.5303  -10.8926    6.5528 C   0  0  0  0  0  0  0  0  0  0  0  0
  -11.4409  -12.1677    7.1143 C   0  0  0  0  0  0  0  0  0  0  0  0
  -11.7323  -12.3285    8.5149 C   0  0  0  0  0  0  0  0  0  0  0  0
  -11.7268  -13.3103    9.2176 O   0  0  0  0  0  0  0  0  0  0  0  0
  -11.0736  -13.0802    6.1086 N   0  0  0  0  0  0  0  0  0  0  0  0
  -10.9566  -12.3388    4.9741 C   0  0  0  0  0  0  0  0  0  0  0  0
  -11.2322  -10.9864    5.2201 N   0  0  0  0  0  0  0  0  0  0  0  0
  1  2  1  0  0  0  0
  1  6  1  0  0  0  0
  2  3  2  0  0  0  0
  3  4  1  0  0  0  0
  4  5  2  0  0  0  0
  4 10  1  0  0  0  0
  5  6  1  0  0  0  0
  5  8  1  0  0  0  0
  6  7  2  0  0  0  0
  8  9  1  0  0  0  0
  9 10  2  0  0  0  0
M  END
>  <CHROM.1>
-11.58399357,-11.60297283,7.28799849,2.52729726,-1.29947727,2.49676803

>  <Name>
ligand

>  <RI>
0

>  <Rbt.Current_Directory>
/home/itssahil/PROJECTS/Mol_Feturizer/New_Systems/rnas/2EES

>  <Rbt.Executable>
rbdock ($Id: //depot/dev/client3/rdock/2013.1/src/exe/rbdock.cxx#4 $)

>  <Rbt.Library>
libRbt.so (2013.1, Build901 2013/11/27)

>  <Rbt.Parameter_File>
/export/apps/rDock/src/rDock_2013.1_src/data/scripts/dock_solv.prm

>  <Rbt.Receptor>
prm/blind_docking_60.prm

>  <SCORE>
-16.988

>  <SCORE.INTER>
-16.988

>  <SCORE.INTER.CONST>
1

>  <SCORE.INTER.POLAR>
0

>  <SCORE.INTER.ROT>
0

>  <SCORE.INTER.SOLV>
3.76509

>  <SCORE.INTER.VDW>
-16.1804

>  <SCORE.INTER.norm>
-1.6988

>  <SCORE.INTRA>
0

>  <SCORE.INTRA.DIHEDRAL>
0

>  <SCORE.INTRA.DIHEDRAL.0>
0

>  <SCORE.INTRA.POLAR>
0

>  <SCORE.INTRA.POLAR.0>
0

>  <SCORE.INTRA.REPUL>
0

>  <SCORE.INTRA.REPUL.0>
0

>  <SCORE.INTRA.SOLV>
0

>  <SCORE.INTRA.SOLV.lig_0>
-4.28614

>  <SCORE.INTRA.VDW>
0

>  <SCORE.INTRA.VDW.0>
0

>  <SCORE.INTRA.norm>
0

>  <SCORE.RESTR>
0

>  <SCORE.RESTR.CAVITY>
0

>  <SCORE.RESTR.norm>
0

>  <SCORE.SYSTEM>
0

>  <SCORE.SYSTEM.CONST>
0

>  <SCORE.SYSTEM.DIHEDRAL>
0

>  <SCORE.SYSTEM.SOLV>
0

>  <SCORE.SYSTEM.norm>
0

>  <SCORE.heavy>
10

>  <SCORE.norm>
-1.6988

>  <RMSD>
2.458

$$$$
ligand
 OpenBabel11021811423D
libRbt.so/2013.1/901 2013/11/27
 10 11  0  0  0  0  0  0  0  0999 V2000
  -12.1034  -11.1097    9.1171 N   0  0  0  0  0  0  0  0  0  0  0  0
  -12.1004   -9.8510    8.5127 C   0  0  0  0  0  0  0  0  0  0  0  0
  -11.7987   -9.6769    7.2136 N   0  0  0  0  0  0  0  0  0  0  0  0
  -11.5020  -10.8677    6.5565 C   0  0  0  0  0  0  0  0  0  0  0  0
  -11.4744  -12.1619    7.0792 C   0  0  0  0  0  0  0  0  0  0  0  0
  -11.7905  -12.3526    8.4707 C   0  0  0  0  0  0  0  0  0  0  0  0
  -11.8360  -13.3546    9.1427 O   0  0  0  0  0  0  0  0  0  0  0  0
  -11.1337  -13.0584    6.0500 N   0  0  0  0  0  0  0  0  0  0  0  0
  -10.9705  -12.2886    4.9404 C   0  0  0  0  0  0  0  0  0  0  0  0
  -11.1911  -10.9337    5.2250 N   0  0  0  0  0  0  0  0  0  0  0  0
  1  2  1  0  0  0  0
  1  6  1  0  0  0  0
  2  3  2  0  0  0  0
  3  4  1  0  0  0  0
  4  5  2  0  0  0  0
  4 10  1  0  0  0  0
  5  6  1  0  0  0  0
  5  8  1  0  0  0  0
  6  7  2  0  0  0  0
  8  9  1  0  0  0  0
  9 10  2  0  0  0  0
M  END
>  <CHROM.1>
-11.59547027,-11.59711081,7.26863170,2.69164458,-1.31161321,2.68610099

>  <Name>
ligand

>  <RI>
0

>  <Rbt.Current_Directory>
/home/itssahil/PROJECTS/Mol_Feturizer/New_Systems/rnas/2EES

>  <Rbt.Executable>
rbdock ($Id: //depot/dev/client3/rdock/2013.1/src/exe/rbdock.cxx#4 $)

>  <Rbt.Library>
libRbt.so (2013.1, Build901 2013/11/27)

>  <Rbt.Parameter_File>
/export/apps/rDock/src/rDock_2013.1_src/data/scripts/dock_solv.prm

>  <Rbt.Receptor>
prm/blind_docking_80.prm

>  <SCORE>
-16.9819

>  <SCORE.INTER>
-16.9819

>  <SCORE.INTER.CONST>
1

>  <SCORE.INTER.POLAR>
0

>  <SCORE.INTER.ROT>
0

>  <SCORE.INTER.SOLV>
3.85424

>  <SCORE.INTER.VDW>
-16.206

>  <SCORE.INTER.norm>
-1.69819

>  <SCORE.INTRA>
0

>  <SCORE.INTRA.DIHEDRAL>
0

>  <SCORE.INTRA.DIHEDRAL.0>
0

>  <SCORE.INTRA.POLAR>
0

>  <SCORE.INTRA.POLAR.0>
0

>  <SCORE.INTRA.REPUL>
0

>  <SCORE.INTRA.REPUL.0>
0

>  <SCORE.INTRA.SOLV>
0

>  <SCORE.INTRA.SOLV.lig_0>
-4.28614

>  <SCORE.INTRA.VDW>
0

>  <SCORE.INTRA.VDW.0>
0

>  <SCORE.INTRA.norm>
0

>  <SCORE.RESTR>
0

>  <SCORE.RESTR.CAVITY>
0

>  <SCORE.RESTR.norm>
0

>  <SCORE.SYSTEM>
0

>  <SCORE.SYSTEM.CONST>
0

>  <SCORE.SYSTEM.DIHEDRAL>
0

>  <SCORE.SYSTEM.SOLV>
0

>  <SCORE.SYSTEM.norm>
0

>  <SCORE.heavy>
10

>  <SCORE.norm>
-1.69819

>  <RMSD>
2.458

$$$$
ligand
 OpenBabel11021811423D
libRbt.so/2013.1/901 2013/11/27
 10 11  0  0  0  0  0  0  0  0999 V2000
  -12.0549  -11.0785    9.1563 N   0  0  0  0  0  0  0  0  0  0  0  0
  -12.1103   -9.8352    8.5232 C   0  0  0  0  0  0  0  0  0  0  0  0
  -11.8487   -9.6824    7.2128 N   0  0  0  0  0  0  0  0  0  0  0  0
  -11.5293  -10.8780    6.5754 C   0  0  0  0  0  0  0  0  0  0  0  0
  -11.4443  -12.1577    7.1269 C   0  0  0  0  0  0  0  0  0  0  0  0
  -11.7172  -12.3255    8.5304 C   0  0  0  0  0  0  0  0  0  0  0  0
  -11.7112  -13.3121    9.2262 O   0  0  0  0  0  0  0  0  0  0  0  0
  -11.1005  -13.0668    6.1098 N   0  0  0  0  0  0  0  0  0  0  0  0
  -10.9926  -12.3187    4.9787 C   0  0  0  0  0  0  0  0  0  0  0  0
  -11.2513  -10.9654    5.2379 N   0  0  0  0  0  0  0  0  0  0  0  0
  1  2  1  0  0  0  0
  1  6  1  0  0  0  0
  2  3  2  0  0  0  0
  3  4  1  0  0  0  0
  4  5  2  0  0  0  0
  4 10  1  0  0  0  0
  5  6  1  0  0  0  0
  5  8  1  0  0  0  0
  6  7  2  0  0  0  0
  8  9  1  0  0  0  0
  9 10  2  0  0  0  0
M  END
>  <CHROM.1>
-11.57937573,-11.59288554,7.30644969,2.52416481,-1.31688028,2.50061153

>  <Name>
ligand

>  <RI>
0

>  <Rbt.Current_Directory>
/home/itssahil/PROJECTS/Mol_Feturizer/New_Systems/rnas/2EES

>  <Rbt.Executable>
rbdock ($Id: //depot/dev/client3/rdock/2013.1/src/exe/rbdock.cxx#4 $)

>  <Rbt.Library>
libRbt.so (2013.1, Build901 2013/11/27)

>  <Rbt.Parameter_File>
/export/apps/rDock/src/rDock_2013.1_src/data/scripts/dock_solv.prm

>  <Rbt.Receptor>
prm/pocket_docking_4.prm

>  <SCORE>
-17.0207

>  <SCORE.INTER>
-17.0207

>  <SCORE.INTER.CONST>
1

>  <SCORE.INTER.POLAR>
0

>  <SCORE.INTER.ROT>
0

>  <SCORE.INTER.SOLV>
3.81296

>  <SCORE.INTER.VDW>
-16.2181

>  <SCORE.INTER.norm>
-1.70207

>  <SCORE.INTRA>
0

>  <SCORE.INTRA.DIHEDRAL>
0

>  <SCORE.INTRA.DIHEDRAL.0>
0

>  <SCORE.INTRA.POLAR>
0

>  <SCORE.INTRA.POLAR.0>
0

>  <SCORE.INTRA.REPUL>
0

>  <SCORE.INTRA.REPUL.0>
0

>  <SCORE.INTRA.SOLV>
0

>  <SCORE.INTRA.SOLV.lig_0>
-4.28614

>  <SCORE.INTRA.VDW>
0

>  <SCORE.INTRA.VDW.0>
0

>  <SCORE.INTRA.norm>
0

>  <SCORE.RESTR>
0

>  <SCORE.RESTR.CAVITY>
0

>  <SCORE.RESTR.norm>
0

>  <SCORE.SYSTEM>
0

>  <SCORE.SYSTEM.CONST>
0

>  <SCORE.SYSTEM.DIHEDRAL>
0

>  <SCORE.SYSTEM.SOLV>
0

>  <SCORE.SYSTEM.norm>
0

>  <SCORE.heavy>
10

>  <SCORE.norm>
-1.70207

>  <RMSD>
2.458

$$$$
ligand
 OpenBabel11021811423D
libRbt.so/2013.1/901 2013/11/27
 10 11  0  0  0  0  0  0  0  0999 V2000
  -12.0899  -11.1118    9.1265 N   0  0  0  0  0  0  0  0  0  0  0  0
  -12.1038   -9.8550    8.5182 C   0  0  0  0  0  0  0  0  0  0  0  0
  -11.8118   -9.6819    7.2168 N   0  0  0  0  0  0  0  0  0  0  0  0
  -11.5067  -10.8715    6.5614 C   0  0  0  0  0  0  0  0  0  0  0  0
  -11.4623  -12.1637    7.0880 C   0  0  0  0  0  0  0  0  0  0  0  0
  -11.7678  -12.3533    8.4820 C   0  0  0  0  0  0  0  0  0  0  0  0
  -11.7986  -13.3536    9.1573 O   0  0  0  0  0  0  0  0  0  0  0  0
  -11.1185  -13.0598    6.0594 N   0  0  0  0  0  0  0  0  0  0  0  0
  -10.9702  -12.2917    4.9465 C   0  0  0  0  0  0  0  0  0  0  0  0
  -11.2032  -10.9383    5.2283 N   0  0  0  0  0  0  0  0  0  0  0  0
  1  2  1  0  0  0  0
  1  6  1  0  0  0  0
  2  3  2  0  0  0  0
  3  4  1  0  0  0  0
  4  5  2  0  0  0  0
  4 10  1  0  0  0  0
  5  6  1  0  0  0  0
  5  8  1  0  0  0  0
  6  7  2  0  0  0  0
  8  9  1  0  0  0  0
  9 10  2  0  0  0  0
M  END
>  <CHROM.1>
-11.58812421,-11.59961284,7.27639419,2.64413687,-1.31220786,2.63708871

>  <Name>
ligand

>  <RI>
0

>  <Rbt.Current_Directory>
/home/itssahil/PROJECTS/Mol_Feturizer/New_Systems/rnas/2EES

>  <Rbt.Executable>
rbdock ($Id: //depot/dev/client3/rdock/2013.1/src/exe/rbdock.cxx#4 $)

>  <Rbt.Library>
libRbt.so (2013.1, Build901 2013/11/27)

>  <Rbt.Parameter_File>
/export/apps/rDock/src/rDock_2013.1_src/data/scripts/dock_solv.prm

>  <Rbt.Receptor>
prm/pocket_docking_8.prm

>  <SCORE>
-16.9626

>  <SCORE.INTER>
-16.9626

>  <SCORE.INTER.CONST>
1

>  <SCORE.INTER.POLAR>
0

>  <SCORE.INTER.ROT>
0

>  <SCORE.INTER.SOLV>
3.8488

>  <SCORE.INTER.VDW>
-16.1913

>  <SCORE.INTER.norm>
-1.69626

>  <SCORE.INTRA>
0

>  <SCORE.INTRA.DIHEDRAL>
0

>  <SCORE.INTRA.DIHEDRAL.0>
0

>  <SCORE.INTRA.POLAR>
0

>  <SCORE.INTRA.POLAR.0>
0

>  <SCORE.INTRA.REPUL>
0

>  <SCORE.INTRA.REPUL.0>
0

>  <SCORE.INTRA.SOLV>
0

>  <SCORE.INTRA.SOLV.lig_0>
-4.28614

>  <SCORE.INTRA.VDW>
0

>  <SCORE.INTRA.VDW.0>
0

>  <SCORE.INTRA.norm>
0

>  <SCORE.RESTR>
0

>  <SCORE.RESTR.CAVITY>
0

>  <SCORE.RESTR.norm>
0

>  <SCORE.SYSTEM>
0

>  <SCORE.SYSTEM.CONST>
0

>  <SCORE.SYSTEM.DIHEDRAL>
0

>  <SCORE.SYSTEM.SOLV>
0

>  <SCORE.SYSTEM.norm>
0

>  <SCORE.heavy>
10

>  <SCORE.norm>
-1.69626

>  <RMSD>
2.458

$$$$
ligand
 OpenBabel11021811423D
libRbt.so/2013.1/901 2013/11/27
 10 11  0  0  0  0  0  0  0  0999 V2000
  -12.1033  -11.1290    9.1126 N   0  0  0  0  0  0  0  0  0  0  0  0
  -12.1068   -9.8675    8.5142 C   0  0  0  0  0  0  0  0  0  0  0  0
  -11.8063   -9.6858    7.2158 N   0  0  0  0  0  0  0  0  0  0  0  0
  -11.5037  -10.8719    6.5530 C   0  0  0  0  0  0  0  0  0  0  0  0
  -11.4694  -12.1684    7.0696 C   0  0  0  0  0  0  0  0  0  0  0  0
  -11.7841  -12.3673    8.4603 C   0  0  0  0  0  0  0  0  0  0  0  0
  -11.8243  -13.3726    9.1275 O   0  0  0  0  0  0  0  0  0  0  0  0
  -11.1244  -13.0584    6.0361 N   0  0  0  0  0  0  0  0  0  0  0  0
  -10.9654  -12.2824    4.9301 C   0  0  0  0  0  0  0  0  0  0  0  0
  -11.1928  -10.9300    5.2211 N   0  0  0  0  0  0  0  0  0  0  0  0
  1  2  1  0  0  0  0
  1  6  1  0  0  0  0
  2  3  2  0  0  0  0
  3  4  1  0  0  0  0
  4  5  2  0  0  0  0
  4 10  1  0  0  0  0
  5  6  1  0  0  0  0
  5  8  1  0  0  0  0
  6  7  2  0  0  0  0
  8  9  1  0  0  0  0
  9 10  2  0  0  0  0
M  END
>  <CHROM.1>
-11.59328224,-11.60517334,7.26172612,2.67347417,-1.30956028,2.67325871

>  <Name>
ligand

>  <RI>
0

>  <Rbt.Current_Directory>
/home/itssahil/PROJECTS/Mol_Feturizer/New_Systems/rnas/2EES

>  <Rbt.Executable>
rbdock ($Id: //depot/dev/client3/rdock/2013.1/src/exe/rbdock.cxx#4 $)

>  <Rbt.Library>
libRbt.so (2013.1, Build901 2013/11/27)

>  <Rbt.Parameter_File>
/export/apps/rDock/src/rDock_2013.1_src/data/scripts/dock_solv.prm

>  <Rbt.Receptor>
prm/blind_docking_60.prm

>  <SCORE>
-16.9899

>  <SCORE.INTER>
-16.9899

>  <SCORE.INTER.CONST>
1

>  <SCORE.INTER.POLAR>
0

>  <SCORE.INTER.ROT>
0

>  <SCORE.INTER.SOLV>
3.86163

>  <SCORE.INTER.VDW>
-16.2138

>  <SCORE.INTER.norm>
-1.69899

>  <SCORE.INTRA>
0

>  <SCORE.INTRA.DIHEDRAL>
0

>  <SCORE.INTRA.DIHEDRAL.0>
0

>  <SCORE.INTRA.POLAR>
0

>  <SCORE.INTRA.POLAR.0>
0

>  <SCORE.INTRA.REPUL>
0

>  <SCORE.INTRA.REPUL.0>
0

>  <SCORE.INTRA.SOLV>
0

>  <SCORE.INTRA.SOLV.lig_0>
-4.28614

>  <SCORE.INTRA.VDW>
0

>  <SCORE.INTRA.VDW.0>
0

>  <SCORE.INTRA.norm>
0

>  <SCORE.RESTR>
0

>  <SCORE.RESTR.CAVITY>
0

>  <SCORE.RESTR.norm>
0

>  <SCORE.SYSTEM>
0

>  <SCORE.SYSTEM.CONST>
0

>  <SCORE.SYSTEM.DIHEDRAL>
0

>  <SCORE.SYSTEM.SOLV>
0

>  <SCORE.SYSTEM.norm>
0

>  <SCORE.heavy>
10

>  <SCORE.norm>
-1.69899

>  <RMSD>
2.459

$$$$
ligand
 OpenBabel11021811423D
libRbt.so/2013.1/901 2013/11/27
 10 11  0  0  0  0  0  0  0  0999 V2000
  -12.1005  -11.1052    9.1226 N   0  0  0  0  0  0  0  0  0  0  0  0
  -12.1084   -9.8473    8.5166 C   0  0  0  0  0  0  0  0  0  0  0  0
  -11.8143   -9.6731    7.2157 N   0  0  0  0  0  0  0  0  0  0  0  0
  -11.5135  -10.8629    6.5586 C   0  0  0  0  0  0  0  0  0  0  0  0
  -11.4753  -12.1562    7.0829 C   0  0  0  0  0  0  0  0  0  0  0  0
  -11.7831  -12.3470    8.4762 C   0  0  0  0  0  0  0  0  0  0  0  0
  -11.8189  -13.3484    9.1497 O   0  0  0  0  0  0  0  0  0  0  0  0
  -11.1341  -13.0519    6.0531 N   0  0  0  0  0  0  0  0  0  0  0  0
  -10.9813  -12.2825    4.9417 C   0  0  0  0  0  0  0  0  0  0  0  0
  -11.2089  -10.9286    5.2257 N   0  0  0  0  0  0  0  0  0  0  0  0
  1  2  1  0  0  0  0
  1  6  1  0  0  0  0
  2  3  2  0  0  0  0
  3  4  1  0  0  0  0
  4  5  2  0  0  0  0
  4 10  1  0  0  0  0
  5  6  1  0  0  0  0
  5  8  1  0  0  0  0
  6  7  2  0  0  0  0
  8  9  1  0  0  0  0
  9 10  2  0  0  0  0
M  END
>  <CHROM.1>
-11.59886491,-11.59191187,7.27217413,2.66088139,-1.31328426,2.65505445

>  <Name>
ligand

>  <RI>
0

>  <Rbt.Current_Directory>
/home/itssahil/PROJECTS/Mol_Feturizer/New_Systems/rnas/2EES

>  <Rbt.Executable>
rbdock ($Id: //depot/dev/client3/rdock/2013.1/src/exe/rbdock.cxx#4 $)

>  <Rbt.Library>
libRbt.so (2013.1, Build901 2013/11/27)

>  <Rbt.Parameter_File>
/export/apps/rDock/src/rDock_2013.1_src/data/scripts/dock_solv.prm

>  <Rbt.Receptor>
prm/blind_docking_60.prm

>  <SCORE>
-16.9915

>  <SCORE.INTER>
-16.9915

>  <SCORE.INTER.CONST>
1

>  <SCORE.INTER.POLAR>
0

>  <SCORE.INTER.ROT>
0

>  <SCORE.INTER.SOLV>
3.84932

>  <SCORE.INTER.VDW>
-16.2108

>  <SCORE.INTER.norm>
-1.69915

>  <SCORE.INTRA>
0

>  <SCORE.INTRA.DIHEDRAL>
0

>  <SCORE.INTRA.DIHEDRAL.0>
0

>  <SCORE.INTRA.POLAR>
0

>  <SCORE.INTRA.POLAR.0>
0

>  <SCORE.INTRA.REPUL>
0

>  <SCORE.INTRA.REPUL.0>
0

>  <SCORE.INTRA.SOLV>
0

>  <SCORE.INTRA.SOLV.lig_0>
-4.28614

>  <SCORE.INTRA.VDW>
0

>  <SCORE.INTRA.VDW.0>
0

>  <SCORE.INTRA.norm>
0

>  <SCORE.RESTR>
0

>  <SCORE.RESTR.CAVITY>
0

>  <SCORE.RESTR.norm>
0

>  <SCORE.SYSTEM>
0

>  <SCORE.SYSTEM.CONST>
0

>  <SCORE.SYSTEM.DIHEDRAL>
0

>  <SCORE.SYSTEM.SOLV>
0

>  <SCORE.SYSTEM.norm>
0

>  <SCORE.heavy>
10

>  <SCORE.norm>
-1.69915

>  <RMSD>
2.459

$$$$
ligand
 OpenBabel11021811423D
libRbt.so/2013.1/901 2013/11/27
 10 11  0  0  0  0  0  0  0  0999 V2000
  -12.0855  -11.1008    9.1118 N   0  0  0  0  0  0  0  0  0  0  0  0
  -12.0924   -9.8435    8.5045 C   0  0  0  0  0  0  0  0  0  0  0  0
  -11.7971   -9.6707    7.2037 N   0  0  0  0  0  0  0  0  0  0  0  0
  -11.4963  -10.8612    6.5480 C   0  0  0  0  0  0  0  0  0  0  0  0
  -11.4591  -12.1540    7.0736 C   0  0  0  0  0  0  0  0  0  0  0  0
  -11.7680  -12.3433    8.4668 C   0  0  0  0  0  0  0  0  0  0  0  0
  -11.8048  -13.3440    9.1413 O   0  0  0  0  0  0  0  0  0  0  0  0
  -11.1174  -13.0509    6.0450 N   0  0  0  0  0  0  0  0  0  0  0  0
  -10.9635  -12.2827    4.9329 C   0  0  0  0  0  0  0  0  0  0  0  0
  -11.1907  -10.9284    5.2154 N   0  0  0  0  0  0  0  0  0  0  0  0
  1  2  1  0  0  0  0
  1  6  1  0  0  0  0
  2  3  2  0  0  0  0
  3  4  1  0  0  0  0
  4  5  2  0  0  0  0
  4 10  1  0  0  0  0
  5  6  1  0  0  0  0
  5  8  1  0  0  0  0
  6  7  2  0  0  0  0
  8  9  1  0  0  0  0
  9 10  2  0  0  0  0
M  END
>  <CHROM.1>
-11.58255135,-11.58950113,7.26221490,2.66381216,-1.31277980,2.65690113

>  <Name>
ligand

>  <RI>
0

>  <Rbt.Current_Directory>
/home/itssahil/PROJECTS/Mol_Feturizer/New_Systems/rnas/2EES

>  <Rbt.Executable>
rbdock ($Id: //depot/dev/client3/rdock/2013.1/src/exe/rbdock.cxx#4 $)

>  <Rbt.Library>
libRbt.so (2013.1, Build901 2013/11/27)

>  <Rbt.Parameter_File>
/export/apps/rDock/src/rDock_2013.1_src/data/scripts/dock_solv.prm

>  <Rbt.Receptor>
prm/pocket_docking_4.prm

>  <SCORE>
-17.0148

>  <SCORE.INTER>
-17.0148

>  <SCORE.INTER.CONST>
1

>  <SCORE.INTER.POLAR>
0

>  <SCORE.INTER.ROT>
0

>  <SCORE.INTER.SOLV>
3.84852

>  <SCORE.INTER.VDW>
-16.2261

>  <SCORE.INTER.norm>
-1.70148

>  <SCORE.INTRA>
0

>  <SCORE.INTRA.DIHEDRAL>
0

>  <SCORE.INTRA.DIHEDRAL.0>
0

>  <SCORE.INTRA.POLAR>
0

>  <SCORE.INTRA.POLAR.0>
0

>  <SCORE.INTRA.REPUL>
0

>  <SCORE.INTRA.REPUL.0>
0

>  <SCORE.INTRA.SOLV>
0

>  <SCORE.INTRA.SOLV.lig_0>
-4.28614

>  <SCORE.INTRA.VDW>
0

>  <SCORE.INTRA.VDW.0>
0

>  <SCORE.INTRA.norm>
0

>  <SCORE.RESTR>
0

>  <SCORE.RESTR.CAVITY>
0

>  <SCORE.RESTR.norm>
0

>  <SCORE.SYSTEM>
0

>  <SCORE.SYSTEM.CONST>
0

>  <SCORE.SYSTEM.DIHEDRAL>
0

>  <SCORE.SYSTEM.SOLV>
0

>  <SCORE.SYSTEM.norm>
0

>  <SCORE.heavy>
10

>  <SCORE.norm>
-1.70148

>  <RMSD>
2.460

$$$$
ligand
 OpenBabel11021811423D
libRbt.so/2013.1/901 2013/11/27
 10 11  0  0  0  0  0  0  0  0999 V2000
  -12.1183  -11.0502    9.1147 N   0  0  0  0  0  0  0  0  0  0  0  0
  -12.1558   -9.8080    8.4783 C   0  0  0  0  0  0  0  0  0  0  0  0
  -11.8611   -9.6578    7.1746 N   0  0  0  0  0  0  0  0  0  0  0  0
  -11.5276  -10.8550    6.5475 C   0  0  0  0  0  0  0  0  0  0  0  0
  -11.4586  -12.1339    7.1031 C   0  0  0  0  0  0  0  0  0  0  0  0
  -11.7668  -12.2987    8.4996 C   0  0  0  0  0  0  0  0  0  0  0  0
  -11.7798  -13.2842    9.1971 O   0  0  0  0  0  0  0  0  0  0  0  0
  -11.0907  -13.0452    6.0965 N   0  0  0  0  0  0  0  0  0  0  0  0
  -10.9532  -12.2992    4.9673 C   0  0  0  0  0  0  0  0  0  0  0  0
  -11.2163  -10.9451    5.2176 N   0  0  0  0  0  0  0  0  0  0  0  0
  1  2  1  0  0  0  0
  1  6  1  0  0  0  0
  2  3  2  0  0  0  0
  3  4  1  0  0  0  0
  4  5  2  0  0  0  0
  4 10  1  0  0  0  0
  5  6  1  0  0  0  0
  5  8  1  0  0  0  0
  6  7  2  0  0  0  0
  8  9  1  0  0  0  0
  9 10  2  0  0  0  0
M  END
>  <CHROM.1>
-11.59719787,-11.56850963,7.27826357,2.58440131,-1.29719632,2.55705623

>  <Name>
ligand

>  <RI>
0

>  <Rbt.Current_Directory>
/home/itssahil/PROJECTS/Mol_Feturizer/New_Systems/rnas/2EES

>  <Rbt.Executable>
rbdock ($Id: //depot/dev/client3/rdock/2013.1/src/exe/rbdock.cxx#4 $)

>  <Rbt.Library>
libRbt.so (2013.1, Build901 2013/11/27)

>  <Rbt.Parameter_File>
/export/apps/rDock/src/rDock_2013.1_src/data/scripts/dock_solv.prm

>  <Rbt.Receptor>
prm/pocket_docking_6.prm

>  <SCORE>
-16.9737

>  <SCORE.INTER>
-16.9737

>  <SCORE.INTER.CONST>
1

>  <SCORE.INTER.POLAR>
0

>  <SCORE.INTER.ROT>
0

>  <SCORE.INTER.SOLV>
3.75575

>  <SCORE.INTER.VDW>
-16.1677

>  <SCORE.INTER.norm>
-1.69737

>  <SCORE.INTRA>
0

>  <SCORE.INTRA.DIHEDRAL>
0

>  <SCORE.INTRA.DIHEDRAL.0>
0

>  <SCORE.INTRA.POLAR>
0

>  <SCORE.INTRA.POLAR.0>
0

>  <SCORE.INTRA.REPUL>
0

>  <SCORE.INTRA.REPUL.0>
0

>  <SCORE.INTRA.SOLV>
0

>  <SCORE.INTRA.SOLV.lig_0>
-4.28614

>  <SCORE.INTRA.VDW>
0

>  <SCORE.INTRA.VDW.0>
0

>  <SCORE.INTRA.norm>
0

>  <SCORE.RESTR>
0

>  <SCORE.RESTR.CAVITY>
0

>  <SCORE.RESTR.norm>
0

>  <SCORE.SYSTEM>
0

>  <SCORE.SYSTEM.CONST>
0

>  <SCORE.SYSTEM.DIHEDRAL>
0

>  <SCORE.SYSTEM.SOLV>
0

>  <SCORE.SYSTEM.norm>
0

>  <SCORE.heavy>
10

>  <SCORE.norm>
-1.69737

>  <RMSD>
2.460

$$$$
ligand
 OpenBabel11021811423D
libRbt.so/2013.1/901 2013/11/27
 10 11  0  0  0  0  0  0  0  0999 V2000
  -12.1301  -11.0221    9.0987 N   0  0  0  0  0  0  0  0  0  0  0  0
  -12.1405   -9.7817    8.4578 C   0  0  0  0  0  0  0  0  0  0  0  0
  -11.8357   -9.6417    7.1552 N   0  0  0  0  0  0  0  0  0  0  0  0
  -11.5213  -10.8472    6.5342 C   0  0  0  0  0  0  0  0  0  0  0  0
  -11.4795  -12.1252    7.0947 C   0  0  0  0  0  0  0  0  0  0  0  0
  -11.7987  -12.2792    8.4900 C   0  0  0  0  0  0  0  0  0  0  0  0
  -11.8343  -13.2617    9.1907 O   0  0  0  0  0  0  0  0  0  0  0  0
  -11.1233  -13.0469    6.0934 N   0  0  0  0  0  0  0  0  0  0  0  0
  -10.9653  -12.3077    4.9623 C   0  0  0  0  0  0  0  0  0  0  0  0
  -11.2042  -10.9480    5.2064 N   0  0  0  0  0  0  0  0  0  0  0  0
  1  2  1  0  0  0  0
  1  6  1  0  0  0  0
  2  3  2  0  0  0  0
  3  4  1  0  0  0  0
  4  5  2  0  0  0  0
  4 10  1  0  0  0  0
  5  6  1  0  0  0  0
  5  8  1  0  0  0  0
  6  7  2  0  0  0  0
  8  9  1  0  0  0  0
  9 10  2  0  0  0  0
M  END
>  <CHROM.1>
-11.60846015,-11.55670993,7.26705825,2.65550490,-1.30223252,2.62202429

>  <Name>
ligand

>  <RI>
0

>  <Rbt.Current_Directory>
/home/itssahil/PROJECTS/Mol_Feturizer/New_Systems/rnas/2EES

>  <Rbt.Executable>
rbdock ($Id: //depot/dev/client3/rdock/2013.1/src/exe/rbdock.cxx#4 $)

>  <Rbt.Library>
libRbt.so (2013.1, Build901 2013/11/27)

>  <Rbt.Parameter_File>
/export/apps/rDock/src/rDock_2013.1_src/data/scripts/dock_solv.prm

>  <Rbt.Receptor>
prm/pocket_docking_7.prm

>  <SCORE>
-16.9997

>  <SCORE.INTER>
-16.9997

>  <SCORE.INTER.CONST>
1

>  <SCORE.INTER.POLAR>
0

>  <SCORE.INTER.ROT>
0

>  <SCORE.INTER.SOLV>
3.75161

>  <SCORE.INTER.VDW>
-16.1837

>  <SCORE.INTER.norm>
-1.69997

>  <SCORE.INTRA>
0

>  <SCORE.INTRA.DIHEDRAL>
0

>  <SCORE.INTRA.DIHEDRAL.0>
0

>  <SCORE.INTRA.POLAR>
0

>  <SCORE.INTRA.POLAR.0>
0

>  <SCORE.INTRA.REPUL>
0

>  <SCORE.INTRA.REPUL.0>
0

>  <SCORE.INTRA.SOLV>
0

>  <SCORE.INTRA.SOLV.lig_0>
-4.28614

>  <SCORE.INTRA.VDW>
0

>  <SCORE.INTRA.VDW.0>
0

>  <SCORE.INTRA.norm>
0

>  <SCORE.RESTR>
0

>  <SCORE.RESTR.CAVITY>
0

>  <SCORE.RESTR.norm>
0

>  <SCORE.SYSTEM>
0

>  <SCORE.SYSTEM.CONST>
0

>  <SCORE.SYSTEM.DIHEDRAL>
0

>  <SCORE.SYSTEM.SOLV>
0

>  <SCORE.SYSTEM.norm>
0

>  <SCORE.heavy>
10

>  <SCORE.norm>
-1.69997

>  <RMSD>
2.460

$$$$
ligand
 OpenBabel11021811423D
libRbt.so/2013.1/901 2013/11/27
 10 11  0  0  0  0  0  0  0  0999 V2000
  -12.0262  -11.2201    9.6093 N   0  0  0  0  0  0  0  0  0  0  0  0
  -12.1618  -10.0833    8.8099 C   0  0  0  0  0  0  0  0  0  0  0  0
  -11.9820  -10.1147    7.4773 N   0  0  0  0  0  0  0  0  0  0  0  0
  -11.6581  -11.3810    6.9985 C   0  0  0  0  0  0  0  0  0  0  0  0
  -11.4965  -12.5649    7.7206 C   0  0  0  0  0  0  0  0  0  0  0  0
  -11.6816  -12.5350    9.1480 C   0  0  0  0  0  0  0  0  0  0  0  0
  -11.6006  -13.4101    9.9758 O   0  0  0  0  0  0  0  0  0  0  0  0
  -11.1803  -13.6020    6.8243 N   0  0  0  0  0  0  0  0  0  0  0  0
  -11.1644  -13.0227    5.5935 C   0  0  0  0  0  0  0  0  0  0  0  0
  -11.4551  -11.6535    5.6725 N   0  0  0  0  0  0  0  0  0  0  0  0
  1  2  1  0  0  0  0
  1  6  1  0  0  0  0
  2  3  2  0  0  0  0
  3  4  1  0  0  0  0
  4  5  2  0  0  0  0
  4 10  1  0  0  0  0
  5  6  1  0  0  0  0
  5  8  1  0  0  0  0
  6  7  2  0  0  0  0
  8  9  1  0  0  0  0
  9 10  2  0  0  0  0
M  END
>  <CHROM.1>
-11.64067172,-11.98376231,7.82579199,2.25334662,-1.33393792,2.09347229

>  <Name>
ligand

>  <RI>
0

>  <Rbt.Current_Directory>
/home/itssahil/PROJECTS/Mol_Feturizer/New_Systems/rnas/2EES

>  <Rbt.Executable>
rbdock ($Id: //depot/dev/client3/rdock/2013.1/src/exe/rbdock.cxx#4 $)

>  <Rbt.Library>
libRbt.so (2013.1, Build901 2013/11/27)

>  <Rbt.Parameter_File>
/export/apps/rDock/src/rDock_2013.1_src/data/scripts/dock_solv.prm

>  <Rbt.Receptor>
prm/blind_docking_40.prm

>  <SCORE>
-16.7321

>  <SCORE.INTER>
-16.7321

>  <SCORE.INTER.CONST>
1

>  <SCORE.INTER.POLAR>
0

>  <SCORE.INTER.ROT>
0

>  <SCORE.INTER.SOLV>
3.94283

>  <SCORE.INTER.VDW>
-16.069

>  <SCORE.INTER.norm>
-1.67321

>  <SCORE.INTRA>
0

>  <SCORE.INTRA.DIHEDRAL>
0

>  <SCORE.INTRA.DIHEDRAL.0>
0

>  <SCORE.INTRA.POLAR>
0

>  <SCORE.INTRA.POLAR.0>
0

>  <SCORE.INTRA.REPUL>
0

>  <SCORE.INTRA.REPUL.0>
0

>  <SCORE.INTRA.SOLV>
0

>  <SCORE.INTRA.SOLV.lig_0>
-4.28614

>  <SCORE.INTRA.VDW>
0

>  <SCORE.INTRA.VDW.0>
0

>  <SCORE.INTRA.norm>
0

>  <SCORE.RESTR>
0

>  <SCORE.RESTR.CAVITY>
0

>  <SCORE.RESTR.norm>
0

>  <SCORE.SYSTEM>
0

>  <SCORE.SYSTEM.CONST>
0

>  <SCORE.SYSTEM.DIHEDRAL>
0

>  <SCORE.SYSTEM.SOLV>
0

>  <SCORE.SYSTEM.norm>
0

>  <SCORE.heavy>
10

>  <SCORE.norm>
-1.67321

>  <RMSD>
2.461

$$$$
ligand
 OpenBabel11021811423D
libRbt.so/2013.1/901 2013/11/27
 10 11  0  0  0  0  0  0  0  0999 V2000
  -12.0694  -11.0852    9.1086 N   0  0  0  0  0  0  0  0  0  0  0  0
  -12.1051   -9.8400    8.4779 C   0  0  0  0  0  0  0  0  0  0  0  0
  -11.8345   -9.6879    7.1692 N   0  0  0  0  0  0  0  0  0  0  0  0
  -11.5274  -10.8863    6.5310 C   0  0  0  0  0  0  0  0  0  0  0  0
  -11.4621  -12.1682    7.0802 C   0  0  0  0  0  0  0  0  0  0  0  0
  -11.7446  -12.3352    8.4819 C   0  0  0  0  0  0  0  0  0  0  0  0
  -11.7553  -13.3232    9.1757 O   0  0  0  0  0  0  0  0  0  0  0  0
  -11.1248  -13.0796    6.0630 N   0  0  0  0  0  0  0  0  0  0  0  0
  -11.0010  -12.3307    4.9342 C   0  0  0  0  0  0  0  0  0  0  0  0
  -11.2434  -10.9747    5.1948 N   0  0  0  0  0  0  0  0  0  0  0  0
  1  2  1  0  0  0  0
  1  6  1  0  0  0  0
  2  3  2  0  0  0  0
  3  4  1  0  0  0  0
  4  5  2  0  0  0  0
  4 10  1  0  0  0  0
  5  6  1  0  0  0  0
  5  8  1  0  0  0  0
  6  7  2  0  0  0  0
  8  9  1  0  0  0  0
  9 10  2  0  0  0  0
M  END
>  <CHROM.1>
-11.59072282,-11.60199923,7.26024638,2.57939081,-1.32005166,2.55616071

>  <Name>
ligand

>  <RI>
0

>  <Rbt.Current_Directory>
/home/itssahil/PROJECTS/Mol_Feturizer/New_Systems/rnas/2EES

>  <Rbt.Executable>
rbdock ($Id: //depot/dev/client3/rdock/2013.1/src/exe/rbdock.cxx#4 $)

>  <Rbt.Library>
libRbt.so (2013.1, Build901 2013/11/27)

>  <Rbt.Parameter_File>
/export/apps/rDock/src/rDock_2013.1_src/data/scripts/dock_solv.prm

>  <Rbt.Receptor>
prm/blind_docking_100.prm

>  <SCORE>
-16.9789

>  <SCORE.INTER>
-16.9789

>  <SCORE.INTER.CONST>
1

>  <SCORE.INTER.POLAR>
0

>  <SCORE.INTER.ROT>
0

>  <SCORE.INTER.SOLV>
3.81997

>  <SCORE.INTER.VDW>
-16.1926

>  <SCORE.INTER.norm>
-1.69789

>  <SCORE.INTRA>
0

>  <SCORE.INTRA.DIHEDRAL>
0

>  <SCORE.INTRA.DIHEDRAL.0>
0

>  <SCORE.INTRA.POLAR>
0

>  <SCORE.INTRA.POLAR.0>
0

>  <SCORE.INTRA.REPUL>
0

>  <SCORE.INTRA.REPUL.0>
0

>  <SCORE.INTRA.SOLV>
0

>  <SCORE.INTRA.SOLV.lig_0>
-4.28614

>  <SCORE.INTRA.VDW>
0

>  <SCORE.INTRA.VDW.0>
0

>  <SCORE.INTRA.norm>
0

>  <SCORE.RESTR>
0

>  <SCORE.RESTR.CAVITY>
0

>  <SCORE.RESTR.norm>
0

>  <SCORE.SYSTEM>
0

>  <SCORE.SYSTEM.CONST>
0

>  <SCORE.SYSTEM.DIHEDRAL>
0

>  <SCORE.SYSTEM.SOLV>
0

>  <SCORE.SYSTEM.norm>
0

>  <SCORE.heavy>
10

>  <SCORE.norm>
-1.69789

>  <RMSD>
2.462

$$$$
ligand
 OpenBabel11021811423D
libRbt.so/2013.1/901 2013/11/27
 10 11  0  0  0  0  0  0  0  0999 V2000
  -12.0846  -11.1269    9.1126 N   0  0  0  0  0  0  0  0  0  0  0  0
  -12.1095   -9.8660    8.5134 C   0  0  0  0  0  0  0  0  0  0  0  0
  -11.8208   -9.6812    7.2127 N   0  0  0  0  0  0  0  0  0  0  0  0
  -11.5071  -10.8637    6.5485 C   0  0  0  0  0  0  0  0  0  0  0  0
  -11.4517  -12.1592    7.0657 C   0  0  0  0  0  0  0  0  0  0  0  0
  -11.7536  -12.3612    8.4588 C   0  0  0  0  0  0  0  0  0  0  0  0
  -11.7754  -13.3665    9.1269 O   0  0  0  0  0  0  0  0  0  0  0  0
  -11.1022  -13.0452    6.0303 N   0  0  0  0  0  0  0  0  0  0  0  0
  -10.9616  -12.2680    4.9227 C   0  0  0  0  0  0  0  0  0  0  0  0
  -11.2051  -10.9186    5.2145 N   0  0  0  0  0  0  0  0  0  0  0  0
  1  2  1  0  0  0  0
  1  6  1  0  0  0  0
  2  3  2  0  0  0  0
  3  4  1  0  0  0  0
  4  5  2  0  0  0  0
  4 10  1  0  0  0  0
  5  6  1  0  0  0  0
  5  8  1  0  0  0  0
  6  7  2  0  0  0  0
  8  9  1  0  0  0  0
  9 10  2  0  0  0  0
M  END
>  <CHROM.1>
-11.58170767,-11.59750790,7.25835114,2.61432452,-1.30950922,2.61541554

>  <Name>
ligand

>  <RI>
0

>  <Rbt.Current_Directory>
/home/itssahil/PROJECTS/Mol_Feturizer/New_Systems/rnas/2EES

>  <Rbt.Executable>
rbdock ($Id: //depot/dev/client3/rdock/2013.1/src/exe/rbdock.cxx#4 $)

>  <Rbt.Library>
libRbt.so (2013.1, Build901 2013/11/27)

>  <Rbt.Parameter_File>
/export/apps/rDock/src/rDock_2013.1_src/data/scripts/dock_solv.prm

>  <Rbt.Receptor>
prm/blind_docking_60.prm

>  <SCORE>
-17.0035

>  <SCORE.INTER>
-17.0035

>  <SCORE.INTER.CONST>
1

>  <SCORE.INTER.POLAR>
0

>  <SCORE.INTER.ROT>
0

>  <SCORE.INTER.SOLV>
3.85526

>  <SCORE.INTER.VDW>
-16.2208

>  <SCORE.INTER.norm>
-1.70035

>  <SCORE.INTRA>
0

>  <SCORE.INTRA.DIHEDRAL>
0

>  <SCORE.INTRA.DIHEDRAL.0>
0

>  <SCORE.INTRA.POLAR>
0

>  <SCORE.INTRA.POLAR.0>
0

>  <SCORE.INTRA.REPUL>
0

>  <SCORE.INTRA.REPUL.0>
0

>  <SCORE.INTRA.SOLV>
0

>  <SCORE.INTRA.SOLV.lig_0>
-4.28614

>  <SCORE.INTRA.VDW>
0

>  <SCORE.INTRA.VDW.0>
0

>  <SCORE.INTRA.norm>
0

>  <SCORE.RESTR>
0

>  <SCORE.RESTR.CAVITY>
0

>  <SCORE.RESTR.norm>
0

>  <SCORE.SYSTEM>
0

>  <SCORE.SYSTEM.CONST>
0

>  <SCORE.SYSTEM.DIHEDRAL>
0

>  <SCORE.SYSTEM.SOLV>
0

>  <SCORE.SYSTEM.norm>
0

>  <SCORE.heavy>
10

>  <SCORE.norm>
-1.70035

>  <RMSD>
2.462

$$$$
ligand
 OpenBabel11021811423D
libRbt.so/2013.1/901 2013/11/27
 10 11  0  0  0  0  0  0  0  0999 V2000
  -12.0942  -11.1181    9.0987 N   0  0  0  0  0  0  0  0  0  0  0  0
  -12.0949   -9.8560    8.5015 C   0  0  0  0  0  0  0  0  0  0  0  0
  -11.7915   -9.6734    7.2039 N   0  0  0  0  0  0  0  0  0  0  0  0
  -11.4893  -10.8593    6.5405 C   0  0  0  0  0  0  0  0  0  0  0  0
  -11.4579  -12.1563    7.0559 C   0  0  0  0  0  0  0  0  0  0  0  0
  -11.7755  -12.3561    8.4458 C   0  0  0  0  0  0  0  0  0  0  0  0
  -11.8184  -13.3621    9.1119 O   0  0  0  0  0  0  0  0  0  0  0  0
  -11.1120  -13.0457    6.0222 N   0  0  0  0  0  0  0  0  0  0  0  0
  -10.9498  -12.2689    4.9173 C   0  0  0  0  0  0  0  0  0  0  0  0
  -11.1759  -10.9165    5.2092 N   0  0  0  0  0  0  0  0  0  0  0  0
  1  2  1  0  0  0  0
  1  6  1  0  0  0  0
  2  3  2  0  0  0  0
  3  4  1  0  0  0  0
  4  5  2  0  0  0  0
  4 10  1  0  0  0  0
  5  6  1  0  0  0  0
  5  8  1  0  0  0  0
  6  7  2  0  0  0  0
  8  9  1  0  0  0  0
  9 10  2  0  0  0  0
M  END
>  <CHROM.1>
-11.58129986,-11.59309216,7.24834427,2.68159883,-1.30845302,2.68210128

>  <Name>
ligand

>  <RI>
0

>  <Rbt.Current_Directory>
/home/itssahil/PROJECTS/Mol_Feturizer/New_Systems/rnas/2EES

>  <Rbt.Executable>
rbdock ($Id: //depot/dev/client3/rdock/2013.1/src/exe/rbdock.cxx#4 $)

>  <Rbt.Library>
libRbt.so (2013.1, Build901 2013/11/27)

>  <Rbt.Parameter_File>
/export/apps/rDock/src/rDock_2013.1_src/data/scripts/dock_solv.prm

>  <Rbt.Receptor>
prm/blind_docking_80.prm

>  <SCORE>
-16.9792

>  <SCORE.INTER>
-16.9792

>  <SCORE.INTER.CONST>
1

>  <SCORE.INTER.POLAR>
0

>  <SCORE.INTER.ROT>
0

>  <SCORE.INTER.SOLV>
3.8578

>  <SCORE.INTER.VDW>
-16.2054

>  <SCORE.INTER.norm>
-1.69792

>  <SCORE.INTRA>
0

>  <SCORE.INTRA.DIHEDRAL>
0

>  <SCORE.INTRA.DIHEDRAL.0>
0

>  <SCORE.INTRA.POLAR>
0

>  <SCORE.INTRA.POLAR.0>
0

>  <SCORE.INTRA.REPUL>
0

>  <SCORE.INTRA.REPUL.0>
0

>  <SCORE.INTRA.SOLV>
0

>  <SCORE.INTRA.SOLV.lig_0>
-4.28614

>  <SCORE.INTRA.VDW>
0

>  <SCORE.INTRA.VDW.0>
0

>  <SCORE.INTRA.norm>
0

>  <SCORE.RESTR>
0

>  <SCORE.RESTR.CAVITY>
0

>  <SCORE.RESTR.norm>
0

>  <SCORE.SYSTEM>
0

>  <SCORE.SYSTEM.CONST>
0

>  <SCORE.SYSTEM.DIHEDRAL>
0

>  <SCORE.SYSTEM.SOLV>
0

>  <SCORE.SYSTEM.norm>
0

>  <SCORE.heavy>
10

>  <SCORE.norm>
-1.69792

>  <RMSD>
2.462

$$$$
ligand
 OpenBabel11021811423D
libRbt.so/2013.1/901 2013/11/27
 10 11  0  0  0  0  0  0  0  0999 V2000
  -12.1120  -11.0712    9.1083 N   0  0  0  0  0  0  0  0  0  0  0  0
  -12.1488   -9.8244    8.4808 C   0  0  0  0  0  0  0  0  0  0  0  0
  -11.8603   -9.6660    7.1767 N   0  0  0  0  0  0  0  0  0  0  0  0
  -11.5338  -10.8599    6.5396 C   0  0  0  0  0  0  0  0  0  0  0  0
  -11.4661  -12.1428    7.0859 C   0  0  0  0  0  0  0  0  0  0  0  0
  -11.7678  -12.3165    8.4828 C   0  0  0  0  0  0  0  0  0  0  0  0
  -11.7804  -13.3067    9.1734 O   0  0  0  0  0  0  0  0  0  0  0  0
  -11.1063  -13.0483    6.0711 N   0  0  0  0  0  0  0  0  0  0  0  0
  -10.9721  -12.2949    4.9464 C   0  0  0  0  0  0  0  0  0  0  0  0
  -11.2295  -10.9417    5.2075 N   0  0  0  0  0  0  0  0  0  0  0  0
  1  2  1  0  0  0  0
  1  6  1  0  0  0  0
  2  3  2  0  0  0  0
  3  4  1  0  0  0  0
  4  5  2  0  0  0  0
  4 10  1  0  0  0  0
  5  6  1  0  0  0  0
  5  8  1  0  0  0  0
  6  7  2  0  0  0  0
  8  9  1  0  0  0  0
  9 10  2  0  0  0  0
M  END
>  <CHROM.1>
-11.60198589,-11.57827210,7.26569156,2.58397155,-1.30321437,2.56361276

>  <Name>
ligand

>  <RI>
0

>  <Rbt.Current_Directory>
/home/itssahil/PROJECTS/Mol_Feturizer/New_Systems/rnas/2EES

>  <Rbt.Executable>
rbdock ($Id: //depot/dev/client3/rdock/2013.1/src/exe/rbdock.cxx#4 $)

>  <Rbt.Library>
libRbt.so (2013.1, Build901 2013/11/27)

>  <Rbt.Parameter_File>
/export/apps/rDock/src/rDock_2013.1_src/data/scripts/dock_solv.prm

>  <Rbt.Receptor>
prm/pocket_docking_6.prm

>  <SCORE>
-16.9861

>  <SCORE.INTER>
-16.9861

>  <SCORE.INTER.CONST>
1

>  <SCORE.INTER.POLAR>
0

>  <SCORE.INTER.ROT>
0

>  <SCORE.INTER.SOLV>
3.78313

>  <SCORE.INTER.VDW>
-16.1851

>  <SCORE.INTER.norm>
-1.69861

>  <SCORE.INTRA>
0

>  <SCORE.INTRA.DIHEDRAL>
0

>  <SCORE.INTRA.DIHEDRAL.0>
0

>  <SCORE.INTRA.POLAR>
0

>  <SCORE.INTRA.POLAR.0>
0

>  <SCORE.INTRA.REPUL>
0

>  <SCORE.INTRA.REPUL.0>
0

>  <SCORE.INTRA.SOLV>
0

>  <SCORE.INTRA.SOLV.lig_0>
-4.28614

>  <SCORE.INTRA.VDW>
0

>  <SCORE.INTRA.VDW.0>
0

>  <SCORE.INTRA.norm>
0

>  <SCORE.RESTR>
0

>  <SCORE.RESTR.CAVITY>
0

>  <SCORE.RESTR.norm>
0

>  <SCORE.SYSTEM>
0

>  <SCORE.SYSTEM.CONST>
0

>  <SCORE.SYSTEM.DIHEDRAL>
0

>  <SCORE.SYSTEM.SOLV>
0

>  <SCORE.SYSTEM.norm>
0

>  <SCORE.heavy>
10

>  <SCORE.norm>
-1.69861

>  <RMSD>
2.462

$$$$
ligand
 OpenBabel11021811423D
libRbt.so/2013.1/901 2013/11/27
 10 11  0  0  0  0  0  0  0  0999 V2000
  -12.1093  -11.0779    9.1011 N   0  0  0  0  0  0  0  0  0  0  0  0
  -12.1192   -9.8236    8.4879 C   0  0  0  0  0  0  0  0  0  0  0  0
  -11.8216   -9.6559    7.1869 N   0  0  0  0  0  0  0  0  0  0  0  0
  -11.5152  -10.8485    6.5376 C   0  0  0  0  0  0  0  0  0  0  0  0
  -11.4746  -12.1386    7.0694 C   0  0  0  0  0  0  0  0  0  0  0  0
  -11.7860  -12.3224    8.4629 C   0  0  0  0  0  0  0  0  0  0  0  0
  -11.8209  -13.3200    9.1420 O   0  0  0  0  0  0  0  0  0  0  0  0
  -11.1275  -13.0392    6.0459 N   0  0  0  0  0  0  0  0  0  0  0  0
  -10.9737  -12.2757    4.9305 C   0  0  0  0  0  0  0  0  0  0  0  0
  -11.2063  -10.9210    5.2060 N   0  0  0  0  0  0  0  0  0  0  0  0
  1  2  1  0  0  0  0
  1  6  1  0  0  0  0
  2  3  2  0  0  0  0
  3  4  1  0  0  0  0
  4  5  2  0  0  0  0
  4 10  1  0  0  0  0
  5  6  1  0  0  0  0
  5  8  1  0  0  0  0
  6  7  2  0  0  0  0
  8  9  1  0  0  0  0
  9 10  2  0  0  0  0
M  END
>  <CHROM.1>
-11.60044601,-11.57367372,7.25507544,2.65596867,-1.30914450,2.64456852

>  <Name>
ligand

>  <RI>
0

>  <Rbt.Current_Directory>
/home/itssahil/PROJECTS/Mol_Feturizer/New_Systems/rnas/2EES

>  <Rbt.Executable>
rbdock ($Id: //depot/dev/client3/rdock/2013.1/src/exe/rbdock.cxx#4 $)

>  <Rbt.Library>
libRbt.so (2013.1, Build901 2013/11/27)

>  <Rbt.Parameter_File>
/export/apps/rDock/src/rDock_2013.1_src/data/scripts/dock_solv.prm

>  <Rbt.Receptor>
prm/pocket_docking_6.prm

>  <SCORE>
-16.9748

>  <SCORE.INTER>
-16.9748

>  <SCORE.INTER.CONST>
1

>  <SCORE.INTER.POLAR>
0

>  <SCORE.INTER.ROT>
0

>  <SCORE.INTER.SOLV>
3.81853

>  <SCORE.INTER.VDW>
-16.1894

>  <SCORE.INTER.norm>
-1.69748

>  <SCORE.INTRA>
0

>  <SCORE.INTRA.DIHEDRAL>
0

>  <SCORE.INTRA.DIHEDRAL.0>
0

>  <SCORE.INTRA.POLAR>
0

>  <SCORE.INTRA.POLAR.0>
0

>  <SCORE.INTRA.REPUL>
0

>  <SCORE.INTRA.REPUL.0>
0

>  <SCORE.INTRA.SOLV>
0

>  <SCORE.INTRA.SOLV.lig_0>
-4.28614

>  <SCORE.INTRA.VDW>
0

>  <SCORE.INTRA.VDW.0>
0

>  <SCORE.INTRA.norm>
0

>  <SCORE.RESTR>
0

>  <SCORE.RESTR.CAVITY>
0

>  <SCORE.RESTR.norm>
0

>  <SCORE.SYSTEM>
0

>  <SCORE.SYSTEM.CONST>
0

>  <SCORE.SYSTEM.DIHEDRAL>
0

>  <SCORE.SYSTEM.SOLV>
0

>  <SCORE.SYSTEM.norm>
0

>  <SCORE.heavy>
10

>  <SCORE.norm>
-1.69748

>  <RMSD>
2.462

$$$$
ligand
 OpenBabel11021811423D
libRbt.so/2013.1/901 2013/11/27
 10 11  0  0  0  0  0  0  0  0999 V2000
  -12.0782  -11.2180    9.1395 N   0  0  0  0  0  0  0  0  0  0  0  0
  -12.1107   -9.9387    8.5809 C   0  0  0  0  0  0  0  0  0  0  0  0
  -11.8362   -9.7123    7.2838 N   0  0  0  0  0  0  0  0  0  0  0  0
  -11.5287  -10.8726    6.5790 C   0  0  0  0  0  0  0  0  0  0  0  0
  -11.4664  -12.1839    7.0541 C   0  0  0  0  0  0  0  0  0  0  0  0
  -11.7531  -12.4305    8.4432 C   0  0  0  0  0  0  0  0  0  0  0  0
  -11.7668  -13.4565    9.0792 O   0  0  0  0  0  0  0  0  0  0  0  0
  -11.1273  -13.0361    5.9874 N   0  0  0  0  0  0  0  0  0  0  0  0
  -10.9994  -12.2239    4.9036 C   0  0  0  0  0  0  0  0  0  0  0  0
  -11.2410  -10.8848    5.2407 N   0  0  0  0  0  0  0  0  0  0  0  0
  1  2  1  0  0  0  0
  1  6  1  0  0  0  0
  2  3  2  0  0  0  0
  3  4  1  0  0  0  0
  4  5  2  0  0  0  0
  4 10  1  0  0  0  0
  5  6  1  0  0  0  0
  5  8  1  0  0  0  0
  6  7  2  0  0  0  0
  8  9  1  0  0  0  0
  9 10  2  0  0  0  0
M  END
>  <CHROM.1>
-11.59489866,-11.62877874,7.26589079,2.58946729,-1.31830524,2.62316879

>  <Name>
ligand

>  <RI>
0

>  <Rbt.Current_Directory>
/home/itssahil/PROJECTS/Mol_Feturizer/New_Systems/rnas/2EES

>  <Rbt.Executable>
rbdock ($Id: //depot/dev/client3/rdock/2013.1/src/exe/rbdock.cxx#4 $)

>  <Rbt.Library>
libRbt.so (2013.1, Build901 2013/11/27)

>  <Rbt.Parameter_File>
/export/apps/rDock/src/rDock_2013.1_src/data/scripts/dock_solv.prm

>  <Rbt.Receptor>
prm/blind_docking_100.prm

>  <SCORE>
-16.9459

>  <SCORE.INTER>
-16.9459

>  <SCORE.INTER.CONST>
1

>  <SCORE.INTER.POLAR>
0

>  <SCORE.INTER.ROT>
0

>  <SCORE.INTER.SOLV>
3.94086

>  <SCORE.INTER.VDW>
-16.2109

>  <SCORE.INTER.norm>
-1.69459

>  <SCORE.INTRA>
0

>  <SCORE.INTRA.DIHEDRAL>
0

>  <SCORE.INTRA.DIHEDRAL.0>
0

>  <SCORE.INTRA.POLAR>
0

>  <SCORE.INTRA.POLAR.0>
0

>  <SCORE.INTRA.REPUL>
0

>  <SCORE.INTRA.REPUL.0>
0

>  <SCORE.INTRA.SOLV>
0

>  <SCORE.INTRA.SOLV.lig_0>
-4.28614

>  <SCORE.INTRA.VDW>
0

>  <SCORE.INTRA.VDW.0>
0

>  <SCORE.INTRA.norm>
0

>  <SCORE.RESTR>
0

>  <SCORE.RESTR.CAVITY>
0

>  <SCORE.RESTR.norm>
0

>  <SCORE.SYSTEM>
0

>  <SCORE.SYSTEM.CONST>
0

>  <SCORE.SYSTEM.DIHEDRAL>
0

>  <SCORE.SYSTEM.SOLV>
0

>  <SCORE.SYSTEM.norm>
0

>  <SCORE.heavy>
10

>  <SCORE.norm>
-1.69459

>  <RMSD>
2.463

$$$$
ligand
 OpenBabel11021811423D
libRbt.so/2013.1/901 2013/11/27
 10 11  0  0  0  0  0  0  0  0999 V2000
  -12.1101  -11.0598    9.0928 N   0  0  0  0  0  0  0  0  0  0  0  0
  -12.1368   -9.8142    8.4624 C   0  0  0  0  0  0  0  0  0  0  0  0
  -11.8403   -9.6602    7.1596 N   0  0  0  0  0  0  0  0  0  0  0  0
  -11.5167  -10.8572    6.5268 C   0  0  0  0  0  0  0  0  0  0  0  0
  -11.4587  -12.1393    7.0763 C   0  0  0  0  0  0  0  0  0  0  0  0
  -11.7689  -12.3083    8.4719 C   0  0  0  0  0  0  0  0  0  0  0  0
  -11.7906  -13.2969    9.1645 O   0  0  0  0  0  0  0  0  0  0  0  0
  -11.0981  -13.0488    6.0655 N   0  0  0  0  0  0  0  0  0  0  0  0
  -10.9538  -12.2986    4.9399 C   0  0  0  0  0  0  0  0  0  0  0  0
  -11.2055  -10.9436    5.1966 N   0  0  0  0  0  0  0  0  0  0  0  0
  1  2  1  0  0  0  0
  1  6  1  0  0  0  0
  2  3  2  0  0  0  0
  3  4  1  0  0  0  0
  4  5  2  0  0  0  0
  4 10  1  0  0  0  0
  5  6  1  0  0  0  0
  5  8  1  0  0  0  0
  6  7  2  0  0  0  0
  8  9  1  0  0  0  0
  9 10  2  0  0  0  0
M  END
>  <CHROM.1>
-11.59259437,-11.57361773,7.25411887,2.61186928,-1.30138696,2.58833448

>  <Name>
ligand

>  <RI>
0

>  <Rbt.Current_Directory>
/home/itssahil/PROJECTS/Mol_Feturizer/New_Systems/rnas/2EES

>  <Rbt.Executable>
rbdock ($Id: //depot/dev/client3/rdock/2013.1/src/exe/rbdock.cxx#4 $)

>  <Rbt.Library>
libRbt.so (2013.1, Build901 2013/11/27)

>  <Rbt.Parameter_File>
/export/apps/rDock/src/rDock_2013.1_src/data/scripts/dock_solv.prm

>  <Rbt.Receptor>
prm/blind_docking_40.prm

>  <SCORE>
-16.9831

>  <SCORE.INTER>
-16.9831

>  <SCORE.INTER.CONST>
1

>  <SCORE.INTER.POLAR>
0

>  <SCORE.INTER.ROT>
0

>  <SCORE.INTER.SOLV>
3.77449

>  <SCORE.INTER.VDW>
-16.1802

>  <SCORE.INTER.norm>
-1.69831

>  <SCORE.INTRA>
0

>  <SCORE.INTRA.DIHEDRAL>
0

>  <SCORE.INTRA.DIHEDRAL.0>
0

>  <SCORE.INTRA.POLAR>
0

>  <SCORE.INTRA.POLAR.0>
0

>  <SCORE.INTRA.REPUL>
0

>  <SCORE.INTRA.REPUL.0>
0

>  <SCORE.INTRA.SOLV>
0

>  <SCORE.INTRA.SOLV.lig_0>
-4.28614

>  <SCORE.INTRA.VDW>
0

>  <SCORE.INTRA.VDW.0>
0

>  <SCORE.INTRA.norm>
0

>  <SCORE.RESTR>
0

>  <SCORE.RESTR.CAVITY>
0

>  <SCORE.RESTR.norm>
0

>  <SCORE.SYSTEM>
0

>  <SCORE.SYSTEM.CONST>
0

>  <SCORE.SYSTEM.DIHEDRAL>
0

>  <SCORE.SYSTEM.SOLV>
0

>  <SCORE.SYSTEM.norm>
0

>  <SCORE.heavy>
10

>  <SCORE.norm>
-1.69831

>  <RMSD>
2.463

$$$$
ligand
 OpenBabel11021811423D
libRbt.so/2013.1/901 2013/11/27
 10 11  0  0  0  0  0  0  0  0999 V2000
  -12.1176  -11.0873    9.0932 N   0  0  0  0  0  0  0  0  0  0  0  0
  -12.1460   -9.8362    8.4740 C   0  0  0  0  0  0  0  0  0  0  0  0
  -11.8489   -9.6700    7.1728 N   0  0  0  0  0  0  0  0  0  0  0  0
  -11.5229  -10.8606    6.5295 C   0  0  0  0  0  0  0  0  0  0  0  0
  -11.4632  -12.1475    7.0674 C   0  0  0  0  0  0  0  0  0  0  0  0
  -11.7741  -12.3296    8.4612 C   0  0  0  0  0  0  0  0  0  0  0  0
  -11.7946  -13.3245    9.1449 O   0  0  0  0  0  0  0  0  0  0  0  0
  -11.1005  -13.0474    6.0486 N   0  0  0  0  0  0  0  0  0  0  0  0
  -10.9567  -12.2868    4.9300 C   0  0  0  0  0  0  0  0  0  0  0  0
  -11.2107  -10.9345    5.1988 N   0  0  0  0  0  0  0  0  0  0  0  0
  1  2  1  0  0  0  0
  1  6  1  0  0  0  0
  2  3  2  0  0  0  0
  3  4  1  0  0  0  0
  4  5  2  0  0  0  0
  4 10  1  0  0  0  0
  5  6  1  0  0  0  0
  5  8  1  0  0  0  0
  6  7  2  0  0  0  0
  8  9  1  0  0  0  0
  9 10  2  0  0  0  0
M  END
>  <CHROM.1>
-11.59813409,-11.58373049,7.25024074,2.60797417,-1.29998914,2.59360469

>  <Name>
ligand

>  <RI>
0

>  <Rbt.Current_Directory>
/home/itssahil/PROJECTS/Mol_Feturizer/New_Systems/rnas/2EES

>  <Rbt.Executable>
rbdock ($Id: //depot/dev/client3/rdock/2013.1/src/exe/rbdock.cxx#4 $)

>  <Rbt.Library>
libRbt.so (2013.1, Build901 2013/11/27)

>  <Rbt.Parameter_File>
/export/apps/rDock/src/rDock_2013.1_src/data/scripts/dock_solv.prm

>  <Rbt.Receptor>
prm/blind_docking_40.prm

>  <SCORE>
-16.9842

>  <SCORE.INTER>
-16.9842

>  <SCORE.INTER.CONST>
1

>  <SCORE.INTER.POLAR>
0

>  <SCORE.INTER.ROT>
0

>  <SCORE.INTER.SOLV>
3.79378

>  <SCORE.INTER.VDW>
-16.1874

>  <SCORE.INTER.norm>
-1.69842

>  <SCORE.INTRA>
0

>  <SCORE.INTRA.DIHEDRAL>
0

>  <SCORE.INTRA.DIHEDRAL.0>
0

>  <SCORE.INTRA.POLAR>
0

>  <SCORE.INTRA.POLAR.0>
0

>  <SCORE.INTRA.REPUL>
0

>  <SCORE.INTRA.REPUL.0>
0

>  <SCORE.INTRA.SOLV>
0

>  <SCORE.INTRA.SOLV.lig_0>
-4.28614

>  <SCORE.INTRA.VDW>
0

>  <SCORE.INTRA.VDW.0>
0

>  <SCORE.INTRA.norm>
0

>  <SCORE.RESTR>
0

>  <SCORE.RESTR.CAVITY>
0

>  <SCORE.RESTR.norm>
0

>  <SCORE.SYSTEM>
0

>  <SCORE.SYSTEM.CONST>
0

>  <SCORE.SYSTEM.DIHEDRAL>
0

>  <SCORE.SYSTEM.SOLV>
0

>  <SCORE.SYSTEM.norm>
0

>  <SCORE.heavy>
10

>  <SCORE.norm>
-1.69842

>  <RMSD>
2.463

$$$$
ligand
 OpenBabel11021811423D
libRbt.so/2013.1/901 2013/11/27
 10 11  0  0  0  0  0  0  0  0999 V2000
  -12.0489  -11.0618    9.1070 N   0  0  0  0  0  0  0  0  0  0  0  0
  -12.0585   -9.8096    8.4895 C   0  0  0  0  0  0  0  0  0  0  0  0
  -11.7731   -9.6480    7.1851 N   0  0  0  0  0  0  0  0  0  0  0  0
  -11.4792  -10.8443    6.5369 C   0  0  0  0  0  0  0  0  0  0  0  0
  -11.4399  -12.1328    7.0728 C   0  0  0  0  0  0  0  0  0  0  0  0
  -11.7384  -12.3102    8.4699 C   0  0  0  0  0  0  0  0  0  0  0  0
  -11.7715  -13.3052    9.1529 O   0  0  0  0  0  0  0  0  0  0  0  0
  -11.1077  -13.0387    6.0490 N   0  0  0  0  0  0  0  0  0  0  0  0
  -10.9611  -12.2799    4.9295 C   0  0  0  0  0  0  0  0  0  0  0  0
  -11.1840  -10.9230    5.2025 N   0  0  0  0  0  0  0  0  0  0  0  0
  1  2  1  0  0  0  0
  1  6  1  0  0  0  0
  2  3  2  0  0  0  0
  3  4  1  0  0  0  0
  4  5  2  0  0  0  0
  4 10  1  0  0  0  0
  5  6  1  0  0  0  0
  5  8  1  0  0  0  0
  6  7  2  0  0  0  0
  8  9  1  0  0  0  0
  9 10  2  0  0  0  0
M  END
>  <CHROM.1>
-11.56104235,-11.56658623,7.25774426,2.65485125,-1.32035132,2.63999502

>  <Name>
ligand

>  <RI>
0

>  <Rbt.Current_Directory>
/home/itssahil/PROJECTS/Mol_Feturizer/New_Systems/rnas/2EES

>  <Rbt.Executable>
rbdock ($Id: //depot/dev/client3/rdock/2013.1/src/exe/rbdock.cxx#4 $)

>  <Rbt.Library>
libRbt.so (2013.1, Build901 2013/11/27)

>  <Rbt.Parameter_File>
/export/apps/rDock/src/rDock_2013.1_src/data/scripts/dock_solv.prm

>  <Rbt.Receptor>
prm/pocket_docking_5.prm

>  <SCORE>
-16.962

>  <SCORE.INTER>
-16.962

>  <SCORE.INTER.CONST>
1

>  <SCORE.INTER.POLAR>
0

>  <SCORE.INTER.ROT>
0

>  <SCORE.INTER.SOLV>
3.8405

>  <SCORE.INTER.VDW>
-16.1882

>  <SCORE.INTER.norm>
-1.6962

>  <SCORE.INTRA>
0

>  <SCORE.INTRA.DIHEDRAL>
0

>  <SCORE.INTRA.DIHEDRAL.0>
0

>  <SCORE.INTRA.POLAR>
0

>  <SCORE.INTRA.POLAR.0>
0

>  <SCORE.INTRA.REPUL>
0

>  <SCORE.INTRA.REPUL.0>
0

>  <SCORE.INTRA.SOLV>
0

>  <SCORE.INTRA.SOLV.lig_0>
-4.28614

>  <SCORE.INTRA.VDW>
0

>  <SCORE.INTRA.VDW.0>
0

>  <SCORE.INTRA.norm>
0

>  <SCORE.RESTR>
0

>  <SCORE.RESTR.CAVITY>
0

>  <SCORE.RESTR.norm>
0

>  <SCORE.SYSTEM>
0

>  <SCORE.SYSTEM.CONST>
0

>  <SCORE.SYSTEM.DIHEDRAL>
0

>  <SCORE.SYSTEM.SOLV>
0

>  <SCORE.SYSTEM.norm>
0

>  <SCORE.heavy>
10

>  <SCORE.norm>
-1.6962

>  <RMSD>
2.463

$$$$
ligand
 OpenBabel11021811423D
libRbt.so/2013.1/901 2013/11/27
 10 11  0  0  0  0  0  0  0  0999 V2000
  -12.1167  -11.0782    9.0874 N   0  0  0  0  0  0  0  0  0  0  0  0
  -12.1069   -9.8203    8.4816 C   0  0  0  0  0  0  0  0  0  0  0  0
  -11.7985   -9.6487    7.1837 N   0  0  0  0  0  0  0  0  0  0  0  0
  -11.5025  -10.8411    6.5293 C   0  0  0  0  0  0  0  0  0  0  0  0
  -11.4816  -12.1348    7.0537 C   0  0  0  0  0  0  0  0  0  0  0  0
  -11.8047  -12.3229    8.4439 C   0  0  0  0  0  0  0  0  0  0  0  0
  -11.8565  -13.3239    9.1168 O   0  0  0  0  0  0  0  0  0  0  0  0
  -11.1389  -13.0336    6.0271 N   0  0  0  0  0  0  0  0  0  0  0  0
  -10.9680  -12.2655    4.9174 C   0  0  0  0  0  0  0  0  0  0  0  0
  -11.1856  -10.9096    5.1994 N   0  0  0  0  0  0  0  0  0  0  0  0
  1  2  1  0  0  0  0
  1  6  1  0  0  0  0
  2  3  2  0  0  0  0
  3  4  1  0  0  0  0
  4  5  2  0  0  0  0
  4 10  1  0  0  0  0
  5  6  1  0  0  0  0
  5  8  1  0  0  0  0
  6  7  2  0  0  0  0
  8  9  1  0  0  0  0
  9 10  2  0  0  0  0
M  END
>  <CHROM.1>
-11.60167023,-11.56941500,7.24186280,2.71062067,-1.30878074,2.70328401

>  <Name>
ligand

>  <RI>
0

>  <Rbt.Current_Directory>
/home/itssahil/PROJECTS/Mol_Feturizer/New_Systems/rnas/2EES

>  <Rbt.Executable>
rbdock ($Id: //depot/dev/client3/rdock/2013.1/src/exe/rbdock.cxx#4 $)

>  <Rbt.Library>
libRbt.so (2013.1, Build901 2013/11/27)

>  <Rbt.Parameter_File>
/export/apps/rDock/src/rDock_2013.1_src/data/scripts/dock_solv.prm

>  <Rbt.Receptor>
prm/pocket_docking_8.prm

>  <SCORE>
-16.9871

>  <SCORE.INTER>
-16.9871

>  <SCORE.INTER.CONST>
1

>  <SCORE.INTER.POLAR>
0

>  <SCORE.INTER.ROT>
0

>  <SCORE.INTER.SOLV>
3.83171

>  <SCORE.INTER.VDW>
-16.202

>  <SCORE.INTER.norm>
-1.69871

>  <SCORE.INTRA>
0

>  <SCORE.INTRA.DIHEDRAL>
0

>  <SCORE.INTRA.DIHEDRAL.0>
0

>  <SCORE.INTRA.POLAR>
0

>  <SCORE.INTRA.POLAR.0>
0

>  <SCORE.INTRA.REPUL>
0

>  <SCORE.INTRA.REPUL.0>
0

>  <SCORE.INTRA.SOLV>
0

>  <SCORE.INTRA.SOLV.lig_0>
-4.28614

>  <SCORE.INTRA.VDW>
0

>  <SCORE.INTRA.VDW.0>
0

>  <SCORE.INTRA.norm>
0

>  <SCORE.RESTR>
0

>  <SCORE.RESTR.CAVITY>
0

>  <SCORE.RESTR.norm>
0

>  <SCORE.SYSTEM>
0

>  <SCORE.SYSTEM.CONST>
0

>  <SCORE.SYSTEM.DIHEDRAL>
0

>  <SCORE.SYSTEM.SOLV>
0

>  <SCORE.SYSTEM.norm>
0

>  <SCORE.heavy>
10

>  <SCORE.norm>
-1.69871

>  <RMSD>
2.463

$$$$
ligand
 OpenBabel11021811423D
libRbt.so/2013.1/901 2013/11/27
 10 11  0  0  0  0  0  0  0  0999 V2000
  -12.0737  -11.1222    9.1148 N   0  0  0  0  0  0  0  0  0  0  0  0
  -12.1054   -9.8621    8.5142 C   0  0  0  0  0  0  0  0  0  0  0  0
  -11.8240   -9.6780    7.2118 N   0  0  0  0  0  0  0  0  0  0  0  0
  -11.5102  -10.8603    6.5474 C   0  0  0  0  0  0  0  0  0  0  0  0
  -11.4482  -12.1551    7.0659 C   0  0  0  0  0  0  0  0  0  0  0  0
  -11.7423  -12.3563    8.4607 C   0  0  0  0  0  0  0  0  0  0  0  0
  -11.7576  -13.3608    9.1302 O   0  0  0  0  0  0  0  0  0  0  0  0
  -11.1013  -13.0412    6.0298 N   0  0  0  0  0  0  0  0  0  0  0  0
  -10.9689  -12.2650    4.9205 C   0  0  0  0  0  0  0  0  0  0  0  0
  -11.2149  -10.9159    5.2119 N   0  0  0  0  0  0  0  0  0  0  0  0
  1  2  1  0  0  0  0
  1  6  1  0  0  0  0
  2  3  2  0  0  0  0
  3  4  1  0  0  0  0
  4  5  2  0  0  0  0
  4 10  1  0  0  0  0
  5  6  1  0  0  0  0
  5  8  1  0  0  0  0
  6  7  2  0  0  0  0
  8  9  1  0  0  0  0
  9 10  2  0  0  0  0
M  END
>  <CHROM.1>
-11.57889718,-11.59352488,7.25852821,2.59395303,-1.31240424,2.59451617

>  <Name>
ligand

>  <RI>
0

>  <Rbt.Current_Directory>
/home/itssahil/PROJECTS/Mol_Feturizer/New_Systems/rnas/2EES

>  <Rbt.Executable>
rbdock ($Id: //depot/dev/client3/rdock/2013.1/src/exe/rbdock.cxx#4 $)

>  <Rbt.Library>
libRbt.so (2013.1, Build901 2013/11/27)

>  <Rbt.Parameter_File>
/export/apps/rDock/src/rDock_2013.1_src/data/scripts/dock_solv.prm

>  <Rbt.Receptor>
prm/pocket_docking_8.prm

>  <SCORE>
-17.0018

>  <SCORE.INTER>
-17.0018

>  <SCORE.INTER.CONST>
1

>  <SCORE.INTER.POLAR>
0

>  <SCORE.INTER.ROT>
0

>  <SCORE.INTER.SOLV>
3.85641

>  <SCORE.INTER.VDW>
-16.22

>  <SCORE.INTER.norm>
-1.70018

>  <SCORE.INTRA>
0

>  <SCORE.INTRA.DIHEDRAL>
0

>  <SCORE.INTRA.DIHEDRAL.0>
0

>  <SCORE.INTRA.POLAR>
0

>  <SCORE.INTRA.POLAR.0>
0

>  <SCORE.INTRA.REPUL>
0

>  <SCORE.INTRA.REPUL.0>
0

>  <SCORE.INTRA.SOLV>
0

>  <SCORE.INTRA.SOLV.lig_0>
-4.28614

>  <SCORE.INTRA.VDW>
0

>  <SCORE.INTRA.VDW.0>
0

>  <SCORE.INTRA.norm>
0

>  <SCORE.RESTR>
0

>  <SCORE.RESTR.CAVITY>
0

>  <SCORE.RESTR.norm>
0

>  <SCORE.SYSTEM>
0

>  <SCORE.SYSTEM.CONST>
0

>  <SCORE.SYSTEM.DIHEDRAL>
0

>  <SCORE.SYSTEM.SOLV>
0

>  <SCORE.SYSTEM.norm>
0

>  <SCORE.heavy>
10

>  <SCORE.norm>
-1.70018

>  <RMSD>
2.463

$$$$
ligand
 OpenBabel11021811423D
libRbt.so/2013.1/901 2013/11/27
 10 11  0  0  0  0  0  0  0  0999 V2000
  -12.0877  -11.0987    9.1052 N   0  0  0  0  0  0  0  0  0  0  0  0
  -12.1150   -9.8436    8.4940 C   0  0  0  0  0  0  0  0  0  0  0  0
  -11.8241   -9.6703    7.1923 N   0  0  0  0  0  0  0  0  0  0  0  0
  -11.5056  -10.8580    6.5400 C   0  0  0  0  0  0  0  0  0  0  0  0
  -11.4474  -12.1484    7.0695 C   0  0  0  0  0  0  0  0  0  0  0  0
  -11.7517  -12.3382    8.4638 C   0  0  0  0  0  0  0  0  0  0  0  0
  -11.7720  -13.3372    9.1414 O   0  0  0  0  0  0  0  0  0  0  0  0
  -11.0931  -13.0431    6.0433 N   0  0  0  0  0  0  0  0  0  0  0  0
  -10.9525  -12.2760    4.9286 C   0  0  0  0  0  0  0  0  0  0  0  0
  -11.2006  -10.9246    5.2072 N   0  0  0  0  0  0  0  0  0  0  0  0
  1  2  1  0  0  0  0
  1  6  1  0  0  0  0
  2  3  2  0  0  0  0
  3  4  1  0  0  0  0
  4  5  2  0  0  0  0
  4 10  1  0  0  0  0
  5  6  1  0  0  0  0
  5  8  1  0  0  0  0
  6  7  2  0  0  0  0
  8  9  1  0  0  0  0
  9 10  2  0  0  0  0
M  END
>  <CHROM.1>
-11.57948456,-11.58531910,7.25656165,2.60870776,-1.30620816,2.60054893

>  <Name>
ligand

>  <RI>
0

>  <Rbt.Current_Directory>
/home/itssahil/PROJECTS/Mol_Feturizer/New_Systems/rnas/2EES

>  <Rbt.Executable>
rbdock ($Id: //depot/dev/client3/rdock/2013.1/src/exe/rbdock.cxx#4 $)

>  <Rbt.Library>
libRbt.so (2013.1, Build901 2013/11/27)

>  <Rbt.Parameter_File>
/export/apps/rDock/src/rDock_2013.1_src/data/scripts/dock_solv.prm

>  <Rbt.Receptor>
prm/pocket_docking_8.prm

>  <SCORE>
-16.9904

>  <SCORE.INTER>
-16.9904

>  <SCORE.INTER.CONST>
1

>  <SCORE.INTER.POLAR>
0

>  <SCORE.INTER.ROT>
0

>  <SCORE.INTER.SOLV>
3.82428

>  <SCORE.INTER.VDW>
-16.2017

>  <SCORE.INTER.norm>
-1.69904

>  <SCORE.INTRA>
0

>  <SCORE.INTRA.DIHEDRAL>
0

>  <SCORE.INTRA.DIHEDRAL.0>
0

>  <SCORE.INTRA.POLAR>
0

>  <SCORE.INTRA.POLAR.0>
0

>  <SCORE.INTRA.REPUL>
0

>  <SCORE.INTRA.REPUL.0>
0

>  <SCORE.INTRA.SOLV>
0

>  <SCORE.INTRA.SOLV.lig_0>
-4.28614

>  <SCORE.INTRA.VDW>
0

>  <SCORE.INTRA.VDW.0>
0

>  <SCORE.INTRA.norm>
0

>  <SCORE.RESTR>
0

>  <SCORE.RESTR.CAVITY>
0

>  <SCORE.RESTR.norm>
0

>  <SCORE.SYSTEM>
0

>  <SCORE.SYSTEM.CONST>
0

>  <SCORE.SYSTEM.DIHEDRAL>
0

>  <SCORE.SYSTEM.SOLV>
0

>  <SCORE.SYSTEM.norm>
0

>  <SCORE.heavy>
10

>  <SCORE.norm>
-1.69904

>  <RMSD>
2.463

$$$$
ligand
 OpenBabel11021811423D
libRbt.so/2013.1/901 2013/11/27
 10 11  0  0  0  0  0  0  0  0999 V2000
  -12.0974  -11.0924    9.1034 N   0  0  0  0  0  0  0  0  0  0  0  0
  -12.1491   -9.8426    8.4829 C   0  0  0  0  0  0  0  0  0  0  0  0
  -11.8680   -9.6744    7.1784 N   0  0  0  0  0  0  0  0  0  0  0  0
  -11.5327  -10.8615    6.5333 C   0  0  0  0  0  0  0  0  0  0  0  0
  -11.4499  -12.1467    7.0723 C   0  0  0  0  0  0  0  0  0  0  0  0
  -11.7437  -12.3308    8.4696 C   0  0  0  0  0  0  0  0  0  0  0  0
  -11.7436  -13.3248    9.1548 O   0  0  0  0  0  0  0  0  0  0  0  0
  -11.0858  -13.0431    6.0510 N   0  0  0  0  0  0  0  0  0  0  0  0
  -10.9641  -12.2823    4.9299 C   0  0  0  0  0  0  0  0  0  0  0  0
  -11.2335  -10.9332    5.1995 N   0  0  0  0  0  0  0  0  0  0  0  0
  1  2  1  0  0  0  0
  1  6  1  0  0  0  0
  2  3  2  0  0  0  0
  3  4  1  0  0  0  0
  4  5  2  0  0  0  0
  4 10  1  0  0  0  0
  5  6  1  0  0  0  0
  5  8  1  0  0  0  0
  6  7  2  0  0  0  0
  8  9  1  0  0  0  0
  9 10  2  0  0  0  0
M  END
>  <CHROM.1>
-11.59058244,-11.58446473,7.25578538,2.54400300,-1.30137480,2.53051194

>  <Name>
ligand

>  <RI>
0

>  <Rbt.Current_Directory>
/home/itssahil/PROJECTS/Mol_Feturizer/New_Systems/rnas/2EES

>  <Rbt.Executable>
rbdock ($Id: //depot/dev/client3/rdock/2013.1/src/exe/rbdock.cxx#4 $)

>  <Rbt.Library>
libRbt.so (2013.1, Build901 2013/11/27)

>  <Rbt.Parameter_File>
/export/apps/rDock/src/rDock_2013.1_src/data/scripts/dock_solv.prm

>  <Rbt.Receptor>
prm/blind_docking_80.prm

>  <SCORE>
-17.015

>  <SCORE.INTER>
-17.015

>  <SCORE.INTER.CONST>
1

>  <SCORE.INTER.POLAR>
0

>  <SCORE.INTER.ROT>
0

>  <SCORE.INTER.SOLV>
3.79367

>  <SCORE.INTER.VDW>
-16.2079

>  <SCORE.INTER.norm>
-1.7015

>  <SCORE.INTRA>
0

>  <SCORE.INTRA.DIHEDRAL>
0

>  <SCORE.INTRA.DIHEDRAL.0>
0

>  <SCORE.INTRA.POLAR>
0

>  <SCORE.INTRA.POLAR.0>
0

>  <SCORE.INTRA.REPUL>
0

>  <SCORE.INTRA.REPUL.0>
0

>  <SCORE.INTRA.SOLV>
0

>  <SCORE.INTRA.SOLV.lig_0>
-4.28614

>  <SCORE.INTRA.VDW>
0

>  <SCORE.INTRA.VDW.0>
0

>  <SCORE.INTRA.norm>
0

>  <SCORE.RESTR>
0

>  <SCORE.RESTR.CAVITY>
0

>  <SCORE.RESTR.norm>
0

>  <SCORE.SYSTEM>
0

>  <SCORE.SYSTEM.CONST>
0

>  <SCORE.SYSTEM.DIHEDRAL>
0

>  <SCORE.SYSTEM.SOLV>
0

>  <SCORE.SYSTEM.norm>
0

>  <SCORE.heavy>
10

>  <SCORE.norm>
-1.7015

>  <RMSD>
2.464

$$$$
ligand
 OpenBabel11021811423D
libRbt.so/2013.1/901 2013/11/27
 10 11  0  0  0  0  0  0  0  0999 V2000
  -12.0861  -11.0760    9.0976 N   0  0  0  0  0  0  0  0  0  0  0  0
  -12.1206   -9.8291    8.4702 C   0  0  0  0  0  0  0  0  0  0  0  0
  -11.8400   -9.6724    7.1642 N   0  0  0  0  0  0  0  0  0  0  0  0
  -11.5240  -10.8679    6.5251 C   0  0  0  0  0  0  0  0  0  0  0  0
  -11.4592  -12.1512    7.0711 C   0  0  0  0  0  0  0  0  0  0  0  0
  -11.7525  -12.3231    8.4700 C   0  0  0  0  0  0  0  0  0  0  0  0
  -11.7656  -13.3132    9.1608 O   0  0  0  0  0  0  0  0  0  0  0  0
  -11.1109  -13.0586    6.0540 N   0  0  0  0  0  0  0  0  0  0  0  0
  -10.9803  -12.3060    4.9284 C   0  0  0  0  0  0  0  0  0  0  0  0
  -11.2290  -10.9515    5.1910 N   0  0  0  0  0  0  0  0  0  0  0  0
  1  2  1  0  0  0  0
  1  6  1  0  0  0  0
  2  3  2  0  0  0  0
  3  4  1  0  0  0  0
  4  5  2  0  0  0  0
  4 10  1  0  0  0  0
  5  6  1  0  0  0  0
  5  8  1  0  0  0  0
  6  7  2  0  0  0  0
  8  9  1  0  0  0  0
  9 10  2  0  0  0  0
M  END
>  <CHROM.1>
-11.59099706,-11.58592470,7.25170139,2.58662607,-1.31161042,2.56606056

>  <Name>
ligand

>  <RI>
0

>  <Rbt.Current_Directory>
/home/itssahil/PROJECTS/Mol_Feturizer/New_Systems/rnas/2EES

>  <Rbt.Executable>
rbdock ($Id: //depot/dev/client3/rdock/2013.1/src/exe/rbdock.cxx#4 $)

>  <Rbt.Library>
libRbt.so (2013.1, Build901 2013/11/27)

>  <Rbt.Parameter_File>
/export/apps/rDock/src/rDock_2013.1_src/data/scripts/dock_solv.prm

>  <Rbt.Receptor>
prm/pocket_docking_5.prm

>  <SCORE>
-16.9829

>  <SCORE.INTER>
-16.9829

>  <SCORE.INTER.CONST>
1

>  <SCORE.INTER.POLAR>
0

>  <SCORE.INTER.ROT>
0

>  <SCORE.INTER.SOLV>
3.80203

>  <SCORE.INTER.VDW>
-16.1893

>  <SCORE.INTER.norm>
-1.69829

>  <SCORE.INTRA>
0

>  <SCORE.INTRA.DIHEDRAL>
0

>  <SCORE.INTRA.DIHEDRAL.0>
0

>  <SCORE.INTRA.POLAR>
0

>  <SCORE.INTRA.POLAR.0>
0

>  <SCORE.INTRA.REPUL>
0

>  <SCORE.INTRA.REPUL.0>
0

>  <SCORE.INTRA.SOLV>
0

>  <SCORE.INTRA.SOLV.lig_0>
-4.28614

>  <SCORE.INTRA.VDW>
0

>  <SCORE.INTRA.VDW.0>
0

>  <SCORE.INTRA.norm>
0

>  <SCORE.RESTR>
0

>  <SCORE.RESTR.CAVITY>
0

>  <SCORE.RESTR.norm>
0

>  <SCORE.SYSTEM>
0

>  <SCORE.SYSTEM.CONST>
0

>  <SCORE.SYSTEM.DIHEDRAL>
0

>  <SCORE.SYSTEM.SOLV>
0

>  <SCORE.SYSTEM.norm>
0

>  <SCORE.heavy>
10

>  <SCORE.norm>
-1.69829

>  <RMSD>
2.464

$$$$
ligand
 OpenBabel11021811423D
libRbt.so/2013.1/901 2013/11/27
 10 11  0  0  0  0  0  0  0  0999 V2000
  -12.0764  -11.0772    9.0830 N   0  0  0  0  0  0  0  0  0  0  0  0
  -12.1097   -9.8347    8.4468 C   0  0  0  0  0  0  0  0  0  0  0  0
  -11.8313   -9.6878    7.1391 N   0  0  0  0  0  0  0  0  0  0  0  0
  -11.5190  -10.8885    6.5079 C   0  0  0  0  0  0  0  0  0  0  0  0
  -11.4557  -12.1680    7.0628 C   0  0  0  0  0  0  0  0  0  0  0  0
  -11.7465  -12.3294    8.4635 C   0  0  0  0  0  0  0  0  0  0  0  0
  -11.7603  -13.3145    9.1613 O   0  0  0  0  0  0  0  0  0  0  0  0
  -11.1112  -13.0833    6.0516 N   0  0  0  0  0  0  0  0  0  0  0  0
  -10.9814  -12.3389    4.9203 C   0  0  0  0  0  0  0  0  0  0  0  0
  -11.2268  -10.9821    5.1738 N   0  0  0  0  0  0  0  0  0  0  0  0
  1  2  1  0  0  0  0
  1  6  1  0  0  0  0
  2  3  2  0  0  0  0
  3  4  1  0  0  0  0
  4  5  2  0  0  0  0
  4 10  1  0  0  0  0
  5  6  1  0  0  0  0
  5  8  1  0  0  0  0
  6  7  2  0  0  0  0
  8  9  1  0  0  0  0
  9 10  2  0  0  0  0
M  END
>  <CHROM.1>
-11.58598634,-11.60118503,7.23973105,2.58901473,-1.31437601,2.56128489

>  <Name>
ligand

>  <RI>
0

>  <Rbt.Current_Directory>
/home/itssahil/PROJECTS/Mol_Feturizer/New_Systems/rnas/2EES

>  <Rbt.Executable>
rbdock ($Id: //depot/dev/client3/rdock/2013.1/src/exe/rbdock.cxx#4 $)

>  <Rbt.Library>
libRbt.so (2013.1, Build901 2013/11/27)

>  <Rbt.Parameter_File>
/export/apps/rDock/src/rDock_2013.1_src/data/scripts/dock_solv.prm

>  <Rbt.Receptor>
prm/pocket_docking_5.prm

>  <SCORE>
-16.9784

>  <SCORE.INTER>
-16.9784

>  <SCORE.INTER.CONST>
1

>  <SCORE.INTER.POLAR>
0

>  <SCORE.INTER.ROT>
0

>  <SCORE.INTER.SOLV>
3.79688

>  <SCORE.INTER.VDW>
-16.1846

>  <SCORE.INTER.norm>
-1.69784

>  <SCORE.INTRA>
0

>  <SCORE.INTRA.DIHEDRAL>
0

>  <SCORE.INTRA.DIHEDRAL.0>
0

>  <SCORE.INTRA.POLAR>
0

>  <SCORE.INTRA.POLAR.0>
0

>  <SCORE.INTRA.REPUL>
0

>  <SCORE.INTRA.REPUL.0>
0

>  <SCORE.INTRA.SOLV>
0

>  <SCORE.INTRA.SOLV.lig_0>
-4.28614

>  <SCORE.INTRA.VDW>
0

>  <SCORE.INTRA.VDW.0>
0

>  <SCORE.INTRA.norm>
0

>  <SCORE.RESTR>
0

>  <SCORE.RESTR.CAVITY>
0

>  <SCORE.RESTR.norm>
0

>  <SCORE.SYSTEM>
0

>  <SCORE.SYSTEM.CONST>
0

>  <SCORE.SYSTEM.DIHEDRAL>
0

>  <SCORE.SYSTEM.SOLV>
0

>  <SCORE.SYSTEM.norm>
0

>  <SCORE.heavy>
10

>  <SCORE.norm>
-1.69784

>  <RMSD>
2.464

$$$$
ligand
 OpenBabel11021811423D
libRbt.so/2013.1/901 2013/11/27
 10 11  0  0  0  0  0  0  0  0999 V2000
  -12.0734  -11.0415    9.0835 N   0  0  0  0  0  0  0  0  0  0  0  0
  -12.0776   -9.7907    8.4630 C   0  0  0  0  0  0  0  0  0  0  0  0
  -11.7819   -9.6322    7.1605 N   0  0  0  0  0  0  0  0  0  0  0  0
  -11.4835  -10.8302    6.5174 C   0  0  0  0  0  0  0  0  0  0  0  0
  -11.4489  -12.1175    7.0566 C   0  0  0  0  0  0  0  0  0  0  0  0
  -11.7584  -12.2914    8.4517 C   0  0  0  0  0  0  0  0  0  0  0  0
  -11.7973  -13.2849    9.1367 O   0  0  0  0  0  0  0  0  0  0  0  0
  -11.1091  -13.0259    6.0375 N   0  0  0  0  0  0  0  0  0  0  0  0
  -10.9534  -12.2697    4.9175 C   0  0  0  0  0  0  0  0  0  0  0  0
  -11.1779  -10.9121    5.1856 N   0  0  0  0  0  0  0  0  0  0  0  0
  1  2  1  0  0  0  0
  1  6  1  0  0  0  0
  2  3  2  0  0  0  0
  3  4  1  0  0  0  0
  4  5  2  0  0  0  0
  4 10  1  0  0  0  0
  5  6  1  0  0  0  0
  5  8  1  0  0  0  0
  6  7  2  0  0  0  0
  8  9  1  0  0  0  0
  9 10  2  0  0  0  0
M  END
>  <CHROM.1>
-11.57129136,-11.55075859,7.23925667,2.67112281,-1.31366001,2.65343203

>  <Name>
ligand

>  <RI>
0

>  <Rbt.Current_Directory>
/home/itssahil/PROJECTS/Mol_Feturizer/New_Systems/rnas/2EES

>  <Rbt.Executable>
rbdock ($Id: //depot/dev/client3/rdock/2013.1/src/exe/rbdock.cxx#4 $)

>  <Rbt.Library>
libRbt.so (2013.1, Build901 2013/11/27)

>  <Rbt.Parameter_File>
/export/apps/rDock/src/rDock_2013.1_src/data/scripts/dock_solv.prm

>  <Rbt.Receptor>
prm/blind_docking_100.prm

>  <SCORE>
-17.0059

>  <SCORE.INTER>
-17.0059

>  <SCORE.INTER.CONST>
1

>  <SCORE.INTER.POLAR>
0

>  <SCORE.INTER.ROT>
0

>  <SCORE.INTER.SOLV>
3.81187

>  <SCORE.INTER.VDW>
-16.2079

>  <SCORE.INTER.norm>
-1.70059

>  <SCORE.INTRA>
0

>  <SCORE.INTRA.DIHEDRAL>
0

>  <SCORE.INTRA.DIHEDRAL.0>
0

>  <SCORE.INTRA.POLAR>
0

>  <SCORE.INTRA.POLAR.0>
0

>  <SCORE.INTRA.REPUL>
0

>  <SCORE.INTRA.REPUL.0>
0

>  <SCORE.INTRA.SOLV>
0

>  <SCORE.INTRA.SOLV.lig_0>
-4.28614

>  <SCORE.INTRA.VDW>
0

>  <SCORE.INTRA.VDW.0>
0

>  <SCORE.INTRA.norm>
0

>  <SCORE.RESTR>
0

>  <SCORE.RESTR.CAVITY>
0

>  <SCORE.RESTR.norm>
0

>  <SCORE.SYSTEM>
0

>  <SCORE.SYSTEM.CONST>
0

>  <SCORE.SYSTEM.DIHEDRAL>
0

>  <SCORE.SYSTEM.SOLV>
0

>  <SCORE.SYSTEM.norm>
0

>  <SCORE.heavy>
10

>  <SCORE.norm>
-1.70059

>  <RMSD>
2.466

$$$$
ligand
 OpenBabel11021811423D
libRbt.so/2013.1/901 2013/11/27
 10 11  0  0  0  0  0  0  0  0999 V2000
  -12.0897  -11.0701    9.0969 N   0  0  0  0  0  0  0  0  0  0  0  0
  -12.1390   -9.8216    8.4737 C   0  0  0  0  0  0  0  0  0  0  0  0
  -11.8533   -9.6560    7.1698 N   0  0  0  0  0  0  0  0  0  0  0  0
  -11.5161  -10.8445    6.5283 C   0  0  0  0  0  0  0  0  0  0  0  0
  -11.4354  -12.1286    7.0701 C   0  0  0  0  0  0  0  0  0  0  0  0
  -11.7341  -12.3099    8.4667 C   0  0  0  0  0  0  0  0  0  0  0  0
  -11.7366  -13.3026    9.1539 O   0  0  0  0  0  0  0  0  0  0  0  0
  -11.0680  -13.0271    6.0519 N   0  0  0  0  0  0  0  0  0  0  0  0
  -10.9422  -12.2686    4.9297 C   0  0  0  0  0  0  0  0  0  0  0  0
  -11.2123  -10.9189    5.1956 N   0  0  0  0  0  0  0  0  0  0  0  0
  1  2  1  0  0  0  0
  1  6  1  0  0  0  0
  2  3  2  0  0  0  0
  3  4  1  0  0  0  0
  4  5  2  0  0  0  0
  4 10  1  0  0  0  0
  5  6  1  0  0  0  0
  5  8  1  0  0  0  0
  6  7  2  0  0  0  0
  8  9  1  0  0  0  0
  9 10  2  0  0  0  0
M  END
>  <CHROM.1>
-11.57660000,-11.56601771,7.25201522,2.55207053,-1.29864884,2.53630166

>  <Name>
ligand

>  <RI>
0

>  <Rbt.Current_Directory>
/home/itssahil/PROJECTS/Mol_Feturizer/New_Systems/rnas/2EES

>  <Rbt.Executable>
rbdock ($Id: //depot/dev/client3/rdock/2013.1/src/exe/rbdock.cxx#4 $)

>  <Rbt.Library>
libRbt.so (2013.1, Build901 2013/11/27)

>  <Rbt.Parameter_File>
/export/apps/rDock/src/rDock_2013.1_src/data/scripts/dock_solv.prm

>  <Rbt.Receptor>
prm/blind_docking_40.prm

>  <SCORE>
-16.9961

>  <SCORE.INTER>
-16.9961

>  <SCORE.INTER.CONST>
1

>  <SCORE.INTER.POLAR>
0

>  <SCORE.INTER.ROT>
0

>  <SCORE.INTER.SOLV>
3.78149

>  <SCORE.INTER.VDW>
-16.1912

>  <SCORE.INTER.norm>
-1.69961

>  <SCORE.INTRA>
0

>  <SCORE.INTRA.DIHEDRAL>
0

>  <SCORE.INTRA.DIHEDRAL.0>
0

>  <SCORE.INTRA.POLAR>
0

>  <SCORE.INTRA.POLAR.0>
0

>  <SCORE.INTRA.REPUL>
0

>  <SCORE.INTRA.REPUL.0>
0

>  <SCORE.INTRA.SOLV>
0

>  <SCORE.INTRA.SOLV.lig_0>
-4.28614

>  <SCORE.INTRA.VDW>
0

>  <SCORE.INTRA.VDW.0>
0

>  <SCORE.INTRA.norm>
0

>  <SCORE.RESTR>
0

>  <SCORE.RESTR.CAVITY>
0

>  <SCORE.RESTR.norm>
0

>  <SCORE.SYSTEM>
0

>  <SCORE.SYSTEM.CONST>
0

>  <SCORE.SYSTEM.DIHEDRAL>
0

>  <SCORE.SYSTEM.SOLV>
0

>  <SCORE.SYSTEM.norm>
0

>  <SCORE.heavy>
10

>  <SCORE.norm>
-1.69961

>  <RMSD>
2.466

$$$$
ligand
 OpenBabel11021811423D
libRbt.so/2013.1/901 2013/11/27
 10 11  0  0  0  0  0  0  0  0999 V2000
  -12.1114  -11.0440    9.0817 N   0  0  0  0  0  0  0  0  0  0  0  0
  -12.1341   -9.7957    8.4564 C   0  0  0  0  0  0  0  0  0  0  0  0
  -11.8371   -9.6373    7.1542 N   0  0  0  0  0  0  0  0  0  0  0  0
  -11.5175  -10.8327    6.5165 C   0  0  0  0  0  0  0  0  0  0  0  0
  -11.4637  -12.1173    7.0606 C   0  0  0  0  0  0  0  0  0  0  0  0
  -11.7745  -12.2910    8.4556 C   0  0  0  0  0  0  0  0  0  0  0  0
  -11.7994  -13.2824    9.1441 O   0  0  0  0  0  0  0  0  0  0  0  0
  -11.1063  -13.0238    6.0460 N   0  0  0  0  0  0  0  0  0  0  0  0
  -10.9595  -12.2694    4.9236 C   0  0  0  0  0  0  0  0  0  0  0  0
  -11.2067  -10.9146    5.1859 N   0  0  0  0  0  0  0  0  0  0  0  0
  1  2  1  0  0  0  0
  1  6  1  0  0  0  0
  2  3  2  0  0  0  0
  3  4  1  0  0  0  0
  4  5  2  0  0  0  0
  4 10  1  0  0  0  0
  5  6  1  0  0  0  0
  5  8  1  0  0  0  0
  6  7  2  0  0  0  0
  8  9  1  0  0  0  0
  9 10  2  0  0  0  0
M  END
>  <CHROM.1>
-11.59577153,-11.55191887,7.24082422,2.62242594,-1.30317429,2.60264830

>  <Name>
ligand

>  <RI>
0

>  <Rbt.Current_Directory>
/home/itssahil/PROJECTS/Mol_Feturizer/New_Systems/rnas/2EES

>  <Rbt.Executable>
rbdock ($Id: //depot/dev/client3/rdock/2013.1/src/exe/rbdock.cxx#4 $)

>  <Rbt.Library>
libRbt.so (2013.1, Build901 2013/11/27)

>  <Rbt.Parameter_File>
/export/apps/rDock/src/rDock_2013.1_src/data/scripts/dock_solv.prm

>  <Rbt.Receptor>
prm/pocket_docking_8.prm

>  <SCORE>
-17.0259

>  <SCORE.INTER>
-17.0259

>  <SCORE.INTER.CONST>
1

>  <SCORE.INTER.POLAR>
0

>  <SCORE.INTER.ROT>
0

>  <SCORE.INTER.SOLV>
3.7763

>  <SCORE.INTER.VDW>
-16.2094

>  <SCORE.INTER.norm>
-1.70259

>  <SCORE.INTRA>
0

>  <SCORE.INTRA.DIHEDRAL>
0

>  <SCORE.INTRA.DIHEDRAL.0>
0

>  <SCORE.INTRA.POLAR>
0

>  <SCORE.INTRA.POLAR.0>
0

>  <SCORE.INTRA.REPUL>
0

>  <SCORE.INTRA.REPUL.0>
0

>  <SCORE.INTRA.SOLV>
0

>  <SCORE.INTRA.SOLV.lig_0>
-4.28614

>  <SCORE.INTRA.VDW>
0

>  <SCORE.INTRA.VDW.0>
0

>  <SCORE.INTRA.norm>
0

>  <SCORE.RESTR>
0

>  <SCORE.RESTR.CAVITY>
0

>  <SCORE.RESTR.norm>
0

>  <SCORE.SYSTEM>
0

>  <SCORE.SYSTEM.CONST>
0

>  <SCORE.SYSTEM.DIHEDRAL>
0

>  <SCORE.SYSTEM.SOLV>
0

>  <SCORE.SYSTEM.norm>
0

>  <SCORE.heavy>
10

>  <SCORE.norm>
-1.70259

>  <RMSD>
2.466

$$$$
ligand
 OpenBabel11021811423D
libRbt.so/2013.1/901 2013/11/27
 10 11  0  0  0  0  0  0  0  0999 V2000
  -12.0931  -11.1450    9.0810 N   0  0  0  0  0  0  0  0  0  0  0  0
  -12.1017   -9.8759    8.4989 C   0  0  0  0  0  0  0  0  0  0  0  0
  -11.8009   -9.6762    7.2032 N   0  0  0  0  0  0  0  0  0  0  0  0
  -11.4926  -10.8523    6.5254 C   0  0  0  0  0  0  0  0  0  0  0  0
  -11.4531  -12.1552    7.0253 C   0  0  0  0  0  0  0  0  0  0  0  0
  -11.7680  -12.3733    8.4131 C   0  0  0  0  0  0  0  0  0  0  0  0
  -11.8044  -13.3874    9.0673 O   0  0  0  0  0  0  0  0  0  0  0  0
  -11.1033  -13.0302    5.9808 N   0  0  0  0  0  0  0  0  0  0  0  0
  -10.9467  -12.2394    4.8850 C   0  0  0  0  0  0  0  0  0  0  0  0
  -11.1803  -10.8919    5.1932 N   0  0  0  0  0  0  0  0  0  0  0  0
  1  2  1  0  0  0  0
  1  6  1  0  0  0  0
  2  3  2  0  0  0  0
  3  4  1  0  0  0  0
  4  5  2  0  0  0  0
  4 10  1  0  0  0  0
  5  6  1  0  0  0  0
  5  8  1  0  0  0  0
  6  7  2  0  0  0  0
  8  9  1  0  0  0  0
  9 10  2  0  0  0  0
M  END
>  <CHROM.1>
-11.57955120,-11.59502189,7.22459573,2.65997402,-1.30682329,2.67311233

>  <Name>
ligand

>  <RI>
0

>  <Rbt.Current_Directory>
/home/itssahil/PROJECTS/Mol_Feturizer/New_Systems/rnas/2EES

>  <Rbt.Executable>
rbdock ($Id: //depot/dev/client3/rdock/2013.1/src/exe/rbdock.cxx#4 $)

>  <Rbt.Library>
libRbt.so (2013.1, Build901 2013/11/27)

>  <Rbt.Parameter_File>
/export/apps/rDock/src/rDock_2013.1_src/data/scripts/dock_solv.prm

>  <Rbt.Receptor>
prm/pocket_docking_6.prm

>  <SCORE>
-17.0242

>  <SCORE.INTER>
-17.0242

>  <SCORE.INTER.CONST>
1

>  <SCORE.INTER.POLAR>
0

>  <SCORE.INTER.ROT>
0

>  <SCORE.INTER.SOLV>
3.87766

>  <SCORE.INTER.VDW>
-16.242

>  <SCORE.INTER.norm>
-1.70242

>  <SCORE.INTRA>
0

>  <SCORE.INTRA.DIHEDRAL>
0

>  <SCORE.INTRA.DIHEDRAL.0>
0

>  <SCORE.INTRA.POLAR>
0

>  <SCORE.INTRA.POLAR.0>
0

>  <SCORE.INTRA.REPUL>
0

>  <SCORE.INTRA.REPUL.0>
0

>  <SCORE.INTRA.SOLV>
0

>  <SCORE.INTRA.SOLV.lig_0>
-4.28614

>  <SCORE.INTRA.VDW>
0

>  <SCORE.INTRA.VDW.0>
0

>  <SCORE.INTRA.norm>
0

>  <SCORE.RESTR>
0

>  <SCORE.RESTR.CAVITY>
0

>  <SCORE.RESTR.norm>
0

>  <SCORE.SYSTEM>
0

>  <SCORE.SYSTEM.CONST>
0

>  <SCORE.SYSTEM.DIHEDRAL>
0

>  <SCORE.SYSTEM.SOLV>
0

>  <SCORE.SYSTEM.norm>
0

>  <SCORE.heavy>
10

>  <SCORE.norm>
-1.70242

>  <RMSD>
2.467

$$$$
ligand
 OpenBabel11021811423D
libRbt.so/2013.1/901 2013/11/27
 10 11  0  0  0  0  0  0  0  0999 V2000
  -12.0968  -11.1478    9.0724 N   0  0  0  0  0  0  0  0  0  0  0  0
  -12.0916   -9.8749    8.4984 C   0  0  0  0  0  0  0  0  0  0  0  0
  -11.7904   -9.6703    7.2037 N   0  0  0  0  0  0  0  0  0  0  0  0
  -11.4966  -10.8455    6.5178 C   0  0  0  0  0  0  0  0  0  0  0  0
  -11.4714  -12.1520    7.0093 C   0  0  0  0  0  0  0  0  0  0  0  0
  -11.7868  -12.3754    8.3960 C   0  0  0  0  0  0  0  0  0  0  0  0
  -11.8340  -13.3932    9.0437 O   0  0  0  0  0  0  0  0  0  0  0  0
  -11.1332  -13.0242    5.9586 N   0  0  0  0  0  0  0  0  0  0  0  0
  -10.9692  -12.2281    4.8677 C   0  0  0  0  0  0  0  0  0  0  0  0
  -11.1868  -10.8800    5.1849 N   0  0  0  0  0  0  0  0  0  0  0  0
  1  2  1  0  0  0  0
  1  6  1  0  0  0  0
  2  3  2  0  0  0  0
  3  4  1  0  0  0  0
  4  5  2  0  0  0  0
  4 10  1  0  0  0  0
  5  6  1  0  0  0  0
  5  8  1  0  0  0  0
  6  7  2  0  0  0  0
  8  9  1  0  0  0  0
  9 10  2  0  0  0  0
M  END
>  <CHROM.1>
-11.59112537,-11.59163298,7.21232075,2.69773888,-1.31313666,2.71605549

>  <Name>
ligand

>  <RI>
0

>  <Rbt.Current_Directory>
/home/itssahil/PROJECTS/Mol_Feturizer/New_Systems/rnas/2EES

>  <Rbt.Executable>
rbdock ($Id: //depot/dev/client3/rdock/2013.1/src/exe/rbdock.cxx#4 $)

>  <Rbt.Library>
libRbt.so (2013.1, Build901 2013/11/27)

>  <Rbt.Parameter_File>
/export/apps/rDock/src/rDock_2013.1_src/data/scripts/dock_solv.prm

>  <Rbt.Receptor>
prm/blind_docking_100.prm

>  <SCORE>
-16.993

>  <SCORE.INTER>
-16.993

>  <SCORE.INTER.CONST>
1

>  <SCORE.INTER.POLAR>
0

>  <SCORE.INTER.ROT>
0

>  <SCORE.INTER.SOLV>
3.90442

>  <SCORE.INTER.VDW>
-16.2301

>  <SCORE.INTER.norm>
-1.6993

>  <SCORE.INTRA>
0

>  <SCORE.INTRA.DIHEDRAL>
0

>  <SCORE.INTRA.DIHEDRAL.0>
0

>  <SCORE.INTRA.POLAR>
0

>  <SCORE.INTRA.POLAR.0>
0

>  <SCORE.INTRA.REPUL>
0

>  <SCORE.INTRA.REPUL.0>
0

>  <SCORE.INTRA.SOLV>
0

>  <SCORE.INTRA.SOLV.lig_0>
-4.28614

>  <SCORE.INTRA.VDW>
0

>  <SCORE.INTRA.VDW.0>
0

>  <SCORE.INTRA.norm>
0

>  <SCORE.RESTR>
0

>  <SCORE.RESTR.CAVITY>
0

>  <SCORE.RESTR.norm>
0

>  <SCORE.SYSTEM>
0

>  <SCORE.SYSTEM.CONST>
0

>  <SCORE.SYSTEM.DIHEDRAL>
0

>  <SCORE.SYSTEM.SOLV>
0

>  <SCORE.SYSTEM.norm>
0

>  <SCORE.heavy>
10

>  <SCORE.norm>
-1.6993

>  <RMSD>
2.468

$$$$
ligand
 OpenBabel11021811423D
libRbt.so/2013.1/901 2013/11/27
 10 11  0  0  0  0  0  0  0  0999 V2000
  -12.1086  -11.0430    9.0909 N   0  0  0  0  0  0  0  0  0  0  0  0
  -12.1660   -9.7985    8.4603 C   0  0  0  0  0  0  0  0  0  0  0  0
  -11.8887   -9.6399    7.1538 N   0  0  0  0  0  0  0  0  0  0  0  0
  -11.5510  -10.8311    6.5176 C   0  0  0  0  0  0  0  0  0  0  0  0
  -11.4627  -12.1116    7.0668 C   0  0  0  0  0  0  0  0  0  0  0  0
  -11.7523  -12.2854    8.4662 C   0  0  0  0  0  0  0  0  0  0  0  0
  -11.7472  -13.2738    9.1595 O   0  0  0  0  0  0  0  0  0  0  0  0
  -11.0981  -13.0151    6.0519 N   0  0  0  0  0  0  0  0  0  0  0  0
  -10.9816  -12.2630    4.9243 C   0  0  0  0  0  0  0  0  0  0  0  0
  -11.2549  -10.9127    5.1836 N   0  0  0  0  0  0  0  0  0  0  0  0
  1  2  1  0  0  0  0
  1  6  1  0  0  0  0
  2  3  2  0  0  0  0
  3  4  1  0  0  0  0
  4  5  2  0  0  0  0
  4 10  1  0  0  0  0
  5  6  1  0  0  0  0
  5  8  1  0  0  0  0
  6  7  2  0  0  0  0
  8  9  1  0  0  0  0
  9 10  2  0  0  0  0
M  END
>  <CHROM.1>
-11.60471222,-11.54840302,7.24605428,2.52844176,-1.30146860,2.50738686

>  <Name>
ligand

>  <RI>
0

>  <Rbt.Current_Directory>
/home/itssahil/PROJECTS/Mol_Feturizer/New_Systems/rnas/2EES

>  <Rbt.Executable>
rbdock ($Id: //depot/dev/client3/rdock/2013.1/src/exe/rbdock.cxx#4 $)

>  <Rbt.Library>
libRbt.so (2013.1, Build901 2013/11/27)

>  <Rbt.Parameter_File>
/export/apps/rDock/src/rDock_2013.1_src/data/scripts/dock_solv.prm

>  <Rbt.Receptor>
prm/blind_docking_40.prm

>  <SCORE>
-16.9617

>  <SCORE.INTER>
-16.9617

>  <SCORE.INTER.CONST>
1

>  <SCORE.INTER.POLAR>
0

>  <SCORE.INTER.ROT>
0

>  <SCORE.INTER.SOLV>
3.76066

>  <SCORE.INTER.VDW>
-16.1613

>  <SCORE.INTER.norm>
-1.69617

>  <SCORE.INTRA>
0

>  <SCORE.INTRA.DIHEDRAL>
0

>  <SCORE.INTRA.DIHEDRAL.0>
0

>  <SCORE.INTRA.POLAR>
0

>  <SCORE.INTRA.POLAR.0>
0

>  <SCORE.INTRA.REPUL>
0

>  <SCORE.INTRA.REPUL.0>
0

>  <SCORE.INTRA.SOLV>
0

>  <SCORE.INTRA.SOLV.lig_0>
-4.28614

>  <SCORE.INTRA.VDW>
0

>  <SCORE.INTRA.VDW.0>
0

>  <SCORE.INTRA.norm>
0

>  <SCORE.RESTR>
0

>  <SCORE.RESTR.CAVITY>
0

>  <SCORE.RESTR.norm>
0

>  <SCORE.SYSTEM>
0

>  <SCORE.SYSTEM.CONST>
0

>  <SCORE.SYSTEM.DIHEDRAL>
0

>  <SCORE.SYSTEM.SOLV>
0

>  <SCORE.SYSTEM.norm>
0

>  <SCORE.heavy>
10

>  <SCORE.norm>
-1.69617

>  <RMSD>
2.468

$$$$
ligand
 OpenBabel11021811423D
libRbt.so/2013.1/901 2013/11/27
 10 11  0  0  0  0  0  0  0  0999 V2000
  -12.0909  -11.0405    9.0807 N   0  0  0  0  0  0  0  0  0  0  0  0
  -12.1054   -9.7891    8.4616 C   0  0  0  0  0  0  0  0  0  0  0  0
  -11.8129   -9.6270    7.1588 N   0  0  0  0  0  0  0  0  0  0  0  0
  -11.5068  -10.8221    6.5139 C   0  0  0  0  0  0  0  0  0  0  0  0
  -11.4619  -12.1097    7.0517 C   0  0  0  0  0  0  0  0  0  0  0  0
  -11.7678  -12.2874    8.4471 C   0  0  0  0  0  0  0  0  0  0  0  0
  -11.7984  -13.2818    9.1311 O   0  0  0  0  0  0  0  0  0  0  0  0
  -11.1170  -13.0145    6.0311 N   0  0  0  0  0  0  0  0  0  0  0  0
  -10.9687  -12.2560    4.9116 C   0  0  0  0  0  0  0  0  0  0  0  0
  -11.2027  -10.9004    5.1816 N   0  0  0  0  0  0  0  0  0  0  0  0
  1  2  1  0  0  0  0
  1  6  1  0  0  0  0
  2  3  2  0  0  0  0
  3  4  1  0  0  0  0
  4  5  2  0  0  0  0
  4 10  1  0  0  0  0
  5  6  1  0  0  0  0
  5  8  1  0  0  0  0
  6  7  2  0  0  0  0
  8  9  1  0  0  0  0
  9 10  2  0  0  0  0
M  END
>  <CHROM.1>
-11.58809608,-11.54407756,7.23516129,2.64296292,-1.31153403,2.62727173

>  <Name>
ligand

>  <RI>
0

>  <Rbt.Current_Directory>
/home/itssahil/PROJECTS/Mol_Feturizer/New_Systems/rnas/2EES

>  <Rbt.Executable>
rbdock ($Id: //depot/dev/client3/rdock/2013.1/src/exe/rbdock.cxx#4 $)

>  <Rbt.Library>
libRbt.so (2013.1, Build901 2013/11/27)

>  <Rbt.Parameter_File>
/export/apps/rDock/src/rDock_2013.1_src/data/scripts/dock_solv.prm

>  <Rbt.Receptor>
prm/pocket_docking_8.prm

>  <SCORE>
-17.0145

>  <SCORE.INTER>
-17.0145

>  <SCORE.INTER.CONST>
1

>  <SCORE.INTER.POLAR>
0

>  <SCORE.INTER.ROT>
0

>  <SCORE.INTER.SOLV>
3.79998

>  <SCORE.INTER.VDW>
-16.2097

>  <SCORE.INTER.norm>
-1.70145

>  <SCORE.INTRA>
0

>  <SCORE.INTRA.DIHEDRAL>
0

>  <SCORE.INTRA.DIHEDRAL.0>
0

>  <SCORE.INTRA.POLAR>
0

>  <SCORE.INTRA.POLAR.0>
0

>  <SCORE.INTRA.REPUL>
0

>  <SCORE.INTRA.REPUL.0>
0

>  <SCORE.INTRA.SOLV>
0

>  <SCORE.INTRA.SOLV.lig_0>
-4.28614

>  <SCORE.INTRA.VDW>
0

>  <SCORE.INTRA.VDW.0>
0

>  <SCORE.INTRA.norm>
0

>  <SCORE.RESTR>
0

>  <SCORE.RESTR.CAVITY>
0

>  <SCORE.RESTR.norm>
0

>  <SCORE.SYSTEM>
0

>  <SCORE.SYSTEM.CONST>
0

>  <SCORE.SYSTEM.DIHEDRAL>
0

>  <SCORE.SYSTEM.SOLV>
0

>  <SCORE.SYSTEM.norm>
0

>  <SCORE.heavy>
10

>  <SCORE.norm>
-1.70145

>  <RMSD>
2.468

$$$$
ligand
 OpenBabel11021811423D
libRbt.so/2013.1/901 2013/11/27
 10 11  0  0  0  0  0  0  0  0999 V2000
  -12.0774  -11.0779    9.0537 N   0  0  0  0  0  0  0  0  0  0  0  0
  -12.0956   -9.8309    8.4259 C   0  0  0  0  0  0  0  0  0  0  0  0
  -11.8189   -9.6791    7.1184 N   0  0  0  0  0  0  0  0  0  0  0  0
  -11.5245  -10.8797    6.4784 C   0  0  0  0  0  0  0  0  0  0  0  0
  -11.4768  -12.1636    7.0247 C   0  0  0  0  0  0  0  0  0  0  0  0
  -11.7660  -12.3303    8.4251 C   0  0  0  0  0  0  0  0  0  0  0  0
  -11.7911  -13.3198    9.1165 O   0  0  0  0  0  0  0  0  0  0  0  0
  -11.1475  -13.0767    6.0065 N   0  0  0  0  0  0  0  0  0  0  0  0
  -11.0108  -12.3267    4.8798 C   0  0  0  0  0  0  0  0  0  0  0  0
  -11.2372  -10.9684    5.1429 N   0  0  0  0  0  0  0  0  0  0  0  0
  1  2  1  0  0  0  0
  1  6  1  0  0  0  0
  2  3  2  0  0  0  0
  3  4  1  0  0  0  0
  4  5  2  0  0  0  0
  4 10  1  0  0  0  0
  5  6  1  0  0  0  0
  5  8  1  0  0  0  0
  6  7  2  0  0  0  0
  8  9  1  0  0  0  0
  9 10  2  0  0  0  0
M  END
>  <CHROM.1>
-11.59903521,-11.59625401,7.20572017,2.62884661,-1.32384043,2.60645657

>  <Name>
ligand

>  <RI>
0

>  <Rbt.Current_Directory>
/home/itssahil/PROJECTS/Mol_Feturizer/New_Systems/rnas/2EES

>  <Rbt.Executable>
rbdock ($Id: //depot/dev/client3/rdock/2013.1/src/exe/rbdock.cxx#4 $)

>  <Rbt.Library>
libRbt.so (2013.1, Build901 2013/11/27)

>  <Rbt.Parameter_File>
/export/apps/rDock/src/rDock_2013.1_src/data/scripts/dock_solv.prm

>  <Rbt.Receptor>
prm/blind_docking_100.prm

>  <SCORE>
-16.9895

>  <SCORE.INTER>
-16.9895

>  <SCORE.INTER.CONST>
1

>  <SCORE.INTER.POLAR>
0

>  <SCORE.INTER.ROT>
0

>  <SCORE.INTER.SOLV>
3.82299

>  <SCORE.INTER.VDW>
-16.2006

>  <SCORE.INTER.norm>
-1.69895

>  <SCORE.INTRA>
0

>  <SCORE.INTRA.DIHEDRAL>
0

>  <SCORE.INTRA.DIHEDRAL.0>
0

>  <SCORE.INTRA.POLAR>
0

>  <SCORE.INTRA.POLAR.0>
0

>  <SCORE.INTRA.REPUL>
0

>  <SCORE.INTRA.REPUL.0>
0

>  <SCORE.INTRA.SOLV>
0

>  <SCORE.INTRA.SOLV.lig_0>
-4.28614

>  <SCORE.INTRA.VDW>
0

>  <SCORE.INTRA.VDW.0>
0

>  <SCORE.INTRA.norm>
0

>  <SCORE.RESTR>
0

>  <SCORE.RESTR.CAVITY>
0

>  <SCORE.RESTR.norm>
0

>  <SCORE.SYSTEM>
0

>  <SCORE.SYSTEM.CONST>
0

>  <SCORE.SYSTEM.DIHEDRAL>
0

>  <SCORE.SYSTEM.SOLV>
0

>  <SCORE.SYSTEM.norm>
0

>  <SCORE.heavy>
10

>  <SCORE.norm>
-1.69895

>  <RMSD>
2.469

$$$$
ligand
 OpenBabel11021811423D
libRbt.so/2013.1/901 2013/11/27
 10 11  0  0  0  0  0  0  0  0999 V2000
  -12.0874  -11.0466    9.0688 N   0  0  0  0  0  0  0  0  0  0  0  0
  -12.1133   -9.7979    8.4446 C   0  0  0  0  0  0  0  0  0  0  0  0
  -11.8181   -9.6378    7.1422 N   0  0  0  0  0  0  0  0  0  0  0  0
  -11.4967  -10.8320    6.5032 C   0  0  0  0  0  0  0  0  0  0  0  0
  -11.4397  -12.1169    7.0462 C   0  0  0  0  0  0  0  0  0  0  0  0
  -11.7485  -12.2924    8.4413 C   0  0  0  0  0  0  0  0  0  0  0  0
  -11.7706  -13.2844    9.1291 O   0  0  0  0  0  0  0  0  0  0  0  0
  -11.0814  -13.0219    6.0304 N   0  0  0  0  0  0  0  0  0  0  0  0
  -10.9375  -12.2663    4.9084 C   0  0  0  0  0  0  0  0  0  0  0  0
  -11.1871  -10.9122    5.1722 N   0  0  0  0  0  0  0  0  0  0  0  0
  1  2  1  0  0  0  0
  1  6  1  0  0  0  0
  2  3  2  0  0  0  0
  3  4  1  0  0  0  0
  4  5  2  0  0  0  0
  4 10  1  0  0  0  0
  5  6  1  0  0  0  0
  5  8  1  0  0  0  0
  6  7  2  0  0  0  0
  8  9  1  0  0  0  0
  9 10  2  0  0  0  0
M  END
>  <CHROM.1>
-11.57267096,-11.55198802,7.22697163,2.61362104,-1.30303917,2.59497179

>  <Name>
ligand

>  <RI>
0

>  <Rbt.Current_Directory>
/home/itssahil/PROJECTS/Mol_Feturizer/New_Systems/rnas/2EES

>  <Rbt.Executable>
rbdock ($Id: //depot/dev/client3/rdock/2013.1/src/exe/rbdock.cxx#4 $)

>  <Rbt.Library>
libRbt.so (2013.1, Build901 2013/11/27)

>  <Rbt.Parameter_File>
/export/apps/rDock/src/rDock_2013.1_src/data/scripts/dock_solv.prm

>  <Rbt.Receptor>
prm/blind_docking_40.prm

>  <SCORE>
-17.0191

>  <SCORE.INTER>
-17.0191

>  <SCORE.INTER.CONST>
1

>  <SCORE.INTER.POLAR>
0

>  <SCORE.INTER.ROT>
0

>  <SCORE.INTER.SOLV>
3.78155

>  <SCORE.INTER.VDW>
-16.2066

>  <SCORE.INTER.norm>
-1.70191

>  <SCORE.INTRA>
0

>  <SCORE.INTRA.DIHEDRAL>
0

>  <SCORE.INTRA.DIHEDRAL.0>
0

>  <SCORE.INTRA.POLAR>
0

>  <SCORE.INTRA.POLAR.0>
0

>  <SCORE.INTRA.REPUL>
0

>  <SCORE.INTRA.REPUL.0>
0

>  <SCORE.INTRA.SOLV>
0

>  <SCORE.INTRA.SOLV.lig_0>
-4.28614

>  <SCORE.INTRA.VDW>
0

>  <SCORE.INTRA.VDW.0>
0

>  <SCORE.INTRA.norm>
0

>  <SCORE.RESTR>
0

>  <SCORE.RESTR.CAVITY>
0

>  <SCORE.RESTR.norm>
0

>  <SCORE.SYSTEM>
0

>  <SCORE.SYSTEM.CONST>
0

>  <SCORE.SYSTEM.DIHEDRAL>
0

>  <SCORE.SYSTEM.SOLV>
0

>  <SCORE.SYSTEM.norm>
0

>  <SCORE.heavy>
10

>  <SCORE.norm>
-1.70191

>  <RMSD>
2.469

$$$$
ligand
 OpenBabel11021811423D
libRbt.so/2013.1/901 2013/11/27
 10 11  0  0  0  0  0  0  0  0999 V2000
  -12.0719  -11.0768    9.0815 N   0  0  0  0  0  0  0  0  0  0  0  0
  -12.1124   -9.8229    8.4686 C   0  0  0  0  0  0  0  0  0  0  0  0
  -11.8290   -9.6492    7.1653 N   0  0  0  0  0  0  0  0  0  0  0  0
  -11.5039  -10.8353    6.5131 C   0  0  0  0  0  0  0  0  0  0  0  0
  -11.4327  -12.1244    7.0443 C   0  0  0  0  0  0  0  0  0  0  0  0
  -11.7288  -12.3144    8.4403 C   0  0  0  0  0  0  0  0  0  0  0  0
  -11.7378  -13.3126    9.1194 O   0  0  0  0  0  0  0  0  0  0  0  0
  -11.0759  -13.0177    6.0178 N   0  0  0  0  0  0  0  0  0  0  0  0
  -10.9468  -12.2512    4.9013 C   0  0  0  0  0  0  0  0  0  0  0  0
  -11.2046  -10.9014    5.1790 N   0  0  0  0  0  0  0  0  0  0  0  0
  1  2  1  0  0  0  0
  1  6  1  0  0  0  0
  2  3  2  0  0  0  0
  3  4  1  0  0  0  0
  4  5  2  0  0  0  0
  4 10  1  0  0  0  0
  5  6  1  0  0  0  0
  5  8  1  0  0  0  0
  6  7  2  0  0  0  0
  8  9  1  0  0  0  0
  9 10  2  0  0  0  0
M  END
>  <CHROM.1>
-11.56846198,-11.56207130,7.23116004,2.57266034,-1.30586660,2.56424884

>  <Name>
ligand

>  <RI>
0

>  <Rbt.Current_Directory>
/home/itssahil/PROJECTS/Mol_Feturizer/New_Systems/rnas/2EES

>  <Rbt.Executable>
rbdock ($Id: //depot/dev/client3/rdock/2013.1/src/exe/rbdock.cxx#4 $)

>  <Rbt.Library>
libRbt.so (2013.1, Build901 2013/11/27)

>  <Rbt.Parameter_File>
/export/apps/rDock/src/rDock_2013.1_src/data/scripts/dock_solv.prm

>  <Rbt.Receptor>
prm/pocket_docking_5.prm

>  <SCORE>
-17.0298

>  <SCORE.INTER>
-17.0298

>  <SCORE.INTER.CONST>
1

>  <SCORE.INTER.POLAR>
0

>  <SCORE.INTER.ROT>
0

>  <SCORE.INTER.SOLV>
3.8091

>  <SCORE.INTER.VDW>
-16.2229

>  <SCORE.INTER.norm>
-1.70298

>  <SCORE.INTRA>
0

>  <SCORE.INTRA.DIHEDRAL>
0

>  <SCORE.INTRA.DIHEDRAL.0>
0

>  <SCORE.INTRA.POLAR>
0

>  <SCORE.INTRA.POLAR.0>
0

>  <SCORE.INTRA.REPUL>
0

>  <SCORE.INTRA.REPUL.0>
0

>  <SCORE.INTRA.SOLV>
0

>  <SCORE.INTRA.SOLV.lig_0>
-4.28614

>  <SCORE.INTRA.VDW>
0

>  <SCORE.INTRA.VDW.0>
0

>  <SCORE.INTRA.norm>
0

>  <SCORE.RESTR>
0

>  <SCORE.RESTR.CAVITY>
0

>  <SCORE.RESTR.norm>
0

>  <SCORE.SYSTEM>
0

>  <SCORE.SYSTEM.CONST>
0

>  <SCORE.SYSTEM.DIHEDRAL>
0

>  <SCORE.SYSTEM.SOLV>
0

>  <SCORE.SYSTEM.norm>
0

>  <SCORE.heavy>
10

>  <SCORE.norm>
-1.70298

>  <RMSD>
2.469

$$$$
ligand
 OpenBabel11021811423D
libRbt.so/2013.1/901 2013/11/27
 10 11  0  0  0  0  0  0  0  0999 V2000
  -12.0705  -11.0731    9.0830 N   0  0  0  0  0  0  0  0  0  0  0  0
  -12.1107   -9.8196    8.4692 C   0  0  0  0  0  0  0  0  0  0  0  0
  -11.8278   -9.6469    7.1657 N   0  0  0  0  0  0  0  0  0  0  0  0
  -11.5033  -10.8336    6.5143 C   0  0  0  0  0  0  0  0  0  0  0  0
  -11.4324  -12.1223    7.0464 C   0  0  0  0  0  0  0  0  0  0  0  0
  -11.7281  -12.3113    8.4426 C   0  0  0  0  0  0  0  0  0  0  0  0
  -11.7372  -13.3089    9.1224 O   0  0  0  0  0  0  0  0  0  0  0  0
  -11.0764  -13.0165    6.0203 N   0  0  0  0  0  0  0  0  0  0  0  0
  -10.9475  -12.2509    4.9033 C   0  0  0  0  0  0  0  0  0  0  0  0
  -11.2046  -10.9008    5.1801 N   0  0  0  0  0  0  0  0  0  0  0  0
  1  2  1  0  0  0  0
  1  6  1  0  0  0  0
  2  3  2  0  0  0  0
  3  4  1  0  0  0  0
  4  5  2  0  0  0  0
  4 10  1  0  0  0  0
  5  6  1  0  0  0  0
  5  8  1  0  0  0  0
  6  7  2  0  0  0  0
  8  9  1  0  0  0  0
  9 10  2  0  0  0  0
M  END
>  <CHROM.1>
-11.56792914,-11.55985496,7.23284673,2.57308848,-1.30640720,2.56395009

>  <Name>
ligand

>  <RI>
0

>  <Rbt.Current_Directory>
/home/itssahil/PROJECTS/Mol_Feturizer/New_Systems/rnas/2EES

>  <Rbt.Executable>
rbdock ($Id: //depot/dev/client3/rdock/2013.1/src/exe/rbdock.cxx#4 $)

>  <Rbt.Library>
libRbt.so (2013.1, Build901 2013/11/27)

>  <Rbt.Parameter_File>
/export/apps/rDock/src/rDock_2013.1_src/data/scripts/dock_solv.prm

>  <Rbt.Receptor>
prm/pocket_docking_7.prm

>  <SCORE>
-17.0276

>  <SCORE.INTER>
-17.0276

>  <SCORE.INTER.CONST>
1

>  <SCORE.INTER.POLAR>
0

>  <SCORE.INTER.ROT>
0

>  <SCORE.INTER.SOLV>
3.80835

>  <SCORE.INTER.VDW>
-16.2212

>  <SCORE.INTER.norm>
-1.70276

>  <SCORE.INTRA>
0

>  <SCORE.INTRA.DIHEDRAL>
0

>  <SCORE.INTRA.DIHEDRAL.0>
0

>  <SCORE.INTRA.POLAR>
0

>  <SCORE.INTRA.POLAR.0>
0

>  <SCORE.INTRA.REPUL>
0

>  <SCORE.INTRA.REPUL.0>
0

>  <SCORE.INTRA.SOLV>
0

>  <SCORE.INTRA.SOLV.lig_0>
-4.28614

>  <SCORE.INTRA.VDW>
0

>  <SCORE.INTRA.VDW.0>
0

>  <SCORE.INTRA.norm>
0

>  <SCORE.RESTR>
0

>  <SCORE.RESTR.CAVITY>
0

>  <SCORE.RESTR.norm>
0

>  <SCORE.SYSTEM>
0

>  <SCORE.SYSTEM.CONST>
0

>  <SCORE.SYSTEM.DIHEDRAL>
0

>  <SCORE.SYSTEM.SOLV>
0

>  <SCORE.SYSTEM.norm>
0

>  <SCORE.heavy>
10

>  <SCORE.norm>
-1.70276

>  <RMSD>
2.469

$$$$
ligand
 OpenBabel11021811423D
libRbt.so/2013.1/901 2013/11/27
 10 11  0  0  0  0  0  0  0  0999 V2000
  -12.0947  -11.0735    9.0503 N   0  0  0  0  0  0  0  0  0  0  0  0
  -12.1064   -9.8240    8.4274 C   0  0  0  0  0  0  0  0  0  0  0  0
  -11.8114   -9.6663    7.1246 N   0  0  0  0  0  0  0  0  0  0  0  0
  -11.5057  -10.8637    6.4839 C   0  0  0  0  0  0  0  0  0  0  0  0
  -11.4634  -12.1497    7.0256 C   0  0  0  0  0  0  0  0  0  0  0  0
  -11.7721  -12.3228    8.4211 C   0  0  0  0  0  0  0  0  0  0  0  0
  -11.8052  -13.3151    9.1079 O   0  0  0  0  0  0  0  0  0  0  0  0
  -11.1179  -13.0580    6.0084 N   0  0  0  0  0  0  0  0  0  0  0  0
  -10.9666  -12.3031    4.8869 C   0  0  0  0  0  0  0  0  0  0  0  0
  -11.1993  -10.9463    5.1523 N   0  0  0  0  0  0  0  0  0  0  0  0
  1  2  1  0  0  0  0
  1  6  1  0  0  0  0
  2  3  2  0  0  0  0
  3  4  1  0  0  0  0
  4  5  2  0  0  0  0
  4 10  1  0  0  0  0
  5  6  1  0  0  0  0
  5  8  1  0  0  0  0
  6  7  2  0  0  0  0
  8  9  1  0  0  0  0
  9 10  2  0  0  0  0
M  END
>  <CHROM.1>
-11.58925173,-11.58334189,7.20715697,2.65078766,-1.31060788,2.63181267

>  <Name>
ligand

>  <RI>
0

>  <Rbt.Current_Directory>
/home/itssahil/PROJECTS/Mol_Feturizer/New_Systems/rnas/2EES

>  <Rbt.Executable>
rbdock ($Id: //depot/dev/client3/rdock/2013.1/src/exe/rbdock.cxx#4 $)

>  <Rbt.Library>
libRbt.so (2013.1, Build901 2013/11/27)

>  <Rbt.Parameter_File>
/export/apps/rDock/src/rDock_2013.1_src/data/scripts/dock_solv.prm

>  <Rbt.Receptor>
prm/pocket_docking_8.prm

>  <SCORE>
-16.9734

>  <SCORE.INTER>
-16.9734

>  <SCORE.INTER.CONST>
1

>  <SCORE.INTER.POLAR>
0

>  <SCORE.INTER.ROT>
0

>  <SCORE.INTER.SOLV>
3.80427

>  <SCORE.INTER.VDW>
-16.1837

>  <SCORE.INTER.norm>
-1.69734

>  <SCORE.INTRA>
0

>  <SCORE.INTRA.DIHEDRAL>
0

>  <SCORE.INTRA.DIHEDRAL.0>
0

>  <SCORE.INTRA.POLAR>
0

>  <SCORE.INTRA.POLAR.0>
0

>  <SCORE.INTRA.REPUL>
0

>  <SCORE.INTRA.REPUL.0>
0

>  <SCORE.INTRA.SOLV>
0

>  <SCORE.INTRA.SOLV.lig_0>
-4.28614

>  <SCORE.INTRA.VDW>
0

>  <SCORE.INTRA.VDW.0>
0

>  <SCORE.INTRA.norm>
0

>  <SCORE.RESTR>
0

>  <SCORE.RESTR.CAVITY>
0

>  <SCORE.RESTR.norm>
0

>  <SCORE.SYSTEM>
0

>  <SCORE.SYSTEM.CONST>
0

>  <SCORE.SYSTEM.DIHEDRAL>
0

>  <SCORE.SYSTEM.SOLV>
0

>  <SCORE.SYSTEM.norm>
0

>  <SCORE.heavy>
10

>  <SCORE.norm>
-1.69734

>  <RMSD>
2.469

$$$$
ligand
 OpenBabel11021811423D
libRbt.so/2013.1/901 2013/11/27
 10 11  0  0  0  0  0  0  0  0999 V2000
  -12.0752  -11.0580    9.0447 N   0  0  0  0  0  0  0  0  0  0  0  0
  -12.1022   -9.8168    8.4056 C   0  0  0  0  0  0  0  0  0  0  0  0
  -11.8234   -9.6744    7.0976 N   0  0  0  0  0  0  0  0  0  0  0  0
  -11.5172  -10.8781    6.4691 C   0  0  0  0  0  0  0  0  0  0  0  0
  -11.4603  -12.1566    7.0270 C   0  0  0  0  0  0  0  0  0  0  0  0
  -11.7517  -12.3133    8.4281 C   0  0  0  0  0  0  0  0  0  0  0  0
  -11.7704  -13.2967    9.1282 O   0  0  0  0  0  0  0  0  0  0  0  0
  -11.1207  -13.0760    6.0178 N   0  0  0  0  0  0  0  0  0  0  0  0
  -10.9873  -12.3349    4.8848 C   0  0  0  0  0  0  0  0  0  0  0  0
  -11.2258  -10.9763    5.1352 N   0  0  0  0  0  0  0  0  0  0  0  0
  1  2  1  0  0  0  0
  1  6  1  0  0  0  0
  2  3  2  0  0  0  0
  3  4  1  0  0  0  0
  4  5  2  0  0  0  0
  4 10  1  0  0  0  0
  5  6  1  0  0  0  0
  5  8  1  0  0  0  0
  6  7  2  0  0  0  0
  8  9  1  0  0  0  0
  9 10  2  0  0  0  0
M  END
>  <CHROM.1>
-11.58773263,-11.58874598,7.20257882,2.60554640,-1.31726290,2.57494979

>  <Name>
ligand

>  <RI>
0

>  <Rbt.Current_Directory>
/home/itssahil/PROJECTS/Mol_Feturizer/New_Systems/rnas/2EES

>  <Rbt.Executable>
rbdock ($Id: //depot/dev/client3/rdock/2013.1/src/exe/rbdock.cxx#4 $)

>  <Rbt.Library>
libRbt.so (2013.1, Build901 2013/11/27)

>  <Rbt.Parameter_File>
/export/apps/rDock/src/rDock_2013.1_src/data/scripts/dock_solv.prm

>  <Rbt.Receptor>
prm/blind_docking_100.prm

>  <SCORE>
-17.0008

>  <SCORE.INTER>
-17.0008

>  <SCORE.INTER.CONST>
1

>  <SCORE.INTER.POLAR>
0

>  <SCORE.INTER.ROT>
0

>  <SCORE.INTER.SOLV>
3.78693

>  <SCORE.INTER.VDW>
-16.1962

>  <SCORE.INTER.norm>
-1.70008

>  <SCORE.INTRA>
0

>  <SCORE.INTRA.DIHEDRAL>
0

>  <SCORE.INTRA.DIHEDRAL.0>
0

>  <SCORE.INTRA.POLAR>
0

>  <SCORE.INTRA.POLAR.0>
0

>  <SCORE.INTRA.REPUL>
0

>  <SCORE.INTRA.REPUL.0>
0

>  <SCORE.INTRA.SOLV>
0

>  <SCORE.INTRA.SOLV.lig_0>
-4.28614

>  <SCORE.INTRA.VDW>
0

>  <SCORE.INTRA.VDW.0>
0

>  <SCORE.INTRA.norm>
0

>  <SCORE.RESTR>
0

>  <SCORE.RESTR.CAVITY>
0

>  <SCORE.RESTR.norm>
0

>  <SCORE.SYSTEM>
0

>  <SCORE.SYSTEM.CONST>
0

>  <SCORE.SYSTEM.DIHEDRAL>
0

>  <SCORE.SYSTEM.SOLV>
0

>  <SCORE.SYSTEM.norm>
0

>  <SCORE.heavy>
10

>  <SCORE.norm>
-1.70008

>  <RMSD>
2.470

$$$$
ligand
 OpenBabel11021811423D
libRbt.so/2013.1/901 2013/11/27
 10 11  0  0  0  0  0  0  0  0999 V2000
  -12.0846  -11.0788    9.0545 N   0  0  0  0  0  0  0  0  0  0  0  0
  -12.1163   -9.8305    8.4298 C   0  0  0  0  0  0  0  0  0  0  0  0
  -11.8306   -9.6709    7.1252 N   0  0  0  0  0  0  0  0  0  0  0  0
  -11.5126  -10.8651    6.4845 C   0  0  0  0  0  0  0  0  0  0  0  0
  -11.4503  -12.1496    7.0279 C   0  0  0  0  0  0  0  0  0  0  0  0
  -11.7490  -12.3247    8.4252 C   0  0  0  0  0  0  0  0  0  0  0  0
  -11.7651  -13.3163    9.1137 O   0  0  0  0  0  0  0  0  0  0  0  0
  -11.0985  -13.0548    6.0101 N   0  0  0  0  0  0  0  0  0  0  0  0
  -10.9634  -12.2997    4.8866 C   0  0  0  0  0  0  0  0  0  0  0  0
  -11.2126  -10.9457    5.1514 N   0  0  0  0  0  0  0  0  0  0  0  0
  1  2  1  0  0  0  0
  1  6  1  0  0  0  0
  2  3  2  0  0  0  0
  3  4  1  0  0  0  0
  4  5  2  0  0  0  0
  4 10  1  0  0  0  0
  5  6  1  0  0  0  0
  5  8  1  0  0  0  0
  6  7  2  0  0  0  0
  8  9  1  0  0  0  0
  9 10  2  0  0  0  0
M  END
>  <CHROM.1>
-11.58261917,-11.58472514,7.20927613,2.59575695,-1.30860230,2.57717126

>  <Name>
ligand

>  <RI>
0

>  <Rbt.Current_Directory>
/home/itssahil/PROJECTS/Mol_Feturizer/New_Systems/rnas/2EES

>  <Rbt.Executable>
rbdock ($Id: //depot/dev/client3/rdock/2013.1/src/exe/rbdock.cxx#4 $)

>  <Rbt.Library>
libRbt.so (2013.1, Build901 2013/11/27)

>  <Rbt.Parameter_File>
/export/apps/rDock/src/rDock_2013.1_src/data/scripts/dock_solv.prm

>  <Rbt.Receptor>
prm/blind_docking_60.prm

>  <SCORE>
-16.981

>  <SCORE.INTER>
-16.981

>  <SCORE.INTER.CONST>
1

>  <SCORE.INTER.POLAR>
0

>  <SCORE.INTER.ROT>
0

>  <SCORE.INTER.SOLV>
3.79707

>  <SCORE.INTER.VDW>
-16.1864

>  <SCORE.INTER.norm>
-1.6981

>  <SCORE.INTRA>
0

>  <SCORE.INTRA.DIHEDRAL>
0

>  <SCORE.INTRA.DIHEDRAL.0>
0

>  <SCORE.INTRA.POLAR>
0

>  <SCORE.INTRA.POLAR.0>
0

>  <SCORE.INTRA.REPUL>
0

>  <SCORE.INTRA.REPUL.0>
0

>  <SCORE.INTRA.SOLV>
0

>  <SCORE.INTRA.SOLV.lig_0>
-4.28614

>  <SCORE.INTRA.VDW>
0

>  <SCORE.INTRA.VDW.0>
0

>  <SCORE.INTRA.norm>
0

>  <SCORE.RESTR>
0

>  <SCORE.RESTR.CAVITY>
0

>  <SCORE.RESTR.norm>
0

>  <SCORE.SYSTEM>
0

>  <SCORE.SYSTEM.CONST>
0

>  <SCORE.SYSTEM.DIHEDRAL>
0

>  <SCORE.SYSTEM.SOLV>
0

>  <SCORE.SYSTEM.norm>
0

>  <SCORE.heavy>
10

>  <SCORE.norm>
-1.6981

>  <RMSD>
2.470

$$$$
ligand
 OpenBabel11021811423D
libRbt.so/2013.1/901 2013/11/27
 10 11  0  0  0  0  0  0  0  0999 V2000
  -12.0895  -11.0666    9.0318 N   0  0  0  0  0  0  0  0  0  0  0  0
  -12.0988   -9.8180    8.4069 C   0  0  0  0  0  0  0  0  0  0  0  0
  -11.8063   -9.6633    7.1032 N   0  0  0  0  0  0  0  0  0  0  0  0
  -11.5057  -10.8627    6.4638 C   0  0  0  0  0  0  0  0  0  0  0  0
  -11.4662  -12.1480    7.0075 C   0  0  0  0  0  0  0  0  0  0  0  0
  -11.7722  -12.3178    8.4039 C   0  0  0  0  0  0  0  0  0  0  0  0
  -11.8068  -13.3089    9.0925 O   0  0  0  0  0  0  0  0  0  0  0  0
  -11.1258  -13.0590    5.9910 N   0  0  0  0  0  0  0  0  0  0  0  0
  -10.9748  -12.3064    4.8679 C   0  0  0  0  0  0  0  0  0  0  0  0
  -11.2027  -10.9485    5.1316 N   0  0  0  0  0  0  0  0  0  0  0  0
  1  2  1  0  0  0  0
  1  6  1  0  0  0  0
  2  3  2  0  0  0  0
  3  4  1  0  0  0  0
  4  5  2  0  0  0  0
  4 10  1  0  0  0  0
  5  6  1  0  0  0  0
  5  8  1  0  0  0  0
  6  7  2  0  0  0  0
  8  9  1  0  0  0  0
  9 10  2  0  0  0  0
M  END
>  <CHROM.1>
-11.58984213,-11.58095777,7.18838121,2.65694683,-1.31410589,2.63612733

>  <Name>
ligand

>  <RI>
0

>  <Rbt.Current_Directory>
/home/itssahil/PROJECTS/Mol_Feturizer/New_Systems/rnas/2EES

>  <Rbt.Executable>
rbdock ($Id: //depot/dev/client3/rdock/2013.1/src/exe/rbdock.cxx#4 $)

>  <Rbt.Library>
libRbt.so (2013.1, Build901 2013/11/27)

>  <Rbt.Parameter_File>
/export/apps/rDock/src/rDock_2013.1_src/data/scripts/dock_solv.prm

>  <Rbt.Receptor>
prm/blind_docking_100.prm

>  <SCORE>
-16.9745

>  <SCORE.INTER>
-16.9745

>  <SCORE.INTER.CONST>
1

>  <SCORE.INTER.POLAR>
0

>  <SCORE.INTER.ROT>
0

>  <SCORE.INTER.SOLV>
3.80351

>  <SCORE.INTER.VDW>
-16.1842

>  <SCORE.INTER.norm>
-1.69745

>  <SCORE.INTRA>
0

>  <SCORE.INTRA.DIHEDRAL>
0

>  <SCORE.INTRA.DIHEDRAL.0>
0

>  <SCORE.INTRA.POLAR>
0

>  <SCORE.INTRA.POLAR.0>
0

>  <SCORE.INTRA.REPUL>
0

>  <SCORE.INTRA.REPUL.0>
0

>  <SCORE.INTRA.SOLV>
0

>  <SCORE.INTRA.SOLV.lig_0>
-4.28614

>  <SCORE.INTRA.VDW>
0

>  <SCORE.INTRA.VDW.0>
0

>  <SCORE.INTRA.norm>
0

>  <SCORE.RESTR>
0

>  <SCORE.RESTR.CAVITY>
0

>  <SCORE.RESTR.norm>
0

>  <SCORE.SYSTEM>
0

>  <SCORE.SYSTEM.CONST>
0

>  <SCORE.SYSTEM.DIHEDRAL>
0

>  <SCORE.SYSTEM.SOLV>
0

>  <SCORE.SYSTEM.norm>
0

>  <SCORE.heavy>
10

>  <SCORE.norm>
-1.69745

>  <RMSD>
2.472

$$$$
ligand
 OpenBabel11021811423D
libRbt.so/2013.1/901 2013/11/27
 10 11  0  0  0  0  0  0  0  0999 V2000
  -12.0758  -11.1632    9.0488 N   0  0  0  0  0  0  0  0  0  0  0  0
  -12.1032   -9.8989    8.4571 C   0  0  0  0  0  0  0  0  0  0  0  0
  -11.8163   -9.7060    7.1572 N   0  0  0  0  0  0  0  0  0  0  0  0
  -11.5018  -10.8841    6.4856 C   0  0  0  0  0  0  0  0  0  0  0  0
  -11.4438  -12.1826    6.9951 C   0  0  0  0  0  0  0  0  0  0  0  0
  -11.7438  -12.3932    8.3873 C   0  0  0  0  0  0  0  0  0  0  0  0
  -11.7634  -13.4025    9.0496 O   0  0  0  0  0  0  0  0  0  0  0  0
  -11.0943  -13.0619    5.9542 N   0  0  0  0  0  0  0  0  0  0  0  0
  -10.9562  -12.2780    4.8509 C   0  0  0  0  0  0  0  0  0  0  0  0
  -11.2013  -10.9307    5.1510 N   0  0  0  0  0  0  0  0  0  0  0  0
  1  2  1  0  0  0  0
  1  6  1  0  0  0  0
  2  3  2  0  0  0  0
  3  4  1  0  0  0  0
  4  5  2  0  0  0  0
  4 10  1  0  0  0  0
  5  6  1  0  0  0  0
  5  8  1  0  0  0  0
  6  7  2  0  0  0  0
  8  9  1  0  0  0  0
  9 10  2  0  0  0  0
M  END
>  <CHROM.1>
-11.57443784,-11.62219285,7.19124831,2.60721605,-1.30983474,2.61443781

>  <Name>
ligand

>  <RI>
0

>  <Rbt.Current_Directory>
/home/itssahil/PROJECTS/Mol_Feturizer/New_Systems/rnas/2EES

>  <Rbt.Executable>
rbdock ($Id: //depot/dev/client3/rdock/2013.1/src/exe/rbdock.cxx#4 $)

>  <Rbt.Library>
libRbt.so (2013.1, Build901 2013/11/27)

>  <Rbt.Parameter_File>
/export/apps/rDock/src/rDock_2013.1_src/data/scripts/dock_solv.prm

>  <Rbt.Receptor>
prm/blind_docking_40.prm

>  <SCORE>
-16.9781

>  <SCORE.INTER>
-16.9781

>  <SCORE.INTER.CONST>
1

>  <SCORE.INTER.POLAR>
0

>  <SCORE.INTER.ROT>
0

>  <SCORE.INTER.SOLV>
3.87013

>  <SCORE.INTER.VDW>
-16.2088

>  <SCORE.INTER.norm>
-1.69781

>  <SCORE.INTRA>
0

>  <SCORE.INTRA.DIHEDRAL>
0

>  <SCORE.INTRA.DIHEDRAL.0>
0

>  <SCORE.INTRA.POLAR>
0

>  <SCORE.INTRA.POLAR.0>
0

>  <SCORE.INTRA.REPUL>
0

>  <SCORE.INTRA.REPUL.0>
0

>  <SCORE.INTRA.SOLV>
0

>  <SCORE.INTRA.SOLV.lig_0>
-4.28614

>  <SCORE.INTRA.VDW>
0

>  <SCORE.INTRA.VDW.0>
0

>  <SCORE.INTRA.norm>
0

>  <SCORE.RESTR>
0

>  <SCORE.RESTR.CAVITY>
0

>  <SCORE.RESTR.norm>
0

>  <SCORE.SYSTEM>
0

>  <SCORE.SYSTEM.CONST>
0

>  <SCORE.SYSTEM.DIHEDRAL>
0

>  <SCORE.SYSTEM.SOLV>
0

>  <SCORE.SYSTEM.norm>
0

>  <SCORE.heavy>
10

>  <SCORE.norm>
-1.69781

>  <RMSD>
2.472

$$$$
ligand
 OpenBabel11021811423D
libRbt.so/2013.1/901 2013/11/27
 10 11  0  0  0  0  0  0  0  0999 V2000
  -12.0798  -11.1580    9.0507 N   0  0  0  0  0  0  0  0  0  0  0  0
  -12.1017   -9.8928    8.4606 C   0  0  0  0  0  0  0  0  0  0  0  0
  -11.8118   -9.6993    7.1615 N   0  0  0  0  0  0  0  0  0  0  0  0
  -11.5003  -10.8776    6.4889 C   0  0  0  0  0  0  0  0  0  0  0  0
  -11.4479  -12.1769    6.9968 C   0  0  0  0  0  0  0  0  0  0  0  0
  -11.7510  -12.3883    8.3882 C   0  0  0  0  0  0  0  0  0  0  0  0
  -11.7755  -13.3984    9.0491 O   0  0  0  0  0  0  0  0  0  0  0  0
  -11.0997  -13.0562    5.9553 N   0  0  0  0  0  0  0  0  0  0  0  0
  -10.9568  -12.2714    4.8534 C   0  0  0  0  0  0  0  0  0  0  0  0
  -11.1976  -10.9235    5.1547 N   0  0  0  0  0  0  0  0  0  0  0  0
  1  2  1  0  0  0  0
  1  6  1  0  0  0  0
  2  3  2  0  0  0  0
  3  4  1  0  0  0  0
  4  5  2  0  0  0  0
  4 10  1  0  0  0  0
  5  6  1  0  0  0  0
  5  8  1  0  0  0  0
  6  7  2  0  0  0  0
  8  9  1  0  0  0  0
  9 10  2  0  0  0  0
M  END
>  <CHROM.1>
-11.57683215,-11.61637098,7.19342064,2.62266777,-1.31007021,2.63067677

>  <Name>
ligand

>  <RI>
0

>  <Rbt.Current_Directory>
/home/itssahil/PROJECTS/Mol_Feturizer/New_Systems/rnas/2EES

>  <Rbt.Executable>
rbdock ($Id: //depot/dev/client3/rdock/2013.1/src/exe/rbdock.cxx#4 $)

>  <Rbt.Library>
libRbt.so (2013.1, Build901 2013/11/27)

>  <Rbt.Parameter_File>
/export/apps/rDock/src/rDock_2013.1_src/data/scripts/dock_solv.prm

>  <Rbt.Receptor>
prm/pocket_docking_5.prm

>  <SCORE>
-16.9734

>  <SCORE.INTER>
-16.9734

>  <SCORE.INTER.CONST>
1

>  <SCORE.INTER.POLAR>
0

>  <SCORE.INTER.ROT>
0

>  <SCORE.INTER.SOLV>
3.87226

>  <SCORE.INTER.VDW>
-16.2064

>  <SCORE.INTER.norm>
-1.69734

>  <SCORE.INTRA>
0

>  <SCORE.INTRA.DIHEDRAL>
0

>  <SCORE.INTRA.DIHEDRAL.0>
0

>  <SCORE.INTRA.POLAR>
0

>  <SCORE.INTRA.POLAR.0>
0

>  <SCORE.INTRA.REPUL>
0

>  <SCORE.INTRA.REPUL.0>
0

>  <SCORE.INTRA.SOLV>
0

>  <SCORE.INTRA.SOLV.lig_0>
-4.28614

>  <SCORE.INTRA.VDW>
0

>  <SCORE.INTRA.VDW.0>
0

>  <SCORE.INTRA.norm>
0

>  <SCORE.RESTR>
0

>  <SCORE.RESTR.CAVITY>
0

>  <SCORE.RESTR.norm>
0

>  <SCORE.SYSTEM>
0

>  <SCORE.SYSTEM.CONST>
0

>  <SCORE.SYSTEM.DIHEDRAL>
0

>  <SCORE.SYSTEM.SOLV>
0

>  <SCORE.SYSTEM.norm>
0

>  <SCORE.heavy>
10

>  <SCORE.norm>
-1.69734

>  <RMSD>
2.472

$$$$
ligand
 OpenBabel11021811423D
libRbt.so/2013.1/901 2013/11/27
 10 11  0  0  0  0  0  0  0  0999 V2000
  -12.0771  -11.0619    9.0222 N   0  0  0  0  0  0  0  0  0  0  0  0
  -12.0782   -9.8180    8.3879 C   0  0  0  0  0  0  0  0  0  0  0  0
  -11.7874   -9.6753    7.0825 N   0  0  0  0  0  0  0  0  0  0  0  0
  -11.4973  -10.8817    6.4515 C   0  0  0  0  0  0  0  0  0  0  0  0
  -11.4664  -12.1631    7.0047 C   0  0  0  0  0  0  0  0  0  0  0  0
  -11.7707  -12.3202    8.4030 C   0  0  0  0  0  0  0  0  0  0  0  0
  -11.8113  -13.3058    9.0990 O   0  0  0  0  0  0  0  0  0  0  0  0
  -11.1352  -13.0843    5.9943 N   0  0  0  0  0  0  0  0  0  0  0  0
  -10.9808  -12.3413    4.8653 C   0  0  0  0  0  0  0  0  0  0  0  0
  -11.1978  -10.9797    5.1194 N   0  0  0  0  0  0  0  0  0  0  0  0
  1  2  1  0  0  0  0
  1  6  1  0  0  0  0
  2  3  2  0  0  0  0
  3  4  1  0  0  0  0
  4  5  2  0  0  0  0
  4 10  1  0  0  0  0
  5  6  1  0  0  0  0
  5  8  1  0  0  0  0
  6  7  2  0  0  0  0
  8  9  1  0  0  0  0
  9 10  2  0  0  0  0
M  END
>  <CHROM.1>
-11.58536035,-11.59383910,7.18160069,2.67960736,-1.31962408,2.65059974

>  <Name>
ligand

>  <RI>
0

>  <Rbt.Current_Directory>
/home/itssahil/PROJECTS/Mol_Feturizer/New_Systems/rnas/2EES

>  <Rbt.Executable>
rbdock ($Id: //depot/dev/client3/rdock/2013.1/src/exe/rbdock.cxx#4 $)

>  <Rbt.Library>
libRbt.so (2013.1, Build901 2013/11/27)

>  <Rbt.Parameter_File>
/export/apps/rDock/src/rDock_2013.1_src/data/scripts/dock_solv.prm

>  <Rbt.Receptor>
prm/pocket_docking_7.prm

>  <SCORE>
-16.9924

>  <SCORE.INTER>
-16.9924

>  <SCORE.INTER.CONST>
1

>  <SCORE.INTER.POLAR>
0

>  <SCORE.INTER.ROT>
0

>  <SCORE.INTER.SOLV>
3.804

>  <SCORE.INTER.VDW>
-16.1963

>  <SCORE.INTER.norm>
-1.69924

>  <SCORE.INTRA>
0

>  <SCORE.INTRA.DIHEDRAL>
0

>  <SCORE.INTRA.DIHEDRAL.0>
0

>  <SCORE.INTRA.POLAR>
0

>  <SCORE.INTRA.POLAR.0>
0

>  <SCORE.INTRA.REPUL>
0

>  <SCORE.INTRA.REPUL.0>
0

>  <SCORE.INTRA.SOLV>
0

>  <SCORE.INTRA.SOLV.lig_0>
-4.28614

>  <SCORE.INTRA.VDW>
0

>  <SCORE.INTRA.VDW.0>
0

>  <SCORE.INTRA.norm>
0

>  <SCORE.RESTR>
0

>  <SCORE.RESTR.CAVITY>
0

>  <SCORE.RESTR.norm>
0

>  <SCORE.SYSTEM>
0

>  <SCORE.SYSTEM.CONST>
0

>  <SCORE.SYSTEM.DIHEDRAL>
0

>  <SCORE.SYSTEM.SOLV>
0

>  <SCORE.SYSTEM.norm>
0

>  <SCORE.heavy>
10

>  <SCORE.norm>
-1.69924

>  <RMSD>
2.472

$$$$
ligand
 OpenBabel11021811423D
libRbt.so/2013.1/901 2013/11/27
 10 11  0  0  0  0  0  0  0  0999 V2000
  -12.0769  -11.1991    9.0498 N   0  0  0  0  0  0  0  0  0  0  0  0
  -12.0955   -9.9293    8.4695 C   0  0  0  0  0  0  0  0  0  0  0  0
  -11.8136   -9.7275    7.1699 N   0  0  0  0  0  0  0  0  0  0  0  0
  -11.5136  -10.9024    6.4862 C   0  0  0  0  0  0  0  0  0  0  0  0
  -11.4652  -12.2059    6.9838 C   0  0  0  0  0  0  0  0  0  0  0  0
  -11.7598  -12.4262    8.3756 C   0  0  0  0  0  0  0  0  0  0  0  0
  -11.7855  -13.4411    9.0289 O   0  0  0  0  0  0  0  0  0  0  0  0
  -11.1294  -13.0791    5.9331 N   0  0  0  0  0  0  0  0  0  0  0  0
  -10.9897  -12.2867    4.8363 C   0  0  0  0  0  0  0  0  0  0  0  0
  -11.2205  -10.9398    5.1496 N   0  0  0  0  0  0  0  0  0  0  0  0
  1  2  1  0  0  0  0
  1  6  1  0  0  0  0
  2  3  2  0  0  0  0
  3  4  1  0  0  0  0
  4  5  2  0  0  0  0
  4 10  1  0  0  0  0
  5  6  1  0  0  0  0
  5  8  1  0  0  0  0
  6  7  2  0  0  0  0
  8  9  1  0  0  0  0
  9 10  2  0  0  0  0
M  END
>  <CHROM.1>
-11.58951348,-11.64608751,7.18554517,2.62925220,-1.31899833,2.64469508

>  <Name>
ligand

>  <RI>
0

>  <Rbt.Current_Directory>
/home/itssahil/PROJECTS/Mol_Feturizer/New_Systems/rnas/2EES

>  <Rbt.Executable>
rbdock ($Id: //depot/dev/client3/rdock/2013.1/src/exe/rbdock.cxx#4 $)

>  <Rbt.Library>
libRbt.so (2013.1, Build901 2013/11/27)

>  <Rbt.Parameter_File>
/export/apps/rDock/src/rDock_2013.1_src/data/scripts/dock_solv.prm

>  <Rbt.Receptor>
prm/pocket_docking_8.prm

>  <SCORE>
-16.987

>  <SCORE.INTER>
-16.987

>  <SCORE.INTER.CONST>
1

>  <SCORE.INTER.POLAR>
0

>  <SCORE.INTER.ROT>
0

>  <SCORE.INTER.SOLV>
3.92551

>  <SCORE.INTER.VDW>
-16.2332

>  <SCORE.INTER.norm>
-1.6987

>  <SCORE.INTRA>
0

>  <SCORE.INTRA.DIHEDRAL>
0

>  <SCORE.INTRA.DIHEDRAL.0>
0

>  <SCORE.INTRA.POLAR>
0

>  <SCORE.INTRA.POLAR.0>
0

>  <SCORE.INTRA.REPUL>
0

>  <SCORE.INTRA.REPUL.0>
0

>  <SCORE.INTRA.SOLV>
0

>  <SCORE.INTRA.SOLV.lig_0>
-4.28614

>  <SCORE.INTRA.VDW>
0

>  <SCORE.INTRA.VDW.0>
0

>  <SCORE.INTRA.norm>
0

>  <SCORE.RESTR>
0

>  <SCORE.RESTR.CAVITY>
0

>  <SCORE.RESTR.norm>
0

>  <SCORE.SYSTEM>
0

>  <SCORE.SYSTEM.CONST>
0

>  <SCORE.SYSTEM.DIHEDRAL>
0

>  <SCORE.SYSTEM.SOLV>
0

>  <SCORE.SYSTEM.norm>
0

>  <SCORE.heavy>
10

>  <SCORE.norm>
-1.6987

>  <RMSD>
2.472

$$$$
ligand
 OpenBabel11021811423D
libRbt.so/2013.1/901 2013/11/27
 10 11  0  0  0  0  0  0  0  0999 V2000
  -12.0801  -11.1480    9.0374 N   0  0  0  0  0  0  0  0  0  0  0  0
  -12.0977   -9.8850    8.4424 C   0  0  0  0  0  0  0  0  0  0  0  0
  -11.8040   -9.6970    7.1433 N   0  0  0  0  0  0  0  0  0  0  0  0
  -11.4932  -10.8785    6.4761 C   0  0  0  0  0  0  0  0  0  0  0  0
  -11.4449  -12.1760    6.9890 C   0  0  0  0  0  0  0  0  0  0  0  0
  -11.7521  -12.3815    8.3804 C   0  0  0  0  0  0  0  0  0  0  0  0
  -11.7803  -13.3889    9.0451 O   0  0  0  0  0  0  0  0  0  0  0  0
  -11.0957  -13.0599    5.9518 N   0  0  0  0  0  0  0  0  0  0  0  0
  -10.9484  -12.2796    4.8473 C   0  0  0  0  0  0  0  0  0  0  0  0
  -11.1871  -10.9302    5.1429 N   0  0  0  0  0  0  0  0  0  0  0  0
  1  2  1  0  0  0  0
  1  6  1  0  0  0  0
  2  3  2  0  0  0  0
  3  4  1  0  0  0  0
  4  5  2  0  0  0  0
  4 10  1  0  0  0  0
  5  6  1  0  0  0  0
  5  8  1  0  0  0  0
  6  7  2  0  0  0  0
  8  9  1  0  0  0  0
  9 10  2  0  0  0  0
M  END
>  <CHROM.1>
-11.57313942,-11.61442314,7.18317810,2.63462521,-1.30877856,2.63842032

>  <Name>
ligand

>  <RI>
0

>  <Rbt.Current_Directory>
/home/itssahil/PROJECTS/Mol_Feturizer/New_Systems/rnas/2EES

>  <Rbt.Executable>
rbdock ($Id: //depot/dev/client3/rdock/2013.1/src/exe/rbdock.cxx#4 $)

>  <Rbt.Library>
libRbt.so (2013.1, Build901 2013/11/27)

>  <Rbt.Parameter_File>
/export/apps/rDock/src/rDock_2013.1_src/data/scripts/dock_solv.prm

>  <Rbt.Receptor>
prm/blind_docking_80.prm

>  <SCORE>
-16.969

>  <SCORE.INTER>
-16.969

>  <SCORE.INTER.CONST>
1

>  <SCORE.INTER.POLAR>
0

>  <SCORE.INTER.ROT>
0

>  <SCORE.INTER.SOLV>
3.8622

>  <SCORE.INTER.VDW>
-16.2001

>  <SCORE.INTER.norm>
-1.6969

>  <SCORE.INTRA>
0

>  <SCORE.INTRA.DIHEDRAL>
0

>  <SCORE.INTRA.DIHEDRAL.0>
0

>  <SCORE.INTRA.POLAR>
0

>  <SCORE.INTRA.POLAR.0>
0

>  <SCORE.INTRA.REPUL>
0

>  <SCORE.INTRA.REPUL.0>
0

>  <SCORE.INTRA.SOLV>
0

>  <SCORE.INTRA.SOLV.lig_0>
-4.28614

>  <SCORE.INTRA.VDW>
0

>  <SCORE.INTRA.VDW.0>
0

>  <SCORE.INTRA.norm>
0

>  <SCORE.RESTR>
0

>  <SCORE.RESTR.CAVITY>
0

>  <SCORE.RESTR.norm>
0

>  <SCORE.SYSTEM>
0

>  <SCORE.SYSTEM.CONST>
0

>  <SCORE.SYSTEM.DIHEDRAL>
0

>  <SCORE.SYSTEM.SOLV>
0

>  <SCORE.SYSTEM.norm>
0

>  <SCORE.heavy>
10

>  <SCORE.norm>
-1.6969

>  <RMSD>
2.473

$$$$
ligand
 OpenBabel11021811423D
libRbt.so/2013.1/901 2013/11/27
 10 11  0  0  0  0  0  0  0  0999 V2000
  -12.0719  -11.1367    9.0475 N   0  0  0  0  0  0  0  0  0  0  0  0
  -12.0945   -9.8742    8.4516 C   0  0  0  0  0  0  0  0  0  0  0  0
  -11.8096   -9.6870    7.1505 N   0  0  0  0  0  0  0  0  0  0  0  0
  -11.5024  -10.8688    6.4821 C   0  0  0  0  0  0  0  0  0  0  0  0
  -11.4497  -12.1659    6.9958 C   0  0  0  0  0  0  0  0  0  0  0  0
  -11.7475  -12.3705    8.3893 C   0  0  0  0  0  0  0  0  0  0  0  0
  -11.7705  -13.3774    9.0550 O   0  0  0  0  0  0  0  0  0  0  0  0
  -11.1068  -13.0503    5.9569 N   0  0  0  0  0  0  0  0  0  0  0  0
  -10.9674  -12.2708    4.8508 C   0  0  0  0  0  0  0  0  0  0  0  0
  -11.2052  -10.9213    5.1469 N   0  0  0  0  0  0  0  0  0  0  0  0
  1  2  1  0  0  0  0
  1  6  1  0  0  0  0
  2  3  2  0  0  0  0
  3  4  1  0  0  0  0
  4  5  2  0  0  0  0
  4 10  1  0  0  0  0
  5  6  1  0  0  0  0
  5  8  1  0  0  0  0
  6  7  2  0  0  0  0
  8  9  1  0  0  0  0
  9 10  2  0  0  0  0
M  END
>  <CHROM.1>
-11.57707362,-11.60422392,7.19032016,2.61938754,-1.31425827,2.62291357

>  <Name>
ligand

>  <RI>
0

>  <Rbt.Current_Directory>
/home/itssahil/PROJECTS/Mol_Feturizer/New_Systems/rnas/2EES

>  <Rbt.Executable>
rbdock ($Id: //depot/dev/client3/rdock/2013.1/src/exe/rbdock.cxx#4 $)

>  <Rbt.Library>
libRbt.so (2013.1, Build901 2013/11/27)

>  <Rbt.Parameter_File>
/export/apps/rDock/src/rDock_2013.1_src/data/scripts/dock_solv.prm

>  <Rbt.Receptor>
prm/pocket_docking_7.prm

>  <SCORE>
-16.9675

>  <SCORE.INTER>
-16.9675

>  <SCORE.INTER.CONST>
1

>  <SCORE.INTER.POLAR>
0

>  <SCORE.INTER.ROT>
0

>  <SCORE.INTER.SOLV>
3.8649

>  <SCORE.INTER.VDW>
-16.2

>  <SCORE.INTER.norm>
-1.69675

>  <SCORE.INTRA>
0

>  <SCORE.INTRA.DIHEDRAL>
0

>  <SCORE.INTRA.DIHEDRAL.0>
0

>  <SCORE.INTRA.POLAR>
0

>  <SCORE.INTRA.POLAR.0>
0

>  <SCORE.INTRA.REPUL>
0

>  <SCORE.INTRA.REPUL.0>
0

>  <SCORE.INTRA.SOLV>
0

>  <SCORE.INTRA.SOLV.lig_0>
-4.28614

>  <SCORE.INTRA.VDW>
0

>  <SCORE.INTRA.VDW.0>
0

>  <SCORE.INTRA.norm>
0

>  <SCORE.RESTR>
0

>  <SCORE.RESTR.CAVITY>
0

>  <SCORE.RESTR.norm>
0

>  <SCORE.SYSTEM>
0

>  <SCORE.SYSTEM.CONST>
0

>  <SCORE.SYSTEM.DIHEDRAL>
0

>  <SCORE.SYSTEM.SOLV>
0

>  <SCORE.SYSTEM.norm>
0

>  <SCORE.heavy>
10

>  <SCORE.norm>
-1.69675

>  <RMSD>
2.473

$$$$
ligand
 OpenBabel11021811423D
libRbt.so/2013.1/901 2013/11/27
 10 11  0  0  0  0  0  0  0  0999 V2000
  -12.0597  -11.1920    9.0392 N   0  0  0  0  0  0  0  0  0  0  0  0
  -12.0790   -9.9229    8.4574 C   0  0  0  0  0  0  0  0  0  0  0  0
  -11.7949   -9.7221    7.1581 N   0  0  0  0  0  0  0  0  0  0  0  0
  -11.4918  -10.8973    6.4764 C   0  0  0  0  0  0  0  0  0  0  0  0
  -11.4424  -12.2001    6.9755 C   0  0  0  0  0  0  0  0  0  0  0  0
  -11.7395  -12.4193    8.3670 C   0  0  0  0  0  0  0  0  0  0  0  0
  -11.7650  -13.4336    9.0214 O   0  0  0  0  0  0  0  0  0  0  0  0
  -11.1032  -13.0740    5.9265 N   0  0  0  0  0  0  0  0  0  0  0  0
  -10.9625  -12.2827    4.8290 C   0  0  0  0  0  0  0  0  0  0  0  0
  -11.1959  -10.9358    5.1404 N   0  0  0  0  0  0  0  0  0  0  0  0
  1  2  1  0  0  0  0
  1  6  1  0  0  0  0
  2  3  2  0  0  0  0
  3  4  1  0  0  0  0
  4  5  2  0  0  0  0
  4 10  1  0  0  0  0
  5  6  1  0  0  0  0
  5  8  1  0  0  0  0
  6  7  2  0  0  0  0
  8  9  1  0  0  0  0
  9 10  2  0  0  0  0
M  END
>  <CHROM.1>
-11.56797141,-11.64032477,7.17641123,2.62785850,-1.31653298,2.64222131

>  <Name>
ligand

>  <RI>
0

>  <Rbt.Current_Directory>
/home/itssahil/PROJECTS/Mol_Feturizer/New_Systems/rnas/2EES

>  <Rbt.Executable>
rbdock ($Id: //depot/dev/client3/rdock/2013.1/src/exe/rbdock.cxx#4 $)

>  <Rbt.Library>
libRbt.so (2013.1, Build901 2013/11/27)

>  <Rbt.Parameter_File>
/export/apps/rDock/src/rDock_2013.1_src/data/scripts/dock_solv.prm

>  <Rbt.Receptor>
prm/blind_docking_40.prm

>  <SCORE>
-16.9989

>  <SCORE.INTER>
-16.9989

>  <SCORE.INTER.CONST>
1

>  <SCORE.INTER.POLAR>
0

>  <SCORE.INTER.ROT>
0

>  <SCORE.INTER.SOLV>
3.91941

>  <SCORE.INTER.VDW>
-16.2391

>  <SCORE.INTER.norm>
-1.69989

>  <SCORE.INTRA>
0

>  <SCORE.INTRA.DIHEDRAL>
0

>  <SCORE.INTRA.DIHEDRAL.0>
0

>  <SCORE.INTRA.POLAR>
0

>  <SCORE.INTRA.POLAR.0>
0

>  <SCORE.INTRA.REPUL>
0

>  <SCORE.INTRA.REPUL.0>
0

>  <SCORE.INTRA.SOLV>
0

>  <SCORE.INTRA.SOLV.lig_0>
-4.28614

>  <SCORE.INTRA.VDW>
0

>  <SCORE.INTRA.VDW.0>
0

>  <SCORE.INTRA.norm>
0

>  <SCORE.RESTR>
0

>  <SCORE.RESTR.CAVITY>
0

>  <SCORE.RESTR.norm>
0

>  <SCORE.SYSTEM>
0

>  <SCORE.SYSTEM.CONST>
0

>  <SCORE.SYSTEM.DIHEDRAL>
0

>  <SCORE.SYSTEM.SOLV>
0

>  <SCORE.SYSTEM.norm>
0

>  <SCORE.heavy>
10

>  <SCORE.norm>
-1.69989

>  <RMSD>
2.474

$$$$
ligand
 OpenBabel11021811423D
libRbt.so/2013.1/901 2013/11/27
 10 11  0  0  0  0  0  0  0  0999 V2000
  -12.0766  -11.1591    9.0450 N   0  0  0  0  0  0  0  0  0  0  0  0
  -12.1196   -9.8981    8.4471 C   0  0  0  0  0  0  0  0  0  0  0  0
  -11.8391   -9.7086    7.1454 N   0  0  0  0  0  0  0  0  0  0  0  0
  -11.5139  -10.8866    6.4786 C   0  0  0  0  0  0  0  0  0  0  0  0
  -11.4402  -12.1818    6.9944 C   0  0  0  0  0  0  0  0  0  0  0  0
  -11.7333  -12.3887    8.3886 C   0  0  0  0  0  0  0  0  0  0  0  0
  -11.7399  -13.3948    9.0559 O   0  0  0  0  0  0  0  0  0  0  0  0
  -11.0845  -13.0625    5.9566 N   0  0  0  0  0  0  0  0  0  0  0  0
  -10.9585  -12.2827    4.8491 C   0  0  0  0  0  0  0  0  0  0  0  0
  -11.2172  -10.9366    5.1432 N   0  0  0  0  0  0  0  0  0  0  0  0
  1  2  1  0  0  0  0
  1  6  1  0  0  0  0
  2  3  2  0  0  0  0
  3  4  1  0  0  0  0
  4  5  2  0  0  0  0
  4 10  1  0  0  0  0
  5  6  1  0  0  0  0
  5  8  1  0  0  0  0
  6  7  2  0  0  0  0
  8  9  1  0  0  0  0
  9 10  2  0  0  0  0
M  END
>  <CHROM.1>
-11.57623909,-11.62188449,7.18812209,2.56498930,-1.30692014,2.56867407

>  <Name>
ligand

>  <RI>
0

>  <Rbt.Current_Directory>
/home/itssahil/PROJECTS/Mol_Feturizer/New_Systems/rnas/2EES

>  <Rbt.Executable>
rbdock ($Id: //depot/dev/client3/rdock/2013.1/src/exe/rbdock.cxx#4 $)

>  <Rbt.Library>
libRbt.so (2013.1, Build901 2013/11/27)

>  <Rbt.Parameter_File>
/export/apps/rDock/src/rDock_2013.1_src/data/scripts/dock_solv.prm

>  <Rbt.Receptor>
prm/blind_docking_60.prm

>  <SCORE>
-16.9791

>  <SCORE.INTER>
-16.9791

>  <SCORE.INTER.CONST>
1

>  <SCORE.INTER.POLAR>
0

>  <SCORE.INTER.ROT>
0

>  <SCORE.INTER.SOLV>
3.84896

>  <SCORE.INTER.VDW>
-16.2024

>  <SCORE.INTER.norm>
-1.69791

>  <SCORE.INTRA>
0

>  <SCORE.INTRA.DIHEDRAL>
0

>  <SCORE.INTRA.DIHEDRAL.0>
0

>  <SCORE.INTRA.POLAR>
0

>  <SCORE.INTRA.POLAR.0>
0

>  <SCORE.INTRA.REPUL>
0

>  <SCORE.INTRA.REPUL.0>
0

>  <SCORE.INTRA.SOLV>
0

>  <SCORE.INTRA.SOLV.lig_0>
-4.28614

>  <SCORE.INTRA.VDW>
0

>  <SCORE.INTRA.VDW.0>
0

>  <SCORE.INTRA.norm>
0

>  <SCORE.RESTR>
0

>  <SCORE.RESTR.CAVITY>
0

>  <SCORE.RESTR.norm>
0

>  <SCORE.SYSTEM>
0

>  <SCORE.SYSTEM.CONST>
0

>  <SCORE.SYSTEM.DIHEDRAL>
0

>  <SCORE.SYSTEM.SOLV>
0

>  <SCORE.SYSTEM.norm>
0

>  <SCORE.heavy>
10

>  <SCORE.norm>
-1.69791

>  <RMSD>
2.474

$$$$
ligand
 OpenBabel11021811423D
libRbt.so/2013.1/901 2013/11/27
 10 11  0  0  0  0  0  0  0  0999 V2000
  -12.0781  -11.1319    9.0285 N   0  0  0  0  0  0  0  0  0  0  0  0
  -12.0942   -9.8710    8.4288 C   0  0  0  0  0  0  0  0  0  0  0  0
  -11.8001   -9.6881    7.1291 N   0  0  0  0  0  0  0  0  0  0  0  0
  -11.4904  -10.8724    6.4663 C   0  0  0  0  0  0  0  0  0  0  0  0
  -11.4436  -12.1681    6.9840 C   0  0  0  0  0  0  0  0  0  0  0  0
  -11.7514  -12.3681    8.3761 C   0  0  0  0  0  0  0  0  0  0  0  0
  -11.7808  -13.3731    9.0444 O   0  0  0  0  0  0  0  0  0  0  0  0
  -11.0953  -13.0562    5.9501 N   0  0  0  0  0  0  0  0  0  0  0  0
  -10.9468  -12.2801    4.8427 C   0  0  0  0  0  0  0  0  0  0  0  0
  -11.1841  -10.9293    5.1333 N   0  0  0  0  0  0  0  0  0  0  0  0
  1  2  1  0  0  0  0
  1  6  1  0  0  0  0
  2  3  2  0  0  0  0
  3  4  1  0  0  0  0
  4  5  2  0  0  0  0
  4 10  1  0  0  0  0
  5  6  1  0  0  0  0
  5  8  1  0  0  0  0
  6  7  2  0  0  0  0
  8  9  1  0  0  0  0
  9 10  2  0  0  0  0
M  END
>  <CHROM.1>
-11.57131956,-11.60565549,7.17605892,2.63873449,-1.30914798,2.63873849

>  <Name>
ligand

>  <RI>
0

>  <Rbt.Current_Directory>
/home/itssahil/PROJECTS/Mol_Feturizer/New_Systems/rnas/2EES

>  <Rbt.Executable>
rbdock ($Id: //depot/dev/client3/rdock/2013.1/src/exe/rbdock.cxx#4 $)

>  <Rbt.Library>
libRbt.so (2013.1, Build901 2013/11/27)

>  <Rbt.Parameter_File>
/export/apps/rDock/src/rDock_2013.1_src/data/scripts/dock_solv.prm

>  <Rbt.Receptor>
prm/pocket_docking_6.prm

>  <SCORE>
-16.9637

>  <SCORE.INTER>
-16.9637

>  <SCORE.INTER.CONST>
1

>  <SCORE.INTER.POLAR>
0

>  <SCORE.INTER.ROT>
0

>  <SCORE.INTER.SOLV>
3.85158

>  <SCORE.INTER.VDW>
-16.193

>  <SCORE.INTER.norm>
-1.69637

>  <SCORE.INTRA>
0

>  <SCORE.INTRA.DIHEDRAL>
0

>  <SCORE.INTRA.DIHEDRAL.0>
0

>  <SCORE.INTRA.POLAR>
0

>  <SCORE.INTRA.POLAR.0>
0

>  <SCORE.INTRA.REPUL>
0

>  <SCORE.INTRA.REPUL.0>
0

>  <SCORE.INTRA.SOLV>
0

>  <SCORE.INTRA.SOLV.lig_0>
-4.28614

>  <SCORE.INTRA.VDW>
0

>  <SCORE.INTRA.VDW.0>
0

>  <SCORE.INTRA.norm>
0

>  <SCORE.RESTR>
0

>  <SCORE.RESTR.CAVITY>
0

>  <SCORE.RESTR.norm>
0

>  <SCORE.SYSTEM>
0

>  <SCORE.SYSTEM.CONST>
0

>  <SCORE.SYSTEM.DIHEDRAL>
0

>  <SCORE.SYSTEM.SOLV>
0

>  <SCORE.SYSTEM.norm>
0

>  <SCORE.heavy>
10

>  <SCORE.norm>
-1.69637

>  <RMSD>
2.474

$$$$
ligand
 OpenBabel11021811423D
libRbt.so/2013.1/901 2013/11/27
 10 11  0  0  0  0  0  0  0  0999 V2000
  -12.0591  -11.1524    9.0424 N   0  0  0  0  0  0  0  0  0  0  0  0
  -12.1045   -9.8918    8.4437 C   0  0  0  0  0  0  0  0  0  0  0  0
  -11.8292   -9.7034    7.1407 N   0  0  0  0  0  0  0  0  0  0  0  0
  -11.5067  -10.8818    6.4735 C   0  0  0  0  0  0  0  0  0  0  0  0
  -11.4309  -12.1766    6.9899 C   0  0  0  0  0  0  0  0  0  0  0  0
  -11.7185  -12.3825    8.3854 C   0  0  0  0  0  0  0  0  0  0  0  0
  -11.7224  -13.3881    9.0535 O   0  0  0  0  0  0  0  0  0  0  0  0
  -11.0794  -13.0581    5.9514 N   0  0  0  0  0  0  0  0  0  0  0  0
  -10.9578  -12.2791    4.8428 C   0  0  0  0  0  0  0  0  0  0  0  0
  -11.2153  -10.9328    5.1370 N   0  0  0  0  0  0  0  0  0  0  0  0
  1  2  1  0  0  0  0
  1  6  1  0  0  0  0
  2  3  2  0  0  0  0
  3  4  1  0  0  0  0
  4  5  2  0  0  0  0
  4 10  1  0  0  0  0
  5  6  1  0  0  0  0
  5  8  1  0  0  0  0
  6  7  2  0  0  0  0
  8  9  1  0  0  0  0
  9 10  2  0  0  0  0
M  END
>  <CHROM.1>
-11.56620814,-11.61656378,7.18379184,2.55656497,-1.31028092,2.55980211

>  <Name>
ligand

>  <RI>
0

>  <Rbt.Current_Directory>
/home/itssahil/PROJECTS/Mol_Feturizer/New_Systems/rnas/2EES

>  <Rbt.Executable>
rbdock ($Id: //depot/dev/client3/rdock/2013.1/src/exe/rbdock.cxx#4 $)

>  <Rbt.Library>
libRbt.so (2013.1, Build901 2013/11/27)

>  <Rbt.Parameter_File>
/export/apps/rDock/src/rDock_2013.1_src/data/scripts/dock_solv.prm

>  <Rbt.Receptor>
prm/pocket_docking_4.prm

>  <SCORE>
-16.9772

>  <SCORE.INTER>
-16.9772

>  <SCORE.INTER.CONST>
1

>  <SCORE.INTER.POLAR>
0

>  <SCORE.INTER.ROT>
0

>  <SCORE.INTER.SOLV>
3.85279

>  <SCORE.INTER.VDW>
-16.2024

>  <SCORE.INTER.norm>
-1.69772

>  <SCORE.INTRA>
0

>  <SCORE.INTRA.DIHEDRAL>
0

>  <SCORE.INTRA.DIHEDRAL.0>
0

>  <SCORE.INTRA.POLAR>
0

>  <SCORE.INTRA.POLAR.0>
0

>  <SCORE.INTRA.REPUL>
0

>  <SCORE.INTRA.REPUL.0>
0

>  <SCORE.INTRA.SOLV>
0

>  <SCORE.INTRA.SOLV.lig_0>
-4.28614

>  <SCORE.INTRA.VDW>
0

>  <SCORE.INTRA.VDW.0>
0

>  <SCORE.INTRA.norm>
0

>  <SCORE.RESTR>
0

>  <SCORE.RESTR.CAVITY>
0

>  <SCORE.RESTR.norm>
0

>  <SCORE.SYSTEM>
0

>  <SCORE.SYSTEM.CONST>
0

>  <SCORE.SYSTEM.DIHEDRAL>
0

>  <SCORE.SYSTEM.SOLV>
0

>  <SCORE.SYSTEM.norm>
0

>  <SCORE.heavy>
10

>  <SCORE.norm>
-1.69772

>  <RMSD>
2.475

$$$$
ligand
 OpenBabel11021811423D
libRbt.so/2013.1/901 2013/11/27
 10 11  0  0  0  0  0  0  0  0999 V2000
  -12.0522  -11.1863    9.0285 N   0  0  0  0  0  0  0  0  0  0  0  0
  -12.0654   -9.9166    8.4478 C   0  0  0  0  0  0  0  0  0  0  0  0
  -11.7778   -9.7157    7.1494 N   0  0  0  0  0  0  0  0  0  0  0  0
  -11.4777  -10.8914    6.4671 C   0  0  0  0  0  0  0  0  0  0  0  0
  -11.4345  -12.1949    6.9651 C   0  0  0  0  0  0  0  0  0  0  0  0
  -11.7353  -12.4142    8.3558 C   0  0  0  0  0  0  0  0  0  0  0  0
  -11.7660  -13.4290    9.0092 O   0  0  0  0  0  0  0  0  0  0  0  0
  -11.0964  -13.0691    5.9161 N   0  0  0  0  0  0  0  0  0  0  0  0
  -10.9504  -12.2772    4.8196 C   0  0  0  0  0  0  0  0  0  0  0  0
  -11.1793  -10.9298    5.1317 N   0  0  0  0  0  0  0  0  0  0  0  0
  1  2  1  0  0  0  0
  1  6  1  0  0  0  0
  2  3  2  0  0  0  0
  3  4  1  0  0  0  0
  4  5  2  0  0  0  0
  4 10  1  0  0  0  0
  5  6  1  0  0  0  0
  5  8  1  0  0  0  0
  6  7  2  0  0  0  0
  8  9  1  0  0  0  0
  9 10  2  0  0  0  0
M  END
>  <CHROM.1>
-11.55828231,-11.63476660,7.16630355,2.64522497,-1.31649825,2.65996948

>  <Name>
ligand

>  <RI>
0

>  <Rbt.Current_Directory>
/home/itssahil/PROJECTS/Mol_Feturizer/New_Systems/rnas/2EES

>  <Rbt.Executable>
rbdock ($Id: //depot/dev/client3/rdock/2013.1/src/exe/rbdock.cxx#4 $)

>  <Rbt.Library>
libRbt.so (2013.1, Build901 2013/11/27)

>  <Rbt.Parameter_File>
/export/apps/rDock/src/rDock_2013.1_src/data/scripts/dock_solv.prm

>  <Rbt.Receptor>
prm/pocket_docking_5.prm

>  <SCORE>
-16.9878

>  <SCORE.INTER>
-16.9878

>  <SCORE.INTER.CONST>
1

>  <SCORE.INTER.POLAR>
0

>  <SCORE.INTER.ROT>
0

>  <SCORE.INTER.SOLV>
3.92354

>  <SCORE.INTER.VDW>
-16.233

>  <SCORE.INTER.norm>
-1.69878

>  <SCORE.INTRA>
0

>  <SCORE.INTRA.DIHEDRAL>
0

>  <SCORE.INTRA.DIHEDRAL.0>
0

>  <SCORE.INTRA.POLAR>
0

>  <SCORE.INTRA.POLAR.0>
0

>  <SCORE.INTRA.REPUL>
0

>  <SCORE.INTRA.REPUL.0>
0

>  <SCORE.INTRA.SOLV>
0

>  <SCORE.INTRA.SOLV.lig_0>
-4.28614

>  <SCORE.INTRA.VDW>
0

>  <SCORE.INTRA.VDW.0>
0

>  <SCORE.INTRA.norm>
0

>  <SCORE.RESTR>
0

>  <SCORE.RESTR.CAVITY>
0

>  <SCORE.RESTR.norm>
0

>  <SCORE.SYSTEM>
0

>  <SCORE.SYSTEM.CONST>
0

>  <SCORE.SYSTEM.DIHEDRAL>
0

>  <SCORE.SYSTEM.SOLV>
0

>  <SCORE.SYSTEM.norm>
0

>  <SCORE.heavy>
10

>  <SCORE.norm>
-1.69878

>  <RMSD>
2.476

$$$$
ligand
 OpenBabel11021811423D
libRbt.so/2013.1/901 2013/11/27
 10 11  0  0  0  0  0  0  0  0999 V2000
  -12.0737  -11.1421    9.0121 N   0  0  0  0  0  0  0  0  0  0  0  0
  -12.0824   -9.8785    8.4183 C   0  0  0  0  0  0  0  0  0  0  0  0
  -11.7875   -9.6914    7.1193 N   0  0  0  0  0  0  0  0  0  0  0  0
  -11.4853  -10.8745    6.4510 C   0  0  0  0  0  0  0  0  0  0  0  0
  -11.4462  -12.1728    6.9627 C   0  0  0  0  0  0  0  0  0  0  0  0
  -11.7547  -12.3773    8.3540 C   0  0  0  0  0  0  0  0  0  0  0  0
  -11.7901  -13.3852    9.0177 O   0  0  0  0  0  0  0  0  0  0  0  0
  -11.1036  -13.0582    5.9246 N   0  0  0  0  0  0  0  0  0  0  0  0
  -10.9508  -12.2780    4.8208 C   0  0  0  0  0  0  0  0  0  0  0  0
  -11.1798  -10.9271    5.1176 N   0  0  0  0  0  0  0  0  0  0  0  0
  1  2  1  0  0  0  0
  1  6  1  0  0  0  0
  2  3  2  0  0  0  0
  3  4  1  0  0  0  0
  4  5  2  0  0  0  0
  4 10  1  0  0  0  0
  5  6  1  0  0  0  0
  5  8  1  0  0  0  0
  6  7  2  0  0  0  0
  8  9  1  0  0  0  0
  9 10  2  0  0  0  0
M  END
>  <CHROM.1>
-11.57042372,-11.61047297,7.15739744,2.65898503,-1.31230109,2.66288361

>  <Name>
ligand

>  <RI>
0

>  <Rbt.Current_Directory>
/home/itssahil/PROJECTS/Mol_Feturizer/New_Systems/rnas/2EES

>  <Rbt.Executable>
rbdock ($Id: //depot/dev/client3/rdock/2013.1/src/exe/rbdock.cxx#4 $)

>  <Rbt.Library>
libRbt.so (2013.1, Build901 2013/11/27)

>  <Rbt.Parameter_File>
/export/apps/rDock/src/rDock_2013.1_src/data/scripts/dock_solv.prm

>  <Rbt.Receptor>
prm/blind_docking_60.prm

>  <SCORE>
-16.9501

>  <SCORE.INTER>
-16.9501

>  <SCORE.INTER.CONST>
1

>  <SCORE.INTER.POLAR>
0

>  <SCORE.INTER.ROT>
0

>  <SCORE.INTER.SOLV>
3.87293

>  <SCORE.INTER.VDW>
-16.191

>  <SCORE.INTER.norm>
-1.69501

>  <SCORE.INTRA>
0

>  <SCORE.INTRA.DIHEDRAL>
0

>  <SCORE.INTRA.DIHEDRAL.0>
0

>  <SCORE.INTRA.POLAR>
0

>  <SCORE.INTRA.POLAR.0>
0

>  <SCORE.INTRA.REPUL>
0

>  <SCORE.INTRA.REPUL.0>
0

>  <SCORE.INTRA.SOLV>
0

>  <SCORE.INTRA.SOLV.lig_0>
-4.28614

>  <SCORE.INTRA.VDW>
0

>  <SCORE.INTRA.VDW.0>
0

>  <SCORE.INTRA.norm>
0

>  <SCORE.RESTR>
0

>  <SCORE.RESTR.CAVITY>
0

>  <SCORE.RESTR.norm>
0

>  <SCORE.SYSTEM>
0

>  <SCORE.SYSTEM.CONST>
0

>  <SCORE.SYSTEM.DIHEDRAL>
0

>  <SCORE.SYSTEM.SOLV>
0

>  <SCORE.SYSTEM.norm>
0

>  <SCORE.heavy>
10

>  <SCORE.norm>
-1.69501

>  <RMSD>
2.477

$$$$
ligand
 OpenBabel11021811423D
libRbt.so/2013.1/901 2013/11/27
 10 11  0  0  0  0  0  0  0  0999 V2000
  -12.0438  -11.2116    9.0417 N   0  0  0  0  0  0  0  0  0  0  0  0
  -12.0917   -9.9422    8.4621 C   0  0  0  0  0  0  0  0  0  0  0  0
  -11.8230   -9.7344    7.1607 N   0  0  0  0  0  0  0  0  0  0  0  0
  -11.5045  -10.9028    6.4743 C   0  0  0  0  0  0  0  0  0  0  0  0
  -11.4267  -12.2053    6.9709 C   0  0  0  0  0  0  0  0  0  0  0  0
  -11.7072  -12.4319    8.3647 C   0  0  0  0  0  0  0  0  0  0  0  0
  -11.7081  -13.4473    9.0177 O   0  0  0  0  0  0  0  0  0  0  0  0
  -11.0809  -13.0713    5.9176 N   0  0  0  0  0  0  0  0  0  0  0  0
  -10.9647  -12.2759    4.8201 C   0  0  0  0  0  0  0  0  0  0  0  0
  -11.2201  -10.9340    5.1357 N   0  0  0  0  0  0  0  0  0  0  0  0
  1  2  1  0  0  0  0
  1  6  1  0  0  0  0
  2  3  2  0  0  0  0
  3  4  1  0  0  0  0
  4  5  2  0  0  0  0
  4 10  1  0  0  0  0
  5  6  1  0  0  0  0
  5  8  1  0  0  0  0
  6  7  2  0  0  0  0
  8  9  1  0  0  0  0
  9 10  2  0  0  0  0
M  END
>  <CHROM.1>
-11.56072764,-11.64814366,7.17385661,2.54695387,-1.31482815,2.56544891

>  <Name>
ligand

>  <RI>
0

>  <Rbt.Current_Directory>
/home/itssahil/PROJECTS/Mol_Feturizer/New_Systems/rnas/2EES

>  <Rbt.Executable>
rbdock ($Id: //depot/dev/client3/rdock/2013.1/src/exe/rbdock.cxx#4 $)

>  <Rbt.Library>
libRbt.so (2013.1, Build901 2013/11/27)

>  <Rbt.Parameter_File>
/export/apps/rDock/src/rDock_2013.1_src/data/scripts/dock_solv.prm

>  <Rbt.Receptor>
prm/pocket_docking_4.prm

>  <SCORE>
-17.003

>  <SCORE.INTER>
-17.003

>  <SCORE.INTER.CONST>
1

>  <SCORE.INTER.POLAR>
0

>  <SCORE.INTER.ROT>
0

>  <SCORE.INTER.SOLV>
3.91956

>  <SCORE.INTER.VDW>
-16.2418

>  <SCORE.INTER.norm>
-1.7003

>  <SCORE.INTRA>
0

>  <SCORE.INTRA.DIHEDRAL>
0

>  <SCORE.INTRA.DIHEDRAL.0>
0

>  <SCORE.INTRA.POLAR>
0

>  <SCORE.INTRA.POLAR.0>
0

>  <SCORE.INTRA.REPUL>
0

>  <SCORE.INTRA.REPUL.0>
0

>  <SCORE.INTRA.SOLV>
0

>  <SCORE.INTRA.SOLV.lig_0>
-4.28614

>  <SCORE.INTRA.VDW>
0

>  <SCORE.INTRA.VDW.0>
0

>  <SCORE.INTRA.norm>
0

>  <SCORE.RESTR>
0

>  <SCORE.RESTR.CAVITY>
0

>  <SCORE.RESTR.norm>
0

>  <SCORE.SYSTEM>
0

>  <SCORE.SYSTEM.CONST>
0

>  <SCORE.SYSTEM.DIHEDRAL>
0

>  <SCORE.SYSTEM.SOLV>
0

>  <SCORE.SYSTEM.norm>
0

>  <SCORE.heavy>
10

>  <SCORE.norm>
-1.7003

>  <RMSD>
2.477

$$$$
ligand
 OpenBabel11021811423D
libRbt.so/2013.1/901 2013/11/27
 10 11  0  0  0  0  0  0  0  0999 V2000
  -12.3075  -10.3395    8.8600 N   0  0  0  0  0  0  0  0  0  0  0  0
  -12.0250   -9.2028    8.1000 C   0  0  0  0  0  0  0  0  0  0  0  0
  -11.5793   -9.2763    6.8331 N   0  0  0  0  0  0  0  0  0  0  0  0
  -11.4404  -10.5842    6.3770 C   0  0  0  0  0  0  0  0  0  0  0  0
  -11.6917  -11.7727    7.0648 C   0  0  0  0  0  0  0  0  0  0  0  0
  -12.1628  -11.6992    8.4232 C   0  0  0  0  0  0  0  0  0  0  0  0
  -12.4474  -12.5686    9.2111 O   0  0  0  0  0  0  0  0  0  0  0  0
  -11.4231  -12.8564    6.2089 N   0  0  0  0  0  0  0  0  0  0  0  0
  -11.0245  -12.2980    5.0342 C   0  0  0  0  0  0  0  0  0  0  0  0
  -11.0254  -10.8981    5.1108 N   0  0  0  0  0  0  0  0  0  0  0  0
  1  2  1  0  0  0  0
  1  6  1  0  0  0  0
  2  3  2  0  0  0  0
  3  4  1  0  0  0  0
  4  5  2  0  0  0  0
  4 10  1  0  0  0  0
  5  6  1  0  0  0  0
  5  8  1  0  0  0  0
  6  7  2  0  0  0  0
  8  9  1  0  0  0  0
  9 10  2  0  0  0  0
M  END
>  <CHROM.1>
-11.72711678,-11.17388326,7.16309624,-2.92585777,-1.24065078,-3.10005010

>  <Name>
ligand

>  <RI>
0

>  <Rbt.Current_Directory>
/home/itssahil/PROJECTS/Mol_Feturizer/New_Systems/rnas/2EES

>  <Rbt.Executable>
rbdock ($Id: //depot/dev/client3/rdock/2013.1/src/exe/rbdock.cxx#4 $)

>  <Rbt.Library>
libRbt.so (2013.1, Build901 2013/11/27)

>  <Rbt.Parameter_File>
/export/apps/rDock/src/rDock_2013.1_src/data/scripts/dock_solv.prm

>  <Rbt.Receptor>
prm/blind_docking_20.prm

>  <SCORE>
-15.5319

>  <SCORE.INTER>
-15.6946

>  <SCORE.INTER.CONST>
1

>  <SCORE.INTER.POLAR>
0

>  <SCORE.INTER.ROT>
0

>  <SCORE.INTER.SOLV>
3.50619

>  <SCORE.INTER.VDW>
-15.2318

>  <SCORE.INTER.norm>
-1.56946

>  <SCORE.INTRA>
0

>  <SCORE.INTRA.DIHEDRAL>
0

>  <SCORE.INTRA.DIHEDRAL.0>
0

>  <SCORE.INTRA.POLAR>
0

>  <SCORE.INTRA.POLAR.0>
0

>  <SCORE.INTRA.REPUL>
0

>  <SCORE.INTRA.REPUL.0>
0

>  <SCORE.INTRA.SOLV>
0

>  <SCORE.INTRA.SOLV.lig_0>
-4.28614

>  <SCORE.INTRA.VDW>
0

>  <SCORE.INTRA.VDW.0>
0

>  <SCORE.INTRA.norm>
0

>  <SCORE.RESTR>
0.162765

>  <SCORE.RESTR.CAVITY>
0.162765

>  <SCORE.RESTR.norm>
0.0162765

>  <SCORE.SYSTEM>
0

>  <SCORE.SYSTEM.CONST>
0

>  <SCORE.SYSTEM.DIHEDRAL>
0

>  <SCORE.SYSTEM.SOLV>
0

>  <SCORE.SYSTEM.norm>
0

>  <SCORE.heavy>
10

>  <SCORE.norm>
-1.55319

>  <RMSD>
2.501

$$$$
ligand
 OpenBabel11021811423D
libRbt.so/2013.1/901 2013/11/27
 10 11  0  0  0  0  0  0  0  0999 V2000
  -12.3518  -10.3160    8.8647 N   0  0  0  0  0  0  0  0  0  0  0  0
  -12.0655   -9.1837    8.0996 C   0  0  0  0  0  0  0  0  0  0  0  0
  -11.6024   -9.2645    6.8394 N   0  0  0  0  0  0  0  0  0  0  0  0
  -11.4501  -10.5750    6.3954 C   0  0  0  0  0  0  0  0  0  0  0  0
  -11.7041  -11.7596    7.0891 C   0  0  0  0  0  0  0  0  0  0  0  0
  -12.1938  -11.6783    8.4405 C   0  0  0  0  0  0  0  0  0  0  0  0
  -12.4841  -12.5431    9.2313 O   0  0  0  0  0  0  0  0  0  0  0  0
  -11.4181  -12.8483    6.2454 N   0  0  0  0  0  0  0  0  0  0  0  0
  -11.0068  -12.2968    5.0718 C   0  0  0  0  0  0  0  0  0  0  0  0
  -11.0165  -10.8964    5.1374 N   0  0  0  0  0  0  0  0  0  0  0  0
  1  2  1  0  0  0  0
  1  6  1  0  0  0  0
  2  3  2  0  0  0  0
  3  4  1  0  0  0  0
  4  5  2  0  0  0  0
  4 10  1  0  0  0  0
  5  6  1  0  0  0  0
  5  8  1  0  0  0  0
  6  7  2  0  0  0  0
  8  9  1  0  0  0  0
  9 10  2  0  0  0  0
M  END
>  <CHROM.1>
-11.74411952,-11.16024342,7.18222924,-2.94391969,-1.22742566,-3.12487672

>  <Name>
ligand

>  <RI>
0

>  <Rbt.Current_Directory>
/home/itssahil/PROJECTS/Mol_Feturizer/New_Systems/rnas/2EES

>  <Rbt.Executable>
rbdock ($Id: //depot/dev/client3/rdock/2013.1/src/exe/rbdock.cxx#4 $)

>  <Rbt.Library>
libRbt.so (2013.1, Build901 2013/11/27)

>  <Rbt.Parameter_File>
/export/apps/rDock/src/rDock_2013.1_src/data/scripts/dock_solv.prm

>  <Rbt.Receptor>
prm/blind_docking_20.prm

>  <SCORE>
-15.5581

>  <SCORE.INTER>
-15.7208

>  <SCORE.INTER.CONST>
1

>  <SCORE.INTER.POLAR>
0

>  <SCORE.INTER.ROT>
0

>  <SCORE.INTER.SOLV>
3.46937

>  <SCORE.INTER.VDW>
-15.237

>  <SCORE.INTER.norm>
-1.57208

>  <SCORE.INTRA>
0

>  <SCORE.INTRA.DIHEDRAL>
0

>  <SCORE.INTRA.DIHEDRAL.0>
0

>  <SCORE.INTRA.POLAR>
0

>  <SCORE.INTRA.POLAR.0>
0

>  <SCORE.INTRA.REPUL>
0

>  <SCORE.INTRA.REPUL.0>
0

>  <SCORE.INTRA.SOLV>
0

>  <SCORE.INTRA.SOLV.lig_0>
-4.28614

>  <SCORE.INTRA.VDW>
0

>  <SCORE.INTRA.VDW.0>
0

>  <SCORE.INTRA.norm>
0

>  <SCORE.RESTR>
0.162712

>  <SCORE.RESTR.CAVITY>
0.162712

>  <SCORE.RESTR.norm>
0.0162712

>  <SCORE.SYSTEM>
0

>  <SCORE.SYSTEM.CONST>
0

>  <SCORE.SYSTEM.DIHEDRAL>
0

>  <SCORE.SYSTEM.SOLV>
0

>  <SCORE.SYSTEM.norm>
0

>  <SCORE.heavy>
10

>  <SCORE.norm>
-1.55581

>  <RMSD>
2.501

$$$$
ligand
 OpenBabel11021811423D
libRbt.so/2013.1/901 2013/11/27
 10 11  0  0  0  0  0  0  0  0999 V2000
  -12.3481  -10.3068    8.8636 N   0  0  0  0  0  0  0  0  0  0  0  0
  -12.0573   -9.1762    8.0976 C   0  0  0  0  0  0  0  0  0  0  0  0
  -11.5939   -9.2598    6.8377 N   0  0  0  0  0  0  0  0  0  0  0  0
  -11.4463  -10.5712    6.3949 C   0  0  0  0  0  0  0  0  0  0  0  0
  -11.7049  -11.7543    7.0896 C   0  0  0  0  0  0  0  0  0  0  0  0
  -12.1949  -11.6700    8.4406 C   0  0  0  0  0  0  0  0  0  0  0  0
  -12.4887  -12.5331    9.2320 O   0  0  0  0  0  0  0  0  0  0  0  0
  -11.4224  -12.8448    6.2468 N   0  0  0  0  0  0  0  0  0  0  0  0
  -11.0086  -12.2957    5.0730 C   0  0  0  0  0  0  0  0  0  0  0  0
  -11.0133  -10.8953    5.1374 N   0  0  0  0  0  0  0  0  0  0  0  0
  1  2  1  0  0  0  0
  1  6  1  0  0  0  0
  2  3  2  0  0  0  0
  3  4  1  0  0  0  0
  4  5  2  0  0  0  0
  4 10  1  0  0  0  0
  5  6  1  0  0  0  0
  5  8  1  0  0  0  0
  6  7  2  0  0  0  0
  8  9  1  0  0  0  0
  9 10  2  0  0  0  0
M  END
>  <CHROM.1>
-11.74274642,-11.15469025,7.18210724,-2.93317433,-1.22689320,-3.11562954

>  <Name>
ligand

>  <RI>
0

>  <Rbt.Current_Directory>
/home/itssahil/PROJECTS/Mol_Feturizer/New_Systems/rnas/2EES

>  <Rbt.Executable>
rbdock ($Id: //depot/dev/client3/rdock/2013.1/src/exe/rbdock.cxx#4 $)

>  <Rbt.Library>
libRbt.so (2013.1, Build901 2013/11/27)

>  <Rbt.Parameter_File>
/export/apps/rDock/src/rDock_2013.1_src/data/scripts/dock_solv.prm

>  <Rbt.Receptor>
prm/blind_docking_20.prm

>  <SCORE>
-15.5371

>  <SCORE.INTER>
-15.6932

>  <SCORE.INTER.CONST>
1

>  <SCORE.INTER.POLAR>
0

>  <SCORE.INTER.ROT>
0

>  <SCORE.INTER.SOLV>
3.47277

>  <SCORE.INTER.VDW>
-15.2197

>  <SCORE.INTER.norm>
-1.56932

>  <SCORE.INTRA>
0

>  <SCORE.INTRA.DIHEDRAL>
0

>  <SCORE.INTRA.DIHEDRAL.0>
0

>  <SCORE.INTRA.POLAR>
0

>  <SCORE.INTRA.POLAR.0>
0

>  <SCORE.INTRA.REPUL>
0

>  <SCORE.INTRA.REPUL.0>
0

>  <SCORE.INTRA.SOLV>
0

>  <SCORE.INTRA.SOLV.lig_0>
-4.28614

>  <SCORE.INTRA.VDW>
0

>  <SCORE.INTRA.VDW.0>
0

>  <SCORE.INTRA.norm>
0

>  <SCORE.RESTR>
0.156109

>  <SCORE.RESTR.CAVITY>
0.156109

>  <SCORE.RESTR.norm>
0.0156109

>  <SCORE.SYSTEM>
0

>  <SCORE.SYSTEM.CONST>
0

>  <SCORE.SYSTEM.DIHEDRAL>
0

>  <SCORE.SYSTEM.SOLV>
0

>  <SCORE.SYSTEM.norm>
0

>  <SCORE.heavy>
10

>  <SCORE.norm>
-1.55371

>  <RMSD>
2.502

$$$$
ligand
 OpenBabel11021811423D
libRbt.so/2013.1/901 2013/11/27
 10 11  0  0  0  0  0  0  0  0999 V2000
  -12.3505  -10.3160    8.8506 N   0  0  0  0  0  0  0  0  0  0  0  0
  -12.0764   -9.1771    8.0907 C   0  0  0  0  0  0  0  0  0  0  0  0
  -11.6138   -9.2472    6.8297 N   0  0  0  0  0  0  0  0  0  0  0  0
  -11.4489  -10.5539    6.3792 C   0  0  0  0  0  0  0  0  0  0  0  0
  -11.6903  -11.7444    7.0674 C   0  0  0  0  0  0  0  0  0  0  0  0
  -12.1793  -11.6745    8.4196 C   0  0  0  0  0  0  0  0  0  0  0  0
  -12.4601  -12.5460    9.2064 O   0  0  0  0  0  0  0  0  0  0  0  0
  -11.3942  -12.8260    6.2180 N   0  0  0  0  0  0  0  0  0  0  0  0
  -10.9897  -12.2647    5.0467 C   0  0  0  0  0  0  0  0  0  0  0  0
  -11.0134  -10.8648    5.1192 N   0  0  0  0  0  0  0  0  0  0  0  0
  1  2  1  0  0  0  0
  1  6  1  0  0  0  0
  2  3  2  0  0  0  0
  3  4  1  0  0  0  0
  4  5  2  0  0  0  0
  4 10  1  0  0  0  0
  5  6  1  0  0  0  0
  5  8  1  0  0  0  0
  6  7  2  0  0  0  0
  8  9  1  0  0  0  0
  9 10  2  0  0  0  0
M  END
>  <CHROM.1>
-11.73617167,-11.14587169,7.16341495,-2.97376775,-1.22849238,3.13507001

>  <Name>
ligand

>  <RI>
0

>  <Rbt.Current_Directory>
/home/itssahil/PROJECTS/Mol_Feturizer/New_Systems/rnas/2EES

>  <Rbt.Executable>
rbdock ($Id: //depot/dev/client3/rdock/2013.1/src/exe/rbdock.cxx#4 $)

>  <Rbt.Library>
libRbt.so (2013.1, Build901 2013/11/27)

>  <Rbt.Parameter_File>
/export/apps/rDock/src/rDock_2013.1_src/data/scripts/dock_solv.prm

>  <Rbt.Receptor>
prm/blind_docking_20.prm

>  <SCORE>
-15.4234

>  <SCORE.INTER>
-15.5649

>  <SCORE.INTER.CONST>
1

>  <SCORE.INTER.POLAR>
0

>  <SCORE.INTER.ROT>
0

>  <SCORE.INTER.SOLV>
3.4663

>  <SCORE.INTER.VDW>
-15.132

>  <SCORE.INTER.norm>
-1.55649

>  <SCORE.INTRA>
0

>  <SCORE.INTRA.DIHEDRAL>
0

>  <SCORE.INTRA.DIHEDRAL.0>
0

>  <SCORE.INTRA.POLAR>
0

>  <SCORE.INTRA.POLAR.0>
0

>  <SCORE.INTRA.REPUL>
0

>  <SCORE.INTRA.REPUL.0>
0

>  <SCORE.INTRA.SOLV>
0

>  <SCORE.INTRA.SOLV.lig_0>
-4.28614

>  <SCORE.INTRA.VDW>
0

>  <SCORE.INTRA.VDW.0>
0

>  <SCORE.INTRA.norm>
0

>  <SCORE.RESTR>
0.141541

>  <SCORE.RESTR.CAVITY>
0.141541

>  <SCORE.RESTR.norm>
0.0141541

>  <SCORE.SYSTEM>
0

>  <SCORE.SYSTEM.CONST>
0

>  <SCORE.SYSTEM.DIHEDRAL>
0

>  <SCORE.SYSTEM.SOLV>
0

>  <SCORE.SYSTEM.norm>
0

>  <SCORE.heavy>
10

>  <SCORE.norm>
-1.54234

>  <RMSD>
2.509

$$$$
ligand
 OpenBabel11021811423D
libRbt.so/2013.1/901 2013/11/27
 10 11  0  0  0  0  0  0  0  0999 V2000
  -11.5481  -13.5796    8.3413 N   0  0  0  0  0  0  0  0  0  0  0  0
  -11.7344  -13.0841    9.6333 C   0  0  0  0  0  0  0  0  0  0  0  0
  -11.9259  -11.7762    9.8822 N   0  0  0  0  0  0  0  0  0  0  0  0
  -11.9219  -10.9939    8.7308 C   0  0  0  0  0  0  0  0  0  0  0  0
  -11.7381  -11.4004    7.4080 C   0  0  0  0  0  0  0  0  0  0  0  0
  -11.5264  -12.7984    7.1372 C   0  0  0  0  0  0  0  0  0  0  0  0
  -11.3482  -13.3858    6.0976 O   0  0  0  0  0  0  0  0  0  0  0  0
  -11.8220  -10.2720    6.5720 N   0  0  0  0  0  0  0  0  0  0  0  0
  -12.0573   -9.2227    7.4051 C   0  0  0  0  0  0  0  0  0  0  0  0
  -12.1229   -9.6399    8.7419 N   0  0  0  0  0  0  0  0  0  0  0  0
  1  2  1  0  0  0  0
  1  6  1  0  0  0  0
  2  3  2  0  0  0  0
  3  4  1  0  0  0  0
  4  5  2  0  0  0  0
  4 10  1  0  0  0  0
  5  6  1  0  0  0  0
  5  8  1  0  0  0  0
  6  7  2  0  0  0  0
  8  9  1  0  0  0  0
  9 10  2  0  0  0  0
M  END
>  <CHROM.1>
-11.76648976,-11.65074087,7.96118509,0.53753656,-1.40456893,2.17904212

>  <Name>
ligand

>  <RI>
0

>  <Rbt.Current_Directory>
/home/itssahil/PROJECTS/Mol_Feturizer/New_Systems/rnas/2EES

>  <Rbt.Executable>
rbdock ($Id: //depot/dev/client3/rdock/2013.1/src/exe/rbdock.cxx#4 $)

>  <Rbt.Library>
libRbt.so (2013.1, Build901 2013/11/27)

>  <Rbt.Parameter_File>
/export/apps/rDock/src/rDock_2013.1_src/data/scripts/dock_solv.prm

>  <Rbt.Receptor>
prm/pocket_docking_7.prm

>  <SCORE>
-16.344

>  <SCORE.INTER>
-16.344

>  <SCORE.INTER.CONST>
1

>  <SCORE.INTER.POLAR>
0

>  <SCORE.INTER.ROT>
0

>  <SCORE.INTER.SOLV>
4.37973

>  <SCORE.INTER.VDW>
-15.9559

>  <SCORE.INTER.norm>
-1.6344

>  <SCORE.INTRA>
0

>  <SCORE.INTRA.DIHEDRAL>
0

>  <SCORE.INTRA.DIHEDRAL.0>
0

>  <SCORE.INTRA.POLAR>
0

>  <SCORE.INTRA.POLAR.0>
0

>  <SCORE.INTRA.REPUL>
0

>  <SCORE.INTRA.REPUL.0>
0

>  <SCORE.INTRA.SOLV>
0

>  <SCORE.INTRA.SOLV.lig_0>
-4.28614

>  <SCORE.INTRA.VDW>
0

>  <SCORE.INTRA.VDW.0>
0

>  <SCORE.INTRA.norm>
0

>  <SCORE.RESTR>
0

>  <SCORE.RESTR.CAVITY>
0

>  <SCORE.RESTR.norm>
0

>  <SCORE.SYSTEM>
0

>  <SCORE.SYSTEM.CONST>
0

>  <SCORE.SYSTEM.DIHEDRAL>
0

>  <SCORE.SYSTEM.SOLV>
0

>  <SCORE.SYSTEM.norm>
0

>  <SCORE.heavy>
10

>  <SCORE.norm>
-1.6344

>  <RMSD>
2.874

$$$$
ligand
 OpenBabel11021811423D
libRbt.so/2013.1/901 2013/11/27
 10 11  0  0  0  0  0  0  0  0999 V2000
  -11.5232  -13.5558    8.4001 N   0  0  0  0  0  0  0  0  0  0  0  0
  -11.7281  -13.0371    9.6801 C   0  0  0  0  0  0  0  0  0  0  0  0
  -11.9442  -11.7279    9.9003 N   0  0  0  0  0  0  0  0  0  0  0  0
  -11.9449  -10.9696    8.7329 C   0  0  0  0  0  0  0  0  0  0  0  0
  -11.7437  -11.4001    7.4202 C   0  0  0  0  0  0  0  0  0  0  0  0
  -11.5057  -12.7995    7.1802 C   0  0  0  0  0  0  0  0  0  0  0  0
  -11.3093  -13.4051    6.1544 O   0  0  0  0  0  0  0  0  0  0  0  0
  -11.8407  -10.2909    6.5604 N   0  0  0  0  0  0  0  0  0  0  0  0
  -12.1007   -9.2288    7.3697 C   0  0  0  0  0  0  0  0  0  0  0  0
  -12.1694   -9.6194    8.7144 N   0  0  0  0  0  0  0  0  0  0  0  0
  1  2  1  0  0  0  0
  1  6  1  0  0  0  0
  2  3  2  0  0  0  0
  3  4  1  0  0  0  0
  4  5  2  0  0  0  0
  4 10  1  0  0  0  0
  5  6  1  0  0  0  0
  5  8  1  0  0  0  0
  6  7  2  0  0  0  0
  8  9  1  0  0  0  0
  9 10  2  0  0  0  0
M  END
>  <CHROM.1>
-11.77209987,-11.63938696,7.97831095,0.51828360,-1.38585625,2.13933564

>  <Name>
ligand

>  <RI>
0

>  <Rbt.Current_Directory>
/home/itssahil/PROJECTS/Mol_Feturizer/New_Systems/rnas/2EES

>  <Rbt.Executable>
rbdock ($Id: //depot/dev/client3/rdock/2013.1/src/exe/rbdock.cxx#4 $)

>  <Rbt.Library>
libRbt.so (2013.1, Build901 2013/11/27)

>  <Rbt.Parameter_File>
/export/apps/rDock/src/rDock_2013.1_src/data/scripts/dock_solv.prm

>  <Rbt.Receptor>
prm/pocket_docking_3.prm

>  <SCORE>
-16.3534

>  <SCORE.INTER>
-16.3534

>  <SCORE.INTER.CONST>
1

>  <SCORE.INTER.POLAR>
0

>  <SCORE.INTER.ROT>
0

>  <SCORE.INTER.SOLV>
4.31874

>  <SCORE.INTER.VDW>
-15.9418

>  <SCORE.INTER.norm>
-1.63534

>  <SCORE.INTRA>
0

>  <SCORE.INTRA.DIHEDRAL>
0

>  <SCORE.INTRA.DIHEDRAL.0>
0

>  <SCORE.INTRA.POLAR>
0

>  <SCORE.INTRA.POLAR.0>
0

>  <SCORE.INTRA.REPUL>
0

>  <SCORE.INTRA.REPUL.0>
0

>  <SCORE.INTRA.SOLV>
0

>  <SCORE.INTRA.SOLV.lig_0>
-4.28614

>  <SCORE.INTRA.VDW>
0

>  <SCORE.INTRA.VDW.0>
0

>  <SCORE.INTRA.norm>
0

>  <SCORE.RESTR>
0

>  <SCORE.RESTR.CAVITY>
0

>  <SCORE.RESTR.norm>
0

>  <SCORE.SYSTEM>
0

>  <SCORE.SYSTEM.CONST>
0

>  <SCORE.SYSTEM.DIHEDRAL>
0

>  <SCORE.SYSTEM.SOLV>
0

>  <SCORE.SYSTEM.norm>
0

>  <SCORE.heavy>
10

>  <SCORE.norm>
-1.63534

>  <RMSD>
2.876

$$$$
ligand
 OpenBabel11021811423D
libRbt.so/2013.1/901 2013/11/27
 10 11  0  0  0  0  0  0  0  0999 V2000
  -11.5357  -13.5874    8.3896 N   0  0  0  0  0  0  0  0  0  0  0  0
  -11.7508  -13.1080    9.6833 C   0  0  0  0  0  0  0  0  0  0  0  0
  -11.9570  -11.8045    9.9430 N   0  0  0  0  0  0  0  0  0  0  0  0
  -11.9366  -11.0091    8.8008 C   0  0  0  0  0  0  0  0  0  0  0  0
  -11.7240  -11.3992    7.4773 C   0  0  0  0  0  0  0  0  0  0  0  0
  -11.4966  -12.7924    7.1950 C   0  0  0  0  0  0  0  0  0  0  0  0
  -11.2937  -13.3666    6.1526 O   0  0  0  0  0  0  0  0  0  0  0  0
  -11.8002  -10.2620    6.6526 N   0  0  0  0  0  0  0  0  0  0  0  0
  -12.0597   -9.2239    7.4927 C   0  0  0  0  0  0  0  0  0  0  0  0
  -12.1481   -9.6568    8.8232 N   0  0  0  0  0  0  0  0  0  0  0  0
  1  2  1  0  0  0  0
  1  6  1  0  0  0  0
  2  3  2  0  0  0  0
  3  4  1  0  0  0  0
  4  5  2  0  0  0  0
  4 10  1  0  0  0  0
  5  6  1  0  0  0  0
  5  8  1  0  0  0  0
  6  7  2  0  0  0  0
  8  9  1  0  0  0  0
  9 10  2  0  0  0  0
M  END
>  <CHROM.1>
-11.76130017,-11.65597772,8.02701494,0.60106626,-1.38687722,2.25292007

>  <Name>
ligand

>  <RI>
0

>  <Rbt.Current_Directory>
/home/itssahil/PROJECTS/Mol_Feturizer/New_Systems/rnas/2EES

>  <Rbt.Executable>
rbdock ($Id: //depot/dev/client3/rdock/2013.1/src/exe/rbdock.cxx#4 $)

>  <Rbt.Library>
libRbt.so (2013.1, Build901 2013/11/27)

>  <Rbt.Parameter_File>
/export/apps/rDock/src/rDock_2013.1_src/data/scripts/dock_solv.prm

>  <Rbt.Receptor>
prm/pocket_docking_5.prm

>  <SCORE>
-16.3752

>  <SCORE.INTER>
-16.3752

>  <SCORE.INTER.CONST>
1

>  <SCORE.INTER.POLAR>
0

>  <SCORE.INTER.ROT>
0

>  <SCORE.INTER.SOLV>
4.3403

>  <SCORE.INTER.VDW>
-15.9635

>  <SCORE.INTER.norm>
-1.63752

>  <SCORE.INTRA>
0

>  <SCORE.INTRA.DIHEDRAL>
0

>  <SCORE.INTRA.DIHEDRAL.0>
0

>  <SCORE.INTRA.POLAR>
0

>  <SCORE.INTRA.POLAR.0>
0

>  <SCORE.INTRA.REPUL>
0

>  <SCORE.INTRA.REPUL.0>
0

>  <SCORE.INTRA.SOLV>
0

>  <SCORE.INTRA.SOLV.lig_0>
-4.28614

>  <SCORE.INTRA.VDW>
0

>  <SCORE.INTRA.VDW.0>
0

>  <SCORE.INTRA.norm>
0

>  <SCORE.RESTR>
0

>  <SCORE.RESTR.CAVITY>
0

>  <SCORE.RESTR.norm>
0

>  <SCORE.SYSTEM>
0

>  <SCORE.SYSTEM.CONST>
0

>  <SCORE.SYSTEM.DIHEDRAL>
0

>  <SCORE.SYSTEM.SOLV>
0

>  <SCORE.SYSTEM.norm>
0

>  <SCORE.heavy>
10

>  <SCORE.norm>
-1.63752

>  <RMSD>
2.888

$$$$
ligand
 OpenBabel11021811423D
libRbt.so/2013.1/901 2013/11/27
 10 11  0  0  0  0  0  0  0  0999 V2000
  -11.5337  -13.5883    8.3327 N   0  0  0  0  0  0  0  0  0  0  0  0
  -11.7215  -13.1282    9.6376 C   0  0  0  0  0  0  0  0  0  0  0  0
  -11.9283  -11.8296    9.9202 N   0  0  0  0  0  0  0  0  0  0  0  0
  -11.9381  -11.0182    8.7892 C   0  0  0  0  0  0  0  0  0  0  0  0
  -11.7539  -11.3886    7.4558 C   0  0  0  0  0  0  0  0  0  0  0  0
  -11.5259  -12.7766    7.1488 C   0  0  0  0  0  0  0  0  0  0  0  0
  -11.3441  -13.3351    6.0940 O   0  0  0  0  0  0  0  0  0  0  0  0
  -11.8548  -10.2405    6.6491 N   0  0  0  0  0  0  0  0  0  0  0  0
  -12.1001   -9.2157    7.5094 C   0  0  0  0  0  0  0  0  0  0  0  0
  -12.1558   -9.6675    8.8354 N   0  0  0  0  0  0  0  0  0  0  0  0
  1  2  1  0  0  0  0
  1  6  1  0  0  0  0
  2  3  2  0  0  0  0
  3  4  1  0  0  0  0
  4  5  2  0  0  0  0
  4 10  1  0  0  0  0
  5  6  1  0  0  0  0
  5  8  1  0  0  0  0
  6  7  2  0  0  0  0
  8  9  1  0  0  0  0
  9 10  2  0  0  0  0
M  END
>  <CHROM.1>
-11.77727014,-11.65329171,8.00253647,0.48005124,-1.39613992,2.14783346

>  <Name>
ligand

>  <RI>
0

>  <Rbt.Current_Directory>
/home/itssahil/PROJECTS/Mol_Feturizer/New_Systems/rnas/2EES

>  <Rbt.Executable>
rbdock ($Id: //depot/dev/client3/rdock/2013.1/src/exe/rbdock.cxx#4 $)

>  <Rbt.Library>
libRbt.so (2013.1, Build901 2013/11/27)

>  <Rbt.Parameter_File>
/export/apps/rDock/src/rDock_2013.1_src/data/scripts/dock_solv.prm

>  <Rbt.Receptor>
prm/pocket_docking_7.prm

>  <SCORE>
-16.3806

>  <SCORE.INTER>
-16.3806

>  <SCORE.INTER.CONST>
1

>  <SCORE.INTER.POLAR>
0

>  <SCORE.INTER.ROT>
0

>  <SCORE.INTER.SOLV>
4.35469

>  <SCORE.INTER.VDW>
-15.972

>  <SCORE.INTER.norm>
-1.63806

>  <SCORE.INTRA>
0

>  <SCORE.INTRA.DIHEDRAL>
0

>  <SCORE.INTRA.DIHEDRAL.0>
0

>  <SCORE.INTRA.POLAR>
0

>  <SCORE.INTRA.POLAR.0>
0

>  <SCORE.INTRA.REPUL>
0

>  <SCORE.INTRA.REPUL.0>
0

>  <SCORE.INTRA.SOLV>
0

>  <SCORE.INTRA.SOLV.lig_0>
-4.28614

>  <SCORE.INTRA.VDW>
0

>  <SCORE.INTRA.VDW.0>
0

>  <SCORE.INTRA.norm>
0

>  <SCORE.RESTR>
0

>  <SCORE.RESTR.CAVITY>
0

>  <SCORE.RESTR.norm>
0

>  <SCORE.SYSTEM>
0

>  <SCORE.SYSTEM.CONST>
0

>  <SCORE.SYSTEM.DIHEDRAL>
0

>  <SCORE.SYSTEM.SOLV>
0

>  <SCORE.SYSTEM.norm>
0

>  <SCORE.heavy>
10

>  <SCORE.norm>
-1.63806

>  <RMSD>
2.890

$$$$
ligand
 OpenBabel11021811423D
libRbt.so/2013.1/901 2013/11/27
 10 11  0  0  0  0  0  0  0  0999 V2000
  -11.5050  -13.5575    8.4045 N   0  0  0  0  0  0  0  0  0  0  0  0
  -11.6909  -13.0741    9.7012 C   0  0  0  0  0  0  0  0  0  0  0  0
  -11.9016  -11.7712    9.9605 N   0  0  0  0  0  0  0  0  0  0  0  0
  -11.9175  -10.9809    8.8146 C   0  0  0  0  0  0  0  0  0  0  0  0
  -11.7357  -11.3752    7.4878 C   0  0  0  0  0  0  0  0  0  0  0  0
  -11.5035  -12.7677    7.2058 C   0  0  0  0  0  0  0  0  0  0  0  0
  -11.3226  -13.3450    6.1610 O   0  0  0  0  0  0  0  0  0  0  0  0
  -11.8430  -10.2425    6.6604 N   0  0  0  0  0  0  0  0  0  0  0  0
  -12.0897   -9.2029    7.5024 C   0  0  0  0  0  0  0  0  0  0  0  0
  -12.1400   -9.6304    8.8366 N   0  0  0  0  0  0  0  0  0  0  0  0
  1  2  1  0  0  0  0
  1  6  1  0  0  0  0
  2  3  2  0  0  0  0
  3  4  1  0  0  0  0
  4  5  2  0  0  0  0
  4 10  1  0  0  0  0
  5  6  1  0  0  0  0
  5  8  1  0  0  0  0
  6  7  2  0  0  0  0
  8  9  1  0  0  0  0
  9 10  2  0  0  0  0
M  END
>  <CHROM.1>
-11.75659319,-11.62978741,8.03941987,0.45537072,-1.39456296,2.10508771

>  <Name>
ligand

>  <RI>
0

>  <Rbt.Current_Directory>
/home/itssahil/PROJECTS/Mol_Feturizer/New_Systems/rnas/2EES

>  <Rbt.Executable>
rbdock ($Id: //depot/dev/client3/rdock/2013.1/src/exe/rbdock.cxx#4 $)

>  <Rbt.Library>
libRbt.so (2013.1, Build901 2013/11/27)

>  <Rbt.Parameter_File>
/export/apps/rDock/src/rDock_2013.1_src/data/scripts/dock_solv.prm

>  <Rbt.Receptor>
prm/blind_docking_60.prm

>  <SCORE>
-16.3863

>  <SCORE.INTER>
-16.3863

>  <SCORE.INTER.CONST>
1

>  <SCORE.INTER.POLAR>
0

>  <SCORE.INTER.ROT>
0

>  <SCORE.INTER.SOLV>
4.34643

>  <SCORE.INTER.VDW>
-15.973

>  <SCORE.INTER.norm>
-1.63863

>  <SCORE.INTRA>
0

>  <SCORE.INTRA.DIHEDRAL>
0

>  <SCORE.INTRA.DIHEDRAL.0>
0

>  <SCORE.INTRA.POLAR>
0

>  <SCORE.INTRA.POLAR.0>
0

>  <SCORE.INTRA.REPUL>
0

>  <SCORE.INTRA.REPUL.0>
0

>  <SCORE.INTRA.SOLV>
0

>  <SCORE.INTRA.SOLV.lig_0>
-4.28614

>  <SCORE.INTRA.VDW>
0

>  <SCORE.INTRA.VDW.0>
0

>  <SCORE.INTRA.norm>
0

>  <SCORE.RESTR>
0

>  <SCORE.RESTR.CAVITY>
0

>  <SCORE.RESTR.norm>
0

>  <SCORE.SYSTEM>
0

>  <SCORE.SYSTEM.CONST>
0

>  <SCORE.SYSTEM.DIHEDRAL>
0

>  <SCORE.SYSTEM.SOLV>
0

>  <SCORE.SYSTEM.norm>
0

>  <SCORE.heavy>
10

>  <SCORE.norm>
-1.63863

>  <RMSD>
2.892

$$$$
ligand
 OpenBabel11021811423D
libRbt.so/2013.1/901 2013/11/27
 10 11  0  0  0  0  0  0  0  0999 V2000
  -11.5373  -13.5994    8.3685 N   0  0  0  0  0  0  0  0  0  0  0  0
  -11.7507  -13.1482    9.6725 C   0  0  0  0  0  0  0  0  0  0  0  0
  -11.9559  -11.8506    9.9607 N   0  0  0  0  0  0  0  0  0  0  0  0
  -11.9366  -11.0305    8.8360 C   0  0  0  0  0  0  0  0  0  0  0  0
  -11.7259  -11.3919    7.5041 C   0  0  0  0  0  0  0  0  0  0  0  0
  -11.4993  -12.7787    7.1913 C   0  0  0  0  0  0  0  0  0  0  0  0
  -11.2980  -13.3303    6.1364 O   0  0  0  0  0  0  0  0  0  0  0  0
  -11.8026  -10.2370    6.7044 N   0  0  0  0  0  0  0  0  0  0  0  0
  -12.0605   -9.2174    7.5671 C   0  0  0  0  0  0  0  0  0  0  0  0
  -12.1475   -9.6790    8.8880 N   0  0  0  0  0  0  0  0  0  0  0  0
  1  2  1  0  0  0  0
  1  6  1  0  0  0  0
  2  3  2  0  0  0  0
  3  4  1  0  0  0  0
  4  5  2  0  0  0  0
  4 10  1  0  0  0  0
  5  6  1  0  0  0  0
  5  8  1  0  0  0  0
  6  7  2  0  0  0  0
  8  9  1  0  0  0  0
  9 10  2  0  0  0  0
M  END
>  <CHROM.1>
-11.76254000,-11.66054879,8.04813006,0.59728251,-1.38799626,2.27090568

>  <Name>
ligand

>  <RI>
0

>  <Rbt.Current_Directory>
/home/itssahil/PROJECTS/Mol_Feturizer/New_Systems/rnas/2EES

>  <Rbt.Executable>
rbdock ($Id: //depot/dev/client3/rdock/2013.1/src/exe/rbdock.cxx#4 $)

>  <Rbt.Library>
libRbt.so (2013.1, Build901 2013/11/27)

>  <Rbt.Parameter_File>
/export/apps/rDock/src/rDock_2013.1_src/data/scripts/dock_solv.prm

>  <Rbt.Receptor>
prm/blind_docking_60.prm

>  <SCORE>
-16.4351

>  <SCORE.INTER>
-16.4351

>  <SCORE.INTER.CONST>
1

>  <SCORE.INTER.POLAR>
0

>  <SCORE.INTER.ROT>
0

>  <SCORE.INTER.SOLV>
4.34201

>  <SCORE.INTER.VDW>
-16.0041

>  <SCORE.INTER.norm>
-1.64351

>  <SCORE.INTRA>
0

>  <SCORE.INTRA.DIHEDRAL>
0

>  <SCORE.INTRA.DIHEDRAL.0>
0

>  <SCORE.INTRA.POLAR>
0

>  <SCORE.INTRA.POLAR.0>
0

>  <SCORE.INTRA.REPUL>
0

>  <SCORE.INTRA.REPUL.0>
0

>  <SCORE.INTRA.SOLV>
0

>  <SCORE.INTRA.SOLV.lig_0>
-4.28614

>  <SCORE.INTRA.VDW>
0

>  <SCORE.INTRA.VDW.0>
0

>  <SCORE.INTRA.norm>
0

>  <SCORE.RESTR>
0

>  <SCORE.RESTR.CAVITY>
0

>  <SCORE.RESTR.norm>
0

>  <SCORE.SYSTEM>
0

>  <SCORE.SYSTEM.CONST>
0

>  <SCORE.SYSTEM.DIHEDRAL>
0

>  <SCORE.SYSTEM.SOLV>
0

>  <SCORE.SYSTEM.norm>
0

>  <SCORE.heavy>
10

>  <SCORE.norm>
-1.64351

>  <RMSD>
2.897

$$$$
ligand
 OpenBabel11021811423D
libRbt.so/2013.1/901 2013/11/27
 10 11  0  0  0  0  0  0  0  0999 V2000
  -11.5334  -11.0306    5.9587 N   0  0  0  0  0  0  0  0  0  0  0  0
  -11.2414  -12.3727    5.7079 C   0  0  0  0  0  0  0  0  0  0  0  0
  -11.2196  -13.2991    6.6827 N   0  0  0  0  0  0  0  0  0  0  0  0
  -11.5195  -12.7790    7.9387 C   0  0  0  0  0  0  0  0  0  0  0  0
  -11.8158  -11.4584    8.2811 C   0  0  0  0  0  0  0  0  0  0  0  0
  -11.8339  -10.4620    7.2421 C   0  0  0  0  0  0  0  0  0  0  0  0
  -12.0597   -9.2768    7.2850 O   0  0  0  0  0  0  0  0  0  0  0  0
  -12.0634  -11.3943    9.6644 N   0  0  0  0  0  0  0  0  0  0  0  0
  -11.9162  -12.6688   10.1166 C   0  0  0  0  0  0  0  0  0  0  0  0
  -11.5801  -13.5427    9.0731 N   0  0  0  0  0  0  0  0  0  0  0  0
  1  2  1  0  0  0  0
  1  6  1  0  0  0  0
  2  3  2  0  0  0  0
  3  4  1  0  0  0  0
  4  5  2  0  0  0  0
  4 10  1  0  0  0  0
  5  6  1  0  0  0  0
  5  8  1  0  0  0  0
  6  7  2  0  0  0  0
  8  9  1  0  0  0  0
  9 10  2  0  0  0  0
M  END
>  <CHROM.1>
-11.68503197,-11.78090124,7.78262887,-1.47940409,-1.33003066,2.30333394

>  <Name>
ligand

>  <RI>
0

>  <Rbt.Current_Directory>
/home/itssahil/PROJECTS/Mol_Feturizer/New_Systems/rnas/2EES

>  <Rbt.Executable>
rbdock ($Id: //depot/dev/client3/rdock/2013.1/src/exe/rbdock.cxx#4 $)

>  <Rbt.Library>
libRbt.so (2013.1, Build901 2013/11/27)

>  <Rbt.Parameter_File>
/export/apps/rDock/src/rDock_2013.1_src/data/scripts/dock_solv.prm

>  <Rbt.Receptor>
prm/blind_docking_100.prm

>  <SCORE>
-16.5329

>  <SCORE.INTER>
-16.5329

>  <SCORE.INTER.CONST>
1

>  <SCORE.INTER.POLAR>
0

>  <SCORE.INTER.ROT>
0

>  <SCORE.INTER.SOLV>
3.70838

>  <SCORE.INTER.VDW>
-15.858

>  <SCORE.INTER.norm>
-1.65329

>  <SCORE.INTRA>
0

>  <SCORE.INTRA.DIHEDRAL>
0

>  <SCORE.INTRA.DIHEDRAL.0>
0

>  <SCORE.INTRA.POLAR>
0

>  <SCORE.INTRA.POLAR.0>
0

>  <SCORE.INTRA.REPUL>
0

>  <SCORE.INTRA.REPUL.0>
0

>  <SCORE.INTRA.SOLV>
0

>  <SCORE.INTRA.SOLV.lig_0>
-4.28614

>  <SCORE.INTRA.VDW>
0

>  <SCORE.INTRA.VDW.0>
0

>  <SCORE.INTRA.norm>
0

>  <SCORE.RESTR>
0

>  <SCORE.RESTR.CAVITY>
0

>  <SCORE.RESTR.norm>
0

>  <SCORE.SYSTEM>
0

>  <SCORE.SYSTEM.CONST>
0

>  <SCORE.SYSTEM.DIHEDRAL>
0

>  <SCORE.SYSTEM.SOLV>
0

>  <SCORE.SYSTEM.norm>
0

>  <SCORE.heavy>
10

>  <SCORE.norm>
-1.65329

>  <RMSD>
2.917

$$$$
ligand
 OpenBabel11021811423D
libRbt.so/2013.1/901 2013/11/27
 10 11  0  0  0  0  0  0  0  0999 V2000
  -11.5071  -11.1201    5.8930 N   0  0  0  0  0  0  0  0  0  0  0  0
  -11.2458  -12.4733    5.6691 C   0  0  0  0  0  0  0  0  0  0  0  0
  -11.2357  -13.3788    6.6636 N   0  0  0  0  0  0  0  0  0  0  0  0
  -11.5141  -12.8255    7.9102 C   0  0  0  0  0  0  0  0  0  0  0  0
  -11.7793  -11.4917    8.2262 C   0  0  0  0  0  0  0  0  0  0  0  0
  -11.7848  -10.5178    7.1660 C   0  0  0  0  0  0  0  0  0  0  0  0
  -11.9849   -9.3273    7.1850 O   0  0  0  0  0  0  0  0  0  0  0  0
  -12.0141  -11.3926    9.6097 N   0  0  0  0  0  0  0  0  0  0  0  0
  -11.8903  -12.6599   10.0883 C   0  0  0  0  0  0  0  0  0  0  0  0
  -11.5816  -13.5630    9.0614 N   0  0  0  0  0  0  0  0  0  0  0  0
  1  2  1  0  0  0  0
  1  6  1  0  0  0  0
  2  3  2  0  0  0  0
  3  4  1  0  0  0  0
  4  5  2  0  0  0  0
  4 10  1  0  0  0  0
  5  6  1  0  0  0  0
  5  8  1  0  0  0  0
  6  7  2  0  0  0  0
  8  9  1  0  0  0  0
  9 10  2  0  0  0  0
M  END
>  <CHROM.1>
-11.65959060,-11.82760169,7.73388081,-1.44214017,-1.35123848,2.31800527

>  <Name>
ligand

>  <RI>
0

>  <Rbt.Current_Directory>
/home/itssahil/PROJECTS/Mol_Feturizer/New_Systems/rnas/2EES

>  <Rbt.Executable>
rbdock ($Id: //depot/dev/client3/rdock/2013.1/src/exe/rbdock.cxx#4 $)

>  <Rbt.Library>
libRbt.so (2013.1, Build901 2013/11/27)

>  <Rbt.Parameter_File>
/export/apps/rDock/src/rDock_2013.1_src/data/scripts/dock_solv.prm

>  <Rbt.Receptor>
prm/pocket_docking_3.prm

>  <SCORE>
-16.5297

>  <SCORE.INTER>
-16.5297

>  <SCORE.INTER.CONST>
1

>  <SCORE.INTER.POLAR>
0

>  <SCORE.INTER.ROT>
0

>  <SCORE.INTER.SOLV>
3.8016

>  <SCORE.INTER.VDW>
-15.887

>  <SCORE.INTER.norm>
-1.65297

>  <SCORE.INTRA>
0

>  <SCORE.INTRA.DIHEDRAL>
0

>  <SCORE.INTRA.DIHEDRAL.0>
0

>  <SCORE.INTRA.POLAR>
0

>  <SCORE.INTRA.POLAR.0>
0

>  <SCORE.INTRA.REPUL>
0

>  <SCORE.INTRA.REPUL.0>
0

>  <SCORE.INTRA.SOLV>
0

>  <SCORE.INTRA.SOLV.lig_0>
-4.28614

>  <SCORE.INTRA.VDW>
0

>  <SCORE.INTRA.VDW.0>
0

>  <SCORE.INTRA.norm>
0

>  <SCORE.RESTR>
0

>  <SCORE.RESTR.CAVITY>
0

>  <SCORE.RESTR.norm>
0

>  <SCORE.SYSTEM>
0

>  <SCORE.SYSTEM.CONST>
0

>  <SCORE.SYSTEM.DIHEDRAL>
0

>  <SCORE.SYSTEM.SOLV>
0

>  <SCORE.SYSTEM.norm>
0

>  <SCORE.heavy>
10

>  <SCORE.norm>
-1.65297

>  <RMSD>
2.921

$$$$
ligand
 OpenBabel11021811423D
libRbt.so/2013.1/901 2013/11/27
 10 11  0  0  0  0  0  0  0  0999 V2000
  -11.4683  -11.1386    5.8851 N   0  0  0  0  0  0  0  0  0  0  0  0
  -11.2244  -12.4938    5.6538 C   0  0  0  0  0  0  0  0  0  0  0  0
  -11.2378  -13.4066    6.6416 N   0  0  0  0  0  0  0  0  0  0  0  0
  -11.5209  -12.8583    7.8894 C   0  0  0  0  0  0  0  0  0  0  0  0
  -11.7700  -11.5232    8.2126 C   0  0  0  0  0  0  0  0  0  0  0  0
  -11.7504  -10.5416    7.1597 C   0  0  0  0  0  0  0  0  0  0  0  0
  -11.9334   -9.3485    7.1855 O   0  0  0  0  0  0  0  0  0  0  0  0
  -12.0176  -11.4308    9.5943 N   0  0  0  0  0  0  0  0  0  0  0  0
  -11.9172  -12.7033   10.0647 C   0  0  0  0  0  0  0  0  0  0  0  0
  -11.6110  -13.6032    9.0343 N   0  0  0  0  0  0  0  0  0  0  0  0
  1  2  1  0  0  0  0
  1  6  1  0  0  0  0
  2  3  2  0  0  0  0
  3  4  1  0  0  0  0
  4  5  2  0  0  0  0
  4 10  1  0  0  0  0
  5  6  1  0  0  0  0
  5  8  1  0  0  0  0
  6  7  2  0  0  0  0
  8  9  1  0  0  0  0
  9 10  2  0  0  0  0
M  END
>  <CHROM.1>
-11.65011456,-11.85720171,7.71902538,-1.36088658,-1.35417998,2.40472155

>  <Name>
ligand

>  <RI>
0

>  <Rbt.Current_Directory>
/home/itssahil/PROJECTS/Mol_Feturizer/New_Systems/rnas/2EES

>  <Rbt.Executable>
rbdock ($Id: //depot/dev/client3/rdock/2013.1/src/exe/rbdock.cxx#4 $)

>  <Rbt.Library>
libRbt.so (2013.1, Build901 2013/11/27)

>  <Rbt.Parameter_File>
/export/apps/rDock/src/rDock_2013.1_src/data/scripts/dock_solv.prm

>  <Rbt.Receptor>
prm/pocket_docking_5.prm

>  <SCORE>
-16.556

>  <SCORE.INTER>
-16.556

>  <SCORE.INTER.CONST>
1

>  <SCORE.INTER.POLAR>
0

>  <SCORE.INTER.ROT>
0

>  <SCORE.INTER.SOLV>
3.83995

>  <SCORE.INTER.VDW>
-15.9173

>  <SCORE.INTER.norm>
-1.6556

>  <SCORE.INTRA>
0

>  <SCORE.INTRA.DIHEDRAL>
0

>  <SCORE.INTRA.DIHEDRAL.0>
0

>  <SCORE.INTRA.POLAR>
0

>  <SCORE.INTRA.POLAR.0>
0

>  <SCORE.INTRA.REPUL>
0

>  <SCORE.INTRA.REPUL.0>
0

>  <SCORE.INTRA.SOLV>
0

>  <SCORE.INTRA.SOLV.lig_0>
-4.28614

>  <SCORE.INTRA.VDW>
0

>  <SCORE.INTRA.VDW.0>
0

>  <SCORE.INTRA.norm>
0

>  <SCORE.RESTR>
0

>  <SCORE.RESTR.CAVITY>
0

>  <SCORE.RESTR.norm>
0

>  <SCORE.SYSTEM>
0

>  <SCORE.SYSTEM.CONST>
0

>  <SCORE.SYSTEM.DIHEDRAL>
0

>  <SCORE.SYSTEM.SOLV>
0

>  <SCORE.SYSTEM.norm>
0

>  <SCORE.heavy>
10

>  <SCORE.norm>
-1.6556

>  <RMSD>
2.923

$$$$
ligand
 OpenBabel11021811423D
libRbt.so/2013.1/901 2013/11/27
 10 11  0  0  0  0  0  0  0  0999 V2000
  -11.4823  -11.1315    5.8920 N   0  0  0  0  0  0  0  0  0  0  0  0
  -11.2398  -12.4894    5.6754 C   0  0  0  0  0  0  0  0  0  0  0  0
  -11.2507  -13.3908    6.6736 N   0  0  0  0  0  0  0  0  0  0  0  0
  -11.5298  -12.8281    7.9160 C   0  0  0  0  0  0  0  0  0  0  0  0
  -11.7772  -11.4892    8.2246 C   0  0  0  0  0  0  0  0  0  0  0  0
  -11.7602  -10.5197    7.1605 C   0  0  0  0  0  0  0  0  0  0  0  0
  -11.9424   -9.3263    7.1732 O   0  0  0  0  0  0  0  0  0  0  0  0
  -12.0206  -11.3808    9.6059 N   0  0  0  0  0  0  0  0  0  0  0  0
  -11.9195  -12.6479   10.0905 C   0  0  0  0  0  0  0  0  0  0  0  0
  -11.6169  -13.5598    9.0696 N   0  0  0  0  0  0  0  0  0  0  0  0
  1  2  1  0  0  0  0
  1  6  1  0  0  0  0
  2  3  2  0  0  0  0
  3  4  1  0  0  0  0
  4  5  2  0  0  0  0
  4 10  1  0  0  0  0
  5  6  1  0  0  0  0
  5  8  1  0  0  0  0
  6  7  2  0  0  0  0
  8  9  1  0  0  0  0
  9 10  2  0  0  0  0
M  END
>  <CHROM.1>
-11.65893177,-11.82892324,7.73451985,-1.36840870,-1.35677235,2.38593470

>  <Name>
ligand

>  <RI>
0

>  <Rbt.Current_Directory>
/home/itssahil/PROJECTS/Mol_Feturizer/New_Systems/rnas/2EES

>  <Rbt.Executable>
rbdock ($Id: //depot/dev/client3/rdock/2013.1/src/exe/rbdock.cxx#4 $)

>  <Rbt.Library>
libRbt.so (2013.1, Build901 2013/11/27)

>  <Rbt.Parameter_File>
/export/apps/rDock/src/rDock_2013.1_src/data/scripts/dock_solv.prm

>  <Rbt.Receptor>
prm/blind_docking_40.prm

>  <SCORE>
-16.5505

>  <SCORE.INTER>
-16.5505

>  <SCORE.INTER.CONST>
1

>  <SCORE.INTER.POLAR>
0

>  <SCORE.INTER.ROT>
0

>  <SCORE.INTER.SOLV>
3.83345

>  <SCORE.INTER.VDW>
-15.9115

>  <SCORE.INTER.norm>
-1.65505

>  <SCORE.INTRA>
0

>  <SCORE.INTRA.DIHEDRAL>
0

>  <SCORE.INTRA.DIHEDRAL.0>
0

>  <SCORE.INTRA.POLAR>
0

>  <SCORE.INTRA.POLAR.0>
0

>  <SCORE.INTRA.REPUL>
0

>  <SCORE.INTRA.REPUL.0>
0

>  <SCORE.INTRA.SOLV>
0

>  <SCORE.INTRA.SOLV.lig_0>
-4.28614

>  <SCORE.INTRA.VDW>
0

>  <SCORE.INTRA.VDW.0>
0

>  <SCORE.INTRA.norm>
0

>  <SCORE.RESTR>
0

>  <SCORE.RESTR.CAVITY>
0

>  <SCORE.RESTR.norm>
0

>  <SCORE.SYSTEM>
0

>  <SCORE.SYSTEM.CONST>
0

>  <SCORE.SYSTEM.DIHEDRAL>
0

>  <SCORE.SYSTEM.SOLV>
0

>  <SCORE.SYSTEM.norm>
0

>  <SCORE.heavy>
10

>  <SCORE.norm>
-1.65505

>  <RMSD>
2.924

$$$$
ligand
 OpenBabel11021811423D
libRbt.so/2013.1/901 2013/11/27
 10 11  0  0  0  0  0  0  0  0999 V2000
  -11.4902  -11.1539    5.8868 N   0  0  0  0  0  0  0  0  0  0  0  0
  -11.2365  -12.5090    5.6660 C   0  0  0  0  0  0  0  0  0  0  0  0
  -11.2393  -13.4135    6.6615 N   0  0  0  0  0  0  0  0  0  0  0  0
  -11.5224  -12.8570    7.9056 C   0  0  0  0  0  0  0  0  0  0  0  0
  -11.7808  -11.5212    8.2185 C   0  0  0  0  0  0  0  0  0  0  0  0
  -11.7725  -10.5483    7.1574 C   0  0  0  0  0  0  0  0  0  0  0  0
  -11.9647   -9.3565    7.1738 O   0  0  0  0  0  0  0  0  0  0  0  0
  -12.0244  -11.4191    9.6003 N   0  0  0  0  0  0  0  0  0  0  0  0
  -11.9124  -12.6868   10.0809 C   0  0  0  0  0  0  0  0  0  0  0  0
  -11.6027  -13.5930    9.0571 N   0  0  0  0  0  0  0  0  0  0  0  0
  1  2  1  0  0  0  0
  1  6  1  0  0  0  0
  2  3  2  0  0  0  0
  3  4  1  0  0  0  0
  4  5  2  0  0  0  0
  4 10  1  0  0  0  0
  5  6  1  0  0  0  0
  5  8  1  0  0  0  0
  6  7  2  0  0  0  0
  8  9  1  0  0  0  0
  9 10  2  0  0  0  0
M  END
>  <CHROM.1>
-11.65998760,-11.85840514,7.72733402,-1.39811179,-1.35134460,2.35998711

>  <Name>
ligand

>  <RI>
0

>  <Rbt.Current_Directory>
/home/itssahil/PROJECTS/Mol_Feturizer/New_Systems/rnas/2EES

>  <Rbt.Executable>
rbdock ($Id: //depot/dev/client3/rdock/2013.1/src/exe/rbdock.cxx#4 $)

>  <Rbt.Library>
libRbt.so (2013.1, Build901 2013/11/27)

>  <Rbt.Parameter_File>
/export/apps/rDock/src/rDock_2013.1_src/data/scripts/dock_solv.prm

>  <Rbt.Receptor>
prm/blind_docking_80.prm

>  <SCORE>
-16.5636

>  <SCORE.INTER>
-16.5636

>  <SCORE.INTER.CONST>
1

>  <SCORE.INTER.POLAR>
0

>  <SCORE.INTER.ROT>
0

>  <SCORE.INTER.SOLV>
3.81451

>  <SCORE.INTER.VDW>
-15.9139

>  <SCORE.INTER.norm>
-1.65636

>  <SCORE.INTRA>
0

>  <SCORE.INTRA.DIHEDRAL>
0

>  <SCORE.INTRA.DIHEDRAL.0>
0

>  <SCORE.INTRA.POLAR>
0

>  <SCORE.INTRA.POLAR.0>
0

>  <SCORE.INTRA.REPUL>
0

>  <SCORE.INTRA.REPUL.0>
0

>  <SCORE.INTRA.SOLV>
0

>  <SCORE.INTRA.SOLV.lig_0>
-4.28614

>  <SCORE.INTRA.VDW>
0

>  <SCORE.INTRA.VDW.0>
0

>  <SCORE.INTRA.norm>
0

>  <SCORE.RESTR>
0

>  <SCORE.RESTR.CAVITY>
0

>  <SCORE.RESTR.norm>
0

>  <SCORE.SYSTEM>
0

>  <SCORE.SYSTEM.CONST>
0

>  <SCORE.SYSTEM.DIHEDRAL>
0

>  <SCORE.SYSTEM.SOLV>
0

>  <SCORE.SYSTEM.norm>
0

>  <SCORE.heavy>
10

>  <SCORE.norm>
-1.65636

>  <RMSD>
2.924

$$$$
ligand
 OpenBabel11021811423D
libRbt.so/2013.1/901 2013/11/27
 10 11  0  0  0  0  0  0  0  0999 V2000
  -11.4853  -11.1261    5.8966 N   0  0  0  0  0  0  0  0  0  0  0  0
  -11.2390  -12.4832    5.6798 C   0  0  0  0  0  0  0  0  0  0  0  0
  -11.2481  -13.3850    6.6777 N   0  0  0  0  0  0  0  0  0  0  0  0
  -11.5296  -12.8235    7.9200 C   0  0  0  0  0  0  0  0  0  0  0  0
  -11.7808  -11.4854    8.2289 C   0  0  0  0  0  0  0  0  0  0  0  0
  -11.7658  -10.5155    7.1651 C   0  0  0  0  0  0  0  0  0  0  0  0
  -11.9513   -9.3226    7.1780 O   0  0  0  0  0  0  0  0  0  0  0  0
  -12.0255  -11.3781    9.6101 N   0  0  0  0  0  0  0  0  0  0  0  0
  -11.9213  -12.6451   10.0943 C   0  0  0  0  0  0  0  0  0  0  0  0
  -11.6155  -13.5559    9.0733 N   0  0  0  0  0  0  0  0  0  0  0  0
  1  2  1  0  0  0  0
  1  6  1  0  0  0  0
  2  3  2  0  0  0  0
  3  4  1  0  0  0  0
  4  5  2  0  0  0  0
  4 10  1  0  0  0  0
  5  6  1  0  0  0  0
  5  8  1  0  0  0  0
  6  7  2  0  0  0  0
  8  9  1  0  0  0  0
  9 10  2  0  0  0  0
M  END
>  <CHROM.1>
-11.66135297,-11.82463326,7.73877374,-1.37543663,-1.35439216,2.37939221

>  <Name>
ligand

>  <RI>
0

>  <Rbt.Current_Directory>
/home/itssahil/PROJECTS/Mol_Feturizer/New_Systems/rnas/2EES

>  <Rbt.Executable>
rbdock ($Id: //depot/dev/client3/rdock/2013.1/src/exe/rbdock.cxx#4 $)

>  <Rbt.Library>
libRbt.so (2013.1, Build901 2013/11/27)

>  <Rbt.Parameter_File>
/export/apps/rDock/src/rDock_2013.1_src/data/scripts/dock_solv.prm

>  <Rbt.Receptor>
prm/pocket_docking_5.prm

>  <SCORE>
-16.5498

>  <SCORE.INTER>
-16.5498

>  <SCORE.INTER.CONST>
1

>  <SCORE.INTER.POLAR>
0

>  <SCORE.INTER.ROT>
0

>  <SCORE.INTER.SOLV>
3.82361

>  <SCORE.INTER.VDW>
-15.9078

>  <SCORE.INTER.norm>
-1.65498

>  <SCORE.INTRA>
0

>  <SCORE.INTRA.DIHEDRAL>
0

>  <SCORE.INTRA.DIHEDRAL.0>
0

>  <SCORE.INTRA.POLAR>
0

>  <SCORE.INTRA.POLAR.0>
0

>  <SCORE.INTRA.REPUL>
0

>  <SCORE.INTRA.REPUL.0>
0

>  <SCORE.INTRA.SOLV>
0

>  <SCORE.INTRA.SOLV.lig_0>
-4.28614

>  <SCORE.INTRA.VDW>
0

>  <SCORE.INTRA.VDW.0>
0

>  <SCORE.INTRA.norm>
0

>  <SCORE.RESTR>
0

>  <SCORE.RESTR.CAVITY>
0

>  <SCORE.RESTR.norm>
0

>  <SCORE.SYSTEM>
0

>  <SCORE.SYSTEM.CONST>
0

>  <SCORE.SYSTEM.DIHEDRAL>
0

>  <SCORE.SYSTEM.SOLV>
0

>  <SCORE.SYSTEM.norm>
0

>  <SCORE.heavy>
10

>  <SCORE.norm>
-1.65498

>  <RMSD>
2.924

$$$$
ligand
 OpenBabel11021811423D
libRbt.so/2013.1/901 2013/11/27
 10 11  0  0  0  0  0  0  0  0999 V2000
  -11.4747  -11.1752    5.9105 N   0  0  0  0  0  0  0  0  0  0  0  0
  -11.1677  -12.5224    5.7093 C   0  0  0  0  0  0  0  0  0  0  0  0
  -11.1288  -13.4104    6.7188 N   0  0  0  0  0  0  0  0  0  0  0  0
  -11.4276  -12.8461    7.9558 C   0  0  0  0  0  0  0  0  0  0  0  0
  -11.7380  -11.5170    8.2492 C   0  0  0  0  0  0  0  0  0  0  0  0
  -11.7746  -10.5615    7.1730 C   0  0  0  0  0  0  0  0  0  0  0  0
  -12.0146   -9.3783    7.1719 O   0  0  0  0  0  0  0  0  0  0  0  0
  -11.9783  -11.4028    9.6307 N   0  0  0  0  0  0  0  0  0  0  0  0
  -11.8128  -12.6572   10.1304 C   0  0  0  0  0  0  0  0  0  0  0  0
  -11.4722  -13.5663    9.1190 N   0  0  0  0  0  0  0  0  0  0  0  0
  1  2  1  0  0  0  0
  1  6  1  0  0  0  0
  2  3  2  0  0  0  0
  3  4  1  0  0  0  0
  4  5  2  0  0  0  0
  4 10  1  0  0  0  0
  5  6  1  0  0  0  0
  5  8  1  0  0  0  0
  6  7  2  0  0  0  0
  8  9  1  0  0  0  0
  9 10  2  0  0  0  0
M  END
>  <CHROM.1>
-11.60632033,-11.85676690,7.76269364,-1.53113381,-1.32452091,2.21478762

>  <Name>
ligand

>  <RI>
0

>  <Rbt.Current_Directory>
/home/itssahil/PROJECTS/Mol_Feturizer/New_Systems/rnas/2EES

>  <Rbt.Executable>
rbdock ($Id: //depot/dev/client3/rdock/2013.1/src/exe/rbdock.cxx#4 $)

>  <Rbt.Library>
libRbt.so (2013.1, Build901 2013/11/27)

>  <Rbt.Parameter_File>
/export/apps/rDock/src/rDock_2013.1_src/data/scripts/dock_solv.prm

>  <Rbt.Receptor>
prm/pocket_docking_7.prm

>  <SCORE>
-16.5344

>  <SCORE.INTER>
-16.5344

>  <SCORE.INTER.CONST>
1

>  <SCORE.INTER.POLAR>
0

>  <SCORE.INTER.ROT>
0

>  <SCORE.INTER.SOLV>
3.75395

>  <SCORE.INTER.VDW>
-15.8743

>  <SCORE.INTER.norm>
-1.65344

>  <SCORE.INTRA>
0

>  <SCORE.INTRA.DIHEDRAL>
0

>  <SCORE.INTRA.DIHEDRAL.0>
0

>  <SCORE.INTRA.POLAR>
0

>  <SCORE.INTRA.POLAR.0>
0

>  <SCORE.INTRA.REPUL>
0

>  <SCORE.INTRA.REPUL.0>
0

>  <SCORE.INTRA.SOLV>
0

>  <SCORE.INTRA.SOLV.lig_0>
-4.28614

>  <SCORE.INTRA.VDW>
0

>  <SCORE.INTRA.VDW.0>
0

>  <SCORE.INTRA.norm>
0

>  <SCORE.RESTR>
0

>  <SCORE.RESTR.CAVITY>
0

>  <SCORE.RESTR.norm>
0

>  <SCORE.SYSTEM>
0

>  <SCORE.SYSTEM.CONST>
0

>  <SCORE.SYSTEM.DIHEDRAL>
0

>  <SCORE.SYSTEM.SOLV>
0

>  <SCORE.SYSTEM.norm>
0

>  <SCORE.heavy>
10

>  <SCORE.norm>
-1.65344

>  <RMSD>
2.924

$$$$
ligand
 OpenBabel11021811423D
libRbt.so/2013.1/901 2013/11/27
 10 11  0  0  0  0  0  0  0  0999 V2000
  -11.5021  -11.1698    5.8834 N   0  0  0  0  0  0  0  0  0  0  0  0
  -11.2508  -12.5267    5.6708 C   0  0  0  0  0  0  0  0  0  0  0  0
  -11.2500  -13.4243    6.6725 N   0  0  0  0  0  0  0  0  0  0  0  0
  -11.5267  -12.8589    7.9140 C   0  0  0  0  0  0  0  0  0  0  0  0
  -11.7822  -11.5207    8.2188 C   0  0  0  0  0  0  0  0  0  0  0  0
  -11.7778  -10.5552    7.1510 C   0  0  0  0  0  0  0  0  0  0  0  0
  -11.9687   -9.3631    7.1601 O   0  0  0  0  0  0  0  0  0  0  0  0
  -12.0192  -11.4087    9.6010 N   0  0  0  0  0  0  0  0  0  0  0  0
  -11.9063  -12.6732   10.0899 C   0  0  0  0  0  0  0  0  0  0  0  0
  -11.6024  -13.5868    9.0709 N   0  0  0  0  0  0  0  0  0  0  0  0
  1  2  1  0  0  0  0
  1  6  1  0  0  0  0
  2  3  2  0  0  0  0
  3  4  1  0  0  0  0
  4  5  2  0  0  0  0
  4 10  1  0  0  0  0
  5  6  1  0  0  0  0
  5  8  1  0  0  0  0
  6  7  2  0  0  0  0
  8  9  1  0  0  0  0
  9 10  2  0  0  0  0
M  END
>  <CHROM.1>
-11.66405235,-11.86141978,7.72947313,-1.41003100,-1.35537547,2.34142242

>  <Name>
ligand

>  <RI>
0

>  <Rbt.Current_Directory>
/home/itssahil/PROJECTS/Mol_Feturizer/New_Systems/rnas/2EES

>  <Rbt.Executable>
rbdock ($Id: //depot/dev/client3/rdock/2013.1/src/exe/rbdock.cxx#4 $)

>  <Rbt.Library>
libRbt.so (2013.1, Build901 2013/11/27)

>  <Rbt.Parameter_File>
/export/apps/rDock/src/rDock_2013.1_src/data/scripts/dock_solv.prm

>  <Rbt.Receptor>
prm/pocket_docking_8.prm

>  <SCORE>
-16.5666

>  <SCORE.INTER>
-16.5666

>  <SCORE.INTER.CONST>
1

>  <SCORE.INTER.POLAR>
0

>  <SCORE.INTER.ROT>
0

>  <SCORE.INTER.SOLV>
3.818

>  <SCORE.INTER.VDW>
-15.917

>  <SCORE.INTER.norm>
-1.65666

>  <SCORE.INTRA>
0

>  <SCORE.INTRA.DIHEDRAL>
0

>  <SCORE.INTRA.DIHEDRAL.0>
0

>  <SCORE.INTRA.POLAR>
0

>  <SCORE.INTRA.POLAR.0>
0

>  <SCORE.INTRA.REPUL>
0

>  <SCORE.INTRA.REPUL.0>
0

>  <SCORE.INTRA.SOLV>
0

>  <SCORE.INTRA.SOLV.lig_0>
-4.28614

>  <SCORE.INTRA.VDW>
0

>  <SCORE.INTRA.VDW.0>
0

>  <SCORE.INTRA.norm>
0

>  <SCORE.RESTR>
0

>  <SCORE.RESTR.CAVITY>
0

>  <SCORE.RESTR.norm>
0

>  <SCORE.SYSTEM>
0

>  <SCORE.SYSTEM.CONST>
0

>  <SCORE.SYSTEM.DIHEDRAL>
0

>  <SCORE.SYSTEM.SOLV>
0

>  <SCORE.SYSTEM.norm>
0

>  <SCORE.heavy>
10

>  <SCORE.norm>
-1.65666

>  <RMSD>
2.925

$$$$
ligand
 OpenBabel11021811423D
libRbt.so/2013.1/901 2013/11/27
 10 11  0  0  0  0  0  0  0  0999 V2000
  -11.5035  -11.1600    5.9006 N   0  0  0  0  0  0  0  0  0  0  0  0
  -11.2494  -12.5158    5.6843 C   0  0  0  0  0  0  0  0  0  0  0  0
  -11.2532  -13.4172    6.6826 N   0  0  0  0  0  0  0  0  0  0  0  0
  -11.5378  -12.8568    7.9247 C   0  0  0  0  0  0  0  0  0  0  0  0
  -11.7966  -11.5201    8.2331 C   0  0  0  0  0  0  0  0  0  0  0  0
  -11.7873  -10.5505    7.1689 C   0  0  0  0  0  0  0  0  0  0  0  0
  -11.9797   -9.3587    7.1814 O   0  0  0  0  0  0  0  0  0  0  0  0
  -12.0417  -11.4136    9.6143 N   0  0  0  0  0  0  0  0  0  0  0  0
  -11.9301  -12.6798   10.0990 C   0  0  0  0  0  0  0  0  0  0  0  0
  -11.6193  -13.5892    9.0783 N   0  0  0  0  0  0  0  0  0  0  0  0
  1  2  1  0  0  0  0
  1  6  1  0  0  0  0
  2  3  2  0  0  0  0
  3  4  1  0  0  0  0
  4  5  2  0  0  0  0
  4 10  1  0  0  0  0
  5  6  1  0  0  0  0
  5  8  1  0  0  0  0
  6  7  2  0  0  0  0
  8  9  1  0  0  0  0
  9 10  2  0  0  0  0
M  END
>  <CHROM.1>
-11.67526104,-11.85878654,7.74309660,-1.39496814,-1.35047395,2.35991522

>  <Name>
ligand

>  <RI>
0

>  <Rbt.Current_Directory>
/home/itssahil/PROJECTS/Mol_Feturizer/New_Systems/rnas/2EES

>  <Rbt.Executable>
rbdock ($Id: //depot/dev/client3/rdock/2013.1/src/exe/rbdock.cxx#4 $)

>  <Rbt.Library>
libRbt.so (2013.1, Build901 2013/11/27)

>  <Rbt.Parameter_File>
/export/apps/rDock/src/rDock_2013.1_src/data/scripts/dock_solv.prm

>  <Rbt.Receptor>
prm/blind_docking_100.prm

>  <SCORE>
-16.5685

>  <SCORE.INTER>
-16.5685

>  <SCORE.INTER.CONST>
1

>  <SCORE.INTER.POLAR>
0

>  <SCORE.INTER.ROT>
0

>  <SCORE.INTER.SOLV>
3.79697

>  <SCORE.INTER.VDW>
-15.9113

>  <SCORE.INTER.norm>
-1.65685

>  <SCORE.INTRA>
0

>  <SCORE.INTRA.DIHEDRAL>
0

>  <SCORE.INTRA.DIHEDRAL.0>
0

>  <SCORE.INTRA.POLAR>
0

>  <SCORE.INTRA.POLAR.0>
0

>  <SCORE.INTRA.REPUL>
0

>  <SCORE.INTRA.REPUL.0>
0

>  <SCORE.INTRA.SOLV>
0

>  <SCORE.INTRA.SOLV.lig_0>
-4.28614

>  <SCORE.INTRA.VDW>
0

>  <SCORE.INTRA.VDW.0>
0

>  <SCORE.INTRA.norm>
0

>  <SCORE.RESTR>
0

>  <SCORE.RESTR.CAVITY>
0

>  <SCORE.RESTR.norm>
0

>  <SCORE.SYSTEM>
0

>  <SCORE.SYSTEM.CONST>
0

>  <SCORE.SYSTEM.DIHEDRAL>
0

>  <SCORE.SYSTEM.SOLV>
0

>  <SCORE.SYSTEM.norm>
0

>  <SCORE.heavy>
10

>  <SCORE.norm>
-1.65685

>  <RMSD>
2.926

$$$$
ligand
 OpenBabel11021811423D
libRbt.so/2013.1/901 2013/11/27
 10 11  0  0  0  0  0  0  0  0999 V2000
  -11.4814  -11.1804    5.8930 N   0  0  0  0  0  0  0  0  0  0  0  0
  -11.2023  -12.5332    5.6890 C   0  0  0  0  0  0  0  0  0  0  0  0
  -11.1934  -13.4261    6.6948 N   0  0  0  0  0  0  0  0  0  0  0  0
  -11.4923  -12.8606    7.9312 C   0  0  0  0  0  0  0  0  0  0  0  0
  -11.7761  -11.5262    8.2275 C   0  0  0  0  0  0  0  0  0  0  0  0
  -11.7804  -10.5656    7.1552 C   0  0  0  0  0  0  0  0  0  0  0  0
  -11.9941   -9.3773    7.1570 O   0  0  0  0  0  0  0  0  0  0  0  0
  -12.0278  -11.4126    9.6069 N   0  0  0  0  0  0  0  0  0  0  0  0
  -11.8953  -12.6724   10.1027 C   0  0  0  0  0  0  0  0  0  0  0  0
  -11.5647  -13.5846    9.0907 N   0  0  0  0  0  0  0  0  0  0  0  0
  1  2  1  0  0  0  0
  1  6  1  0  0  0  0
  2  3  2  0  0  0  0
  3  4  1  0  0  0  0
  4  5  2  0  0  0  0
  4 10  1  0  0  0  0
  5  6  1  0  0  0  0
  5  8  1  0  0  0  0
  6  7  2  0  0  0  0
  8  9  1  0  0  0  0
  9 10  2  0  0  0  0
M  END
>  <CHROM.1>
-11.64698047,-11.86674183,7.74077729,-1.43893562,-1.33519096,2.30868635

>  <Name>
ligand

>  <RI>
0

>  <Rbt.Current_Directory>
/home/itssahil/PROJECTS/Mol_Feturizer/New_Systems/rnas/2EES

>  <Rbt.Executable>
rbdock ($Id: //depot/dev/client3/rdock/2013.1/src/exe/rbdock.cxx#4 $)

>  <Rbt.Library>
libRbt.so (2013.1, Build901 2013/11/27)

>  <Rbt.Parameter_File>
/export/apps/rDock/src/rDock_2013.1_src/data/scripts/dock_solv.prm

>  <Rbt.Receptor>
prm/pocket_docking_4.prm

>  <SCORE>
-16.6065

>  <SCORE.INTER>
-16.6065

>  <SCORE.INTER.CONST>
1

>  <SCORE.INTER.POLAR>
0

>  <SCORE.INTER.ROT>
0

>  <SCORE.INTER.SOLV>
3.77233

>  <SCORE.INTER.VDW>
-15.9285

>  <SCORE.INTER.norm>
-1.66065

>  <SCORE.INTRA>
0

>  <SCORE.INTRA.DIHEDRAL>
0

>  <SCORE.INTRA.DIHEDRAL.0>
0

>  <SCORE.INTRA.POLAR>
0

>  <SCORE.INTRA.POLAR.0>
0

>  <SCORE.INTRA.REPUL>
0

>  <SCORE.INTRA.REPUL.0>
0

>  <SCORE.INTRA.SOLV>
0

>  <SCORE.INTRA.SOLV.lig_0>
-4.28614

>  <SCORE.INTRA.VDW>
0

>  <SCORE.INTRA.VDW.0>
0

>  <SCORE.INTRA.norm>
0

>  <SCORE.RESTR>
0

>  <SCORE.RESTR.CAVITY>
0

>  <SCORE.RESTR.norm>
0

>  <SCORE.SYSTEM>
0

>  <SCORE.SYSTEM.CONST>
0

>  <SCORE.SYSTEM.DIHEDRAL>
0

>  <SCORE.SYSTEM.SOLV>
0

>  <SCORE.SYSTEM.norm>
0

>  <SCORE.heavy>
10

>  <SCORE.norm>
-1.66065

>  <RMSD>
2.926

$$$$
ligand
 OpenBabel11021811423D
libRbt.so/2013.1/901 2013/11/27
 10 11  0  0  0  0  0  0  0  0999 V2000
  -11.4516  -11.1561    5.8783 N   0  0  0  0  0  0  0  0  0  0  0  0
  -11.2133  -12.5141    5.6579 C   0  0  0  0  0  0  0  0  0  0  0  0
  -11.2364  -13.4197    6.6521 N   0  0  0  0  0  0  0  0  0  0  0  0
  -11.5231  -12.8612    7.8945 C   0  0  0  0  0  0  0  0  0  0  0  0
  -11.7671  -11.5226    8.2069 C   0  0  0  0  0  0  0  0  0  0  0  0
  -11.7371  -10.5486    7.1472 C   0  0  0  0  0  0  0  0  0  0  0  0
  -11.9142   -9.3544    7.1635 O   0  0  0  0  0  0  0  0  0  0  0  0
  -12.0213  -11.4190    9.5866 N   0  0  0  0  0  0  0  0  0  0  0  0
  -11.9297  -12.6886   10.0665 C   0  0  0  0  0  0  0  0  0  0  0  0
  -11.6228  -13.5975    9.0442 N   0  0  0  0  0  0  0  0  0  0  0  0
  1  2  1  0  0  0  0
  1  6  1  0  0  0  0
  2  3  2  0  0  0  0
  3  4  1  0  0  0  0
  4  5  2  0  0  0  0
  4 10  1  0  0  0  0
  5  6  1  0  0  0  0
  5  8  1  0  0  0  0
  6  7  2  0  0  0  0
  8  9  1  0  0  0  0
  9 10  2  0  0  0  0
M  END
>  <CHROM.1>
-11.64633735,-11.86067539,7.71632245,-1.32749707,-1.35369263,2.43020860

>  <Name>
ligand

>  <RI>
0

>  <Rbt.Current_Directory>
/home/itssahil/PROJECTS/Mol_Feturizer/New_Systems/rnas/2EES

>  <Rbt.Executable>
rbdock ($Id: //depot/dev/client3/rdock/2013.1/src/exe/rbdock.cxx#4 $)

>  <Rbt.Library>
libRbt.so (2013.1, Build901 2013/11/27)

>  <Rbt.Parameter_File>
/export/apps/rDock/src/rDock_2013.1_src/data/scripts/dock_solv.prm

>  <Rbt.Receptor>
prm/pocket_docking_6.prm

>  <SCORE>
-16.5698

>  <SCORE.INTER>
-16.5698

>  <SCORE.INTER.CONST>
1

>  <SCORE.INTER.POLAR>
0

>  <SCORE.INTER.ROT>
0

>  <SCORE.INTER.SOLV>
3.85167

>  <SCORE.INTER.VDW>
-15.9304

>  <SCORE.INTER.norm>
-1.65698

>  <SCORE.INTRA>
0

>  <SCORE.INTRA.DIHEDRAL>
0

>  <SCORE.INTRA.DIHEDRAL.0>
0

>  <SCORE.INTRA.POLAR>
0

>  <SCORE.INTRA.POLAR.0>
0

>  <SCORE.INTRA.REPUL>
0

>  <SCORE.INTRA.REPUL.0>
0

>  <SCORE.INTRA.SOLV>
0

>  <SCORE.INTRA.SOLV.lig_0>
-4.28614

>  <SCORE.INTRA.VDW>
0

>  <SCORE.INTRA.VDW.0>
0

>  <SCORE.INTRA.norm>
0

>  <SCORE.RESTR>
0

>  <SCORE.RESTR.CAVITY>
0

>  <SCORE.RESTR.norm>
0

>  <SCORE.SYSTEM>
0

>  <SCORE.SYSTEM.CONST>
0

>  <SCORE.SYSTEM.DIHEDRAL>
0

>  <SCORE.SYSTEM.SOLV>
0

>  <SCORE.SYSTEM.norm>
0

>  <SCORE.heavy>
10

>  <SCORE.norm>
-1.65698

>  <RMSD>
2.926

$$$$
ligand
 OpenBabel11021811423D
libRbt.so/2013.1/901 2013/11/27
 10 11  0  0  0  0  0  0  0  0999 V2000
  -11.4435  -11.1858    5.8845 N   0  0  0  0  0  0  0  0  0  0  0  0
  -11.1865  -12.5416    5.6715 C   0  0  0  0  0  0  0  0  0  0  0  0
  -11.1991  -13.4423    6.6703 N   0  0  0  0  0  0  0  0  0  0  0  0
  -11.4956  -12.8813    7.9093 C   0  0  0  0  0  0  0  0  0  0  0  0
  -11.7582  -11.5446    8.2144 C   0  0  0  0  0  0  0  0  0  0  0  0
  -11.7396  -10.5757    7.1497 C   0  0  0  0  0  0  0  0  0  0  0  0
  -11.9328   -9.3840    7.1596 O   0  0  0  0  0  0  0  0  0  0  0  0
  -12.0164  -11.4373    9.5931 N   0  0  0  0  0  0  0  0  0  0  0  0
  -11.9085  -12.7031   10.0798 C   0  0  0  0  0  0  0  0  0  0  0  0
  -11.5875  -13.6130    9.0626 N   0  0  0  0  0  0  0  0  0  0  0  0
  1  2  1  0  0  0  0
  1  6  1  0  0  0  0
  2  3  2  0  0  0  0
  3  4  1  0  0  0  0
  4  5  2  0  0  0  0
  4 10  1  0  0  0  0
  5  6  1  0  0  0  0
  5  8  1  0  0  0  0
  6  7  2  0  0  0  0
  8  9  1  0  0  0  0
  9 10  2  0  0  0  0
M  END
>  <CHROM.1>
-11.63206067,-11.88350409,7.72578485,-1.36773931,-1.34328098,2.38579229

>  <Name>
ligand

>  <RI>
0

>  <Rbt.Current_Directory>
/home/itssahil/PROJECTS/Mol_Feturizer/New_Systems/rnas/2EES

>  <Rbt.Executable>
rbdock ($Id: //depot/dev/client3/rdock/2013.1/src/exe/rbdock.cxx#4 $)

>  <Rbt.Library>
libRbt.so (2013.1, Build901 2013/11/27)

>  <Rbt.Parameter_File>
/export/apps/rDock/src/rDock_2013.1_src/data/scripts/dock_solv.prm

>  <Rbt.Receptor>
prm/blind_docking_100.prm

>  <SCORE>
-16.6218

>  <SCORE.INTER>
-16.6218

>  <SCORE.INTER.CONST>
1

>  <SCORE.INTER.POLAR>
0

>  <SCORE.INTER.ROT>
0

>  <SCORE.INTER.SOLV>
3.82523

>  <SCORE.INTER.VDW>
-15.9562

>  <SCORE.INTER.norm>
-1.66218

>  <SCORE.INTRA>
0

>  <SCORE.INTRA.DIHEDRAL>
0

>  <SCORE.INTRA.DIHEDRAL.0>
0

>  <SCORE.INTRA.POLAR>
0

>  <SCORE.INTRA.POLAR.0>
0

>  <SCORE.INTRA.REPUL>
0

>  <SCORE.INTRA.REPUL.0>
0

>  <SCORE.INTRA.SOLV>
0

>  <SCORE.INTRA.SOLV.lig_0>
-4.28614

>  <SCORE.INTRA.VDW>
0

>  <SCORE.INTRA.VDW.0>
0

>  <SCORE.INTRA.norm>
0

>  <SCORE.RESTR>
0

>  <SCORE.RESTR.CAVITY>
0

>  <SCORE.RESTR.norm>
0

>  <SCORE.SYSTEM>
0

>  <SCORE.SYSTEM.CONST>
0

>  <SCORE.SYSTEM.DIHEDRAL>
0

>  <SCORE.SYSTEM.SOLV>
0

>  <SCORE.SYSTEM.norm>
0

>  <SCORE.heavy>
10

>  <SCORE.norm>
-1.66218

>  <RMSD>
2.927

$$$$
ligand
 OpenBabel11021811423D
libRbt.so/2013.1/901 2013/11/27
 10 11  0  0  0  0  0  0  0  0999 V2000
  -11.4757  -11.1627    5.8860 N   0  0  0  0  0  0  0  0  0  0  0  0
  -11.2338  -12.5229    5.6833 C   0  0  0  0  0  0  0  0  0  0  0  0
  -11.2468  -13.4143    6.6904 N   0  0  0  0  0  0  0  0  0  0  0  0
  -11.5272  -12.8392    7.9267 C   0  0  0  0  0  0  0  0  0  0  0  0
  -11.7741  -11.4971    8.2216 C   0  0  0  0  0  0  0  0  0  0  0  0
  -11.7549  -10.5382    7.1480 C   0  0  0  0  0  0  0  0  0  0  0  0
  -11.9364   -9.3446    7.1486 O   0  0  0  0  0  0  0  0  0  0  0  0
  -12.0194  -11.3748    9.6015 N   0  0  0  0  0  0  0  0  0  0  0  0
  -11.9199  -12.6371   10.0988 C   0  0  0  0  0  0  0  0  0  0  0  0
  -11.6165  -13.5593    9.0874 N   0  0  0  0  0  0  0  0  0  0  0  0
  1  2  1  0  0  0  0
  1  6  1  0  0  0  0
  2  3  2  0  0  0  0
  3  4  1  0  0  0  0
  4  5  2  0  0  0  0
  4 10  1  0  0  0  0
  5  6  1  0  0  0  0
  5  8  1  0  0  0  0
  6  7  2  0  0  0  0
  8  9  1  0  0  0  0
  9 10  2  0  0  0  0
M  END
>  <CHROM.1>
-11.65542131,-11.84172911,7.73514164,-1.36150238,-1.35621423,2.38274650

>  <Name>
ligand

>  <RI>
0

>  <Rbt.Current_Directory>
/home/itssahil/PROJECTS/Mol_Feturizer/New_Systems/rnas/2EES

>  <Rbt.Executable>
rbdock ($Id: //depot/dev/client3/rdock/2013.1/src/exe/rbdock.cxx#4 $)

>  <Rbt.Library>
libRbt.so (2013.1, Build901 2013/11/27)

>  <Rbt.Parameter_File>
/export/apps/rDock/src/rDock_2013.1_src/data/scripts/dock_solv.prm

>  <Rbt.Receptor>
prm/blind_docking_60.prm

>  <SCORE>
-16.55

>  <SCORE.INTER>
-16.55

>  <SCORE.INTER.CONST>
1

>  <SCORE.INTER.POLAR>
0

>  <SCORE.INTER.ROT>
0

>  <SCORE.INTER.SOLV>
3.83787

>  <SCORE.INTER.VDW>
-15.9126

>  <SCORE.INTER.norm>
-1.655

>  <SCORE.INTRA>
0

>  <SCORE.INTRA.DIHEDRAL>
0

>  <SCORE.INTRA.DIHEDRAL.0>
0

>  <SCORE.INTRA.POLAR>
0

>  <SCORE.INTRA.POLAR.0>
0

>  <SCORE.INTRA.REPUL>
0

>  <SCORE.INTRA.REPUL.0>
0

>  <SCORE.INTRA.SOLV>
0

>  <SCORE.INTRA.SOLV.lig_0>
-4.28614

>  <SCORE.INTRA.VDW>
0

>  <SCORE.INTRA.VDW.0>
0

>  <SCORE.INTRA.norm>
0

>  <SCORE.RESTR>
0

>  <SCORE.RESTR.CAVITY>
0

>  <SCORE.RESTR.norm>
0

>  <SCORE.SYSTEM>
0

>  <SCORE.SYSTEM.CONST>
0

>  <SCORE.SYSTEM.DIHEDRAL>
0

>  <SCORE.SYSTEM.SOLV>
0

>  <SCORE.SYSTEM.norm>
0

>  <SCORE.heavy>
10

>  <SCORE.norm>
-1.655

>  <RMSD>
2.927

$$$$
ligand
 OpenBabel11021811423D
libRbt.so/2013.1/901 2013/11/27
 10 11  0  0  0  0  0  0  0  0999 V2000
  -11.3846  -11.2146    5.7985 N   0  0  0  0  0  0  0  0  0  0  0  0
  -11.1044  -12.5700    5.6139 C   0  0  0  0  0  0  0  0  0  0  0  0
  -11.1156  -13.4522    6.6291 N   0  0  0  0  0  0  0  0  0  0  0  0
  -11.4358  -12.8731    7.8538 C   0  0  0  0  0  0  0  0  0  0  0  0
  -11.7224  -11.5351    8.1307 C   0  0  0  0  0  0  0  0  0  0  0  0
  -11.7053  -10.5859    7.0485 C   0  0  0  0  0  0  0  0  0  0  0  0
  -11.9168   -9.3973    7.0338 O   0  0  0  0  0  0  0  0  0  0  0  0
  -11.9989  -11.4064    9.5041 N   0  0  0  0  0  0  0  0  0  0  0  0
  -11.8778  -12.6612   10.0155 C   0  0  0  0  0  0  0  0  0  0  0  0
  -11.5306  -13.5846    9.0194 N   0  0  0  0  0  0  0  0  0  0  0  0
  1  2  1  0  0  0  0
  1  6  1  0  0  0  0
  2  3  2  0  0  0  0
  3  4  1  0  0  0  0
  4  5  2  0  0  0  0
  4 10  1  0  0  0  0
  5  6  1  0  0  0  0
  5  8  1  0  0  0  0
  6  7  2  0  0  0  0
  8  9  1  0  0  0  0
  9 10  2  0  0  0  0
M  END
>  <CHROM.1>
-11.58506444,-11.88099909,7.65009712,-1.37854307,-1.32394145,2.35674205

>  <Name>
ligand

>  <RI>
0

>  <Rbt.Current_Directory>
/home/itssahil/PROJECTS/Mol_Feturizer/New_Systems/rnas/2EES

>  <Rbt.Executable>
rbdock ($Id: //depot/dev/client3/rdock/2013.1/src/exe/rbdock.cxx#4 $)

>  <Rbt.Library>
libRbt.so (2013.1, Build901 2013/11/27)

>  <Rbt.Parameter_File>
/export/apps/rDock/src/rDock_2013.1_src/data/scripts/dock_solv.prm

>  <Rbt.Receptor>
prm/pocket_docking_7.prm

>  <SCORE>
-16.5587

>  <SCORE.INTER>
-16.5587

>  <SCORE.INTER.CONST>
1

>  <SCORE.INTER.POLAR>
0

>  <SCORE.INTER.ROT>
0

>  <SCORE.INTER.SOLV>
3.829

>  <SCORE.INTER.VDW>
-15.9155

>  <SCORE.INTER.norm>
-1.65587

>  <SCORE.INTRA>
0

>  <SCORE.INTRA.DIHEDRAL>
0

>  <SCORE.INTRA.DIHEDRAL.0>
0

>  <SCORE.INTRA.POLAR>
0

>  <SCORE.INTRA.POLAR.0>
0

>  <SCORE.INTRA.REPUL>
0

>  <SCORE.INTRA.REPUL.0>
0

>  <SCORE.INTRA.SOLV>
0

>  <SCORE.INTRA.SOLV.lig_0>
-4.28614

>  <SCORE.INTRA.VDW>
0

>  <SCORE.INTRA.VDW.0>
0

>  <SCORE.INTRA.norm>
0

>  <SCORE.RESTR>
0

>  <SCORE.RESTR.CAVITY>
0

>  <SCORE.RESTR.norm>
0

>  <SCORE.SYSTEM>
0

>  <SCORE.SYSTEM.CONST>
0

>  <SCORE.SYSTEM.DIHEDRAL>
0

>  <SCORE.SYSTEM.SOLV>
0

>  <SCORE.SYSTEM.norm>
0

>  <SCORE.heavy>
10

>  <SCORE.norm>
-1.65587

>  <RMSD>
2.927

$$$$
ligand
 OpenBabel11021811423D
libRbt.so/2013.1/901 2013/11/27
 10 11  0  0  0  0  0  0  0  0999 V2000
  -11.4687  -11.1539    5.8910 N   0  0  0  0  0  0  0  0  0  0  0  0
  -11.2285  -12.5137    5.6840 C   0  0  0  0  0  0  0  0  0  0  0  0
  -11.2475  -13.4090    6.6876 N   0  0  0  0  0  0  0  0  0  0  0  0
  -11.5324  -12.8382    7.9248 C   0  0  0  0  0  0  0  0  0  0  0  0
  -11.7782  -11.4969    8.2240 C   0  0  0  0  0  0  0  0  0  0  0  0
  -11.7525  -10.5338    7.1542 C   0  0  0  0  0  0  0  0  0  0  0  0
  -11.9318   -9.3399    7.1586 O   0  0  0  0  0  0  0  0  0  0  0  0
  -12.0294  -11.3795    9.6032 N   0  0  0  0  0  0  0  0  0  0  0  0
  -11.9343  -12.6440   10.0959 C   0  0  0  0  0  0  0  0  0  0  0  0
  -11.6281  -13.5627    9.0823 N   0  0  0  0  0  0  0  0  0  0  0  0
  1  2  1  0  0  0  0
  1  6  1  0  0  0  0
  2  3  2  0  0  0  0
  3  4  1  0  0  0  0
  4  5  2  0  0  0  0
  4 10  1  0  0  0  0
  5  6  1  0  0  0  0
  5  8  1  0  0  0  0
  6  7  2  0  0  0  0
  8  9  1  0  0  0  0
  9 10  2  0  0  0  0
M  END
>  <CHROM.1>
-11.65794364,-11.83979222,7.73664590,-1.34116262,-1.35419459,2.40654056

>  <Name>
ligand

>  <RI>
0

>  <Rbt.Current_Directory>
/home/itssahil/PROJECTS/Mol_Feturizer/New_Systems/rnas/2EES

>  <Rbt.Executable>
rbdock ($Id: //depot/dev/client3/rdock/2013.1/src/exe/rbdock.cxx#4 $)

>  <Rbt.Library>
libRbt.so (2013.1, Build901 2013/11/27)

>  <Rbt.Parameter_File>
/export/apps/rDock/src/rDock_2013.1_src/data/scripts/dock_solv.prm

>  <Rbt.Receptor>
prm/pocket_docking_8.prm

>  <SCORE>
-16.552

>  <SCORE.INTER>
-16.552

>  <SCORE.INTER.CONST>
1

>  <SCORE.INTER.POLAR>
0

>  <SCORE.INTER.ROT>
0

>  <SCORE.INTER.SOLV>
3.8357

>  <SCORE.INTER.VDW>
-15.9132

>  <SCORE.INTER.norm>
-1.6552

>  <SCORE.INTRA>
0

>  <SCORE.INTRA.DIHEDRAL>
0

>  <SCORE.INTRA.DIHEDRAL.0>
0

>  <SCORE.INTRA.POLAR>
0

>  <SCORE.INTRA.POLAR.0>
0

>  <SCORE.INTRA.REPUL>
0

>  <SCORE.INTRA.REPUL.0>
0

>  <SCORE.INTRA.SOLV>
0

>  <SCORE.INTRA.SOLV.lig_0>
-4.28614

>  <SCORE.INTRA.VDW>
0

>  <SCORE.INTRA.VDW.0>
0

>  <SCORE.INTRA.norm>
0

>  <SCORE.RESTR>
0

>  <SCORE.RESTR.CAVITY>
0

>  <SCORE.RESTR.norm>
0

>  <SCORE.SYSTEM>
0

>  <SCORE.SYSTEM.CONST>
0

>  <SCORE.SYSTEM.DIHEDRAL>
0

>  <SCORE.SYSTEM.SOLV>
0

>  <SCORE.SYSTEM.norm>
0

>  <SCORE.heavy>
10

>  <SCORE.norm>
-1.6552

>  <RMSD>
2.927

$$$$
ligand
 OpenBabel11021811423D
libRbt.so/2013.1/901 2013/11/27
 10 11  0  0  0  0  0  0  0  0999 V2000
  -11.4542  -11.1764    5.8808 N   0  0  0  0  0  0  0  0  0  0  0  0
  -11.2262  -12.5364    5.6622 C   0  0  0  0  0  0  0  0  0  0  0  0
  -11.2465  -13.4391    6.6591 N   0  0  0  0  0  0  0  0  0  0  0  0
  -11.5192  -12.8754    7.9023 C   0  0  0  0  0  0  0  0  0  0  0  0
  -11.7523  -11.5344    8.2130 C   0  0  0  0  0  0  0  0  0  0  0  0
  -11.7253  -10.5636    7.1503 C   0  0  0  0  0  0  0  0  0  0  0  0
  -11.8948   -9.3683    7.1648 O   0  0  0  0  0  0  0  0  0  0  0  0
  -11.9942  -11.4255    9.5945 N   0  0  0  0  0  0  0  0  0  0  0  0
  -11.9064  -12.6943   10.0772 C   0  0  0  0  0  0  0  0  0  0  0  0
  -11.6138  -13.6078    9.0549 N   0  0  0  0  0  0  0  0  0  0  0  0
  1  2  1  0  0  0  0
  1  6  1  0  0  0  0
  2  3  2  0  0  0  0
  3  4  1  0  0  0  0
  4  5  2  0  0  0  0
  4 10  1  0  0  0  0
  5  6  1  0  0  0  0
  5  8  1  0  0  0  0
  6  7  2  0  0  0  0
  8  9  1  0  0  0  0
  9 10  2  0  0  0  0
M  END
>  <CHROM.1>
-11.63779301,-11.87462132,7.72236909,-1.33161146,-1.36410782,2.42338730

>  <Name>
ligand

>  <RI>
0

>  <Rbt.Current_Directory>
/home/itssahil/PROJECTS/Mol_Feturizer/New_Systems/rnas/2EES

>  <Rbt.Executable>
rbdock ($Id: //depot/dev/client3/rdock/2013.1/src/exe/rbdock.cxx#4 $)

>  <Rbt.Library>
libRbt.so (2013.1, Build901 2013/11/27)

>  <Rbt.Parameter_File>
/export/apps/rDock/src/rDock_2013.1_src/data/scripts/dock_solv.prm

>  <Rbt.Receptor>
prm/pocket_docking_4.prm

>  <SCORE>
-16.5758

>  <SCORE.INTER>
-16.5758

>  <SCORE.INTER.CONST>
1

>  <SCORE.INTER.POLAR>
0

>  <SCORE.INTER.ROT>
0

>  <SCORE.INTER.SOLV>
3.88106

>  <SCORE.INTER.VDW>
-15.9442

>  <SCORE.INTER.norm>
-1.65758

>  <SCORE.INTRA>
0

>  <SCORE.INTRA.DIHEDRAL>
0

>  <SCORE.INTRA.DIHEDRAL.0>
0

>  <SCORE.INTRA.POLAR>
0

>  <SCORE.INTRA.POLAR.0>
0

>  <SCORE.INTRA.REPUL>
0

>  <SCORE.INTRA.REPUL.0>
0

>  <SCORE.INTRA.SOLV>
0

>  <SCORE.INTRA.SOLV.lig_0>
-4.28614

>  <SCORE.INTRA.VDW>
0

>  <SCORE.INTRA.VDW.0>
0

>  <SCORE.INTRA.norm>
0

>  <SCORE.RESTR>
0

>  <SCORE.RESTR.CAVITY>
0

>  <SCORE.RESTR.norm>
0

>  <SCORE.SYSTEM>
0

>  <SCORE.SYSTEM.CONST>
0

>  <SCORE.SYSTEM.DIHEDRAL>
0

>  <SCORE.SYSTEM.SOLV>
0

>  <SCORE.SYSTEM.norm>
0

>  <SCORE.heavy>
10

>  <SCORE.norm>
-1.65758

>  <RMSD>
2.928

$$$$
ligand
 OpenBabel11021811423D
libRbt.so/2013.1/901 2013/11/27
 10 11  0  0  0  0  0  0  0  0999 V2000
  -11.4341  -11.1993    5.8621 N   0  0  0  0  0  0  0  0  0  0  0  0
  -11.1853  -12.5583    5.6601 C   0  0  0  0  0  0  0  0  0  0  0  0
  -11.2050  -13.4510    6.6660 N   0  0  0  0  0  0  0  0  0  0  0  0
  -11.4997  -12.8784    7.9001 C   0  0  0  0  0  0  0  0  0  0  0  0
  -11.7543  -11.5376    8.1942 C   0  0  0  0  0  0  0  0  0  0  0  0
  -11.7280  -10.5773    7.1220 C   0  0  0  0  0  0  0  0  0  0  0  0
  -11.9138   -9.3844    7.1222 O   0  0  0  0  0  0  0  0  0  0  0  0
  -12.0136  -11.4179    9.5718 N   0  0  0  0  0  0  0  0  0  0  0  0
  -11.9144  -12.6804   10.0685 C   0  0  0  0  0  0  0  0  0  0  0  0
  -11.5977  -13.6003    9.0590 N   0  0  0  0  0  0  0  0  0  0  0  0
  1  2  1  0  0  0  0
  1  6  1  0  0  0  0
  2  3  2  0  0  0  0
  3  4  1  0  0  0  0
  4  5  2  0  0  0  0
  4 10  1  0  0  0  0
  5  6  1  0  0  0  0
  5  8  1  0  0  0  0
  6  7  2  0  0  0  0
  8  9  1  0  0  0  0
  9 10  2  0  0  0  0
M  END
>  <CHROM.1>
-11.62958495,-11.88119173,7.70853018,-1.34285121,-1.34655146,2.40216613

>  <Name>
ligand

>  <RI>
0

>  <Rbt.Current_Directory>
/home/itssahil/PROJECTS/Mol_Feturizer/New_Systems/rnas/2EES

>  <Rbt.Executable>
rbdock ($Id: //depot/dev/client3/rdock/2013.1/src/exe/rbdock.cxx#4 $)

>  <Rbt.Library>
libRbt.so (2013.1, Build901 2013/11/27)

>  <Rbt.Parameter_File>
/export/apps/rDock/src/rDock_2013.1_src/data/scripts/dock_solv.prm

>  <Rbt.Receptor>
prm/blind_docking_100.prm

>  <SCORE>
-16.5788

>  <SCORE.INTER>
-16.5788

>  <SCORE.INTER.CONST>
1

>  <SCORE.INTER.POLAR>
0

>  <SCORE.INTER.ROT>
0

>  <SCORE.INTER.SOLV>
3.84497

>  <SCORE.INTER.VDW>
-15.9342

>  <SCORE.INTER.norm>
-1.65788

>  <SCORE.INTRA>
0

>  <SCORE.INTRA.DIHEDRAL>
0

>  <SCORE.INTRA.DIHEDRAL.0>
0

>  <SCORE.INTRA.POLAR>
0

>  <SCORE.INTRA.POLAR.0>
0

>  <SCORE.INTRA.REPUL>
0

>  <SCORE.INTRA.REPUL.0>
0

>  <SCORE.INTRA.SOLV>
0

>  <SCORE.INTRA.SOLV.lig_0>
-4.28614

>  <SCORE.INTRA.VDW>
0

>  <SCORE.INTRA.VDW.0>
0

>  <SCORE.INTRA.norm>
0

>  <SCORE.RESTR>
0

>  <SCORE.RESTR.CAVITY>
0

>  <SCORE.RESTR.norm>
0

>  <SCORE.SYSTEM>
0

>  <SCORE.SYSTEM.CONST>
0

>  <SCORE.SYSTEM.DIHEDRAL>
0

>  <SCORE.SYSTEM.SOLV>
0

>  <SCORE.SYSTEM.norm>
0

>  <SCORE.heavy>
10

>  <SCORE.norm>
-1.65788

>  <RMSD>
2.929

$$$$
ligand
 OpenBabel11021811423D
libRbt.so/2013.1/901 2013/11/27
 10 11  0  0  0  0  0  0  0  0999 V2000
  -11.4616  -11.1736    5.8918 N   0  0  0  0  0  0  0  0  0  0  0  0
  -11.2133  -12.5319    5.6848 C   0  0  0  0  0  0  0  0  0  0  0  0
  -11.2352  -13.4286    6.6871 N   0  0  0  0  0  0  0  0  0  0  0  0
  -11.5315  -12.8608    7.9230 C   0  0  0  0  0  0  0  0  0  0  0  0
  -11.7858  -11.5211    8.2221 C   0  0  0  0  0  0  0  0  0  0  0  0
  -11.7572  -10.5565    7.1538 C   0  0  0  0  0  0  0  0  0  0  0  0
  -11.9422   -9.3635    7.1585 O   0  0  0  0  0  0  0  0  0  0  0  0
  -12.0473  -11.4068    9.5997 N   0  0  0  0  0  0  0  0  0  0  0  0
  -11.9497  -12.6714   10.0915 C   0  0  0  0  0  0  0  0  0  0  0  0
  -11.6319  -13.5873    9.0788 N   0  0  0  0  0  0  0  0  0  0  0  0
  1  2  1  0  0  0  0
  1  6  1  0  0  0  0
  2  3  2  0  0  0  0
  3  4  1  0  0  0  0
  4  5  2  0  0  0  0
  4 10  1  0  0  0  0
  5  6  1  0  0  0  0
  5  8  1  0  0  0  0
  6  7  2  0  0  0  0
  8  9  1  0  0  0  0
  9 10  2  0  0  0  0
M  END
>  <CHROM.1>
-11.66051856,-11.86278904,7.73521928,-1.33587699,-1.34572758,2.41298978

>  <Name>
ligand

>  <RI>
0

>  <Rbt.Current_Directory>
/home/itssahil/PROJECTS/Mol_Feturizer/New_Systems/rnas/2EES

>  <Rbt.Executable>
rbdock ($Id: //depot/dev/client3/rdock/2013.1/src/exe/rbdock.cxx#4 $)

>  <Rbt.Library>
libRbt.so (2013.1, Build901 2013/11/27)

>  <Rbt.Parameter_File>
/export/apps/rDock/src/rDock_2013.1_src/data/scripts/dock_solv.prm

>  <Rbt.Receptor>
prm/blind_docking_40.prm

>  <SCORE>
-16.5809

>  <SCORE.INTER>
-16.5809

>  <SCORE.INTER.CONST>
1

>  <SCORE.INTER.POLAR>
0

>  <SCORE.INTER.ROT>
0

>  <SCORE.INTER.SOLV>
3.81591

>  <SCORE.INTER.VDW>
-15.9259

>  <SCORE.INTER.norm>
-1.65809

>  <SCORE.INTRA>
0

>  <SCORE.INTRA.DIHEDRAL>
0

>  <SCORE.INTRA.DIHEDRAL.0>
0

>  <SCORE.INTRA.POLAR>
0

>  <SCORE.INTRA.POLAR.0>
0

>  <SCORE.INTRA.REPUL>
0

>  <SCORE.INTRA.REPUL.0>
0

>  <SCORE.INTRA.SOLV>
0

>  <SCORE.INTRA.SOLV.lig_0>
-4.28614

>  <SCORE.INTRA.VDW>
0

>  <SCORE.INTRA.VDW.0>
0

>  <SCORE.INTRA.norm>
0

>  <SCORE.RESTR>
0

>  <SCORE.RESTR.CAVITY>
0

>  <SCORE.RESTR.norm>
0

>  <SCORE.SYSTEM>
0

>  <SCORE.SYSTEM.CONST>
0

>  <SCORE.SYSTEM.DIHEDRAL>
0

>  <SCORE.SYSTEM.SOLV>
0

>  <SCORE.SYSTEM.norm>
0

>  <SCORE.heavy>
10

>  <SCORE.norm>
-1.65809

>  <RMSD>
2.929

$$$$
ligand
 OpenBabel11021811423D
libRbt.so/2013.1/901 2013/11/27
 10 11  0  0  0  0  0  0  0  0999 V2000
  -11.4645  -11.1757    5.8862 N   0  0  0  0  0  0  0  0  0  0  0  0
  -11.2252  -12.5354    5.6774 C   0  0  0  0  0  0  0  0  0  0  0  0
  -11.2472  -13.4324    6.6794 N   0  0  0  0  0  0  0  0  0  0  0  0
  -11.5341  -12.8634    7.9171 C   0  0  0  0  0  0  0  0  0  0  0  0
  -11.7790  -11.5223    8.2179 C   0  0  0  0  0  0  0  0  0  0  0  0
  -11.7502  -10.5575    7.1498 C   0  0  0  0  0  0  0  0  0  0  0  0
  -11.9282   -9.3634    7.1558 O   0  0  0  0  0  0  0  0  0  0  0  0
  -12.0329  -11.4069    9.5968 N   0  0  0  0  0  0  0  0  0  0  0  0
  -11.9401  -12.6723   10.0877 C   0  0  0  0  0  0  0  0  0  0  0  0
  -11.6328  -13.5897    9.0731 N   0  0  0  0  0  0  0  0  0  0  0  0
  1  2  1  0  0  0  0
  1  6  1  0  0  0  0
  2  3  2  0  0  0  0
  3  4  1  0  0  0  0
  4  5  2  0  0  0  0
  4 10  1  0  0  0  0
  5  6  1  0  0  0  0
  5  8  1  0  0  0  0
  6  7  2  0  0  0  0
  8  9  1  0  0  0  0
  9 10  2  0  0  0  0
M  END
>  <CHROM.1>
-11.65816245,-11.86450806,7.73027518,-1.33135937,-1.35338231,2.41776223

>  <Name>
ligand

>  <RI>
0

>  <Rbt.Current_Directory>
/home/itssahil/PROJECTS/Mol_Feturizer/New_Systems/rnas/2EES

>  <Rbt.Executable>
rbdock ($Id: //depot/dev/client3/rdock/2013.1/src/exe/rbdock.cxx#4 $)

>  <Rbt.Library>
libRbt.so (2013.1, Build901 2013/11/27)

>  <Rbt.Parameter_File>
/export/apps/rDock/src/rDock_2013.1_src/data/scripts/dock_solv.prm

>  <Rbt.Receptor>
prm/blind_docking_60.prm

>  <SCORE>
-16.5812

>  <SCORE.INTER>
-16.5812

>  <SCORE.INTER.CONST>
1

>  <SCORE.INTER.POLAR>
0

>  <SCORE.INTER.ROT>
0

>  <SCORE.INTER.SOLV>
3.83791

>  <SCORE.INTER.VDW>
-15.9334

>  <SCORE.INTER.norm>
-1.65812

>  <SCORE.INTRA>
0

>  <SCORE.INTRA.DIHEDRAL>
0

>  <SCORE.INTRA.DIHEDRAL.0>
0

>  <SCORE.INTRA.POLAR>
0

>  <SCORE.INTRA.POLAR.0>
0

>  <SCORE.INTRA.REPUL>
0

>  <SCORE.INTRA.REPUL.0>
0

>  <SCORE.INTRA.SOLV>
0

>  <SCORE.INTRA.SOLV.lig_0>
-4.28614

>  <SCORE.INTRA.VDW>
0

>  <SCORE.INTRA.VDW.0>
0

>  <SCORE.INTRA.norm>
0

>  <SCORE.RESTR>
0

>  <SCORE.RESTR.CAVITY>
0

>  <SCORE.RESTR.norm>
0

>  <SCORE.SYSTEM>
0

>  <SCORE.SYSTEM.CONST>
0

>  <SCORE.SYSTEM.DIHEDRAL>
0

>  <SCORE.SYSTEM.SOLV>
0

>  <SCORE.SYSTEM.norm>
0

>  <SCORE.heavy>
10

>  <SCORE.norm>
-1.65812

>  <RMSD>
2.929

$$$$
ligand
 OpenBabel11021811423D
libRbt.so/2013.1/901 2013/11/27
 10 11  0  0  0  0  0  0  0  0999 V2000
  -11.4447  -11.1864    5.8913 N   0  0  0  0  0  0  0  0  0  0  0  0
  -11.2076  -12.5478    5.6917 C   0  0  0  0  0  0  0  0  0  0  0  0
  -11.2212  -13.4366    6.7012 N   0  0  0  0  0  0  0  0  0  0  0  0
  -11.4971  -12.8573    7.9365 C   0  0  0  0  0  0  0  0  0  0  0  0
  -11.7391  -11.5138    8.2285 C   0  0  0  0  0  0  0  0  0  0  0  0
  -11.7193  -10.5577    7.1523 C   0  0  0  0  0  0  0  0  0  0  0  0
  -11.8970   -9.3636    7.1501 O   0  0  0  0  0  0  0  0  0  0  0  0
  -11.9811  -11.3871    9.6085 N   0  0  0  0  0  0  0  0  0  0  0  0
  -11.8844  -12.6484   10.1089 C   0  0  0  0  0  0  0  0  0  0  0  0
  -11.5861  -13.5742    9.0993 N   0  0  0  0  0  0  0  0  0  0  0  0
  1  2  1  0  0  0  0
  1  6  1  0  0  0  0
  2  3  2  0  0  0  0
  3  4  1  0  0  0  0
  4  5  2  0  0  0  0
  4 10  1  0  0  0  0
  5  6  1  0  0  0  0
  5  8  1  0  0  0  0
  6  7  2  0  0  0  0
  8  9  1  0  0  0  0
  9 10  2  0  0  0  0
M  END
>  <CHROM.1>
-11.62259838,-11.86000817,7.74263731,-1.35772278,-1.35995230,2.38381847

>  <Name>
ligand

>  <RI>
0

>  <Rbt.Current_Directory>
/home/itssahil/PROJECTS/Mol_Feturizer/New_Systems/rnas/2EES

>  <Rbt.Executable>
rbdock ($Id: //depot/dev/client3/rdock/2013.1/src/exe/rbdock.cxx#4 $)

>  <Rbt.Library>
libRbt.so (2013.1, Build901 2013/11/27)

>  <Rbt.Parameter_File>
/export/apps/rDock/src/rDock_2013.1_src/data/scripts/dock_solv.prm

>  <Rbt.Receptor>
prm/pocket_docking_3.prm

>  <SCORE>
-16.5654

>  <SCORE.INTER>
-16.5654

>  <SCORE.INTER.CONST>
1

>  <SCORE.INTER.POLAR>
0

>  <SCORE.INTER.ROT>
0

>  <SCORE.INTER.SOLV>
3.87143

>  <SCORE.INTER.VDW>
-15.9341

>  <SCORE.INTER.norm>
-1.65654

>  <SCORE.INTRA>
0

>  <SCORE.INTRA.DIHEDRAL>
0

>  <SCORE.INTRA.DIHEDRAL.0>
0

>  <SCORE.INTRA.POLAR>
0

>  <SCORE.INTRA.POLAR.0>
0

>  <SCORE.INTRA.REPUL>
0

>  <SCORE.INTRA.REPUL.0>
0

>  <SCORE.INTRA.SOLV>
0

>  <SCORE.INTRA.SOLV.lig_0>
-4.28614

>  <SCORE.INTRA.VDW>
0

>  <SCORE.INTRA.VDW.0>
0

>  <SCORE.INTRA.norm>
0

>  <SCORE.RESTR>
0

>  <SCORE.RESTR.CAVITY>
0

>  <SCORE.RESTR.norm>
0

>  <SCORE.SYSTEM>
0

>  <SCORE.SYSTEM.CONST>
0

>  <SCORE.SYSTEM.DIHEDRAL>
0

>  <SCORE.SYSTEM.SOLV>
0

>  <SCORE.SYSTEM.norm>
0

>  <SCORE.heavy>
10

>  <SCORE.norm>
-1.65654

>  <RMSD>
2.929

$$$$
ligand
 OpenBabel11021811423D
libRbt.so/2013.1/901 2013/11/27
 10 11  0  0  0  0  0  0  0  0999 V2000
  -11.4713  -11.1878    5.8922 N   0  0  0  0  0  0  0  0  0  0  0  0
  -11.2159  -12.5456    5.6901 C   0  0  0  0  0  0  0  0  0  0  0  0
  -11.2244  -13.4374    6.6970 N   0  0  0  0  0  0  0  0  0  0  0  0
  -11.5151  -12.8652    7.9323 C   0  0  0  0  0  0  0  0  0  0  0  0
  -11.7757  -11.5256    8.2265 C   0  0  0  0  0  0  0  0  0  0  0  0
  -11.7614  -10.5663    7.1532 C   0  0  0  0  0  0  0  0  0  0  0  0
  -11.9540   -9.3745    7.1533 O   0  0  0  0  0  0  0  0  0  0  0  0
  -12.0275  -11.4059    9.6055 N   0  0  0  0  0  0  0  0  0  0  0  0
  -11.9180  -12.6673   10.1029 C   0  0  0  0  0  0  0  0  0  0  0  0
  -11.6020  -13.5864    9.0925 N   0  0  0  0  0  0  0  0  0  0  0  0
  1  2  1  0  0  0  0
  1  6  1  0  0  0  0
  2  3  2  0  0  0  0
  3  4  1  0  0  0  0
  4  5  2  0  0  0  0
  4 10  1  0  0  0  0
  5  6  1  0  0  0  0
  5  8  1  0  0  0  0
  6  7  2  0  0  0  0
  8  9  1  0  0  0  0
  9 10  2  0  0  0  0
M  END
>  <CHROM.1>
-11.65188467,-11.86894663,7.74044562,-1.38020121,-1.34688998,2.36471455

>  <Name>
ligand

>  <RI>
0

>  <Rbt.Current_Directory>
/home/itssahil/PROJECTS/Mol_Feturizer/New_Systems/rnas/2EES

>  <Rbt.Executable>
rbdock ($Id: //depot/dev/client3/rdock/2013.1/src/exe/rbdock.cxx#4 $)

>  <Rbt.Library>
libRbt.so (2013.1, Build901 2013/11/27)

>  <Rbt.Parameter_File>
/export/apps/rDock/src/rDock_2013.1_src/data/scripts/dock_solv.prm

>  <Rbt.Receptor>
prm/pocket_docking_3.prm

>  <SCORE>
-16.638

>  <SCORE.INTER>
-16.638

>  <SCORE.INTER.CONST>
1

>  <SCORE.INTER.POLAR>
0

>  <SCORE.INTER.ROT>
0

>  <SCORE.INTER.SOLV>
3.81192

>  <SCORE.INTER.VDW>
-15.9626

>  <SCORE.INTER.norm>
-1.6638

>  <SCORE.INTRA>
0

>  <SCORE.INTRA.DIHEDRAL>
0

>  <SCORE.INTRA.DIHEDRAL.0>
0

>  <SCORE.INTRA.POLAR>
0

>  <SCORE.INTRA.POLAR.0>
0

>  <SCORE.INTRA.REPUL>
0

>  <SCORE.INTRA.REPUL.0>
0

>  <SCORE.INTRA.SOLV>
0

>  <SCORE.INTRA.SOLV.lig_0>
-4.28614

>  <SCORE.INTRA.VDW>
0

>  <SCORE.INTRA.VDW.0>
0

>  <SCORE.INTRA.norm>
0

>  <SCORE.RESTR>
0

>  <SCORE.RESTR.CAVITY>
0

>  <SCORE.RESTR.norm>
0

>  <SCORE.SYSTEM>
0

>  <SCORE.SYSTEM.CONST>
0

>  <SCORE.SYSTEM.DIHEDRAL>
0

>  <SCORE.SYSTEM.SOLV>
0

>  <SCORE.SYSTEM.norm>
0

>  <SCORE.heavy>
10

>  <SCORE.norm>
-1.6638

>  <RMSD>
2.929

$$$$
ligand
 OpenBabel11021811423D
libRbt.so/2013.1/901 2013/11/27
 10 11  0  0  0  0  0  0  0  0999 V2000
  -11.4552  -11.1894    5.8867 N   0  0  0  0  0  0  0  0  0  0  0  0
  -11.2010  -12.5478    5.6877 C   0  0  0  0  0  0  0  0  0  0  0  0
  -11.2193  -13.4388    6.6952 N   0  0  0  0  0  0  0  0  0  0  0  0
  -11.5186  -12.8651    7.9277 C   0  0  0  0  0  0  0  0  0  0  0  0
  -11.7788  -11.5247    8.2189 C   0  0  0  0  0  0  0  0  0  0  0  0
  -11.7540  -10.5663    7.1449 C   0  0  0  0  0  0  0  0  0  0  0  0
  -11.9441   -9.3741    7.1426 O   0  0  0  0  0  0  0  0  0  0  0  0
  -12.0412  -11.4035    9.5956 N   0  0  0  0  0  0  0  0  0  0  0  0
  -11.9383  -12.6648   10.0948 C   0  0  0  0  0  0  0  0  0  0  0  0
  -11.6162  -13.5853    9.0877 N   0  0  0  0  0  0  0  0  0  0  0  0
  1  2  1  0  0  0  0
  1  6  1  0  0  0  0
  2  3  2  0  0  0  0
  3  4  1  0  0  0  0
  4  5  2  0  0  0  0
  4 10  1  0  0  0  0
  5  6  1  0  0  0  0
  5  8  1  0  0  0  0
  6  7  2  0  0  0  0
  8  9  1  0  0  0  0
  9 10  2  0  0  0  0
M  END
>  <CHROM.1>
-11.65181634,-11.86872411,7.73401297,-1.34914603,-1.34257788,2.39422593

>  <Name>
ligand

>  <RI>
0

>  <Rbt.Current_Directory>
/home/itssahil/PROJECTS/Mol_Feturizer/New_Systems/rnas/2EES

>  <Rbt.Executable>
rbdock ($Id: //depot/dev/client3/rdock/2013.1/src/exe/rbdock.cxx#4 $)

>  <Rbt.Library>
libRbt.so (2013.1, Build901 2013/11/27)

>  <Rbt.Parameter_File>
/export/apps/rDock/src/rDock_2013.1_src/data/scripts/dock_solv.prm

>  <Rbt.Receptor>
prm/pocket_docking_7.prm

>  <SCORE>
-16.6468

>  <SCORE.INTER>
-16.6468

>  <SCORE.INTER.CONST>
1

>  <SCORE.INTER.POLAR>
0

>  <SCORE.INTER.ROT>
0

>  <SCORE.INTER.SOLV>
3.81183

>  <SCORE.INTER.VDW>
-15.9685

>  <SCORE.INTER.norm>
-1.66468

>  <SCORE.INTRA>
0

>  <SCORE.INTRA.DIHEDRAL>
0

>  <SCORE.INTRA.DIHEDRAL.0>
0

>  <SCORE.INTRA.POLAR>
0

>  <SCORE.INTRA.POLAR.0>
0

>  <SCORE.INTRA.REPUL>
0

>  <SCORE.INTRA.REPUL.0>
0

>  <SCORE.INTRA.SOLV>
0

>  <SCORE.INTRA.SOLV.lig_0>
-4.28614

>  <SCORE.INTRA.VDW>
0

>  <SCORE.INTRA.VDW.0>
0

>  <SCORE.INTRA.norm>
0

>  <SCORE.RESTR>
0

>  <SCORE.RESTR.CAVITY>
0

>  <SCORE.RESTR.norm>
0

>  <SCORE.SYSTEM>
0

>  <SCORE.SYSTEM.CONST>
0

>  <SCORE.SYSTEM.DIHEDRAL>
0

>  <SCORE.SYSTEM.SOLV>
0

>  <SCORE.SYSTEM.norm>
0

>  <SCORE.heavy>
10

>  <SCORE.norm>
-1.66468

>  <RMSD>
2.929

$$$$
ligand
 OpenBabel11021811423D
libRbt.so/2013.1/901 2013/11/27
 10 11  0  0  0  0  0  0  0  0999 V2000
  -11.4364  -11.1885    5.8732 N   0  0  0  0  0  0  0  0  0  0  0  0
  -11.1991  -12.5490    5.6671 C   0  0  0  0  0  0  0  0  0  0  0  0
  -11.2214  -13.4438    6.6710 N   0  0  0  0  0  0  0  0  0  0  0  0
  -11.5063  -12.8718    7.9077 C   0  0  0  0  0  0  0  0  0  0  0  0
  -11.7493  -11.5298    8.2059 C   0  0  0  0  0  0  0  0  0  0  0  0
  -11.7201  -10.5673    7.1358 C   0  0  0  0  0  0  0  0  0  0  0  0
  -11.8966   -9.3729    7.1395 O   0  0  0  0  0  0  0  0  0  0  0  0
  -12.0018  -11.4112    9.5848 N   0  0  0  0  0  0  0  0  0  0  0  0
  -11.9102  -12.6756   10.0782 C   0  0  0  0  0  0  0  0  0  0  0  0
  -11.6050  -13.5956    9.0653 N   0  0  0  0  0  0  0  0  0  0  0  0
  1  2  1  0  0  0  0
  1  6  1  0  0  0  0
  2  3  2  0  0  0  0
  3  4  1  0  0  0  0
  4  5  2  0  0  0  0
  4 10  1  0  0  0  0
  5  6  1  0  0  0  0
  5  8  1  0  0  0  0
  6  7  2  0  0  0  0
  8  9  1  0  0  0  0
  9 10  2  0  0  0  0
M  END
>  <CHROM.1>
-11.62929866,-11.87318215,7.71889354,-1.32947190,-1.35491088,2.41750873

>  <Name>
ligand

>  <RI>
0

>  <Rbt.Current_Directory>
/home/itssahil/PROJECTS/Mol_Feturizer/New_Systems/rnas/2EES

>  <Rbt.Executable>
rbdock ($Id: //depot/dev/client3/rdock/2013.1/src/exe/rbdock.cxx#4 $)

>  <Rbt.Library>
libRbt.so (2013.1, Build901 2013/11/27)

>  <Rbt.Parameter_File>
/export/apps/rDock/src/rDock_2013.1_src/data/scripts/dock_solv.prm

>  <Rbt.Receptor>
prm/pocket_docking_7.prm

>  <SCORE>
-16.582

>  <SCORE.INTER>
-16.582

>  <SCORE.INTER.CONST>
1

>  <SCORE.INTER.POLAR>
0

>  <SCORE.INTER.ROT>
0

>  <SCORE.INTER.SOLV>
3.86701

>  <SCORE.INTER.VDW>
-15.9437

>  <SCORE.INTER.norm>
-1.6582

>  <SCORE.INTRA>
0

>  <SCORE.INTRA.DIHEDRAL>
0

>  <SCORE.INTRA.DIHEDRAL.0>
0

>  <SCORE.INTRA.POLAR>
0

>  <SCORE.INTRA.POLAR.0>
0

>  <SCORE.INTRA.REPUL>
0

>  <SCORE.INTRA.REPUL.0>
0

>  <SCORE.INTRA.SOLV>
0

>  <SCORE.INTRA.SOLV.lig_0>
-4.28614

>  <SCORE.INTRA.VDW>
0

>  <SCORE.INTRA.VDW.0>
0

>  <SCORE.INTRA.norm>
0

>  <SCORE.RESTR>
0

>  <SCORE.RESTR.CAVITY>
0

>  <SCORE.RESTR.norm>
0

>  <SCORE.SYSTEM>
0

>  <SCORE.SYSTEM.CONST>
0

>  <SCORE.SYSTEM.DIHEDRAL>
0

>  <SCORE.SYSTEM.SOLV>
0

>  <SCORE.SYSTEM.norm>
0

>  <SCORE.heavy>
10

>  <SCORE.norm>
-1.6582

>  <RMSD>
2.929

$$$$
ligand
 OpenBabel11021811423D
libRbt.so/2013.1/901 2013/11/27
 10 11  0  0  0  0  0  0  0  0999 V2000
  -11.4549  -11.1633    5.8835 N   0  0  0  0  0  0  0  0  0  0  0  0
  -11.2308  -12.5261    5.6777 C   0  0  0  0  0  0  0  0  0  0  0  0
  -11.2614  -13.4203    6.6820 N   0  0  0  0  0  0  0  0  0  0  0  0
  -11.5405  -12.8452    7.9185 C   0  0  0  0  0  0  0  0  0  0  0  0
  -11.7704  -11.5008    8.2164 C   0  0  0  0  0  0  0  0  0  0  0  0
  -11.7323  -10.5389    7.1459 C   0  0  0  0  0  0  0  0  0  0  0  0
  -11.8972   -9.3429    7.1493 O   0  0  0  0  0  0  0  0  0  0  0  0
  -12.0213  -11.3793    9.5953 N   0  0  0  0  0  0  0  0  0  0  0  0
  -11.9418  -12.6444   10.0892 C   0  0  0  0  0  0  0  0  0  0  0  0
  -11.6458  -13.5676    9.0765 N   0  0  0  0  0  0  0  0  0  0  0  0
  1  2  1  0  0  0  0
  1  6  1  0  0  0  0
  2  3  2  0  0  0  0
  3  4  1  0  0  0  0
  4  5  2  0  0  0  0
  4 10  1  0  0  0  0
  5  6  1  0  0  0  0
  5  8  1  0  0  0  0
  6  7  2  0  0  0  0
  8  9  1  0  0  0  0
  9 10  2  0  0  0  0
M  END
>  <CHROM.1>
-11.65387066,-11.84548315,7.72947133,-1.29564127,-1.36142086,2.45025705

>  <Name>
ligand

>  <RI>
0

>  <Rbt.Current_Directory>
/home/itssahil/PROJECTS/Mol_Feturizer/New_Systems/rnas/2EES

>  <Rbt.Executable>
rbdock ($Id: //depot/dev/client3/rdock/2013.1/src/exe/rbdock.cxx#4 $)

>  <Rbt.Library>
libRbt.so (2013.1, Build901 2013/11/27)

>  <Rbt.Parameter_File>
/export/apps/rDock/src/rDock_2013.1_src/data/scripts/dock_solv.prm

>  <Rbt.Receptor>
prm/pocket_docking_8.prm

>  <SCORE>
-16.5508

>  <SCORE.INTER>
-16.5508

>  <SCORE.INTER.CONST>
1

>  <SCORE.INTER.POLAR>
0

>  <SCORE.INTER.ROT>
0

>  <SCORE.INTER.SOLV>
3.86866

>  <SCORE.INTER.VDW>
-15.9234

>  <SCORE.INTER.norm>
-1.65508

>  <SCORE.INTRA>
0

>  <SCORE.INTRA.DIHEDRAL>
0

>  <SCORE.INTRA.DIHEDRAL.0>
0

>  <SCORE.INTRA.POLAR>
0

>  <SCORE.INTRA.POLAR.0>
0

>  <SCORE.INTRA.REPUL>
0

>  <SCORE.INTRA.REPUL.0>
0

>  <SCORE.INTRA.SOLV>
0

>  <SCORE.INTRA.SOLV.lig_0>
-4.28614

>  <SCORE.INTRA.VDW>
0

>  <SCORE.INTRA.VDW.0>
0

>  <SCORE.INTRA.norm>
0

>  <SCORE.RESTR>
0

>  <SCORE.RESTR.CAVITY>
0

>  <SCORE.RESTR.norm>
0

>  <SCORE.SYSTEM>
0

>  <SCORE.SYSTEM.CONST>
0

>  <SCORE.SYSTEM.DIHEDRAL>
0

>  <SCORE.SYSTEM.SOLV>
0

>  <SCORE.SYSTEM.norm>
0

>  <SCORE.heavy>
10

>  <SCORE.norm>
-1.65508

>  <RMSD>
2.929

$$$$
ligand
 OpenBabel11021811423D
libRbt.so/2013.1/901 2013/11/27
 10 11  0  0  0  0  0  0  0  0999 V2000
  -11.4304  -11.1708    5.8834 N   0  0  0  0  0  0  0  0  0  0  0  0
  -11.2100  -12.5319    5.6635 C   0  0  0  0  0  0  0  0  0  0  0  0
  -11.2450  -13.4367    6.6580 N   0  0  0  0  0  0  0  0  0  0  0  0
  -11.5244  -12.8740    7.9002 C   0  0  0  0  0  0  0  0  0  0  0  0
  -11.7508  -11.5322    8.2121 C   0  0  0  0  0  0  0  0  0  0  0  0
  -11.7080  -10.5591    7.1520 C   0  0  0  0  0  0  0  0  0  0  0  0
  -11.8694   -9.3627    7.1679 O   0  0  0  0  0  0  0  0  0  0  0  0
  -12.0036  -11.4248    9.5918 N   0  0  0  0  0  0  0  0  0  0  0  0
  -11.9288  -12.6953   10.0722 C   0  0  0  0  0  0  0  0  0  0  0  0
  -11.6338  -13.6085    9.0502 N   0  0  0  0  0  0  0  0  0  0  0  0
  1  2  1  0  0  0  0
  1  6  1  0  0  0  0
  2  3  2  0  0  0  0
  3  4  1  0  0  0  0
  4  5  2  0  0  0  0
  4 10  1  0  0  0  0
  5  6  1  0  0  0  0
  5  8  1  0  0  0  0
  6  7  2  0  0  0  0
  8  9  1  0  0  0  0
  9 10  2  0  0  0  0
M  END
>  <CHROM.1>
-11.63448500,-11.87203689,7.72168595,-1.27939498,-1.36200728,2.47685080

>  <Name>
ligand

>  <RI>
0

>  <Rbt.Current_Directory>
/home/itssahil/PROJECTS/Mol_Feturizer/New_Systems/rnas/2EES

>  <Rbt.Executable>
rbdock ($Id: //depot/dev/client3/rdock/2013.1/src/exe/rbdock.cxx#4 $)

>  <Rbt.Library>
libRbt.so (2013.1, Build901 2013/11/27)

>  <Rbt.Parameter_File>
/export/apps/rDock/src/rDock_2013.1_src/data/scripts/dock_solv.prm

>  <Rbt.Receptor>
prm/pocket_docking_8.prm

>  <SCORE>
-16.5755

>  <SCORE.INTER>
-16.5755

>  <SCORE.INTER.CONST>
1

>  <SCORE.INTER.POLAR>
0

>  <SCORE.INTER.ROT>
0

>  <SCORE.INTER.SOLV>
3.8967

>  <SCORE.INTER.VDW>
-15.9492

>  <SCORE.INTER.norm>
-1.65755

>  <SCORE.INTRA>
0

>  <SCORE.INTRA.DIHEDRAL>
0

>  <SCORE.INTRA.DIHEDRAL.0>
0

>  <SCORE.INTRA.POLAR>
0

>  <SCORE.INTRA.POLAR.0>
0

>  <SCORE.INTRA.REPUL>
0

>  <SCORE.INTRA.REPUL.0>
0

>  <SCORE.INTRA.SOLV>
0

>  <SCORE.INTRA.SOLV.lig_0>
-4.28614

>  <SCORE.INTRA.VDW>
0

>  <SCORE.INTRA.VDW.0>
0

>  <SCORE.INTRA.norm>
0

>  <SCORE.RESTR>
0

>  <SCORE.RESTR.CAVITY>
0

>  <SCORE.RESTR.norm>
0

>  <SCORE.SYSTEM>
0

>  <SCORE.SYSTEM.CONST>
0

>  <SCORE.SYSTEM.DIHEDRAL>
0

>  <SCORE.SYSTEM.SOLV>
0

>  <SCORE.SYSTEM.norm>
0

>  <SCORE.heavy>
10

>  <SCORE.norm>
-1.65755

>  <RMSD>
2.929

$$$$
ligand
 OpenBabel11021811423D
libRbt.so/2013.1/901 2013/11/27
 10 11  0  0  0  0  0  0  0  0999 V2000
  -11.4624  -11.1889    5.8878 N   0  0  0  0  0  0  0  0  0  0  0  0
  -11.2065  -12.5471    5.6897 C   0  0  0  0  0  0  0  0  0  0  0  0
  -11.2229  -13.4373    6.6979 N   0  0  0  0  0  0  0  0  0  0  0  0
  -11.5221  -12.8630    7.9301 C   0  0  0  0  0  0  0  0  0  0  0  0
  -11.7839  -11.5227    8.2204 C   0  0  0  0  0  0  0  0  0  0  0  0
  -11.7612  -10.5651    7.1457 C   0  0  0  0  0  0  0  0  0  0  0  0
  -11.9530   -9.3732    7.1425 O   0  0  0  0  0  0  0  0  0  0  0  0
  -12.0457  -11.4007    9.5973 N   0  0  0  0  0  0  0  0  0  0  0  0
  -11.9407  -12.6615   10.0974 C   0  0  0  0  0  0  0  0  0  0  0  0
  -11.6180  -13.5823    9.0908 N   0  0  0  0  0  0  0  0  0  0  0  0
  1  2  1  0  0  0  0
  1  6  1  0  0  0  0
  2  3  2  0  0  0  0
  3  4  1  0  0  0  0
  4  5  2  0  0  0  0
  4 10  1  0  0  0  0
  5  6  1  0  0  0  0
  5  8  1  0  0  0  0
  6  7  2  0  0  0  0
  8  9  1  0  0  0  0
  9 10  2  0  0  0  0
M  END
>  <CHROM.1>
-11.65685253,-11.86693947,7.73575418,-1.35553850,-1.34212139,2.38718365

>  <Name>
ligand

>  <RI>
0

>  <Rbt.Current_Directory>
/home/itssahil/PROJECTS/Mol_Feturizer/New_Systems/rnas/2EES

>  <Rbt.Executable>
rbdock ($Id: //depot/dev/client3/rdock/2013.1/src/exe/rbdock.cxx#4 $)

>  <Rbt.Library>
libRbt.so (2013.1, Build901 2013/11/27)

>  <Rbt.Parameter_File>
/export/apps/rDock/src/rDock_2013.1_src/data/scripts/dock_solv.prm

>  <Rbt.Receptor>
prm/pocket_docking_8.prm

>  <SCORE>
-16.6507

>  <SCORE.INTER>
-16.6507

>  <SCORE.INTER.CONST>
1

>  <SCORE.INTER.POLAR>
0

>  <SCORE.INTER.ROT>
0

>  <SCORE.INTER.SOLV>
3.80464

>  <SCORE.INTER.VDW>
-15.9687

>  <SCORE.INTER.norm>
-1.66507

>  <SCORE.INTRA>
0

>  <SCORE.INTRA.DIHEDRAL>
0

>  <SCORE.INTRA.DIHEDRAL.0>
0

>  <SCORE.INTRA.POLAR>
0

>  <SCORE.INTRA.POLAR.0>
0

>  <SCORE.INTRA.REPUL>
0

>  <SCORE.INTRA.REPUL.0>
0

>  <SCORE.INTRA.SOLV>
0

>  <SCORE.INTRA.SOLV.lig_0>
-4.28614

>  <SCORE.INTRA.VDW>
0

>  <SCORE.INTRA.VDW.0>
0

>  <SCORE.INTRA.norm>
0

>  <SCORE.RESTR>
0

>  <SCORE.RESTR.CAVITY>
0

>  <SCORE.RESTR.norm>
0

>  <SCORE.SYSTEM>
0

>  <SCORE.SYSTEM.CONST>
0

>  <SCORE.SYSTEM.DIHEDRAL>
0

>  <SCORE.SYSTEM.SOLV>
0

>  <SCORE.SYSTEM.norm>
0

>  <SCORE.heavy>
10

>  <SCORE.norm>
-1.66507

>  <RMSD>
2.929

$$$$
ligand
 OpenBabel11021811423D
libRbt.so/2013.1/901 2013/11/27
 10 11  0  0  0  0  0  0  0  0999 V2000
  -11.4195  -11.1921    5.8705 N   0  0  0  0  0  0  0  0  0  0  0  0
  -11.1892  -12.5541    5.6665 C   0  0  0  0  0  0  0  0  0  0  0  0
  -11.2238  -13.4484    6.6704 N   0  0  0  0  0  0  0  0  0  0  0  0
  -11.5136  -12.8743    7.9050 C   0  0  0  0  0  0  0  0  0  0  0  0
  -11.7502  -11.5307    8.2012 C   0  0  0  0  0  0  0  0  0  0  0  0
  -11.7079  -10.5687    7.1310 C   0  0  0  0  0  0  0  0  0  0  0  0
  -11.8769   -9.3733    7.1332 O   0  0  0  0  0  0  0  0  0  0  0  0
  -12.0112  -11.4101    9.5783 N   0  0  0  0  0  0  0  0  0  0  0  0
  -11.9308  -12.6749   10.0727 C   0  0  0  0  0  0  0  0  0  0  0  0
  -11.6245  -13.5970    9.0622 N   0  0  0  0  0  0  0  0  0  0  0  0
  1  2  1  0  0  0  0
  1  6  1  0  0  0  0
  2  3  2  0  0  0  0
  3  4  1  0  0  0  0
  4  5  2  0  0  0  0
  4 10  1  0  0  0  0
  5  6  1  0  0  0  0
  5  8  1  0  0  0  0
  6  7  2  0  0  0  0
  8  9  1  0  0  0  0
  9 10  2  0  0  0  0
M  END
>  <CHROM.1>
-11.62905033,-11.87497170,7.71512199,-1.28720339,-1.35377814,2.45848262

>  <Name>
ligand

>  <RI>
0

>  <Rbt.Current_Directory>
/home/itssahil/PROJECTS/Mol_Feturizer/New_Systems/rnas/2EES

>  <Rbt.Executable>
rbdock ($Id: //depot/dev/client3/rdock/2013.1/src/exe/rbdock.cxx#4 $)

>  <Rbt.Library>
libRbt.so (2013.1, Build901 2013/11/27)

>  <Rbt.Parameter_File>
/export/apps/rDock/src/rDock_2013.1_src/data/scripts/dock_solv.prm

>  <Rbt.Receptor>
prm/blind_docking_100.prm

>  <SCORE>
-16.5873

>  <SCORE.INTER>
-16.5873

>  <SCORE.INTER.CONST>
1

>  <SCORE.INTER.POLAR>
0

>  <SCORE.INTER.ROT>
0

>  <SCORE.INTER.SOLV>
3.87718

>  <SCORE.INTER.VDW>
-15.9506

>  <SCORE.INTER.norm>
-1.65873

>  <SCORE.INTRA>
0

>  <SCORE.INTRA.DIHEDRAL>
0

>  <SCORE.INTRA.DIHEDRAL.0>
0

>  <SCORE.INTRA.POLAR>
0

>  <SCORE.INTRA.POLAR.0>
0

>  <SCORE.INTRA.REPUL>
0

>  <SCORE.INTRA.REPUL.0>
0

>  <SCORE.INTRA.SOLV>
0

>  <SCORE.INTRA.SOLV.lig_0>
-4.28614

>  <SCORE.INTRA.VDW>
0

>  <SCORE.INTRA.VDW.0>
0

>  <SCORE.INTRA.norm>
0

>  <SCORE.RESTR>
0

>  <SCORE.RESTR.CAVITY>
0

>  <SCORE.RESTR.norm>
0

>  <SCORE.SYSTEM>
0

>  <SCORE.SYSTEM.CONST>
0

>  <SCORE.SYSTEM.DIHEDRAL>
0

>  <SCORE.SYSTEM.SOLV>
0

>  <SCORE.SYSTEM.norm>
0

>  <SCORE.heavy>
10

>  <SCORE.norm>
-1.65873

>  <RMSD>
2.930

$$$$
ligand
 OpenBabel11021811423D
libRbt.so/2013.1/901 2013/11/27
 10 11  0  0  0  0  0  0  0  0999 V2000
  -11.4582  -11.1888    5.8926 N   0  0  0  0  0  0  0  0  0  0  0  0
  -11.2055  -12.5483    5.6990 C   0  0  0  0  0  0  0  0  0  0  0  0
  -11.2248  -13.4352    6.7100 N   0  0  0  0  0  0  0  0  0  0  0  0
  -11.5234  -12.8563    7.9402 C   0  0  0  0  0  0  0  0  0  0  0  0
  -11.7821  -11.5145    8.2261 C   0  0  0  0  0  0  0  0  0  0  0  0
  -11.7563  -10.5604    7.1484 C   0  0  0  0  0  0  0  0  0  0  0  0
  -11.9452   -9.3679    7.1413 O   0  0  0  0  0  0  0  0  0  0  0  0
  -12.0444  -11.3875    9.6024 N   0  0  0  0  0  0  0  0  0  0  0  0
  -11.9428  -12.6469   10.1066 C   0  0  0  0  0  0  0  0  0  0  0  0
  -11.6218  -13.5717    9.1031 N   0  0  0  0  0  0  0  0  0  0  0  0
  1  2  1  0  0  0  0
  1  6  1  0  0  0  0
  2  3  2  0  0  0  0
  3  4  1  0  0  0  0
  4  5  2  0  0  0  0
  4 10  1  0  0  0  0
  5  6  1  0  0  0  0
  5  8  1  0  0  0  0
  6  7  2  0  0  0  0
  8  9  1  0  0  0  0
  9 10  2  0  0  0  0
M  END
>  <CHROM.1>
-11.65552392,-11.86055190,7.74259577,-1.34568537,-1.34332434,2.39363514

>  <Name>
ligand

>  <RI>
0

>  <Rbt.Current_Directory>
/home/itssahil/PROJECTS/Mol_Feturizer/New_Systems/rnas/2EES

>  <Rbt.Executable>
rbdock ($Id: //depot/dev/client3/rdock/2013.1/src/exe/rbdock.cxx#4 $)

>  <Rbt.Library>
libRbt.so (2013.1, Build901 2013/11/27)

>  <Rbt.Parameter_File>
/export/apps/rDock/src/rDock_2013.1_src/data/scripts/dock_solv.prm

>  <Rbt.Receptor>
prm/blind_docking_60.prm

>  <SCORE>
-16.5755

>  <SCORE.INTER>
-16.5755

>  <SCORE.INTER.CONST>
1

>  <SCORE.INTER.POLAR>
0

>  <SCORE.INTER.ROT>
0

>  <SCORE.INTER.SOLV>
3.8091

>  <SCORE.INTER.VDW>
-15.92

>  <SCORE.INTER.norm>
-1.65755

>  <SCORE.INTRA>
0

>  <SCORE.INTRA.DIHEDRAL>
0

>  <SCORE.INTRA.DIHEDRAL.0>
0

>  <SCORE.INTRA.POLAR>
0

>  <SCORE.INTRA.POLAR.0>
0

>  <SCORE.INTRA.REPUL>
0

>  <SCORE.INTRA.REPUL.0>
0

>  <SCORE.INTRA.SOLV>
0

>  <SCORE.INTRA.SOLV.lig_0>
-4.28614

>  <SCORE.INTRA.VDW>
0

>  <SCORE.INTRA.VDW.0>
0

>  <SCORE.INTRA.norm>
0

>  <SCORE.RESTR>
0

>  <SCORE.RESTR.CAVITY>
0

>  <SCORE.RESTR.norm>
0

>  <SCORE.SYSTEM>
0

>  <SCORE.SYSTEM.CONST>
0

>  <SCORE.SYSTEM.DIHEDRAL>
0

>  <SCORE.SYSTEM.SOLV>
0

>  <SCORE.SYSTEM.norm>
0

>  <SCORE.heavy>
10

>  <SCORE.norm>
-1.65755

>  <RMSD>
2.930

$$$$
ligand
 OpenBabel11021811423D
libRbt.so/2013.1/901 2013/11/27
 10 11  0  0  0  0  0  0  0  0999 V2000
  -11.4622  -11.1909    5.8905 N   0  0  0  0  0  0  0  0  0  0  0  0
  -11.2059  -12.5493    5.6942 C   0  0  0  0  0  0  0  0  0  0  0  0
  -11.2232  -13.4384    6.7034 N   0  0  0  0  0  0  0  0  0  0  0  0
  -11.5237  -12.8627    7.9347 C   0  0  0  0  0  0  0  0  0  0  0  0
  -11.7860  -11.5222    8.2232 C   0  0  0  0  0  0  0  0  0  0  0  0
  -11.7623  -10.5658    7.1474 C   0  0  0  0  0  0  0  0  0  0  0  0
  -11.9543   -9.3739    7.1427 O   0  0  0  0  0  0  0  0  0  0  0  0
  -12.0492  -11.3987    9.5996 N   0  0  0  0  0  0  0  0  0  0  0  0
  -11.9445  -12.6588   10.1013 C   0  0  0  0  0  0  0  0  0  0  0  0
  -11.6207  -13.5808    9.0961 N   0  0  0  0  0  0  0  0  0  0  0  0
  1  2  1  0  0  0  0
  1  6  1  0  0  0  0
  2  3  2  0  0  0  0
  3  4  1  0  0  0  0
  4  5  2  0  0  0  0
  4 10  1  0  0  0  0
  5  6  1  0  0  0  0
  5  8  1  0  0  0  0
  6  7  2  0  0  0  0
  8  9  1  0  0  0  0
  9 10  2  0  0  0  0
M  END
>  <CHROM.1>
-11.65840855,-11.86692163,7.73905561,-1.35305009,-1.34130105,2.38848268

>  <Name>
ligand

>  <RI>
0

>  <Rbt.Current_Directory>
/home/itssahil/PROJECTS/Mol_Feturizer/New_Systems/rnas/2EES

>  <Rbt.Executable>
rbdock ($Id: //depot/dev/client3/rdock/2013.1/src/exe/rbdock.cxx#4 $)

>  <Rbt.Library>
libRbt.so (2013.1, Build901 2013/11/27)

>  <Rbt.Parameter_File>
/export/apps/rDock/src/rDock_2013.1_src/data/scripts/dock_solv.prm

>  <Rbt.Receptor>
prm/blind_docking_80.prm

>  <SCORE>
-16.6508

>  <SCORE.INTER>
-16.6508

>  <SCORE.INTER.CONST>
1

>  <SCORE.INTER.POLAR>
0

>  <SCORE.INTER.ROT>
0

>  <SCORE.INTER.SOLV>
3.80125

>  <SCORE.INTER.VDW>
-15.9676

>  <SCORE.INTER.norm>
-1.66508

>  <SCORE.INTRA>
0

>  <SCORE.INTRA.DIHEDRAL>
0

>  <SCORE.INTRA.DIHEDRAL.0>
0

>  <SCORE.INTRA.POLAR>
0

>  <SCORE.INTRA.POLAR.0>
0

>  <SCORE.INTRA.REPUL>
0

>  <SCORE.INTRA.REPUL.0>
0

>  <SCORE.INTRA.SOLV>
0

>  <SCORE.INTRA.SOLV.lig_0>
-4.28614

>  <SCORE.INTRA.VDW>
0

>  <SCORE.INTRA.VDW.0>
0

>  <SCORE.INTRA.norm>
0

>  <SCORE.RESTR>
0

>  <SCORE.RESTR.CAVITY>
0

>  <SCORE.RESTR.norm>
0

>  <SCORE.SYSTEM>
0

>  <SCORE.SYSTEM.CONST>
0

>  <SCORE.SYSTEM.DIHEDRAL>
0

>  <SCORE.SYSTEM.SOLV>
0

>  <SCORE.SYSTEM.norm>
0

>  <SCORE.heavy>
10

>  <SCORE.norm>
-1.66508

>  <RMSD>
2.930

$$$$
ligand
 OpenBabel11021811423D
libRbt.so/2013.1/901 2013/11/27
 10 11  0  0  0  0  0  0  0  0999 V2000
  -11.4489  -11.1743    5.8889 N   0  0  0  0  0  0  0  0  0  0  0  0
  -11.2168  -12.5365    5.6885 C   0  0  0  0  0  0  0  0  0  0  0  0
  -11.2483  -13.4279    6.6952 N   0  0  0  0  0  0  0  0  0  0  0  0
  -11.5368  -12.8505    7.9285 C   0  0  0  0  0  0  0  0  0  0  0  0
  -11.7750  -11.5064    8.2212 C   0  0  0  0  0  0  0  0  0  0  0  0
  -11.7361  -10.5476    7.1480 C   0  0  0  0  0  0  0  0  0  0  0  0
  -11.9070   -9.3524    7.1469 O   0  0  0  0  0  0  0  0  0  0  0  0
  -12.0340  -11.3822    9.5983 N   0  0  0  0  0  0  0  0  0  0  0  0
  -11.9508  -12.6453   10.0964 C   0  0  0  0  0  0  0  0  0  0  0  0
  -11.6447  -13.5700    9.0881 N   0  0  0  0  0  0  0  0  0  0  0  0
  1  2  1  0  0  0  0
  1  6  1  0  0  0  0
  2  3  2  0  0  0  0
  3  4  1  0  0  0  0
  4  5  2  0  0  0  0
  4 10  1  0  0  0  0
  5  6  1  0  0  0  0
  5  8  1  0  0  0  0
  6  7  2  0  0  0  0
  8  9  1  0  0  0  0
  9 10  2  0  0  0  0
M  END
>  <CHROM.1>
-11.65421824,-11.85198968,7.73586991,-1.29786655,-1.35408879,2.44508631

>  <Name>
ligand

>  <RI>
0

>  <Rbt.Current_Directory>
/home/itssahil/PROJECTS/Mol_Feturizer/New_Systems/rnas/2EES

>  <Rbt.Executable>
rbdock ($Id: //depot/dev/client3/rdock/2013.1/src/exe/rbdock.cxx#4 $)

>  <Rbt.Library>
libRbt.so (2013.1, Build901 2013/11/27)

>  <Rbt.Parameter_File>
/export/apps/rDock/src/rDock_2013.1_src/data/scripts/dock_solv.prm

>  <Rbt.Receptor>
prm/blind_docking_80.prm

>  <SCORE>
-16.548

>  <SCORE.INTER>
-16.548

>  <SCORE.INTER.CONST>
1

>  <SCORE.INTER.POLAR>
0

>  <SCORE.INTER.ROT>
0

>  <SCORE.INTER.SOLV>
3.84979

>  <SCORE.INTER.VDW>
-15.9153

>  <SCORE.INTER.norm>
-1.6548

>  <SCORE.INTRA>
0

>  <SCORE.INTRA.DIHEDRAL>
0

>  <SCORE.INTRA.DIHEDRAL.0>
0

>  <SCORE.INTRA.POLAR>
0

>  <SCORE.INTRA.POLAR.0>
0

>  <SCORE.INTRA.REPUL>
0

>  <SCORE.INTRA.REPUL.0>
0

>  <SCORE.INTRA.SOLV>
0

>  <SCORE.INTRA.SOLV.lig_0>
-4.28614

>  <SCORE.INTRA.VDW>
0

>  <SCORE.INTRA.VDW.0>
0

>  <SCORE.INTRA.norm>
0

>  <SCORE.RESTR>
0

>  <SCORE.RESTR.CAVITY>
0

>  <SCORE.RESTR.norm>
0

>  <SCORE.SYSTEM>
0

>  <SCORE.SYSTEM.CONST>
0

>  <SCORE.SYSTEM.DIHEDRAL>
0

>  <SCORE.SYSTEM.SOLV>
0

>  <SCORE.SYSTEM.norm>
0

>  <SCORE.heavy>
10

>  <SCORE.norm>
-1.6548

>  <RMSD>
2.930

$$$$
ligand
 OpenBabel11021811423D
libRbt.so/2013.1/901 2013/11/27
 10 11  0  0  0  0  0  0  0  0999 V2000
  -11.4619  -11.1893    5.8880 N   0  0  0  0  0  0  0  0  0  0  0  0
  -11.2081  -12.5480    5.6903 C   0  0  0  0  0  0  0  0  0  0  0  0
  -11.2261  -13.4379    6.6987 N   0  0  0  0  0  0  0  0  0  0  0  0
  -11.5246  -12.8628    7.9308 C   0  0  0  0  0  0  0  0  0  0  0  0
  -11.7843  -11.5221    8.2207 C   0  0  0  0  0  0  0  0  0  0  0  0
  -11.7598  -10.5648    7.1458 C   0  0  0  0  0  0  0  0  0  0  0  0
  -11.9497   -9.3725    7.1423 O   0  0  0  0  0  0  0  0  0  0  0  0
  -12.0461  -11.3993    9.5975 N   0  0  0  0  0  0  0  0  0  0  0  0
  -11.9432  -12.6601   10.0980 C   0  0  0  0  0  0  0  0  0  0  0  0
  -11.6218  -13.5817    9.0916 N   0  0  0  0  0  0  0  0  0  0  0  0
  1  2  1  0  0  0  0
  1  6  1  0  0  0  0
  2  3  2  0  0  0  0
  3  4  1  0  0  0  0
  4  5  2  0  0  0  0
  4 10  1  0  0  0  0
  5  6  1  0  0  0  0
  5  8  1  0  0  0  0
  6  7  2  0  0  0  0
  8  9  1  0  0  0  0
  9 10  2  0  0  0  0
M  END
>  <CHROM.1>
-11.65769137,-11.86661565,7.73614794,-1.34986752,-1.34311226,2.39246851

>  <Name>
ligand

>  <RI>
0

>  <Rbt.Current_Directory>
/home/itssahil/PROJECTS/Mol_Feturizer/New_Systems/rnas/2EES

>  <Rbt.Executable>
rbdock ($Id: //depot/dev/client3/rdock/2013.1/src/exe/rbdock.cxx#4 $)

>  <Rbt.Library>
libRbt.so (2013.1, Build901 2013/11/27)

>  <Rbt.Parameter_File>
/export/apps/rDock/src/rDock_2013.1_src/data/scripts/dock_solv.prm

>  <Rbt.Receptor>
prm/pocket_docking_3.prm

>  <SCORE>
-16.6527

>  <SCORE.INTER>
-16.6527

>  <SCORE.INTER.CONST>
1

>  <SCORE.INTER.POLAR>
0

>  <SCORE.INTER.ROT>
0

>  <SCORE.INTER.SOLV>
3.80778

>  <SCORE.INTER.VDW>
-15.9711

>  <SCORE.INTER.norm>
-1.66527

>  <SCORE.INTRA>
0

>  <SCORE.INTRA.DIHEDRAL>
0

>  <SCORE.INTRA.DIHEDRAL.0>
0

>  <SCORE.INTRA.POLAR>
0

>  <SCORE.INTRA.POLAR.0>
0

>  <SCORE.INTRA.REPUL>
0

>  <SCORE.INTRA.REPUL.0>
0

>  <SCORE.INTRA.SOLV>
0

>  <SCORE.INTRA.SOLV.lig_0>
-4.28614

>  <SCORE.INTRA.VDW>
0

>  <SCORE.INTRA.VDW.0>
0

>  <SCORE.INTRA.norm>
0

>  <SCORE.RESTR>
0

>  <SCORE.RESTR.CAVITY>
0

>  <SCORE.RESTR.norm>
0

>  <SCORE.SYSTEM>
0

>  <SCORE.SYSTEM.CONST>
0

>  <SCORE.SYSTEM.DIHEDRAL>
0

>  <SCORE.SYSTEM.SOLV>
0

>  <SCORE.SYSTEM.norm>
0

>  <SCORE.heavy>
10

>  <SCORE.norm>
-1.66527

>  <RMSD>
2.930

$$$$
ligand
 OpenBabel11021811423D
libRbt.so/2013.1/901 2013/11/27
 10 11  0  0  0  0  0  0  0  0999 V2000
  -11.4582  -11.1883    5.8870 N   0  0  0  0  0  0  0  0  0  0  0  0
  -11.2044  -12.5470    5.6890 C   0  0  0  0  0  0  0  0  0  0  0  0
  -11.2235  -13.4373    6.6970 N   0  0  0  0  0  0  0  0  0  0  0  0
  -11.5232  -12.8627    7.9290 C   0  0  0  0  0  0  0  0  0  0  0  0
  -11.7830  -11.5220    8.2192 C   0  0  0  0  0  0  0  0  0  0  0  0
  -11.7574  -10.5643    7.1447 C   0  0  0  0  0  0  0  0  0  0  0  0
  -11.9471   -9.3720    7.1415 O   0  0  0  0  0  0  0  0  0  0  0  0
  -12.0461  -11.3998    9.5958 N   0  0  0  0  0  0  0  0  0  0  0  0
  -11.9439  -12.6608   10.0958 C   0  0  0  0  0  0  0  0  0  0  0  0
  -11.6216  -13.5820    9.0894 N   0  0  0  0  0  0  0  0  0  0  0  0
  1  2  1  0  0  0  0
  1  6  1  0  0  0  0
  2  3  2  0  0  0  0
  3  4  1  0  0  0  0
  4  5  2  0  0  0  0
  4 10  1  0  0  0  0
  5  6  1  0  0  0  0
  5  8  1  0  0  0  0
  6  7  2  0  0  0  0
  8  9  1  0  0  0  0
  9 10  2  0  0  0  0
M  END
>  <CHROM.1>
-11.65594851,-11.86637216,7.73462978,-1.34653607,-1.34245116,2.39612233

>  <Name>
ligand

>  <RI>
0

>  <Rbt.Current_Directory>
/home/itssahil/PROJECTS/Mol_Feturizer/New_Systems/rnas/2EES

>  <Rbt.Executable>
rbdock ($Id: //depot/dev/client3/rdock/2013.1/src/exe/rbdock.cxx#4 $)

>  <Rbt.Library>
libRbt.so (2013.1, Build901 2013/11/27)

>  <Rbt.Parameter_File>
/export/apps/rDock/src/rDock_2013.1_src/data/scripts/dock_solv.prm

>  <Rbt.Receptor>
prm/pocket_docking_5.prm

>  <SCORE>
-16.6523

>  <SCORE.INTER>
-16.6523

>  <SCORE.INTER.CONST>
1

>  <SCORE.INTER.POLAR>
0

>  <SCORE.INTER.ROT>
0

>  <SCORE.INTER.SOLV>
3.80893

>  <SCORE.INTER.VDW>
-15.9712

>  <SCORE.INTER.norm>
-1.66523

>  <SCORE.INTRA>
0

>  <SCORE.INTRA.DIHEDRAL>
0

>  <SCORE.INTRA.DIHEDRAL.0>
0

>  <SCORE.INTRA.POLAR>
0

>  <SCORE.INTRA.POLAR.0>
0

>  <SCORE.INTRA.REPUL>
0

>  <SCORE.INTRA.REPUL.0>
0

>  <SCORE.INTRA.SOLV>
0

>  <SCORE.INTRA.SOLV.lig_0>
-4.28614

>  <SCORE.INTRA.VDW>
0

>  <SCORE.INTRA.VDW.0>
0

>  <SCORE.INTRA.norm>
0

>  <SCORE.RESTR>
0

>  <SCORE.RESTR.CAVITY>
0

>  <SCORE.RESTR.norm>
0

>  <SCORE.SYSTEM>
0

>  <SCORE.SYSTEM.CONST>
0

>  <SCORE.SYSTEM.DIHEDRAL>
0

>  <SCORE.SYSTEM.SOLV>
0

>  <SCORE.SYSTEM.norm>
0

>  <SCORE.heavy>
10

>  <SCORE.norm>
-1.66523

>  <RMSD>
2.930

$$$$
ligand
 OpenBabel11021811423D
libRbt.so/2013.1/901 2013/11/27
 10 11  0  0  0  0  0  0  0  0999 V2000
  -11.4455  -11.1941    5.8816 N   0  0  0  0  0  0  0  0  0  0  0  0
  -11.1979  -12.5539    5.6829 C   0  0  0  0  0  0  0  0  0  0  0  0
  -11.2232  -13.4449    6.6900 N   0  0  0  0  0  0  0  0  0  0  0  0
  -11.5223  -12.8699    7.9220 C   0  0  0  0  0  0  0  0  0  0  0  0
  -11.7761  -11.5283    8.2129 C   0  0  0  0  0  0  0  0  0  0  0  0
  -11.7439  -10.5698    7.1392 C   0  0  0  0  0  0  0  0  0  0  0  0
  -11.9278   -9.3765    7.1367 O   0  0  0  0  0  0  0  0  0  0  0  0
  -12.0412  -11.4060    9.5891 N   0  0  0  0  0  0  0  0  0  0  0  0
  -11.9460  -12.6679   10.0882 C   0  0  0  0  0  0  0  0  0  0  0  0
  -11.6264  -13.5898    9.0816 N   0  0  0  0  0  0  0  0  0  0  0  0
  1  2  1  0  0  0  0
  1  6  1  0  0  0  0
  2  3  2  0  0  0  0
  3  4  1  0  0  0  0
  4  5  2  0  0  0  0
  4 10  1  0  0  0  0
  5  6  1  0  0  0  0
  5  8  1  0  0  0  0
  6  7  2  0  0  0  0
  8  9  1  0  0  0  0
  9 10  2  0  0  0  0
M  END
>  <CHROM.1>
-11.64988368,-11.87282700,7.72825135,-1.32509347,-1.34437375,2.41787970

>  <Name>
ligand

>  <RI>
0

>  <Rbt.Current_Directory>
/home/itssahil/PROJECTS/Mol_Feturizer/New_Systems/rnas/2EES

>  <Rbt.Executable>
rbdock ($Id: //depot/dev/client3/rdock/2013.1/src/exe/rbdock.cxx#4 $)

>  <Rbt.Library>
libRbt.so (2013.1, Build901 2013/11/27)

>  <Rbt.Parameter_File>
/export/apps/rDock/src/rDock_2013.1_src/data/scripts/dock_solv.prm

>  <Rbt.Receptor>
prm/pocket_docking_7.prm

>  <SCORE>
-16.6111

>  <SCORE.INTER>
-16.6111

>  <SCORE.INTER.CONST>
1

>  <SCORE.INTER.POLAR>
0

>  <SCORE.INTER.ROT>
0

>  <SCORE.INTER.SOLV>
3.82545

>  <SCORE.INTER.VDW>
-15.9492

>  <SCORE.INTER.norm>
-1.66111

>  <SCORE.INTRA>
0

>  <SCORE.INTRA.DIHEDRAL>
0

>  <SCORE.INTRA.DIHEDRAL.0>
0

>  <SCORE.INTRA.POLAR>
0

>  <SCORE.INTRA.POLAR.0>
0

>  <SCORE.INTRA.REPUL>
0

>  <SCORE.INTRA.REPUL.0>
0

>  <SCORE.INTRA.SOLV>
0

>  <SCORE.INTRA.SOLV.lig_0>
-4.28614

>  <SCORE.INTRA.VDW>
0

>  <SCORE.INTRA.VDW.0>
0

>  <SCORE.INTRA.norm>
0

>  <SCORE.RESTR>
0

>  <SCORE.RESTR.CAVITY>
0

>  <SCORE.RESTR.norm>
0

>  <SCORE.SYSTEM>
0

>  <SCORE.SYSTEM.CONST>
0

>  <SCORE.SYSTEM.DIHEDRAL>
0

>  <SCORE.SYSTEM.SOLV>
0

>  <SCORE.SYSTEM.norm>
0

>  <SCORE.heavy>
10

>  <SCORE.norm>
-1.66111

>  <RMSD>
2.930

$$$$
ligand
 OpenBabel11021811423D
libRbt.so/2013.1/901 2013/11/27
 10 11  0  0  0  0  0  0  0  0999 V2000
  -11.4147  -11.1853    5.8902 N   0  0  0  0  0  0  0  0  0  0  0  0
  -11.1898  -12.5467    5.6765 C   0  0  0  0  0  0  0  0  0  0  0  0
  -11.2314  -13.4484    6.6736 N   0  0  0  0  0  0  0  0  0  0  0  0
  -11.5223  -12.8823    7.9116 C   0  0  0  0  0  0  0  0  0  0  0  0
  -11.7539  -11.5399    8.2172 C   0  0  0  0  0  0  0  0  0  0  0  0
  -11.7041  -10.5701    7.1544 C   0  0  0  0  0  0  0  0  0  0  0  0
  -11.8680   -9.3740    7.1651 O   0  0  0  0  0  0  0  0  0  0  0  0
  -12.0185  -11.4286    9.5944 N   0  0  0  0  0  0  0  0  0  0  0  0
  -11.9452  -12.6974   10.0795 C   0  0  0  0  0  0  0  0  0  0  0  0
  -11.6399  -13.6132    9.0630 N   0  0  0  0  0  0  0  0  0  0  0  0
  1  2  1  0  0  0  0
  1  6  1  0  0  0  0
  2  3  2  0  0  0  0
  3  4  1  0  0  0  0
  4  5  2  0  0  0  0
  4 10  1  0  0  0  0
  5  6  1  0  0  0  0
  5  8  1  0  0  0  0
  6  7  2  0  0  0  0
  8  9  1  0  0  0  0
  9 10  2  0  0  0  0
M  END
>  <CHROM.1>
-11.63281691,-11.88108092,7.72889981,-1.26250179,-1.35415991,2.49013957

>  <Name>
ligand

>  <RI>
0

>  <Rbt.Current_Directory>
/home/itssahil/PROJECTS/Mol_Feturizer/New_Systems/rnas/2EES

>  <Rbt.Executable>
rbdock ($Id: //depot/dev/client3/rdock/2013.1/src/exe/rbdock.cxx#4 $)

>  <Rbt.Library>
libRbt.so (2013.1, Build901 2013/11/27)

>  <Rbt.Parameter_File>
/export/apps/rDock/src/rDock_2013.1_src/data/scripts/dock_solv.prm

>  <Rbt.Receptor>
prm/blind_docking_100.prm

>  <SCORE>
-16.6019

>  <SCORE.INTER>
-16.6019

>  <SCORE.INTER.CONST>
1

>  <SCORE.INTER.POLAR>
0

>  <SCORE.INTER.ROT>
0

>  <SCORE.INTER.SOLV>
3.88362

>  <SCORE.INTER.VDW>
-15.9625

>  <SCORE.INTER.norm>
-1.66019

>  <SCORE.INTRA>
0

>  <SCORE.INTRA.DIHEDRAL>
0

>  <SCORE.INTRA.DIHEDRAL.0>
0

>  <SCORE.INTRA.POLAR>
0

>  <SCORE.INTRA.POLAR.0>
0

>  <SCORE.INTRA.REPUL>
0

>  <SCORE.INTRA.REPUL.0>
0

>  <SCORE.INTRA.SOLV>
0

>  <SCORE.INTRA.SOLV.lig_0>
-4.28614

>  <SCORE.INTRA.VDW>
0

>  <SCORE.INTRA.VDW.0>
0

>  <SCORE.INTRA.norm>
0

>  <SCORE.RESTR>
0

>  <SCORE.RESTR.CAVITY>
0

>  <SCORE.RESTR.norm>
0

>  <SCORE.SYSTEM>
0

>  <SCORE.SYSTEM.CONST>
0

>  <SCORE.SYSTEM.DIHEDRAL>
0

>  <SCORE.SYSTEM.SOLV>
0

>  <SCORE.SYSTEM.norm>
0

>  <SCORE.heavy>
10

>  <SCORE.norm>
-1.66019

>  <RMSD>
2.931

$$$$
ligand
 OpenBabel11021811423D
libRbt.so/2013.1/901 2013/11/27
 10 11  0  0  0  0  0  0  0  0999 V2000
  -11.4257  -11.1892    5.8904 N   0  0  0  0  0  0  0  0  0  0  0  0
  -11.1966  -12.5502    5.6788 C   0  0  0  0  0  0  0  0  0  0  0  0
  -11.2316  -13.4501    6.6779 N   0  0  0  0  0  0  0  0  0  0  0  0
  -11.5204  -12.8824    7.9157 C   0  0  0  0  0  0  0  0  0  0  0  0
  -11.7558  -11.5402    8.2193 C   0  0  0  0  0  0  0  0  0  0  0  0
  -11.7131  -10.5725    7.1544 C   0  0  0  0  0  0  0  0  0  0  0  0
  -11.8812   -9.3769    7.1631 O   0  0  0  0  0  0  0  0  0  0  0  0
  -12.0163  -11.4270    9.5972 N   0  0  0  0  0  0  0  0  0  0  0  0
  -11.9368  -12.6945   10.0846 C   0  0  0  0  0  0  0  0  0  0  0  0
  -11.6316  -13.6114    9.0689 N   0  0  0  0  0  0  0  0  0  0  0  0
  1  2  1  0  0  0  0
  1  6  1  0  0  0  0
  2  3  2  0  0  0  0
  3  4  1  0  0  0  0
  4  5  2  0  0  0  0
  4 10  1  0  0  0  0
  5  6  1  0  0  0  0
  5  8  1  0  0  0  0
  6  7  2  0  0  0  0
  8  9  1  0  0  0  0
  9 10  2  0  0  0  0
M  END
>  <CHROM.1>
-11.63516953,-11.88197085,7.73129647,-1.28519627,-1.35459236,2.46591312

>  <Name>
ligand

>  <RI>
0

>  <Rbt.Current_Directory>
/home/itssahil/PROJECTS/Mol_Feturizer/New_Systems/rnas/2EES

>  <Rbt.Executable>
rbdock ($Id: //depot/dev/client3/rdock/2013.1/src/exe/rbdock.cxx#4 $)

>  <Rbt.Library>
libRbt.so (2013.1, Build901 2013/11/27)

>  <Rbt.Parameter_File>
/export/apps/rDock/src/rDock_2013.1_src/data/scripts/dock_solv.prm

>  <Rbt.Receptor>
prm/blind_docking_100.prm

>  <SCORE>
-16.6084

>  <SCORE.INTER>
-16.6084

>  <SCORE.INTER.CONST>
1

>  <SCORE.INTER.POLAR>
0

>  <SCORE.INTER.ROT>
0

>  <SCORE.INTER.SOLV>
3.87347

>  <SCORE.INTER.VDW>
-15.9634

>  <SCORE.INTER.norm>
-1.66084

>  <SCORE.INTRA>
0

>  <SCORE.INTRA.DIHEDRAL>
0

>  <SCORE.INTRA.DIHEDRAL.0>
0

>  <SCORE.INTRA.POLAR>
0

>  <SCORE.INTRA.POLAR.0>
0

>  <SCORE.INTRA.REPUL>
0

>  <SCORE.INTRA.REPUL.0>
0

>  <SCORE.INTRA.SOLV>
0

>  <SCORE.INTRA.SOLV.lig_0>
-4.28614

>  <SCORE.INTRA.VDW>
0

>  <SCORE.INTRA.VDW.0>
0

>  <SCORE.INTRA.norm>
0

>  <SCORE.RESTR>
0

>  <SCORE.RESTR.CAVITY>
0

>  <SCORE.RESTR.norm>
0

>  <SCORE.SYSTEM>
0

>  <SCORE.SYSTEM.CONST>
0

>  <SCORE.SYSTEM.DIHEDRAL>
0

>  <SCORE.SYSTEM.SOLV>
0

>  <SCORE.SYSTEM.norm>
0

>  <SCORE.heavy>
10

>  <SCORE.norm>
-1.66084

>  <RMSD>
2.931

$$$$
ligand
 OpenBabel11021811423D
libRbt.so/2013.1/901 2013/11/27
 10 11  0  0  0  0  0  0  0  0999 V2000
  -11.3753  -11.1889    5.8418 N   0  0  0  0  0  0  0  0  0  0  0  0
  -11.1509  -12.5525    5.6418 C   0  0  0  0  0  0  0  0  0  0  0  0
  -11.2077  -13.4462    6.6453 N   0  0  0  0  0  0  0  0  0  0  0  0
  -11.5136  -12.8697    7.8749 C   0  0  0  0  0  0  0  0  0  0  0  0
  -11.7460  -11.5244    8.1669 C   0  0  0  0  0  0  0  0  0  0  0  0
  -11.6799  -10.5631    7.0973 C   0  0  0  0  0  0  0  0  0  0  0  0
  -11.8409   -9.3666    7.0964 O   0  0  0  0  0  0  0  0  0  0  0  0
  -12.0285  -11.4016    9.5396 N   0  0  0  0  0  0  0  0  0  0  0  0
  -11.9646  -12.6667   10.0355 C   0  0  0  0  0  0  0  0  0  0  0  0
  -11.6481  -13.5913    9.0303 N   0  0  0  0  0  0  0  0  0  0  0  0
  1  2  1  0  0  0  0
  1  6  1  0  0  0  0
  2  3  2  0  0  0  0
  3  4  1  0  0  0  0
  4  5  2  0  0  0  0
  4 10  1  0  0  0  0
  5  6  1  0  0  0  0
  5  8  1  0  0  0  0
  6  7  2  0  0  0  0
  8  9  1  0  0  0  0
  9 10  2  0  0  0  0
M  END
>  <CHROM.1>
-11.61929264,-11.86967189,7.68289319,-1.21824738,-1.34492694,2.52545309

>  <Name>
ligand

>  <RI>
0

>  <Rbt.Current_Directory>
/home/itssahil/PROJECTS/Mol_Feturizer/New_Systems/rnas/2EES

>  <Rbt.Executable>
rbdock ($Id: //depot/dev/client3/rdock/2013.1/src/exe/rbdock.cxx#4 $)

>  <Rbt.Library>
libRbt.so (2013.1, Build901 2013/11/27)

>  <Rbt.Parameter_File>
/export/apps/rDock/src/rDock_2013.1_src/data/scripts/dock_solv.prm

>  <Rbt.Receptor>
prm/blind_docking_40.prm

>  <SCORE>
-16.5393

>  <SCORE.INTER>
-16.5393

>  <SCORE.INTER.CONST>
1

>  <SCORE.INTER.POLAR>
0

>  <SCORE.INTER.ROT>
0

>  <SCORE.INTER.SOLV>
3.89469

>  <SCORE.INTER.VDW>
-15.9244

>  <SCORE.INTER.norm>
-1.65393

>  <SCORE.INTRA>
0

>  <SCORE.INTRA.DIHEDRAL>
0

>  <SCORE.INTRA.DIHEDRAL.0>
0

>  <SCORE.INTRA.POLAR>
0

>  <SCORE.INTRA.POLAR.0>
0

>  <SCORE.INTRA.REPUL>
0

>  <SCORE.INTRA.REPUL.0>
0

>  <SCORE.INTRA.SOLV>
0

>  <SCORE.INTRA.SOLV.lig_0>
-4.28614

>  <SCORE.INTRA.VDW>
0

>  <SCORE.INTRA.VDW.0>
0

>  <SCORE.INTRA.norm>
0

>  <SCORE.RESTR>
0

>  <SCORE.RESTR.CAVITY>
0

>  <SCORE.RESTR.norm>
0

>  <SCORE.SYSTEM>
0

>  <SCORE.SYSTEM.CONST>
0

>  <SCORE.SYSTEM.DIHEDRAL>
0

>  <SCORE.SYSTEM.SOLV>
0

>  <SCORE.SYSTEM.norm>
0

>  <SCORE.heavy>
10

>  <SCORE.norm>
-1.65393

>  <RMSD>
2.931

$$$$
ligand
 OpenBabel11021811423D
libRbt.so/2013.1/901 2013/11/27
 10 11  0  0  0  0  0  0  0  0999 V2000
  -11.4324  -11.1903    5.8957 N   0  0  0  0  0  0  0  0  0  0  0  0
  -11.2035  -12.5517    5.6865 C   0  0  0  0  0  0  0  0  0  0  0  0
  -11.2340  -13.4491    6.6879 N   0  0  0  0  0  0  0  0  0  0  0  0
  -11.5182  -12.8786    7.9254 C   0  0  0  0  0  0  0  0  0  0  0  0
  -11.7530  -11.5358    8.2267 C   0  0  0  0  0  0  0  0  0  0  0  0
  -11.7151  -10.5706    7.1593 C   0  0  0  0  0  0  0  0  0  0  0  0
  -11.8838   -9.3751    7.1658 O   0  0  0  0  0  0  0  0  0  0  0  0
  -12.0080  -11.4193    9.6053 N   0  0  0  0  0  0  0  0  0  0  0  0
  -11.9259  -12.6856   10.0956 C   0  0  0  0  0  0  0  0  0  0  0  0
  -11.6243  -13.6048    9.0809 N   0  0  0  0  0  0  0  0  0  0  0  0
  1  2  1  0  0  0  0
  1  6  1  0  0  0  0
  2  3  2  0  0  0  0
  3  4  1  0  0  0  0
  4  5  2  0  0  0  0
  4 10  1  0  0  0  0
  5  6  1  0  0  0  0
  5  8  1  0  0  0  0
  6  7  2  0  0  0  0
  8  9  1  0  0  0  0
  9 10  2  0  0  0  0
M  END
>  <CHROM.1>
-11.63415337,-11.87865182,7.73907451,-1.29902962,-1.35735797,2.44994592

>  <Name>
ligand

>  <RI>
0

>  <Rbt.Current_Directory>
/home/itssahil/PROJECTS/Mol_Feturizer/New_Systems/rnas/2EES

>  <Rbt.Executable>
rbdock ($Id: //depot/dev/client3/rdock/2013.1/src/exe/rbdock.cxx#4 $)

>  <Rbt.Library>
libRbt.so (2013.1, Build901 2013/11/27)

>  <Rbt.Parameter_File>
/export/apps/rDock/src/rDock_2013.1_src/data/scripts/dock_solv.prm

>  <Rbt.Receptor>
prm/pocket_docking_4.prm

>  <SCORE>
-16.608

>  <SCORE.INTER>
-16.608

>  <SCORE.INTER.CONST>
1

>  <SCORE.INTER.POLAR>
0

>  <SCORE.INTER.ROT>
0

>  <SCORE.INTER.SOLV>
3.87533

>  <SCORE.INTER.VDW>
-15.9638

>  <SCORE.INTER.norm>
-1.6608

>  <SCORE.INTRA>
0

>  <SCORE.INTRA.DIHEDRAL>
0

>  <SCORE.INTRA.DIHEDRAL.0>
0

>  <SCORE.INTRA.POLAR>
0

>  <SCORE.INTRA.POLAR.0>
0

>  <SCORE.INTRA.REPUL>
0

>  <SCORE.INTRA.REPUL.0>
0

>  <SCORE.INTRA.SOLV>
0

>  <SCORE.INTRA.SOLV.lig_0>
-4.28614

>  <SCORE.INTRA.VDW>
0

>  <SCORE.INTRA.VDW.0>
0

>  <SCORE.INTRA.norm>
0

>  <SCORE.RESTR>
0

>  <SCORE.RESTR.CAVITY>
0

>  <SCORE.RESTR.norm>
0

>  <SCORE.SYSTEM>
0

>  <SCORE.SYSTEM.CONST>
0

>  <SCORE.SYSTEM.DIHEDRAL>
0

>  <SCORE.SYSTEM.SOLV>
0

>  <SCORE.SYSTEM.norm>
0

>  <SCORE.heavy>
10

>  <SCORE.norm>
-1.6608

>  <RMSD>
2.931

$$$$
ligand
 OpenBabel11021811423D
libRbt.so/2013.1/901 2013/11/27
 10 11  0  0  0  0  0  0  0  0999 V2000
  -11.4305  -11.1892    5.8887 N   0  0  0  0  0  0  0  0  0  0  0  0
  -11.2045  -12.5505    5.6762 C   0  0  0  0  0  0  0  0  0  0  0  0
  -11.2386  -13.4505    6.6752 N   0  0  0  0  0  0  0  0  0  0  0  0
  -11.5233  -12.8826    7.9138 C   0  0  0  0  0  0  0  0  0  0  0  0
  -11.7554  -11.5401    8.2184 C   0  0  0  0  0  0  0  0  0  0  0  0
  -11.7136  -10.5721    7.1535 C   0  0  0  0  0  0  0  0  0  0  0  0
  -11.8794   -9.3763    7.1630 O   0  0  0  0  0  0  0  0  0  0  0  0
  -12.0122  -11.4267    9.5969 N   0  0  0  0  0  0  0  0  0  0  0  0
  -11.9338  -12.6945   10.0839 C   0  0  0  0  0  0  0  0  0  0  0  0
  -11.6329  -13.6117    9.0672 N   0  0  0  0  0  0  0  0  0  0  0  0
  1  2  1  0  0  0  0
  1  6  1  0  0  0  0
  2  3  2  0  0  0  0
  3  4  1  0  0  0  0
  4  5  2  0  0  0  0
  4 10  1  0  0  0  0
  5  6  1  0  0  0  0
  5  8  1  0  0  0  0
  6  7  2  0  0  0  0
  8  9  1  0  0  0  0
  9 10  2  0  0  0  0
M  END
>  <CHROM.1>
-11.63662767,-11.88192792,7.72998244,-1.28589315,-1.35771477,2.46545689

>  <Name>
ligand

>  <RI>
0

>  <Rbt.Current_Directory>
/home/itssahil/PROJECTS/Mol_Feturizer/New_Systems/rnas/2EES

>  <Rbt.Executable>
rbdock ($Id: //depot/dev/client3/rdock/2013.1/src/exe/rbdock.cxx#4 $)

>  <Rbt.Library>
libRbt.so (2013.1, Build901 2013/11/27)

>  <Rbt.Parameter_File>
/export/apps/rDock/src/rDock_2013.1_src/data/scripts/dock_solv.prm

>  <Rbt.Receptor>
prm/pocket_docking_4.prm

>  <SCORE>
-16.6109

>  <SCORE.INTER>
-16.6109

>  <SCORE.INTER.CONST>
1

>  <SCORE.INTER.POLAR>
0

>  <SCORE.INTER.ROT>
0

>  <SCORE.INTER.SOLV>
3.87952

>  <SCORE.INTER.VDW>
-15.9671

>  <SCORE.INTER.norm>
-1.66109

>  <SCORE.INTRA>
0

>  <SCORE.INTRA.DIHEDRAL>
0

>  <SCORE.INTRA.DIHEDRAL.0>
0

>  <SCORE.INTRA.POLAR>
0

>  <SCORE.INTRA.POLAR.0>
0

>  <SCORE.INTRA.REPUL>
0

>  <SCORE.INTRA.REPUL.0>
0

>  <SCORE.INTRA.SOLV>
0

>  <SCORE.INTRA.SOLV.lig_0>
-4.28614

>  <SCORE.INTRA.VDW>
0

>  <SCORE.INTRA.VDW.0>
0

>  <SCORE.INTRA.norm>
0

>  <SCORE.RESTR>
0

>  <SCORE.RESTR.CAVITY>
0

>  <SCORE.RESTR.norm>
0

>  <SCORE.SYSTEM>
0

>  <SCORE.SYSTEM.CONST>
0

>  <SCORE.SYSTEM.DIHEDRAL>
0

>  <SCORE.SYSTEM.SOLV>
0

>  <SCORE.SYSTEM.norm>
0

>  <SCORE.heavy>
10

>  <SCORE.norm>
-1.66109

>  <RMSD>
2.931

$$$$
ligand
 OpenBabel11021811423D
libRbt.so/2013.1/901 2013/11/27
 10 11  0  0  0  0  0  0  0  0999 V2000
  -11.4538  -11.2039    5.8933 N   0  0  0  0  0  0  0  0  0  0  0  0
  -11.2165  -12.5647    5.6897 C   0  0  0  0  0  0  0  0  0  0  0  0
  -11.2333  -13.4568    6.6961 N   0  0  0  0  0  0  0  0  0  0  0  0
  -11.5126  -12.8817    7.9326 C   0  0  0  0  0  0  0  0  0  0  0  0
  -11.7550  -11.5390    8.2285 C   0  0  0  0  0  0  0  0  0  0  0  0
  -11.7318  -10.5794    7.1556 C   0  0  0  0  0  0  0  0  0  0  0  0
  -11.9091   -9.3852    7.1569 O   0  0  0  0  0  0  0  0  0  0  0  0
  -12.0008  -11.4169    9.6082 N   0  0  0  0  0  0  0  0  0  0  0  0
  -11.9060  -12.6799   10.1046 C   0  0  0  0  0  0  0  0  0  0  0  0
  -11.6051  -13.6024    9.0927 N   0  0  0  0  0  0  0  0  0  0  0  0
  1  2  1  0  0  0  0
  1  6  1  0  0  0  0
  2  3  2  0  0  0  0
  3  4  1  0  0  0  0
  4  5  2  0  0  0  0
  4 10  1  0  0  0  0
  5  6  1  0  0  0  0
  5  8  1  0  0  0  0
  6  7  2  0  0  0  0
  8  9  1  0  0  0  0
  9 10  2  0  0  0  0
M  END
>  <CHROM.1>
-11.63717253,-11.88366362,7.74177666,-1.34736005,-1.35806961,2.39732581

>  <Name>
ligand

>  <RI>
0

>  <Rbt.Current_Directory>
/home/itssahil/PROJECTS/Mol_Feturizer/New_Systems/rnas/2EES

>  <Rbt.Executable>
rbdock ($Id: //depot/dev/client3/rdock/2013.1/src/exe/rbdock.cxx#4 $)

>  <Rbt.Library>
libRbt.so (2013.1, Build901 2013/11/27)

>  <Rbt.Parameter_File>
/export/apps/rDock/src/rDock_2013.1_src/data/scripts/dock_solv.prm

>  <Rbt.Receptor>
prm/pocket_docking_5.prm

>  <SCORE>
-16.6099

>  <SCORE.INTER>
-16.6099

>  <SCORE.INTER.CONST>
1

>  <SCORE.INTER.POLAR>
0

>  <SCORE.INTER.ROT>
0

>  <SCORE.INTER.SOLV>
3.8585

>  <SCORE.INTER.VDW>
-15.9595

>  <SCORE.INTER.norm>
-1.66099

>  <SCORE.INTRA>
0

>  <SCORE.INTRA.DIHEDRAL>
0

>  <SCORE.INTRA.DIHEDRAL.0>
0

>  <SCORE.INTRA.POLAR>
0

>  <SCORE.INTRA.POLAR.0>
0

>  <SCORE.INTRA.REPUL>
0

>  <SCORE.INTRA.REPUL.0>
0

>  <SCORE.INTRA.SOLV>
0

>  <SCORE.INTRA.SOLV.lig_0>
-4.28614

>  <SCORE.INTRA.VDW>
0

>  <SCORE.INTRA.VDW.0>
0

>  <SCORE.INTRA.norm>
0

>  <SCORE.RESTR>
0

>  <SCORE.RESTR.CAVITY>
0

>  <SCORE.RESTR.norm>
0

>  <SCORE.SYSTEM>
0

>  <SCORE.SYSTEM.CONST>
0

>  <SCORE.SYSTEM.DIHEDRAL>
0

>  <SCORE.SYSTEM.SOLV>
0

>  <SCORE.SYSTEM.norm>
0

>  <SCORE.heavy>
10

>  <SCORE.norm>
-1.66099

>  <RMSD>
2.931

$$$$
ligand
 OpenBabel11021811423D
libRbt.so/2013.1/901 2013/11/27
 10 11  0  0  0  0  0  0  0  0999 V2000
  -11.4154  -11.1937    5.8696 N   0  0  0  0  0  0  0  0  0  0  0  0
  -11.1907  -12.5564    5.6644 C   0  0  0  0  0  0  0  0  0  0  0  0
  -11.2308  -13.4517    6.6673 N   0  0  0  0  0  0  0  0  0  0  0  0
  -11.5200  -12.8776    7.9020 C   0  0  0  0  0  0  0  0  0  0  0  0
  -11.7513  -11.5333    8.1993 C   0  0  0  0  0  0  0  0  0  0  0  0
  -11.7031  -10.5703    7.1303 C   0  0  0  0  0  0  0  0  0  0  0  0
  -11.8670   -9.3742    7.1334 O   0  0  0  0  0  0  0  0  0  0  0  0
  -12.0140  -11.4131    9.5762 N   0  0  0  0  0  0  0  0  0  0  0  0
  -11.9399  -12.6787   10.0693 C   0  0  0  0  0  0  0  0  0  0  0  0
  -11.6359  -13.6011    9.0583 N   0  0  0  0  0  0  0  0  0  0  0  0
  1  2  1  0  0  0  0
  1  6  1  0  0  0  0
  2  3  2  0  0  0  0
  3  4  1  0  0  0  0
  4  5  2  0  0  0  0
  4 10  1  0  0  0  0
  5  6  1  0  0  0  0
  5  8  1  0  0  0  0
  6  7  2  0  0  0  0
  8  9  1  0  0  0  0
  9 10  2  0  0  0  0
M  END
>  <CHROM.1>
-11.63085137,-11.87756395,7.71306193,-1.26676243,-1.35522492,2.47953250

>  <Name>
ligand

>  <RI>
0

>  <Rbt.Current_Directory>
/home/itssahil/PROJECTS/Mol_Feturizer/New_Systems/rnas/2EES

>  <Rbt.Executable>
rbdock ($Id: //depot/dev/client3/rdock/2013.1/src/exe/rbdock.cxx#4 $)

>  <Rbt.Library>
libRbt.so (2013.1, Build901 2013/11/27)

>  <Rbt.Parameter_File>
/export/apps/rDock/src/rDock_2013.1_src/data/scripts/dock_solv.prm

>  <Rbt.Receptor>
prm/pocket_docking_6.prm

>  <SCORE>
-16.588

>  <SCORE.INTER>
-16.588

>  <SCORE.INTER.CONST>
1

>  <SCORE.INTER.POLAR>
0

>  <SCORE.INTER.ROT>
0

>  <SCORE.INTER.SOLV>
3.88525

>  <SCORE.INTER.VDW>
-15.9537

>  <SCORE.INTER.norm>
-1.6588

>  <SCORE.INTRA>
0

>  <SCORE.INTRA.DIHEDRAL>
0

>  <SCORE.INTRA.DIHEDRAL.0>
0

>  <SCORE.INTRA.POLAR>
0

>  <SCORE.INTRA.POLAR.0>
0

>  <SCORE.INTRA.REPUL>
0

>  <SCORE.INTRA.REPUL.0>
0

>  <SCORE.INTRA.SOLV>
0

>  <SCORE.INTRA.SOLV.lig_0>
-4.28614

>  <SCORE.INTRA.VDW>
0

>  <SCORE.INTRA.VDW.0>
0

>  <SCORE.INTRA.norm>
0

>  <SCORE.RESTR>
0

>  <SCORE.RESTR.CAVITY>
0

>  <SCORE.RESTR.norm>
0

>  <SCORE.SYSTEM>
0

>  <SCORE.SYSTEM.CONST>
0

>  <SCORE.SYSTEM.DIHEDRAL>
0

>  <SCORE.SYSTEM.SOLV>
0

>  <SCORE.SYSTEM.norm>
0

>  <SCORE.heavy>
10

>  <SCORE.norm>
-1.6588

>  <RMSD>
2.931

$$$$
ligand
 OpenBabel11021811423D
libRbt.so/2013.1/901 2013/11/27
 10 11  0  0  0  0  0  0  0  0999 V2000
  -11.4097  -11.1990    5.8647 N   0  0  0  0  0  0  0  0  0  0  0  0
  -11.1763  -12.5615    5.6677 C   0  0  0  0  0  0  0  0  0  0  0  0
  -11.2126  -13.4511    6.6758 N   0  0  0  0  0  0  0  0  0  0  0  0
  -11.5073  -12.8717    7.9067 C   0  0  0  0  0  0  0  0  0  0  0  0
  -11.7472  -11.5271    8.1959 C   0  0  0  0  0  0  0  0  0  0  0  0
  -11.7031  -10.5701    7.1213 C   0  0  0  0  0  0  0  0  0  0  0  0
  -11.8743   -9.3750    7.1173 O   0  0  0  0  0  0  0  0  0  0  0  0
  -12.0128  -11.4005    9.5715 N   0  0  0  0  0  0  0  0  0  0  0  0
  -11.9318  -12.6629   10.0721 C   0  0  0  0  0  0  0  0  0  0  0  0
  -11.6207  -13.5892    9.0669 N   0  0  0  0  0  0  0  0  0  0  0  0
  1  2  1  0  0  0  0
  1  6  1  0  0  0  0
  2  3  2  0  0  0  0
  3  4  1  0  0  0  0
  4  5  2  0  0  0  0
  4 10  1  0  0  0  0
  5  6  1  0  0  0  0
  5  8  1  0  0  0  0
  6  7  2  0  0  0  0
  8  9  1  0  0  0  0
  9 10  2  0  0  0  0
M  END
>  <CHROM.1>
-11.62391409,-11.87349548,7.71175641,-1.28421674,-1.35020197,2.45669809

>  <Name>
ligand

>  <RI>
0

>  <Rbt.Current_Directory>
/home/itssahil/PROJECTS/Mol_Feturizer/New_Systems/rnas/2EES

>  <Rbt.Executable>
rbdock ($Id: //depot/dev/client3/rdock/2013.1/src/exe/rbdock.cxx#4 $)

>  <Rbt.Library>
libRbt.so (2013.1, Build901 2013/11/27)

>  <Rbt.Parameter_File>
/export/apps/rDock/src/rDock_2013.1_src/data/scripts/dock_solv.prm

>  <Rbt.Receptor>
prm/pocket_docking_7.prm

>  <SCORE>
-16.5869

>  <SCORE.INTER>
-16.5869

>  <SCORE.INTER.CONST>
1

>  <SCORE.INTER.POLAR>
0

>  <SCORE.INTER.ROT>
0

>  <SCORE.INTER.SOLV>
3.87395

>  <SCORE.INTER.VDW>
-15.9493

>  <SCORE.INTER.norm>
-1.65869

>  <SCORE.INTRA>
0

>  <SCORE.INTRA.DIHEDRAL>
0

>  <SCORE.INTRA.DIHEDRAL.0>
0

>  <SCORE.INTRA.POLAR>
0

>  <SCORE.INTRA.POLAR.0>
0

>  <SCORE.INTRA.REPUL>
0

>  <SCORE.INTRA.REPUL.0>
0

>  <SCORE.INTRA.SOLV>
0

>  <SCORE.INTRA.SOLV.lig_0>
-4.28614

>  <SCORE.INTRA.VDW>
0

>  <SCORE.INTRA.VDW.0>
0

>  <SCORE.INTRA.norm>
0

>  <SCORE.RESTR>
0

>  <SCORE.RESTR.CAVITY>
0

>  <SCORE.RESTR.norm>
0

>  <SCORE.SYSTEM>
0

>  <SCORE.SYSTEM.CONST>
0

>  <SCORE.SYSTEM.DIHEDRAL>
0

>  <SCORE.SYSTEM.SOLV>
0

>  <SCORE.SYSTEM.norm>
0

>  <SCORE.heavy>
10

>  <SCORE.norm>
-1.65869

>  <RMSD>
2.931

$$$$
ligand
 OpenBabel11021811423D
libRbt.so/2013.1/901 2013/11/27
 10 11  0  0  0  0  0  0  0  0999 V2000
  -11.4722  -11.1967    5.8986 N   0  0  0  0  0  0  0  0  0  0  0  0
  -11.2312  -12.5579    5.7021 C   0  0  0  0  0  0  0  0  0  0  0  0
  -11.2535  -13.4461    6.7120 N   0  0  0  0  0  0  0  0  0  0  0  0
  -11.5426  -12.8665    7.9442 C   0  0  0  0  0  0  0  0  0  0  0  0
  -11.7894  -11.5231    8.2329 C   0  0  0  0  0  0  0  0  0  0  0  0
  -11.7602  -10.5677    7.1564 C   0  0  0  0  0  0  0  0  0  0  0  0
  -11.9396   -9.3738    7.1517 O   0  0  0  0  0  0  0  0  0  0  0  0
  -12.0451  -11.3959    9.6104 N   0  0  0  0  0  0  0  0  0  0  0  0
  -11.9516  -12.6568   10.1125 C   0  0  0  0  0  0  0  0  0  0  0  0
  -11.6420  -13.5827    9.1065 N   0  0  0  0  0  0  0  0  0  0  0  0
  1  2  1  0  0  0  0
  1  6  1  0  0  0  0
  2  3  2  0  0  0  0
  3  4  1  0  0  0  0
  4  5  2  0  0  0  0
  4 10  1  0  0  0  0
  5  6  1  0  0  0  0
  5  8  1  0  0  0  0
  6  7  2  0  0  0  0
  8  9  1  0  0  0  0
  9 10  2  0  0  0  0
M  END
>  <CHROM.1>
-11.66750658,-11.86945391,7.74845364,-1.33114614,-1.35168905,2.40918473

>  <Name>
ligand

>  <RI>
0

>  <Rbt.Current_Directory>
/home/itssahil/PROJECTS/Mol_Feturizer/New_Systems/rnas/2EES

>  <Rbt.Executable>
rbdock ($Id: //depot/dev/client3/rdock/2013.1/src/exe/rbdock.cxx#4 $)

>  <Rbt.Library>
libRbt.so (2013.1, Build901 2013/11/27)

>  <Rbt.Parameter_File>
/export/apps/rDock/src/rDock_2013.1_src/data/scripts/dock_solv.prm

>  <Rbt.Receptor>
prm/blind_docking_40.prm

>  <SCORE>
-16.5779

>  <SCORE.INTER>
-16.5779

>  <SCORE.INTER.CONST>
1

>  <SCORE.INTER.POLAR>
0

>  <SCORE.INTER.ROT>
0

>  <SCORE.INTER.SOLV>
3.82161

>  <SCORE.INTER.VDW>
-15.9258

>  <SCORE.INTER.norm>
-1.65779

>  <SCORE.INTRA>
0

>  <SCORE.INTRA.DIHEDRAL>
0

>  <SCORE.INTRA.DIHEDRAL.0>
0

>  <SCORE.INTRA.POLAR>
0

>  <SCORE.INTRA.POLAR.0>
0

>  <SCORE.INTRA.REPUL>
0

>  <SCORE.INTRA.REPUL.0>
0

>  <SCORE.INTRA.SOLV>
0

>  <SCORE.INTRA.SOLV.lig_0>
-4.28614

>  <SCORE.INTRA.VDW>
0

>  <SCORE.INTRA.VDW.0>
0

>  <SCORE.INTRA.norm>
0

>  <SCORE.RESTR>
0

>  <SCORE.RESTR.CAVITY>
0

>  <SCORE.RESTR.norm>
0

>  <SCORE.SYSTEM>
0

>  <SCORE.SYSTEM.CONST>
0

>  <SCORE.SYSTEM.DIHEDRAL>
0

>  <SCORE.SYSTEM.SOLV>
0

>  <SCORE.SYSTEM.norm>
0

>  <SCORE.heavy>
10

>  <SCORE.norm>
-1.65779

>  <RMSD>
2.932

$$$$
ligand
 OpenBabel11021811423D
libRbt.so/2013.1/901 2013/11/27
 10 11  0  0  0  0  0  0  0  0999 V2000
  -11.4837  -11.2483    5.8555 N   0  0  0  0  0  0  0  0  0  0  0  0
  -11.2475  -12.6127    5.6758 C   0  0  0  0  0  0  0  0  0  0  0  0
  -11.2502  -13.4848    6.6999 N   0  0  0  0  0  0  0  0  0  0  0  0
  -11.5142  -12.8855    7.9283 C   0  0  0  0  0  0  0  0  0  0  0  0
  -11.7543  -11.5375    8.2006 C   0  0  0  0  0  0  0  0  0  0  0  0
  -11.7461  -10.5992    7.1087 C   0  0  0  0  0  0  0  0  0  0  0  0
  -11.9247   -9.4054    7.0887 O   0  0  0  0  0  0  0  0  0  0  0  0
  -11.9824  -11.3883    9.5807 N   0  0  0  0  0  0  0  0  0  0  0  0
  -11.8797  -12.6411   10.1007 C   0  0  0  0  0  0  0  0  0  0  0  0
  -11.5908  -13.5832    9.1035 N   0  0  0  0  0  0  0  0  0  0  0  0
  1  2  1  0  0  0  0
  1  6  1  0  0  0  0
  2  3  2  0  0  0  0
  3  4  1  0  0  0  0
  4  5  2  0  0  0  0
  4 10  1  0  0  0  0
  5  6  1  0  0  0  0
  5  8  1  0  0  0  0
  6  7  2  0  0  0  0
  8  9  1  0  0  0  0
  9 10  2  0  0  0  0
M  END
>  <CHROM.1>
-11.64236818,-11.89156870,7.71931638,-1.39479761,-1.36659637,2.33112494

>  <Name>
ligand

>  <RI>
0

>  <Rbt.Current_Directory>
/home/itssahil/PROJECTS/Mol_Feturizer/New_Systems/rnas/2EES

>  <Rbt.Executable>
rbdock ($Id: //depot/dev/client3/rdock/2013.1/src/exe/rbdock.cxx#4 $)

>  <Rbt.Library>
libRbt.so (2013.1, Build901 2013/11/27)

>  <Rbt.Parameter_File>
/export/apps/rDock/src/rDock_2013.1_src/data/scripts/dock_solv.prm

>  <Rbt.Receptor>
prm/blind_docking_60.prm

>  <SCORE>
-16.5528

>  <SCORE.INTER>
-16.5528

>  <SCORE.INTER.CONST>
1

>  <SCORE.INTER.POLAR>
0

>  <SCORE.INTER.ROT>
0

>  <SCORE.INTER.SOLV>
3.8656

>  <SCORE.INTER.VDW>
-15.9237

>  <SCORE.INTER.norm>
-1.65528

>  <SCORE.INTRA>
0

>  <SCORE.INTRA.DIHEDRAL>
0

>  <SCORE.INTRA.DIHEDRAL.0>
0

>  <SCORE.INTRA.POLAR>
0

>  <SCORE.INTRA.POLAR.0>
0

>  <SCORE.INTRA.REPUL>
0

>  <SCORE.INTRA.REPUL.0>
0

>  <SCORE.INTRA.SOLV>
0

>  <SCORE.INTRA.SOLV.lig_0>
-4.28614

>  <SCORE.INTRA.VDW>
0

>  <SCORE.INTRA.VDW.0>
0

>  <SCORE.INTRA.norm>
0

>  <SCORE.RESTR>
0

>  <SCORE.RESTR.CAVITY>
0

>  <SCORE.RESTR.norm>
0

>  <SCORE.SYSTEM>
0

>  <SCORE.SYSTEM.CONST>
0

>  <SCORE.SYSTEM.DIHEDRAL>
0

>  <SCORE.SYSTEM.SOLV>
0

>  <SCORE.SYSTEM.norm>
0

>  <SCORE.heavy>
10

>  <SCORE.norm>
-1.65528

>  <RMSD>
2.932

$$$$
ligand
 OpenBabel11021811423D
libRbt.so/2013.1/901 2013/11/27
 10 11  0  0  0  0  0  0  0  0999 V2000
  -11.4110  -11.1759    5.8921 N   0  0  0  0  0  0  0  0  0  0  0  0
  -11.2038  -12.5408    5.6830 C   0  0  0  0  0  0  0  0  0  0  0  0
  -11.2507  -13.4377    6.6841 N   0  0  0  0  0  0  0  0  0  0  0  0
  -11.5277  -12.8629    7.9213 C   0  0  0  0  0  0  0  0  0  0  0  0
  -11.7412  -11.5166    8.2225 C   0  0  0  0  0  0  0  0  0  0  0  0
  -11.6857  -10.5519    7.1553 C   0  0  0  0  0  0  0  0  0  0  0  0
  -11.8349   -9.3539    7.1619 O   0  0  0  0  0  0  0  0  0  0  0  0
  -11.9966  -11.3962    9.6007 N   0  0  0  0  0  0  0  0  0  0  0  0
  -11.9360  -12.6638   10.0908 C   0  0  0  0  0  0  0  0  0  0  0  0
  -11.6476  -13.5876    9.0764 N   0  0  0  0  0  0  0  0  0  0  0  0
  1  2  1  0  0  0  0
  1  6  1  0  0  0  0
  2  3  2  0  0  0  0
  3  4  1  0  0  0  0
  4  5  2  0  0  0  0
  4 10  1  0  0  0  0
  5  6  1  0  0  0  0
  5  8  1  0  0  0  0
  6  7  2  0  0  0  0
  8  9  1  0  0  0  0
  9 10  2  0  0  0  0
M  END
>  <CHROM.1>
-11.62704252,-11.86122311,7.73498590,-1.23193216,-1.36596465,2.51581282

>  <Name>
ligand

>  <RI>
0

>  <Rbt.Current_Directory>
/home/itssahil/PROJECTS/Mol_Feturizer/New_Systems/rnas/2EES

>  <Rbt.Executable>
rbdock ($Id: //depot/dev/client3/rdock/2013.1/src/exe/rbdock.cxx#4 $)

>  <Rbt.Library>
libRbt.so (2013.1, Build901 2013/11/27)

>  <Rbt.Parameter_File>
/export/apps/rDock/src/rDock_2013.1_src/data/scripts/dock_solv.prm

>  <Rbt.Receptor>
prm/pocket_docking_6.prm

>  <SCORE>
-16.5246

>  <SCORE.INTER>
-16.5246

>  <SCORE.INTER.CONST>
1

>  <SCORE.INTER.POLAR>
0

>  <SCORE.INTER.ROT>
0

>  <SCORE.INTER.SOLV>
3.92563

>  <SCORE.INTER.VDW>
-15.9249

>  <SCORE.INTER.norm>
-1.65246

>  <SCORE.INTRA>
0

>  <SCORE.INTRA.DIHEDRAL>
0

>  <SCORE.INTRA.DIHEDRAL.0>
0

>  <SCORE.INTRA.POLAR>
0

>  <SCORE.INTRA.POLAR.0>
0

>  <SCORE.INTRA.REPUL>
0

>  <SCORE.INTRA.REPUL.0>
0

>  <SCORE.INTRA.SOLV>
0

>  <SCORE.INTRA.SOLV.lig_0>
-4.28614

>  <SCORE.INTRA.VDW>
0

>  <SCORE.INTRA.VDW.0>
0

>  <SCORE.INTRA.norm>
0

>  <SCORE.RESTR>
0

>  <SCORE.RESTR.CAVITY>
0

>  <SCORE.RESTR.norm>
0

>  <SCORE.SYSTEM>
0

>  <SCORE.SYSTEM.CONST>
0

>  <SCORE.SYSTEM.DIHEDRAL>
0

>  <SCORE.SYSTEM.SOLV>
0

>  <SCORE.SYSTEM.norm>
0

>  <SCORE.heavy>
10

>  <SCORE.norm>
-1.65246

>  <RMSD>
2.932

$$$$
ligand
 OpenBabel11021811423D
libRbt.so/2013.1/901 2013/11/27
 10 11  0  0  0  0  0  0  0  0999 V2000
  -11.4507  -11.2052    5.8924 N   0  0  0  0  0  0  0  0  0  0  0  0
  -11.2168  -12.5679    5.6973 C   0  0  0  0  0  0  0  0  0  0  0  0
  -11.2466  -13.4553    6.7076 N   0  0  0  0  0  0  0  0  0  0  0  0
  -11.5354  -12.8733    7.9388 C   0  0  0  0  0  0  0  0  0  0  0  0
  -11.7753  -11.5284    8.2261 C   0  0  0  0  0  0  0  0  0  0  0  0
  -11.7381  -10.5738    7.1491 C   0  0  0  0  0  0  0  0  0  0  0  0
  -11.9107   -9.3789    7.1433 O   0  0  0  0  0  0  0  0  0  0  0  0
  -12.0337  -11.3990    9.6029 N   0  0  0  0  0  0  0  0  0  0  0  0
  -11.9485  -12.6600   10.1060 C   0  0  0  0  0  0  0  0  0  0  0  0
  -11.6417  -13.5883    9.1012 N   0  0  0  0  0  0  0  0  0  0  0  0
  1  2  1  0  0  0  0
  1  6  1  0  0  0  0
  2  3  2  0  0  0  0
  3  4  1  0  0  0  0
  4  5  2  0  0  0  0
  4 10  1  0  0  0  0
  5  6  1  0  0  0  0
  5  8  1  0  0  0  0
  6  7  2  0  0  0  0
  8  9  1  0  0  0  0
  9 10  2  0  0  0  0
M  END
>  <CHROM.1>
-11.65420700,-11.87574759,7.74215616,-1.30416582,-1.35357632,2.43492595

>  <Name>
ligand

>  <RI>
0

>  <Rbt.Current_Directory>
/home/itssahil/PROJECTS/Mol_Feturizer/New_Systems/rnas/2EES

>  <Rbt.Executable>
rbdock ($Id: //depot/dev/client3/rdock/2013.1/src/exe/rbdock.cxx#4 $)

>  <Rbt.Library>
libRbt.so (2013.1, Build901 2013/11/27)

>  <Rbt.Parameter_File>
/export/apps/rDock/src/rDock_2013.1_src/data/scripts/dock_solv.prm

>  <Rbt.Receptor>
prm/blind_docking_100.prm

>  <SCORE>
-16.6112

>  <SCORE.INTER>
-16.6112

>  <SCORE.INTER.CONST>
1

>  <SCORE.INTER.POLAR>
0

>  <SCORE.INTER.ROT>
0

>  <SCORE.INTER.SOLV>
3.84549

>  <SCORE.INTER.VDW>
-15.956

>  <SCORE.INTER.norm>
-1.66112

>  <SCORE.INTRA>
0

>  <SCORE.INTRA.DIHEDRAL>
0

>  <SCORE.INTRA.DIHEDRAL.0>
0

>  <SCORE.INTRA.POLAR>
0

>  <SCORE.INTRA.POLAR.0>
0

>  <SCORE.INTRA.REPUL>
0

>  <SCORE.INTRA.REPUL.0>
0

>  <SCORE.INTRA.SOLV>
0

>  <SCORE.INTRA.SOLV.lig_0>
-4.28614

>  <SCORE.INTRA.VDW>
0

>  <SCORE.INTRA.VDW.0>
0

>  <SCORE.INTRA.norm>
0

>  <SCORE.RESTR>
0

>  <SCORE.RESTR.CAVITY>
0

>  <SCORE.RESTR.norm>
0

>  <SCORE.SYSTEM>
0

>  <SCORE.SYSTEM.CONST>
0

>  <SCORE.SYSTEM.DIHEDRAL>
0

>  <SCORE.SYSTEM.SOLV>
0

>  <SCORE.SYSTEM.norm>
0

>  <SCORE.heavy>
10

>  <SCORE.norm>
-1.66112

>  <RMSD>
2.933

$$$$
ligand
 OpenBabel11021811423D
libRbt.so/2013.1/901 2013/11/27
 10 11  0  0  0  0  0  0  0  0999 V2000
  -11.4635  -11.1857    5.9240 N   0  0  0  0  0  0  0  0  0  0  0  0
  -11.2209  -12.5451    5.7174 C   0  0  0  0  0  0  0  0  0  0  0  0
  -11.2486  -13.4418    6.7195 N   0  0  0  0  0  0  0  0  0  0  0  0
  -11.5448  -12.8728    7.9549 C   0  0  0  0  0  0  0  0  0  0  0  0
  -11.7938  -11.5319    8.2536 C   0  0  0  0  0  0  0  0  0  0  0  0
  -11.7589  -10.5674    7.1854 C   0  0  0  0  0  0  0  0  0  0  0  0
  -11.9386   -9.3736    7.1898 O   0  0  0  0  0  0  0  0  0  0  0  0
  -12.0574  -11.4166    9.6307 N   0  0  0  0  0  0  0  0  0  0  0  0
  -11.9663  -12.6816   10.1226 C   0  0  0  0  0  0  0  0  0  0  0  0
  -11.6506  -13.5989    9.1105 N   0  0  0  0  0  0  0  0  0  0  0  0
  1  2  1  0  0  0  0
  1  6  1  0  0  0  0
  2  3  2  0  0  0  0
  3  4  1  0  0  0  0
  4  5  2  0  0  0  0
  4 10  1  0  0  0  0
  5  6  1  0  0  0  0
  5  8  1  0  0  0  0
  6  7  2  0  0  0  0
  8  9  1  0  0  0  0
  9 10  2  0  0  0  0
M  END
>  <CHROM.1>
-11.66903357,-11.87416623,7.76694615,-1.31527466,-1.34719308,2.43314561

>  <Name>
ligand

>  <RI>
0

>  <Rbt.Current_Directory>
/home/itssahil/PROJECTS/Mol_Feturizer/New_Systems/rnas/2EES

>  <Rbt.Executable>
rbdock ($Id: //depot/dev/client3/rdock/2013.1/src/exe/rbdock.cxx#4 $)

>  <Rbt.Library>
libRbt.so (2013.1, Build901 2013/11/27)

>  <Rbt.Parameter_File>
/export/apps/rDock/src/rDock_2013.1_src/data/scripts/dock_solv.prm

>  <Rbt.Receptor>
prm/blind_docking_60.prm

>  <SCORE>
-16.5922

>  <SCORE.INTER>
-16.5922

>  <SCORE.INTER.CONST>
1

>  <SCORE.INTER.POLAR>
0

>  <SCORE.INTER.ROT>
0

>  <SCORE.INTER.SOLV>
3.81021

>  <SCORE.INTER.VDW>
-15.9315

>  <SCORE.INTER.norm>
-1.65922

>  <SCORE.INTRA>
0

>  <SCORE.INTRA.DIHEDRAL>
0

>  <SCORE.INTRA.DIHEDRAL.0>
0

>  <SCORE.INTRA.POLAR>
0

>  <SCORE.INTRA.POLAR.0>
0

>  <SCORE.INTRA.REPUL>
0

>  <SCORE.INTRA.REPUL.0>
0

>  <SCORE.INTRA.SOLV>
0

>  <SCORE.INTRA.SOLV.lig_0>
-4.28614

>  <SCORE.INTRA.VDW>
0

>  <SCORE.INTRA.VDW.0>
0

>  <SCORE.INTRA.norm>
0

>  <SCORE.RESTR>
0

>  <SCORE.RESTR.CAVITY>
0

>  <SCORE.RESTR.norm>
0

>  <SCORE.SYSTEM>
0

>  <SCORE.SYSTEM.CONST>
0

>  <SCORE.SYSTEM.DIHEDRAL>
0

>  <SCORE.SYSTEM.SOLV>
0

>  <SCORE.SYSTEM.norm>
0

>  <SCORE.heavy>
10

>  <SCORE.norm>
-1.65922

>  <RMSD>
2.933

$$$$
ligand
 OpenBabel11021811423D
libRbt.so/2013.1/901 2013/11/27
 10 11  0  0  0  0  0  0  0  0999 V2000
  -11.4090  -11.1836    5.8934 N   0  0  0  0  0  0  0  0  0  0  0  0
  -11.1772  -12.5453    5.6888 C   0  0  0  0  0  0  0  0  0  0  0  0
  -11.2296  -13.4427    6.6893 N   0  0  0  0  0  0  0  0  0  0  0  0
  -11.5389  -12.8721    7.9207 C   0  0  0  0  0  0  0  0  0  0  0  0
  -11.7785  -11.5291    8.2173 C   0  0  0  0  0  0  0  0  0  0  0  0
  -11.7173  -10.5638    7.1510 C   0  0  0  0  0  0  0  0  0  0  0  0
  -11.8848   -9.3681    7.1541 O   0  0  0  0  0  0  0  0  0  0  0  0
  -12.0621  -11.4125    9.5902 N   0  0  0  0  0  0  0  0  0  0  0  0
  -11.9916  -12.6789   10.0819 C   0  0  0  0  0  0  0  0  0  0  0  0
  -11.6699  -13.5983    9.0736 N   0  0  0  0  0  0  0  0  0  0  0  0
  1  2  1  0  0  0  0
  1  6  1  0  0  0  0
  2  3  2  0  0  0  0
  3  4  1  0  0  0  0
  4  5  2  0  0  0  0
  4 10  1  0  0  0  0
  5  6  1  0  0  0  0
  5  8  1  0  0  0  0
  6  7  2  0  0  0  0
  8  9  1  0  0  0  0
  9 10  2  0  0  0  0
M  END
>  <CHROM.1>
-11.64985866,-11.87200248,7.73212229,-1.23676629,-1.34155036,2.51084143

>  <Name>
ligand

>  <RI>
0

>  <Rbt.Current_Directory>
/home/itssahil/PROJECTS/Mol_Feturizer/New_Systems/rnas/2EES

>  <Rbt.Executable>
rbdock ($Id: //depot/dev/client3/rdock/2013.1/src/exe/rbdock.cxx#4 $)

>  <Rbt.Library>
libRbt.so (2013.1, Build901 2013/11/27)

>  <Rbt.Parameter_File>
/export/apps/rDock/src/rDock_2013.1_src/data/scripts/dock_solv.prm

>  <Rbt.Receptor>
prm/pocket_docking_6.prm

>  <SCORE>
-16.5574

>  <SCORE.INTER>
-16.5574

>  <SCORE.INTER.CONST>
1

>  <SCORE.INTER.POLAR>
0

>  <SCORE.INTER.ROT>
0

>  <SCORE.INTER.SOLV>
3.84562

>  <SCORE.INTER.VDW>
-15.9201

>  <SCORE.INTER.norm>
-1.65574

>  <SCORE.INTRA>
0

>  <SCORE.INTRA.DIHEDRAL>
0

>  <SCORE.INTRA.DIHEDRAL.0>
0

>  <SCORE.INTRA.POLAR>
0

>  <SCORE.INTRA.POLAR.0>
0

>  <SCORE.INTRA.REPUL>
0

>  <SCORE.INTRA.REPUL.0>
0

>  <SCORE.INTRA.SOLV>
0

>  <SCORE.INTRA.SOLV.lig_0>
-4.28614

>  <SCORE.INTRA.VDW>
0

>  <SCORE.INTRA.VDW.0>
0

>  <SCORE.INTRA.norm>
0

>  <SCORE.RESTR>
0

>  <SCORE.RESTR.CAVITY>
0

>  <SCORE.RESTR.norm>
0

>  <SCORE.SYSTEM>
0

>  <SCORE.SYSTEM.CONST>
0

>  <SCORE.SYSTEM.DIHEDRAL>
0

>  <SCORE.SYSTEM.SOLV>
0

>  <SCORE.SYSTEM.norm>
0

>  <SCORE.heavy>
10

>  <SCORE.norm>
-1.65574

>  <RMSD>
2.933

$$$$
ligand
 OpenBabel11021811423D
libRbt.so/2013.1/901 2013/11/27
 10 11  0  0  0  0  0  0  0  0999 V2000
  -11.4035  -11.1848    5.8944 N   0  0  0  0  0  0  0  0  0  0  0  0
  -11.1723  -12.5466    5.6905 C   0  0  0  0  0  0  0  0  0  0  0  0
  -11.2296  -13.4442    6.6905 N   0  0  0  0  0  0  0  0  0  0  0  0
  -11.5433  -12.8735    7.9208 C   0  0  0  0  0  0  0  0  0  0  0  0
  -11.7828  -11.5303    8.2167 C   0  0  0  0  0  0  0  0  0  0  0  0
  -11.7162  -10.5648    7.1508 C   0  0  0  0  0  0  0  0  0  0  0  0
  -11.8825   -9.3690    7.1536 O   0  0  0  0  0  0  0  0  0  0  0  0
  -12.0717  -11.4137    9.5885 N   0  0  0  0  0  0  0  0  0  0  0  0
  -12.0046  -12.6804   10.0802 C   0  0  0  0  0  0  0  0  0  0  0  0
  -11.6797  -13.5999    9.0730 N   0  0  0  0  0  0  0  0  0  0  0  0
  1  2  1  0  0  0  0
  1  6  1  0  0  0  0
  2  3  2  0  0  0  0
  3  4  1  0  0  0  0
  4  5  2  0  0  0  0
  4 10  1  0  0  0  0
  5  6  1  0  0  0  0
  5  8  1  0  0  0  0
  6  7  2  0  0  0  0
  8  9  1  0  0  0  0
  9 10  2  0  0  0  0
M  END
>  <CHROM.1>
-11.65251044,-11.87326983,7.73197227,-1.22273312,-1.33888782,2.52472367

>  <Name>
ligand

>  <RI>
0

>  <Rbt.Current_Directory>
/home/itssahil/PROJECTS/Mol_Feturizer/New_Systems/rnas/2EES

>  <Rbt.Executable>
rbdock ($Id: //depot/dev/client3/rdock/2013.1/src/exe/rbdock.cxx#4 $)

>  <Rbt.Library>
libRbt.so (2013.1, Build901 2013/11/27)

>  <Rbt.Parameter_File>
/export/apps/rDock/src/rDock_2013.1_src/data/scripts/dock_solv.prm

>  <Rbt.Receptor>
prm/pocket_docking_6.prm

>  <SCORE>
-16.5536

>  <SCORE.INTER>
-16.5536

>  <SCORE.INTER.CONST>
1

>  <SCORE.INTER.POLAR>
0

>  <SCORE.INTER.ROT>
0

>  <SCORE.INTER.SOLV>
3.84203

>  <SCORE.INTER.VDW>
-15.9164

>  <SCORE.INTER.norm>
-1.65536

>  <SCORE.INTRA>
0

>  <SCORE.INTRA.DIHEDRAL>
0

>  <SCORE.INTRA.DIHEDRAL.0>
0

>  <SCORE.INTRA.POLAR>
0

>  <SCORE.INTRA.POLAR.0>
0

>  <SCORE.INTRA.REPUL>
0

>  <SCORE.INTRA.REPUL.0>
0

>  <SCORE.INTRA.SOLV>
0

>  <SCORE.INTRA.SOLV.lig_0>
-4.28614

>  <SCORE.INTRA.VDW>
0

>  <SCORE.INTRA.VDW.0>
0

>  <SCORE.INTRA.norm>
0

>  <SCORE.RESTR>
0

>  <SCORE.RESTR.CAVITY>
0

>  <SCORE.RESTR.norm>
0

>  <SCORE.SYSTEM>
0

>  <SCORE.SYSTEM.CONST>
0

>  <SCORE.SYSTEM.DIHEDRAL>
0

>  <SCORE.SYSTEM.SOLV>
0

>  <SCORE.SYSTEM.norm>
0

>  <SCORE.heavy>
10

>  <SCORE.norm>
-1.65536

>  <RMSD>
2.933

$$$$
ligand
 OpenBabel11021811423D
libRbt.so/2013.1/901 2013/11/27
 10 11  0  0  0  0  0  0  0  0999 V2000
  -11.4456  -11.2422    5.8529 N   0  0  0  0  0  0  0  0  0  0  0  0
  -11.2236  -12.6091    5.6741 C   0  0  0  0  0  0  0  0  0  0  0  0
  -11.2502  -13.4825    6.6966 N   0  0  0  0  0  0  0  0  0  0  0  0
  -11.5229  -12.8819    7.9224 C   0  0  0  0  0  0  0  0  0  0  0  0
  -11.7502  -11.5315    8.1938 C   0  0  0  0  0  0  0  0  0  0  0  0
  -11.7164  -10.5918    7.1036 C   0  0  0  0  0  0  0  0  0  0  0  0
  -11.8803   -9.3958    7.0833 O   0  0  0  0  0  0  0  0  0  0  0  0
  -11.9945  -11.3816    9.5711 N   0  0  0  0  0  0  0  0  0  0  0  0
  -11.9138  -12.6364   10.0903 C   0  0  0  0  0  0  0  0  0  0  0  0
  -11.6234  -13.5804    9.0954 N   0  0  0  0  0  0  0  0  0  0  0  0
  1  2  1  0  0  0  0
  1  6  1  0  0  0  0
  2  3  2  0  0  0  0
  3  4  1  0  0  0  0
  4  5  2  0  0  0  0
  4 10  1  0  0  0  0
  5  6  1  0  0  0  0
  5  8  1  0  0  0  0
  6  7  2  0  0  0  0
  8  9  1  0  0  0  0
  9 10  2  0  0  0  0
M  END
>  <CHROM.1>
-11.63634962,-11.88619819,7.71343388,-1.30725065,-1.36560400,2.41840826

>  <Name>
ligand

>  <RI>
0

>  <Rbt.Current_Directory>
/home/itssahil/PROJECTS/Mol_Feturizer/New_Systems/rnas/2EES

>  <Rbt.Executable>
rbdock ($Id: //depot/dev/client3/rdock/2013.1/src/exe/rbdock.cxx#4 $)

>  <Rbt.Library>
libRbt.so (2013.1, Build901 2013/11/27)

>  <Rbt.Parameter_File>
/export/apps/rDock/src/rDock_2013.1_src/data/scripts/dock_solv.prm

>  <Rbt.Receptor>
prm/blind_docking_100.prm

>  <SCORE>
-16.5737

>  <SCORE.INTER>
-16.5737

>  <SCORE.INTER.CONST>
1

>  <SCORE.INTER.POLAR>
0

>  <SCORE.INTER.ROT>
0

>  <SCORE.INTER.SOLV>
3.89004

>  <SCORE.INTER.VDW>
-15.9458

>  <SCORE.INTER.norm>
-1.65737

>  <SCORE.INTRA>
0

>  <SCORE.INTRA.DIHEDRAL>
0

>  <SCORE.INTRA.DIHEDRAL.0>
0

>  <SCORE.INTRA.POLAR>
0

>  <SCORE.INTRA.POLAR.0>
0

>  <SCORE.INTRA.REPUL>
0

>  <SCORE.INTRA.REPUL.0>
0

>  <SCORE.INTRA.SOLV>
0

>  <SCORE.INTRA.SOLV.lig_0>
-4.28614

>  <SCORE.INTRA.VDW>
0

>  <SCORE.INTRA.VDW.0>
0

>  <SCORE.INTRA.norm>
0

>  <SCORE.RESTR>
0

>  <SCORE.RESTR.CAVITY>
0

>  <SCORE.RESTR.norm>
0

>  <SCORE.SYSTEM>
0

>  <SCORE.SYSTEM.CONST>
0

>  <SCORE.SYSTEM.DIHEDRAL>
0

>  <SCORE.SYSTEM.SOLV>
0

>  <SCORE.SYSTEM.norm>
0

>  <SCORE.heavy>
10

>  <SCORE.norm>
-1.65737

>  <RMSD>
2.934

$$$$
ligand
 OpenBabel11021811423D
libRbt.so/2013.1/901 2013/11/27
 10 11  0  0  0  0  0  0  0  0999 V2000
  -11.4882  -11.2254    5.8896 N   0  0  0  0  0  0  0  0  0  0  0  0
  -11.2508  -12.5885    5.7016 C   0  0  0  0  0  0  0  0  0  0  0  0
  -11.2714  -13.4696    6.7175 N   0  0  0  0  0  0  0  0  0  0  0  0
  -11.5547  -12.8810    7.9468 C   0  0  0  0  0  0  0  0  0  0  0  0
  -11.7976  -11.5351    8.2272 C   0  0  0  0  0  0  0  0  0  0  0  0
  -11.7703  -10.5872    7.1440 C   0  0  0  0  0  0  0  0  0  0  0  0
  -11.9471   -9.3930    7.1318 O   0  0  0  0  0  0  0  0  0  0  0  0
  -12.0481  -11.3980    9.6047 N   0  0  0  0  0  0  0  0  0  0  0  0
  -11.9555  -12.6556   10.1151 C   0  0  0  0  0  0  0  0  0  0  0  0
  -11.6515  -13.5891    9.1143 N   0  0  0  0  0  0  0  0  0  0  0  0
  1  2  1  0  0  0  0
  1  6  1  0  0  0  0
  2  3  2  0  0  0  0
  3  4  1  0  0  0  0
  4  5  2  0  0  0  0
  4 10  1  0  0  0  0
  5  6  1  0  0  0  0
  5  8  1  0  0  0  0
  6  7  2  0  0  0  0
  8  9  1  0  0  0  0
  9 10  2  0  0  0  0
M  END
>  <CHROM.1>
-11.67821935,-11.88507489,7.74466083,-1.33508556,-1.35580356,2.39849035

>  <Name>
ligand

>  <RI>
0

>  <Rbt.Current_Directory>
/home/itssahil/PROJECTS/Mol_Feturizer/New_Systems/rnas/2EES

>  <Rbt.Executable>
rbdock ($Id: //depot/dev/client3/rdock/2013.1/src/exe/rbdock.cxx#4 $)

>  <Rbt.Library>
libRbt.so (2013.1, Build901 2013/11/27)

>  <Rbt.Parameter_File>
/export/apps/rDock/src/rDock_2013.1_src/data/scripts/dock_solv.prm

>  <Rbt.Receptor>
prm/blind_docking_40.prm

>  <SCORE>
-16.5374

>  <SCORE.INTER>
-16.5374

>  <SCORE.INTER.CONST>
1

>  <SCORE.INTER.POLAR>
0

>  <SCORE.INTER.ROT>
0

>  <SCORE.INTER.SOLV>
3.82153

>  <SCORE.INTER.VDW>
-15.8988

>  <SCORE.INTER.norm>
-1.65374

>  <SCORE.INTRA>
0

>  <SCORE.INTRA.DIHEDRAL>
0

>  <SCORE.INTRA.DIHEDRAL.0>
0

>  <SCORE.INTRA.POLAR>
0

>  <SCORE.INTRA.POLAR.0>
0

>  <SCORE.INTRA.REPUL>
0

>  <SCORE.INTRA.REPUL.0>
0

>  <SCORE.INTRA.SOLV>
0

>  <SCORE.INTRA.SOLV.lig_0>
-4.28614

>  <SCORE.INTRA.VDW>
0

>  <SCORE.INTRA.VDW.0>
0

>  <SCORE.INTRA.norm>
0

>  <SCORE.RESTR>
0

>  <SCORE.RESTR.CAVITY>
0

>  <SCORE.RESTR.norm>
0

>  <SCORE.SYSTEM>
0

>  <SCORE.SYSTEM.CONST>
0

>  <SCORE.SYSTEM.DIHEDRAL>
0

>  <SCORE.SYSTEM.SOLV>
0

>  <SCORE.SYSTEM.norm>
0

>  <SCORE.heavy>
10

>  <SCORE.norm>
-1.65374

>  <RMSD>
2.934

$$$$
ligand
 OpenBabel11021811423D
libRbt.so/2013.1/901 2013/11/27
 10 11  0  0  0  0  0  0  0  0999 V2000
  -11.4375  -11.2483    5.8529 N   0  0  0  0  0  0  0  0  0  0  0  0
  -11.2212  -12.6161    5.6746 C   0  0  0  0  0  0  0  0  0  0  0  0
  -11.2563  -13.4898    6.6966 N   0  0  0  0  0  0  0  0  0  0  0  0
  -11.5314  -12.8883    7.9215 C   0  0  0  0  0  0  0  0  0  0  0  0
  -11.7535  -11.5369    8.1923 C   0  0  0  0  0  0  0  0  0  0  0  0
  -11.7106  -10.5970    7.1027 C   0  0  0  0  0  0  0  0  0  0  0  0
  -11.8688   -9.4003    7.0821 O   0  0  0  0  0  0  0  0  0  0  0  0
  -12.0030  -11.3863    9.5686 N   0  0  0  0  0  0  0  0  0  0  0  0
  -11.9303  -12.6416   10.0878 C   0  0  0  0  0  0  0  0  0  0  0  0
  -11.6401  -13.5867    9.0938 N   0  0  0  0  0  0  0  0  0  0  0  0
  1  2  1  0  0  0  0
  1  6  1  0  0  0  0
  2  3  2  0  0  0  0
  3  4  1  0  0  0  0
  4  5  2  0  0  0  0
  4 10  1  0  0  0  0
  5  6  1  0  0  0  0
  5  8  1  0  0  0  0
  6  7  2  0  0  0  0
  8  9  1  0  0  0  0
  9 10  2  0  0  0  0
M  END
>  <CHROM.1>
-11.63923759,-11.89198716,7.71237654,-1.27621997,-1.36541506,2.44913431

>  <Name>
ligand

>  <RI>
0

>  <Rbt.Current_Directory>
/home/itssahil/PROJECTS/Mol_Feturizer/New_Systems/rnas/2EES

>  <Rbt.Executable>
rbdock ($Id: //depot/dev/client3/rdock/2013.1/src/exe/rbdock.cxx#4 $)

>  <Rbt.Library>
libRbt.so (2013.1, Build901 2013/11/27)

>  <Rbt.Parameter_File>
/export/apps/rDock/src/rDock_2013.1_src/data/scripts/dock_solv.prm

>  <Rbt.Receptor>
prm/blind_docking_100.prm

>  <SCORE>
-16.5738

>  <SCORE.INTER>
-16.5738

>  <SCORE.INTER.CONST>
1

>  <SCORE.INTER.POLAR>
0

>  <SCORE.INTER.ROT>
0

>  <SCORE.INTER.SOLV>
3.89743

>  <SCORE.INTER.VDW>
-15.9483

>  <SCORE.INTER.norm>
-1.65738

>  <SCORE.INTRA>
0

>  <SCORE.INTRA.DIHEDRAL>
0

>  <SCORE.INTRA.DIHEDRAL.0>
0

>  <SCORE.INTRA.POLAR>
0

>  <SCORE.INTRA.POLAR.0>
0

>  <SCORE.INTRA.REPUL>
0

>  <SCORE.INTRA.REPUL.0>
0

>  <SCORE.INTRA.SOLV>
0

>  <SCORE.INTRA.SOLV.lig_0>
-4.28614

>  <SCORE.INTRA.VDW>
0

>  <SCORE.INTRA.VDW.0>
0

>  <SCORE.INTRA.norm>
0

>  <SCORE.RESTR>
0

>  <SCORE.RESTR.CAVITY>
0

>  <SCORE.RESTR.norm>
0

>  <SCORE.SYSTEM>
0

>  <SCORE.SYSTEM.CONST>
0

>  <SCORE.SYSTEM.DIHEDRAL>
0

>  <SCORE.SYSTEM.SOLV>
0

>  <SCORE.SYSTEM.norm>
0

>  <SCORE.heavy>
10

>  <SCORE.norm>
-1.65738

>  <RMSD>
2.935

$$$$
ligand
 OpenBabel11021811423D
libRbt.so/2013.1/901 2013/11/27
 10 11  0  0  0  0  0  0  0  0999 V2000
  -11.4545  -11.2537    5.8533 N   0  0  0  0  0  0  0  0  0  0  0  0
  -11.2318  -12.6209    5.6780 C   0  0  0  0  0  0  0  0  0  0  0  0
  -11.2549  -13.4914    6.7031 N   0  0  0  0  0  0  0  0  0  0  0  0
  -11.5248  -12.8873    7.9279 C   0  0  0  0  0  0  0  0  0  0  0  0
  -11.7526  -11.5362    8.1958 C   0  0  0  0  0  0  0  0  0  0  0  0
  -11.7226  -10.5998    7.1027 C   0  0  0  0  0  0  0  0  0  0  0  0
  -11.8876   -9.4041    7.0792 O   0  0  0  0  0  0  0  0  0  0  0  0
  -11.9933  -11.3824    9.5733 N   0  0  0  0  0  0  0  0  0  0  0  0
  -11.9101  -12.6356   10.0961 C   0  0  0  0  0  0  0  0  0  0  0  0
  -11.6215  -13.5823    9.1032 N   0  0  0  0  0  0  0  0  0  0  0  0
  1  2  1  0  0  0  0
  1  6  1  0  0  0  0
  2  3  2  0  0  0  0
  3  4  1  0  0  0  0
  4  5  2  0  0  0  0
  4 10  1  0  0  0  0
  5  6  1  0  0  0  0
  5  8  1  0  0  0  0
  6  7  2  0  0  0  0
  8  9  1  0  0  0  0
  9 10  2  0  0  0  0
M  END
>  <CHROM.1>
-11.63969045,-11.89231521,7.71622026,-1.31944665,-1.36700546,2.40345200

>  <Name>
ligand

>  <RI>
0

>  <Rbt.Current_Directory>
/home/itssahil/PROJECTS/Mol_Feturizer/New_Systems/rnas/2EES

>  <Rbt.Executable>
rbdock ($Id: //depot/dev/client3/rdock/2013.1/src/exe/rbdock.cxx#4 $)

>  <Rbt.Library>
libRbt.so (2013.1, Build901 2013/11/27)

>  <Rbt.Parameter_File>
/export/apps/rDock/src/rDock_2013.1_src/data/scripts/dock_solv.prm

>  <Rbt.Receptor>
prm/blind_docking_100.prm

>  <SCORE>
-16.5718

>  <SCORE.INTER>
-16.5718

>  <SCORE.INTER.CONST>
1

>  <SCORE.INTER.POLAR>
0

>  <SCORE.INTER.ROT>
0

>  <SCORE.INTER.SOLV>
3.88607

>  <SCORE.INTER.VDW>
-15.9432

>  <SCORE.INTER.norm>
-1.65718

>  <SCORE.INTRA>
0

>  <SCORE.INTRA.DIHEDRAL>
0

>  <SCORE.INTRA.DIHEDRAL.0>
0

>  <SCORE.INTRA.POLAR>
0

>  <SCORE.INTRA.POLAR.0>
0

>  <SCORE.INTRA.REPUL>
0

>  <SCORE.INTRA.REPUL.0>
0

>  <SCORE.INTRA.SOLV>
0

>  <SCORE.INTRA.SOLV.lig_0>
-4.28614

>  <SCORE.INTRA.VDW>
0

>  <SCORE.INTRA.VDW.0>
0

>  <SCORE.INTRA.norm>
0

>  <SCORE.RESTR>
0

>  <SCORE.RESTR.CAVITY>
0

>  <SCORE.RESTR.norm>
0

>  <SCORE.SYSTEM>
0

>  <SCORE.SYSTEM.CONST>
0

>  <SCORE.SYSTEM.DIHEDRAL>
0

>  <SCORE.SYSTEM.SOLV>
0

>  <SCORE.SYSTEM.norm>
0

>  <SCORE.heavy>
10

>  <SCORE.norm>
-1.65718

>  <RMSD>
2.935

$$$$
ligand
 OpenBabel11021811423D
libRbt.so/2013.1/901 2013/11/27
 10 11  0  0  0  0  0  0  0  0999 V2000
  -11.4531  -11.2585    5.8520 N   0  0  0  0  0  0  0  0  0  0  0  0
  -11.2273  -12.6255    5.6789 C   0  0  0  0  0  0  0  0  0  0  0  0
  -11.2505  -13.4946    6.7051 N   0  0  0  0  0  0  0  0  0  0  0  0
  -11.5240  -12.8895    7.9286 C   0  0  0  0  0  0  0  0  0  0  0  0
  -11.7550  -11.5386    8.1943 C   0  0  0  0  0  0  0  0  0  0  0  0
  -11.7248  -10.6035    7.1001 C   0  0  0  0  0  0  0  0  0  0  0  0
  -11.8923   -9.4081    7.0748 O   0  0  0  0  0  0  0  0  0  0  0  0
  -11.9986  -11.3835    9.5712 N   0  0  0  0  0  0  0  0  0  0  0  0
  -11.9138  -12.6358   10.0958 C   0  0  0  0  0  0  0  0  0  0  0  0
  -11.6214  -13.5832    9.1046 N   0  0  0  0  0  0  0  0  0  0  0  0
  1  2  1  0  0  0  0
  1  6  1  0  0  0  0
  2  3  2  0  0  0  0
  3  4  1  0  0  0  0
  4  5  2  0  0  0  0
  4 10  1  0  0  0  0
  5  6  1  0  0  0  0
  5  8  1  0  0  0  0
  6  7  2  0  0  0  0
  8  9  1  0  0  0  0
  9 10  2  0  0  0  0
M  END
>  <CHROM.1>
-11.64050652,-11.89504016,7.71543689,-1.32063372,-1.36425326,2.40100515

>  <Name>
ligand

>  <RI>
0

>  <Rbt.Current_Directory>
/home/itssahil/PROJECTS/Mol_Feturizer/New_Systems/rnas/2EES

>  <Rbt.Executable>
rbdock ($Id: //depot/dev/client3/rdock/2013.1/src/exe/rbdock.cxx#4 $)

>  <Rbt.Library>
libRbt.so (2013.1, Build901 2013/11/27)

>  <Rbt.Parameter_File>
/export/apps/rDock/src/rDock_2013.1_src/data/scripts/dock_solv.prm

>  <Rbt.Receptor>
prm/pocket_docking_5.prm

>  <SCORE>
-16.5729

>  <SCORE.INTER>
-16.5729

>  <SCORE.INTER.CONST>
1

>  <SCORE.INTER.POLAR>
0

>  <SCORE.INTER.ROT>
0

>  <SCORE.INTER.SOLV>
3.87842

>  <SCORE.INTER.VDW>
-15.9414

>  <SCORE.INTER.norm>
-1.65729

>  <SCORE.INTRA>
0

>  <SCORE.INTRA.DIHEDRAL>
0

>  <SCORE.INTRA.DIHEDRAL.0>
0

>  <SCORE.INTRA.POLAR>
0

>  <SCORE.INTRA.POLAR.0>
0

>  <SCORE.INTRA.REPUL>
0

>  <SCORE.INTRA.REPUL.0>
0

>  <SCORE.INTRA.SOLV>
0

>  <SCORE.INTRA.SOLV.lig_0>
-4.28614

>  <SCORE.INTRA.VDW>
0

>  <SCORE.INTRA.VDW.0>
0

>  <SCORE.INTRA.norm>
0

>  <SCORE.RESTR>
0

>  <SCORE.RESTR.CAVITY>
0

>  <SCORE.RESTR.norm>
0

>  <SCORE.SYSTEM>
0

>  <SCORE.SYSTEM.CONST>
0

>  <SCORE.SYSTEM.DIHEDRAL>
0

>  <SCORE.SYSTEM.SOLV>
0

>  <SCORE.SYSTEM.norm>
0

>  <SCORE.heavy>
10

>  <SCORE.norm>
-1.65729

>  <RMSD>
2.935

$$$$
ligand
 OpenBabel11021811423D
libRbt.so/2013.1/901 2013/11/27
 10 11  0  0  0  0  0  0  0  0999 V2000
  -11.4487  -11.2643    5.8553 N   0  0  0  0  0  0  0  0  0  0  0  0
  -11.2283  -12.6326    5.6856 C   0  0  0  0  0  0  0  0  0  0  0  0
  -11.2562  -13.4992    6.7139 N   0  0  0  0  0  0  0  0  0  0  0  0
  -11.5285  -12.8902    7.9356 C   0  0  0  0  0  0  0  0  0  0  0  0
  -11.7543  -11.5377    8.1980 C   0  0  0  0  0  0  0  0  0  0  0  0
  -11.7191  -10.6053    7.1016 C   0  0  0  0  0  0  0  0  0  0  0  0
  -11.8816   -9.4093    7.0733 O   0  0  0  0  0  0  0  0  0  0  0  0
  -11.9988  -11.3784    9.5742 N   0  0  0  0  0  0  0  0  0  0  0  0
  -11.9197  -12.6298   10.1017 C   0  0  0  0  0  0  0  0  0  0  0  0
  -11.6301  -13.5807    9.1132 N   0  0  0  0  0  0  0  0  0  0  0  0
  1  2  1  0  0  0  0
  1  6  1  0  0  0  0
  2  3  2  0  0  0  0
  3  4  1  0  0  0  0
  4  5  2  0  0  0  0
  4 10  1  0  0  0  0
  5  6  1  0  0  0  0
  5  8  1  0  0  0  0
  6  7  2  0  0  0  0
  8  9  1  0  0  0  0
  9 10  2  0  0  0  0
M  END
>  <CHROM.1>
-11.64073503,-11.89573981,7.72001685,-1.30206138,-1.36617928,2.41686312

>  <Name>
ligand

>  <RI>
0

>  <Rbt.Current_Directory>
/home/itssahil/PROJECTS/Mol_Feturizer/New_Systems/rnas/2EES

>  <Rbt.Executable>
rbdock ($Id: //depot/dev/client3/rdock/2013.1/src/exe/rbdock.cxx#4 $)

>  <Rbt.Library>
libRbt.so (2013.1, Build901 2013/11/27)

>  <Rbt.Parameter_File>
/export/apps/rDock/src/rDock_2013.1_src/data/scripts/dock_solv.prm

>  <Rbt.Receptor>
prm/blind_docking_100.prm

>  <SCORE>
-16.5732

>  <SCORE.INTER>
-16.5732

>  <SCORE.INTER.CONST>
1

>  <SCORE.INTER.POLAR>
0

>  <SCORE.INTER.ROT>
0

>  <SCORE.INTER.SOLV>
3.88703

>  <SCORE.INTER.VDW>
-15.9445

>  <SCORE.INTER.norm>
-1.65732

>  <SCORE.INTRA>
0

>  <SCORE.INTRA.DIHEDRAL>
0

>  <SCORE.INTRA.DIHEDRAL.0>
0

>  <SCORE.INTRA.POLAR>
0

>  <SCORE.INTRA.POLAR.0>
0

>  <SCORE.INTRA.REPUL>
0

>  <SCORE.INTRA.REPUL.0>
0

>  <SCORE.INTRA.SOLV>
0

>  <SCORE.INTRA.SOLV.lig_0>
-4.28614

>  <SCORE.INTRA.VDW>
0

>  <SCORE.INTRA.VDW.0>
0

>  <SCORE.INTRA.norm>
0

>  <SCORE.RESTR>
0

>  <SCORE.RESTR.CAVITY>
0

>  <SCORE.RESTR.norm>
0

>  <SCORE.SYSTEM>
0

>  <SCORE.SYSTEM.CONST>
0

>  <SCORE.SYSTEM.DIHEDRAL>
0

>  <SCORE.SYSTEM.SOLV>
0

>  <SCORE.SYSTEM.norm>
0

>  <SCORE.heavy>
10

>  <SCORE.norm>
-1.65732

>  <RMSD>
2.936

$$$$
ligand
 OpenBabel11021811423D
libRbt.so/2013.1/901 2013/11/27
 10 11  0  0  0  0  0  0  0  0999 V2000
  -11.4555  -11.2621    5.8512 N   0  0  0  0  0  0  0  0  0  0  0  0
  -11.2338  -12.6301    5.6809 C   0  0  0  0  0  0  0  0  0  0  0  0
  -11.2572  -13.4967    6.7093 N   0  0  0  0  0  0  0  0  0  0  0  0
  -11.5265  -12.8879    7.9318 C   0  0  0  0  0  0  0  0  0  0  0  0
  -11.7533  -11.5357    8.1948 C   0  0  0  0  0  0  0  0  0  0  0  0
  -11.7228  -10.6034    7.0983 C   0  0  0  0  0  0  0  0  0  0  0  0
  -11.8870   -9.4076    7.0704 O   0  0  0  0  0  0  0  0  0  0  0  0
  -11.9936  -11.3767    9.5718 N   0  0  0  0  0  0  0  0  0  0  0  0
  -11.9110  -12.6279   10.0992 C   0  0  0  0  0  0  0  0  0  0  0  0
  -11.6233  -13.5785    9.1098 N   0  0  0  0  0  0  0  0  0  0  0  0
  1  2  1  0  0  0  0
  1  6  1  0  0  0  0
  2  3  2  0  0  0  0
  3  4  1  0  0  0  0
  4  5  2  0  0  0  0
  4 10  1  0  0  0  0
  5  6  1  0  0  0  0
  5  8  1  0  0  0  0
  6  7  2  0  0  0  0
  8  9  1  0  0  0  0
  9 10  2  0  0  0  0
M  END
>  <CHROM.1>
-11.64070851,-11.89364166,7.71652958,-1.31768947,-1.36763171,2.40148605

>  <Name>
ligand

>  <RI>
0

>  <Rbt.Current_Directory>
/home/itssahil/PROJECTS/Mol_Feturizer/New_Systems/rnas/2EES

>  <Rbt.Executable>
rbdock ($Id: //depot/dev/client3/rdock/2013.1/src/exe/rbdock.cxx#4 $)

>  <Rbt.Library>
libRbt.so (2013.1, Build901 2013/11/27)

>  <Rbt.Parameter_File>
/export/apps/rDock/src/rDock_2013.1_src/data/scripts/dock_solv.prm

>  <Rbt.Receptor>
prm/pocket_docking_4.prm

>  <SCORE>
-16.573

>  <SCORE.INTER>
-16.573

>  <SCORE.INTER.CONST>
1

>  <SCORE.INTER.POLAR>
0

>  <SCORE.INTER.ROT>
0

>  <SCORE.INTER.SOLV>
3.88707

>  <SCORE.INTER.VDW>
-15.9443

>  <SCORE.INTER.norm>
-1.6573

>  <SCORE.INTRA>
0

>  <SCORE.INTRA.DIHEDRAL>
0

>  <SCORE.INTRA.DIHEDRAL.0>
0

>  <SCORE.INTRA.POLAR>
0

>  <SCORE.INTRA.POLAR.0>
0

>  <SCORE.INTRA.REPUL>
0

>  <SCORE.INTRA.REPUL.0>
0

>  <SCORE.INTRA.SOLV>
0

>  <SCORE.INTRA.SOLV.lig_0>
-4.28614

>  <SCORE.INTRA.VDW>
0

>  <SCORE.INTRA.VDW.0>
0

>  <SCORE.INTRA.norm>
0

>  <SCORE.RESTR>
0

>  <SCORE.RESTR.CAVITY>
0

>  <SCORE.RESTR.norm>
0

>  <SCORE.SYSTEM>
0

>  <SCORE.SYSTEM.CONST>
0

>  <SCORE.SYSTEM.DIHEDRAL>
0

>  <SCORE.SYSTEM.SOLV>
0

>  <SCORE.SYSTEM.norm>
0

>  <SCORE.heavy>
10

>  <SCORE.norm>
-1.6573

>  <RMSD>
2.936

$$$$
ligand
 OpenBabel11021811423D
libRbt.so/2013.1/901 2013/11/27
 10 11  0  0  0  0  0  0  0  0999 V2000
  -11.4256  -11.2460    5.8563 N   0  0  0  0  0  0  0  0  0  0  0  0
  -11.2171  -12.6151    5.6779 C   0  0  0  0  0  0  0  0  0  0  0  0
  -11.2613  -13.4891    6.6993 N   0  0  0  0  0  0  0  0  0  0  0  0
  -11.5372  -12.8866    7.9235 C   0  0  0  0  0  0  0  0  0  0  0  0
  -11.7519  -11.5340    8.1944 C   0  0  0  0  0  0  0  0  0  0  0  0
  -11.6992  -10.5938    7.1054 C   0  0  0  0  0  0  0  0  0  0  0  0
  -11.8500   -9.3961    7.0849 O   0  0  0  0  0  0  0  0  0  0  0  0
  -12.0055  -11.3826    9.5698 N   0  0  0  0  0  0  0  0  0  0  0  0
  -11.9425  -12.6386   10.0885 C   0  0  0  0  0  0  0  0  0  0  0  0
  -11.6545  -13.5849    9.0950 N   0  0  0  0  0  0  0  0  0  0  0  0
  1  2  1  0  0  0  0
  1  6  1  0  0  0  0
  2  3  2  0  0  0  0
  3  4  1  0  0  0  0
  4  5  2  0  0  0  0
  4 10  1  0  0  0  0
  5  6  1  0  0  0  0
  5  8  1  0  0  0  0
  6  7  2  0  0  0  0
  8  9  1  0  0  0  0
  9 10  2  0  0  0  0
M  END
>  <CHROM.1>
-11.63809420,-11.88949211,7.71462068,-1.24127130,-1.36642200,2.48390613

>  <Name>
ligand

>  <RI>
0

>  <Rbt.Current_Directory>
/home/itssahil/PROJECTS/Mol_Feturizer/New_Systems/rnas/2EES

>  <Rbt.Executable>
rbdock ($Id: //depot/dev/client3/rdock/2013.1/src/exe/rbdock.cxx#4 $)

>  <Rbt.Library>
libRbt.so (2013.1, Build901 2013/11/27)

>  <Rbt.Parameter_File>
/export/apps/rDock/src/rDock_2013.1_src/data/scripts/dock_solv.prm

>  <Rbt.Receptor>
prm/blind_docking_80.prm

>  <SCORE>
-16.5697

>  <SCORE.INTER>
-16.5697

>  <SCORE.INTER.CONST>
1

>  <SCORE.INTER.POLAR>
0

>  <SCORE.INTER.ROT>
0

>  <SCORE.INTER.SOLV>
3.91211

>  <SCORE.INTER.VDW>
-15.9505

>  <SCORE.INTER.norm>
-1.65697

>  <SCORE.INTRA>
0

>  <SCORE.INTRA.DIHEDRAL>
0

>  <SCORE.INTRA.DIHEDRAL.0>
0

>  <SCORE.INTRA.POLAR>
0

>  <SCORE.INTRA.POLAR.0>
0

>  <SCORE.INTRA.REPUL>
0

>  <SCORE.INTRA.REPUL.0>
0

>  <SCORE.INTRA.SOLV>
0

>  <SCORE.INTRA.SOLV.lig_0>
-4.28614

>  <SCORE.INTRA.VDW>
0

>  <SCORE.INTRA.VDW.0>
0

>  <SCORE.INTRA.norm>
0

>  <SCORE.RESTR>
0

>  <SCORE.RESTR.CAVITY>
0

>  <SCORE.RESTR.norm>
0

>  <SCORE.SYSTEM>
0

>  <SCORE.SYSTEM.CONST>
0

>  <SCORE.SYSTEM.DIHEDRAL>
0

>  <SCORE.SYSTEM.SOLV>
0

>  <SCORE.SYSTEM.norm>
0

>  <SCORE.heavy>
10

>  <SCORE.norm>
-1.65697

>  <RMSD>
2.937

$$$$
ligand
 OpenBabel11021811423D
libRbt.so/2013.1/901 2013/11/27
 10 11  0  0  0  0  0  0  0  0999 V2000
  -11.4392  -11.2606    5.8532 N   0  0  0  0  0  0  0  0  0  0  0  0
  -11.2228  -12.6292    5.6808 C   0  0  0  0  0  0  0  0  0  0  0  0
  -11.2580  -13.4984    6.7066 N   0  0  0  0  0  0  0  0  0  0  0  0
  -11.5332  -12.8917    7.9288 C   0  0  0  0  0  0  0  0  0  0  0  0
  -11.7554  -11.5391    8.1938 C   0  0  0  0  0  0  0  0  0  0  0  0
  -11.7124  -10.6040    7.1001 C   0  0  0  0  0  0  0  0  0  0  0  0
  -11.8706   -9.4073    7.0743 O   0  0  0  0  0  0  0  0  0  0  0  0
  -12.0049  -11.3826    9.5695 N   0  0  0  0  0  0  0  0  0  0  0  0
  -11.9323  -12.6356   10.0940 C   0  0  0  0  0  0  0  0  0  0  0  0
  -11.6420  -13.5849    9.1042 N   0  0  0  0  0  0  0  0  0  0  0  0
  1  2  1  0  0  0  0
  1  6  1  0  0  0  0
  2  3  2  0  0  0  0
  3  4  1  0  0  0  0
  4  5  2  0  0  0  0
  4 10  1  0  0  0  0
  5  6  1  0  0  0  0
  5  8  1  0  0  0  0
  6  7  2  0  0  0  0
  8  9  1  0  0  0  0
  9 10  2  0  0  0  0
M  END
>  <CHROM.1>
-11.64103853,-11.89626765,7.71542884,-1.27597047,-1.36533394,2.44504150

>  <Name>
ligand

>  <RI>
0

>  <Rbt.Current_Directory>
/home/itssahil/PROJECTS/Mol_Feturizer/New_Systems/rnas/2EES

>  <Rbt.Executable>
rbdock ($Id: //depot/dev/client3/rdock/2013.1/src/exe/rbdock.cxx#4 $)

>  <Rbt.Library>
libRbt.so (2013.1, Build901 2013/11/27)

>  <Rbt.Parameter_File>
/export/apps/rDock/src/rDock_2013.1_src/data/scripts/dock_solv.prm

>  <Rbt.Receptor>
prm/blind_docking_80.prm

>  <SCORE>
-16.5741

>  <SCORE.INTER>
-16.5741

>  <SCORE.INTER.CONST>
1

>  <SCORE.INTER.POLAR>
0

>  <SCORE.INTER.ROT>
0

>  <SCORE.INTER.SOLV>
3.89456

>  <SCORE.INTER.VDW>
-15.9476

>  <SCORE.INTER.norm>
-1.65741

>  <SCORE.INTRA>
0

>  <SCORE.INTRA.DIHEDRAL>
0

>  <SCORE.INTRA.DIHEDRAL.0>
0

>  <SCORE.INTRA.POLAR>
0

>  <SCORE.INTRA.POLAR.0>
0

>  <SCORE.INTRA.REPUL>
0

>  <SCORE.INTRA.REPUL.0>
0

>  <SCORE.INTRA.SOLV>
0

>  <SCORE.INTRA.SOLV.lig_0>
-4.28614

>  <SCORE.INTRA.VDW>
0

>  <SCORE.INTRA.VDW.0>
0

>  <SCORE.INTRA.norm>
0

>  <SCORE.RESTR>
0

>  <SCORE.RESTR.CAVITY>
0

>  <SCORE.RESTR.norm>
0

>  <SCORE.SYSTEM>
0

>  <SCORE.SYSTEM.CONST>
0

>  <SCORE.SYSTEM.DIHEDRAL>
0

>  <SCORE.SYSTEM.SOLV>
0

>  <SCORE.SYSTEM.norm>
0

>  <SCORE.heavy>
10

>  <SCORE.norm>
-1.65741

>  <RMSD>
2.937

$$$$
ligand
 OpenBabel11021811423D
libRbt.so/2013.1/901 2013/11/27
 10 11  0  0  0  0  0  0  0  0999 V2000
  -11.4295  -11.2485    5.8526 N   0  0  0  0  0  0  0  0  0  0  0  0
  -11.2339  -12.6193    5.6731 C   0  0  0  0  0  0  0  0  0  0  0  0
  -11.2829  -13.4933    6.6943 N   0  0  0  0  0  0  0  0  0  0  0  0
  -11.5494  -12.8888    7.9196 C   0  0  0  0  0  0  0  0  0  0  0  0
  -11.7510  -11.5344    8.1916 C   0  0  0  0  0  0  0  0  0  0  0  0
  -11.6932  -10.5943    7.1029 C   0  0  0  0  0  0  0  0  0  0  0  0
  -11.8331   -9.3953    7.0833 O   0  0  0  0  0  0  0  0  0  0  0  0
  -11.9989  -11.3814    9.5679 N   0  0  0  0  0  0  0  0  0  0  0  0
  -11.9457  -12.6381   10.0859 C   0  0  0  0  0  0  0  0  0  0  0  0
  -11.6694  -13.5865    9.0912 N   0  0  0  0  0  0  0  0  0  0  0  0
  1  2  1  0  0  0  0
  1  6  1  0  0  0  0
  2  3  2  0  0  0  0
  3  4  1  0  0  0  0
  4  5  2  0  0  0  0
  4 10  1  0  0  0  0
  5  6  1  0  0  0  0
  5  8  1  0  0  0  0
  6  7  2  0  0  0  0
  8  9  1  0  0  0  0
  9 10  2  0  0  0  0
M  END
>  <CHROM.1>
-11.64193540,-11.89077386,7.71138249,-1.21427858,-1.37438972,2.51076519

>  <Name>
ligand

>  <RI>
0

>  <Rbt.Current_Directory>
/home/itssahil/PROJECTS/Mol_Feturizer/New_Systems/rnas/2EES

>  <Rbt.Executable>
rbdock ($Id: //depot/dev/client3/rdock/2013.1/src/exe/rbdock.cxx#4 $)

>  <Rbt.Library>
libRbt.so (2013.1, Build901 2013/11/27)

>  <Rbt.Parameter_File>
/export/apps/rDock/src/rDock_2013.1_src/data/scripts/dock_solv.prm

>  <Rbt.Receptor>
prm/pocket_docking_3.prm

>  <SCORE>
-16.5623

>  <SCORE.INTER>
-16.5623

>  <SCORE.INTER.CONST>
1

>  <SCORE.INTER.POLAR>
0

>  <SCORE.INTER.ROT>
0

>  <SCORE.INTER.SOLV>
3.93704

>  <SCORE.INTER.VDW>
-15.9539

>  <SCORE.INTER.norm>
-1.65623

>  <SCORE.INTRA>
0

>  <SCORE.INTRA.DIHEDRAL>
0

>  <SCORE.INTRA.DIHEDRAL.0>
0

>  <SCORE.INTRA.POLAR>
0

>  <SCORE.INTRA.POLAR.0>
0

>  <SCORE.INTRA.REPUL>
0

>  <SCORE.INTRA.REPUL.0>
0

>  <SCORE.INTRA.SOLV>
0

>  <SCORE.INTRA.SOLV.lig_0>
-4.28614

>  <SCORE.INTRA.VDW>
0

>  <SCORE.INTRA.VDW.0>
0

>  <SCORE.INTRA.norm>
0

>  <SCORE.RESTR>
0

>  <SCORE.RESTR.CAVITY>
0

>  <SCORE.RESTR.norm>
0

>  <SCORE.SYSTEM>
0

>  <SCORE.SYSTEM.CONST>
0

>  <SCORE.SYSTEM.DIHEDRAL>
0

>  <SCORE.SYSTEM.SOLV>
0

>  <SCORE.SYSTEM.norm>
0

>  <SCORE.heavy>
10

>  <SCORE.norm>
-1.65623

>  <RMSD>
2.937

$$$$
ligand
 OpenBabel11021811423D
libRbt.so/2013.1/901 2013/11/27
 10 11  0  0  0  0  0  0  0  0999 V2000
  -11.4262  -11.2522    5.8521 N   0  0  0  0  0  0  0  0  0  0  0  0
  -11.2145  -12.6213    5.6783 C   0  0  0  0  0  0  0  0  0  0  0  0
  -11.2555  -13.4918    6.7029 N   0  0  0  0  0  0  0  0  0  0  0  0
  -11.5314  -12.8857    7.9252 C   0  0  0  0  0  0  0  0  0  0  0  0
  -11.7492  -11.5326    8.1915 C   0  0  0  0  0  0  0  0  0  0  0  0
  -11.7000  -10.5962    7.0992 C   0  0  0  0  0  0  0  0  0  0  0  0
  -11.8537   -9.3989    7.0746 O   0  0  0  0  0  0  0  0  0  0  0  0
  -12.0015  -11.3770    9.5667 N   0  0  0  0  0  0  0  0  0  0  0  0
  -11.9349  -12.6310   10.0898 C   0  0  0  0  0  0  0  0  0  0  0  0
  -11.6457  -13.5801    9.0993 N   0  0  0  0  0  0  0  0  0  0  0  0
  1  2  1  0  0  0  0
  1  6  1  0  0  0  0
  2  3  2  0  0  0  0
  3  4  1  0  0  0  0
  4  5  2  0  0  0  0
  4 10  1  0  0  0  0
  5  6  1  0  0  0  0
  5  8  1  0  0  0  0
  6  7  2  0  0  0  0
  8  9  1  0  0  0  0
  9 10  2  0  0  0  0
M  END
>  <CHROM.1>
-11.63500949,-11.88957888,7.71290405,-1.25414410,-1.36580169,2.46776561

>  <Name>
ligand

>  <RI>
0

>  <Rbt.Current_Directory>
/home/itssahil/PROJECTS/Mol_Feturizer/New_Systems/rnas/2EES

>  <Rbt.Executable>
rbdock ($Id: //depot/dev/client3/rdock/2013.1/src/exe/rbdock.cxx#4 $)

>  <Rbt.Library>
libRbt.so (2013.1, Build901 2013/11/27)

>  <Rbt.Parameter_File>
/export/apps/rDock/src/rDock_2013.1_src/data/scripts/dock_solv.prm

>  <Rbt.Receptor>
prm/pocket_docking_4.prm

>  <SCORE>
-16.5706

>  <SCORE.INTER>
-16.5706

>  <SCORE.INTER.CONST>
1

>  <SCORE.INTER.POLAR>
0

>  <SCORE.INTER.ROT>
0

>  <SCORE.INTER.SOLV>
3.90932

>  <SCORE.INTER.VDW>
-15.9502

>  <SCORE.INTER.norm>
-1.65706

>  <SCORE.INTRA>
0

>  <SCORE.INTRA.DIHEDRAL>
0

>  <SCORE.INTRA.DIHEDRAL.0>
0

>  <SCORE.INTRA.POLAR>
0

>  <SCORE.INTRA.POLAR.0>
0

>  <SCORE.INTRA.REPUL>
0

>  <SCORE.INTRA.REPUL.0>
0

>  <SCORE.INTRA.SOLV>
0

>  <SCORE.INTRA.SOLV.lig_0>
-4.28614

>  <SCORE.INTRA.VDW>
0

>  <SCORE.INTRA.VDW.0>
0

>  <SCORE.INTRA.norm>
0

>  <SCORE.RESTR>
0

>  <SCORE.RESTR.CAVITY>
0

>  <SCORE.RESTR.norm>
0

>  <SCORE.SYSTEM>
0

>  <SCORE.SYSTEM.CONST>
0

>  <SCORE.SYSTEM.DIHEDRAL>
0

>  <SCORE.SYSTEM.SOLV>
0

>  <SCORE.SYSTEM.norm>
0

>  <SCORE.heavy>
10

>  <SCORE.norm>
-1.65706

>  <RMSD>
2.937

$$$$
ligand
 OpenBabel11021811423D
libRbt.so/2013.1/901 2013/11/27
 10 11  0  0  0  0  0  0  0  0999 V2000
  -11.4176  -11.2494    5.8578 N   0  0  0  0  0  0  0  0  0  0  0  0
  -11.2102  -12.6191    5.6834 C   0  0  0  0  0  0  0  0  0  0  0  0
  -11.2579  -13.4905    6.7068 N   0  0  0  0  0  0  0  0  0  0  0  0
  -11.5361  -12.8846    7.9288 C   0  0  0  0  0  0  0  0  0  0  0  0
  -11.7500  -11.5311    8.1958 C   0  0  0  0  0  0  0  0  0  0  0  0
  -11.6936  -10.5937    7.1046 C   0  0  0  0  0  0  0  0  0  0  0  0
  -11.8429   -9.3959    7.0807 O   0  0  0  0  0  0  0  0  0  0  0  0
  -12.0068  -11.3760    9.5702 N   0  0  0  0  0  0  0  0  0  0  0  0
  -11.9465  -12.6308   10.0922 C   0  0  0  0  0  0  0  0  0  0  0  0
  -11.6571  -13.5799    9.1018 N   0  0  0  0  0  0  0  0  0  0  0  0
  1  2  1  0  0  0  0
  1  6  1  0  0  0  0
  2  3  2  0  0  0  0
  3  4  1  0  0  0  0
  4  5  2  0  0  0  0
  4 10  1  0  0  0  0
  5  6  1  0  0  0  0
  5  8  1  0  0  0  0
  6  7  2  0  0  0  0
  8  9  1  0  0  0  0
  9 10  2  0  0  0  0
M  END
>  <CHROM.1>
-11.63542406,-11.88795799,7.71718390,-1.22949297,-1.36513777,2.49293942

>  <Name>
ligand

>  <RI>
0

>  <Rbt.Current_Directory>
/home/itssahil/PROJECTS/Mol_Feturizer/New_Systems/rnas/2EES

>  <Rbt.Executable>
rbdock ($Id: //depot/dev/client3/rdock/2013.1/src/exe/rbdock.cxx#4 $)

>  <Rbt.Library>
libRbt.so (2013.1, Build901 2013/11/27)

>  <Rbt.Parameter_File>
/export/apps/rDock/src/rDock_2013.1_src/data/scripts/dock_solv.prm

>  <Rbt.Receptor>
prm/pocket_docking_6.prm

>  <SCORE>
-16.5661

>  <SCORE.INTER>
-16.5661

>  <SCORE.INTER.CONST>
1

>  <SCORE.INTER.POLAR>
0

>  <SCORE.INTER.ROT>
0

>  <SCORE.INTER.SOLV>
3.91474

>  <SCORE.INTER.VDW>
-15.949

>  <SCORE.INTER.norm>
-1.65661

>  <SCORE.INTRA>
0

>  <SCORE.INTRA.DIHEDRAL>
0

>  <SCORE.INTRA.DIHEDRAL.0>
0

>  <SCORE.INTRA.POLAR>
0

>  <SCORE.INTRA.POLAR.0>
0

>  <SCORE.INTRA.REPUL>
0

>  <SCORE.INTRA.REPUL.0>
0

>  <SCORE.INTRA.SOLV>
0

>  <SCORE.INTRA.SOLV.lig_0>
-4.28614

>  <SCORE.INTRA.VDW>
0

>  <SCORE.INTRA.VDW.0>
0

>  <SCORE.INTRA.norm>
0

>  <SCORE.RESTR>
0

>  <SCORE.RESTR.CAVITY>
0

>  <SCORE.RESTR.norm>
0

>  <SCORE.SYSTEM>
0

>  <SCORE.SYSTEM.CONST>
0

>  <SCORE.SYSTEM.DIHEDRAL>
0

>  <SCORE.SYSTEM.SOLV>
0

>  <SCORE.SYSTEM.norm>
0

>  <SCORE.heavy>
10

>  <SCORE.norm>
-1.65661

>  <RMSD>
2.937

$$$$
ligand
 OpenBabel11021811423D
libRbt.so/2013.1/901 2013/11/27
 10 11  0  0  0  0  0  0  0  0999 V2000
  -11.4384  -11.2657    5.8517 N   0  0  0  0  0  0  0  0  0  0  0  0
  -11.2299  -12.6359    5.6824 C   0  0  0  0  0  0  0  0  0  0  0  0
  -11.2690  -13.5024    6.7103 N   0  0  0  0  0  0  0  0  0  0  0  0
  -11.5396  -12.8912    7.9313 C   0  0  0  0  0  0  0  0  0  0  0  0
  -11.7540  -11.5368    8.1932 C   0  0  0  0  0  0  0  0  0  0  0  0
  -11.7068  -10.6045    7.0973 C   0  0  0  0  0  0  0  0  0  0  0  0
  -11.8583   -9.4071    7.0687 O   0  0  0  0  0  0  0  0  0  0  0  0
  -12.0014  -11.3755    9.5687 N   0  0  0  0  0  0  0  0  0  0  0  0
  -11.9353  -12.6277   10.0963 C   0  0  0  0  0  0  0  0  0  0  0  0
  -11.6512  -13.5810    9.1084 N   0  0  0  0  0  0  0  0  0  0  0  0
  1  2  1  0  0  0  0
  1  6  1  0  0  0  0
  2  3  2  0  0  0  0
  3  4  1  0  0  0  0
  4  5  2  0  0  0  0
  4 10  1  0  0  0  0
  5  6  1  0  0  0  0
  5  8  1  0  0  0  0
  6  7  2  0  0  0  0
  8  9  1  0  0  0  0
  9 10  2  0  0  0  0
M  END
>  <CHROM.1>
-11.64209369,-11.89571326,7.71559470,-1.25746681,-1.36961516,2.46075206

>  <Name>
ligand

>  <RI>
0

>  <Rbt.Current_Directory>
/home/itssahil/PROJECTS/Mol_Feturizer/New_Systems/rnas/2EES

>  <Rbt.Executable>
rbdock ($Id: //depot/dev/client3/rdock/2013.1/src/exe/rbdock.cxx#4 $)

>  <Rbt.Library>
libRbt.so (2013.1, Build901 2013/11/27)

>  <Rbt.Parameter_File>
/export/apps/rDock/src/rDock_2013.1_src/data/scripts/dock_solv.prm

>  <Rbt.Receptor>
prm/blind_docking_40.prm

>  <SCORE>
-16.5721

>  <SCORE.INTER>
-16.5721

>  <SCORE.INTER.CONST>
1

>  <SCORE.INTER.POLAR>
0

>  <SCORE.INTER.ROT>
0

>  <SCORE.INTER.SOLV>
3.90976

>  <SCORE.INTER.VDW>
-15.9513

>  <SCORE.INTER.norm>
-1.65721

>  <SCORE.INTRA>
0

>  <SCORE.INTRA.DIHEDRAL>
0

>  <SCORE.INTRA.DIHEDRAL.0>
0

>  <SCORE.INTRA.POLAR>
0

>  <SCORE.INTRA.POLAR.0>
0

>  <SCORE.INTRA.REPUL>
0

>  <SCORE.INTRA.REPUL.0>
0

>  <SCORE.INTRA.SOLV>
0

>  <SCORE.INTRA.SOLV.lig_0>
-4.28614

>  <SCORE.INTRA.VDW>
0

>  <SCORE.INTRA.VDW.0>
0

>  <SCORE.INTRA.norm>
0

>  <SCORE.RESTR>
0

>  <SCORE.RESTR.CAVITY>
0

>  <SCORE.RESTR.norm>
0

>  <SCORE.SYSTEM>
0

>  <SCORE.SYSTEM.CONST>
0

>  <SCORE.SYSTEM.DIHEDRAL>
0

>  <SCORE.SYSTEM.SOLV>
0

>  <SCORE.SYSTEM.norm>
0

>  <SCORE.heavy>
10

>  <SCORE.norm>
-1.65721

>  <RMSD>
2.938

$$$$
ligand
 OpenBabel11021811423D
libRbt.so/2013.1/901 2013/11/27
 10 11  0  0  0  0  0  0  0  0999 V2000
  -11.4249  -11.2633    5.8486 N   0  0  0  0  0  0  0  0  0  0  0  0
  -11.2250  -12.6346    5.6777 C   0  0  0  0  0  0  0  0  0  0  0  0
  -11.2724  -13.5024    6.7043 N   0  0  0  0  0  0  0  0  0  0  0  0
  -11.5420  -12.8912    7.9255 C   0  0  0  0  0  0  0  0  0  0  0  0
  -11.7481  -11.5358    8.1889 C   0  0  0  0  0  0  0  0  0  0  0  0
  -11.6920  -10.6022    7.0945 C   0  0  0  0  0  0  0  0  0  0  0  0
  -11.8355   -9.4038    7.0673 O   0  0  0  0  0  0  0  0  0  0  0  0
  -11.9978  -11.3750    9.5640 N   0  0  0  0  0  0  0  0  0  0  0  0
  -11.9413  -12.6283   10.0899 C   0  0  0  0  0  0  0  0  0  0  0  0
  -11.6611  -13.5820    9.1013 N   0  0  0  0  0  0  0  0  0  0  0  0
  1  2  1  0  0  0  0
  1  6  1  0  0  0  0
  2  3  2  0  0  0  0
  3  4  1  0  0  0  0
  4  5  2  0  0  0  0
  4 10  1  0  0  0  0
  5  6  1  0  0  0  0
  5  8  1  0  0  0  0
  6  7  2  0  0  0  0
  8  9  1  0  0  0  0
  9 10  2  0  0  0  0
M  END
>  <CHROM.1>
-11.63738627,-11.89476792,7.71102181,-1.22361531,-1.37172951,2.49541498

>  <Name>
ligand

>  <RI>
0

>  <Rbt.Current_Directory>
/home/itssahil/PROJECTS/Mol_Feturizer/New_Systems/rnas/2EES

>  <Rbt.Executable>
rbdock ($Id: //depot/dev/client3/rdock/2013.1/src/exe/rbdock.cxx#4 $)

>  <Rbt.Library>
libRbt.so (2013.1, Build901 2013/11/27)

>  <Rbt.Parameter_File>
/export/apps/rDock/src/rDock_2013.1_src/data/scripts/dock_solv.prm

>  <Rbt.Receptor>
prm/pocket_docking_8.prm

>  <SCORE>
-16.5638

>  <SCORE.INTER>
-16.5638

>  <SCORE.INTER.CONST>
1

>  <SCORE.INTER.POLAR>
0

>  <SCORE.INTER.ROT>
0

>  <SCORE.INTER.SOLV>
3.93169

>  <SCORE.INTER.VDW>
-15.9531

>  <SCORE.INTER.norm>
-1.65638

>  <SCORE.INTRA>
0

>  <SCORE.INTRA.DIHEDRAL>
0

>  <SCORE.INTRA.DIHEDRAL.0>
0

>  <SCORE.INTRA.POLAR>
0

>  <SCORE.INTRA.POLAR.0>
0

>  <SCORE.INTRA.REPUL>
0

>  <SCORE.INTRA.REPUL.0>
0

>  <SCORE.INTRA.SOLV>
0

>  <SCORE.INTRA.SOLV.lig_0>
-4.28614

>  <SCORE.INTRA.VDW>
0

>  <SCORE.INTRA.VDW.0>
0

>  <SCORE.INTRA.norm>
0

>  <SCORE.RESTR>
0

>  <SCORE.RESTR.CAVITY>
0

>  <SCORE.RESTR.norm>
0

>  <SCORE.SYSTEM>
0

>  <SCORE.SYSTEM.CONST>
0

>  <SCORE.SYSTEM.DIHEDRAL>
0

>  <SCORE.SYSTEM.SOLV>
0

>  <SCORE.SYSTEM.norm>
0

>  <SCORE.heavy>
10

>  <SCORE.norm>
-1.65638

>  <RMSD>
2.938

$$$$
ligand
 OpenBabel11021811423D
libRbt.so/2013.1/901 2013/11/27
 10 11  0  0  0  0  0  0  0  0999 V2000
  -11.1247  -12.7236    5.8635 N   0  0  0  0  0  0  0  0  0  0  0  0
  -11.3965  -13.3437    7.0847 C   0  0  0  0  0  0  0  0  0  0  0  0
  -11.7627  -12.6512    8.1780 N   0  0  0  0  0  0  0  0  0  0  0  0
  -11.8423  -11.2793    7.9555 C   0  0  0  0  0  0  0  0  0  0  0  0
  -11.5841  -10.5765    6.7772 C   0  0  0  0  0  0  0  0  0  0  0  0
  -11.1856  -11.3128    5.6060 C   0  0  0  0  0  0  0  0  0  0  0  0
  -10.9140  -10.9399    4.4903 O   0  0  0  0  0  0  0  0  0  0  0  0
  -11.8016   -9.2064    7.0107 N   0  0  0  0  0  0  0  0  0  0  0  0
  -12.1872   -9.1191    8.3123 C   0  0  0  0  0  0  0  0  0  0  0  0
  -12.2200  -10.3828    8.9185 N   0  0  0  0  0  0  0  0  0  0  0  0
  1  2  1  0  0  0  0
  1  6  1  0  0  0  0
  2  3  2  0  0  0  0
  3  4  1  0  0  0  0
  4  5  2  0  0  0  0
  4 10  1  0  0  0  0
  5  6  1  0  0  0  0
  5  8  1  0  0  0  0
  6  7  2  0  0  0  0
  8  9  1  0  0  0  0
  9 10  2  0  0  0  0
M  END
>  <CHROM.1>
-11.58865665,-11.15236332,6.97186740,0.32206464,-1.27995408,2.78513955

>  <Name>
ligand

>  <RI>
0

>  <Rbt.Current_Directory>
/home/itssahil/PROJECTS/Mol_Feturizer/New_Systems/rnas/2EES

>  <Rbt.Executable>
rbdock ($Id: //depot/dev/client3/rdock/2013.1/src/exe/rbdock.cxx#4 $)

>  <Rbt.Library>
libRbt.so (2013.1, Build901 2013/11/27)

>  <Rbt.Parameter_File>
/export/apps/rDock/src/rDock_2013.1_src/data/scripts/dock_solv.prm

>  <Rbt.Receptor>
prm/blind_docking_20.prm

>  <SCORE>
-15.7139

>  <SCORE.INTER>
-15.7139

>  <SCORE.INTER.CONST>
1

>  <SCORE.INTER.POLAR>
0

>  <SCORE.INTER.ROT>
0

>  <SCORE.INTER.SOLV>
4.78752

>  <SCORE.INTER.VDW>
-15.6718

>  <SCORE.INTER.norm>
-1.57139

>  <SCORE.INTRA>
0

>  <SCORE.INTRA.DIHEDRAL>
0

>  <SCORE.INTRA.DIHEDRAL.0>
0

>  <SCORE.INTRA.POLAR>
0

>  <SCORE.INTRA.POLAR.0>
0

>  <SCORE.INTRA.REPUL>
0

>  <SCORE.INTRA.REPUL.0>
0

>  <SCORE.INTRA.SOLV>
0

>  <SCORE.INTRA.SOLV.lig_0>
-4.28614

>  <SCORE.INTRA.VDW>
0

>  <SCORE.INTRA.VDW.0>
0

>  <SCORE.INTRA.norm>
0

>  <SCORE.RESTR>
1.69444e-05

>  <SCORE.RESTR.CAVITY>
1.69444e-05

>  <SCORE.RESTR.norm>
1.69444e-06

>  <SCORE.SYSTEM>
0

>  <SCORE.SYSTEM.CONST>
0

>  <SCORE.SYSTEM.DIHEDRAL>
0

>  <SCORE.SYSTEM.SOLV>
0

>  <SCORE.SYSTEM.norm>
0

>  <SCORE.heavy>
10

>  <SCORE.norm>
-1.57139

>  <RMSD>
3.106

$$$$
ligand
 OpenBabel11021811423D
libRbt.so/2013.1/901 2013/11/27
 10 11  0  0  0  0  0  0  0  0999 V2000
  -11.1466  -12.7362    5.7973 N   0  0  0  0  0  0  0  0  0  0  0  0
  -11.4325  -13.3680    7.0093 C   0  0  0  0  0  0  0  0  0  0  0  0
  -11.7942  -12.6844    8.1097 N   0  0  0  0  0  0  0  0  0  0  0  0
  -11.8541  -11.3089    7.9044 C   0  0  0  0  0  0  0  0  0  0  0  0
  -11.5810  -10.5948    6.7362 C   0  0  0  0  0  0  0  0  0  0  0  0
  -11.1872  -11.3215    5.5575 C   0  0  0  0  0  0  0  0  0  0  0  0
  -10.9054  -10.9383    4.4479 O   0  0  0  0  0  0  0  0  0  0  0  0
  -11.7810   -9.2249    6.9861 N   0  0  0  0  0  0  0  0  0  0  0  0
  -12.1713   -9.1488    8.2871 C   0  0  0  0  0  0  0  0  0  0  0  0
  -12.2240  -10.4195    8.8770 N   0  0  0  0  0  0  0  0  0  0  0  0
  1  2  1  0  0  0  0
  1  6  1  0  0  0  0
  2  3  2  0  0  0  0
  3  4  1  0  0  0  0
  4  5  2  0  0  0  0
  4 10  1  0  0  0  0
  5  6  1  0  0  0  0
  5  8  1  0  0  0  0
  6  7  2  0  0  0  0
  8  9  1  0  0  0  0
  9 10  2  0  0  0  0
M  END
>  <CHROM.1>
-11.59430054,-11.17292960,6.92352952,0.37205861,-1.28006007,2.84572898

>  <Name>
ligand

>  <RI>
0

>  <Rbt.Current_Directory>
/home/itssahil/PROJECTS/Mol_Feturizer/New_Systems/rnas/2EES

>  <Rbt.Executable>
rbdock ($Id: //depot/dev/client3/rdock/2013.1/src/exe/rbdock.cxx#4 $)

>  <Rbt.Library>
libRbt.so (2013.1, Build901 2013/11/27)

>  <Rbt.Parameter_File>
/export/apps/rDock/src/rDock_2013.1_src/data/scripts/dock_solv.prm

>  <Rbt.Receptor>
prm/blind_docking_20.prm

>  <SCORE>
-15.6835

>  <SCORE.INTER>
-15.6835

>  <SCORE.INTER.CONST>
1

>  <SCORE.INTER.POLAR>
0

>  <SCORE.INTER.ROT>
0

>  <SCORE.INTER.SOLV>
4.81351

>  <SCORE.INTER.VDW>
-15.6602

>  <SCORE.INTER.norm>
-1.56835

>  <SCORE.INTRA>
0

>  <SCORE.INTRA.DIHEDRAL>
0

>  <SCORE.INTRA.DIHEDRAL.0>
0

>  <SCORE.INTRA.POLAR>
0

>  <SCORE.INTRA.POLAR.0>
0

>  <SCORE.INTRA.REPUL>
0

>  <SCORE.INTRA.REPUL.0>
0

>  <SCORE.INTRA.SOLV>
0

>  <SCORE.INTRA.SOLV.lig_0>
-4.28614

>  <SCORE.INTRA.VDW>
0

>  <SCORE.INTRA.VDW.0>
0

>  <SCORE.INTRA.norm>
0

>  <SCORE.RESTR>
0

>  <SCORE.RESTR.CAVITY>
0

>  <SCORE.RESTR.norm>
0

>  <SCORE.SYSTEM>
0

>  <SCORE.SYSTEM.CONST>
0

>  <SCORE.SYSTEM.DIHEDRAL>
0

>  <SCORE.SYSTEM.SOLV>
0

>  <SCORE.SYSTEM.norm>
0

>  <SCORE.heavy>
10

>  <SCORE.norm>
-1.56835

>  <RMSD>
3.113

$$$$
ligand
 OpenBabel11021811423D
libRbt.so/2013.1/901 2013/11/27
 10 11  0  0  0  0  0  0  0  0999 V2000
  -11.1397  -12.7061    5.7430 N   0  0  0  0  0  0  0  0  0  0  0  0
  -11.4226  -13.3587    6.9445 C   0  0  0  0  0  0  0  0  0  0  0  0
  -11.7843  -12.6945    8.0568 N   0  0  0  0  0  0  0  0  0  0  0  0
  -11.8473  -11.3159    7.8747 C   0  0  0  0  0  0  0  0  0  0  0  0
  -11.5772  -10.5816    6.7185 C   0  0  0  0  0  0  0  0  0  0  0  0
  -11.1835  -11.2876    5.5272 C   0  0  0  0  0  0  0  0  0  0  0  0
  -10.9039  -10.8851    4.4238 O   0  0  0  0  0  0  0  0  0  0  0  0
  -11.7797   -9.2166    6.9917 N   0  0  0  0  0  0  0  0  0  0  0  0
  -12.1685   -9.1632    8.2942 C   0  0  0  0  0  0  0  0  0  0  0  0
  -12.2178  -10.4438    8.8627 N   0  0  0  0  0  0  0  0  0  0  0  0
  1  2  1  0  0  0  0
  1  6  1  0  0  0  0
  2  3  2  0  0  0  0
  3  4  1  0  0  0  0
  4  5  2  0  0  0  0
  4 10  1  0  0  0  0
  5  6  1  0  0  0  0
  5  8  1  0  0  0  0
  6  7  2  0  0  0  0
  8  9  1  0  0  0  0
  9 10  2  0  0  0  0
M  END
>  <CHROM.1>
-11.58908681,-11.16289290,6.89600861,0.36385757,-1.28068892,2.85473049

>  <Name>
ligand

>  <RI>
0

>  <Rbt.Current_Directory>
/home/itssahil/PROJECTS/Mol_Feturizer/New_Systems/rnas/2EES

>  <Rbt.Executable>
rbdock ($Id: //depot/dev/client3/rdock/2013.1/src/exe/rbdock.cxx#4 $)

>  <Rbt.Library>
libRbt.so (2013.1, Build901 2013/11/27)

>  <Rbt.Parameter_File>
/export/apps/rDock/src/rDock_2013.1_src/data/scripts/dock_solv.prm

>  <Rbt.Receptor>
prm/blind_docking_20.prm

>  <SCORE>
-15.6905

>  <SCORE.INTER>
-15.6905

>  <SCORE.INTER.CONST>
1

>  <SCORE.INTER.POLAR>
0

>  <SCORE.INTER.ROT>
0

>  <SCORE.INTER.SOLV>
4.84443

>  <SCORE.INTER.VDW>
-15.6751

>  <SCORE.INTER.norm>
-1.56905

>  <SCORE.INTRA>
0

>  <SCORE.INTRA.DIHEDRAL>
0

>  <SCORE.INTRA.DIHEDRAL.0>
0

>  <SCORE.INTRA.POLAR>
0

>  <SCORE.INTRA.POLAR.0>
0

>  <SCORE.INTRA.REPUL>
0

>  <SCORE.INTRA.REPUL.0>
0

>  <SCORE.INTRA.SOLV>
0

>  <SCORE.INTRA.SOLV.lig_0>
-4.28614

>  <SCORE.INTRA.VDW>
0

>  <SCORE.INTRA.VDW.0>
0

>  <SCORE.INTRA.norm>
0

>  <SCORE.RESTR>
0

>  <SCORE.RESTR.CAVITY>
0

>  <SCORE.RESTR.norm>
0

>  <SCORE.SYSTEM>
0

>  <SCORE.SYSTEM.CONST>
0

>  <SCORE.SYSTEM.DIHEDRAL>
0

>  <SCORE.SYSTEM.SOLV>
0

>  <SCORE.SYSTEM.norm>
0

>  <SCORE.heavy>
10

>  <SCORE.norm>
-1.56905

>  <RMSD>
3.122

$$$$
ligand
 OpenBabel11021811423D
libRbt.so/2013.1/901 2013/11/27
 10 11  0  0  0  0  0  0  0  0999 V2000
  -11.0868  -12.7896    5.4037 N   0  0  0  0  0  0  0  0  0  0  0  0
  -11.3750  -13.5542    6.5359 C   0  0  0  0  0  0  0  0  0  0  0  0
  -11.7522  -13.0001    7.7019 N   0  0  0  0  0  0  0  0  0  0  0  0
  -11.8252  -11.6110    7.6494 C   0  0  0  0  0  0  0  0  0  0  0  0
  -11.5510  -10.7694    6.5697 C   0  0  0  0  0  0  0  0  0  0  0  0
  -11.1407  -11.3575    5.3213 C   0  0  0  0  0  0  0  0  0  0  0  0
  -10.8547  -10.8512    4.2633 O   0  0  0  0  0  0  0  0  0  0  0  0
  -11.7674   -9.4376    6.9677 N   0  0  0  0  0  0  0  0  0  0  0  0
  -12.1682   -9.5097    8.2657 C   0  0  0  0  0  0  0  0  0  0  0  0
  -12.2118  -10.8383    8.7111 N   0  0  0  0  0  0  0  0  0  0  0  0
  1  2  1  0  0  0  0
  1  6  1  0  0  0  0
  2  3  2  0  0  0  0
  3  4  1  0  0  0  0
  4  5  2  0  0  0  0
  4 10  1  0  0  0  0
  5  6  1  0  0  0  0
  5  8  1  0  0  0  0
  6  7  2  0  0  0  0
  8  9  1  0  0  0  0
  9 10  2  0  0  0  0
M  END
>  <CHROM.1>
-11.55951594,-11.36486991,6.69182976,0.34507033,-1.26970578,2.93068977

>  <Name>
ligand

>  <RI>
0

>  <Rbt.Current_Directory>
/home/itssahil/PROJECTS/Mol_Feturizer/New_Systems/rnas/2EES

>  <Rbt.Executable>
rbdock ($Id: //depot/dev/client3/rdock/2013.1/src/exe/rbdock.cxx#4 $)

>  <Rbt.Library>
libRbt.so (2013.1, Build901 2013/11/27)

>  <Rbt.Parameter_File>
/export/apps/rDock/src/rDock_2013.1_src/data/scripts/dock_solv.prm

>  <Rbt.Receptor>
prm/blind_docking_20.prm

>  <SCORE>
-15.8549

>  <SCORE.INTER>
-15.8551

>  <SCORE.INTER.CONST>
1

>  <SCORE.INTER.POLAR>
0

>  <SCORE.INTER.ROT>
0

>  <SCORE.INTER.SOLV>
4.83473

>  <SCORE.INTER.VDW>
-15.7816

>  <SCORE.INTER.norm>
-1.58551

>  <SCORE.INTRA>
0

>  <SCORE.INTRA.DIHEDRAL>
0

>  <SCORE.INTRA.DIHEDRAL.0>
0

>  <SCORE.INTRA.POLAR>
0

>  <SCORE.INTRA.POLAR.0>
0

>  <SCORE.INTRA.REPUL>
0

>  <SCORE.INTRA.REPUL.0>
0

>  <SCORE.INTRA.SOLV>
0

>  <SCORE.INTRA.SOLV.lig_0>
-4.28614

>  <SCORE.INTRA.VDW>
0

>  <SCORE.INTRA.VDW.0>
0

>  <SCORE.INTRA.norm>
0

>  <SCORE.RESTR>
0.000179661

>  <SCORE.RESTR.CAVITY>
0.000179661

>  <SCORE.RESTR.norm>
1.79661e-05

>  <SCORE.SYSTEM>
0

>  <SCORE.SYSTEM.CONST>
0

>  <SCORE.SYSTEM.DIHEDRAL>
0

>  <SCORE.SYSTEM.SOLV>
0

>  <SCORE.SYSTEM.norm>
0

>  <SCORE.heavy>
10

>  <SCORE.norm>
-1.58549

>  <RMSD>
3.152

$$$$
ligand
 OpenBabel11021811423D
libRbt.so/2013.1/901 2013/11/27
 10 11  0  0  0  0  0  0  0  0999 V2000
  -11.0946  -12.8146    5.3983 N   0  0  0  0  0  0  0  0  0  0  0  0
  -11.3827  -13.5678    6.5381 C   0  0  0  0  0  0  0  0  0  0  0  0
  -11.7563  -13.0017    7.6996 N   0  0  0  0  0  0  0  0  0  0  0  0
  -11.8255  -11.6130    7.6342 C   0  0  0  0  0  0  0  0  0  0  0  0
  -11.5510  -10.7824    6.5462 C   0  0  0  0  0  0  0  0  0  0  0  0
  -11.1446  -11.3832    5.3026 C   0  0  0  0  0  0  0  0  0  0  0  0
  -10.8592  -10.8876    4.2394 O   0  0  0  0  0  0  0  0  0  0  0  0
  -11.7630   -9.4462    6.9321 N   0  0  0  0  0  0  0  0  0  0  0  0
  -12.1616   -9.5051    8.2314 C   0  0  0  0  0  0  0  0  0  0  0  0
  -12.2080  -10.8293    8.6893 N   0  0  0  0  0  0  0  0  0  0  0  0
  1  2  1  0  0  0  0
  1  6  1  0  0  0  0
  2  3  2  0  0  0  0
  3  4  1  0  0  0  0
  4  5  2  0  0  0  0
  4 10  1  0  0  0  0
  5  6  1  0  0  0  0
  5  8  1  0  0  0  0
  6  7  2  0  0  0  0
  8  9  1  0  0  0  0
  9 10  2  0  0  0  0
M  END
>  <CHROM.1>
-11.56097115,-11.37659200,6.67390991,0.35291561,-1.27208029,2.92881999

>  <Name>
ligand

>  <RI>
0

>  <Rbt.Current_Directory>
/home/itssahil/PROJECTS/Mol_Feturizer/New_Systems/rnas/2EES

>  <Rbt.Executable>
rbdock ($Id: //depot/dev/client3/rdock/2013.1/src/exe/rbdock.cxx#4 $)

>  <Rbt.Library>
libRbt.so (2013.1, Build901 2013/11/27)

>  <Rbt.Parameter_File>
/export/apps/rDock/src/rDock_2013.1_src/data/scripts/dock_solv.prm

>  <Rbt.Receptor>
prm/blind_docking_20.prm

>  <SCORE>
-15.9026

>  <SCORE.INTER>
-15.9026

>  <SCORE.INTER.CONST>
1

>  <SCORE.INTER.POLAR>
0

>  <SCORE.INTER.ROT>
0

>  <SCORE.INTER.SOLV>
4.835

>  <SCORE.INTER.VDW>
-15.8134

>  <SCORE.INTER.norm>
-1.59026

>  <SCORE.INTRA>
0

>  <SCORE.INTRA.DIHEDRAL>
0

>  <SCORE.INTRA.DIHEDRAL.0>
0

>  <SCORE.INTRA.POLAR>
0

>  <SCORE.INTRA.POLAR.0>
0

>  <SCORE.INTRA.REPUL>
0

>  <SCORE.INTRA.REPUL.0>
0

>  <SCORE.INTRA.SOLV>
0

>  <SCORE.INTRA.SOLV.lig_0>
-4.28614

>  <SCORE.INTRA.VDW>
0

>  <SCORE.INTRA.VDW.0>
0

>  <SCORE.INTRA.norm>
0

>  <SCORE.RESTR>
0

>  <SCORE.RESTR.CAVITY>
0

>  <SCORE.RESTR.norm>
0

>  <SCORE.SYSTEM>
0

>  <SCORE.SYSTEM.CONST>
0

>  <SCORE.SYSTEM.DIHEDRAL>
0

>  <SCORE.SYSTEM.SOLV>
0

>  <SCORE.SYSTEM.norm>
0

>  <SCORE.heavy>
10

>  <SCORE.norm>
-1.59026

>  <RMSD>
3.154

$$$$
ligand
 OpenBabel11021811423D
libRbt.so/2013.1/901 2013/11/27
 10 11  0  0  0  0  0  0  0  0999 V2000
  -11.0959  -12.8102    5.3875 N   0  0  0  0  0  0  0  0  0  0  0  0
  -11.3797  -13.5671    6.5259 C   0  0  0  0  0  0  0  0  0  0  0  0
  -11.7493  -13.0049    7.6906 N   0  0  0  0  0  0  0  0  0  0  0  0
  -11.8193  -11.6160    7.6298 C   0  0  0  0  0  0  0  0  0  0  0  0
  -11.5490  -10.7818    6.5435 C   0  0  0  0  0  0  0  0  0  0  0  0
  -11.1469  -11.3785    5.2966 C   0  0  0  0  0  0  0  0  0  0  0  0
  -10.8654  -10.8794    4.2339 O   0  0  0  0  0  0  0  0  0  0  0  0
  -11.7602   -9.4470    6.9345 N   0  0  0  0  0  0  0  0  0  0  0  0
  -12.1541   -9.5101    8.2350 C   0  0  0  0  0  0  0  0  0  0  0  0
  -12.1984  -10.8359    8.6888 N   0  0  0  0  0  0  0  0  0  0  0  0
  1  2  1  0  0  0  0
  1  6  1  0  0  0  0
  2  3  2  0  0  0  0
  3  4  1  0  0  0  0
  4  5  2  0  0  0  0
  4 10  1  0  0  0  0
  5  6  1  0  0  0  0
  5  8  1  0  0  0  0
  6  7  2  0  0  0  0
  8  9  1  0  0  0  0
  9 10  2  0  0  0  0
M  END
>  <CHROM.1>
-11.55829540,-11.37642503,6.66935481,0.34902856,-1.27548974,2.92831385

>  <Name>
ligand

>  <RI>
0

>  <Rbt.Current_Directory>
/home/itssahil/PROJECTS/Mol_Feturizer/New_Systems/rnas/2EES

>  <Rbt.Executable>
rbdock ($Id: //depot/dev/client3/rdock/2013.1/src/exe/rbdock.cxx#4 $)

>  <Rbt.Library>
libRbt.so (2013.1, Build901 2013/11/27)

>  <Rbt.Parameter_File>
/export/apps/rDock/src/rDock_2013.1_src/data/scripts/dock_solv.prm

>  <Rbt.Receptor>
prm/blind_docking_20.prm

>  <SCORE>
-15.9086

>  <SCORE.INTER>
-15.9086

>  <SCORE.INTER.CONST>
1

>  <SCORE.INTER.POLAR>
0

>  <SCORE.INTER.ROT>
0

>  <SCORE.INTER.SOLV>
4.84526

>  <SCORE.INTER.VDW>
-15.8208

>  <SCORE.INTER.norm>
-1.59086

>  <SCORE.INTRA>
0

>  <SCORE.INTRA.DIHEDRAL>
0

>  <SCORE.INTRA.DIHEDRAL.0>
0

>  <SCORE.INTRA.POLAR>
0

>  <SCORE.INTRA.POLAR.0>
0

>  <SCORE.INTRA.REPUL>
0

>  <SCORE.INTRA.REPUL.0>
0

>  <SCORE.INTRA.SOLV>
0

>  <SCORE.INTRA.SOLV.lig_0>
-4.28614

>  <SCORE.INTRA.VDW>
0

>  <SCORE.INTRA.VDW.0>
0

>  <SCORE.INTRA.norm>
0

>  <SCORE.RESTR>
0

>  <SCORE.RESTR.CAVITY>
0

>  <SCORE.RESTR.norm>
0

>  <SCORE.SYSTEM>
0

>  <SCORE.SYSTEM.CONST>
0

>  <SCORE.SYSTEM.DIHEDRAL>
0

>  <SCORE.SYSTEM.SOLV>
0

>  <SCORE.SYSTEM.norm>
0

>  <SCORE.heavy>
10

>  <SCORE.norm>
-1.59086

>  <RMSD>
3.155

$$$$
ligand
 OpenBabel11021811423D
libRbt.so/2013.1/901 2013/11/27
 10 11  0  0  0  0  0  0  0  0999 V2000
  -11.0991  -12.8159    5.3869 N   0  0  0  0  0  0  0  0  0  0  0  0
  -11.3879  -13.5717    6.5249 C   0  0  0  0  0  0  0  0  0  0  0  0
  -11.7547  -13.0077    7.6896 N   0  0  0  0  0  0  0  0  0  0  0  0
  -11.8165  -11.6184    7.6294 C   0  0  0  0  0  0  0  0  0  0  0  0
  -11.5406  -10.7853    6.5436 C   0  0  0  0  0  0  0  0  0  0  0  0
  -11.1414  -11.3839    5.2966 C   0  0  0  0  0  0  0  0  0  0  0  0
  -10.8565  -10.8861    4.2343 O   0  0  0  0  0  0  0  0  0  0  0  0
  -11.7440   -9.4495    6.9350 N   0  0  0  0  0  0  0  0  0  0  0  0
  -12.1389   -9.5108    8.2353 C   0  0  0  0  0  0  0  0  0  0  0  0
  -12.1913  -10.8364    8.6886 N   0  0  0  0  0  0  0  0  0  0  0  0
  1  2  1  0  0  0  0
  1  6  1  0  0  0  0
  2  3  2  0  0  0  0
  3  4  1  0  0  0  0
  4  5  2  0  0  0  0
  4 10  1  0  0  0  0
  5  6  1  0  0  0  0
  5  8  1  0  0  0  0
  6  7  2  0  0  0  0
  8  9  1  0  0  0  0
  9 10  2  0  0  0  0
M  END
>  <CHROM.1>
-11.55352065,-11.37996258,6.66917850,0.36946162,-1.27622293,2.94826274

>  <Name>
ligand

>  <RI>
0

>  <Rbt.Current_Directory>
/home/itssahil/PROJECTS/Mol_Feturizer/New_Systems/rnas/2EES

>  <Rbt.Executable>
rbdock ($Id: //depot/dev/client3/rdock/2013.1/src/exe/rbdock.cxx#4 $)

>  <Rbt.Library>
libRbt.so (2013.1, Build901 2013/11/27)

>  <Rbt.Parameter_File>
/export/apps/rDock/src/rDock_2013.1_src/data/scripts/dock_solv.prm

>  <Rbt.Receptor>
prm/blind_docking_20.prm

>  <SCORE>
-15.8983

>  <SCORE.INTER>
-15.8983

>  <SCORE.INTER.CONST>
1

>  <SCORE.INTER.POLAR>
0

>  <SCORE.INTER.ROT>
0

>  <SCORE.INTER.SOLV>
4.85065

>  <SCORE.INTER.VDW>
-15.8158

>  <SCORE.INTER.norm>
-1.58983

>  <SCORE.INTRA>
0

>  <SCORE.INTRA.DIHEDRAL>
0

>  <SCORE.INTRA.DIHEDRAL.0>
0

>  <SCORE.INTRA.POLAR>
0

>  <SCORE.INTRA.POLAR.0>
0

>  <SCORE.INTRA.REPUL>
0

>  <SCORE.INTRA.REPUL.0>
0

>  <SCORE.INTRA.SOLV>
0

>  <SCORE.INTRA.SOLV.lig_0>
-4.28614

>  <SCORE.INTRA.VDW>
0

>  <SCORE.INTRA.VDW.0>
0

>  <SCORE.INTRA.norm>
0

>  <SCORE.RESTR>
0

>  <SCORE.RESTR.CAVITY>
0

>  <SCORE.RESTR.norm>
0

>  <SCORE.SYSTEM>
0

>  <SCORE.SYSTEM.CONST>
0

>  <SCORE.SYSTEM.DIHEDRAL>
0

>  <SCORE.SYSTEM.SOLV>
0

>  <SCORE.SYSTEM.norm>
0

>  <SCORE.heavy>
10

>  <SCORE.norm>
-1.58983

>  <RMSD>
3.155

$$$$
ligand
 OpenBabel11021811423D
libRbt.so/2013.1/901 2013/11/27
 10 11  0  0  0  0  0  0  0  0999 V2000
  -11.0864  -12.7983    5.3822 N   0  0  0  0  0  0  0  0  0  0  0  0
  -11.3672  -13.5609    6.5176 C   0  0  0  0  0  0  0  0  0  0  0  0
  -11.7423  -13.0051    7.6835 N   0  0  0  0  0  0  0  0  0  0  0  0
  -11.8213  -11.6164    7.6274 C   0  0  0  0  0  0  0  0  0  0  0  0
  -11.5546  -10.7768    6.5443 C   0  0  0  0  0  0  0  0  0  0  0  0
  -11.1465  -11.3666    5.2961 C   0  0  0  0  0  0  0  0  0  0  0  0
  -10.8666  -10.8621    4.2356 O   0  0  0  0  0  0  0  0  0  0  0  0
  -11.7750   -9.4447    6.9395 N   0  0  0  0  0  0  0  0  0  0  0  0
  -12.1707   -9.5149    8.2392 C   0  0  0  0  0  0  0  0  0  0  0  0
  -12.2071  -10.8424    8.6884 N   0  0  0  0  0  0  0  0  0  0  0  0
  1  2  1  0  0  0  0
  1  6  1  0  0  0  0
  2  3  2  0  0  0  0
  3  4  1  0  0  0  0
  4  5  2  0  0  0  0
  4 10  1  0  0  0  0
  5  6  1  0  0  0  0
  5  8  1  0  0  0  0
  6  7  2  0  0  0  0
  8  9  1  0  0  0  0
  9 10  2  0  0  0  0
M  END
>  <CHROM.1>
-11.56020712,-11.37191403,6.66817503,0.32868759,-1.27243734,2.91225664

>  <Name>
ligand

>  <RI>
0

>  <Rbt.Current_Directory>
/home/itssahil/PROJECTS/Mol_Feturizer/New_Systems/rnas/2EES

>  <Rbt.Executable>
rbdock ($Id: //depot/dev/client3/rdock/2013.1/src/exe/rbdock.cxx#4 $)

>  <Rbt.Library>
libRbt.so (2013.1, Build901 2013/11/27)

>  <Rbt.Parameter_File>
/export/apps/rDock/src/rDock_2013.1_src/data/scripts/dock_solv.prm

>  <Rbt.Receptor>
prm/blind_docking_20.prm

>  <SCORE>
-15.8751

>  <SCORE.INTER>
-15.8751

>  <SCORE.INTER.CONST>
1

>  <SCORE.INTER.POLAR>
0

>  <SCORE.INTER.ROT>
0

>  <SCORE.INTER.SOLV>
4.83683

>  <SCORE.INTER.VDW>
-15.7957

>  <SCORE.INTER.norm>
-1.58751

>  <SCORE.INTRA>
0

>  <SCORE.INTRA.DIHEDRAL>
0

>  <SCORE.INTRA.DIHEDRAL.0>
0

>  <SCORE.INTRA.POLAR>
0

>  <SCORE.INTRA.POLAR.0>
0

>  <SCORE.INTRA.REPUL>
0

>  <SCORE.INTRA.REPUL.0>
0

>  <SCORE.INTRA.SOLV>
0

>  <SCORE.INTRA.SOLV.lig_0>
-4.28614

>  <SCORE.INTRA.VDW>
0

>  <SCORE.INTRA.VDW.0>
0

>  <SCORE.INTRA.norm>
0

>  <SCORE.RESTR>
0

>  <SCORE.RESTR.CAVITY>
0

>  <SCORE.RESTR.norm>
0

>  <SCORE.SYSTEM>
0

>  <SCORE.SYSTEM.CONST>
0

>  <SCORE.SYSTEM.DIHEDRAL>
0

>  <SCORE.SYSTEM.SOLV>
0

>  <SCORE.SYSTEM.norm>
0

>  <SCORE.heavy>
10

>  <SCORE.norm>
-1.58751

>  <RMSD>
3.156

$$$$
ligand
 OpenBabel11021811423D
libRbt.so/2013.1/901 2013/11/27
 10 11  0  0  0  0  0  0  0  0999 V2000
  -11.0860  -12.7992    5.3797 N   0  0  0  0  0  0  0  0  0  0  0  0
  -11.3623  -13.5584    6.5185 C   0  0  0  0  0  0  0  0  0  0  0  0
  -11.7294  -12.9988    7.6852 N   0  0  0  0  0  0  0  0  0  0  0  0
  -11.8051  -11.6101    7.6261 C   0  0  0  0  0  0  0  0  0  0  0  0
  -11.5424  -10.7738    6.5395 C   0  0  0  0  0  0  0  0  0  0  0  0
  -11.1429  -11.3676    5.2905 C   0  0  0  0  0  0  0  0  0  0  0  0
  -10.8677  -10.8664    4.2271 O   0  0  0  0  0  0  0  0  0  0  0  0
  -11.7572   -9.4402    6.9327 N   0  0  0  0  0  0  0  0  0  0  0  0
  -12.1457   -9.5062    8.2348 C   0  0  0  0  0  0  0  0  0  0  0  0
  -12.1830  -10.8325    8.6874 N   0  0  0  0  0  0  0  0  0  0  0  0
  1  2  1  0  0  0  0
  1  6  1  0  0  0  0
  2  3  2  0  0  0  0
  3  4  1  0  0  0  0
  4  5  2  0  0  0  0
  4 10  1  0  0  0  0
  5  6  1  0  0  0  0
  5  8  1  0  0  0  0
  6  7  2  0  0  0  0
  8  9  1  0  0  0  0
  9 10  2  0  0  0  0
M  END
>  <CHROM.1>
-11.54883856,-11.36854433,6.66484770,0.33285737,-1.27852844,2.91382951

>  <Name>
ligand

>  <RI>
0

>  <Rbt.Current_Directory>
/home/itssahil/PROJECTS/Mol_Feturizer/New_Systems/rnas/2EES

>  <Rbt.Executable>
rbdock ($Id: //depot/dev/client3/rdock/2013.1/src/exe/rbdock.cxx#4 $)

>  <Rbt.Library>
libRbt.so (2013.1, Build901 2013/11/27)

>  <Rbt.Parameter_File>
/export/apps/rDock/src/rDock_2013.1_src/data/scripts/dock_solv.prm

>  <Rbt.Receptor>
prm/blind_docking_20.prm

>  <SCORE>
-15.8783

>  <SCORE.INTER>
-15.8783

>  <SCORE.INTER.CONST>
1

>  <SCORE.INTER.POLAR>
0

>  <SCORE.INTER.ROT>
0

>  <SCORE.INTER.SOLV>
4.8555

>  <SCORE.INTER.VDW>
-15.804

>  <SCORE.INTER.norm>
-1.58783

>  <SCORE.INTRA>
0

>  <SCORE.INTRA.DIHEDRAL>
0

>  <SCORE.INTRA.DIHEDRAL.0>
0

>  <SCORE.INTRA.POLAR>
0

>  <SCORE.INTRA.POLAR.0>
0

>  <SCORE.INTRA.REPUL>
0

>  <SCORE.INTRA.REPUL.0>
0

>  <SCORE.INTRA.SOLV>
0

>  <SCORE.INTRA.SOLV.lig_0>
-4.28614

>  <SCORE.INTRA.VDW>
0

>  <SCORE.INTRA.VDW.0>
0

>  <SCORE.INTRA.norm>
0

>  <SCORE.RESTR>
0

>  <SCORE.RESTR.CAVITY>
0

>  <SCORE.RESTR.norm>
0

>  <SCORE.SYSTEM>
0

>  <SCORE.SYSTEM.CONST>
0

>  <SCORE.SYSTEM.DIHEDRAL>
0

>  <SCORE.SYSTEM.SOLV>
0

>  <SCORE.SYSTEM.norm>
0

>  <SCORE.heavy>
10

>  <SCORE.norm>
-1.58783

>  <RMSD>
3.157

$$$$
ligand
 OpenBabel11021811423D
libRbt.so/2013.1/901 2013/11/27
 10 11  0  0  0  0  0  0  0  0999 V2000
  -11.0849  -12.8072    5.3797 N   0  0  0  0  0  0  0  0  0  0  0  0
  -11.3689  -13.5620    6.5195 C   0  0  0  0  0  0  0  0  0  0  0  0
  -11.7331  -12.9973    7.6846 N   0  0  0  0  0  0  0  0  0  0  0  0
  -11.7974  -11.6081    7.6229 C   0  0  0  0  0  0  0  0  0  0  0  0
  -11.5264  -10.7759    6.5352 C   0  0  0  0  0  0  0  0  0  0  0  0
  -11.1300  -11.3753    5.2877 C   0  0  0  0  0  0  0  0  0  0  0  0
  -10.8493  -10.8783    4.2239 O   0  0  0  0  0  0  0  0  0  0  0  0
  -11.7308   -9.4399    6.9256 N   0  0  0  0  0  0  0  0  0  0  0  0
  -12.1216   -9.5004    8.2272 C   0  0  0  0  0  0  0  0  0  0  0  0
  -12.1704  -10.8255    8.6822 N   0  0  0  0  0  0  0  0  0  0  0  0
  1  2  1  0  0  0  0
  1  6  1  0  0  0  0
  2  3  2  0  0  0  0
  3  4  1  0  0  0  0
  4  5  2  0  0  0  0
  4 10  1  0  0  0  0
  5  6  1  0  0  0  0
  5  8  1  0  0  0  0
  6  7  2  0  0  0  0
  8  9  1  0  0  0  0
  9 10  2  0  0  0  0
M  END
>  <CHROM.1>
-11.53785771,-11.37042601,6.66156396,0.36152268,-1.27891756,2.93945178

>  <Name>
ligand

>  <RI>
0

>  <Rbt.Current_Directory>
/home/itssahil/PROJECTS/Mol_Feturizer/New_Systems/rnas/2EES

>  <Rbt.Executable>
rbdock ($Id: //depot/dev/client3/rdock/2013.1/src/exe/rbdock.cxx#4 $)

>  <Rbt.Library>
libRbt.so (2013.1, Build901 2013/11/27)

>  <Rbt.Parameter_File>
/export/apps/rDock/src/rDock_2013.1_src/data/scripts/dock_solv.prm

>  <Rbt.Receptor>
prm/blind_docking_20.prm

>  <SCORE>
-15.8571

>  <SCORE.INTER>
-15.8571

>  <SCORE.INTER.CONST>
1

>  <SCORE.INTER.POLAR>
0

>  <SCORE.INTER.ROT>
0

>  <SCORE.INTER.SOLV>
4.86243

>  <SCORE.INTER.VDW>
-15.7922

>  <SCORE.INTER.norm>
-1.58571

>  <SCORE.INTRA>
0

>  <SCORE.INTRA.DIHEDRAL>
0

>  <SCORE.INTRA.DIHEDRAL.0>
0

>  <SCORE.INTRA.POLAR>
0

>  <SCORE.INTRA.POLAR.0>
0

>  <SCORE.INTRA.REPUL>
0

>  <SCORE.INTRA.REPUL.0>
0

>  <SCORE.INTRA.SOLV>
0

>  <SCORE.INTRA.SOLV.lig_0>
-4.28614

>  <SCORE.INTRA.VDW>
0

>  <SCORE.INTRA.VDW.0>
0

>  <SCORE.INTRA.norm>
0

>  <SCORE.RESTR>
0

>  <SCORE.RESTR.CAVITY>
0

>  <SCORE.RESTR.norm>
0

>  <SCORE.SYSTEM>
0

>  <SCORE.SYSTEM.CONST>
0

>  <SCORE.SYSTEM.DIHEDRAL>
0

>  <SCORE.SYSTEM.SOLV>
0

>  <SCORE.SYSTEM.norm>
0

>  <SCORE.heavy>
10

>  <SCORE.norm>
-1.58571

>  <RMSD>
3.158

$$$$
ligand
 OpenBabel11021811423D
libRbt.so/2013.1/901 2013/11/27
 10 11  0  0  0  0  0  0  0  0999 V2000
  -11.0806  -12.7998    5.3716 N   0  0  0  0  0  0  0  0  0  0  0  0
  -11.3572  -13.5583    6.5107 C   0  0  0  0  0  0  0  0  0  0  0  0
  -11.7202  -12.9977    7.6782 N   0  0  0  0  0  0  0  0  0  0  0  0
  -11.7914  -11.6087    7.6195 C   0  0  0  0  0  0  0  0  0  0  0  0
  -11.5280  -10.7730    6.5327 C   0  0  0  0  0  0  0  0  0  0  0  0
  -11.1328  -11.3680    5.2827 C   0  0  0  0  0  0  0  0  0  0  0  0
  -10.8580  -10.8675    4.2190 O   0  0  0  0  0  0  0  0  0  0  0  0
  -11.7376   -9.4388    6.9265 N   0  0  0  0  0  0  0  0  0  0  0  0
  -12.1238   -9.5038    8.2293 C   0  0  0  0  0  0  0  0  0  0  0  0
  -12.1647  -10.8301    8.6817 N   0  0  0  0  0  0  0  0  0  0  0  0
  1  2  1  0  0  0  0
  1  6  1  0  0  0  0
  2  3  2  0  0  0  0
  3  4  1  0  0  0  0
  4  5  2  0  0  0  0
  4 10  1  0  0  0  0
  5  6  1  0  0  0  0
  5  8  1  0  0  0  0
  6  7  2  0  0  0  0
  8  9  1  0  0  0  0
  9 10  2  0  0  0  0
M  END
>  <CHROM.1>
-11.53618908,-11.36782523,6.65787097,0.34268614,-1.28111609,2.92344432

>  <Name>
ligand

>  <RI>
0

>  <Rbt.Current_Directory>
/home/itssahil/PROJECTS/Mol_Feturizer/New_Systems/rnas/2EES

>  <Rbt.Executable>
rbdock ($Id: //depot/dev/client3/rdock/2013.1/src/exe/rbdock.cxx#4 $)

>  <Rbt.Library>
libRbt.so (2013.1, Build901 2013/11/27)

>  <Rbt.Parameter_File>
/export/apps/rDock/src/rDock_2013.1_src/data/scripts/dock_solv.prm

>  <Rbt.Receptor>
prm/blind_docking_20.prm

>  <SCORE>
-15.8646

>  <SCORE.INTER>
-15.8646

>  <SCORE.INTER.CONST>
1

>  <SCORE.INTER.POLAR>
0

>  <SCORE.INTER.ROT>
0

>  <SCORE.INTER.SOLV>
4.86639

>  <SCORE.INTER.VDW>
-15.7985

>  <SCORE.INTER.norm>
-1.58646

>  <SCORE.INTRA>
0

>  <SCORE.INTRA.DIHEDRAL>
0

>  <SCORE.INTRA.DIHEDRAL.0>
0

>  <SCORE.INTRA.POLAR>
0

>  <SCORE.INTRA.POLAR.0>
0

>  <SCORE.INTRA.REPUL>
0

>  <SCORE.INTRA.REPUL.0>
0

>  <SCORE.INTRA.SOLV>
0

>  <SCORE.INTRA.SOLV.lig_0>
-4.28614

>  <SCORE.INTRA.VDW>
0

>  <SCORE.INTRA.VDW.0>
0

>  <SCORE.INTRA.norm>
0

>  <SCORE.RESTR>
0

>  <SCORE.RESTR.CAVITY>
0

>  <SCORE.RESTR.norm>
0

>  <SCORE.SYSTEM>
0

>  <SCORE.SYSTEM.CONST>
0

>  <SCORE.SYSTEM.DIHEDRAL>
0

>  <SCORE.SYSTEM.SOLV>
0

>  <SCORE.SYSTEM.norm>
0

>  <SCORE.heavy>
10

>  <SCORE.norm>
-1.58646

>  <RMSD>
3.159

$$$$
ligand
 OpenBabel11021811423D
libRbt.so/2013.1/901 2013/11/27
 10 11  0  0  0  0  0  0  0  0999 V2000
  -11.3798  -13.7530    7.6314 N   0  0  0  0  0  0  0  0  0  0  0  0
  -11.2657  -13.3411    6.3021 C   0  0  0  0  0  0  0  0  0  0  0  0
  -11.4529  -12.0635    5.9258 N   0  0  0  0  0  0  0  0  0  0  0  0
  -11.7609  -11.2194    6.9890 C   0  0  0  0  0  0  0  0  0  0  0  0
  -11.9009  -11.5433    8.3397 C   0  0  0  0  0  0  0  0  0  0  0  0
  -11.7078  -12.9107    8.7465 C   0  0  0  0  0  0  0  0  0  0  0  0
  -11.7710  -13.4300    9.8346 O   0  0  0  0  0  0  0  0  0  0  0  0
  -12.2070  -10.3722    9.0565 N   0  0  0  0  0  0  0  0  0  0  0  0
  -12.2388   -9.3788    8.1277 C   0  0  0  0  0  0  0  0  0  0  0  0
  -11.9678   -9.8739    6.8445 N   0  0  0  0  0  0  0  0  0  0  0  0
  1  2  1  0  0  0  0
  1  6  1  0  0  0  0
  2  3  2  0  0  0  0
  3  4  1  0  0  0  0
  4  5  2  0  0  0  0
  4 10  1  0  0  0  0
  5  6  1  0  0  0  0
  5  8  1  0  0  0  0
  6  7  2  0  0  0  0
  8  9  1  0  0  0  0
  9 10  2  0  0  0  0
M  END
>  <CHROM.1>
-11.76461599,-11.82166473,7.81675174,-0.83298093,1.34338197,-0.88848588

>  <Name>
ligand

>  <RI>
0

>  <Rbt.Current_Directory>
/home/itssahil/PROJECTS/Mol_Feturizer/New_Systems/rnas/2EES

>  <Rbt.Executable>
rbdock ($Id: //depot/dev/client3/rdock/2013.1/src/exe/rbdock.cxx#4 $)

>  <Rbt.Library>
libRbt.so (2013.1, Build901 2013/11/27)

>  <Rbt.Parameter_File>
/export/apps/rDock/src/rDock_2013.1_src/data/scripts/dock_solv.prm

>  <Rbt.Receptor>
prm/blind_docking_80.prm

>  <SCORE>
-16.0827

>  <SCORE.INTER>
-16.0827

>  <SCORE.INTER.CONST>
1

>  <SCORE.INTER.POLAR>
0

>  <SCORE.INTER.ROT>
0

>  <SCORE.INTER.SOLV>
4.09602

>  <SCORE.INTER.VDW>
-15.6871

>  <SCORE.INTER.norm>
-1.60827

>  <SCORE.INTRA>
0

>  <SCORE.INTRA.DIHEDRAL>
0

>  <SCORE.INTRA.DIHEDRAL.0>
0

>  <SCORE.INTRA.POLAR>
0

>  <SCORE.INTRA.POLAR.0>
0

>  <SCORE.INTRA.REPUL>
0

>  <SCORE.INTRA.REPUL.0>
0

>  <SCORE.INTRA.SOLV>
0

>  <SCORE.INTRA.SOLV.lig_0>
-4.28614

>  <SCORE.INTRA.VDW>
0

>  <SCORE.INTRA.VDW.0>
0

>  <SCORE.INTRA.norm>
0

>  <SCORE.RESTR>
0

>  <SCORE.RESTR.CAVITY>
0

>  <SCORE.RESTR.norm>
0

>  <SCORE.SYSTEM>
0

>  <SCORE.SYSTEM.CONST>
0

>  <SCORE.SYSTEM.DIHEDRAL>
0

>  <SCORE.SYSTEM.SOLV>
0

>  <SCORE.SYSTEM.norm>
0

>  <SCORE.heavy>
10

>  <SCORE.norm>
-1.60827

>  <RMSD>
3.224

$$$$
ligand
 OpenBabel11021811423D
libRbt.so/2013.1/901 2013/11/27
 10 11  0  0  0  0  0  0  0  0999 V2000
  -11.3867  -13.6625    7.4974 N   0  0  0  0  0  0  0  0  0  0  0  0
  -11.2572  -13.1652    6.1991 C   0  0  0  0  0  0  0  0  0  0  0  0
  -11.4175  -11.8619    5.9080 N   0  0  0  0  0  0  0  0  0  0  0  0
  -11.7150  -11.0846    7.0239 C   0  0  0  0  0  0  0  0  0  0  0  0
  -11.8687  -11.4950    8.3494 C   0  0  0  0  0  0  0  0  0  0  0  0
  -11.7045  -12.8900    8.6649 C   0  0  0  0  0  0  0  0  0  0  0  0
  -11.7837  -13.4792    9.7156 O   0  0  0  0  0  0  0  0  0  0  0  0
  -12.1560  -10.3684    9.1414 N   0  0  0  0  0  0  0  0  0  0  0  0
  -12.1634   -9.3149    8.2808 C   0  0  0  0  0  0  0  0  0  0  0  0
  -11.8949   -9.7287    6.9686 N   0  0  0  0  0  0  0  0  0  0  0  0
  1  2  1  0  0  0  0
  1  6  1  0  0  0  0
  2  3  2  0  0  0  0
  3  4  1  0  0  0  0
  4  5  2  0  0  0  0
  4 10  1  0  0  0  0
  5  6  1  0  0  0  0
  5  8  1  0  0  0  0
  6  7  2  0  0  0  0
  8  9  1  0  0  0  0
  9 10  2  0  0  0  0
M  END
>  <CHROM.1>
-11.73495852,-11.74050425,7.80957622,-0.91011460,1.35432211,-0.74651715

>  <Name>
ligand

>  <RI>
0

>  <Rbt.Current_Directory>
/home/itssahil/PROJECTS/Mol_Feturizer/New_Systems/rnas/2EES

>  <Rbt.Executable>
rbdock ($Id: //depot/dev/client3/rdock/2013.1/src/exe/rbdock.cxx#4 $)

>  <Rbt.Library>
libRbt.so (2013.1, Build901 2013/11/27)

>  <Rbt.Parameter_File>
/export/apps/rDock/src/rDock_2013.1_src/data/scripts/dock_solv.prm

>  <Rbt.Receptor>
prm/blind_docking_40.prm

>  <SCORE>
-16.1387

>  <SCORE.INTER>
-16.1387

>  <SCORE.INTER.CONST>
1

>  <SCORE.INTER.POLAR>
0

>  <SCORE.INTER.ROT>
0

>  <SCORE.INTER.SOLV>
4.18071

>  <SCORE.INTER.VDW>
-15.7527

>  <SCORE.INTER.norm>
-1.61387

>  <SCORE.INTRA>
0

>  <SCORE.INTRA.DIHEDRAL>
0

>  <SCORE.INTRA.DIHEDRAL.0>
0

>  <SCORE.INTRA.POLAR>
0

>  <SCORE.INTRA.POLAR.0>
0

>  <SCORE.INTRA.REPUL>
0

>  <SCORE.INTRA.REPUL.0>
0

>  <SCORE.INTRA.SOLV>
0

>  <SCORE.INTRA.SOLV.lig_0>
-4.28614

>  <SCORE.INTRA.VDW>
0

>  <SCORE.INTRA.VDW.0>
0

>  <SCORE.INTRA.norm>
0

>  <SCORE.RESTR>
0

>  <SCORE.RESTR.CAVITY>
0

>  <SCORE.RESTR.norm>
0

>  <SCORE.SYSTEM>
0

>  <SCORE.SYSTEM.CONST>
0

>  <SCORE.SYSTEM.DIHEDRAL>
0

>  <SCORE.SYSTEM.SOLV>
0

>  <SCORE.SYSTEM.norm>
0

>  <SCORE.heavy>
10

>  <SCORE.norm>
-1.61387

>  <RMSD>
3.282

$$$$
ligand
 OpenBabel11021811423D
libRbt.so/2013.1/901 2013/11/27
 10 11  0  0  0  0  0  0  0  0999 V2000
  -11.3923  -13.6962    7.5076 N   0  0  0  0  0  0  0  0  0  0  0  0
  -11.2397  -13.1953    6.2133 C   0  0  0  0  0  0  0  0  0  0  0  0
  -11.3938  -11.8909    5.9234 N   0  0  0  0  0  0  0  0  0  0  0  0
  -11.7100  -11.1167    7.0361 C   0  0  0  0  0  0  0  0  0  0  0  0
  -11.8871  -11.5309    8.3575 C   0  0  0  0  0  0  0  0  0  0  0  0
  -11.7296  -12.9269    8.6717 C   0  0  0  0  0  0  0  0  0  0  0  0
  -11.8277  -13.5192    9.7192 O   0  0  0  0  0  0  0  0  0  0  0  0
  -12.1872  -10.4064    9.1478 N   0  0  0  0  0  0  0  0  0  0  0  0
  -12.1786   -9.3503    8.2904 C   0  0  0  0  0  0  0  0  0  0  0  0
  -11.8877   -9.7605    6.9818 N   0  0  0  0  0  0  0  0  0  0  0  0
  1  2  1  0  0  0  0
  1  6  1  0  0  0  0
  2  3  2  0  0  0  0
  3  4  1  0  0  0  0
  4  5  2  0  0  0  0
  4 10  1  0  0  0  0
  5  6  1  0  0  0  0
  5  8  1  0  0  0  0
  6  7  2  0  0  0  0
  8  9  1  0  0  0  0
  9 10  2  0  0  0  0
M  END
>  <CHROM.1>
-11.74421041,-11.77488494,7.81943647,-0.96502940,1.34181722,-0.68998582

>  <Name>
ligand

>  <RI>
0

>  <Rbt.Current_Directory>
/home/itssahil/PROJECTS/Mol_Feturizer/New_Systems/rnas/2EES

>  <Rbt.Executable>
rbdock ($Id: //depot/dev/client3/rdock/2013.1/src/exe/rbdock.cxx#4 $)

>  <Rbt.Library>
libRbt.so (2013.1, Build901 2013/11/27)

>  <Rbt.Parameter_File>
/export/apps/rDock/src/rDock_2013.1_src/data/scripts/dock_solv.prm

>  <Rbt.Receptor>
prm/blind_docking_80.prm

>  <SCORE>
-16.122

>  <SCORE.INTER>
-16.122

>  <SCORE.INTER.CONST>
1

>  <SCORE.INTER.POLAR>
0

>  <SCORE.INTER.ROT>
0

>  <SCORE.INTER.SOLV>
4.17669

>  <SCORE.INTER.VDW>
-15.7403

>  <SCORE.INTER.norm>
-1.6122

>  <SCORE.INTRA>
0

>  <SCORE.INTRA.DIHEDRAL>
0

>  <SCORE.INTRA.DIHEDRAL.0>
0

>  <SCORE.INTRA.POLAR>
0

>  <SCORE.INTRA.POLAR.0>
0

>  <SCORE.INTRA.REPUL>
0

>  <SCORE.INTRA.REPUL.0>
0

>  <SCORE.INTRA.SOLV>
0

>  <SCORE.INTRA.SOLV.lig_0>
-4.28614

>  <SCORE.INTRA.VDW>
0

>  <SCORE.INTRA.VDW.0>
0

>  <SCORE.INTRA.norm>
0

>  <SCORE.RESTR>
0

>  <SCORE.RESTR.CAVITY>
0

>  <SCORE.RESTR.norm>
0

>  <SCORE.SYSTEM>
0

>  <SCORE.SYSTEM.CONST>
0

>  <SCORE.SYSTEM.DIHEDRAL>
0

>  <SCORE.SYSTEM.SOLV>
0

>  <SCORE.SYSTEM.norm>
0

>  <SCORE.heavy>
10

>  <SCORE.norm>
-1.6122

>  <RMSD>
3.283

$$$$
ligand
 OpenBabel11021811423D
libRbt.so/2013.1/901 2013/11/27
 10 11  0  0  0  0  0  0  0  0999 V2000
  -11.3693  -13.6567    7.4841 N   0  0  0  0  0  0  0  0  0  0  0  0
  -11.2563  -13.1568    6.1853 C   0  0  0  0  0  0  0  0  0  0  0  0
  -11.4329  -11.8550    5.8970 N   0  0  0  0  0  0  0  0  0  0  0  0
  -11.7290  -11.0820    7.0162 C   0  0  0  0  0  0  0  0  0  0  0  0
  -11.8670  -11.4953    8.3425 C   0  0  0  0  0  0  0  0  0  0  0  0
  -11.6852  -12.8888    8.6551 C   0  0  0  0  0  0  0  0  0  0  0  0
  -11.7492  -13.4799    9.7059 O   0  0  0  0  0  0  0  0  0  0  0  0
  -12.1595  -10.3727    9.1383 N   0  0  0  0  0  0  0  0  0  0  0  0
  -12.1854   -9.3184    8.2789 C   0  0  0  0  0  0  0  0  0  0  0  0
  -11.9238   -9.7281    6.9639 N   0  0  0  0  0  0  0  0  0  0  0  0
  1  2  1  0  0  0  0
  1  6  1  0  0  0  0
  2  3  2  0  0  0  0
  3  4  1  0  0  0  0
  4  5  2  0  0  0  0
  4 10  1  0  0  0  0
  5  6  1  0  0  0  0
  5  8  1  0  0  0  0
  6  7  2  0  0  0  0
  8  9  1  0  0  0  0
  9 10  2  0  0  0  0
M  END
>  <CHROM.1>
-11.73529134,-11.73886880,7.80136015,-0.84687915,1.35300394,-0.80722872

>  <Name>
ligand

>  <RI>
0

>  <Rbt.Current_Directory>
/home/itssahil/PROJECTS/Mol_Feturizer/New_Systems/rnas/2EES

>  <Rbt.Executable>
rbdock ($Id: //depot/dev/client3/rdock/2013.1/src/exe/rbdock.cxx#4 $)

>  <Rbt.Library>
libRbt.so (2013.1, Build901 2013/11/27)

>  <Rbt.Parameter_File>
/export/apps/rDock/src/rDock_2013.1_src/data/scripts/dock_solv.prm

>  <Rbt.Receptor>
prm/blind_docking_80.prm

>  <SCORE>
-16.1517

>  <SCORE.INTER>
-16.1517

>  <SCORE.INTER.CONST>
1

>  <SCORE.INTER.POLAR>
0

>  <SCORE.INTER.ROT>
0

>  <SCORE.INTER.SOLV>
4.17321

>  <SCORE.INTER.VDW>
-15.7589

>  <SCORE.INTER.norm>
-1.61517

>  <SCORE.INTRA>
0

>  <SCORE.INTRA.DIHEDRAL>
0

>  <SCORE.INTRA.DIHEDRAL.0>
0

>  <SCORE.INTRA.POLAR>
0

>  <SCORE.INTRA.POLAR.0>
0

>  <SCORE.INTRA.REPUL>
0

>  <SCORE.INTRA.REPUL.0>
0

>  <SCORE.INTRA.SOLV>
0

>  <SCORE.INTRA.SOLV.lig_0>
-4.28614

>  <SCORE.INTRA.VDW>
0

>  <SCORE.INTRA.VDW.0>
0

>  <SCORE.INTRA.norm>
0

>  <SCORE.RESTR>
0

>  <SCORE.RESTR.CAVITY>
0

>  <SCORE.RESTR.norm>
0

>  <SCORE.SYSTEM>
0

>  <SCORE.SYSTEM.CONST>
0

>  <SCORE.SYSTEM.DIHEDRAL>
0

>  <SCORE.SYSTEM.SOLV>
0

>  <SCORE.SYSTEM.norm>
0

>  <SCORE.heavy>
10

>  <SCORE.norm>
-1.61517

>  <RMSD>
3.287

$$$$
ligand
 OpenBabel11021811423D
libRbt.so/2013.1/901 2013/11/27
 10 11  0  0  0  0  0  0  0  0999 V2000
  -11.3710  -13.6619    7.4792 N   0  0  0  0  0  0  0  0  0  0  0  0
  -11.2649  -13.1609    6.1803 C   0  0  0  0  0  0  0  0  0  0  0  0
  -11.4448  -11.8591    5.8938 N   0  0  0  0  0  0  0  0  0  0  0  0
  -11.7367  -11.0873    7.0149 C   0  0  0  0  0  0  0  0  0  0  0  0
  -11.8677  -11.5018    8.3416 C   0  0  0  0  0  0  0  0  0  0  0  0
  -11.6824  -12.8953    8.6523 C   0  0  0  0  0  0  0  0  0  0  0  0
  -11.7405  -13.4872    9.7029 O   0  0  0  0  0  0  0  0  0  0  0  0
  -12.1580  -10.3802    9.1395 N   0  0  0  0  0  0  0  0  0  0  0  0
  -12.1895   -9.3253    8.2811 C   0  0  0  0  0  0  0  0  0  0  0  0
  -11.9336   -9.7336    6.9646 N   0  0  0  0  0  0  0  0  0  0  0  0
  1  2  1  0  0  0  0
  1  6  1  0  0  0  0
  2  3  2  0  0  0  0
  3  4  1  0  0  0  0
  4  5  2  0  0  0  0
  4 10  1  0  0  0  0
  5  6  1  0  0  0  0
  5  8  1  0  0  0  0
  6  7  2  0  0  0  0
  8  9  1  0  0  0  0
  9 10  2  0  0  0  0
M  END
>  <CHROM.1>
-11.73823024,-11.74479746,7.79963195,-0.82615488,1.35522511,-0.82673775

>  <Name>
ligand

>  <RI>
0

>  <Rbt.Current_Directory>
/home/itssahil/PROJECTS/Mol_Feturizer/New_Systems/rnas/2EES

>  <Rbt.Executable>
rbdock ($Id: //depot/dev/client3/rdock/2013.1/src/exe/rbdock.cxx#4 $)

>  <Rbt.Library>
libRbt.so (2013.1, Build901 2013/11/27)

>  <Rbt.Parameter_File>
/export/apps/rDock/src/rDock_2013.1_src/data/scripts/dock_solv.prm

>  <Rbt.Receptor>
prm/pocket_docking_4.prm

>  <SCORE>
-16.1539

>  <SCORE.INTER>
-16.1539

>  <SCORE.INTER.CONST>
1

>  <SCORE.INTER.POLAR>
0

>  <SCORE.INTER.ROT>
0

>  <SCORE.INTER.SOLV>
4.17682

>  <SCORE.INTER.VDW>
-15.7616

>  <SCORE.INTER.norm>
-1.61539

>  <SCORE.INTRA>
0

>  <SCORE.INTRA.DIHEDRAL>
0

>  <SCORE.INTRA.DIHEDRAL.0>
0

>  <SCORE.INTRA.POLAR>
0

>  <SCORE.INTRA.POLAR.0>
0

>  <SCORE.INTRA.REPUL>
0

>  <SCORE.INTRA.REPUL.0>
0

>  <SCORE.INTRA.SOLV>
0

>  <SCORE.INTRA.SOLV.lig_0>
-4.28614

>  <SCORE.INTRA.VDW>
0

>  <SCORE.INTRA.VDW.0>
0

>  <SCORE.INTRA.norm>
0

>  <SCORE.RESTR>
0

>  <SCORE.RESTR.CAVITY>
0

>  <SCORE.RESTR.norm>
0

>  <SCORE.SYSTEM>
0

>  <SCORE.SYSTEM.CONST>
0

>  <SCORE.SYSTEM.DIHEDRAL>
0

>  <SCORE.SYSTEM.SOLV>
0

>  <SCORE.SYSTEM.norm>
0

>  <SCORE.heavy>
10

>  <SCORE.norm>
-1.61539

>  <RMSD>
3.289

$$$$
ligand
 OpenBabel11021811423D
libRbt.so/2013.1/901 2013/11/27
 10 11  0  0  0  0  0  0  0  0999 V2000
  -11.3686  -13.6630    7.4775 N   0  0  0  0  0  0  0  0  0  0  0  0
  -11.2658  -13.1615    6.1784 C   0  0  0  0  0  0  0  0  0  0  0  0
  -11.4451  -11.8594    5.8931 N   0  0  0  0  0  0  0  0  0  0  0  0
  -11.7329  -11.0878    7.0154 C   0  0  0  0  0  0  0  0  0  0  0  0
  -11.8604  -11.5028    8.3423 C   0  0  0  0  0  0  0  0  0  0  0  0
  -11.6757  -12.8966    8.6518 C   0  0  0  0  0  0  0  0  0  0  0  0
  -11.7313  -13.4889    9.7023 O   0  0  0  0  0  0  0  0  0  0  0  0
  -12.1471  -10.3812    9.1416 N   0  0  0  0  0  0  0  0  0  0  0  0
  -12.1800   -9.3259    8.2838 C   0  0  0  0  0  0  0  0  0  0  0  0
  -11.9285   -9.7339    6.9663 N   0  0  0  0  0  0  0  0  0  0  0  0
  1  2  1  0  0  0  0
  1  6  1  0  0  0  0
  2  3  2  0  0  0  0
  3  4  1  0  0  0  0
  4  5  2  0  0  0  0
  4 10  1  0  0  0  0
  5  6  1  0  0  0  0
  5  8  1  0  0  0  0
  6  7  2  0  0  0  0
  8  9  1  0  0  0  0
  9 10  2  0  0  0  0
M  END
>  <CHROM.1>
-11.73279810,-11.74564559,7.79983072,-0.81928638,1.35803043,-0.83298990

>  <Name>
ligand

>  <RI>
0

>  <Rbt.Current_Directory>
/home/itssahil/PROJECTS/Mol_Feturizer/New_Systems/rnas/2EES

>  <Rbt.Executable>
rbdock ($Id: //depot/dev/client3/rdock/2013.1/src/exe/rbdock.cxx#4 $)

>  <Rbt.Library>
libRbt.so (2013.1, Build901 2013/11/27)

>  <Rbt.Parameter_File>
/export/apps/rDock/src/rDock_2013.1_src/data/scripts/dock_solv.prm

>  <Rbt.Receptor>
prm/pocket_docking_6.prm

>  <SCORE>
-16.1539

>  <SCORE.INTER>
-16.1539

>  <SCORE.INTER.CONST>
1

>  <SCORE.INTER.POLAR>
0

>  <SCORE.INTER.ROT>
0

>  <SCORE.INTER.SOLV>
4.18395

>  <SCORE.INTER.VDW>
-15.7639

>  <SCORE.INTER.norm>
-1.61539

>  <SCORE.INTRA>
0

>  <SCORE.INTRA.DIHEDRAL>
0

>  <SCORE.INTRA.DIHEDRAL.0>
0

>  <SCORE.INTRA.POLAR>
0

>  <SCORE.INTRA.POLAR.0>
0

>  <SCORE.INTRA.REPUL>
0

>  <SCORE.INTRA.REPUL.0>
0

>  <SCORE.INTRA.SOLV>
0

>  <SCORE.INTRA.SOLV.lig_0>
-4.28614

>  <SCORE.INTRA.VDW>
0

>  <SCORE.INTRA.VDW.0>
0

>  <SCORE.INTRA.norm>
0

>  <SCORE.RESTR>
0

>  <SCORE.RESTR.CAVITY>
0

>  <SCORE.RESTR.norm>
0

>  <SCORE.SYSTEM>
0

>  <SCORE.SYSTEM.CONST>
0

>  <SCORE.SYSTEM.DIHEDRAL>
0

>  <SCORE.SYSTEM.SOLV>
0

>  <SCORE.SYSTEM.norm>
0

>  <SCORE.heavy>
10

>  <SCORE.norm>
-1.61539

>  <RMSD>
3.290

$$$$
ligand
 OpenBabel11021811423D
libRbt.so/2013.1/901 2013/11/27
 10 11  0  0  0  0  0  0  0  0999 V2000
  -11.3654  -13.6903    7.4873 N   0  0  0  0  0  0  0  0  0  0  0  0
  -11.2383  -13.1839    6.1924 C   0  0  0  0  0  0  0  0  0  0  0  0
  -11.4110  -11.8805    5.9088 N   0  0  0  0  0  0  0  0  0  0  0  0
  -11.7186  -11.1131    7.0287 C   0  0  0  0  0  0  0  0  0  0  0  0
  -11.8709  -11.5330    8.3514 C   0  0  0  0  0  0  0  0  0  0  0  0
  -11.6933  -12.9282    8.6588 C   0  0  0  0  0  0  0  0  0  0  0  0
  -11.7688  -13.5246    9.7058 O   0  0  0  0  0  0  0  0  0  0  0  0
  -12.1712  -10.4142    9.1496 N   0  0  0  0  0  0  0  0  0  0  0  0
  -12.1874   -9.3556    8.2955 C   0  0  0  0  0  0  0  0  0  0  0  0
  -11.9121   -9.7587    6.9813 N   0  0  0  0  0  0  0  0  0  0  0  0
  1  2  1  0  0  0  0
  1  6  1  0  0  0  0
  2  3  2  0  0  0  0
  3  4  1  0  0  0  0
  4  5  2  0  0  0  0
  4 10  1  0  0  0  0
  5  6  1  0  0  0  0
  5  8  1  0  0  0  0
  6  7  2  0  0  0  0
  8  9  1  0  0  0  0
  9 10  2  0  0  0  0
M  END
>  <CHROM.1>
-11.73363143,-11.77390574,7.81041779,-0.88317604,1.34590843,-0.76673908

>  <Name>
ligand

>  <RI>
0

>  <Rbt.Current_Directory>
/home/itssahil/PROJECTS/Mol_Feturizer/New_Systems/rnas/2EES

>  <Rbt.Executable>
rbdock ($Id: //depot/dev/client3/rdock/2013.1/src/exe/rbdock.cxx#4 $)

>  <Rbt.Library>
libRbt.so (2013.1, Build901 2013/11/27)

>  <Rbt.Parameter_File>
/export/apps/rDock/src/rDock_2013.1_src/data/scripts/dock_solv.prm

>  <Rbt.Receptor>
prm/blind_docking_100.prm

>  <SCORE>
-16.149

>  <SCORE.INTER>
-16.149

>  <SCORE.INTER.CONST>
1

>  <SCORE.INTER.POLAR>
0

>  <SCORE.INTER.ROT>
0

>  <SCORE.INTER.SOLV>
4.18246

>  <SCORE.INTER.VDW>
-15.7602

>  <SCORE.INTER.norm>
-1.6149

>  <SCORE.INTRA>
0

>  <SCORE.INTRA.DIHEDRAL>
0

>  <SCORE.INTRA.DIHEDRAL.0>
0

>  <SCORE.INTRA.POLAR>
0

>  <SCORE.INTRA.POLAR.0>
0

>  <SCORE.INTRA.REPUL>
0

>  <SCORE.INTRA.REPUL.0>
0

>  <SCORE.INTRA.SOLV>
0

>  <SCORE.INTRA.SOLV.lig_0>
-4.28614

>  <SCORE.INTRA.VDW>
0

>  <SCORE.INTRA.VDW.0>
0

>  <SCORE.INTRA.norm>
0

>  <SCORE.RESTR>
0

>  <SCORE.RESTR.CAVITY>
0

>  <SCORE.RESTR.norm>
0

>  <SCORE.SYSTEM>
0

>  <SCORE.SYSTEM.CONST>
0

>  <SCORE.SYSTEM.DIHEDRAL>
0

>  <SCORE.SYSTEM.SOLV>
0

>  <SCORE.SYSTEM.norm>
0

>  <SCORE.heavy>
10

>  <SCORE.norm>
-1.6149

>  <RMSD>
3.291

$$$$
ligand
 OpenBabel11021811423D
libRbt.so/2013.1/901 2013/11/27
 10 11  0  0  0  0  0  0  0  0999 V2000
  -11.3583  -13.6857    7.4871 N   0  0  0  0  0  0  0  0  0  0  0  0
  -11.2324  -13.1800    6.1917 C   0  0  0  0  0  0  0  0  0  0  0  0
  -11.4133  -11.8781    5.9063 N   0  0  0  0  0  0  0  0  0  0  0  0
  -11.7278  -11.1113    7.0248 C   0  0  0  0  0  0  0  0  0  0  0  0
  -11.8795  -11.5307    8.3477 C   0  0  0  0  0  0  0  0  0  0  0  0
  -11.6932  -12.9243    8.6571 C   0  0  0  0  0  0  0  0  0  0  0  0
  -11.7665  -13.5199    9.7047 O   0  0  0  0  0  0  0  0  0  0  0  0
  -12.1885  -10.4129    9.1441 N   0  0  0  0  0  0  0  0  0  0  0  0
  -12.2102   -9.3555    8.2886 C   0  0  0  0  0  0  0  0  0  0  0  0
  -11.9301   -9.7584    6.9753 N   0  0  0  0  0  0  0  0  0  0  0  0
  1  2  1  0  0  0  0
  1  6  1  0  0  0  0
  2  3  2  0  0  0  0
  3  4  1  0  0  0  0
  4  5  2  0  0  0  0
  4 10  1  0  0  0  0
  5  6  1  0  0  0  0
  5  8  1  0  0  0  0
  6  7  2  0  0  0  0
  8  9  1  0  0  0  0
  9 10  2  0  0  0  0
M  END
>  <CHROM.1>
-11.73972056,-11.77131593,7.80723704,-0.86739222,1.34013014,-0.78333569

>  <Name>
ligand

>  <RI>
0

>  <Rbt.Current_Directory>
/home/itssahil/PROJECTS/Mol_Feturizer/New_Systems/rnas/2EES

>  <Rbt.Executable>
rbdock ($Id: //depot/dev/client3/rdock/2013.1/src/exe/rbdock.cxx#4 $)

>  <Rbt.Library>
libRbt.so (2013.1, Build901 2013/11/27)

>  <Rbt.Parameter_File>
/export/apps/rDock/src/rDock_2013.1_src/data/scripts/dock_solv.prm

>  <Rbt.Receptor>
prm/blind_docking_40.prm

>  <SCORE>
-16.1489

>  <SCORE.INTER>
-16.1489

>  <SCORE.INTER.CONST>
1

>  <SCORE.INTER.POLAR>
0

>  <SCORE.INTER.ROT>
0

>  <SCORE.INTER.SOLV>
4.16573

>  <SCORE.INTER.VDW>
-15.7545

>  <SCORE.INTER.norm>
-1.61489

>  <SCORE.INTRA>
0

>  <SCORE.INTRA.DIHEDRAL>
0

>  <SCORE.INTRA.DIHEDRAL.0>
0

>  <SCORE.INTRA.POLAR>
0

>  <SCORE.INTRA.POLAR.0>
0

>  <SCORE.INTRA.REPUL>
0

>  <SCORE.INTRA.REPUL.0>
0

>  <SCORE.INTRA.SOLV>
0

>  <SCORE.INTRA.SOLV.lig_0>
-4.28614

>  <SCORE.INTRA.VDW>
0

>  <SCORE.INTRA.VDW.0>
0

>  <SCORE.INTRA.norm>
0

>  <SCORE.RESTR>
0

>  <SCORE.RESTR.CAVITY>
0

>  <SCORE.RESTR.norm>
0

>  <SCORE.SYSTEM>
0

>  <SCORE.SYSTEM.CONST>
0

>  <SCORE.SYSTEM.DIHEDRAL>
0

>  <SCORE.SYSTEM.SOLV>
0

>  <SCORE.SYSTEM.norm>
0

>  <SCORE.heavy>
10

>  <SCORE.norm>
-1.61489

>  <RMSD>
3.291

$$$$
ligand
 OpenBabel11021811423D
libRbt.so/2013.1/901 2013/11/27
 10 11  0  0  0  0  0  0  0  0999 V2000
  -11.3366  -13.6123    7.4226 N   0  0  0  0  0  0  0  0  0  0  0  0
  -11.2104  -13.0935    6.1324 C   0  0  0  0  0  0  0  0  0  0  0  0
  -11.3881  -11.7882    5.8608 N   0  0  0  0  0  0  0  0  0  0  0  0
  -11.6995  -11.0323    6.9875 C   0  0  0  0  0  0  0  0  0  0  0  0
  -11.8512  -11.4651    8.3061 C   0  0  0  0  0  0  0  0  0  0  0  0
  -11.6683  -12.8623    8.6008 C   0  0  0  0  0  0  0  0  0  0  0  0
  -11.7423  -13.4686    9.6422 O   0  0  0  0  0  0  0  0  0  0  0  0
  -12.1564  -10.3549    9.1145 N   0  0  0  0  0  0  0  0  0  0  0  0
  -12.1761   -9.2885    8.2701 C   0  0  0  0  0  0  0  0  0  0  0  0
  -11.8982   -9.6784    6.9524 N   0  0  0  0  0  0  0  0  0  0  0  0
  1  2  1  0  0  0  0
  1  6  1  0  0  0  0
  2  3  2  0  0  0  0
  3  4  1  0  0  0  0
  4  5  2  0  0  0  0
  4 10  1  0  0  0  0
  5  6  1  0  0  0  0
  5  8  1  0  0  0  0
  6  7  2  0  0  0  0
  8  9  1  0  0  0  0
  9 10  2  0  0  0  0
M  END
>  <CHROM.1>
-11.71252809,-11.70040038,7.76306478,-0.87302961,1.34264817,-0.76738171

>  <Name>
ligand

>  <RI>
0

>  <Rbt.Current_Directory>
/home/itssahil/PROJECTS/Mol_Feturizer/New_Systems/rnas/2EES

>  <Rbt.Executable>
rbdock ($Id: //depot/dev/client3/rdock/2013.1/src/exe/rbdock.cxx#4 $)

>  <Rbt.Library>
libRbt.so (2013.1, Build901 2013/11/27)

>  <Rbt.Parameter_File>
/export/apps/rDock/src/rDock_2013.1_src/data/scripts/dock_solv.prm

>  <Rbt.Receptor>
prm/pocket_docking_6.prm

>  <SCORE>
-16.1343

>  <SCORE.INTER>
-16.1343

>  <SCORE.INTER.CONST>
1

>  <SCORE.INTER.POLAR>
0

>  <SCORE.INTER.ROT>
0

>  <SCORE.INTER.SOLV>
4.1717

>  <SCORE.INTER.VDW>
-15.7468

>  <SCORE.INTER.norm>
-1.61343

>  <SCORE.INTRA>
0

>  <SCORE.INTRA.DIHEDRAL>
0

>  <SCORE.INTRA.DIHEDRAL.0>
0

>  <SCORE.INTRA.POLAR>
0

>  <SCORE.INTRA.POLAR.0>
0

>  <SCORE.INTRA.REPUL>
0

>  <SCORE.INTRA.REPUL.0>
0

>  <SCORE.INTRA.SOLV>
0

>  <SCORE.INTRA.SOLV.lig_0>
-4.28614

>  <SCORE.INTRA.VDW>
0

>  <SCORE.INTRA.VDW.0>
0

>  <SCORE.INTRA.norm>
0

>  <SCORE.RESTR>
0

>  <SCORE.RESTR.CAVITY>
0

>  <SCORE.RESTR.norm>
0

>  <SCORE.SYSTEM>
0

>  <SCORE.SYSTEM.CONST>
0

>  <SCORE.SYSTEM.DIHEDRAL>
0

>  <SCORE.SYSTEM.SOLV>
0

>  <SCORE.SYSTEM.norm>
0

>  <SCORE.heavy>
10

>  <SCORE.norm>
-1.61343

>  <RMSD>
3.297

$$$$
ligand
 OpenBabel11021811423D
libRbt.so/2013.1/901 2013/11/27
 10 11  0  0  0  0  0  0  0  0999 V2000
  -11.5797  -10.4307    6.5049 N   0  0  0  0  0  0  0  0  0  0  0  0
  -11.9276   -9.5636    7.5425 C   0  0  0  0  0  0  0  0  0  0  0  0
  -12.1285   -9.9916    8.8017 N   0  0  0  0  0  0  0  0  0  0  0  0
  -11.9488  -11.3642    8.9483 C   0  0  0  0  0  0  0  0  0  0  0  0
  -11.6092  -12.3024    7.9719 C   0  0  0  0  0  0  0  0  0  0  0  0
  -11.3995  -11.8501    6.6214 C   0  0  0  0  0  0  0  0  0  0  0  0
  -11.1025  -12.4559    5.6202 O   0  0  0  0  0  0  0  0  0  0  0  0
  -11.5269  -13.5716    8.5732 N   0  0  0  0  0  0  0  0  0  0  0  0
  -11.8120  -13.3672    9.8876 C   0  0  0  0  0  0  0  0  0  0  0  0
  -12.0766  -12.0149   10.1458 N   0  0  0  0  0  0  0  0  0  0  0  0
  1  2  1  0  0  0  0
  1  6  1  0  0  0  0
  2  3  2  0  0  0  0
  3  4  1  0  0  0  0
  4  5  2  0  0  0  0
  4 10  1  0  0  0  0
  5  6  1  0  0  0  0
  5  8  1  0  0  0  0
  6  7  2  0  0  0  0
  8  9  1  0  0  0  0
  9 10  2  0  0  0  0
M  END
>  <CHROM.1>
-11.69981858,-11.70287573,8.01488034,1.08357702,1.32276715,-0.65048233

>  <Name>
ligand

>  <RI>
0

>  <Rbt.Current_Directory>
/home/itssahil/PROJECTS/Mol_Feturizer/New_Systems/rnas/2EES

>  <Rbt.Executable>
rbdock ($Id: //depot/dev/client3/rdock/2013.1/src/exe/rbdock.cxx#4 $)

>  <Rbt.Library>
libRbt.so (2013.1, Build901 2013/11/27)

>  <Rbt.Parameter_File>
/export/apps/rDock/src/rDock_2013.1_src/data/scripts/dock_solv.prm

>  <Rbt.Receptor>
prm/blind_docking_60.prm

>  <SCORE>
-16.6437

>  <SCORE.INTER>
-16.6437

>  <SCORE.INTER.CONST>
1

>  <SCORE.INTER.POLAR>
0

>  <SCORE.INTER.ROT>
0

>  <SCORE.INTER.SOLV>
3.63892

>  <SCORE.INTER.VDW>
-15.9088

>  <SCORE.INTER.norm>
-1.66437

>  <SCORE.INTRA>
0

>  <SCORE.INTRA.DIHEDRAL>
0

>  <SCORE.INTRA.DIHEDRAL.0>
0

>  <SCORE.INTRA.POLAR>
0

>  <SCORE.INTRA.POLAR.0>
0

>  <SCORE.INTRA.REPUL>
0

>  <SCORE.INTRA.REPUL.0>
0

>  <SCORE.INTRA.SOLV>
0

>  <SCORE.INTRA.SOLV.lig_0>
-4.28614

>  <SCORE.INTRA.VDW>
0

>  <SCORE.INTRA.VDW.0>
0

>  <SCORE.INTRA.norm>
0

>  <SCORE.RESTR>
0

>  <SCORE.RESTR.CAVITY>
0

>  <SCORE.RESTR.norm>
0

>  <SCORE.SYSTEM>
0

>  <SCORE.SYSTEM.CONST>
0

>  <SCORE.SYSTEM.DIHEDRAL>
0

>  <SCORE.SYSTEM.SOLV>
0

>  <SCORE.SYSTEM.norm>
0

>  <SCORE.heavy>
10

>  <SCORE.norm>
-1.66437

>  <RMSD>
3.466

$$$$
ligand
 OpenBabel11021811423D
libRbt.so/2013.1/901 2013/11/27
 10 11  0  0  0  0  0  0  0  0999 V2000
  -11.6496  -10.4599    6.4817 N   0  0  0  0  0  0  0  0  0  0  0  0
  -11.9437   -9.5702    7.5168 C   0  0  0  0  0  0  0  0  0  0  0  0
  -12.0971   -9.9733    8.7908 N   0  0  0  0  0  0  0  0  0  0  0  0
  -11.9280  -11.3453    8.9548 C   0  0  0  0  0  0  0  0  0  0  0  0
  -11.6406  -12.3049    7.9824 C   0  0  0  0  0  0  0  0  0  0  0  0
  -11.4818  -11.8792    6.6163 C   0  0  0  0  0  0  0  0  0  0  0  0
  -11.2340  -12.5062    5.6148 O   0  0  0  0  0  0  0  0  0  0  0  0
  -11.5486  -13.5642    8.6027 N   0  0  0  0  0  0  0  0  0  0  0  0
  -11.7762  -13.3330    9.9238 C   0  0  0  0  0  0  0  0  0  0  0  0
  -12.0136  -11.9731   10.1682 N   0  0  0  0  0  0  0  0  0  0  0  0
  1  2  1  0  0  0  0
  1  6  1  0  0  0  0
  2  3  2  0  0  0  0
  3  4  1  0  0  0  0
  4  5  2  0  0  0  0
  4 10  1  0  0  0  0
  5  6  1  0  0  0  0
  5  8  1  0  0  0  0
  6  7  2  0  0  0  0
  8  9  1  0  0  0  0
  9 10  2  0  0  0  0
M  END
>  <CHROM.1>
-11.72209849,-11.70354067,8.01816008,1.15932704,1.36258914,-0.74219640

>  <Name>
ligand

>  <RI>
0

>  <Rbt.Current_Directory>
/home/itssahil/PROJECTS/Mol_Feturizer/New_Systems/rnas/2EES

>  <Rbt.Executable>
rbdock ($Id: //depot/dev/client3/rdock/2013.1/src/exe/rbdock.cxx#4 $)

>  <Rbt.Library>
libRbt.so (2013.1, Build901 2013/11/27)

>  <Rbt.Parameter_File>
/export/apps/rDock/src/rDock_2013.1_src/data/scripts/dock_solv.prm

>  <Rbt.Receptor>
prm/pocket_docking_4.prm

>  <SCORE>
-16.6374

>  <SCORE.INTER>
-16.6374

>  <SCORE.INTER.CONST>
1

>  <SCORE.INTER.POLAR>
0

>  <SCORE.INTER.ROT>
0

>  <SCORE.INTER.SOLV>
3.76628

>  <SCORE.INTER.VDW>
-15.947

>  <SCORE.INTER.norm>
-1.66374

>  <SCORE.INTRA>
0

>  <SCORE.INTRA.DIHEDRAL>
0

>  <SCORE.INTRA.DIHEDRAL.0>
0

>  <SCORE.INTRA.POLAR>
0

>  <SCORE.INTRA.POLAR.0>
0

>  <SCORE.INTRA.REPUL>
0

>  <SCORE.INTRA.REPUL.0>
0

>  <SCORE.INTRA.SOLV>
0

>  <SCORE.INTRA.SOLV.lig_0>
-4.28614

>  <SCORE.INTRA.VDW>
0

>  <SCORE.INTRA.VDW.0>
0

>  <SCORE.INTRA.norm>
0

>  <SCORE.RESTR>
0

>  <SCORE.RESTR.CAVITY>
0

>  <SCORE.RESTR.norm>
0

>  <SCORE.SYSTEM>
0

>  <SCORE.SYSTEM.CONST>
0

>  <SCORE.SYSTEM.DIHEDRAL>
0

>  <SCORE.SYSTEM.SOLV>
0

>  <SCORE.SYSTEM.norm>
0

>  <SCORE.heavy>
10

>  <SCORE.norm>
-1.66374

>  <RMSD>
3.475

$$$$
ligand
 OpenBabel11021811423D
libRbt.so/2013.1/901 2013/11/27
 10 11  0  0  0  0  0  0  0  0999 V2000
  -11.6655  -10.4890    6.3944 N   0  0  0  0  0  0  0  0  0  0  0  0
  -11.9436   -9.5776    7.4150 C   0  0  0  0  0  0  0  0  0  0  0  0
  -12.0905   -9.9556    8.6974 N   0  0  0  0  0  0  0  0  0  0  0  0
  -11.9321  -11.3257    8.8856 C   0  0  0  0  0  0  0  0  0  0  0  0
  -11.6607  -12.3058    7.9291 C   0  0  0  0  0  0  0  0  0  0  0  0
  -11.5091  -11.9070    6.5542 C   0  0  0  0  0  0  0  0  0  0  0  0
  -11.2746  -12.5548    5.5627 O   0  0  0  0  0  0  0  0  0  0  0  0
  -11.5749  -13.5541    8.5721 N   0  0  0  0  0  0  0  0  0  0  0  0
  -11.7901  -13.2963    9.8904 C   0  0  0  0  0  0  0  0  0  0  0  0
  -12.0136  -11.9301   10.1112 N   0  0  0  0  0  0  0  0  0  0  0  0
  1  2  1  0  0  0  0
  1  6  1  0  0  0  0
  2  3  2  0  0  0  0
  3  4  1  0  0  0  0
  4  5  2  0  0  0  0
  4 10  1  0  0  0  0
  5  6  1  0  0  0  0
  5  8  1  0  0  0  0
  6  7  2  0  0  0  0
  8  9  1  0  0  0  0
  9 10  2  0  0  0  0
M  END
>  <CHROM.1>
-11.73672280,-11.70319961,7.95432506,1.15360734,1.37429860,-0.75523767

>  <Name>
ligand

>  <RI>
0

>  <Rbt.Current_Directory>
/home/itssahil/PROJECTS/Mol_Feturizer/New_Systems/rnas/2EES

>  <Rbt.Executable>
rbdock ($Id: //depot/dev/client3/rdock/2013.1/src/exe/rbdock.cxx#4 $)

>  <Rbt.Library>
libRbt.so (2013.1, Build901 2013/11/27)

>  <Rbt.Parameter_File>
/export/apps/rDock/src/rDock_2013.1_src/data/scripts/dock_solv.prm

>  <Rbt.Receptor>
prm/blind_docking_40.prm

>  <SCORE>
-16.6484

>  <SCORE.INTER>
-16.6484

>  <SCORE.INTER.CONST>
1

>  <SCORE.INTER.POLAR>
0

>  <SCORE.INTER.ROT>
0

>  <SCORE.INTER.SOLV>
3.8223

>  <SCORE.INTER.VDW>
-15.9731

>  <SCORE.INTER.norm>
-1.66484

>  <SCORE.INTRA>
0

>  <SCORE.INTRA.DIHEDRAL>
0

>  <SCORE.INTRA.DIHEDRAL.0>
0

>  <SCORE.INTRA.POLAR>
0

>  <SCORE.INTRA.POLAR.0>
0

>  <SCORE.INTRA.REPUL>
0

>  <SCORE.INTRA.REPUL.0>
0

>  <SCORE.INTRA.SOLV>
0

>  <SCORE.INTRA.SOLV.lig_0>
-4.28614

>  <SCORE.INTRA.VDW>
0

>  <SCORE.INTRA.VDW.0>
0

>  <SCORE.INTRA.norm>
0

>  <SCORE.RESTR>
0

>  <SCORE.RESTR.CAVITY>
0

>  <SCORE.RESTR.norm>
0

>  <SCORE.SYSTEM>
0

>  <SCORE.SYSTEM.CONST>
0

>  <SCORE.SYSTEM.DIHEDRAL>
0

>  <SCORE.SYSTEM.SOLV>
0

>  <SCORE.SYSTEM.norm>
0

>  <SCORE.heavy>
10

>  <SCORE.norm>
-1.66484

>  <RMSD>
3.482

$$$$
ligand
 OpenBabel11021811423D
libRbt.so/2013.1/901 2013/11/27
 10 11  0  0  0  0  0  0  0  0999 V2000
  -11.6654  -10.4928    6.3904 N   0  0  0  0  0  0  0  0  0  0  0  0
  -11.9561   -9.5816    7.4077 C   0  0  0  0  0  0  0  0  0  0  0  0
  -12.1060   -9.9581    8.6902 N   0  0  0  0  0  0  0  0  0  0  0  0
  -11.9369  -11.3265    8.8822 C   0  0  0  0  0  0  0  0  0  0  0  0
  -11.6527  -12.3062    7.9291 C   0  0  0  0  0  0  0  0  0  0  0  0
  -11.4977  -11.9090    6.5540 C   0  0  0  0  0  0  0  0  0  0  0  0
  -11.2530  -12.5569    5.5651 O   0  0  0  0  0  0  0  0  0  0  0  0
  -11.5594  -13.5524    8.5751 N   0  0  0  0  0  0  0  0  0  0  0  0
  -11.7831  -13.2937    9.8918 C   0  0  0  0  0  0  0  0  0  0  0  0
  -12.0193  -11.9289   10.1086 N   0  0  0  0  0  0  0  0  0  0  0  0
  1  2  1  0  0  0  0
  1  6  1  0  0  0  0
  2  3  2  0  0  0  0
  3  4  1  0  0  0  0
  4  5  2  0  0  0  0
  4 10  1  0  0  0  0
  5  6  1  0  0  0  0
  5  8  1  0  0  0  0
  6  7  2  0  0  0  0
  8  9  1  0  0  0  0
  9 10  2  0  0  0  0
M  END
>  <CHROM.1>
-11.73387782,-11.70421246,7.95260784,1.16756560,1.36495731,-0.77103046

>  <Name>
ligand

>  <RI>
0

>  <Rbt.Current_Directory>
/home/itssahil/PROJECTS/Mol_Feturizer/New_Systems/rnas/2EES

>  <Rbt.Executable>
rbdock ($Id: //depot/dev/client3/rdock/2013.1/src/exe/rbdock.cxx#4 $)

>  <Rbt.Library>
libRbt.so (2013.1, Build901 2013/11/27)

>  <Rbt.Parameter_File>
/export/apps/rDock/src/rDock_2013.1_src/data/scripts/dock_solv.prm

>  <Rbt.Receptor>
prm/blind_docking_40.prm

>  <SCORE>
-16.6486

>  <SCORE.INTER>
-16.6486

>  <SCORE.INTER.CONST>
1

>  <SCORE.INTER.POLAR>
0

>  <SCORE.INTER.ROT>
0

>  <SCORE.INTER.SOLV>
3.7932

>  <SCORE.INTER.VDW>
-15.9635

>  <SCORE.INTER.norm>
-1.66486

>  <SCORE.INTRA>
0

>  <SCORE.INTRA.DIHEDRAL>
0

>  <SCORE.INTRA.DIHEDRAL.0>
0

>  <SCORE.INTRA.POLAR>
0

>  <SCORE.INTRA.POLAR.0>
0

>  <SCORE.INTRA.REPUL>
0

>  <SCORE.INTRA.REPUL.0>
0

>  <SCORE.INTRA.SOLV>
0

>  <SCORE.INTRA.SOLV.lig_0>
-4.28614

>  <SCORE.INTRA.VDW>
0

>  <SCORE.INTRA.VDW.0>
0

>  <SCORE.INTRA.norm>
0

>  <SCORE.RESTR>
0

>  <SCORE.RESTR.CAVITY>
0

>  <SCORE.RESTR.norm>
0

>  <SCORE.SYSTEM>
0

>  <SCORE.SYSTEM.CONST>
0

>  <SCORE.SYSTEM.DIHEDRAL>
0

>  <SCORE.SYSTEM.SOLV>
0

>  <SCORE.SYSTEM.norm>
0

>  <SCORE.heavy>
10

>  <SCORE.norm>
-1.66486

>  <RMSD>
3.483

$$$$
ligand
 OpenBabel11021811423D
libRbt.so/2013.1/901 2013/11/27
 10 11  0  0  0  0  0  0  0  0999 V2000
  -11.6418  -10.4987    6.3771 N   0  0  0  0  0  0  0  0  0  0  0  0
  -11.9246   -9.5836    7.3930 C   0  0  0  0  0  0  0  0  0  0  0  0
  -12.0824   -9.9574    8.6754 N   0  0  0  0  0  0  0  0  0  0  0  0
  -11.9299  -11.3275    8.8686 C   0  0  0  0  0  0  0  0  0  0  0  0
  -11.6545  -12.3111    7.9170 C   0  0  0  0  0  0  0  0  0  0  0  0
  -11.4911  -11.9167    6.5421 C   0  0  0  0  0  0  0  0  0  0  0  0
  -11.2513  -12.5681    5.5543 O   0  0  0  0  0  0  0  0  0  0  0  0
  -11.5776  -13.5579    8.5641 N   0  0  0  0  0  0  0  0  0  0  0  0
  -11.8019  -13.2957    9.8800 C   0  0  0  0  0  0  0  0  0  0  0  0
  -12.0227  -11.9281   10.0952 N   0  0  0  0  0  0  0  0  0  0  0  0
  1  2  1  0  0  0  0
  1  6  1  0  0  0  0
  2  3  2  0  0  0  0
  3  4  1  0  0  0  0
  4  5  2  0  0  0  0
  4 10  1  0  0  0  0
  5  6  1  0  0  0  0
  5  8  1  0  0  0  0
  6  7  2  0  0  0  0
  8  9  1  0  0  0  0
  9 10  2  0  0  0  0
M  END
>  <CHROM.1>
-11.72874417,-11.70823211,7.93990544,1.11554218,1.37085995,-0.72074400

>  <Name>
ligand

>  <RI>
0

>  <Rbt.Current_Directory>
/home/itssahil/PROJECTS/Mol_Feturizer/New_Systems/rnas/2EES

>  <Rbt.Executable>
rbdock ($Id: //depot/dev/client3/rdock/2013.1/src/exe/rbdock.cxx#4 $)

>  <Rbt.Library>
libRbt.so (2013.1, Build901 2013/11/27)

>  <Rbt.Parameter_File>
/export/apps/rDock/src/rDock_2013.1_src/data/scripts/dock_solv.prm

>  <Rbt.Receptor>
prm/blind_docking_60.prm

>  <SCORE>
-16.6444

>  <SCORE.INTER>
-16.6444

>  <SCORE.INTER.CONST>
1

>  <SCORE.INTER.POLAR>
0

>  <SCORE.INTER.ROT>
0

>  <SCORE.INTER.SOLV>
3.81418

>  <SCORE.INTER.VDW>
-15.9676

>  <SCORE.INTER.norm>
-1.66444

>  <SCORE.INTRA>
0

>  <SCORE.INTRA.DIHEDRAL>
0

>  <SCORE.INTRA.DIHEDRAL.0>
0

>  <SCORE.INTRA.POLAR>
0

>  <SCORE.INTRA.POLAR.0>
0

>  <SCORE.INTRA.REPUL>
0

>  <SCORE.INTRA.REPUL.0>
0

>  <SCORE.INTRA.SOLV>
0

>  <SCORE.INTRA.SOLV.lig_0>
-4.28614

>  <SCORE.INTRA.VDW>
0

>  <SCORE.INTRA.VDW.0>
0

>  <SCORE.INTRA.norm>
0

>  <SCORE.RESTR>
0

>  <SCORE.RESTR.CAVITY>
0

>  <SCORE.RESTR.norm>
0

>  <SCORE.SYSTEM>
0

>  <SCORE.SYSTEM.CONST>
0

>  <SCORE.SYSTEM.DIHEDRAL>
0

>  <SCORE.SYSTEM.SOLV>
0

>  <SCORE.SYSTEM.norm>
0

>  <SCORE.heavy>
10

>  <SCORE.norm>
-1.66444

>  <RMSD>
3.484

$$$$
ligand
 OpenBabel11021811423D
libRbt.so/2013.1/901 2013/11/27
 10 11  0  0  0  0  0  0  0  0999 V2000
  -11.6534  -10.4944    6.3829 N   0  0  0  0  0  0  0  0  0  0  0  0
  -11.9401   -9.5800    7.3984 C   0  0  0  0  0  0  0  0  0  0  0  0
  -12.0969   -9.9541    8.6808 N   0  0  0  0  0  0  0  0  0  0  0  0
  -11.9392  -11.3235    8.8745 C   0  0  0  0  0  0  0  0  0  0  0  0
  -11.6596  -12.3063    7.9233 C   0  0  0  0  0  0  0  0  0  0  0  0
  -11.4973  -11.9117    6.5483 C   0  0  0  0  0  0  0  0  0  0  0  0
  -11.2546  -12.5624    5.5607 O   0  0  0  0  0  0  0  0  0  0  0  0
  -11.5781  -13.5526    8.5708 N   0  0  0  0  0  0  0  0  0  0  0  0
  -11.8039  -13.2909    9.8865 C   0  0  0  0  0  0  0  0  0  0  0  0
  -12.0300  -11.9241   10.1013 N   0  0  0  0  0  0  0  0  0  0  0  0
  1  2  1  0  0  0  0
  1  6  1  0  0  0  0
  2  3  2  0  0  0  0
  3  4  1  0  0  0  0
  4  5  2  0  0  0  0
  4 10  1  0  0  0  0
  5  6  1  0  0  0  0
  5  8  1  0  0  0  0
  6  7  2  0  0  0  0
  8  9  1  0  0  0  0
  9 10  2  0  0  0  0
M  END
>  <CHROM.1>
-11.73620501,-11.70371635,7.94596028,1.12893995,1.36803978,-0.73416837

>  <Name>
ligand

>  <RI>
0

>  <Rbt.Current_Directory>
/home/itssahil/PROJECTS/Mol_Feturizer/New_Systems/rnas/2EES

>  <Rbt.Executable>
rbdock ($Id: //depot/dev/client3/rdock/2013.1/src/exe/rbdock.cxx#4 $)

>  <Rbt.Library>
libRbt.so (2013.1, Build901 2013/11/27)

>  <Rbt.Parameter_File>
/export/apps/rDock/src/rDock_2013.1_src/data/scripts/dock_solv.prm

>  <Rbt.Receptor>
prm/blind_docking_80.prm

>  <SCORE>
-16.6472

>  <SCORE.INTER>
-16.6472

>  <SCORE.INTER.CONST>
1

>  <SCORE.INTER.POLAR>
0

>  <SCORE.INTER.ROT>
0

>  <SCORE.INTER.SOLV>
3.80353

>  <SCORE.INTER.VDW>
-15.966

>  <SCORE.INTER.norm>
-1.66472

>  <SCORE.INTRA>
0

>  <SCORE.INTRA.DIHEDRAL>
0

>  <SCORE.INTRA.DIHEDRAL.0>
0

>  <SCORE.INTRA.POLAR>
0

>  <SCORE.INTRA.POLAR.0>
0

>  <SCORE.INTRA.REPUL>
0

>  <SCORE.INTRA.REPUL.0>
0

>  <SCORE.INTRA.SOLV>
0

>  <SCORE.INTRA.SOLV.lig_0>
-4.28614

>  <SCORE.INTRA.VDW>
0

>  <SCORE.INTRA.VDW.0>
0

>  <SCORE.INTRA.norm>
0

>  <SCORE.RESTR>
0

>  <SCORE.RESTR.CAVITY>
0

>  <SCORE.RESTR.norm>
0

>  <SCORE.SYSTEM>
0

>  <SCORE.SYSTEM.CONST>
0

>  <SCORE.SYSTEM.DIHEDRAL>
0

>  <SCORE.SYSTEM.SOLV>
0

>  <SCORE.SYSTEM.norm>
0

>  <SCORE.heavy>
10

>  <SCORE.norm>
-1.66472

>  <RMSD>
3.485

$$$$
ligand
 OpenBabel11021811423D
libRbt.so/2013.1/901 2013/11/27
 10 11  0  0  0  0  0  0  0  0999 V2000
  -11.5822  -10.5222    6.4280 N   0  0  0  0  0  0  0  0  0  0  0  0
  -11.9192   -9.6172    7.4364 C   0  0  0  0  0  0  0  0  0  0  0  0
  -12.1115   -9.9992    8.7117 N   0  0  0  0  0  0  0  0  0  0  0  0
  -11.9350  -11.3662    8.9060 C   0  0  0  0  0  0  0  0  0  0  0  0
  -11.6061  -12.3400    7.9612 C   0  0  0  0  0  0  0  0  0  0  0  0
  -11.4056  -11.9371    6.5938 C   0  0  0  0  0  0  0  0  0  0  0  0
  -11.1183  -12.5794    5.6126 O   0  0  0  0  0  0  0  0  0  0  0  0
  -11.5230  -13.5871    8.6070 N   0  0  0  0  0  0  0  0  0  0  0  0
  -11.7971  -13.3348    9.9153 C   0  0  0  0  0  0  0  0  0  0  0  0
  -12.0554  -11.9732   10.1270 N   0  0  0  0  0  0  0  0  0  0  0  0
  1  2  1  0  0  0  0
  1  6  1  0  0  0  0
  2  3  2  0  0  0  0
  3  4  1  0  0  0  0
  4  5  2  0  0  0  0
  4 10  1  0  0  0  0
  5  6  1  0  0  0  0
  5  8  1  0  0  0  0
  6  7  2  0  0  0  0
  8  9  1  0  0  0  0
  9 10  2  0  0  0  0
M  END
>  <CHROM.1>
-11.69442685,-11.73903300,7.98340817,1.09309523,1.33092374,-0.69555010

>  <Name>
ligand

>  <RI>
0

>  <Rbt.Current_Directory>
/home/itssahil/PROJECTS/Mol_Feturizer/New_Systems/rnas/2EES

>  <Rbt.Executable>
rbdock ($Id: //depot/dev/client3/rdock/2013.1/src/exe/rbdock.cxx#4 $)

>  <Rbt.Library>
libRbt.so (2013.1, Build901 2013/11/27)

>  <Rbt.Parameter_File>
/export/apps/rDock/src/rDock_2013.1_src/data/scripts/dock_solv.prm

>  <Rbt.Receptor>
prm/pocket_docking_6.prm

>  <SCORE>
-16.6544

>  <SCORE.INTER>
-16.6544

>  <SCORE.INTER.CONST>
1

>  <SCORE.INTER.POLAR>
0

>  <SCORE.INTER.ROT>
0

>  <SCORE.INTER.SOLV>
3.66788

>  <SCORE.INTER.VDW>
-15.9255

>  <SCORE.INTER.norm>
-1.66544

>  <SCORE.INTRA>
0

>  <SCORE.INTRA.DIHEDRAL>
0

>  <SCORE.INTRA.DIHEDRAL.0>
0

>  <SCORE.INTRA.POLAR>
0

>  <SCORE.INTRA.POLAR.0>
0

>  <SCORE.INTRA.REPUL>
0

>  <SCORE.INTRA.REPUL.0>
0

>  <SCORE.INTRA.SOLV>
0

>  <SCORE.INTRA.SOLV.lig_0>
-4.28614

>  <SCORE.INTRA.VDW>
0

>  <SCORE.INTRA.VDW.0>
0

>  <SCORE.INTRA.norm>
0

>  <SCORE.RESTR>
0

>  <SCORE.RESTR.CAVITY>
0

>  <SCORE.RESTR.norm>
0

>  <SCORE.SYSTEM>
0

>  <SCORE.SYSTEM.CONST>
0

>  <SCORE.SYSTEM.DIHEDRAL>
0

>  <SCORE.SYSTEM.SOLV>
0

>  <SCORE.SYSTEM.norm>
0

>  <SCORE.heavy>
10

>  <SCORE.norm>
-1.66544

>  <RMSD>
3.490

$$$$
ligand
 OpenBabel11021811423D
libRbt.so/2013.1/901 2013/11/27
 10 11  0  0  0  0  0  0  0  0999 V2000
  -11.6123  -10.5466    6.4083 N   0  0  0  0  0  0  0  0  0  0  0  0
  -11.8957   -9.6226    7.4160 C   0  0  0  0  0  0  0  0  0  0  0  0
  -12.0483   -9.9845    8.7024 N   0  0  0  0  0  0  0  0  0  0  0  0
  -11.8899  -11.3521    8.9086 C   0  0  0  0  0  0  0  0  0  0  0  0
  -11.6135  -12.3439    7.9658 C   0  0  0  0  0  0  0  0  0  0  0  0
  -11.4557  -11.9623    6.5866 C   0  0  0  0  0  0  0  0  0  0  0  0
  -11.2163  -12.6223    5.6045 O   0  0  0  0  0  0  0  0  0  0  0  0
  -11.5298  -13.5839    8.6248 N   0  0  0  0  0  0  0  0  0  0  0  0
  -11.7513  -13.3098    9.9387 C   0  0  0  0  0  0  0  0  0  0  0  0
  -11.9767  -11.9410   10.1413 N   0  0  0  0  0  0  0  0  0  0  0  0
  1  2  1  0  0  0  0
  1  6  1  0  0  0  0
  2  3  2  0  0  0  0
  3  4  1  0  0  0  0
  4  5  2  0  0  0  0
  4 10  1  0  0  0  0
  5  6  1  0  0  0  0
  5  8  1  0  0  0  0
  6  7  2  0  0  0  0
  8  9  1  0  0  0  0
  9 10  2  0  0  0  0
M  END
>  <CHROM.1>
-11.68998599,-11.74107700,7.98303496,1.14001020,1.37047054,-0.75448419

>  <Name>
ligand

>  <RI>
0

>  <Rbt.Current_Directory>
/home/itssahil/PROJECTS/Mol_Feturizer/New_Systems/rnas/2EES

>  <Rbt.Executable>
rbdock ($Id: //depot/dev/client3/rdock/2013.1/src/exe/rbdock.cxx#4 $)

>  <Rbt.Library>
libRbt.so (2013.1, Build901 2013/11/27)

>  <Rbt.Parameter_File>
/export/apps/rDock/src/rDock_2013.1_src/data/scripts/dock_solv.prm

>  <Rbt.Receptor>
prm/pocket_docking_8.prm

>  <SCORE>
-16.6607

>  <SCORE.INTER>
-16.6607

>  <SCORE.INTER.CONST>
1

>  <SCORE.INTER.POLAR>
0

>  <SCORE.INTER.ROT>
0

>  <SCORE.INTER.SOLV>
3.80843

>  <SCORE.INTER.VDW>
-15.9766

>  <SCORE.INTER.norm>
-1.66607

>  <SCORE.INTRA>
0

>  <SCORE.INTRA.DIHEDRAL>
0

>  <SCORE.INTRA.DIHEDRAL.0>
0

>  <SCORE.INTRA.POLAR>
0

>  <SCORE.INTRA.POLAR.0>
0

>  <SCORE.INTRA.REPUL>
0

>  <SCORE.INTRA.REPUL.0>
0

>  <SCORE.INTRA.SOLV>
0

>  <SCORE.INTRA.SOLV.lig_0>
-4.28614

>  <SCORE.INTRA.VDW>
0

>  <SCORE.INTRA.VDW.0>
0

>  <SCORE.INTRA.norm>
0

>  <SCORE.RESTR>
0

>  <SCORE.RESTR.CAVITY>
0

>  <SCORE.RESTR.norm>
0

>  <SCORE.SYSTEM>
0

>  <SCORE.SYSTEM.CONST>
0

>  <SCORE.SYSTEM.DIHEDRAL>
0

>  <SCORE.SYSTEM.SOLV>
0

>  <SCORE.SYSTEM.norm>
0

>  <SCORE.heavy>
10

>  <SCORE.norm>
-1.66607

>  <RMSD>
3.495

$$$$
ligand
 OpenBabel11021811423D
libRbt.so/2013.1/901 2013/11/27
 10 11  0  0  0  0  0  0  0  0999 V2000
  -11.6591  -10.5257    6.3717 N   0  0  0  0  0  0  0  0  0  0  0  0
  -11.9559   -9.5964    7.3706 C   0  0  0  0  0  0  0  0  0  0  0  0
  -12.0896   -9.9461    8.6624 N   0  0  0  0  0  0  0  0  0  0  0  0
  -11.8977  -11.3070    8.8836 C   0  0  0  0  0  0  0  0  0  0  0  0
  -11.6059  -12.3035    7.9505 C   0  0  0  0  0  0  0  0  0  0  0  0
  -11.4681  -11.9352    6.5656 C   0  0  0  0  0  0  0  0  0  0  0  0
  -11.2212  -12.6013    5.5895 O   0  0  0  0  0  0  0  0  0  0  0  0
  -11.4880  -13.5332    8.6236 N   0  0  0  0  0  0  0  0  0  0  0  0
  -11.7053  -13.2483    9.9359 C   0  0  0  0  0  0  0  0  0  0  0  0
  -11.9609  -11.8828   10.1239 N   0  0  0  0  0  0  0  0  0  0  0  0
  1  2  1  0  0  0  0
  1  6  1  0  0  0  0
  2  3  2  0  0  0  0
  3  4  1  0  0  0  0
  4  5  2  0  0  0  0
  4 10  1  0  0  0  0
  5  6  1  0  0  0  0
  5  8  1  0  0  0  0
  6  7  2  0  0  0  0
  8  9  1  0  0  0  0
  9 10  2  0  0  0  0
M  END
>  <CHROM.1>
-11.69625158,-11.70248502,7.96115500,1.24724477,1.35915859,-0.87151277

>  <Name>
ligand

>  <RI>
0

>  <Rbt.Current_Directory>
/home/itssahil/PROJECTS/Mol_Feturizer/New_Systems/rnas/2EES

>  <Rbt.Executable>
rbdock ($Id: //depot/dev/client3/rdock/2013.1/src/exe/rbdock.cxx#4 $)

>  <Rbt.Library>
libRbt.so (2013.1, Build901 2013/11/27)

>  <Rbt.Parameter_File>
/export/apps/rDock/src/rDock_2013.1_src/data/scripts/dock_solv.prm

>  <Rbt.Receptor>
prm/blind_docking_100.prm

>  <SCORE>
-16.6271

>  <SCORE.INTER>
-16.6271

>  <SCORE.INTER.CONST>
1

>  <SCORE.INTER.POLAR>
0

>  <SCORE.INTER.ROT>
0

>  <SCORE.INTER.SOLV>
3.78707

>  <SCORE.INTER.VDW>
-15.9471

>  <SCORE.INTER.norm>
-1.66271

>  <SCORE.INTRA>
0

>  <SCORE.INTRA.DIHEDRAL>
0

>  <SCORE.INTRA.DIHEDRAL.0>
0

>  <SCORE.INTRA.POLAR>
0

>  <SCORE.INTRA.POLAR.0>
0

>  <SCORE.INTRA.REPUL>
0

>  <SCORE.INTRA.REPUL.0>
0

>  <SCORE.INTRA.SOLV>
0

>  <SCORE.INTRA.SOLV.lig_0>
-4.28614

>  <SCORE.INTRA.VDW>
0

>  <SCORE.INTRA.VDW.0>
0

>  <SCORE.INTRA.norm>
0

>  <SCORE.RESTR>
0

>  <SCORE.RESTR.CAVITY>
0

>  <SCORE.RESTR.norm>
0

>  <SCORE.SYSTEM>
0

>  <SCORE.SYSTEM.CONST>
0

>  <SCORE.SYSTEM.DIHEDRAL>
0

>  <SCORE.SYSTEM.SOLV>
0

>  <SCORE.SYSTEM.norm>
0

>  <SCORE.heavy>
10

>  <SCORE.norm>
-1.66271

>  <RMSD>
3.497

$$$$
ligand
 OpenBabel11021811423D
libRbt.so/2013.1/901 2013/11/27
 10 11  0  0  0  0  0  0  0  0999 V2000
  -11.6456  -10.5409    6.4014 N   0  0  0  0  0  0  0  0  0  0  0  0
  -11.9354   -9.6150    7.4055 C   0  0  0  0  0  0  0  0  0  0  0  0
  -12.0794   -9.9720    8.6942 N   0  0  0  0  0  0  0  0  0  0  0  0
  -11.9055  -11.3367    8.9067 C   0  0  0  0  0  0  0  0  0  0  0  0
  -11.6217  -12.3302    7.9678 C   0  0  0  0  0  0  0  0  0  0  0  0
  -11.4730  -11.9539    6.5862 C   0  0  0  0  0  0  0  0  0  0  0  0
  -11.2300  -12.6163    5.6065 O   0  0  0  0  0  0  0  0  0  0  0  0
  -11.5223  -13.5660    8.6327 N   0  0  0  0  0  0  0  0  0  0  0  0
  -11.7420  -13.2876    9.9461 C   0  0  0  0  0  0  0  0  0  0  0  0
  -11.9815  -11.9203   10.1426 N   0  0  0  0  0  0  0  0  0  0  0  0
  1  2  1  0  0  0  0
  1  6  1  0  0  0  0
  2  3  2  0  0  0  0
  3  4  1  0  0  0  0
  4  5  2  0  0  0  0
  4 10  1  0  0  0  0
  5  6  1  0  0  0  0
  5  8  1  0  0  0  0
  6  7  2  0  0  0  0
  8  9  1  0  0  0  0
  9 10  2  0  0  0  0
M  END
>  <CHROM.1>
-11.70467710,-11.72818813,7.98232092,1.19073123,1.36540910,-0.80918947

>  <Name>
ligand

>  <RI>
0

>  <Rbt.Current_Directory>
/home/itssahil/PROJECTS/Mol_Feturizer/New_Systems/rnas/2EES

>  <Rbt.Executable>
rbdock ($Id: //depot/dev/client3/rdock/2013.1/src/exe/rbdock.cxx#4 $)

>  <Rbt.Library>
libRbt.so (2013.1, Build901 2013/11/27)

>  <Rbt.Parameter_File>
/export/apps/rDock/src/rDock_2013.1_src/data/scripts/dock_solv.prm

>  <Rbt.Receptor>
prm/pocket_docking_5.prm

>  <SCORE>
-16.6664

>  <SCORE.INTER>
-16.6664

>  <SCORE.INTER.CONST>
1

>  <SCORE.INTER.POLAR>
0

>  <SCORE.INTER.ROT>
0

>  <SCORE.INTER.SOLV>
3.79573

>  <SCORE.INTER.VDW>
-15.9762

>  <SCORE.INTER.norm>
-1.66664

>  <SCORE.INTRA>
0

>  <SCORE.INTRA.DIHEDRAL>
0

>  <SCORE.INTRA.DIHEDRAL.0>
0

>  <SCORE.INTRA.POLAR>
0

>  <SCORE.INTRA.POLAR.0>
0

>  <SCORE.INTRA.REPUL>
0

>  <SCORE.INTRA.REPUL.0>
0

>  <SCORE.INTRA.SOLV>
0

>  <SCORE.INTRA.SOLV.lig_0>
-4.28614

>  <SCORE.INTRA.VDW>
0

>  <SCORE.INTRA.VDW.0>
0

>  <SCORE.INTRA.norm>
0

>  <SCORE.RESTR>
0

>  <SCORE.RESTR.CAVITY>
0

>  <SCORE.RESTR.norm>
0

>  <SCORE.SYSTEM>
0

>  <SCORE.SYSTEM.CONST>
0

>  <SCORE.SYSTEM.DIHEDRAL>
0

>  <SCORE.SYSTEM.SOLV>
0

>  <SCORE.SYSTEM.norm>
0

>  <SCORE.heavy>
10

>  <SCORE.norm>
-1.66664

>  <RMSD>
3.497

$$$$
ligand
 OpenBabel11021811423D
libRbt.so/2013.1/901 2013/11/27
 10 11  0  0  0  0  0  0  0  0999 V2000
  -11.6786  -10.5630    6.3427 N   0  0  0  0  0  0  0  0  0  0  0  0
  -11.9832   -9.6282    7.3342 C   0  0  0  0  0  0  0  0  0  0  0  0
  -12.1230   -9.9702    8.6275 N   0  0  0  0  0  0  0  0  0  0  0  0
  -11.9288  -11.3292    8.8582 C   0  0  0  0  0  0  0  0  0  0  0  0
  -11.6294  -12.3307    7.9329 C   0  0  0  0  0  0  0  0  0  0  0  0
  -11.4851  -11.9707    6.5465 C   0  0  0  0  0  0  0  0  0  0  0  0
  -11.2312  -12.6423    5.5759 O   0  0  0  0  0  0  0  0  0  0  0  0
  -11.5120  -13.5559    8.6143 N   0  0  0  0  0  0  0  0  0  0  0  0
  -11.7370  -13.2633    9.9237 C   0  0  0  0  0  0  0  0  0  0  0  0
  -11.9973  -11.8973   10.1017 N   0  0  0  0  0  0  0  0  0  0  0  0
  1  2  1  0  0  0  0
  1  6  1  0  0  0  0
  2  3  2  0  0  0  0
  3  4  1  0  0  0  0
  4  5  2  0  0  0  0
  4 10  1  0  0  0  0
  5  6  1  0  0  0  0
  5  8  1  0  0  0  0
  6  7  2  0  0  0  0
  8  9  1  0  0  0  0
  9 10  2  0  0  0  0
M  END
>  <CHROM.1>
-11.72136055,-11.72989652,7.93933074,1.23574429,1.35370677,-0.86654120

>  <Name>
ligand

>  <RI>
0

>  <Rbt.Current_Directory>
/home/itssahil/PROJECTS/Mol_Feturizer/New_Systems/rnas/2EES

>  <Rbt.Executable>
rbdock ($Id: //depot/dev/client3/rdock/2013.1/src/exe/rbdock.cxx#4 $)

>  <Rbt.Library>
libRbt.so (2013.1, Build901 2013/11/27)

>  <Rbt.Parameter_File>
/export/apps/rDock/src/rDock_2013.1_src/data/scripts/dock_solv.prm

>  <Rbt.Receptor>
prm/blind_docking_100.prm

>  <SCORE>
-16.6131

>  <SCORE.INTER>
-16.6131

>  <SCORE.INTER.CONST>
1

>  <SCORE.INTER.POLAR>
0

>  <SCORE.INTER.ROT>
0

>  <SCORE.INTER.SOLV>
3.77746

>  <SCORE.INTER.VDW>
-15.9346

>  <SCORE.INTER.norm>
-1.66131

>  <SCORE.INTRA>
0

>  <SCORE.INTRA.DIHEDRAL>
0

>  <SCORE.INTRA.DIHEDRAL.0>
0

>  <SCORE.INTRA.POLAR>
0

>  <SCORE.INTRA.POLAR.0>
0

>  <SCORE.INTRA.REPUL>
0

>  <SCORE.INTRA.REPUL.0>
0

>  <SCORE.INTRA.SOLV>
0

>  <SCORE.INTRA.SOLV.lig_0>
-4.28614

>  <SCORE.INTRA.VDW>
0

>  <SCORE.INTRA.VDW.0>
0

>  <SCORE.INTRA.norm>
0

>  <SCORE.RESTR>
0

>  <SCORE.RESTR.CAVITY>
0

>  <SCORE.RESTR.norm>
0

>  <SCORE.SYSTEM>
0

>  <SCORE.SYSTEM.CONST>
0

>  <SCORE.SYSTEM.DIHEDRAL>
0

>  <SCORE.SYSTEM.SOLV>
0

>  <SCORE.SYSTEM.norm>
0

>  <SCORE.heavy>
10

>  <SCORE.norm>
-1.66131

>  <RMSD>
3.501

$$$$
ligand
 OpenBabel11021811423D
libRbt.so/2013.1/901 2013/11/27
 10 11  0  0  0  0  0  0  0  0999 V2000
  -11.6315  -10.5483    6.3881 N   0  0  0  0  0  0  0  0  0  0  0  0
  -11.9363   -9.6190    7.3846 C   0  0  0  0  0  0  0  0  0  0  0  0
  -12.0922   -9.9706    8.6735 N   0  0  0  0  0  0  0  0  0  0  0  0
  -11.9139  -11.3334    8.8943 C   0  0  0  0  0  0  0  0  0  0  0  0
  -11.6154  -12.3300    7.9633 C   0  0  0  0  0  0  0  0  0  0  0  0
  -11.4540  -11.9596    6.5816 C   0  0  0  0  0  0  0  0  0  0  0  0
  -11.1974  -12.6254    5.6077 O   0  0  0  0  0  0  0  0  0  0  0  0
  -11.5169  -13.5620    8.6353 N   0  0  0  0  0  0  0  0  0  0  0  0
  -11.7519  -13.2784    9.9448 C   0  0  0  0  0  0  0  0  0  0  0  0
  -12.0001  -11.9114   10.1322 N   0  0  0  0  0  0  0  0  0  0  0  0
  1  2  1  0  0  0  0
  1  6  1  0  0  0  0
  2  3  2  0  0  0  0
  3  4  1  0  0  0  0
  4  5  2  0  0  0  0
  4 10  1  0  0  0  0
  5  6  1  0  0  0  0
  5  8  1  0  0  0  0
  6  7  2  0  0  0  0
  8  9  1  0  0  0  0
  9 10  2  0  0  0  0
M  END
>  <CHROM.1>
-11.70143933,-11.72828331,7.97407208,1.17080796,1.35454814,-0.79452382

>  <Name>
ligand

>  <RI>
0

>  <Rbt.Current_Directory>
/home/itssahil/PROJECTS/Mol_Feturizer/New_Systems/rnas/2EES

>  <Rbt.Executable>
rbdock ($Id: //depot/dev/client3/rdock/2013.1/src/exe/rbdock.cxx#4 $)

>  <Rbt.Library>
libRbt.so (2013.1, Build901 2013/11/27)

>  <Rbt.Parameter_File>
/export/apps/rDock/src/rDock_2013.1_src/data/scripts/dock_solv.prm

>  <Rbt.Receptor>
prm/blind_docking_60.prm

>  <SCORE>
-16.6959

>  <SCORE.INTER>
-16.6959

>  <SCORE.INTER.CONST>
1

>  <SCORE.INTER.POLAR>
0

>  <SCORE.INTER.ROT>
0

>  <SCORE.INTER.SOLV>
3.7586

>  <SCORE.INTER.VDW>
-15.9835

>  <SCORE.INTER.norm>
-1.66959

>  <SCORE.INTRA>
0

>  <SCORE.INTRA.DIHEDRAL>
0

>  <SCORE.INTRA.DIHEDRAL.0>
0

>  <SCORE.INTRA.POLAR>
0

>  <SCORE.INTRA.POLAR.0>
0

>  <SCORE.INTRA.REPUL>
0

>  <SCORE.INTRA.REPUL.0>
0

>  <SCORE.INTRA.SOLV>
0

>  <SCORE.INTRA.SOLV.lig_0>
-4.28614

>  <SCORE.INTRA.VDW>
0

>  <SCORE.INTRA.VDW.0>
0

>  <SCORE.INTRA.norm>
0

>  <SCORE.RESTR>
0

>  <SCORE.RESTR.CAVITY>
0

>  <SCORE.RESTR.norm>
0

>  <SCORE.SYSTEM>
0

>  <SCORE.SYSTEM.CONST>
0

>  <SCORE.SYSTEM.DIHEDRAL>
0

>  <SCORE.SYSTEM.SOLV>
0

>  <SCORE.SYSTEM.norm>
0

>  <SCORE.heavy>
10

>  <SCORE.norm>
-1.66959

>  <RMSD>
3.502

$$$$
ligand
 OpenBabel11021811423D
libRbt.so/2013.1/901 2013/11/27
 10 11  0  0  0  0  0  0  0  0999 V2000
  -11.5565  -10.5595    6.3668 N   0  0  0  0  0  0  0  0  0  0  0  0
  -11.8743   -9.6293    7.3584 C   0  0  0  0  0  0  0  0  0  0  0  0
  -12.0646   -9.9823    8.6423 N   0  0  0  0  0  0  0  0  0  0  0  0
  -11.9069  -11.3476    8.8635 C   0  0  0  0  0  0  0  0  0  0  0  0
  -11.5978  -12.3451    7.9371 C   0  0  0  0  0  0  0  0  0  0  0  0
  -11.3995  -11.9732    6.5605 C   0  0  0  0  0  0  0  0  0  0  0  0
  -11.1275  -12.6394    5.5911 O   0  0  0  0  0  0  0  0  0  0  0  0
  -11.5291  -13.5799    8.6077 N   0  0  0  0  0  0  0  0  0  0  0  0
  -11.7917  -13.2969    9.9121 C   0  0  0  0  0  0  0  0  0  0  0  0
  -12.0289  -11.9277   10.0974 N   0  0  0  0  0  0  0  0  0  0  0  0
  1  2  1  0  0  0  0
  1  6  1  0  0  0  0
  2  3  2  0  0  0  0
  3  4  1  0  0  0  0
  4  5  2  0  0  0  0
  4 10  1  0  0  0  0
  5  6  1  0  0  0  0
  5  8  1  0  0  0  0
  6  7  2  0  0  0  0
  8  9  1  0  0  0  0
  9 10  2  0  0  0  0
M  END
>  <CHROM.1>
-11.67723192,-11.74257086,7.94741790,1.06013727,1.34469499,-0.68390729

>  <Name>
ligand

>  <RI>
0

>  <Rbt.Current_Directory>
/home/itssahil/PROJECTS/Mol_Feturizer/New_Systems/rnas/2EES

>  <Rbt.Executable>
rbdock ($Id: //depot/dev/client3/rdock/2013.1/src/exe/rbdock.cxx#4 $)

>  <Rbt.Library>
libRbt.so (2013.1, Build901 2013/11/27)

>  <Rbt.Parameter_File>
/export/apps/rDock/src/rDock_2013.1_src/data/scripts/dock_solv.prm

>  <Rbt.Receptor>
prm/pocket_docking_3.prm

>  <SCORE>
-16.6387

>  <SCORE.INTER>
-16.6387

>  <SCORE.INTER.CONST>
1

>  <SCORE.INTER.POLAR>
0

>  <SCORE.INTER.ROT>
0

>  <SCORE.INTER.SOLV>
3.72507

>  <SCORE.INTER.VDW>
-15.9342

>  <SCORE.INTER.norm>
-1.66387

>  <SCORE.INTRA>
0

>  <SCORE.INTRA.DIHEDRAL>
0

>  <SCORE.INTRA.DIHEDRAL.0>
0

>  <SCORE.INTRA.POLAR>
0

>  <SCORE.INTRA.POLAR.0>
0

>  <SCORE.INTRA.REPUL>
0

>  <SCORE.INTRA.REPUL.0>
0

>  <SCORE.INTRA.SOLV>
0

>  <SCORE.INTRA.SOLV.lig_0>
-4.28614

>  <SCORE.INTRA.VDW>
0

>  <SCORE.INTRA.VDW.0>
0

>  <SCORE.INTRA.norm>
0

>  <SCORE.RESTR>
0

>  <SCORE.RESTR.CAVITY>
0

>  <SCORE.RESTR.norm>
0

>  <SCORE.SYSTEM>
0

>  <SCORE.SYSTEM.CONST>
0

>  <SCORE.SYSTEM.DIHEDRAL>
0

>  <SCORE.SYSTEM.SOLV>
0

>  <SCORE.SYSTEM.norm>
0

>  <SCORE.heavy>
10

>  <SCORE.norm>
-1.66387

>  <RMSD>
3.503

$$$$
ligand
 OpenBabel11021811423D
libRbt.so/2013.1/901 2013/11/27
 10 11  0  0  0  0  0  0  0  0999 V2000
  -11.6384  -10.5505    6.3851 N   0  0  0  0  0  0  0  0  0  0  0  0
  -11.9490   -9.6195    7.3783 C   0  0  0  0  0  0  0  0  0  0  0  0
  -12.1065   -9.9680    8.6678 N   0  0  0  0  0  0  0  0  0  0  0  0
  -11.9237  -11.3295    8.8930 C   0  0  0  0  0  0  0  0  0  0  0  0
  -11.6195  -12.3276    7.9655 C   0  0  0  0  0  0  0  0  0  0  0  0
  -11.4562  -11.9606    6.5831 C   0  0  0  0  0  0  0  0  0  0  0  0
  -11.1950  -12.6283    5.6117 O   0  0  0  0  0  0  0  0  0  0  0  0
  -11.5181  -13.5574    8.6412 N   0  0  0  0  0  0  0  0  0  0  0  0
  -11.7570  -13.2709    9.9494 C   0  0  0  0  0  0  0  0  0  0  0  0
  -12.0107  -11.9043   10.1322 N   0  0  0  0  0  0  0  0  0  0  0  0
  1  2  1  0  0  0  0
  1  6  1  0  0  0  0
  2  3  2  0  0  0  0
  3  4  1  0  0  0  0
  4  5  2  0  0  0  0
  4 10  1  0  0  0  0
  5  6  1  0  0  0  0
  5  8  1  0  0  0  0
  6  7  2  0  0  0  0
  8  9  1  0  0  0  0
  9 10  2  0  0  0  0
M  END
>  <CHROM.1>
-11.70774421,-11.72624792,7.97431182,1.17500068,1.35034403,-0.80147418

>  <Name>
ligand

>  <RI>
0

>  <Rbt.Current_Directory>
/home/itssahil/PROJECTS/Mol_Feturizer/New_Systems/rnas/2EES

>  <Rbt.Executable>
rbdock ($Id: //depot/dev/client3/rdock/2013.1/src/exe/rbdock.cxx#4 $)

>  <Rbt.Library>
libRbt.so (2013.1, Build901 2013/11/27)

>  <Rbt.Parameter_File>
/export/apps/rDock/src/rDock_2013.1_src/data/scripts/dock_solv.prm

>  <Rbt.Receptor>
prm/blind_docking_80.prm

>  <SCORE>
-16.6979

>  <SCORE.INTER>
-16.6979

>  <SCORE.INTER.CONST>
1

>  <SCORE.INTER.POLAR>
0

>  <SCORE.INTER.ROT>
0

>  <SCORE.INTER.SOLV>
3.7448

>  <SCORE.INTER.VDW>
-15.9802

>  <SCORE.INTER.norm>
-1.66979

>  <SCORE.INTRA>
0

>  <SCORE.INTRA.DIHEDRAL>
0

>  <SCORE.INTRA.DIHEDRAL.0>
0

>  <SCORE.INTRA.POLAR>
0

>  <SCORE.INTRA.POLAR.0>
0

>  <SCORE.INTRA.REPUL>
0

>  <SCORE.INTRA.REPUL.0>
0

>  <SCORE.INTRA.SOLV>
0

>  <SCORE.INTRA.SOLV.lig_0>
-4.28614

>  <SCORE.INTRA.VDW>
0

>  <SCORE.INTRA.VDW.0>
0

>  <SCORE.INTRA.norm>
0

>  <SCORE.RESTR>
0

>  <SCORE.RESTR.CAVITY>
0

>  <SCORE.RESTR.norm>
0

>  <SCORE.SYSTEM>
0

>  <SCORE.SYSTEM.CONST>
0

>  <SCORE.SYSTEM.DIHEDRAL>
0

>  <SCORE.SYSTEM.SOLV>
0

>  <SCORE.SYSTEM.norm>
0

>  <SCORE.heavy>
10

>  <SCORE.norm>
-1.66979

>  <RMSD>
3.504

$$$$
ligand
 OpenBabel11021811423D
libRbt.so/2013.1/901 2013/11/27
 10 11  0  0  0  0  0  0  0  0999 V2000
  -11.6239  -10.5524    6.3919 N   0  0  0  0  0  0  0  0  0  0  0  0
  -11.9240   -9.6198    7.3867 C   0  0  0  0  0  0  0  0  0  0  0  0
  -12.0845   -9.9687    8.6758 N   0  0  0  0  0  0  0  0  0  0  0  0
  -11.9158  -11.3324    8.8986 C   0  0  0  0  0  0  0  0  0  0  0  0
  -11.6227  -12.3322    7.9693 C   0  0  0  0  0  0  0  0  0  0  0  0
  -11.4564  -11.9647    6.5874 C   0  0  0  0  0  0  0  0  0  0  0  0
  -11.2027  -12.6334    5.6148 O   0  0  0  0  0  0  0  0  0  0  0  0
  -11.5337  -13.5641    8.6429 N   0  0  0  0  0  0  0  0  0  0  0  0
  -11.7689  -13.2772    9.9518 C   0  0  0  0  0  0  0  0  0  0  0  0
  -12.0081  -11.9083   10.1370 N   0  0  0  0  0  0  0  0  0  0  0  0
  1  2  1  0  0  0  0
  1  6  1  0  0  0  0
  2  3  2  0  0  0  0
  3  4  1  0  0  0  0
  4  5  2  0  0  0  0
  4 10  1  0  0  0  0
  5  6  1  0  0  0  0
  5  8  1  0  0  0  0
  6  7  2  0  0  0  0
  8  9  1  0  0  0  0
  9 10  2  0  0  0  0
M  END
>  <CHROM.1>
-11.70457719,-11.72995704,7.97918370,1.14243160,1.35818820,-0.76803683

>  <Name>
ligand

>  <RI>
0

>  <Rbt.Current_Directory>
/home/itssahil/PROJECTS/Mol_Feturizer/New_Systems/rnas/2EES

>  <Rbt.Executable>
rbdock ($Id: //depot/dev/client3/rdock/2013.1/src/exe/rbdock.cxx#4 $)

>  <Rbt.Library>
libRbt.so (2013.1, Build901 2013/11/27)

>  <Rbt.Parameter_File>
/export/apps/rDock/src/rDock_2013.1_src/data/scripts/dock_solv.prm

>  <Rbt.Receptor>
prm/pocket_docking_5.prm

>  <SCORE>
-16.6606

>  <SCORE.INTER>
-16.6606

>  <SCORE.INTER.CONST>
1

>  <SCORE.INTER.POLAR>
0

>  <SCORE.INTER.ROT>
0

>  <SCORE.INTER.SOLV>
3.7678

>  <SCORE.INTER.VDW>
-15.963

>  <SCORE.INTER.norm>
-1.66606

>  <SCORE.INTRA>
0

>  <SCORE.INTRA.DIHEDRAL>
0

>  <SCORE.INTRA.DIHEDRAL.0>
0

>  <SCORE.INTRA.POLAR>
0

>  <SCORE.INTRA.POLAR.0>
0

>  <SCORE.INTRA.REPUL>
0

>  <SCORE.INTRA.REPUL.0>
0

>  <SCORE.INTRA.SOLV>
0

>  <SCORE.INTRA.SOLV.lig_0>
-4.28614

>  <SCORE.INTRA.VDW>
0

>  <SCORE.INTRA.VDW.0>
0

>  <SCORE.INTRA.norm>
0

>  <SCORE.RESTR>
0

>  <SCORE.RESTR.CAVITY>
0

>  <SCORE.RESTR.norm>
0

>  <SCORE.SYSTEM>
0

>  <SCORE.SYSTEM.CONST>
0

>  <SCORE.SYSTEM.DIHEDRAL>
0

>  <SCORE.SYSTEM.SOLV>
0

>  <SCORE.SYSTEM.norm>
0

>  <SCORE.heavy>
10

>  <SCORE.norm>
-1.66606

>  <RMSD>
3.505

$$$$
ligand
 OpenBabel11021811423D
libRbt.so/2013.1/901 2013/11/27
 10 11  0  0  0  0  0  0  0  0999 V2000
  -11.6523  -10.5873    6.3539 N   0  0  0  0  0  0  0  0  0  0  0  0
  -11.9533   -9.6463    7.3405 C   0  0  0  0  0  0  0  0  0  0  0  0
  -12.1028   -9.9824    8.6343 N   0  0  0  0  0  0  0  0  0  0  0  0
  -11.9222  -11.3423    8.8708 C   0  0  0  0  0  0  0  0  0  0  0  0
  -11.6272  -12.3498    7.9505 C   0  0  0  0  0  0  0  0  0  0  0  0
  -11.4726  -11.9960    6.5636 C   0  0  0  0  0  0  0  0  0  0  0  0
  -11.2200  -12.6733    5.5967 O   0  0  0  0  0  0  0  0  0  0  0  0
  -11.5245  -13.5735    8.6368 N   0  0  0  0  0  0  0  0  0  0  0  0
  -11.7535  -13.2743    9.9439 C   0  0  0  0  0  0  0  0  0  0  0  0
  -12.0021  -11.9054   10.1159 N   0  0  0  0  0  0  0  0  0  0  0  0
  1  2  1  0  0  0  0
  1  6  1  0  0  0  0
  2  3  2  0  0  0  0
  3  4  1  0  0  0  0
  4  5  2  0  0  0  0
  4 10  1  0  0  0  0
  5  6  1  0  0  0  0
  5  8  1  0  0  0  0
  6  7  2  0  0  0  0
  8  9  1  0  0  0  0
  9 10  2  0  0  0  0
M  END
>  <CHROM.1>
-11.71374694,-11.74811226,7.95434513,1.18967945,1.35714930,-0.82504835

>  <Name>
ligand

>  <RI>
0

>  <Rbt.Current_Directory>
/home/itssahil/PROJECTS/Mol_Feturizer/New_Systems/rnas/2EES

>  <Rbt.Executable>
rbdock ($Id: //depot/dev/client3/rdock/2013.1/src/exe/rbdock.cxx#4 $)

>  <Rbt.Library>
libRbt.so (2013.1, Build901 2013/11/27)

>  <Rbt.Parameter_File>
/export/apps/rDock/src/rDock_2013.1_src/data/scripts/dock_solv.prm

>  <Rbt.Receptor>
prm/blind_docking_60.prm

>  <SCORE>
-16.6583

>  <SCORE.INTER>
-16.6583

>  <SCORE.INTER.CONST>
1

>  <SCORE.INTER.POLAR>
0

>  <SCORE.INTER.ROT>
0

>  <SCORE.INTER.SOLV>
3.78394

>  <SCORE.INTER.VDW>
-15.9668

>  <SCORE.INTER.norm>
-1.66583

>  <SCORE.INTRA>
0

>  <SCORE.INTRA.DIHEDRAL>
0

>  <SCORE.INTRA.DIHEDRAL.0>
0

>  <SCORE.INTRA.POLAR>
0

>  <SCORE.INTRA.POLAR.0>
0

>  <SCORE.INTRA.REPUL>
0

>  <SCORE.INTRA.REPUL.0>
0

>  <SCORE.INTRA.SOLV>
0

>  <SCORE.INTRA.SOLV.lig_0>
-4.28614

>  <SCORE.INTRA.VDW>
0

>  <SCORE.INTRA.VDW.0>
0

>  <SCORE.INTRA.norm>
0

>  <SCORE.RESTR>
0

>  <SCORE.RESTR.CAVITY>
0

>  <SCORE.RESTR.norm>
0

>  <SCORE.SYSTEM>
0

>  <SCORE.SYSTEM.CONST>
0

>  <SCORE.SYSTEM.DIHEDRAL>
0

>  <SCORE.SYSTEM.SOLV>
0

>  <SCORE.SYSTEM.norm>
0

>  <SCORE.heavy>
10

>  <SCORE.norm>
-1.66583

>  <RMSD>
3.508

$$$$
ligand
 OpenBabel11021811423D
libRbt.so/2013.1/901 2013/11/27
 10 11  0  0  0  0  0  0  0  0999 V2000
  -11.5786  -10.5629    6.3754 N   0  0  0  0  0  0  0  0  0  0  0  0
  -11.8974   -9.6283    7.3626 C   0  0  0  0  0  0  0  0  0  0  0  0
  -12.0793   -9.9741    8.6496 N   0  0  0  0  0  0  0  0  0  0  0  0
  -11.9121  -11.3369    8.8788 C   0  0  0  0  0  0  0  0  0  0  0  0
  -11.6013  -12.3386    7.9574 C   0  0  0  0  0  0  0  0  0  0  0  0
  -11.4120  -11.9743    6.5775 C   0  0  0  0  0  0  0  0  0  0  0  0
  -11.1405  -12.6451    5.6111 O   0  0  0  0  0  0  0  0  0  0  0  0
  -11.5218  -13.5685    8.6356 N   0  0  0  0  0  0  0  0  0  0  0  0
  -11.7799  -13.2787    9.9395 C   0  0  0  0  0  0  0  0  0  0  0  0
  -12.0246  -11.9098   10.1170 N   0  0  0  0  0  0  0  0  0  0  0  0
  1  2  1  0  0  0  0
  1  6  1  0  0  0  0
  2  3  2  0  0  0  0
  3  4  1  0  0  0  0
  4  5  2  0  0  0  0
  4 10  1  0  0  0  0
  5  6  1  0  0  0  0
  5  8  1  0  0  0  0
  6  7  2  0  0  0  0
  8  9  1  0  0  0  0
  9 10  2  0  0  0  0
M  END
>  <CHROM.1>
-11.68444958,-11.73644738,7.96421253,1.09496832,1.34438716,-0.72431491

>  <Name>
ligand

>  <RI>
0

>  <Rbt.Current_Directory>
/home/itssahil/PROJECTS/Mol_Feturizer/New_Systems/rnas/2EES

>  <Rbt.Executable>
rbdock ($Id: //depot/dev/client3/rdock/2013.1/src/exe/rbdock.cxx#4 $)

>  <Rbt.Library>
libRbt.so (2013.1, Build901 2013/11/27)

>  <Rbt.Parameter_File>
/export/apps/rDock/src/rDock_2013.1_src/data/scripts/dock_solv.prm

>  <Rbt.Receptor>
prm/pocket_docking_3.prm

>  <SCORE>
-16.6873

>  <SCORE.INTER>
-16.6873

>  <SCORE.INTER.CONST>
1

>  <SCORE.INTER.POLAR>
0

>  <SCORE.INTER.ROT>
0

>  <SCORE.INTER.SOLV>
3.71997

>  <SCORE.INTER.VDW>
-15.9649

>  <SCORE.INTER.norm>
-1.66873

>  <SCORE.INTRA>
0

>  <SCORE.INTRA.DIHEDRAL>
0

>  <SCORE.INTRA.DIHEDRAL.0>
0

>  <SCORE.INTRA.POLAR>
0

>  <SCORE.INTRA.POLAR.0>
0

>  <SCORE.INTRA.REPUL>
0

>  <SCORE.INTRA.REPUL.0>
0

>  <SCORE.INTRA.SOLV>
0

>  <SCORE.INTRA.SOLV.lig_0>
-4.28614

>  <SCORE.INTRA.VDW>
0

>  <SCORE.INTRA.VDW.0>
0

>  <SCORE.INTRA.norm>
0

>  <SCORE.RESTR>
0

>  <SCORE.RESTR.CAVITY>
0

>  <SCORE.RESTR.norm>
0

>  <SCORE.SYSTEM>
0

>  <SCORE.SYSTEM.CONST>
0

>  <SCORE.SYSTEM.DIHEDRAL>
0

>  <SCORE.SYSTEM.SOLV>
0

>  <SCORE.SYSTEM.norm>
0

>  <SCORE.heavy>
10

>  <SCORE.norm>
-1.66873

>  <RMSD>
3.508

$$$$
ligand
 OpenBabel11021811423D
libRbt.so/2013.1/901 2013/11/27
 10 11  0  0  0  0  0  0  0  0999 V2000
  -11.5898  -10.5641    6.3797 N   0  0  0  0  0  0  0  0  0  0  0  0
  -11.9124   -9.6310    7.3670 C   0  0  0  0  0  0  0  0  0  0  0  0
  -12.0936   -9.9779    8.6538 N   0  0  0  0  0  0  0  0  0  0  0  0
  -11.9216  -11.3402    8.8827 C   0  0  0  0  0  0  0  0  0  0  0  0
  -11.6067  -12.3404    7.9610 C   0  0  0  0  0  0  0  0  0  0  0  0
  -11.4181  -11.9749    6.5813 C   0  0  0  0  0  0  0  0  0  0  0  0
  -11.1438  -12.6444    5.6148 O   0  0  0  0  0  0  0  0  0  0  0  0
  -11.5230  -13.5702    8.6388 N   0  0  0  0  0  0  0  0  0  0  0  0
  -11.7826  -13.2818    9.9427 C   0  0  0  0  0  0  0  0  0  0  0  0
  -12.0325  -11.9139   10.1206 N   0  0  0  0  0  0  0  0  0  0  0  0
  1  2  1  0  0  0  0
  1  6  1  0  0  0  0
  2  3  2  0  0  0  0
  3  4  1  0  0  0  0
  4  5  2  0  0  0  0
  4 10  1  0  0  0  0
  5  6  1  0  0  0  0
  5  8  1  0  0  0  0
  6  7  2  0  0  0  0
  8  9  1  0  0  0  0
  9 10  2  0  0  0  0
M  END
>  <CHROM.1>
-11.69200910,-11.73854298,7.96799786,1.10578803,1.34163363,-0.73450749

>  <Name>
ligand

>  <RI>
0

>  <Rbt.Current_Directory>
/home/itssahil/PROJECTS/Mol_Feturizer/New_Systems/rnas/2EES

>  <Rbt.Executable>
rbdock ($Id: //depot/dev/client3/rdock/2013.1/src/exe/rbdock.cxx#4 $)

>  <Rbt.Library>
libRbt.so (2013.1, Build901 2013/11/27)

>  <Rbt.Parameter_File>
/export/apps/rDock/src/rDock_2013.1_src/data/scripts/dock_solv.prm

>  <Rbt.Receptor>
prm/pocket_docking_7.prm

>  <SCORE>
-16.688

>  <SCORE.INTER>
-16.688

>  <SCORE.INTER.CONST>
1

>  <SCORE.INTER.POLAR>
0

>  <SCORE.INTER.ROT>
0

>  <SCORE.INTER.SOLV>
3.71207

>  <SCORE.INTER.VDW>
-15.9627

>  <SCORE.INTER.norm>
-1.6688

>  <SCORE.INTRA>
0

>  <SCORE.INTRA.DIHEDRAL>
0

>  <SCORE.INTRA.DIHEDRAL.0>
0

>  <SCORE.INTRA.POLAR>
0

>  <SCORE.INTRA.POLAR.0>
0

>  <SCORE.INTRA.REPUL>
0

>  <SCORE.INTRA.REPUL.0>
0

>  <SCORE.INTRA.SOLV>
0

>  <SCORE.INTRA.SOLV.lig_0>
-4.28614

>  <SCORE.INTRA.VDW>
0

>  <SCORE.INTRA.VDW.0>
0

>  <SCORE.INTRA.norm>
0

>  <SCORE.RESTR>
0

>  <SCORE.RESTR.CAVITY>
0

>  <SCORE.RESTR.norm>
0

>  <SCORE.SYSTEM>
0

>  <SCORE.SYSTEM.CONST>
0

>  <SCORE.SYSTEM.DIHEDRAL>
0

>  <SCORE.SYSTEM.SOLV>
0

>  <SCORE.SYSTEM.norm>
0

>  <SCORE.heavy>
10

>  <SCORE.norm>
-1.6688

>  <RMSD>
3.508

$$$$
ligand
 OpenBabel11021811423D
libRbt.so/2013.1/901 2013/11/27
 10 11  0  0  0  0  0  0  0  0999 V2000
  -11.5826  -10.5612    6.3749 N   0  0  0  0  0  0  0  0  0  0  0  0
  -11.9019   -9.6269    7.3622 C   0  0  0  0  0  0  0  0  0  0  0  0
  -12.0829   -9.9729    8.6493 N   0  0  0  0  0  0  0  0  0  0  0  0
  -11.9142  -11.3355    8.8785 C   0  0  0  0  0  0  0  0  0  0  0  0
  -11.6028  -12.3369    7.9570 C   0  0  0  0  0  0  0  0  0  0  0  0
  -11.4145  -11.9725    6.5770 C   0  0  0  0  0  0  0  0  0  0  0  0
  -11.1427  -12.6431    5.6106 O   0  0  0  0  0  0  0  0  0  0  0  0
  -11.5217  -13.5667    8.6353 N   0  0  0  0  0  0  0  0  0  0  0  0
  -11.7794  -13.2771    9.9392 C   0  0  0  0  0  0  0  0  0  0  0  0
  -12.0255  -11.9084   10.1168 N   0  0  0  0  0  0  0  0  0  0  0  0
  1  2  1  0  0  0  0
  1  6  1  0  0  0  0
  2  3  2  0  0  0  0
  3  4  1  0  0  0  0
  4  5  2  0  0  0  0
  4 10  1  0  0  0  0
  5  6  1  0  0  0  0
  5  8  1  0  0  0  0
  6  7  2  0  0  0  0
  8  9  1  0  0  0  0
  9 10  2  0  0  0  0
M  END
>  <CHROM.1>
-11.68652144,-11.73481615,7.96383673,1.09976729,1.34403633,-0.72904241

>  <Name>
ligand

>  <RI>
0

>  <Rbt.Current_Directory>
/home/itssahil/PROJECTS/Mol_Feturizer/New_Systems/rnas/2EES

>  <Rbt.Executable>
rbdock ($Id: //depot/dev/client3/rdock/2013.1/src/exe/rbdock.cxx#4 $)

>  <Rbt.Library>
libRbt.so (2013.1, Build901 2013/11/27)

>  <Rbt.Parameter_File>
/export/apps/rDock/src/rDock_2013.1_src/data/scripts/dock_solv.prm

>  <Rbt.Receptor>
prm/pocket_docking_8.prm

>  <SCORE>
-16.6928

>  <SCORE.INTER>
-16.6928

>  <SCORE.INTER.CONST>
1

>  <SCORE.INTER.POLAR>
0

>  <SCORE.INTER.ROT>
0

>  <SCORE.INTER.SOLV>
3.71893

>  <SCORE.INTER.VDW>
-15.9682

>  <SCORE.INTER.norm>
-1.66928

>  <SCORE.INTRA>
0

>  <SCORE.INTRA.DIHEDRAL>
0

>  <SCORE.INTRA.DIHEDRAL.0>
0

>  <SCORE.INTRA.POLAR>
0

>  <SCORE.INTRA.POLAR.0>
0

>  <SCORE.INTRA.REPUL>
0

>  <SCORE.INTRA.REPUL.0>
0

>  <SCORE.INTRA.SOLV>
0

>  <SCORE.INTRA.SOLV.lig_0>
-4.28614

>  <SCORE.INTRA.VDW>
0

>  <SCORE.INTRA.VDW.0>
0

>  <SCORE.INTRA.norm>
0

>  <SCORE.RESTR>
0

>  <SCORE.RESTR.CAVITY>
0

>  <SCORE.RESTR.norm>
0

>  <SCORE.SYSTEM>
0

>  <SCORE.SYSTEM.CONST>
0

>  <SCORE.SYSTEM.DIHEDRAL>
0

>  <SCORE.SYSTEM.SOLV>
0

>  <SCORE.SYSTEM.norm>
0

>  <SCORE.heavy>
10

>  <SCORE.norm>
-1.66928

>  <RMSD>
3.508

$$$$
ligand
 OpenBabel11021811423D
libRbt.so/2013.1/901 2013/11/27
 10 11  0  0  0  0  0  0  0  0999 V2000
  -11.5992  -10.5685    6.3793 N   0  0  0  0  0  0  0  0  0  0  0  0
  -11.9192   -9.6330    7.3652 C   0  0  0  0  0  0  0  0  0  0  0  0
  -12.0937   -9.9764    8.6539 N   0  0  0  0  0  0  0  0  0  0  0  0
  -11.9176  -11.3376    8.8862 C   0  0  0  0  0  0  0  0  0  0  0  0
  -11.6048  -12.3399    7.9662 C   0  0  0  0  0  0  0  0  0  0  0  0
  -11.4235  -11.9783    6.5845 C   0  0  0  0  0  0  0  0  0  0  0  0
  -11.1521  -12.6502    5.6189 O   0  0  0  0  0  0  0  0  0  0  0  0
  -11.5152  -13.5675    8.6474 N   0  0  0  0  0  0  0  0  0  0  0  0
  -11.7694  -13.2756    9.9516 C   0  0  0  0  0  0  0  0  0  0  0  0
  -12.0214  -11.9077   10.1264 N   0  0  0  0  0  0  0  0  0  0  0  0
  1  2  1  0  0  0  0
  1  6  1  0  0  0  0
  2  3  2  0  0  0  0
  3  4  1  0  0  0  0
  4  5  2  0  0  0  0
  4 10  1  0  0  0  0
  5  6  1  0  0  0  0
  5  8  1  0  0  0  0
  6  7  2  0  0  0  0
  8  9  1  0  0  0  0
  9 10  2  0  0  0  0
M  END
>  <CHROM.1>
-11.69140558,-11.73825719,7.97172702,1.12688047,1.34357168,-0.75815320

>  <Name>
ligand

>  <RI>
0

>  <Rbt.Current_Directory>
/home/itssahil/PROJECTS/Mol_Feturizer/New_Systems/rnas/2EES

>  <Rbt.Executable>
rbdock ($Id: //depot/dev/client3/rdock/2013.1/src/exe/rbdock.cxx#4 $)

>  <Rbt.Library>
libRbt.so (2013.1, Build901 2013/11/27)

>  <Rbt.Parameter_File>
/export/apps/rDock/src/rDock_2013.1_src/data/scripts/dock_solv.prm

>  <Rbt.Receptor>
prm/blind_docking_60.prm

>  <SCORE>
-16.6864

>  <SCORE.INTER>
-16.6864

>  <SCORE.INTER.CONST>
1

>  <SCORE.INTER.POLAR>
0

>  <SCORE.INTER.ROT>
0

>  <SCORE.INTER.SOLV>
3.71866

>  <SCORE.INTER.VDW>
-15.9638

>  <SCORE.INTER.norm>
-1.66864

>  <SCORE.INTRA>
0

>  <SCORE.INTRA.DIHEDRAL>
0

>  <SCORE.INTRA.DIHEDRAL.0>
0

>  <SCORE.INTRA.POLAR>
0

>  <SCORE.INTRA.POLAR.0>
0

>  <SCORE.INTRA.REPUL>
0

>  <SCORE.INTRA.REPUL.0>
0

>  <SCORE.INTRA.SOLV>
0

>  <SCORE.INTRA.SOLV.lig_0>
-4.28614

>  <SCORE.INTRA.VDW>
0

>  <SCORE.INTRA.VDW.0>
0

>  <SCORE.INTRA.norm>
0

>  <SCORE.RESTR>
0

>  <SCORE.RESTR.CAVITY>
0

>  <SCORE.RESTR.norm>
0

>  <SCORE.SYSTEM>
0

>  <SCORE.SYSTEM.CONST>
0

>  <SCORE.SYSTEM.DIHEDRAL>
0

>  <SCORE.SYSTEM.SOLV>
0

>  <SCORE.SYSTEM.norm>
0

>  <SCORE.heavy>
10

>  <SCORE.norm>
-1.66864

>  <RMSD>
3.509

$$$$
ligand
 OpenBabel11021811423D
libRbt.so/2013.1/901 2013/11/27
 10 11  0  0  0  0  0  0  0  0999 V2000
  -11.5898  -10.5632    6.3766 N   0  0  0  0  0  0  0  0  0  0  0  0
  -11.9098   -9.6280    7.3628 C   0  0  0  0  0  0  0  0  0  0  0  0
  -12.0889   -9.9725    8.6506 N   0  0  0  0  0  0  0  0  0  0  0  0
  -11.9177  -11.3345    8.8816 C   0  0  0  0  0  0  0  0  0  0  0  0
  -11.6054  -12.3366    7.9612 C   0  0  0  0  0  0  0  0  0  0  0  0
  -11.4191  -11.9739    6.5805 C   0  0  0  0  0  0  0  0  0  0  0  0
  -11.1471  -12.6454    5.6147 O   0  0  0  0  0  0  0  0  0  0  0  0
  -11.5215  -13.5654    8.6411 N   0  0  0  0  0  0  0  0  0  0  0  0
  -11.7785  -13.2744    9.9449 C   0  0  0  0  0  0  0  0  0  0  0  0
  -12.0268  -11.9059   10.1208 N   0  0  0  0  0  0  0  0  0  0  0  0
  1  2  1  0  0  0  0
  1  6  1  0  0  0  0
  2  3  2  0  0  0  0
  3  4  1  0  0  0  0
  4  5  2  0  0  0  0
  4 10  1  0  0  0  0
  5  6  1  0  0  0  0
  5  8  1  0  0  0  0
  6  7  2  0  0  0  0
  8  9  1  0  0  0  0
  9 10  2  0  0  0  0
M  END
>  <CHROM.1>
-11.69018028,-11.73473502,7.96726227,1.10834865,1.34360551,-0.73881598

>  <Name>
ligand

>  <RI>
0

>  <Rbt.Current_Directory>
/home/itssahil/PROJECTS/Mol_Feturizer/New_Systems/rnas/2EES

>  <Rbt.Executable>
rbdock ($Id: //depot/dev/client3/rdock/2013.1/src/exe/rbdock.cxx#4 $)

>  <Rbt.Library>
libRbt.so (2013.1, Build901 2013/11/27)

>  <Rbt.Parameter_File>
/export/apps/rDock/src/rDock_2013.1_src/data/scripts/dock_solv.prm

>  <Rbt.Receptor>
prm/pocket_docking_6.prm

>  <SCORE>
-16.6944

>  <SCORE.INTER>
-16.6944

>  <SCORE.INTER.CONST>
1

>  <SCORE.INTER.POLAR>
0

>  <SCORE.INTER.ROT>
0

>  <SCORE.INTER.SOLV>
3.71754

>  <SCORE.INTER.VDW>
-15.9687

>  <SCORE.INTER.norm>
-1.66944

>  <SCORE.INTRA>
0

>  <SCORE.INTRA.DIHEDRAL>
0

>  <SCORE.INTRA.DIHEDRAL.0>
0

>  <SCORE.INTRA.POLAR>
0

>  <SCORE.INTRA.POLAR.0>
0

>  <SCORE.INTRA.REPUL>
0

>  <SCORE.INTRA.REPUL.0>
0

>  <SCORE.INTRA.SOLV>
0

>  <SCORE.INTRA.SOLV.lig_0>
-4.28614

>  <SCORE.INTRA.VDW>
0

>  <SCORE.INTRA.VDW.0>
0

>  <SCORE.INTRA.norm>
0

>  <SCORE.RESTR>
0

>  <SCORE.RESTR.CAVITY>
0

>  <SCORE.RESTR.norm>
0

>  <SCORE.SYSTEM>
0

>  <SCORE.SYSTEM.CONST>
0

>  <SCORE.SYSTEM.DIHEDRAL>
0

>  <SCORE.SYSTEM.SOLV>
0

>  <SCORE.SYSTEM.norm>
0

>  <SCORE.heavy>
10

>  <SCORE.norm>
-1.66944

>  <RMSD>
3.509

$$$$
ligand
 OpenBabel11021811423D
libRbt.so/2013.1/901 2013/11/27
 10 11  0  0  0  0  0  0  0  0999 V2000
  -11.5939  -10.5656    6.3784 N   0  0  0  0  0  0  0  0  0  0  0  0
  -11.9136   -9.6298    7.3642 C   0  0  0  0  0  0  0  0  0  0  0  0
  -12.0911   -9.9734    8.6524 N   0  0  0  0  0  0  0  0  0  0  0  0
  -11.9186  -11.3351    8.8843 C   0  0  0  0  0  0  0  0  0  0  0  0
  -11.6066  -12.3377    7.9643 C   0  0  0  0  0  0  0  0  0  0  0  0
  -11.4219  -11.9759    6.5832 C   0  0  0  0  0  0  0  0  0  0  0  0
  -11.1504  -12.6480    5.6177 O   0  0  0  0  0  0  0  0  0  0  0  0
  -11.5211  -13.5659    8.6452 N   0  0  0  0  0  0  0  0  0  0  0  0
  -11.7770  -13.2741    9.9490 C   0  0  0  0  0  0  0  0  0  0  0  0
  -12.0261  -11.9056   10.1240 N   0  0  0  0  0  0  0  0  0  0  0  0
  1  2  1  0  0  0  0
  1  6  1  0  0  0  0
  2  3  2  0  0  0  0
  3  4  1  0  0  0  0
  4  5  2  0  0  0  0
  4 10  1  0  0  0  0
  5  6  1  0  0  0  0
  5  8  1  0  0  0  0
  6  7  2  0  0  0  0
  8  9  1  0  0  0  0
  9 10  2  0  0  0  0
M  END
>  <CHROM.1>
-11.69178341,-11.73589146,7.97005332,1.11378490,1.34385552,-0.74489356

>  <Name>
ligand

>  <RI>
0

>  <Rbt.Current_Directory>
/home/itssahil/PROJECTS/Mol_Feturizer/New_Systems/rnas/2EES

>  <Rbt.Executable>
rbdock ($Id: //depot/dev/client3/rdock/2013.1/src/exe/rbdock.cxx#4 $)

>  <Rbt.Library>
libRbt.so (2013.1, Build901 2013/11/27)

>  <Rbt.Parameter_File>
/export/apps/rDock/src/rDock_2013.1_src/data/scripts/dock_solv.prm

>  <Rbt.Receptor>
prm/pocket_docking_6.prm

>  <SCORE>
-16.6925

>  <SCORE.INTER>
-16.6925

>  <SCORE.INTER.CONST>
1

>  <SCORE.INTER.POLAR>
0

>  <SCORE.INTER.ROT>
0

>  <SCORE.INTER.SOLV>
3.71858

>  <SCORE.INTER.VDW>
-15.9678

>  <SCORE.INTER.norm>
-1.66925

>  <SCORE.INTRA>
0

>  <SCORE.INTRA.DIHEDRAL>
0

>  <SCORE.INTRA.DIHEDRAL.0>
0

>  <SCORE.INTRA.POLAR>
0

>  <SCORE.INTRA.POLAR.0>
0

>  <SCORE.INTRA.REPUL>
0

>  <SCORE.INTRA.REPUL.0>
0

>  <SCORE.INTRA.SOLV>
0

>  <SCORE.INTRA.SOLV.lig_0>
-4.28614

>  <SCORE.INTRA.VDW>
0

>  <SCORE.INTRA.VDW.0>
0

>  <SCORE.INTRA.norm>
0

>  <SCORE.RESTR>
0

>  <SCORE.RESTR.CAVITY>
0

>  <SCORE.RESTR.norm>
0

>  <SCORE.SYSTEM>
0

>  <SCORE.SYSTEM.CONST>
0

>  <SCORE.SYSTEM.DIHEDRAL>
0

>  <SCORE.SYSTEM.SOLV>
0

>  <SCORE.SYSTEM.norm>
0

>  <SCORE.heavy>
10

>  <SCORE.norm>
-1.66925

>  <RMSD>
3.510

$$$$
ligand
 OpenBabel11021811423D
libRbt.so/2013.1/901 2013/11/27
 10 11  0  0  0  0  0  0  0  0999 V2000
  -11.5960  -10.5732    6.3754 N   0  0  0  0  0  0  0  0  0  0  0  0
  -11.9125   -9.6351    7.3600 C   0  0  0  0  0  0  0  0  0  0  0  0
  -12.0855   -9.9756    8.6497 N   0  0  0  0  0  0  0  0  0  0  0  0
  -11.9118  -11.3367    8.8843 C   0  0  0  0  0  0  0  0  0  0  0  0
  -11.6026  -12.3415    7.9657 C   0  0  0  0  0  0  0  0  0  0  0  0
  -11.4228  -11.9830    6.5830 C   0  0  0  0  0  0  0  0  0  0  0  0
  -11.1545  -12.6573    5.6182 O   0  0  0  0  0  0  0  0  0  0  0  0
  -11.5144  -13.5679    8.6492 N   0  0  0  0  0  0  0  0  0  0  0  0
  -11.7659  -13.2730    9.9532 C   0  0  0  0  0  0  0  0  0  0  0  0
  -12.0148  -11.9042   10.1257 N   0  0  0  0  0  0  0  0  0  0  0  0
  1  2  1  0  0  0  0
  1  6  1  0  0  0  0
  2  3  2  0  0  0  0
  3  4  1  0  0  0  0
  4  5  2  0  0  0  0
  4 10  1  0  0  0  0
  5  6  1  0  0  0  0
  5  8  1  0  0  0  0
  6  7  2  0  0  0  0
  8  9  1  0  0  0  0
  9 10  2  0  0  0  0
M  END
>  <CHROM.1>
-11.68798827,-11.73962889,7.97021643,1.12533834,1.34619737,-0.75859197

>  <Name>
ligand

>  <RI>
0

>  <Rbt.Current_Directory>
/home/itssahil/PROJECTS/Mol_Feturizer/New_Systems/rnas/2EES

>  <Rbt.Executable>
rbdock ($Id: //depot/dev/client3/rdock/2013.1/src/exe/rbdock.cxx#4 $)

>  <Rbt.Library>
libRbt.so (2013.1, Build901 2013/11/27)

>  <Rbt.Parameter_File>
/export/apps/rDock/src/rDock_2013.1_src/data/scripts/dock_solv.prm

>  <Rbt.Receptor>
prm/blind_docking_40.prm

>  <SCORE>
-16.6851

>  <SCORE.INTER>
-16.6851

>  <SCORE.INTER.CONST>
1

>  <SCORE.INTER.POLAR>
0

>  <SCORE.INTER.ROT>
0

>  <SCORE.INTER.SOLV>
3.72808

>  <SCORE.INTER.VDW>
-15.9661

>  <SCORE.INTER.norm>
-1.66851

>  <SCORE.INTRA>
0

>  <SCORE.INTRA.DIHEDRAL>
0

>  <SCORE.INTRA.DIHEDRAL.0>
0

>  <SCORE.INTRA.POLAR>
0

>  <SCORE.INTRA.POLAR.0>
0

>  <SCORE.INTRA.REPUL>
0

>  <SCORE.INTRA.REPUL.0>
0

>  <SCORE.INTRA.SOLV>
0

>  <SCORE.INTRA.SOLV.lig_0>
-4.28614

>  <SCORE.INTRA.VDW>
0

>  <SCORE.INTRA.VDW.0>
0

>  <SCORE.INTRA.norm>
0

>  <SCORE.RESTR>
0

>  <SCORE.RESTR.CAVITY>
0

>  <SCORE.RESTR.norm>
0

>  <SCORE.SYSTEM>
0

>  <SCORE.SYSTEM.CONST>
0

>  <SCORE.SYSTEM.DIHEDRAL>
0

>  <SCORE.SYSTEM.SOLV>
0

>  <SCORE.SYSTEM.norm>
0

>  <SCORE.heavy>
10

>  <SCORE.norm>
-1.66851

>  <RMSD>
3.511

$$$$
ligand
 OpenBabel11021811423D
libRbt.so/2013.1/901 2013/11/27
 10 11  0  0  0  0  0  0  0  0999 V2000
  -11.5679  -10.5759    6.3812 N   0  0  0  0  0  0  0  0  0  0  0  0
  -11.8734   -9.6315    7.3633 C   0  0  0  0  0  0  0  0  0  0  0  0
  -12.0634   -9.9683    8.6516 N   0  0  0  0  0  0  0  0  0  0  0  0
  -11.9189  -11.3325    8.8876 C   0  0  0  0  0  0  0  0  0  0  0  0
  -11.6226  -12.3434    7.9715 C   0  0  0  0  0  0  0  0  0  0  0  0
  -11.4247  -11.9888    6.5903 C   0  0  0  0  0  0  0  0  0  0  0  0
  -11.1623  -12.6686    5.6277 O   0  0  0  0  0  0  0  0  0  0  0  0
  -11.5644  -13.5713    8.6557 N   0  0  0  0  0  0  0  0  0  0  0  0
  -11.8203  -13.2711    9.9576 C   0  0  0  0  0  0  0  0  0  0  0  0
  -12.0431  -11.8976   10.1282 N   0  0  0  0  0  0  0  0  0  0  0  0
  1  2  1  0  0  0  0
  1  6  1  0  0  0  0
  2  3  2  0  0  0  0
  3  4  1  0  0  0  0
  4  5  2  0  0  0  0
  4 10  1  0  0  0  0
  5  6  1  0  0  0  0
  5  8  1  0  0  0  0
  6  7  2  0  0  0  0
  8  9  1  0  0  0  0
  9 10  2  0  0  0  0
M  END
>  <CHROM.1>
-11.69593539,-11.74000574,7.97532003,1.03245359,1.35331235,-0.66805757

>  <Name>
ligand

>  <RI>
0

>  <Rbt.Current_Directory>
/home/itssahil/PROJECTS/Mol_Feturizer/New_Systems/rnas/2EES

>  <Rbt.Executable>
rbdock ($Id: //depot/dev/client3/rdock/2013.1/src/exe/rbdock.cxx#4 $)

>  <Rbt.Library>
libRbt.so (2013.1, Build901 2013/11/27)

>  <Rbt.Parameter_File>
/export/apps/rDock/src/rDock_2013.1_src/data/scripts/dock_solv.prm

>  <Rbt.Receptor>
prm/pocket_docking_4.prm

>  <SCORE>
-16.6474

>  <SCORE.INTER>
-16.6474

>  <SCORE.INTER.CONST>
1

>  <SCORE.INTER.POLAR>
0

>  <SCORE.INTER.ROT>
0

>  <SCORE.INTER.SOLV>
3.74882

>  <SCORE.INTER.VDW>
-15.9479

>  <SCORE.INTER.norm>
-1.66474

>  <SCORE.INTRA>
0

>  <SCORE.INTRA.DIHEDRAL>
0

>  <SCORE.INTRA.DIHEDRAL.0>
0

>  <SCORE.INTRA.POLAR>
0

>  <SCORE.INTRA.POLAR.0>
0

>  <SCORE.INTRA.REPUL>
0

>  <SCORE.INTRA.REPUL.0>
0

>  <SCORE.INTRA.SOLV>
0

>  <SCORE.INTRA.SOLV.lig_0>
-4.28614

>  <SCORE.INTRA.VDW>
0

>  <SCORE.INTRA.VDW.0>
0

>  <SCORE.INTRA.norm>
0

>  <SCORE.RESTR>
0

>  <SCORE.RESTR.CAVITY>
0

>  <SCORE.RESTR.norm>
0

>  <SCORE.SYSTEM>
0

>  <SCORE.SYSTEM.CONST>
0

>  <SCORE.SYSTEM.DIHEDRAL>
0

>  <SCORE.SYSTEM.SOLV>
0

>  <SCORE.SYSTEM.norm>
0

>  <SCORE.heavy>
10

>  <SCORE.norm>
-1.66474

>  <RMSD>
3.516

$$$$
ligand
 OpenBabel11021811423D
libRbt.so/2013.1/901 2013/11/27
 10 11  0  0  0  0  0  0  0  0999 V2000
  -11.6048  -10.5988    6.3420 N   0  0  0  0  0  0  0  0  0  0  0  0
  -11.9235   -9.6508    7.3163 C   0  0  0  0  0  0  0  0  0  0  0  0
  -12.0972   -9.9778    8.6094 N   0  0  0  0  0  0  0  0  0  0  0  0
  -11.9218  -11.3360    8.8586 C   0  0  0  0  0  0  0  0  0  0  0  0
  -11.6104  -12.3501    7.9511 C   0  0  0  0  0  0  0  0  0  0  0  0
  -11.4299  -12.0061    6.5648 C   0  0  0  0  0  0  0  0  0  0  0  0
  -11.1598  -12.6903    5.6075 O   0  0  0  0  0  0  0  0  0  0  0  0
  -11.5210  -13.5691    8.6477 N   0  0  0  0  0  0  0  0  0  0  0  0
  -11.7741  -13.2606    9.9482 C   0  0  0  0  0  0  0  0  0  0  0  0
  -12.0250  -11.8904   10.1060 N   0  0  0  0  0  0  0  0  0  0  0  0
  1  2  1  0  0  0  0
  1  6  1  0  0  0  0
  2  3  2  0  0  0  0
  3  4  1  0  0  0  0
  4  5  2  0  0  0  0
  4 10  1  0  0  0  0
  5  6  1  0  0  0  0
  5  8  1  0  0  0  0
  6  7  2  0  0  0  0
  8  9  1  0  0  0  0
  9 10  2  0  0  0  0
M  END
>  <CHROM.1>
-11.69658009,-11.74836777,7.94910985,1.12715065,1.34458699,-0.77102168

>  <Name>
ligand

>  <RI>
0

>  <Rbt.Current_Directory>
/home/itssahil/PROJECTS/Mol_Feturizer/New_Systems/rnas/2EES

>  <Rbt.Executable>
rbdock ($Id: //depot/dev/client3/rdock/2013.1/src/exe/rbdock.cxx#4 $)

>  <Rbt.Library>
libRbt.so (2013.1, Build901 2013/11/27)

>  <Rbt.Parameter_File>
/export/apps/rDock/src/rDock_2013.1_src/data/scripts/dock_solv.prm

>  <Rbt.Receptor>
prm/pocket_docking_3.prm

>  <SCORE>
-16.6642

>  <SCORE.INTER>
-16.6642

>  <SCORE.INTER.CONST>
1

>  <SCORE.INTER.POLAR>
0

>  <SCORE.INTER.ROT>
0

>  <SCORE.INTER.SOLV>
3.73081

>  <SCORE.INTER.VDW>
-15.9531

>  <SCORE.INTER.norm>
-1.66642

>  <SCORE.INTRA>
0

>  <SCORE.INTRA.DIHEDRAL>
0

>  <SCORE.INTRA.DIHEDRAL.0>
0

>  <SCORE.INTRA.POLAR>
0

>  <SCORE.INTRA.POLAR.0>
0

>  <SCORE.INTRA.REPUL>
0

>  <SCORE.INTRA.REPUL.0>
0

>  <SCORE.INTRA.SOLV>
0

>  <SCORE.INTRA.SOLV.lig_0>
-4.28614

>  <SCORE.INTRA.VDW>
0

>  <SCORE.INTRA.VDW.0>
0

>  <SCORE.INTRA.norm>
0

>  <SCORE.RESTR>
0

>  <SCORE.RESTR.CAVITY>
0

>  <SCORE.RESTR.norm>
0

>  <SCORE.SYSTEM>
0

>  <SCORE.SYSTEM.CONST>
0

>  <SCORE.SYSTEM.DIHEDRAL>
0

>  <SCORE.SYSTEM.SOLV>
0

>  <SCORE.SYSTEM.norm>
0

>  <SCORE.heavy>
10

>  <SCORE.norm>
-1.66642

>  <RMSD>
3.517

$$$$
ligand
 OpenBabel11021811423D
libRbt.so/2013.1/901 2013/11/27
 10 11  0  0  0  0  0  0  0  0999 V2000
  -11.5908  -10.5864    6.3643 N   0  0  0  0  0  0  0  0  0  0  0  0
  -11.8947   -9.6364    7.3414 C   0  0  0  0  0  0  0  0  0  0  0  0
  -12.0621   -9.9628    8.6355 N   0  0  0  0  0  0  0  0  0  0  0  0
  -11.8967  -11.3227    8.8826 C   0  0  0  0  0  0  0  0  0  0  0  0
  -11.6002  -12.3388    7.9722 C   0  0  0  0  0  0  0  0  0  0  0  0
  -11.4264  -11.9953    6.5850 C   0  0  0  0  0  0  0  0  0  0  0  0
  -11.1688  -12.6811    5.6253 O   0  0  0  0  0  0  0  0  0  0  0  0
  -11.5165  -13.5590    8.6674 N   0  0  0  0  0  0  0  0  0  0  0  0
  -11.7579  -13.2493    9.9698 C   0  0  0  0  0  0  0  0  0  0  0  0
  -11.9961  -11.8771   10.1303 N   0  0  0  0  0  0  0  0  0  0  0  0
  1  2  1  0  0  0  0
  1  6  1  0  0  0  0
  2  3  2  0  0  0  0
  3  4  1  0  0  0  0
  4  5  2  0  0  0  0
  4 10  1  0  0  0  0
  5  6  1  0  0  0  0
  5  8  1  0  0  0  0
  6  7  2  0  0  0  0
  8  9  1  0  0  0  0
  9 10  2  0  0  0  0
M  END
>  <CHROM.1>
-11.68131281,-11.73631315,7.97125305,1.12099114,1.35550582,-0.76430480

>  <Name>
ligand

>  <RI>
0

>  <Rbt.Current_Directory>
/home/itssahil/PROJECTS/Mol_Feturizer/New_Systems/rnas/2EES

>  <Rbt.Executable>
rbdock ($Id: //depot/dev/client3/rdock/2013.1/src/exe/rbdock.cxx#4 $)

>  <Rbt.Library>
libRbt.so (2013.1, Build901 2013/11/27)

>  <Rbt.Parameter_File>
/export/apps/rDock/src/rDock_2013.1_src/data/scripts/dock_solv.prm

>  <Rbt.Receptor>
prm/blind_docking_60.prm

>  <SCORE>
-16.6439

>  <SCORE.INTER>
-16.6439

>  <SCORE.INTER.CONST>
1

>  <SCORE.INTER.POLAR>
0

>  <SCORE.INTER.ROT>
0

>  <SCORE.INTER.SOLV>
3.76138

>  <SCORE.INTER.VDW>
-15.9497

>  <SCORE.INTER.norm>
-1.66439

>  <SCORE.INTRA>
0

>  <SCORE.INTRA.DIHEDRAL>
0

>  <SCORE.INTRA.DIHEDRAL.0>
0

>  <SCORE.INTRA.POLAR>
0

>  <SCORE.INTRA.POLAR.0>
0

>  <SCORE.INTRA.REPUL>
0

>  <SCORE.INTRA.REPUL.0>
0

>  <SCORE.INTRA.SOLV>
0

>  <SCORE.INTRA.SOLV.lig_0>
-4.28614

>  <SCORE.INTRA.VDW>
0

>  <SCORE.INTRA.VDW.0>
0

>  <SCORE.INTRA.norm>
0

>  <SCORE.RESTR>
0

>  <SCORE.RESTR.CAVITY>
0

>  <SCORE.RESTR.norm>
0

>  <SCORE.SYSTEM>
0

>  <SCORE.SYSTEM.CONST>
0

>  <SCORE.SYSTEM.DIHEDRAL>
0

>  <SCORE.SYSTEM.SOLV>
0

>  <SCORE.SYSTEM.norm>
0

>  <SCORE.heavy>
10

>  <SCORE.norm>
-1.66439

>  <RMSD>
3.518

$$$$
ligand
 OpenBabel11021811423D
libRbt.so/2013.1/901 2013/11/27
 10 11  0  0  0  0  0  0  0  0999 V2000
  -11.6315  -10.5957    6.3529 N   0  0  0  0  0  0  0  0  0  0  0  0
  -11.9563   -9.6464    7.3239 C   0  0  0  0  0  0  0  0  0  0  0  0
  -12.1243   -9.9695    8.6187 N   0  0  0  0  0  0  0  0  0  0  0  0
  -11.9366  -11.3251    8.8732 C   0  0  0  0  0  0  0  0  0  0  0  0
  -11.6183  -12.3402    7.9691 C   0  0  0  0  0  0  0  0  0  0  0  0
  -11.4438  -12.0004    6.5811 C   0  0  0  0  0  0  0  0  0  0  0  0
  -11.1699  -12.6862    5.6260 O   0  0  0  0  0  0  0  0  0  0  0  0
  -11.5169  -13.5555    8.6706 N   0  0  0  0  0  0  0  0  0  0  0  0
  -11.7698  -13.2438    9.9704 C   0  0  0  0  0  0  0  0  0  0  0  0
  -12.0323  -11.8752   10.1231 N   0  0  0  0  0  0  0  0  0  0  0  0
  1  2  1  0  0  0  0
  1  6  1  0  0  0  0
  2  3  2  0  0  0  0
  3  4  1  0  0  0  0
  4  5  2  0  0  0  0
  4 10  1  0  0  0  0
  5  6  1  0  0  0  0
  5  8  1  0  0  0  0
  6  7  2  0  0  0  0
  8  9  1  0  0  0  0
  9 10  2  0  0  0  0
M  END
>  <CHROM.1>
-11.70979852,-11.73927685,7.96488834,1.16099596,1.33995291,-0.80811646

>  <Name>
ligand

>  <RI>
0

>  <Rbt.Current_Directory>
/home/itssahil/PROJECTS/Mol_Feturizer/New_Systems/rnas/2EES

>  <Rbt.Executable>
rbdock ($Id: //depot/dev/client3/rdock/2013.1/src/exe/rbdock.cxx#4 $)

>  <Rbt.Library>
libRbt.so (2013.1, Build901 2013/11/27)

>  <Rbt.Parameter_File>
/export/apps/rDock/src/rDock_2013.1_src/data/scripts/dock_solv.prm

>  <Rbt.Receptor>
prm/blind_docking_40.prm

>  <SCORE>
-16.6932

>  <SCORE.INTER>
-16.6932

>  <SCORE.INTER.CONST>
1

>  <SCORE.INTER.POLAR>
0

>  <SCORE.INTER.ROT>
0

>  <SCORE.INTER.SOLV>
3.71437

>  <SCORE.INTER.VDW>
-15.9669

>  <SCORE.INTER.norm>
-1.66932

>  <SCORE.INTRA>
0

>  <SCORE.INTRA.DIHEDRAL>
0

>  <SCORE.INTRA.DIHEDRAL.0>
0

>  <SCORE.INTRA.POLAR>
0

>  <SCORE.INTRA.POLAR.0>
0

>  <SCORE.INTRA.REPUL>
0

>  <SCORE.INTRA.REPUL.0>
0

>  <SCORE.INTRA.SOLV>
0

>  <SCORE.INTRA.SOLV.lig_0>
-4.28614

>  <SCORE.INTRA.VDW>
0

>  <SCORE.INTRA.VDW.0>
0

>  <SCORE.INTRA.norm>
0

>  <SCORE.RESTR>
0

>  <SCORE.RESTR.CAVITY>
0

>  <SCORE.RESTR.norm>
0

>  <SCORE.SYSTEM>
0

>  <SCORE.SYSTEM.CONST>
0

>  <SCORE.SYSTEM.DIHEDRAL>
0

>  <SCORE.SYSTEM.SOLV>
0

>  <SCORE.SYSTEM.norm>
0

>  <SCORE.heavy>
10

>  <SCORE.norm>
-1.66932

>  <RMSD>
3.520

$$$$
ligand
 OpenBabel11021811423D
libRbt.so/2013.1/901 2013/11/27
 10 11  0  0  0  0  0  0  0  0999 V2000
  -11.6252  -10.6037    6.3573 N   0  0  0  0  0  0  0  0  0  0  0  0
  -11.9500   -9.6551    7.3291 C   0  0  0  0  0  0  0  0  0  0  0  0
  -12.1211   -9.9796    8.6231 N   0  0  0  0  0  0  0  0  0  0  0  0
  -11.9366  -11.3360    8.8761 C   0  0  0  0  0  0  0  0  0  0  0  0
  -11.6186  -12.3504    7.9713 C   0  0  0  0  0  0  0  0  0  0  0  0
  -11.4408  -12.0091    6.5841 C   0  0  0  0  0  0  0  0  0  0  0  0
  -11.1664  -12.6942    5.6286 O   0  0  0  0  0  0  0  0  0  0  0  0
  -11.5210  -13.5668    8.6713 N   0  0  0  0  0  0  0  0  0  0  0  0
  -11.7758  -13.2565    9.9710 C   0  0  0  0  0  0  0  0  0  0  0  0
  -12.0359  -11.8875   10.1250 N   0  0  0  0  0  0  0  0  0  0  0  0
  1  2  1  0  0  0  0
  1  6  1  0  0  0  0
  2  3  2  0  0  0  0
  3  4  1  0  0  0  0
  4  5  2  0  0  0  0
  4 10  1  0  0  0  0
  5  6  1  0  0  0  0
  5  8  1  0  0  0  0
  6  7  2  0  0  0  0
  8  9  1  0  0  0  0
  9 10  2  0  0  0  0
M  END
>  <CHROM.1>
-11.70889807,-11.74931435,7.96767594,1.14888843,1.34004985,-0.79498048

>  <Name>
ligand

>  <RI>
0

>  <Rbt.Current_Directory>
/home/itssahil/PROJECTS/Mol_Feturizer/New_Systems/rnas/2EES

>  <Rbt.Executable>
rbdock ($Id: //depot/dev/client3/rdock/2013.1/src/exe/rbdock.cxx#4 $)

>  <Rbt.Library>
libRbt.so (2013.1, Build901 2013/11/27)

>  <Rbt.Parameter_File>
/export/apps/rDock/src/rDock_2013.1_src/data/scripts/dock_solv.prm

>  <Rbt.Receptor>
prm/blind_docking_40.prm

>  <SCORE>
-16.6818

>  <SCORE.INTER>
-16.6818

>  <SCORE.INTER.CONST>
1

>  <SCORE.INTER.POLAR>
0

>  <SCORE.INTER.ROT>
0

>  <SCORE.INTER.SOLV>
3.71424

>  <SCORE.INTER.VDW>
-15.9593

>  <SCORE.INTER.norm>
-1.66818

>  <SCORE.INTRA>
0

>  <SCORE.INTRA.DIHEDRAL>
0

>  <SCORE.INTRA.DIHEDRAL.0>
0

>  <SCORE.INTRA.POLAR>
0

>  <SCORE.INTRA.POLAR.0>
0

>  <SCORE.INTRA.REPUL>
0

>  <SCORE.INTRA.REPUL.0>
0

>  <SCORE.INTRA.SOLV>
0

>  <SCORE.INTRA.SOLV.lig_0>
-4.28614

>  <SCORE.INTRA.VDW>
0

>  <SCORE.INTRA.VDW.0>
0

>  <SCORE.INTRA.norm>
0

>  <SCORE.RESTR>
0

>  <SCORE.RESTR.CAVITY>
0

>  <SCORE.RESTR.norm>
0

>  <SCORE.SYSTEM>
0

>  <SCORE.SYSTEM.CONST>
0

>  <SCORE.SYSTEM.DIHEDRAL>
0

>  <SCORE.SYSTEM.SOLV>
0

>  <SCORE.SYSTEM.norm>
0

>  <SCORE.heavy>
10

>  <SCORE.norm>
-1.66818

>  <RMSD>
3.520

$$$$
ligand
 OpenBabel11021811423D
libRbt.so/2013.1/901 2013/11/27
 10 11  0  0  0  0  0  0  0  0999 V2000
  -11.6100  -10.6045    6.3503 N   0  0  0  0  0  0  0  0  0  0  0  0
  -11.9240   -9.6532    7.3230 C   0  0  0  0  0  0  0  0  0  0  0  0
  -12.0925   -9.9761    8.6178 N   0  0  0  0  0  0  0  0  0  0  0  0
  -11.9169  -11.3337    8.8706 C   0  0  0  0  0  0  0  0  0  0  0  0
  -11.6100  -12.3507    7.9648 C   0  0  0  0  0  0  0  0  0  0  0  0
  -11.4350  -12.0112    6.5768 C   0  0  0  0  0  0  0  0  0  0  0  0
  -11.1694  -12.6985    5.6205 O   0  0  0  0  0  0  0  0  0  0  0  0
  -11.5185  -13.5676    8.6648 N   0  0  0  0  0  0  0  0  0  0  0  0
  -11.7659  -13.2549    9.9655 C   0  0  0  0  0  0  0  0  0  0  0  0
  -12.0154  -11.8841   10.1200 N   0  0  0  0  0  0  0  0  0  0  0  0
  1  2  1  0  0  0  0
  1  6  1  0  0  0  0
  2  3  2  0  0  0  0
  3  4  1  0  0  0  0
  4  5  2  0  0  0  0
  4 10  1  0  0  0  0
  5  6  1  0  0  0  0
  5  8  1  0  0  0  0
  6  7  2  0  0  0  0
  8  9  1  0  0  0  0
  9 10  2  0  0  0  0
M  END
>  <CHROM.1>
-11.69580575,-11.74896197,7.96137235,1.13823325,1.34801135,-0.78492885

>  <Name>
ligand

>  <RI>
0

>  <Rbt.Current_Directory>
/home/itssahil/PROJECTS/Mol_Feturizer/New_Systems/rnas/2EES

>  <Rbt.Executable>
rbdock ($Id: //depot/dev/client3/rdock/2013.1/src/exe/rbdock.cxx#4 $)

>  <Rbt.Library>
libRbt.so (2013.1, Build901 2013/11/27)

>  <Rbt.Parameter_File>
/export/apps/rDock/src/rDock_2013.1_src/data/scripts/dock_solv.prm

>  <Rbt.Receptor>
prm/pocket_docking_4.prm

>  <SCORE>
-16.6921

>  <SCORE.INTER>
-16.6921

>  <SCORE.INTER.CONST>
1

>  <SCORE.INTER.POLAR>
0

>  <SCORE.INTER.ROT>
0

>  <SCORE.INTER.SOLV>
3.74231

>  <SCORE.INTER.VDW>
-15.9755

>  <SCORE.INTER.norm>
-1.66921

>  <SCORE.INTRA>
0

>  <SCORE.INTRA.DIHEDRAL>
0

>  <SCORE.INTRA.DIHEDRAL.0>
0

>  <SCORE.INTRA.POLAR>
0

>  <SCORE.INTRA.POLAR.0>
0

>  <SCORE.INTRA.REPUL>
0

>  <SCORE.INTRA.REPUL.0>
0

>  <SCORE.INTRA.SOLV>
0

>  <SCORE.INTRA.SOLV.lig_0>
-4.28614

>  <SCORE.INTRA.VDW>
0

>  <SCORE.INTRA.VDW.0>
0

>  <SCORE.INTRA.norm>
0

>  <SCORE.RESTR>
0

>  <SCORE.RESTR.CAVITY>
0

>  <SCORE.RESTR.norm>
0

>  <SCORE.SYSTEM>
0

>  <SCORE.SYSTEM.CONST>
0

>  <SCORE.SYSTEM.DIHEDRAL>
0

>  <SCORE.SYSTEM.SOLV>
0

>  <SCORE.SYSTEM.norm>
0

>  <SCORE.heavy>
10

>  <SCORE.norm>
-1.66921

>  <RMSD>
3.520

$$$$
ligand
 OpenBabel11021811423D
libRbt.so/2013.1/901 2013/11/27
 10 11  0  0  0  0  0  0  0  0999 V2000
  -11.6010  -10.6191    6.3616 N   0  0  0  0  0  0  0  0  0  0  0  0
  -11.8940   -9.6629    7.3360 C   0  0  0  0  0  0  0  0  0  0  0  0
  -12.0588   -9.9828    8.6320 N   0  0  0  0  0  0  0  0  0  0  0  0
  -11.9024  -11.3429    8.8841 C   0  0  0  0  0  0  0  0  0  0  0  0
  -11.6171  -12.3648    7.9767 C   0  0  0  0  0  0  0  0  0  0  0  0
  -11.4462  -12.0282    6.5874 C   0  0  0  0  0  0  0  0  0  0  0  0
  -11.1975  -12.7198    5.6296 O   0  0  0  0  0  0  0  0  0  0  0  0
  -11.5397  -13.5827    8.6765 N   0  0  0  0  0  0  0  0  0  0  0  0
  -11.7737  -13.2660    9.9786 C   0  0  0  0  0  0  0  0  0  0  0  0
  -12.0010  -11.8914   10.1344 N   0  0  0  0  0  0  0  0  0  0  0  0
  1  2  1  0  0  0  0
  1  6  1  0  0  0  0
  2  3  2  0  0  0  0
  3  4  1  0  0  0  0
  4  5  2  0  0  0  0
  4 10  1  0  0  0  0
  5  6  1  0  0  0  0
  5  8  1  0  0  0  0
  6  7  2  0  0  0  0
  8  9  1  0  0  0  0
  9 10  2  0  0  0  0
M  END
>  <CHROM.1>
-11.69373024,-11.76175287,7.97357669,1.10821541,1.36346538,-0.75588294

>  <Name>
ligand

>  <RI>
0

>  <Rbt.Current_Directory>
/home/itssahil/PROJECTS/Mol_Feturizer/New_Systems/rnas/2EES

>  <Rbt.Executable>
rbdock ($Id: //depot/dev/client3/rdock/2013.1/src/exe/rbdock.cxx#4 $)

>  <Rbt.Library>
libRbt.so (2013.1, Build901 2013/11/27)

>  <Rbt.Parameter_File>
/export/apps/rDock/src/rDock_2013.1_src/data/scripts/dock_solv.prm

>  <Rbt.Receptor>
prm/pocket_docking_5.prm

>  <SCORE>
-16.6503

>  <SCORE.INTER>
-16.6503

>  <SCORE.INTER.CONST>
1

>  <SCORE.INTER.POLAR>
0

>  <SCORE.INTER.ROT>
0

>  <SCORE.INTER.SOLV>
3.79461

>  <SCORE.INTER.VDW>
-15.9651

>  <SCORE.INTER.norm>
-1.66503

>  <SCORE.INTRA>
0

>  <SCORE.INTRA.DIHEDRAL>
0

>  <SCORE.INTRA.DIHEDRAL.0>
0

>  <SCORE.INTRA.POLAR>
0

>  <SCORE.INTRA.POLAR.0>
0

>  <SCORE.INTRA.REPUL>
0

>  <SCORE.INTRA.REPUL.0>
0

>  <SCORE.INTRA.SOLV>
0

>  <SCORE.INTRA.SOLV.lig_0>
-4.28614

>  <SCORE.INTRA.VDW>
0

>  <SCORE.INTRA.VDW.0>
0

>  <SCORE.INTRA.norm>
0

>  <SCORE.RESTR>
0

>  <SCORE.RESTR.CAVITY>
0

>  <SCORE.RESTR.norm>
0

>  <SCORE.SYSTEM>
0

>  <SCORE.SYSTEM.CONST>
0

>  <SCORE.SYSTEM.DIHEDRAL>
0

>  <SCORE.SYSTEM.SOLV>
0

>  <SCORE.SYSTEM.norm>
0

>  <SCORE.heavy>
10

>  <SCORE.norm>
-1.66503

>  <RMSD>
3.522

$$$$
ligand
 OpenBabel11021811423D
libRbt.so/2013.1/901 2013/11/27
 10 11  0  0  0  0  0  0  0  0999 V2000
  -11.7170  -10.6169    6.3736 N   0  0  0  0  0  0  0  0  0  0  0  0
  -11.9737   -9.6520    7.3496 C   0  0  0  0  0  0  0  0  0  0  0  0
  -12.0844   -9.9594    8.6544 N   0  0  0  0  0  0  0  0  0  0  0  0
  -11.9126  -11.3163    8.9133 C   0  0  0  0  0  0  0  0  0  0  0  0
  -11.6605  -12.3463    8.0052 C   0  0  0  0  0  0  0  0  0  0  0  0
  -11.5475  -12.0232    6.6069 C   0  0  0  0  0  0  0  0  0  0  0  0
  -11.3353  -12.7235    5.6466 O   0  0  0  0  0  0  0  0  0  0  0  0
  -11.5499  -13.5569    8.7134 N   0  0  0  0  0  0  0  0  0  0  0  0
  -11.7319  -13.2278   10.0207 C   0  0  0  0  0  0  0  0  0  0  0  0
  -11.9580  -11.8526   10.1720 N   0  0  0  0  0  0  0  0  0  0  0  0
  1  2  1  0  0  0  0
  1  6  1  0  0  0  0
  2  3  2  0  0  0  0
  3  4  1  0  0  0  0
  4  5  2  0  0  0  0
  4 10  1  0  0  0  0
  5  6  1  0  0  0  0
  5  8  1  0  0  0  0
  6  7  2  0  0  0  0
  8  9  1  0  0  0  0
  9 10  2  0  0  0  0
M  END
>  <CHROM.1>
-11.73948776,-11.74360984,7.99928729,1.27813848,1.38784578,-0.93261909

>  <Name>
ligand

>  <RI>
0

>  <Rbt.Current_Directory>
/home/itssahil/PROJECTS/Mol_Feturizer/New_Systems/rnas/2EES

>  <Rbt.Executable>
rbdock ($Id: //depot/dev/client3/rdock/2013.1/src/exe/rbdock.cxx#4 $)

>  <Rbt.Library>
libRbt.so (2013.1, Build901 2013/11/27)

>  <Rbt.Parameter_File>
/export/apps/rDock/src/rDock_2013.1_src/data/scripts/dock_solv.prm

>  <Rbt.Receptor>
prm/pocket_docking_7.prm

>  <SCORE>
-16.5984

>  <SCORE.INTER>
-16.5984

>  <SCORE.INTER.CONST>
1

>  <SCORE.INTER.POLAR>
0

>  <SCORE.INTER.ROT>
0

>  <SCORE.INTER.SOLV>
3.8945

>  <SCORE.INTER.VDW>
-15.9638

>  <SCORE.INTER.norm>
-1.65984

>  <SCORE.INTRA>
0

>  <SCORE.INTRA.DIHEDRAL>
0

>  <SCORE.INTRA.DIHEDRAL.0>
0

>  <SCORE.INTRA.POLAR>
0

>  <SCORE.INTRA.POLAR.0>
0

>  <SCORE.INTRA.REPUL>
0

>  <SCORE.INTRA.REPUL.0>
0

>  <SCORE.INTRA.SOLV>
0

>  <SCORE.INTRA.SOLV.lig_0>
-4.28614

>  <SCORE.INTRA.VDW>
0

>  <SCORE.INTRA.VDW.0>
0

>  <SCORE.INTRA.norm>
0

>  <SCORE.RESTR>
0

>  <SCORE.RESTR.CAVITY>
0

>  <SCORE.RESTR.norm>
0

>  <SCORE.SYSTEM>
0

>  <SCORE.SYSTEM.CONST>
0

>  <SCORE.SYSTEM.DIHEDRAL>
0

>  <SCORE.SYSTEM.SOLV>
0

>  <SCORE.SYSTEM.norm>
0

>  <SCORE.heavy>
10

>  <SCORE.norm>
-1.65984

>  <RMSD>
3.524

$$$$
ligand
 OpenBabel11021811423D
libRbt.so/2013.1/901 2013/11/27
 10 11  0  0  0  0  0  0  0  0999 V2000
  -11.7099  -10.6407    6.3422 N   0  0  0  0  0  0  0  0  0  0  0  0
  -12.0047   -9.6767    7.3084 C   0  0  0  0  0  0  0  0  0  0  0  0
  -12.1274   -9.9793    8.6132 N   0  0  0  0  0  0  0  0  0  0  0  0
  -11.9266  -11.3302    8.8829 C   0  0  0  0  0  0  0  0  0  0  0  0
  -11.6358  -12.3588    7.9849 C   0  0  0  0  0  0  0  0  0  0  0  0
  -11.5098  -12.0410    6.5865 C   0  0  0  0  0  0  0  0  0  0  0  0
  -11.2662  -12.7414    5.6337 O   0  0  0  0  0  0  0  0  0  0  0  0
  -11.5065  -13.5623    8.7019 N   0  0  0  0  0  0  0  0  0  0  0  0
  -11.7161  -13.2304   10.0044 C   0  0  0  0  0  0  0  0  0  0  0  0
  -11.9779  -11.8602   10.1440 N   0  0  0  0  0  0  0  0  0  0  0  0
  1  2  1  0  0  0  0
  1  6  1  0  0  0  0
  2  3  2  0  0  0  0
  3  4  1  0  0  0  0
  4  5  2  0  0  0  0
  4 10  1  0  0  0  0
  5  6  1  0  0  0  0
  5  8  1  0  0  0  0
  6  7  2  0  0  0  0
  8  9  1  0  0  0  0
  9 10  2  0  0  0  0
M  END
>  <CHROM.1>
-11.72942417,-11.75827895,7.97414554,1.28966371,1.35933408,-0.94978690

>  <Name>
ligand

>  <RI>
0

>  <Rbt.Current_Directory>
/home/itssahil/PROJECTS/Mol_Feturizer/New_Systems/rnas/2EES

>  <Rbt.Executable>
rbdock ($Id: //depot/dev/client3/rdock/2013.1/src/exe/rbdock.cxx#4 $)

>  <Rbt.Library>
libRbt.so (2013.1, Build901 2013/11/27)

>  <Rbt.Parameter_File>
/export/apps/rDock/src/rDock_2013.1_src/data/scripts/dock_solv.prm

>  <Rbt.Receptor>
prm/blind_docking_40.prm

>  <SCORE>
-16.6336

>  <SCORE.INTER>
-16.6336

>  <SCORE.INTER.CONST>
1

>  <SCORE.INTER.POLAR>
0

>  <SCORE.INTER.ROT>
0

>  <SCORE.INTER.SOLV>
3.81207

>  <SCORE.INTER.VDW>
-15.9598

>  <SCORE.INTER.norm>
-1.66336

>  <SCORE.INTRA>
0

>  <SCORE.INTRA.DIHEDRAL>
0

>  <SCORE.INTRA.DIHEDRAL.0>
0

>  <SCORE.INTRA.POLAR>
0

>  <SCORE.INTRA.POLAR.0>
0

>  <SCORE.INTRA.REPUL>
0

>  <SCORE.INTRA.REPUL.0>
0

>  <SCORE.INTRA.SOLV>
0

>  <SCORE.INTRA.SOLV.lig_0>
-4.28614

>  <SCORE.INTRA.VDW>
0

>  <SCORE.INTRA.VDW.0>
0

>  <SCORE.INTRA.norm>
0

>  <SCORE.RESTR>
0

>  <SCORE.RESTR.CAVITY>
0

>  <SCORE.RESTR.norm>
0

>  <SCORE.SYSTEM>
0

>  <SCORE.SYSTEM.CONST>
0

>  <SCORE.SYSTEM.DIHEDRAL>
0

>  <SCORE.SYSTEM.SOLV>
0

>  <SCORE.SYSTEM.norm>
0

>  <SCORE.heavy>
10

>  <SCORE.norm>
-1.66336

>  <RMSD>
3.526

$$$$
ligand
 OpenBabel11021811423D
libRbt.so/2013.1/901 2013/11/27
 10 11  0  0  0  0  0  0  0  0999 V2000
  -11.6922  -10.6632    6.2635 N   0  0  0  0  0  0  0  0  0  0  0  0
  -11.9964   -9.6918    7.2193 C   0  0  0  0  0  0  0  0  0  0  0  0
  -12.1313   -9.9842    8.5252 N   0  0  0  0  0  0  0  0  0  0  0  0
  -11.9325  -11.3327    8.8074 C   0  0  0  0  0  0  0  0  0  0  0  0
  -11.6331  -12.3683    7.9204 C   0  0  0  0  0  0  0  0  0  0  0  0
  -11.4940  -12.0615    6.5207 C   0  0  0  0  0  0  0  0  0  0  0  0
  -11.2413  -12.7693    5.5759 O   0  0  0  0  0  0  0  0  0  0  0  0
  -11.5101  -13.5660    8.6480 N   0  0  0  0  0  0  0  0  0  0  0  0
  -11.7320  -13.2239    9.9459 C   0  0  0  0  0  0  0  0  0  0  0  0
  -11.9955  -11.8528   10.0721 N   0  0  0  0  0  0  0  0  0  0  0  0
  1  2  1  0  0  0  0
  1  6  1  0  0  0  0
  2  3  2  0  0  0  0
  3  4  1  0  0  0  0
  4  5  2  0  0  0  0
  4 10  1  0  0  0  0
  5  6  1  0  0  0  0
  5  8  1  0  0  0  0
  6  7  2  0  0  0  0
  8  9  1  0  0  0  0
  9 10  2  0  0  0  0
M  END
>  <CHROM.1>
-11.72673666,-11.76791628,7.90398990,1.25509580,1.35349485,-0.92390370

>  <Name>
ligand

>  <RI>
0

>  <Rbt.Current_Directory>
/home/itssahil/PROJECTS/Mol_Feturizer/New_Systems/rnas/2EES

>  <Rbt.Executable>
rbdock ($Id: //depot/dev/client3/rdock/2013.1/src/exe/rbdock.cxx#4 $)

>  <Rbt.Library>
libRbt.so (2013.1, Build901 2013/11/27)

>  <Rbt.Parameter_File>
/export/apps/rDock/src/rDock_2013.1_src/data/scripts/dock_solv.prm

>  <Rbt.Receptor>
prm/pocket_docking_4.prm

>  <SCORE>
-16.678

>  <SCORE.INTER>
-16.678

>  <SCORE.INTER.CONST>
1

>  <SCORE.INTER.POLAR>
0

>  <SCORE.INTER.ROT>
0

>  <SCORE.INTER.SOLV>
3.80757

>  <SCORE.INTER.VDW>
-15.9878

>  <SCORE.INTER.norm>
-1.6678

>  <SCORE.INTRA>
0

>  <SCORE.INTRA.DIHEDRAL>
0

>  <SCORE.INTRA.DIHEDRAL.0>
0

>  <SCORE.INTRA.POLAR>
0

>  <SCORE.INTRA.POLAR.0>
0

>  <SCORE.INTRA.REPUL>
0

>  <SCORE.INTRA.REPUL.0>
0

>  <SCORE.INTRA.SOLV>
0

>  <SCORE.INTRA.SOLV.lig_0>
-4.28614

>  <SCORE.INTRA.VDW>
0

>  <SCORE.INTRA.VDW.0>
0

>  <SCORE.INTRA.norm>
0

>  <SCORE.RESTR>
0

>  <SCORE.RESTR.CAVITY>
0

>  <SCORE.RESTR.norm>
0

>  <SCORE.SYSTEM>
0

>  <SCORE.SYSTEM.CONST>
0

>  <SCORE.SYSTEM.DIHEDRAL>
0

>  <SCORE.SYSTEM.SOLV>
0

>  <SCORE.SYSTEM.norm>
0

>  <SCORE.heavy>
10

>  <SCORE.norm>
-1.6678

>  <RMSD>
3.526

$$$$
ligand
 OpenBabel11021811423D
libRbt.so/2013.1/901 2013/11/27
 10 11  0  0  0  0  0  0  0  0999 V2000
  -11.5941  -10.6442    6.3584 N   0  0  0  0  0  0  0  0  0  0  0  0
  -11.8795   -9.6775    7.3246 C   0  0  0  0  0  0  0  0  0  0  0  0
  -12.0502   -9.9855    8.6228 N   0  0  0  0  0  0  0  0  0  0  0  0
  -11.9079  -11.3450    8.8859 C   0  0  0  0  0  0  0  0  0  0  0  0
  -11.6309  -12.3768    7.9872 C   0  0  0  0  0  0  0  0  0  0  0  0
  -11.4537  -12.0530    6.5957 C   0  0  0  0  0  0  0  0  0  0  0  0
  -11.2099  -12.7546    5.6438 O   0  0  0  0  0  0  0  0  0  0  0  0
  -11.5671  -13.5899    8.6967 N   0  0  0  0  0  0  0  0  0  0  0  0
  -11.8005  -13.2606    9.9958 C   0  0  0  0  0  0  0  0  0  0  0  0
  -12.0145  -11.8827   10.1402 N   0  0  0  0  0  0  0  0  0  0  0  0
  1  2  1  0  0  0  0
  1  6  1  0  0  0  0
  2  3  2  0  0  0  0
  3  4  1  0  0  0  0
  4  5  2  0  0  0  0
  4 10  1  0  0  0  0
  5  6  1  0  0  0  0
  5  8  1  0  0  0  0
  6  7  2  0  0  0  0
  8  9  1  0  0  0  0
  9 10  2  0  0  0  0
M  END
>  <CHROM.1>
-11.70147411,-11.77313395,7.97914340,1.06505229,1.36860590,-0.72151715

>  <Name>
ligand

>  <RI>
0

>  <Rbt.Current_Directory>
/home/itssahil/PROJECTS/Mol_Feturizer/New_Systems/rnas/2EES

>  <Rbt.Executable>
rbdock ($Id: //depot/dev/client3/rdock/2013.1/src/exe/rbdock.cxx#4 $)

>  <Rbt.Library>
libRbt.so (2013.1, Build901 2013/11/27)

>  <Rbt.Parameter_File>
/export/apps/rDock/src/rDock_2013.1_src/data/scripts/dock_solv.prm

>  <Rbt.Receptor>
prm/pocket_docking_3.prm

>  <SCORE>
-16.6403

>  <SCORE.INTER>
-16.6403

>  <SCORE.INTER.CONST>
1

>  <SCORE.INTER.POLAR>
0

>  <SCORE.INTER.ROT>
0

>  <SCORE.INTER.SOLV>
3.81093

>  <SCORE.INTER.VDW>
-15.9639

>  <SCORE.INTER.norm>
-1.66403

>  <SCORE.INTRA>
0

>  <SCORE.INTRA.DIHEDRAL>
0

>  <SCORE.INTRA.DIHEDRAL.0>
0

>  <SCORE.INTRA.POLAR>
0

>  <SCORE.INTRA.POLAR.0>
0

>  <SCORE.INTRA.REPUL>
0

>  <SCORE.INTRA.REPUL.0>
0

>  <SCORE.INTRA.SOLV>
0

>  <SCORE.INTRA.SOLV.lig_0>
-4.28614

>  <SCORE.INTRA.VDW>
0

>  <SCORE.INTRA.VDW.0>
0

>  <SCORE.INTRA.norm>
0

>  <SCORE.RESTR>
0

>  <SCORE.RESTR.CAVITY>
0

>  <SCORE.RESTR.norm>
0

>  <SCORE.SYSTEM>
0

>  <SCORE.SYSTEM.CONST>
0

>  <SCORE.SYSTEM.DIHEDRAL>
0

>  <SCORE.SYSTEM.SOLV>
0

>  <SCORE.SYSTEM.norm>
0

>  <SCORE.heavy>
10

>  <SCORE.norm>
-1.66403

>  <RMSD>
3.531

$$$$
ligand
 OpenBabel11021811423D
libRbt.so/2013.1/901 2013/11/27
 10 11  0  0  0  0  0  0  0  0999 V2000
  -11.6962  -10.6886    6.3449 N   0  0  0  0  0  0  0  0  0  0  0  0
  -12.0033   -9.7112    7.2936 C   0  0  0  0  0  0  0  0  0  0  0  0
  -12.1376   -9.9945    8.6016 N   0  0  0  0  0  0  0  0  0  0  0  0
  -11.9350  -11.3404    8.8936 C   0  0  0  0  0  0  0  0  0  0  0  0
  -11.6324  -12.3815    8.0141 C   0  0  0  0  0  0  0  0  0  0  0  0
  -11.4940  -12.0844    6.6123 C   0  0  0  0  0  0  0  0  0  0  0  0
  -11.2390  -12.7983    5.6726 O   0  0  0  0  0  0  0  0  0  0  0  0
  -11.5061  -13.5736    8.7504 N   0  0  0  0  0  0  0  0  0  0  0  0
  -11.7292  -13.2228   10.0457 C   0  0  0  0  0  0  0  0  0  0  0  0
  -11.9968  -11.8515   10.1620 N   0  0  0  0  0  0  0  0  0  0  0  0
  1  2  1  0  0  0  0
  1  6  1  0  0  0  0
  2  3  2  0  0  0  0
  3  4  1  0  0  0  0
  4  5  2  0  0  0  0
  4 10  1  0  0  0  0
  5  6  1  0  0  0  0
  5  8  1  0  0  0  0
  6  7  2  0  0  0  0
  8  9  1  0  0  0  0
  9 10  2  0  0  0  0
M  END
>  <CHROM.1>
-11.72781381,-11.78153930,7.99332780,1.26239432,1.35106436,-0.93826269

>  <Name>
ligand

>  <RI>
0

>  <Rbt.Current_Directory>
/home/itssahil/PROJECTS/Mol_Feturizer/New_Systems/rnas/2EES

>  <Rbt.Executable>
rbdock ($Id: //depot/dev/client3/rdock/2013.1/src/exe/rbdock.cxx#4 $)

>  <Rbt.Library>
libRbt.so (2013.1, Build901 2013/11/27)

>  <Rbt.Parameter_File>
/export/apps/rDock/src/rDock_2013.1_src/data/scripts/dock_solv.prm

>  <Rbt.Receptor>
prm/pocket_docking_3.prm

>  <SCORE>
-16.7039

>  <SCORE.INTER>
-16.7039

>  <SCORE.INTER.CONST>
1

>  <SCORE.INTER.POLAR>
0

>  <SCORE.INTER.ROT>
0

>  <SCORE.INTER.SOLV>
3.77687

>  <SCORE.INTER.VDW>
-15.9949

>  <SCORE.INTER.norm>
-1.67039

>  <SCORE.INTRA>
0

>  <SCORE.INTRA.DIHEDRAL>
0

>  <SCORE.INTRA.DIHEDRAL.0>
0

>  <SCORE.INTRA.POLAR>
0

>  <SCORE.INTRA.POLAR.0>
0

>  <SCORE.INTRA.REPUL>
0

>  <SCORE.INTRA.REPUL.0>
0

>  <SCORE.INTRA.SOLV>
0

>  <SCORE.INTRA.SOLV.lig_0>
-4.28614

>  <SCORE.INTRA.VDW>
0

>  <SCORE.INTRA.VDW.0>
0

>  <SCORE.INTRA.norm>
0

>  <SCORE.RESTR>
0

>  <SCORE.RESTR.CAVITY>
0

>  <SCORE.RESTR.norm>
0

>  <SCORE.SYSTEM>
0

>  <SCORE.SYSTEM.CONST>
0

>  <SCORE.SYSTEM.DIHEDRAL>
0

>  <SCORE.SYSTEM.SOLV>
0

>  <SCORE.SYSTEM.norm>
0

>  <SCORE.heavy>
10

>  <SCORE.norm>
-1.67039

>  <RMSD>
3.542

$$$$
ligand
 OpenBabel11021811423D
libRbt.so/2013.1/901 2013/11/27
 10 11  0  0  0  0  0  0  0  0999 V2000
  -11.6817  -10.6967    6.2489 N   0  0  0  0  0  0  0  0  0  0  0  0
  -11.9935   -9.6992    7.1749 C   0  0  0  0  0  0  0  0  0  0  0  0
  -12.1212   -9.9520    8.4897 N   0  0  0  0  0  0  0  0  0  0  0  0
  -11.9069  -11.2888    8.8133 C   0  0  0  0  0  0  0  0  0  0  0  0
  -11.5989  -12.3484    7.9580 C   0  0  0  0  0  0  0  0  0  0  0  0
  -11.4675  -12.0840    6.5490 C   0  0  0  0  0  0  0  0  0  0  0  0
  -11.2100  -12.8182    5.6259 O   0  0  0  0  0  0  0  0  0  0  0  0
  -11.4608  -13.5213    8.7223 N   0  0  0  0  0  0  0  0  0  0  0  0
  -11.6824  -13.1412   10.0096 C   0  0  0  0  0  0  0  0  0  0  0  0
  -11.9604  -11.7697   10.0938 N   0  0  0  0  0  0  0  0  0  0  0  0
  1  2  1  0  0  0  0
  1  6  1  0  0  0  0
  2  3  2  0  0  0  0
  3  4  1  0  0  0  0
  4  5  2  0  0  0  0
  4 10  1  0  0  0  0
  5  6  1  0  0  0  0
  5  8  1  0  0  0  0
  6  7  2  0  0  0  0
  8  9  1  0  0  0  0
  9 10  2  0  0  0  0
M  END
>  <CHROM.1>
-11.69917224,-11.74982394,7.92318510,1.29552029,1.34648163,-0.99462257

>  <Name>
ligand

>  <RI>
0

>  <Rbt.Current_Directory>
/home/itssahil/PROJECTS/Mol_Feturizer/New_Systems/rnas/2EES

>  <Rbt.Executable>
rbdock ($Id: //depot/dev/client3/rdock/2013.1/src/exe/rbdock.cxx#4 $)

>  <Rbt.Library>
libRbt.so (2013.1, Build901 2013/11/27)

>  <Rbt.Parameter_File>
/export/apps/rDock/src/rDock_2013.1_src/data/scripts/dock_solv.prm

>  <Rbt.Receptor>
prm/blind_docking_100.prm

>  <SCORE>
-16.6623

>  <SCORE.INTER>
-16.6623

>  <SCORE.INTER.CONST>
1

>  <SCORE.INTER.POLAR>
0

>  <SCORE.INTER.ROT>
0

>  <SCORE.INTER.SOLV>
3.78937

>  <SCORE.INTER.VDW>
-15.9713

>  <SCORE.INTER.norm>
-1.66623

>  <SCORE.INTRA>
0

>  <SCORE.INTRA.DIHEDRAL>
0

>  <SCORE.INTRA.DIHEDRAL.0>
0

>  <SCORE.INTRA.POLAR>
0

>  <SCORE.INTRA.POLAR.0>
0

>  <SCORE.INTRA.REPUL>
0

>  <SCORE.INTRA.REPUL.0>
0

>  <SCORE.INTRA.SOLV>
0

>  <SCORE.INTRA.SOLV.lig_0>
-4.28614

>  <SCORE.INTRA.VDW>
0

>  <SCORE.INTRA.VDW.0>
0

>  <SCORE.INTRA.norm>
0

>  <SCORE.RESTR>
0

>  <SCORE.RESTR.CAVITY>
0

>  <SCORE.RESTR.norm>
0

>  <SCORE.SYSTEM>
0

>  <SCORE.SYSTEM.CONST>
0

>  <SCORE.SYSTEM.DIHEDRAL>
0

>  <SCORE.SYSTEM.SOLV>
0

>  <SCORE.SYSTEM.norm>
0

>  <SCORE.heavy>
10

>  <SCORE.norm>
-1.66623

>  <RMSD>
3.548

$$$$
ligand
 OpenBabel11021811423D
libRbt.so/2013.1/901 2013/11/27
 10 11  0  0  0  0  0  0  0  0999 V2000
  -11.6372  -10.7319    6.2261 N   0  0  0  0  0  0  0  0  0  0  0  0
  -11.9091   -9.7209    7.1500 C   0  0  0  0  0  0  0  0  0  0  0  0
  -12.0417   -9.9650    8.4660 N   0  0  0  0  0  0  0  0  0  0  0  0
  -11.8755  -11.3078    8.7930 C   0  0  0  0  0  0  0  0  0  0  0  0
  -11.6094  -12.3805    7.9400 C   0  0  0  0  0  0  0  0  0  0  0  0
  -11.4730  -12.1252    6.5297 C   0  0  0  0  0  0  0  0  0  0  0  0
  -11.2456  -12.8711    5.6080 O   0  0  0  0  0  0  0  0  0  0  0  0
  -11.5118  -13.5554    8.7074 N   0  0  0  0  0  0  0  0  0  0  0  0
  -11.7151  -13.1637    9.9942 C   0  0  0  0  0  0  0  0  0  0  0  0
  -11.9424  -11.7827   10.0751 N   0  0  0  0  0  0  0  0  0  0  0  0
  1  2  1  0  0  0  0
  1  6  1  0  0  0  0
  2  3  2  0  0  0  0
  3  4  1  0  0  0  0
  4  5  2  0  0  0  0
  4 10  1  0  0  0  0
  5  6  1  0  0  0  0
  5  8  1  0  0  0  0
  6  7  2  0  0  0  0
  8  9  1  0  0  0  0
  9 10  2  0  0  0  0
M  END
>  <CHROM.1>
-11.68775563,-11.77874521,7.90363863,1.20545695,1.37825563,-0.90949173

>  <Name>
ligand

>  <RI>
0

>  <Rbt.Current_Directory>
/home/itssahil/PROJECTS/Mol_Feturizer/New_Systems/rnas/2EES

>  <Rbt.Executable>
rbdock ($Id: //depot/dev/client3/rdock/2013.1/src/exe/rbdock.cxx#4 $)

>  <Rbt.Library>
libRbt.so (2013.1, Build901 2013/11/27)

>  <Rbt.Parameter_File>
/export/apps/rDock/src/rDock_2013.1_src/data/scripts/dock_solv.prm

>  <Rbt.Receptor>
prm/pocket_docking_6.prm

>  <SCORE>
-16.6024

>  <SCORE.INTER>
-16.6024

>  <SCORE.INTER.CONST>
1

>  <SCORE.INTER.POLAR>
0

>  <SCORE.INTER.ROT>
0

>  <SCORE.INTER.SOLV>
3.90566

>  <SCORE.INTER.VDW>
-15.9702

>  <SCORE.INTER.norm>
-1.66024

>  <SCORE.INTRA>
0

>  <SCORE.INTRA.DIHEDRAL>
0

>  <SCORE.INTRA.DIHEDRAL.0>
0

>  <SCORE.INTRA.POLAR>
0

>  <SCORE.INTRA.POLAR.0>
0

>  <SCORE.INTRA.REPUL>
0

>  <SCORE.INTRA.REPUL.0>
0

>  <SCORE.INTRA.SOLV>
0

>  <SCORE.INTRA.SOLV.lig_0>
-4.28614

>  <SCORE.INTRA.VDW>
0

>  <SCORE.INTRA.VDW.0>
0

>  <SCORE.INTRA.norm>
0

>  <SCORE.RESTR>
0

>  <SCORE.RESTR.CAVITY>
0

>  <SCORE.RESTR.norm>
0

>  <SCORE.SYSTEM>
0

>  <SCORE.SYSTEM.CONST>
0

>  <SCORE.SYSTEM.DIHEDRAL>
0

>  <SCORE.SYSTEM.SOLV>
0

>  <SCORE.SYSTEM.norm>
0

>  <SCORE.heavy>
10

>  <SCORE.norm>
-1.66024

>  <RMSD>
3.552

$$$$
ligand
 OpenBabel11021811423D
libRbt.so/2013.1/901 2013/11/27
 10 11  0  0  0  0  0  0  0  0999 V2000
  -11.6163  -10.7264    6.2720 N   0  0  0  0  0  0  0  0  0  0  0  0
  -11.9335   -9.7296    7.1969 C   0  0  0  0  0  0  0  0  0  0  0  0
  -12.1023   -9.9894    8.5057 N   0  0  0  0  0  0  0  0  0  0  0  0
  -11.9236  -11.3326    8.8245 C   0  0  0  0  0  0  0  0  0  0  0  0
  -11.6134  -12.3918    7.9697 C   0  0  0  0  0  0  0  0  0  0  0  0
  -11.4381  -12.1199    6.5669 C   0  0  0  0  0  0  0  0  0  0  0  0
  -11.1699  -12.8524    5.6454 O   0  0  0  0  0  0  0  0  0  0  0  0
  -11.5196  -13.5729    8.7283 N   0  0  0  0  0  0  0  0  0  0  0  0
  -11.7689  -13.1978   10.0119 C   0  0  0  0  0  0  0  0  0  0  0  0
  -12.0218  -11.8217   10.0993 N   0  0  0  0  0  0  0  0  0  0  0  0
  1  2  1  0  0  0  0
  1  6  1  0  0  0  0
  2  3  2  0  0  0  0
  3  4  1  0  0  0  0
  4  5  2  0  0  0  0
  4 10  1  0  0  0  0
  5  6  1  0  0  0  0
  5  8  1  0  0  0  0
  6  7  2  0  0  0  0
  8  9  1  0  0  0  0
  9 10  2  0  0  0  0
M  END
>  <CHROM.1>
-11.70071503,-11.79115925,7.93683254,1.14319493,1.34567542,-0.83853319

>  <Name>
ligand

>  <RI>
0

>  <Rbt.Current_Directory>
/home/itssahil/PROJECTS/Mol_Feturizer/New_Systems/rnas/2EES

>  <Rbt.Executable>
rbdock ($Id: //depot/dev/client3/rdock/2013.1/src/exe/rbdock.cxx#4 $)

>  <Rbt.Library>
libRbt.so (2013.1, Build901 2013/11/27)

>  <Rbt.Parameter_File>
/export/apps/rDock/src/rDock_2013.1_src/data/scripts/dock_solv.prm

>  <Rbt.Receptor>
prm/pocket_docking_6.prm

>  <SCORE>
-16.6447

>  <SCORE.INTER>
-16.6447

>  <SCORE.INTER.CONST>
1

>  <SCORE.INTER.POLAR>
0

>  <SCORE.INTER.ROT>
0

>  <SCORE.INTER.SOLV>
3.76115

>  <SCORE.INTER.VDW>
-15.9502

>  <SCORE.INTER.norm>
-1.66447

>  <SCORE.INTRA>
0

>  <SCORE.INTRA.DIHEDRAL>
0

>  <SCORE.INTRA.DIHEDRAL.0>
0

>  <SCORE.INTRA.POLAR>
0

>  <SCORE.INTRA.POLAR.0>
0

>  <SCORE.INTRA.REPUL>
0

>  <SCORE.INTRA.REPUL.0>
0

>  <SCORE.INTRA.SOLV>
0

>  <SCORE.INTRA.SOLV.lig_0>
-4.28614

>  <SCORE.INTRA.VDW>
0

>  <SCORE.INTRA.VDW.0>
0

>  <SCORE.INTRA.norm>
0

>  <SCORE.RESTR>
0

>  <SCORE.RESTR.CAVITY>
0

>  <SCORE.RESTR.norm>
0

>  <SCORE.SYSTEM>
0

>  <SCORE.SYSTEM.CONST>
0

>  <SCORE.SYSTEM.DIHEDRAL>
0

>  <SCORE.SYSTEM.SOLV>
0

>  <SCORE.SYSTEM.norm>
0

>  <SCORE.heavy>
10

>  <SCORE.norm>
-1.66447

>  <RMSD>
3.554

$$$$
ligand
 OpenBabel11021811423D
libRbt.so/2013.1/901 2013/11/27
 10 11  0  0  0  0  0  0  0  0999 V2000
  -36.1864  -20.2500   10.6381 N   0  0  0  0  0  0  0  0  0  0  0  0
  -36.0784  -20.8054    9.3616 C   0  0  0  0  0  0  0  0  0  0  0  0
  -36.2578  -20.0800    8.2433 N   0  0  0  0  0  0  0  0  0  0  0  0
  -36.5513  -18.7435    8.4991 C   0  0  0  0  0  0  0  0  0  0  0  0
  -36.6843  -18.1071    9.7345 C   0  0  0  0  0  0  0  0  0  0  0  0
  -36.4995  -18.8807   10.9345 C   0  0  0  0  0  0  0  0  0  0  0  0
  -36.5592  -18.5644   12.0981 O   0  0  0  0  0  0  0  0  0  0  0  0
  -36.9756  -16.7485    9.5146 N   0  0  0  0  0  0  0  0  0  0  0  0
  -37.0058  -16.6004    8.1626 C   0  0  0  0  0  0  0  0  0  0  0  0
  -36.7481  -17.8154    7.5124 N   0  0  0  0  0  0  0  0  0  0  0  0
  1  2  1  0  0  0  0
  1  6  1  0  0  0  0
  2  3  2  0  0  0  0
  3  4  1  0  0  0  0
  4  5  2  0  0  0  0
  4 10  1  0  0  0  0
  5  6  1  0  0  0  0
  5  8  1  0  0  0  0
  6  7  2  0  0  0  0
  8  9  1  0  0  0  0
  9 10  2  0  0  0  0
M  END
>  <CHROM.1>
-36.55401531,-18.66052697,9.51946490,-0.83137690,1.35426662,-1.60021705

>  <Name>
ligand

>  <RI>
0

>  <Rbt.Current_Directory>
/home/itssahil/PROJECTS/Mol_Feturizer/New_Systems/rnas/2EES

>  <Rbt.Executable>
rbdock ($Id: //depot/dev/client3/rdock/2013.1/src/exe/rbdock.cxx#4 $)

>  <Rbt.Library>
libRbt.so (2013.1, Build901 2013/11/27)

>  <Rbt.Parameter_File>
/export/apps/rDock/src/rDock_2013.1_src/data/scripts/dock_solv.prm

>  <Rbt.Receptor>
prm/blind_docking_60.prm

>  <SCORE>
-13.6497

>  <SCORE.INTER>
-13.6497

>  <SCORE.INTER.CONST>
1

>  <SCORE.INTER.POLAR>
0

>  <SCORE.INTER.ROT>
0

>  <SCORE.INTER.SOLV>
5.1584

>  <SCORE.INTER.VDW>
-14.4192

>  <SCORE.INTER.norm>
-1.36497

>  <SCORE.INTRA>
0

>  <SCORE.INTRA.DIHEDRAL>
0

>  <SCORE.INTRA.DIHEDRAL.0>
0

>  <SCORE.INTRA.POLAR>
0

>  <SCORE.INTRA.POLAR.0>
0

>  <SCORE.INTRA.REPUL>
0

>  <SCORE.INTRA.REPUL.0>
0

>  <SCORE.INTRA.SOLV>
0

>  <SCORE.INTRA.SOLV.lig_0>
-4.28614

>  <SCORE.INTRA.VDW>
0

>  <SCORE.INTRA.VDW.0>
0

>  <SCORE.INTRA.norm>
0

>  <SCORE.RESTR>
0

>  <SCORE.RESTR.CAVITY>
0

>  <SCORE.RESTR.norm>
0

>  <SCORE.SYSTEM>
0

>  <SCORE.SYSTEM.CONST>
0

>  <SCORE.SYSTEM.DIHEDRAL>
0

>  <SCORE.SYSTEM.SOLV>
0

>  <SCORE.SYSTEM.norm>
0

>  <SCORE.heavy>
10

>  <SCORE.norm>
-1.36497

>  <RMSD>
26.060

$$$$
ligand
 OpenBabel11021811423D
libRbt.so/2013.1/901 2013/11/27
 10 11  0  0  0  0  0  0  0  0999 V2000
  -36.1942  -20.2495   10.6402 N   0  0  0  0  0  0  0  0  0  0  0  0
  -36.0828  -20.8045    9.3638 C   0  0  0  0  0  0  0  0  0  0  0  0
  -36.2582  -20.0785    8.2452 N   0  0  0  0  0  0  0  0  0  0  0  0
  -36.5513  -18.7418    8.5008 C   0  0  0  0  0  0  0  0  0  0  0  0
  -36.6874  -18.1058    9.7360 C   0  0  0  0  0  0  0  0  0  0  0  0
  -36.5069  -18.8801   10.9362 C   0  0  0  0  0  0  0  0  0  0  0  0
  -36.5698  -18.5642   12.0997 O   0  0  0  0  0  0  0  0  0  0  0  0
  -36.9769  -16.7468    9.5158 N   0  0  0  0  0  0  0  0  0  0  0  0
  -37.0030  -16.5982    8.1638 C   0  0  0  0  0  0  0  0  0  0  0  0
  -36.7443  -17.8131    7.5138 N   0  0  0  0  0  0  0  0  0  0  0  0
  1  2  1  0  0  0  0
  1  6  1  0  0  0  0
  2  3  2  0  0  0  0
  3  4  1  0  0  0  0
  4  5  2  0  0  0  0
  4 10  1  0  0  0  0
  5  6  1  0  0  0  0
  5  8  1  0  0  0  0
  6  7  2  0  0  0  0
  8  9  1  0  0  0  0
  9 10  2  0  0  0  0
M  END
>  <CHROM.1>
-36.55699138,-18.65924794,9.52111663,-0.84525709,1.35521058,-1.58624425

>  <Name>
ligand

>  <RI>
0

>  <Rbt.Current_Directory>
/home/itssahil/PROJECTS/Mol_Feturizer/New_Systems/rnas/2EES

>  <Rbt.Executable>
rbdock ($Id: //depot/dev/client3/rdock/2013.1/src/exe/rbdock.cxx#4 $)

>  <Rbt.Library>
libRbt.so (2013.1, Build901 2013/11/27)

>  <Rbt.Parameter_File>
/export/apps/rDock/src/rDock_2013.1_src/data/scripts/dock_solv.prm

>  <Rbt.Receptor>
prm/blind_docking_60.prm

>  <SCORE>
-13.6476

>  <SCORE.INTER>
-13.6476

>  <SCORE.INTER.CONST>
1

>  <SCORE.INTER.POLAR>
0

>  <SCORE.INTER.ROT>
0

>  <SCORE.INTER.SOLV>
5.1666

>  <SCORE.INTER.VDW>
-14.4206

>  <SCORE.INTER.norm>
-1.36476

>  <SCORE.INTRA>
0

>  <SCORE.INTRA.DIHEDRAL>
0

>  <SCORE.INTRA.DIHEDRAL.0>
0

>  <SCORE.INTRA.POLAR>
0

>  <SCORE.INTRA.POLAR.0>
0

>  <SCORE.INTRA.REPUL>
0

>  <SCORE.INTRA.REPUL.0>
0

>  <SCORE.INTRA.SOLV>
0

>  <SCORE.INTRA.SOLV.lig_0>
-4.28614

>  <SCORE.INTRA.VDW>
0

>  <SCORE.INTRA.VDW.0>
0

>  <SCORE.INTRA.norm>
0

>  <SCORE.RESTR>
0

>  <SCORE.RESTR.CAVITY>
0

>  <SCORE.RESTR.norm>
0

>  <SCORE.SYSTEM>
0

>  <SCORE.SYSTEM.CONST>
0

>  <SCORE.SYSTEM.DIHEDRAL>
0

>  <SCORE.SYSTEM.SOLV>
0

>  <SCORE.SYSTEM.norm>
0

>  <SCORE.heavy>
10

>  <SCORE.norm>
-1.36476

>  <RMSD>
26.062

$$$$
ligand
 OpenBabel11021811423D
libRbt.so/2013.1/901 2013/11/27
 10 11  0  0  0  0  0  0  0  0999 V2000
  -36.2236  -20.2680   10.6412 N   0  0  0  0  0  0  0  0  0  0  0  0
  -36.1198  -20.8235    9.3644 C   0  0  0  0  0  0  0  0  0  0  0  0
  -36.2901  -20.0953    8.2465 N   0  0  0  0  0  0  0  0  0  0  0  0
  -36.5699  -18.7560    8.5031 C   0  0  0  0  0  0  0  0  0  0  0  0
  -36.6978  -18.1192    9.7389 C   0  0  0  0  0  0  0  0  0  0  0  0
  -36.5227  -18.8958   10.9384 C   0  0  0  0  0  0  0  0  0  0  0  0
  -36.5806  -18.5798   12.1022 O   0  0  0  0  0  0  0  0  0  0  0  0
  -36.9746  -16.7575    9.5197 N   0  0  0  0  0  0  0  0  0  0  0  0
  -37.0015  -16.6079    8.1678 C   0  0  0  0  0  0  0  0  0  0  0  0
  -36.7557  -17.8250    7.5169 N   0  0  0  0  0  0  0  0  0  0  0  0
  1  2  1  0  0  0  0
  1  6  1  0  0  0  0
  2  3  2  0  0  0  0
  3  4  1  0  0  0  0
  4  5  2  0  0  0  0
  4 10  1  0  0  0  0
  5  6  1  0  0  0  0
  5  8  1  0  0  0  0
  6  7  2  0  0  0  0
  8  9  1  0  0  0  0
  9 10  2  0  0  0  0
M  END
>  <CHROM.1>
-36.57305578,-18.67383444,9.52349829,-0.83613141,1.36478543,-1.59471800

>  <Name>
ligand

>  <RI>
0

>  <Rbt.Current_Directory>
/home/itssahil/PROJECTS/Mol_Feturizer/New_Systems/rnas/2EES

>  <Rbt.Executable>
rbdock ($Id: //depot/dev/client3/rdock/2013.1/src/exe/rbdock.cxx#4 $)

>  <Rbt.Library>
libRbt.so (2013.1, Build901 2013/11/27)

>  <Rbt.Parameter_File>
/export/apps/rDock/src/rDock_2013.1_src/data/scripts/dock_solv.prm

>  <Rbt.Receptor>
prm/blind_docking_60.prm

>  <SCORE>
-13.6441

>  <SCORE.INTER>
-13.6463

>  <SCORE.INTER.CONST>
1

>  <SCORE.INTER.POLAR>
0

>  <SCORE.INTER.ROT>
0

>  <SCORE.INTER.SOLV>
5.17962

>  <SCORE.INTER.VDW>
-14.4241

>  <SCORE.INTER.norm>
-1.36463

>  <SCORE.INTRA>
0

>  <SCORE.INTRA.DIHEDRAL>
0

>  <SCORE.INTRA.DIHEDRAL.0>
0

>  <SCORE.INTRA.POLAR>
0

>  <SCORE.INTRA.POLAR.0>
0

>  <SCORE.INTRA.REPUL>
0

>  <SCORE.INTRA.REPUL.0>
0

>  <SCORE.INTRA.SOLV>
0

>  <SCORE.INTRA.SOLV.lig_0>
-4.28614

>  <SCORE.INTRA.VDW>
0

>  <SCORE.INTRA.VDW.0>
0

>  <SCORE.INTRA.norm>
0

>  <SCORE.RESTR>
0.002187

>  <SCORE.RESTR.CAVITY>
0.002187

>  <SCORE.RESTR.norm>
0.0002187

>  <SCORE.SYSTEM>
0

>  <SCORE.SYSTEM.CONST>
0

>  <SCORE.SYSTEM.DIHEDRAL>
0

>  <SCORE.SYSTEM.SOLV>
0

>  <SCORE.SYSTEM.norm>
0

>  <SCORE.heavy>
10

>  <SCORE.norm>
-1.36441

>  <RMSD>
26.082

$$$$
ligand
 OpenBabel11021811423D
libRbt.so/2013.1/901 2013/11/27
 10 11  0  0  0  0  0  0  0  0999 V2000
  -36.3104  -20.5774   10.0249 N   0  0  0  0  0  0  0  0  0  0  0  0
  -36.4013  -19.7502   11.1461 C   0  0  0  0  0  0  0  0  0  0  0  0
  -36.5942  -18.4227   11.0475 N   0  0  0  0  0  0  0  0  0  0  0  0
  -36.6952  -17.9807    9.7314 C   0  0  0  0  0  0  0  0  0  0  0  0
  -36.6107  -18.7306    8.5569 C   0  0  0  0  0  0  0  0  0  0  0  0
  -36.3979  -20.1509    8.6571 C   0  0  0  0  0  0  0  0  0  0  0  0
  -36.2934  -20.9984    7.8036 O   0  0  0  0  0  0  0  0  0  0  0  0
  -36.7799  -17.8697    7.4572 N   0  0  0  0  0  0  0  0  0  0  0  0
  -36.9656  -16.6330    7.9926 C   0  0  0  0  0  0  0  0  0  0  0  0
  -36.9174  -16.6730    9.3931 N   0  0  0  0  0  0  0  0  0  0  0  0
  1  2  1  0  0  0  0
  1  6  1  0  0  0  0
  2  3  2  0  0  0  0
  3  4  1  0  0  0  0
  4  5  2  0  0  0  0
  4 10  1  0  0  0  0
  5  6  1  0  0  0  0
  5  8  1  0  0  0  0
  6  7  2  0  0  0  0
  8  9  1  0  0  0  0
  9 10  2  0  0  0  0
M  END
>  <CHROM.1>
-36.59071403,-18.82193381,9.15756549,0.02542924,-1.41703798,1.39929549

>  <Name>
ligand

>  <RI>
0

>  <Rbt.Current_Directory>
/home/itssahil/PROJECTS/Mol_Feturizer/New_Systems/rnas/2EES

>  <Rbt.Executable>
rbdock ($Id: //depot/dev/client3/rdock/2013.1/src/exe/rbdock.cxx#4 $)

>  <Rbt.Library>
libRbt.so (2013.1, Build901 2013/11/27)

>  <Rbt.Parameter_File>
/export/apps/rDock/src/rDock_2013.1_src/data/scripts/dock_solv.prm

>  <Rbt.Receptor>
prm/blind_docking_60.prm

>  <SCORE>
-13.5076

>  <SCORE.INTER>
-13.5076

>  <SCORE.INTER.CONST>
1

>  <SCORE.INTER.POLAR>
0

>  <SCORE.INTER.ROT>
0

>  <SCORE.INTER.SOLV>
3.64431

>  <SCORE.INTER.VDW>
-13.8198

>  <SCORE.INTER.norm>
-1.35076

>  <SCORE.INTRA>
0

>  <SCORE.INTRA.DIHEDRAL>
0

>  <SCORE.INTRA.DIHEDRAL.0>
0

>  <SCORE.INTRA.POLAR>
0

>  <SCORE.INTRA.POLAR.0>
0

>  <SCORE.INTRA.REPUL>
0

>  <SCORE.INTRA.REPUL.0>
0

>  <SCORE.INTRA.SOLV>
0

>  <SCORE.INTRA.SOLV.lig_0>
-4.28614

>  <SCORE.INTRA.VDW>
0

>  <SCORE.INTRA.VDW.0>
0

>  <SCORE.INTRA.norm>
0

>  <SCORE.RESTR>
0

>  <SCORE.RESTR.CAVITY>
0

>  <SCORE.RESTR.norm>
0

>  <SCORE.SYSTEM>
0

>  <SCORE.SYSTEM.CONST>
0

>  <SCORE.SYSTEM.DIHEDRAL>
0

>  <SCORE.SYSTEM.SOLV>
0

>  <SCORE.SYSTEM.norm>
0

>  <SCORE.heavy>
10

>  <SCORE.norm>
-1.35076

>  <RMSD>
26.157

$$$$
ligand
 OpenBabel11021811423D
libRbt.so/2013.1/901 2013/11/27
 10 11  0  0  0  0  0  0  0  0999 V2000
  -36.3153  -20.5695   10.0305 N   0  0  0  0  0  0  0  0  0  0  0  0
  -36.4094  -19.7411   11.1506 C   0  0  0  0  0  0  0  0  0  0  0  0
  -36.6021  -18.4138   11.0501 N   0  0  0  0  0  0  0  0  0  0  0  0
  -36.6996  -17.9731    9.7333 C   0  0  0  0  0  0  0  0  0  0  0  0
  -36.6118  -18.7242    8.5598 C   0  0  0  0  0  0  0  0  0  0  0  0
  -36.3991  -20.1444    8.6620 C   0  0  0  0  0  0  0  0  0  0  0  0
  -36.2922  -20.9927    7.8097 O   0  0  0  0  0  0  0  0  0  0  0  0
  -36.7781  -17.8645    7.4588 N   0  0  0  0  0  0  0  0  0  0  0  0
  -36.9654  -16.6272    7.9923 C   0  0  0  0  0  0  0  0  0  0  0  0
  -36.9210  -16.6658    9.3930 N   0  0  0  0  0  0  0  0  0  0  0  0
  1  2  1  0  0  0  0
  1  6  1  0  0  0  0
  2  3  2  0  0  0  0
  3  4  1  0  0  0  0
  4  5  2  0  0  0  0
  4 10  1  0  0  0  0
  5  6  1  0  0  0  0
  5  8  1  0  0  0  0
  6  7  2  0  0  0  0
  8  9  1  0  0  0  0
  9 10  2  0  0  0  0
M  END
>  <CHROM.1>
-36.59343809,-18.81492067,9.16059046,0.04325325,-1.41736488,1.41587385

>  <Name>
ligand

>  <RI>
0

>  <Rbt.Current_Directory>
/home/itssahil/PROJECTS/Mol_Feturizer/New_Systems/rnas/2EES

>  <Rbt.Executable>
rbdock ($Id: //depot/dev/client3/rdock/2013.1/src/exe/rbdock.cxx#4 $)

>  <Rbt.Library>
libRbt.so (2013.1, Build901 2013/11/27)

>  <Rbt.Parameter_File>
/export/apps/rDock/src/rDock_2013.1_src/data/scripts/dock_solv.prm

>  <Rbt.Receptor>
prm/blind_docking_80.prm

>  <SCORE>
-13.5099

>  <SCORE.INTER>
-13.5099

>  <SCORE.INTER.CONST>
1

>  <SCORE.INTER.POLAR>
0

>  <SCORE.INTER.ROT>
0

>  <SCORE.INTER.SOLV>
3.64678

>  <SCORE.INTER.VDW>
-13.8222

>  <SCORE.INTER.norm>
-1.35099

>  <SCORE.INTRA>
0

>  <SCORE.INTRA.DIHEDRAL>
0

>  <SCORE.INTRA.DIHEDRAL.0>
0

>  <SCORE.INTRA.POLAR>
0

>  <SCORE.INTRA.POLAR.0>
0

>  <SCORE.INTRA.REPUL>
0

>  <SCORE.INTRA.REPUL.0>
0

>  <SCORE.INTRA.SOLV>
0

>  <SCORE.INTRA.SOLV.lig_0>
-4.28614

>  <SCORE.INTRA.VDW>
0

>  <SCORE.INTRA.VDW.0>
0

>  <SCORE.INTRA.norm>
0

>  <SCORE.RESTR>
0

>  <SCORE.RESTR.CAVITY>
0

>  <SCORE.RESTR.norm>
0

>  <SCORE.SYSTEM>
0

>  <SCORE.SYSTEM.CONST>
0

>  <SCORE.SYSTEM.DIHEDRAL>
0

>  <SCORE.SYSTEM.SOLV>
0

>  <SCORE.SYSTEM.norm>
0

>  <SCORE.heavy>
10

>  <SCORE.norm>
-1.35099

>  <RMSD>
26.158

$$$$
ligand
 OpenBabel11021811423D
libRbt.so/2013.1/901 2013/11/27
 10 11  0  0  0  0  0  0  0  0999 V2000
  -36.4434  -20.5608   10.0534 N   0  0  0  0  0  0  0  0  0  0  0  0
  -36.5822  -19.7317   11.1682 C   0  0  0  0  0  0  0  0  0  0  0  0
  -36.7587  -18.4027   11.0596 N   0  0  0  0  0  0  0  0  0  0  0  0
  -36.7910  -17.9612    9.7398 C   0  0  0  0  0  0  0  0  0  0  0  0
  -36.6553  -18.7130    8.5713 C   0  0  0  0  0  0  0  0  0  0  0  0
  -36.4599  -20.1349    8.6827 C   0  0  0  0  0  0  0  0  0  0  0  0
  -36.3207  -20.9841    7.8359 O   0  0  0  0  0  0  0  0  0  0  0  0
  -36.7629  -17.8518    7.4641 N   0  0  0  0  0  0  0  0  0  0  0  0
  -36.9641  -16.6130    7.9890 C   0  0  0  0  0  0  0  0  0  0  0  0
  -36.9851  -16.6520    9.3902 N   0  0  0  0  0  0  0  0  0  0  0  0
  1  2  1  0  0  0  0
  1  6  1  0  0  0  0
  2  3  2  0  0  0  0
  3  4  1  0  0  0  0
  4  5  2  0  0  0  0
  4 10  1  0  0  0  0
  5  6  1  0  0  0  0
  5  8  1  0  0  0  0
  6  7  2  0  0  0  0
  8  9  1  0  0  0  0
  9 10  2  0  0  0  0
M  END
>  <CHROM.1>
-36.66564072,-18.80387122,9.17227118,0.35745218,-1.42607117,1.72689100

>  <Name>
ligand

>  <RI>
0

>  <Rbt.Current_Directory>
/home/itssahil/PROJECTS/Mol_Feturizer/New_Systems/rnas/2EES

>  <Rbt.Executable>
rbdock ($Id: //depot/dev/client3/rdock/2013.1/src/exe/rbdock.cxx#4 $)

>  <Rbt.Library>
libRbt.so (2013.1, Build901 2013/11/27)

>  <Rbt.Parameter_File>
/export/apps/rDock/src/rDock_2013.1_src/data/scripts/dock_solv.prm

>  <Rbt.Receptor>
prm/blind_docking_100.prm

>  <SCORE>
-13.5443

>  <SCORE.INTER>
-13.5443

>  <SCORE.INTER.CONST>
1

>  <SCORE.INTER.POLAR>
0

>  <SCORE.INTER.ROT>
0

>  <SCORE.INTER.SOLV>
3.78441

>  <SCORE.INTER.VDW>
-13.891

>  <SCORE.INTER.norm>
-1.35443

>  <SCORE.INTRA>
0

>  <SCORE.INTRA.DIHEDRAL>
0

>  <SCORE.INTRA.DIHEDRAL.0>
0

>  <SCORE.INTRA.POLAR>
0

>  <SCORE.INTRA.POLAR.0>
0

>  <SCORE.INTRA.REPUL>
0

>  <SCORE.INTRA.REPUL.0>
0

>  <SCORE.INTRA.SOLV>
0

>  <SCORE.INTRA.SOLV.lig_0>
-4.28614

>  <SCORE.INTRA.VDW>
0

>  <SCORE.INTRA.VDW.0>
0

>  <SCORE.INTRA.norm>
0

>  <SCORE.RESTR>
0

>  <SCORE.RESTR.CAVITY>
0

>  <SCORE.RESTR.norm>
0

>  <SCORE.SYSTEM>
0

>  <SCORE.SYSTEM.CONST>
0

>  <SCORE.SYSTEM.DIHEDRAL>
0

>  <SCORE.SYSTEM.SOLV>
0

>  <SCORE.SYSTEM.norm>
0

>  <SCORE.heavy>
10

>  <SCORE.norm>
-1.35443

>  <RMSD>
26.224

$$$$
ligand
 OpenBabel11021811423D
libRbt.so/2013.1/901 2013/11/27
 10 11  0  0  0  0  0  0  0  0999 V2000
  -36.4507  -20.5611   10.0554 N   0  0  0  0  0  0  0  0  0  0  0  0
  -36.5817  -19.7304   11.1700 C   0  0  0  0  0  0  0  0  0  0  0  0
  -36.7530  -18.4008   11.0607 N   0  0  0  0  0  0  0  0  0  0  0  0
  -36.7887  -17.9603    9.7407 C   0  0  0  0  0  0  0  0  0  0  0  0
  -36.6607  -18.7138    8.5724 C   0  0  0  0  0  0  0  0  0  0  0  0
  -36.4708  -20.1365    8.6843 C   0  0  0  0  0  0  0  0  0  0  0  0
  -36.3385  -20.9871    7.8378 O   0  0  0  0  0  0  0  0  0  0  0  0
  -36.7690  -17.8532    7.4648 N   0  0  0  0  0  0  0  0  0  0  0  0
  -36.9629  -16.6131    7.9893 C   0  0  0  0  0  0  0  0  0  0  0  0
  -36.9786  -16.6507    9.3906 N   0  0  0  0  0  0  0  0  0  0  0  0
  1  2  1  0  0  0  0
  1  6  1  0  0  0  0
  2  3  2  0  0  0  0
  3  4  1  0  0  0  0
  4  5  2  0  0  0  0
  4 10  1  0  0  0  0
  5  6  1  0  0  0  0
  5  8  1  0  0  0  0
  6  7  2  0  0  0  0
  8  9  1  0  0  0  0
  9 10  2  0  0  0  0
M  END
>  <CHROM.1>
-36.66905688,-18.80409674,9.17348328,0.33432774,-1.43078873,1.70305356

>  <Name>
ligand

>  <RI>
0

>  <Rbt.Current_Directory>
/home/itssahil/PROJECTS/Mol_Feturizer/New_Systems/rnas/2EES

>  <Rbt.Executable>
rbdock ($Id: //depot/dev/client3/rdock/2013.1/src/exe/rbdock.cxx#4 $)

>  <Rbt.Library>
libRbt.so (2013.1, Build901 2013/11/27)

>  <Rbt.Parameter_File>
/export/apps/rDock/src/rDock_2013.1_src/data/scripts/dock_solv.prm

>  <Rbt.Receptor>
prm/blind_docking_60.prm

>  <SCORE>
-13.5437

>  <SCORE.INTER>
-13.5437

>  <SCORE.INTER.CONST>
1

>  <SCORE.INTER.POLAR>
0

>  <SCORE.INTER.ROT>
0

>  <SCORE.INTER.SOLV>
3.78736

>  <SCORE.INTER.VDW>
-13.8916

>  <SCORE.INTER.norm>
-1.35437

>  <SCORE.INTRA>
0

>  <SCORE.INTRA.DIHEDRAL>
0

>  <SCORE.INTRA.DIHEDRAL.0>
0

>  <SCORE.INTRA.POLAR>
0

>  <SCORE.INTRA.POLAR.0>
0

>  <SCORE.INTRA.REPUL>
0

>  <SCORE.INTRA.REPUL.0>
0

>  <SCORE.INTRA.SOLV>
0

>  <SCORE.INTRA.SOLV.lig_0>
-4.28614

>  <SCORE.INTRA.VDW>
0

>  <SCORE.INTRA.VDW.0>
0

>  <SCORE.INTRA.norm>
0

>  <SCORE.RESTR>
0

>  <SCORE.RESTR.CAVITY>
0

>  <SCORE.RESTR.norm>
0

>  <SCORE.SYSTEM>
0

>  <SCORE.SYSTEM.CONST>
0

>  <SCORE.SYSTEM.DIHEDRAL>
0

>  <SCORE.SYSTEM.SOLV>
0

>  <SCORE.SYSTEM.norm>
0

>  <SCORE.heavy>
10

>  <SCORE.norm>
-1.35437

>  <RMSD>
26.227

$$$$
ligand
 OpenBabel11021811423D
libRbt.so/2013.1/901 2013/11/27
 10 11  0  0  0  0  0  0  0  0999 V2000
  -36.8697  -17.4025   10.0988 N   0  0  0  0  0  0  0  0  0  0  0  0
  -36.9243  -18.3379   11.1340 C   0  0  0  0  0  0  0  0  0  0  0  0
  -36.8893  -19.6636   10.9090 N   0  0  0  0  0  0  0  0  0  0  0  0
  -36.7897  -19.9870    9.5588 C   0  0  0  0  0  0  0  0  0  0  0  0
  -36.7359  -19.1236    8.4630 C   0  0  0  0  0  0  0  0  0  0  0  0
  -36.7795  -17.7040    8.6983 C   0  0  0  0  0  0  0  0  0  0  0  0
  -36.7467  -16.7725    7.9310 O   0  0  0  0  0  0  0  0  0  0  0  0
  -36.6279  -19.8899    7.2881 N   0  0  0  0  0  0  0  0  0  0  0  0
  -36.6145  -21.1855    7.7025 C   0  0  0  0  0  0  0  0  0  0  0  0
  -36.7137  -21.2738    9.0981 N   0  0  0  0  0  0  0  0  0  0  0  0
  1  2  1  0  0  0  0
  1  6  1  0  0  0  0
  2  3  2  0  0  0  0
  3  4  1  0  0  0  0
  4  5  2  0  0  0  0
  4 10  1  0  0  0  0
  5  6  1  0  0  0  0
  5  8  1  0  0  0  0
  6  7  2  0  0  0  0
  8  9  1  0  0  0  0
  9 10  2  0  0  0  0
M  END
>  <CHROM.1>
-36.76880911,-19.08829589,9.06895275,2.19629758,1.49791155,-0.33501986

>  <Name>
ligand

>  <RI>
0

>  <Rbt.Current_Directory>
/home/itssahil/PROJECTS/Mol_Feturizer/New_Systems/rnas/2EES

>  <Rbt.Executable>
rbdock ($Id: //depot/dev/client3/rdock/2013.1/src/exe/rbdock.cxx#4 $)

>  <Rbt.Library>
libRbt.so (2013.1, Build901 2013/11/27)

>  <Rbt.Parameter_File>
/export/apps/rDock/src/rDock_2013.1_src/data/scripts/dock_solv.prm

>  <Rbt.Receptor>
prm/blind_docking_60.prm

>  <SCORE>
-12.1961

>  <SCORE.INTER>
-12.1961

>  <SCORE.INTER.CONST>
1

>  <SCORE.INTER.POLAR>
0

>  <SCORE.INTER.ROT>
0

>  <SCORE.INTER.SOLV>
5.27713

>  <SCORE.INTER.VDW>
-13.4898

>  <SCORE.INTER.norm>
-1.21961

>  <SCORE.INTRA>
0

>  <SCORE.INTRA.DIHEDRAL>
0

>  <SCORE.INTRA.DIHEDRAL.0>
0

>  <SCORE.INTRA.POLAR>
0

>  <SCORE.INTRA.POLAR.0>
0

>  <SCORE.INTRA.REPUL>
0

>  <SCORE.INTRA.REPUL.0>
0

>  <SCORE.INTRA.SOLV>
0

>  <SCORE.INTRA.SOLV.lig_0>
-4.28614

>  <SCORE.INTRA.VDW>
0

>  <SCORE.INTRA.VDW.0>
0

>  <SCORE.INTRA.norm>
0

>  <SCORE.RESTR>
0

>  <SCORE.RESTR.CAVITY>
0

>  <SCORE.RESTR.norm>
0

>  <SCORE.SYSTEM>
0

>  <SCORE.SYSTEM.CONST>
0

>  <SCORE.SYSTEM.DIHEDRAL>
0

>  <SCORE.SYSTEM.SOLV>
0

>  <SCORE.SYSTEM.norm>
0

>  <SCORE.heavy>
10

>  <SCORE.norm>
-1.21961

>  <RMSD>
26.309

$$$$
ligand
 OpenBabel11021811423D
libRbt.so/2013.1/901 2013/11/27
 10 11  0  0  0  0  0  0  0  0999 V2000
  -36.9050  -17.4133   10.1296 N   0  0  0  0  0  0  0  0  0  0  0  0
  -36.9330  -18.3574   11.1579 C   0  0  0  0  0  0  0  0  0  0  0  0
  -36.8716  -19.6803   10.9225 N   0  0  0  0  0  0  0  0  0  0  0  0
  -36.7744  -19.9913    9.5691 C   0  0  0  0  0  0  0  0  0  0  0  0
  -36.7462  -19.1187    8.4797 C   0  0  0  0  0  0  0  0  0  0  0  0
  -36.8181  -17.7022    8.7262 C   0  0  0  0  0  0  0  0  0  0  0  0
  -36.8100  -16.7644    7.9659 O   0  0  0  0  0  0  0  0  0  0  0  0
  -36.6301  -19.8736    7.2983 N   0  0  0  0  0  0  0  0  0  0  0  0
  -36.5866  -21.1718    7.7025 C   0  0  0  0  0  0  0  0  0  0  0  0
  -36.6744  -21.2727    9.0981 N   0  0  0  0  0  0  0  0  0  0  0  0
  1  2  1  0  0  0  0
  1  6  1  0  0  0  0
  2  3  2  0  0  0  0
  3  4  1  0  0  0  0
  4  5  2  0  0  0  0
  4 10  1  0  0  0  0
  5  6  1  0  0  0  0
  5  8  1  0  0  0  0
  6  7  2  0  0  0  0
  8  9  1  0  0  0  0
  9 10  2  0  0  0  0
M  END
>  <CHROM.1>
-36.77572086,-19.08870920,9.08611825,2.48903192,1.49415650,-0.61931775

>  <Name>
ligand

>  <RI>
0

>  <Rbt.Current_Directory>
/home/itssahil/PROJECTS/Mol_Feturizer/New_Systems/rnas/2EES

>  <Rbt.Executable>
rbdock ($Id: //depot/dev/client3/rdock/2013.1/src/exe/rbdock.cxx#4 $)

>  <Rbt.Library>
libRbt.so (2013.1, Build901 2013/11/27)

>  <Rbt.Parameter_File>
/export/apps/rDock/src/rDock_2013.1_src/data/scripts/dock_solv.prm

>  <Rbt.Receptor>
prm/blind_docking_80.prm

>  <SCORE>
-12.2334

>  <SCORE.INTER>
-12.2334

>  <SCORE.INTER.CONST>
1

>  <SCORE.INTER.POLAR>
0

>  <SCORE.INTER.ROT>
0

>  <SCORE.INTER.SOLV>
5.30597

>  <SCORE.INTER.VDW>
-13.5243

>  <SCORE.INTER.norm>
-1.22334

>  <SCORE.INTRA>
0

>  <SCORE.INTRA.DIHEDRAL>
0

>  <SCORE.INTRA.DIHEDRAL.0>
0

>  <SCORE.INTRA.POLAR>
0

>  <SCORE.INTRA.POLAR.0>
0

>  <SCORE.INTRA.REPUL>
0

>  <SCORE.INTRA.REPUL.0>
0

>  <SCORE.INTRA.SOLV>
0

>  <SCORE.INTRA.SOLV.lig_0>
-4.28614

>  <SCORE.INTRA.VDW>
0

>  <SCORE.INTRA.VDW.0>
0

>  <SCORE.INTRA.norm>
0

>  <SCORE.RESTR>
0

>  <SCORE.RESTR.CAVITY>
0

>  <SCORE.RESTR.norm>
0

>  <SCORE.SYSTEM>
0

>  <SCORE.SYSTEM.CONST>
0

>  <SCORE.SYSTEM.DIHEDRAL>
0

>  <SCORE.SYSTEM.SOLV>
0

>  <SCORE.SYSTEM.norm>
0

>  <SCORE.heavy>
10

>  <SCORE.norm>
-1.22334

>  <RMSD>
26.314

$$$$
ligand
 OpenBabel11021811423D
libRbt.so/2013.1/901 2013/11/27
 10 11  0  0  0  0  0  0  0  0999 V2000
  -36.9496  -17.1255    9.9793 N   0  0  0  0  0  0  0  0  0  0  0  0
  -36.8723  -16.8240    8.6182 C   0  0  0  0  0  0  0  0  0  0  0  0
  -36.7370  -17.7751    7.6767 N   0  0  0  0  0  0  0  0  0  0  0  0
  -36.6891  -19.0630    8.2028 C   0  0  0  0  0  0  0  0  0  0  0  0
  -36.7524  -19.4547    9.5413 C   0  0  0  0  0  0  0  0  0  0  0  0
  -36.8908  -18.4400   10.5531 C   0  0  0  0  0  0  0  0  0  0  0  0
  -36.9677  -18.5250   11.7550 O   0  0  0  0  0  0  0  0  0  0  0  0
  -36.6764  -20.8580    9.6061 N   0  0  0  0  0  0  0  0  0  0  0  0
  -36.5749  -21.2737    8.3148 C   0  0  0  0  0  0  0  0  0  0  0  0
  -36.5798  -20.1869    7.4292 N   0  0  0  0  0  0  0  0  0  0  0  0
  1  2  1  0  0  0  0
  1  6  1  0  0  0  0
  2  3  2  0  0  0  0
  3  4  1  0  0  0  0
  4  5  2  0  0  0  0
  4 10  1  0  0  0  0
  5  6  1  0  0  0  0
  5  8  1  0  0  0  0
  6  7  2  0  0  0  0
  8  9  1  0  0  0  0
  9 10  2  0  0  0  0
M  END
>  <CHROM.1>
-36.77298360,-18.94172574,9.21588498,-2.99027021,-1.47912630,2.38077606

>  <Name>
ligand

>  <RI>
0

>  <Rbt.Current_Directory>
/home/itssahil/PROJECTS/Mol_Feturizer/New_Systems/rnas/2EES

>  <Rbt.Executable>
rbdock ($Id: //depot/dev/client3/rdock/2013.1/src/exe/rbdock.cxx#4 $)

>  <Rbt.Library>
libRbt.so (2013.1, Build901 2013/11/27)

>  <Rbt.Parameter_File>
/export/apps/rDock/src/rDock_2013.1_src/data/scripts/dock_solv.prm

>  <Rbt.Receptor>
prm/blind_docking_80.prm

>  <SCORE>
-13.6915

>  <SCORE.INTER>
-13.6915

>  <SCORE.INTER.CONST>
1

>  <SCORE.INTER.POLAR>
0

>  <SCORE.INTER.ROT>
0

>  <SCORE.INTER.SOLV>
5.04491

>  <SCORE.INTER.VDW>
-14.4093

>  <SCORE.INTER.norm>
-1.36915

>  <SCORE.INTRA>
0

>  <SCORE.INTRA.DIHEDRAL>
0

>  <SCORE.INTRA.DIHEDRAL.0>
0

>  <SCORE.INTRA.POLAR>
0

>  <SCORE.INTRA.POLAR.0>
0

>  <SCORE.INTRA.REPUL>
0

>  <SCORE.INTRA.REPUL.0>
0

>  <SCORE.INTRA.SOLV>
0

>  <SCORE.INTRA.SOLV.lig_0>
-4.28614

>  <SCORE.INTRA.VDW>
0

>  <SCORE.INTRA.VDW.0>
0

>  <SCORE.INTRA.norm>
0

>  <SCORE.RESTR>
0

>  <SCORE.RESTR.CAVITY>
0

>  <SCORE.RESTR.norm>
0

>  <SCORE.SYSTEM>
0

>  <SCORE.SYSTEM.CONST>
0

>  <SCORE.SYSTEM.DIHEDRAL>
0

>  <SCORE.SYSTEM.SOLV>
0

>  <SCORE.SYSTEM.norm>
0

>  <SCORE.heavy>
10

>  <SCORE.norm>
-1.36915

>  <RMSD>
26.342

$$$$
