@<TRIPOS>MOLECULE
2EES_rdock.pdb
 1422 1589 0 0 0
SMALL
GASTEIGER

@<TRIPOS>ATOM
      1  C5'       -5.8160   -6.9790   21.1430 C.3    15  G15         0.2141
      2  O5'       -4.7590   -7.0400   20.1670 O.3    15  G15        -0.2176
      3  C4'       -5.5530   -5.9950   22.2630 C.3    15  G15         0.1802
      4  O4'       -4.2270   -6.2390   22.8320 O.3    15  G15        -0.3306
      5  C3'       -5.5480   -4.5230   21.8570 C.3    15  G15         0.1861
      6  O3'       -6.8600   -3.9910   21.9570 O.3    15  G15        -0.3112
      7  C2'       -4.5690   -3.9410   22.8670 C.3    15  G15         0.2309
      8  O2'       -5.1200   -3.8040   24.1640 O.3    15  G15        -0.2156
      9  C1'       -3.4920   -5.0270   22.8360 C.3    15  G15         0.2408
     10  N1        -1.3040   -1.9840   19.4230 N.ar   15  G15        -0.1709
     11  C2        -1.8380   -1.6670   20.6540 C.ar   15  G15         0.2606
     12  N2        -1.7960   -0.3550   21.0130 N.pl3  15  G15        -0.0859
     13  N3        -2.3600   -2.5670   21.4780 N.ar   15  G15        -0.1918
     14  C4        -2.2810   -3.8260   20.9740 C.ar   15  G15         0.1723
     15  C5        -1.7480   -4.2440   19.7740 C.ar   15  G15         0.1748
     16  C6        -1.2160   -3.2710   18.8880 C.ar   15  G15         0.3023
     17  O6        -0.7200   -3.4380   17.7640 O.2    15  G15        -0.2633
     18  N7        -1.8420   -5.6240   19.6460 N.ar   15  G15        -0.2173
     19  C8        -2.4340   -6.0090   20.7430 C.ar   15  G15         0.1817
     20  N9        -2.7530   -4.9650   21.5780 N.ar   15  G15        -0.2693
     21  P         -7.1180   -2.4160   21.7270 P.3    16  G16         0.2141
     22  C5'       -6.6960   -1.1130   19.4910 C.3    16  G16         0.1812
     23  O5'       -6.1960   -1.9990   20.4990 O.3    16  G16        -0.3114
     24  C4'       -6.6310    0.3400   19.9470 C.3    16  G16         0.1773
     25  O4'       -5.3230    0.6350   20.5350 O.3    16  G16        -0.3307
     26  C3'       -6.7960    1.3100   18.7770 C.3    16  G16         0.1860
     27  O3'       -8.1070    1.8490   18.6980 O.3    16  G16        -0.3112
     28  C2'       -5.7230    2.3750   18.9900 C.3    16  G16         0.2309
     29  O2'       -6.1750    3.5020   19.7180 O.3    16  G16        -0.2156
     30  C1'       -4.6360    1.5770   19.7170 C.3    16  G16         0.2408
     31  N1        -0.5260    1.6930   16.7190 N.ar   16  G16        -0.1709
     32  C2        -1.0590    2.6900   17.5160 C.ar   16  G16         0.2606
     33  N2        -0.3930    3.8610   17.5370 N.pl3  16  G16        -0.0859
     34  N3        -2.1580    2.5470   18.2470 N.ar   16  G16        -0.1918
     35  C4        -2.6770    1.3090   18.1300 C.ar   16  G16         0.1723
     36  C5        -2.2170    0.2440   17.3700 C.ar   16  G16         0.1748
     37  C6        -1.0480    0.4090   16.5910 C.ar   16  G16         0.3023
     38  O6        -0.4850   -0.4210   15.8700 O.2    16  G16        -0.2633
     39  N7        -3.0300   -0.8680   17.5330 N.ar   16  G16        -0.2173
     40  C8        -3.9460   -0.4720   18.3750 C.ar   16  G16         0.1817
     41  N9        -3.7890    0.8370   18.7810 N.ar   16  G16        -0.2693
     42  OP1       -6.6470   -1.6530   22.9270 O.3    16  G16        -0.4373
     43  OP2       -8.5390   -2.2770   21.2760 O.co2  16  G16        -0.5172
     44  P         -8.9980    1.5340   17.3960 P.3    17  A17         0.2141
     45  C5'       -8.5590    3.9690   16.4600 C.3    17  A17         0.1812
     46  O5'       -8.4820    2.5540   16.2720 O.3    17  A17        -0.3114
     47  C4'       -7.6390    4.6800   15.4840 C.3    17  A17         0.1773
     48  O4'       -6.2450    4.5020   15.9010 O.3    17  A17        -0.3307
     49  C3'       -7.6370    4.1550   14.0510 C.3    17  A17         0.1860
     50  O3'       -8.7510    4.5840   13.2600 O.3    17  A17        -0.3112
     51  C2'       -6.3000    4.6740   13.5340 C.3    17  A17         0.2309
     52  O2'       -6.3030    6.0640   13.2560 O.3    17  A17        -0.2156
     53  C1'       -5.4110    4.3690   14.7430 C.3    17  A17         0.2408
     54  N1        -2.4150    0.9650   12.2670 N.ar   17  A17        -0.2040
     55  C2        -2.7270    2.2460   12.0060 C.ar   17  A17         0.2016
     56  N3        -3.5130    3.0770   12.6820 N.ar   17  A17        -0.2048
     57  C4        -4.0240    2.4640   13.7700 C.ar   17  A17         0.1692
     58  C5        -3.7880    1.1570   14.1730 C.ar   17  A17         0.1518
     59  C6        -2.9340    0.3820   13.3660 C.ar   17  A17         0.1919
     60  N6        -2.6050   -0.8860   13.6280 N.pl3  17  A17        -0.1054
     61  N7        -4.4800    0.8730   15.3430 N.ar   17  A17        -0.2193
     62  C8        -5.1100    1.9920   15.6210 C.ar   17  A17         0.1816
     63  N9        -4.8770    3.0010   14.7150 N.ar   17  A17        -0.2693
     64  OP1      -10.4290    1.8340   17.6940 O.3    17  A17        -0.4373
     65  OP2       -8.6050    0.1500   16.9880 O.co2  17  A17        -0.5172
     66  P         -9.3380    3.5950   12.1140 P.3    18  C18         0.2141
     67  C5'       -8.1350    4.9220   10.2240 C.3    18  C18         0.1812
     68  O5'       -8.2990    3.7090   10.9220 O.3    18  C18        -0.3114
     69  C4'       -6.9510    4.8020    9.3170 C.3    18  C18         0.1773
     70  O4'       -5.8820    4.1760   10.0810 O.3    18  C18        -0.3307
     71  C3'       -7.1730    3.8040    8.2070 C.3    18  C18         0.1860
     72  O3'       -7.9310    4.3420    7.1260 O.3    18  C18        -0.3112
     73  C2'       -5.7460    3.4240    7.8460 C.3    18  C18         0.2309
     74  O2'       -5.1160    4.4250    7.1020 O.3    18  C18        -0.2156
     75  C1'       -5.1140    3.3390    9.2320 C.3    18  C18         0.2420
     76  N1        -5.0700    1.9880    9.8270 N.ar   18  C18        -0.2535
     77  C2        -4.1040    1.0860    9.3700 C.ar   18  C18         0.3532
     78  O2        -3.3510    1.4360    8.4380 O.2    18  C18        -0.2443
     79  N3        -4.0060   -0.1400    9.9460 N.ar   18  C18        -0.1739
     80  C4        -4.8400   -0.4850   10.9240 C.ar   18  C18         0.1759
     81  N4        -4.7060   -1.7110   11.4540 N.pl3  18  C18        -0.1070
     82  C5        -5.8500    0.4070   11.4010 C.ar   18  C18         0.0566
     83  C6        -5.9310    1.6210   10.8260 C.ar   18  C18         0.0850
     84  OP1      -10.6250    4.1590   11.6010 O.2    18  C18        -0.5172
     85  OP2       -9.2930    2.1920   12.6450 O.co2  18  C18        -0.4373
     86  P         -8.7590    3.3390    6.1740 P.3    19  A19         0.2141
     87  C5'       -6.8670    3.2170    4.2810 C.3    19  A19         0.1812
     88  O5'       -7.6130    2.5660    5.3300 O.3    19  A19        -0.3114
     89  C4'       -5.8150    2.2750    3.6830 C.3    19  A19         0.1773
     90  O4'       -4.8780    1.8350    4.7190 O.3    19  A19        -0.3307
     91  C3'       -6.3610    0.9620    3.1230 C.3    19  A19         0.1860
     92  O3'       -6.8280    1.0940    1.7920 O.3    19  A19        -0.3112
     93  C2'       -5.1390    0.0530    3.1610 C.3    19  A19         0.2309
     94  O2'       -4.2720    0.3010    2.0910 O.3    19  A19        -0.2156
     95  C1'       -4.4810    0.4840    4.4600 C.3    19  A19         0.2408
     96  N1        -3.5840   -3.9750    6.8330 N.ar   19  A19        -0.2040
     97  C2        -3.0660   -3.4090    5.7450 C.ar   19  A19         0.2016
     98  N3        -3.3710   -2.2400    5.1760 N.ar   19  A19        -0.2048
     99  C4        -4.3340   -1.6100    5.8590 C.ar   19  A19         0.1692
    100  C5        -4.9690   -2.0550    6.9920 C.ar   19  A19         0.1518
    101  C6        -4.5600   -3.3100    7.5050 C.ar   19  A19         0.1919
    102  N6        -5.0590   -3.8790    8.6180 N.pl3  19  A19        -0.1054
    103  N7        -5.9250   -1.1230    7.4120 N.ar   19  A19        -0.2193
    104  C8        -5.8250   -0.1520    6.5360 C.ar   19  A19         0.1816
    105  N9        -4.8770   -0.3770    5.5760 N.ar   19  A19        -0.2693
    106  OP1       -9.6090    4.0870    5.2210 O.2    19  A19        -0.5172
    107  OP2       -9.3850    2.3300    7.1040 O.co2  19  A19        -0.4373
    108  P         -8.1170    0.2390    1.2990 P.3    20  U20         0.2141
    109  C5'       -6.5890   -1.5200    0.0660 C.3    20  U20         0.1812
    110  O5'       -7.5560   -1.2500    1.0850 O.3    20  U20        -0.3114
    111  C4'       -6.0290   -2.9210    0.2060 C.3    20  U20         0.1773
    112  O4'       -5.3340   -3.0290    1.4650 O.3    20  U20        -0.3307
    113  C3'       -7.0170   -4.0830    0.2730 C.3    20  U20         0.1860
    114  O3'       -7.4900   -4.4820   -0.9920 O.3    20  U20        -0.3112
    115  C2'       -6.1440   -5.1750    0.8630 C.3    20  U20         0.2309
    116  O2'       -5.3160   -5.8300   -0.0850 O.3    20  U20        -0.2156
    117  C1'       -5.3240   -4.3820    1.8790 C.3    20  U20         0.2420
    118  N1        -5.9360   -4.4240    3.2050 N.ar   20  U20        -0.2534
    119  C2        -5.6780   -5.4920    4.0010 C.ar   20  U20         0.3546
    120  O2        -4.9710   -6.4230    3.6760 O.2    20  U20        -0.2443
    121  N3        -6.3120   -5.4620    5.2080 N.ar   20  U20        -0.1530
    122  C4        -7.1890   -4.5060    5.6690 C.ar   20  U20         0.2846
    123  O4        -7.7780   -4.7020    6.7330 O.2    20  U20        -0.2650
    124  C5        -7.3970   -3.4250    4.7860 C.ar   20  U20         0.0814
    125  C6        -6.7720   -3.4150    3.6100 C.ar   20  U20         0.0870
    126  OP1       -8.5120    0.7190   -0.0550 O.2    20  U20        -0.5172
    127  OP2       -9.0780    0.3050    2.4110 O.co2  20  U20        -0.4373
    128  P         -9.0060   -5.0140   -1.1390 P.3    21  U21         0.2141
    129  C5'       -8.3270   -7.5370   -0.7850 C.3    21  U21         0.1812
    130  O5'       -8.9630   -6.3750   -0.3010 O.3    21  U21        -0.3114
    131  C4'       -8.4130   -8.6580    0.2210 C.3    21  U21         0.1773
    132  O4'       -7.7860   -8.2540    1.4610 O.3    21  U21        -0.3307
    133  C3'       -9.7910   -9.0750    0.7190 C.3    21  U21         0.1860
    134  O3'      -10.5130   -9.8590   -0.2240 O.3    21  U21        -0.3112
    135  C2'       -9.4260   -9.8960    1.9410 C.3    21  U21         0.2309
    136  O2'       -9.0560  -11.2300    1.6910 O.3    21  U21        -0.2156
    137  C1'       -8.2580   -9.0900    2.5080 C.3    21  U21         0.2420
    138  N1        -8.7290   -8.2510    3.6180 N.ar   21  U21        -0.2534
    139  C2        -8.7210   -8.8320    4.8470 C.ar   21  U21         0.3546
    140  O2        -8.2660   -9.9390    5.0250 O.2    21  U21        -0.2443
    141  N3        -9.2770   -8.0770    5.8590 N.ar   21  U21        -0.1530
    142  C4        -9.8190   -6.8190    5.7500 C.ar   21  U21         0.2846
    143  O4       -10.3890   -6.3340    6.7170 O.2    21  U21        -0.2650
    144  C5        -9.7780   -6.2460    4.4220 C.ar   21  U21         0.0814
    145  C6        -9.2300   -6.9610    3.4250 C.ar   21  U21         0.0870
    146  OP1       -9.2570   -5.2540   -2.5700 O.2    21  U21        -0.5172
    147  OP2       -9.8630   -4.0290   -0.4080 O.co2  21  U21        -0.4373
    148  P        -11.7780   -9.2270   -0.9450 P.3    22  U22         0.2141
    149  C5'      -13.9230   -8.1580    0.2260 C.3    22  U22         0.1812
    150  O5'      -12.7940   -9.0550    0.2640 O.3    22  U22        -0.3114
    151  C4'      -14.4740   -8.0250    1.6350 C.3    22  U22         0.1773
    152  O4'      -14.8330   -9.3780    2.0690 O.3    22  U22        -0.3307
    153  C3'      -13.4350   -7.5350    2.6310 C.3    22  U22         0.1860
    154  O3'      -13.9760   -6.7210    3.7190 O.3    22  U22        -0.3112
    155  C2'      -12.8730   -8.8290    3.2200 C.3    22  U22         0.2309
    156  O2'      -12.2770   -8.5450    4.4930 O.3    22  U22        -0.2156
    157  C1'      -14.1310   -9.7130    3.2710 C.3    22  U22         0.2420
    158  N1       -13.8690  -11.1710    3.2630 N.ar   22  U22        -0.2534
    159  C2       -14.1230  -11.9540    4.4090 C.ar   22  U22         0.3546
    160  O2       -14.6290  -11.5090    5.4730 O.2    22  U22        -0.2443
    161  N3       -13.7850  -13.2970    4.2750 N.ar   22  U22        -0.1530
    162  C4       -13.2550  -13.9070    3.1650 C.ar   22  U22         0.2846
    163  O4       -12.9190  -15.0830    3.2030 O.2    22  U22        -0.2650
    164  C5       -13.0670  -13.0360    2.0540 C.ar   22  U22         0.0814
    165  C6       -13.3730  -11.7540    2.1320 C.ar   22  U22         0.0870
    166  OP1      -12.2290  -10.3340   -1.7660 O.2    22  U22        -0.5172
    167  OP2      -11.5550   -7.8480   -1.5330 O.co2  22  U22        -0.4373
    168  P        -14.3760   -5.2040    3.4950 P.3    23  A23         0.2141
    169  C5'      -16.9260   -5.7760    3.8320 C.3    23  A23         0.1812
    170  O5'      -15.9020   -5.1890    3.0090 O.3    23  A23        -0.3114
    171  C4'      -18.0870   -6.2700    2.9990 C.3    23  A23         0.1773
    172  O4'      -17.6830   -7.0130    1.8160 O.3    23  A23        -0.3307
    173  C3'      -19.0020   -7.2650    3.7220 C.3    23  A23         0.1860
    174  O3'      -19.8740   -6.5540    4.5950 O.3    23  A23        -0.3112
    175  C2'      -19.8070   -7.8330    2.5460 C.3    23  A23         0.2309
    176  O2'      -20.9010   -6.9560    2.2540 O.3    23  A23        -0.2156
    177  C1'      -18.7580   -7.8300    1.4060 C.3    23  A23         0.2408
    178  N1       -17.0490  -12.4910    2.8920 N.ar   23  A23        -0.2040
    179  C2       -17.4900  -11.4320    3.6040 C.ar   23  A23         0.2016
    180  N3       -17.8890  -10.2220    3.1630 N.ar   23  A23        -0.2048
    181  C4       -17.8260  -10.1720    1.8170 C.ar   23  A23         0.1692
    182  C5       -17.4030  -11.1690    0.9660 C.ar   23  A23         0.1518
    183  C6       -16.9730  -12.3840    1.5490 C.ar   23  A23         0.1919
    184  N6       -16.4810  -13.4610    0.8370 N.pl3  23  A23        -0.1054
    185  N7       -17.5140  -10.7510   -0.3700 N.ar   23  A23        -0.2193
    186  C8       -17.9830   -9.5430   -0.2820 C.ar   23  A23         0.1816
    187  N9       -18.2120   -9.1260    1.0070 N.ar   23  A23        -0.2693
    188  OP1      -13.6570   -4.5810    2.2630 O.2    23  A23        -0.5172
    189  OP2      -14.2880   -4.4770    4.7990 O.co2  23  A23        -0.4373
    190  P        -19.8410   -6.8030    6.2120 P.3    24  A24         0.2141
    191  C5'      -19.6650   -9.4720    6.0780 C.3    24  A24         0.1812
    192  O5'      -20.3960   -8.2940    6.4300 O.3    24  A24        -0.3114
    193  C4'      -19.5760  -10.4450    7.2710 C.3    24  A24         0.1773
    194  O4'      -18.6680   -9.8670    8.2590 O.3    24  A24        -0.3307
    195  C3'      -20.8490  -10.7330    8.0830 C.3    24  A24         0.1860
    196  O3'      -21.6380  -11.7550    7.4250 O.3    24  A24        -0.3112
    197  C2'      -20.2280  -11.2660    9.3780 C.3    24  A24         0.2309
    198  O2'      -19.7690  -12.6090    9.2420 O.3    24  A24        -0.2156
    199  C1'      -19.0210  -10.3290    9.5490 C.3    24  A24         0.2408
    200  N1       -19.5230   -8.6420   14.3270 N.ar   24  A24        -0.2040
    201  C2       -19.4640   -9.8600   13.8220 C.ar   24  A24         0.2016
    202  N3       -19.3200  -10.2350   12.5490 N.ar   24  A24        -0.2048
    203  C4       -19.2890   -9.1440   11.7490 C.ar   24  A24         0.1692
    204  C5       -19.3280   -7.8020   12.1450 C.ar   24  A24         0.1518
    205  C6       -19.4250   -7.5680   13.5200 C.ar   24  A24         0.1919
    206  N6       -19.3900   -6.3440   14.0780 N.pl3  24  A24        -0.1054
    207  N7       -19.2360   -6.9420   11.0490 N.ar   24  A24        -0.2193
    208  C8       -19.1340   -7.7890   10.0180 C.ar   24  A24         0.1816
    209  N9       -19.1600   -9.1400   10.4000 N.ar   24  A24        -0.2693
    210  OP1      -20.8010   -5.8430    6.8770 O.3    24  A24        -0.4373
    211  OP2      -18.4230   -6.7720    6.5950 O.co2  24  A24        -0.5172
    212  P        -23.1960  -11.4810    6.9740 P.3    25  U25         0.2141
    213  C5'      -22.9080  -10.4520    4.5300 C.3    25  U25         0.1812
    214  O5'      -23.2270  -11.5630    5.3770 O.3    25  U25        -0.3114
    215  C4'      -22.3400  -10.9560    3.2190 C.3    25  U25         0.1773
    216  O4'      -20.9760  -11.4300    3.4660 O.3    25  U25        -0.3307
    217  C3'      -22.9890  -12.1680    2.5480 C.3    25  U25         0.1860
    218  O3'      -24.1680  -11.8640    1.7910 O.3    25  U25        -0.3112
    219  C2'      -21.8640  -12.6160    1.6450 C.3    25  U25         0.2309
    220  O2'      -21.6180  -11.6970    0.5980 O.3    25  U25        -0.2156
    221  C1'      -20.6760  -12.5150    2.5980 C.3    25  U25         0.2420
    222  N1       -20.4000  -13.7240    3.3920 N.ar   25  U25        -0.2534
    223  C2       -19.7810  -14.8070    2.7400 C.ar   25  U25         0.3546
    224  O2       -19.4570  -14.7770    1.5390 O.2    25  U25        -0.2443
    225  N3       -19.5390  -15.9020    3.5240 N.ar   25  U25        -0.1530
    226  C4       -19.8270  -16.0450    4.8910 C.ar   25  U25         0.2846
    227  O4       -19.6860  -17.1490    5.4280 O.2    25  U25        -0.2650
    228  C5       -20.4570  -14.8770    5.5070 C.ar   25  U25         0.0814
    229  C6       -20.7170  -13.7980    4.7690 C.ar   25  U25         0.0870
    230  OP1      -23.6730  -10.2090    7.5450 O.3    25  U25        -0.4373
    231  OP2      -23.9610  -12.7510    7.3240 O.co2  25  U25        -0.5172
    232  P        -25.2590  -13.0130    1.4900 P.3    26  C26         0.2141
    233  C5'      -24.4240  -13.4550   -0.9840 C.3    26  C26         0.1812
    234  O5'      -24.6150  -13.9160    0.3440 O.3    26  C26        -0.3114
    235  C4'      -23.8520  -14.5770   -1.8680 C.3    26  C26         0.1773
    236  O4'      -22.5140  -14.9770   -1.4800 O.3    26  C26        -0.3307
    237  C3'      -24.5960  -15.9140   -1.8120 C.3    26  C26         0.1860
    238  O3'      -25.7650  -15.8780   -2.5690 O.3    26  C26        -0.3112
    239  C2'      -23.6020  -16.8600   -2.4570 C.3    26  C26         0.2309
    240  O2'      -23.4480  -16.6130   -3.8600 O.3    26  C26        -0.2156
    241  C1'      -22.3250  -16.3860   -1.7680 C.3    26  C26         0.2420
    242  N1       -22.1480  -17.1180   -0.4850 N.ar   26  C26        -0.2535
    243  C2       -21.6580  -18.4480   -0.5120 C.ar   26  C26         0.3532
    244  O2       -21.4220  -18.9870   -1.5930 O.2    26  C26        -0.2443
    245  N3       -21.4870  -19.1170    0.6460 N.ar   26  C26        -0.1739
    246  C4       -21.8330  -18.5610    1.8010 C.ar   26  C26         0.1759
    247  N4       -21.6960  -19.3330    2.9320 N.pl3  26  C26        -0.1070
    248  C5       -22.3410  -17.2300    1.8690 C.ar   26  C26         0.0566
    249  C6       -22.4710  -16.5390    0.6990 C.ar   26  C26         0.0850
    250  OP1      -26.4050  -12.2390    0.9690 O.2    26  C26        -0.5172
    251  OP2      -25.4790  -13.9100    2.6900 O.co2  26  C26        -0.4373
    252  P        -27.0470  -16.7210   -2.0610 P.3    27  G27         0.2141
    253  C5'      -26.2900  -18.7280   -3.6360 C.3    27  G27         0.1812
    254  O5'      -26.6070  -18.2630   -2.2910 O.3    27  G27        -0.3114
    255  C4'      -25.8740  -20.2170   -3.6020 C.3    27  G27         0.1773
    256  O4'      -24.6580  -20.3660   -2.8360 O.3    27  G27        -0.3307
    257  C3'      -26.8130  -21.1200   -2.8120 C.3    27  G27         0.1860
    258  O3'      -27.9250  -21.4560   -3.6200 O.3    27  G27        -0.3112
    259  C2'      -25.9300  -22.3450   -2.6490 C.3    27  G27         0.2309
    260  O2'      -25.7070  -23.1340   -3.8410 O.3    27  G27        -0.2156
    261  C1'      -24.6210  -21.6610   -2.2630 C.3    27  G27         0.2408
    262  N1       -23.3590  -24.1570    2.0060 N.ar   27  G27        -0.1709
    263  C2       -23.3320  -24.6110    0.6890 C.ar   27  G27         0.2606
    264  N2       -22.9260  -25.9230    0.4910 N.pl3  27  G27        -0.0859
    265  N3       -23.6480  -23.8180   -0.3710 N.ar   27  G27        -0.1918
    266  C4       -23.9990  -22.5470    0.0120 C.ar   27  G27         0.1723
    267  C5       -24.0040  -22.0010    1.2790 C.ar   27  G27         0.1748
    268  C6       -23.6340  -22.8200    2.3890 C.ar   27  G27         0.3023
    269  O6       -23.5320  -22.4720    3.5750 O.2    27  G27        -0.2633
    270  N7       -24.4330  -20.6710    1.2400 N.ar   27  G27        -0.2173
    271  C8       -24.6970  -20.4460   -0.0310 C.ar   27  G27         0.1817
    272  N9       -24.4530  -21.5270   -0.8230 N.ar   27  G27        -0.2693
    273  OP1      -28.0790  -16.3880   -3.0010 O.2    27  G27        -0.5172
    274  OP2      -27.3260  -16.5810   -0.6300 O.co2  27  G27        -0.4373
    275  P        -29.3170  -21.8650   -2.9240 P.3    28  C28         0.2141
    276  C5'      -29.4050  -23.9210   -1.2130 C.3    28  C28         0.1812
    277  O5'      -28.8480  -23.3180   -2.3430 O.3    28  C28        -0.3114
    278  C4'      -28.6860  -25.2730   -0.9470 C.3    28  C28         0.1773
    279  O4'      -27.2990  -25.0330   -0.5810 O.3    28  C28        -0.3307
    280  C3'      -29.2250  -26.0420    0.2690 C.3    28  C28         0.1860
    281  O3'      -30.3550  -26.7580   -0.1620 O.3    28  C28        -0.3112
    282  C2'      -28.0320  -26.9340    0.5940 C.3    28  C28         0.2309
    283  O2'      -27.8370  -27.9300   -0.4100 O.3    28  C28        -0.2156
    284  C1'      -26.8750  -25.9140    0.4590 C.3    28  C28         0.2420
    285  N1       -26.6750  -25.1060    1.7290 N.ar   28  C28        -0.2535
    286  C2       -26.1120  -25.7780    2.8370 C.ar   28  C28         0.3532
    287  O2       -25.7030  -26.9890    2.6650 O.2    28  C28        -0.2443
    288  N3       -26.0060  -25.1190    4.0320 N.ar   28  C28        -0.1739
    289  C4       -26.3980  -23.8190    4.1320 C.ar   28  C28         0.1759
    290  N4       -26.2540  -23.1620    5.3400 N.pl3  28  C28        -0.1070
    291  C5       -26.9350  -23.1060    2.9890 C.ar   28  C28         0.0566
    292  C6       -27.0430  -23.8040    1.8220 C.ar   28  C28         0.0850
    293  OP1      -30.3240  -22.1860   -4.0210 O.2    28  C28        -0.5172
    294  OP2      -29.6980  -20.9220   -1.7980 O.co2  28  C28        -0.4373
    295  P        -31.4820  -27.2070    0.8610 P.3    29  G29         0.2141
    296  C5'      -30.5800  -29.7030    0.9460 C.3    29  G29         0.1812
    297  O5'      -30.7370  -28.4300    1.5810 O.3    29  G29        -0.3114
    298  C4'      -29.9180  -30.6860    1.9160 C.3    29  G29         0.1773
    299  O4'      -28.6450  -30.1720    2.3800 O.3    29  G29        -0.3307
    300  C3'      -30.7110  -30.9690    3.1810 C.3    29  G29         0.1860
    301  O3'      -31.6670  -31.9790    2.9270 O.3    29  G29        -0.3112
    302  C2'      -29.6200  -31.4350    4.1470 C.3    29  G29         0.2309
    303  O2'      -29.1990  -32.7920    3.8730 O.3    29  G29        -0.2156
    304  C1'      -28.5110  -30.4450    3.7960 C.3    29  G29         0.2408
    305  N1       -27.6490  -28.2980    8.3630 N.ar   29  G29        -0.1709
    306  C2       -27.5360  -29.6120    7.9630 C.ar   29  G29         0.2606
    307  N2       -27.1250  -30.5260    8.9540 N.pl3  29  G29        -0.0859
    308  N3       -27.7780  -30.0390    6.6960 N.ar   29  G29        -0.1918
    309  C4       -28.1420  -29.0350    5.8780 C.ar   29  G29         0.1723
    310  C5       -28.2580  -27.6920    6.1660 C.ar   29  G29         0.1748
    311  C6       -27.9690  -27.2320    7.5150 C.ar   29  G29         0.3023
    312  O6       -27.9690  -26.0270    7.9500 O.2    29  G29        -0.2633
    313  N7       -28.7250  -26.9860    5.0560 N.ar   29  G29        -0.2173
    314  C8       -28.8910  -27.9040    4.1250 C.ar   29  G29         0.1817
    315  N9       -28.5340  -29.1720    4.5460 N.ar   29  G29        -0.2693
    316  OP1      -32.7280  -27.6730    0.1840 O.2    29  G29        -0.5172
    317  OP2      -31.6660  -26.0610    1.8900 O.co2  29  G29        -0.4373
    318  P        -33.1450  -31.8090    3.4350 P.3    30  U30         0.2141
    319  C5'      -32.7570  -33.5380    5.3810 C.3    30  U30         0.1812
    320  O5'      -33.0440  -32.1950    4.9850 O.3    30  U30        -0.3114
    321  C4'      -32.4110  -33.5840    6.8720 C.3    30  U30         0.1773
    322  O4'      -31.1720  -32.8380    7.0760 O.3    30  U30        -0.3307
    323  C3'      -33.3940  -32.9080    7.7930 C.3    30  U30         0.1860
    324  O3'      -34.6320  -33.6460    8.0020 O.3    30  U30        -0.3112
    325  C2'      -32.5010  -32.7100    9.0110 C.3    30  U30         0.2309
    326  O2'      -32.3880  -33.9790    9.7080 O.3    30  U30        -0.2156
    327  C1'      -31.1920  -32.2270    8.3730 C.3    30  U30         0.2420
    328  N1       -31.1500  -30.7300    8.1930 N.ar   30  U30        -0.2534
    329  C2       -30.8730  -29.9860    9.3160 C.ar   30  U30         0.3546
    330  O2       -30.6460  -30.5480   10.3740 O.2    30  U30        -0.2443
    331  N3       -30.8990  -28.5800    9.1650 N.ar   30  U30        -0.1530
    332  C4       -31.2020  -27.9040    7.9960 C.ar   30  U30         0.2846
    333  O4       -31.1950  -26.6390    7.9560 O.2    30  U30        -0.2650
    334  C5       -31.4550  -28.7710    6.8430 C.ar   30  U30         0.0814
    335  C6       -31.4120  -30.1280    6.9930 C.ar   30  U30         0.0870
    336  OP1      -34.0320  -32.8010    2.7980 O.2    30  U30        -0.5172
    337  OP2      -33.5460  -30.3270    3.4400 O.co2  30  U30        -0.4373
    338  P        -35.9990  -32.8990    8.2510 P.3    31  G31         0.2141
    339  C5'      -35.6010  -33.2230   10.8150 C.3    31  G31         0.1812
    340  O5'      -35.8530  -32.3190    9.7090 O.3    31  G31        -0.3114
    341  C4'      -35.1720  -32.4500   12.0290 C.3    31  G31         0.1773
    342  O4'      -33.9070  -31.7750   11.7370 O.3    31  G31        -0.3307
    343  C3'      -36.0910  -31.3150   12.4990 C.3    31  G31         0.1860
    344  O3'      -37.2090  -31.7750   13.2910 O.3    31  G31        -0.3112
    345  C2'      -35.1080  -30.5570   13.3820 C.3    31  G31         0.2309
    346  O2'      -34.8590  -31.3080   14.5700 O.3    31  G31        -0.2156
    347  C1'      -33.8530  -30.5590   12.4780 C.3    31  G31         0.2408
    348  N1       -33.3640  -25.4580   12.2820 N.ar   31  G31        -0.1709
    349  C2       -33.2270  -26.3160   13.3380 C.ar   31  G31         0.2606
    350  N2       -32.9730  -25.7020   14.5750 N.pl3  31  G31        -0.0859
    351  N3       -33.3310  -27.6760   13.2160 N.ar   31  G31        -0.1918
    352  C4       -33.6210  -28.0800   11.9630 C.ar   31  G31         0.1723
    353  C5       -33.7820  -27.3130   10.8250 C.ar   31  G31         0.1748
    354  C6       -33.6590  -25.8460   10.9550 C.ar   31  G31         0.3023
    355  O6       -33.7960  -24.9770   10.0830 O.2    31  G31        -0.2633
    356  N7       -34.1520  -28.1050    9.7380 N.ar   31  G31        -0.2173
    357  C8       -34.1670  -29.3680   10.2090 C.ar   31  G31         0.1817
    358  N9       -33.8750  -29.4250   11.5590 N.ar   31  G31        -0.2693
    359  OP1      -37.1280  -33.8660    8.1920 O.3    31  G31        -0.4373
    360  OP2      -36.0980  -31.6600    7.3720 O.co2  31  G31        -0.5172
    361  P        -38.5040  -30.8710   13.4380 P.3    32  G32         0.2141
    362  C5'      -37.5420  -29.6570   15.6100 C.3    32  G32         0.1812
    363  O5'      -38.0670  -29.5650   14.2770 O.3    32  G32        -0.3114
    364  C4'      -37.2230  -28.2520   16.1390 C.3    32  G32         0.1773
    365  O4'      -36.1070  -27.6640   15.4060 O.3    32  G32        -0.3307
    366  C3'      -38.3250  -27.1830   16.0060 C.3    32  G32         0.1860
    367  O3'      -39.3670  -27.2950   16.9900 O.3    32  G32        -0.3112
    368  C2'      -37.5310  -25.8850   16.1410 C.3    32  G32         0.2309
    369  O2'      -37.1040  -25.6540   17.5020 O.3    32  G32        -0.2156
    370  C1'      -36.2900  -26.2480   15.3260 C.3    32  G32         0.2408
    371  N1       -36.4950  -22.4720   11.7900 N.ar   32  G32        -0.1709
    372  C2       -36.3420  -22.3700   13.1720 C.ar   32  G32         0.2606
    373  N2       -36.2700  -21.1230   13.6060 N.pl3  32  G32        -0.0859
    374  N3       -36.3130  -23.4540   14.0270 N.ar   32  G32        -0.1918
    375  C4       -36.5150  -24.6390   13.3540 C.ar   32  G32         0.1723
    376  C5       -36.7540  -24.8320   12.0110 C.ar   32  G32         0.1748
    377  C6       -36.7420  -23.6780   11.1170 C.ar   32  G32         0.3023
    378  O6       -36.9150  -23.6610    9.8970 O.2    32  G32        -0.2633
    379  N7       -36.9410  -26.2020   11.7180 N.ar   32  G32        -0.2173
    380  C8       -36.7790  -26.8150   12.8770 C.ar   32  G32         0.1817
    381  N9       -36.5170  -25.9290   13.9150 N.ar   32  G32        -0.2693
    382  OP1      -39.5150  -31.6100   14.3150 O.3    32  G32        -0.4373
    383  OP2      -38.9560  -30.2230   12.1310 O.co2  32  G32        -0.5172
    384  P        -40.8110  -26.8160   16.6460 P.3    33  A33         0.2141
    385  C5'      -40.2820  -24.6200   18.1050 C.3    33  A33         0.1812
    386  O5'      -40.7150  -25.1950   16.8150 O.3    33  A33        -0.3114
    387  C4'      -40.1070  -23.0980   17.9910 C.3    33  A33         0.1773
    388  O4'      -39.1160  -22.7480   16.9820 O.3    33  A33        -0.3307
    389  C3'      -41.3110  -22.3440   17.4940 C.3    33  A33         0.1860
    390  O3'      -42.2200  -22.1460   18.5810 O.3    33  A33        -0.3112
    391  C2'      -40.6900  -20.9820   17.1410 C.3    33  A33         0.2309
    392  O2'      -40.2430  -20.2090   18.2870 O.3    33  A33        -0.2156
    393  C1'      -39.4350  -21.4550   16.4260 C.3    33  A33         0.2408
    394  N1       -39.6950  -18.9310   11.9780 N.ar   33  A33        -0.2040
    395  C2       -39.7100  -18.5310   13.2410 C.ar   33  A33         0.2016
    396  N3       -39.6480  -19.2860   14.3900 N.ar   33  A33        -0.2048
    397  C4       -39.6160  -20.5850   14.0860 C.ar   33  A33         0.1692
    398  C5       -39.6300  -21.1530   12.8240 C.ar   33  A33         0.1518
    399  C6       -39.6450  -20.2690   11.7260 C.ar   33  A33         0.1919
    400  N6       -39.6100  -20.6920   10.4550 N.pl3  33  A33        -0.1054
    401  N7       -39.6520  -22.5410   12.8980 N.ar   33  A33        -0.2193
    402  C8       -39.5780  -22.7850   14.2120 C.ar   33  A33         0.1816
    403  N9       -39.5560  -21.6210   14.9720 N.ar   33  A33        -0.2693
    404  OP1      -41.7580  -27.2950   17.6930 O.3    33  A33        -0.4373
    405  OP2      -41.2110  -27.0140   15.2450 O.co2  33  A33        -0.5172
    406  P        -43.7260  -22.2040   18.3040 P.3    34  U34         0.2141
    407  C5'      -43.6010  -19.6150   17.9730 C.3    34  U34         0.1812
    408  O5'      -44.0620  -20.8670   17.4790 O.3    34  U34        -0.3114
    409  C4'      -43.8400  -18.5070   16.9440 C.3    34  U34         0.1773
    410  O4'      -42.9390  -18.7570   15.8140 O.3    34  U34        -0.3307
    411  C3'      -45.2600  -18.3490   16.3980 C.3    34  U34         0.1860
    412  O3'      -45.5960  -16.9560   16.1710 O.3    34  U34        -0.3112
    413  C2'      -45.1320  -18.9690   14.9730 C.3    34  U34         0.2309
    414  O2'      -45.9870  -18.4340   13.9650 O.3    34  U34        -0.2156
    415  C1'      -43.6870  -18.6410   14.6080 C.3    34  U34         0.2420
    416  N1       -43.2150  -19.6680   13.6620 N.ar   34  U34        -0.2534
    417  C2       -43.0680  -19.3040   12.3560 C.ar   34  U34         0.3546
    418  O2       -43.1280  -18.1090   11.9590 O.2    34  U34        -0.2443
    419  N3       -42.8430  -20.3700   11.5070 N.ar   34  U34        -0.1530
    420  C4       -42.7160  -21.7360   11.8650 C.ar   34  U34         0.2846
    421  O4       -42.6260  -22.5930   10.9700 O.2    34  U34        -0.2650
    422  C5       -42.8030  -21.9970   13.2440 C.ar   34  U34         0.0814
    423  C6       -43.0460  -20.9650   14.0870 C.ar   34  U34         0.0870
    424  OP1      -44.2660  -22.0400   19.7620 O.3    34  U34        -0.4373
    425  OP2      -44.0210  -23.4370   17.4030 O.co2  34  U34        -0.5172
    426  P        -46.6840  -16.2250   17.0950 P.3    35  A35         0.2141
    427  C5'      -45.1360  -14.0980   17.2560 C.3    35  A35         0.1812
    428  O5'      -46.3970  -14.6730   16.9030 O.3    35  A35        -0.3114
    429  C4'      -45.2670  -12.5520   17.1250 C.3    35  A35         0.1773
    430  O4'      -45.1260  -12.2180   15.7250 O.3    35  A35        -0.3307
    431  C3'      -46.6340  -11.9920   17.5780 C.3    35  A35         0.1860
    432  O3'      -46.4440  -10.7120   18.2060 O.3    35  A35        -0.3112
    433  C2'      -47.4130  -11.8660   16.2540 C.3    35  A35         0.2309
    434  O2'      -48.3030  -10.7450   16.2420 O.3    35  A35        -0.2156
    435  C1'      -46.2860  -11.6150   15.2280 C.3    35  A35         0.2408
    436  N1       -48.3330  -11.0480   10.5240 N.ar   35  A35        -0.2040
    437  C2       -48.1760  -10.1780   11.5310 C.ar   35  A35         0.2016
    438  N3       -47.5840  -10.3780   12.7610 N.ar   35  A35        -0.2048
    439  C4       -47.1750  -11.6570   12.8550 C.ar   35  A35         0.1692
    440  C5       -47.2780  -12.6590   11.8940 C.ar   35  A35         0.1518
    441  C6       -47.8740  -12.3230   10.6740 C.ar   35  A35         0.1919
    442  N6       -48.0100  -13.2070    9.6680 N.pl3  35  A35        -0.1054
    443  N7       -46.6940  -13.8330   12.3420 N.ar   35  A35        -0.2193
    444  C8       -46.2780  -13.5320   13.5620 C.ar   35  A35         0.1816
    445  N9       -46.5590  -12.2410   13.9380 N.ar   35  A35        -0.2693
    446  OP1      -46.3780  -16.6380   18.5450 O.3    35  A35        -0.4373
    447  OP2      -47.9980  -16.4910   16.5780 O.co2  35  A35        -0.5172
    448  P        -46.5020  -10.5740   19.8200 P.3    36  U36         0.2141
    449  C5'      -43.9680  -10.9060   20.5430 C.3    36  U36         0.1812
    450  O5'      -45.2790  -11.4490   20.2970 O.3    36  U36        -0.3114
    451  C4'      -43.2740  -11.7080   21.6460 C.3    36  U36         0.1773
    452  O4'      -44.0790  -11.7530   22.8610 O.3    36  U36        -0.3307
    453  C3'      -42.9710  -13.1730   21.3020 C.3    36  U36         0.1860
    454  O3'      -41.8020  -13.5730   22.0400 O.3    36  U36        -0.3112
    455  C2'      -44.1020  -13.9360   21.9880 C.3    36  U36         0.2309
    456  O2'      -43.8280  -15.3520   22.2370 O.3    36  U36        -0.2156
    457  C1'      -44.2090  -13.1430   23.2910 C.3    36  U36         0.2420
    458  N1       -45.5200  -13.3280   23.9170 N.ar   36  U36        -0.2534
    459  C2       -45.5780  -13.9360   25.1660 C.ar   36  U36         0.3546
    460  O2       -44.6030  -14.2800   25.7550 O.2    36  U36        -0.2443
    461  N3       -46.8230  -14.0770   25.6890 N.ar   36  U36        -0.1530
    462  C4       -48.0240  -13.6100   25.1510 C.ar   36  U36         0.2846
    463  O4       -49.0690  -13.7690   25.7690 O.2    36  U36        -0.2650
    464  C5       -47.8990  -12.9860   23.8620 C.ar   36  U36         0.0814
    465  C6       -46.6770  -12.8940   23.2860 C.ar   36  U36         0.0870
    466  OP1      -47.7130  -11.2520   20.2160 O.3    36  U36        -0.4373
    467  OP2      -46.3020   -9.0740   20.1790 O.co2  36  U36        -0.5172
    468  P        -40.3560  -13.3800   21.4750 P.3    37  G37         0.2141
    469  C5'      -40.2060  -15.9360   20.5850 C.3    37  G37         0.1812
    470  O5'      -40.2240  -14.5320   20.3330 O.3    37  G37        -0.3114
    471  C4'      -40.0590  -16.6960   19.2280 C.3    37  G37         0.1773
    472  O4'      -41.2450  -16.4480   18.4570 O.3    37  G37        -0.3307
    473  C3'      -38.9400  -16.1840   18.3420 C.3    37  G37         0.1860
    474  O3'      -37.7210  -16.8010   18.7340 O.3    37  G37        -0.3112
    475  C2'      -39.3960  -16.6000   16.9740 C.3    37  G37         0.2309
    476  O2'      -39.1040  -18.0090   16.8690 O.3    37  G37        -0.2156
    477  C1'      -40.8890  -16.2380   17.0760 C.3    37  G37         0.2408
    478  N1       -42.6500  -13.1730   13.4170 N.ar   37  G37        -0.1709
    479  C2       -42.4180  -14.5520   13.4020 C.ar   37  G37         0.2606
    480  N2       -42.6930  -15.2690   12.2100 N.pl3  37  G37        -0.0859
    481  N3       -41.9420  -15.2130   14.4540 N.ar   37  G37        -0.1918
    482  C4       -41.7120  -14.4050   15.5240 C.ar   37  G37         0.1723
    483  C5       -41.8950  -13.0410   15.6390 C.ar   37  G37         0.1748
    484  C6       -42.3780  -12.3250   14.5430 C.ar   37  G37         0.3023
    485  O6       -42.5670  -11.0780   14.4870 O.2    37  G37        -0.2633
    486  N7       -41.5190  -12.5900   16.9150 N.ar   37  G37        -0.2173
    487  C8       -41.1460  -13.6940   17.5500 C.ar   37  G37         0.1817
    488  N9       -41.2290  -14.8270   16.7550 N.ar   37  G37        -0.2693
    489  OP1      -39.3460  -13.7090   22.5230 O.3    37  G37        -0.4373
    490  OP2      -40.2540  -12.0360   20.7230 O.co2  37  G37        -0.5172
    491  P        -36.3220  -16.0480   18.5770 P.3    38  G38         0.2141
    492  C5'      -35.9400  -17.2570   16.2770 C.3    38  G38         0.1812
    493  O5'      -36.1250  -16.0160   17.0040 O.3    38  G38        -0.3114
    494  C4'      -35.9760  -16.9220   14.7690 C.3    38  G38         0.1773
    495  O4'      -37.3220  -16.5500   14.4280 O.3    38  G38        -0.3307
    496  C3'      -35.1140  -15.7720   14.2830 C.3    38  G38         0.1860
    497  O3'      -33.8120  -16.2270   13.9870 O.3    38  G38        -0.3112
    498  C2'      -35.8670  -15.2990   13.0250 C.3    38  G38         0.2309
    499  O2'      -35.5870  -16.1500   11.8700 O.3    38  G38        -0.2156
    500  C1'      -37.3240  -15.5090   13.4350 C.3    38  G38         0.2408
    501  N1       -39.9560  -11.3270   12.3200 N.ar   38  G38        -0.1709
    502  C2       -39.8110  -12.5060   11.5980 C.ar   38  G38         0.2606
    503  N2       -40.3150  -12.4880   10.3410 N.pl3  38  G38        -0.0859
    504  N3       -39.2390  -13.5920   12.0620 N.ar   38  G38        -0.1918
    505  C4       -38.7890  -13.4320   13.3340 C.ar   38  G38         0.1723
    506  C5       -38.9010  -12.3100   14.1550 C.ar   38  G38         0.1748
    507  C6       -39.5450  -11.1330   13.6250 C.ar   38  G38         0.3023
    508  O6       -39.7530  -10.0050   14.1840 O.2    38  G38        -0.2633
    509  N7       -38.2160  -12.4990   15.3490 N.ar   38  G38        -0.2173
    510  C8       -37.7230  -13.7260   15.2340 C.ar   38  G38         0.1817
    511  N9       -37.9700  -14.3030   14.0030 N.ar   38  G38        -0.2693
    512  OP1      -35.2580  -16.8820   19.1780 O.3    38  G38        -0.4373
    513  OP2      -36.4330  -14.5640   18.9490 O.co2  38  G38        -0.5172
    514  P        -32.5570  -15.3240   14.3550 P.3    39  C39         0.2141
    515  C5'      -31.7710  -16.8370   16.3730 C.3    39  C39         0.1812
    516  O5'      -31.5240  -16.1960   15.2530 O.3    39  C39        -0.3114
    517  C4'      -31.6400  -18.3930   16.2270 C.3    39  C39         0.1773
    518  O4'      -32.8400  -18.9130   15.7520 O.3    39  C39        -0.3307
    519  C3'      -30.5700  -19.5070   16.0770 C.3    39  C39         0.1860
    520  O3'      -29.5410  -19.5710   17.0740 O.3    39  C39        -0.3112
    521  C2'      -31.4230  -20.7640   16.3350 C.3    39  C39         0.2309
    522  O2'      -31.6480  -20.9190   17.7760 O.3    39  C39        -0.2156
    523  C1'      -32.7460  -20.3690   15.7180 C.3    39  C39         0.2420
    524  N1       -32.8960  -20.8000   14.3290 N.ar   39  C39        -0.2535
    525  C2       -33.0080  -22.1600   14.0560 C.ar   39  C39         0.3532
    526  O2       -32.9170  -23.0040   15.0790 O.2    39  C39        -0.2443
    527  N3       -33.1810  -22.5790   12.7330 N.ar   39  C39        -0.1739
    528  C4       -33.1960  -21.6610   11.7350 C.ar   39  C39         0.1759
    529  N4       -33.3710  -22.0710   10.4210 N.pl3  39  C39        -0.1070
    530  C5       -33.0410  -20.2420   12.0100 C.ar   39  C39         0.0566
    531  C6       -32.9190  -19.8660   13.3070 C.ar   39  C39         0.0850
    532  OP1      -32.9960  -14.0550   15.0320 O.3    39  C39        -0.4373
    533  OP2      -31.6450  -15.2470   13.1760 O.co2  39  C39        -0.5172
    534  P        -28.1370  -20.3250   16.8000 P.3    40  A40         0.2141
    535  C5'      -28.7440  -22.5720   18.1060 C.3    40  A40         0.1812
    536  O5'      -28.4260  -21.9160   16.8570 O.3    40  A40        -0.3114
    537  C4'      -28.7890  -24.1000   17.9350 C.3    40  A40         0.1773
    538  O4'      -29.9440  -24.5310   17.2050 O.3    40  A40        -0.3307
    539  C3'      -27.6240  -24.7100   17.1940 C.3    40  A40         0.1860
    540  O3'      -26.4600  -24.8670   17.9910 O.3    40  A40        -0.3112
    541  C2'      -28.1740  -26.0500   16.7310 C.3    40  A40         0.2309
    542  O2'      -28.2370  -27.0500   17.7930 O.3    40  A40        -0.2156
    543  C1'      -29.5800  -25.6170   16.3370 C.3    40  A40         0.2408
    544  N1       -30.2890  -26.9180   11.4620 N.ar   40  A40        -0.2040
    545  C2       -30.1040  -27.6630   12.5800 C.ar   40  A40         0.2016
    546  N3       -29.8440  -27.2310   13.8330 N.ar   40  A40        -0.2048
    547  C4       -29.7930  -25.8760   13.8550 C.ar   40  A40         0.1692
    548  C5       -29.9650  -24.9880   12.7890 C.ar   40  A40         0.1518
    549  C6       -30.2410  -25.5490   11.5400 C.ar   40  A40         0.1919
    550  N6       -30.5010  -24.7750   10.4370 N.pl3  40  A40        -0.1054
    551  N7       -29.8640  -23.6580   13.2000 N.ar   40  A40        -0.2193
    552  C8       -29.6180  -23.7550   14.5030 C.ar   40  A40         0.1816
    553  N9       -29.6310  -25.1070   14.9630 N.ar   40  A40        -0.2693
    554  OP1      -27.2350  -19.9590   17.9640 O.3    40  A40        -0.4373
    555  OP2      -27.6360  -20.0890   15.4190 O.co2  40  A40        -0.5172
    556  P        -25.0410  -24.8400   17.3370 P.3    41  C41         0.2141
    557  C5'      -24.8350  -27.4520   17.1120 C.3    41  C41         0.1812
    558  O5'      -24.9170  -26.1960   16.4530 O.3    41  C41        -0.3114
    559  C4'      -24.9640  -28.6110   16.0850 C.3    41  C41         0.1773
    560  O4'      -26.2790  -28.6390   15.4730 O.3    41  C41        -0.3307
    561  C3'      -24.0420  -28.5830   14.8870 C.3    41  C41         0.1860
    562  O3'      -22.7380  -28.9980   15.1920 O.3    41  C41        -0.3112
    563  C2'      -24.7300  -29.5810   13.9740 C.3    41  C41         0.2309
    564  O2'      -24.6120  -30.9460   14.4410 O.3    41  C41        -0.2156
    565  C1'      -26.1820  -29.1210   14.1390 C.3    41  C41         0.2420
    566  N1       -26.4450  -27.9660   13.1940 N.ar   41  C41        -0.2535
    567  C2       -26.7130  -28.3110   11.8590 C.ar   41  C41         0.3532
    568  O2       -26.7590  -29.5470   11.5710 O.2    41  C41        -0.2443
    569  N3       -26.9080  -27.3500   10.9520 N.ar   41  C41        -0.1739
    570  C4       -26.8630  -26.0520   11.3120 C.ar   41  C41         0.1759
    571  N4       -27.1050  -25.1580   10.3730 N.pl3  41  C41        -0.1070
    572  C5       -26.5750  -25.6350   12.6720 C.ar   41  C41         0.0566
    573  C6       -26.3960  -26.6440   13.5900 C.ar   41  C41         0.0850
    574  OP1      -24.0400  -24.8930   18.3930 O.3    41  C41        -0.4373
    575  OP2      -24.9010  -23.7520   16.3290 O.co2  41  C41        -0.5172
    576  P        -21.4800  -28.3660   14.4170 P.3    42  G42         0.2141
    577  C5'      -21.4030  -30.3750   12.7340 C.3    42  G42         0.1812
    578  O5'      -21.5120  -28.9510   12.9080 O.3    42  G42        -0.3114
    579  C4'      -21.8250  -30.7810   11.3160 C.3    42  G42         0.1773
    580  O4'      -23.2080  -30.3940   11.0930 O.3    42  G42        -0.3307
    581  C3'      -21.0950  -30.0910   10.1740 C.3    42  G42         0.1860
    582  O3'      -19.7990  -30.6780    9.9900 O.3    42  G42        -0.3112
    583  C2'      -22.0640  -30.4020    9.0280 C.3    42  G42         0.2309
    584  O2'      -21.9420  -31.7950    8.7160 O.3    42  G42        -0.2156
    585  C1'      -23.3940  -30.0410    9.7090 C.3    42  G42         0.2408
    586  N1       -25.0160  -26.6280    6.3700 N.ar   42  G42        -0.1709
    587  C2       -24.8070  -27.9660    6.2340 C.ar   42  G42         0.2606
    588  N2       -25.0020  -28.5060    4.9950 N.pl3  42  G42        -0.0859
    589  N3       -24.4130  -28.7590    7.2400 N.ar   42  G42        -0.1918
    590  C4       -24.2140  -28.0650    8.3930 C.ar   42  G42         0.1723
    591  C5       -24.3790  -26.6990    8.6260 C.ar   42  G42         0.1748
    592  C6       -24.8320  -25.8830    7.5630 C.ar   42  G42         0.3023
    593  O6       -25.0520  -24.6360    7.5730 O.2    42  G42        -0.2633
    594  N7       -24.0370  -26.3730    9.9490 N.ar   42  G42        -0.2173
    595  C8       -23.7050  -27.5500   10.4920 C.ar   42  G42         0.1817
    596  N9       -23.7650  -28.6060    9.5720 N.ar   42  G42        -0.2693
    597  OP1      -20.2190  -28.8910   15.0200 O.3    42  G42        -0.4373
    598  OP2      -21.6150  -26.8420   14.2570 O.co2  42  G42        -0.5172
    599  P        -18.6360  -29.8830    9.1620 P.3    43  C43         0.2141
    600  C5'      -19.3560  -31.2060    7.0180 C.3    43  C43         0.1812
    601  O5'      -19.0950  -29.9190    7.6380 O.3    43  C43        -0.3114
    602  C4'      -19.8580  -31.0490    5.5740 C.3    43  C43         0.1773
    603  O4'      -21.1800  -30.4660    5.5550 O.3    43  C43        -0.3307
    604  C3'      -19.0430  -30.1180    4.6780 C.3    43  C43         0.1860
    605  O3'      -17.8960  -30.7780    4.1750 O.3    43  C43        -0.3112
    606  C2'      -20.0450  -29.8020    3.5780 C.3    43  C43         0.2309
    607  O2'      -20.1630  -30.9420    2.7500 O.3    43  C43        -0.2156
    608  C1'      -21.3230  -29.6250    4.3990 C.3    43  C43         0.2420
    609  N1       -21.5910  -28.1940    4.7990 N.ar   43  C43        -0.2535
    610  C2       -22.1040  -27.3280    3.7940 C.ar   43  C43         0.3532
    611  O2       -22.2800  -27.7900    2.6440 O.2    43  C43        -0.2443
    612  N3       -22.3810  -26.0260    4.0870 N.ar   43  C43        -0.1739
    613  C4       -22.1400  -25.5420    5.3030 C.ar   43  C43         0.1759
    614  N4       -22.4350  -24.1950    5.5310 N.pl3  43  C43        -0.1070
    615  C5       -21.6060  -26.3840    6.3670 C.ar   43  C43         0.0566
    616  C6       -21.3640  -27.7050    6.0660 C.ar   43  C43         0.0850
    617  OP1      -17.3730  -30.7230    9.2040 O.2    43  C43        -0.5172
    618  OP2      -18.6570  -28.4340    9.5560 O.co2  43  C43        -0.4373
    619  P        -16.5850  -29.9220    3.8510 P.3    44  A44         0.2141
    620  C5'      -17.4290  -29.7780    1.3460 C.3    44  A44         0.1812
    621  O5'      -16.9880  -29.1010    2.5380 O.3    44  A44        -0.3114
    622  C4'      -17.9520  -28.7610    0.3370 C.3    44  A44         0.1773
    623  O4'      -19.1180  -28.0960    0.8910 O.3    44  A44        -0.3307
    624  C3'      -17.0270  -27.6020    0.0730 C.3    44  A44         0.1860
    625  O3'      -15.9740  -28.0040   -0.8260 O.3    44  A44        -0.3112
    626  C2'      -18.0070  -26.5540   -0.5010 C.3    44  A44         0.2309
    627  O2'      -18.4650  -26.8680   -1.8050 O.3    44  A44        -0.2156
    628  C1'      -19.1980  -26.7630    0.4320 C.3    44  A44         0.2408
    629  N1       -20.4470  -22.1220    2.2510 N.ar   44  A44        -0.2040
    630  C2       -20.5100  -22.6370    1.0410 C.ar   44  A44         0.2016
    631  N3       -20.1640  -23.8550    0.6220 N.ar   44  A44        -0.2048
    632  C4       -19.7120  -24.6000    1.6470 C.ar   44  A44         0.1692
    633  C5       -19.6250  -24.2110    2.9660 C.ar   44  A44         0.1518
    634  C6       -20.0030  -22.9120    3.2680 C.ar   44  A44         0.1919
    635  N6       -19.9510  -22.4190    4.5030 N.pl3  44  A44        -0.1054
    636  N7       -19.1370  -25.2340    3.7610 N.ar   44  A44        -0.2193
    637  C8       -18.9380  -26.2380    2.8980 C.ar   44  A44         0.1816
    638  N9       -19.2680  -25.9070    1.6040 N.ar   44  A44        -0.2693
    639  OP1      -15.5220  -30.9130    3.4130 O.2    44  A44        -0.5172
    640  OP2      -16.3150  -28.9440    4.8720 O.co2  44  A44        -0.4373
    641  P        -14.7790  -26.9790   -1.1390 P.3    45  A45         0.2141
    642  C5'      -14.9520  -24.3640   -1.4860 C.3    45  A45         0.1812
    643  O5'      -15.4610  -25.6780   -1.7460 O.3    45  A45        -0.3114
    644  C4'      -15.8070  -23.3330   -2.2240 C.3    45  A45         0.1773
    645  O4'      -17.1130  -23.1940   -1.5710 O.3    45  A45        -0.3307
    646  C3'      -15.2260  -21.9140   -2.2860 C.3    45  A45         0.1860
    647  O3'      -14.4830  -21.6970   -3.5020 O.3    45  A45        -0.3112
    648  C2'      -16.4580  -21.0150   -2.2650 C.3    45  A45         0.2309
    649  O2'      -17.1200  -20.7730   -3.4770 O.3    45  A45        -0.2156
    650  C1'      -17.4070  -21.8020   -1.3740 C.3    45  A45         0.2408
    651  N1       -18.5120  -18.3270    2.3020 N.ar   45  A45        -0.2040
    652  C2       -18.5250  -18.2520    0.9780 C.ar   45  A45         0.2016
    653  N3       -18.1190  -19.1750    0.0610 N.ar   45  A45        -0.2048
    654  C4       -17.6700  -20.2940    0.6620 C.ar   45  A45         0.1692
    655  C5       -17.6180  -20.5250    2.0120 C.ar   45  A45         0.1518
    656  C6       -18.0820  -19.4600    2.8780 C.ar   45  A45         0.1919
    657  N6       -18.1290  -19.5610    4.2170 N.pl3  45  A45        -0.1054
    658  N7       -17.1310  -21.7990    2.2760 N.ar   45  A45        -0.2193
    659  C8       -16.9100  -22.3150    1.0770 C.ar   45  A45         0.1816
    660  N9       -17.2900  -21.4840    0.0570 N.ar   45  A45        -0.2693
    661  OP1      -13.9170  -27.6900   -2.1780 O.2    45  A45        -0.5172
    662  OP2      -14.1620  -26.4430    0.1170 O.co2  45  A45        -0.4373
    663  P        -13.2360  -20.6850   -3.4890 P.3    46  G46         0.2141
    664  C5'      -14.5220  -18.3850   -3.8700 C.3    46  G46         0.1812
    665  O5'      -13.8050  -19.2680   -3.0150 O.3    46  G46        -0.3114
    666  C4'      -14.8700  -17.0900   -3.1320 C.3    46  G46         0.1773
    667  O4'      -15.7230  -17.4370   -2.0000 O.3    46  G46        -0.3307
    668  C3'      -13.6960  -16.3690   -2.4630 C.3    46  G46         0.1860
    669  O3'      -13.0550  -15.4730   -3.3480 O.3    46  G46        -0.3112
    670  C2'      -14.3850  -15.5920   -1.3400 C.3    46  G46         0.2309
    671  O2'      -15.0850  -14.4250   -1.7440 O.3    46  G46        -0.2156
    672  C1'      -15.4010  -16.6240   -0.8670 C.3    46  G46         0.2408
    673  N1       -15.5910  -17.5000    4.1520 N.ar   46  G46        -0.1709
    674  C2       -15.9550  -16.3640    3.4420 C.ar   46  G46         0.2606
    675  N2       -16.5420  -15.3570    4.1340 N.pl3  46  G46        -0.0859
    676  N3       -15.7670  -16.2190    2.1090 N.ar   46  G46        -0.1918
    677  C4       -15.1780  -17.3180    1.5570 C.ar   46  G46         0.1723
    678  C5       -14.7690  -18.4810    2.1670 C.ar   46  G46         0.1748
    679  C6       -14.9580  -18.6300    3.6000 C.ar   46  G46         0.3023
    680  O6       -14.6020  -19.5810    4.3430 O.2    46  G46        -0.2633
    681  N7       -14.2100  -19.3560    1.2410 N.ar   46  G46        -0.2173
    682  C8       -14.3140  -18.7260    0.0940 C.ar   46  G46         0.1817
    683  N9       -14.9410  -17.5070    0.2040 N.ar   46  G46        -0.2693
    684  OP1      -12.8060  -20.5330   -4.9460 O.2    46  G46        -0.5172
    685  OP2      -12.2850  -21.1560   -2.4830 O.co2  46  G46        -0.4373
    686  P        -11.4530  -15.6050   -3.5940 P.3    47  U47         0.2141
    687  C5'      -10.9810  -13.6000   -1.9720 C.3    47  U47         0.1812
    688  O5'      -10.8580  -14.9980   -2.2390 O.3    47  U47        -0.3114
    689  C4'       -9.8830  -13.1170   -1.0540 C.3    47  U47         0.1773
    690  O4'      -10.2270  -13.4870    0.3150 O.3    47  U47        -0.3307
    691  C3'       -8.5060  -13.7160   -1.3240 C.3    47  U47         0.1860
    692  O3'       -7.4570  -12.8340   -0.9090 O.3    47  U47        -0.3112
    693  C2'       -8.4940  -14.9200   -0.4080 C.3    47  U47         0.2309
    694  O2'       -7.2060  -15.1630    0.0410 O.3    47  U47        -0.2156
    695  C1'       -9.2510  -14.3900    0.8150 C.3    47  U47         0.2420
    696  N1        -9.8560  -15.4550    1.6440 N.ar   47  U47        -0.2534
    697  C2        -9.7560  -15.3430    3.0300 C.ar   47  U47         0.3546
    698  O2        -9.3920  -14.3140    3.5890 O.2    47  U47        -0.2443
    699  N3       -10.1560  -16.4430    3.7340 N.ar   47  U47        -0.1530
    700  C4       -10.7620  -17.6110    3.2350 C.ar   47  U47         0.2846
    701  O4       -11.2030  -18.4760    4.0270 O.2    47  U47        -0.2650
    702  C5       -10.9290  -17.6100    1.8090 C.ar   47  U47         0.0814
    703  C6       -10.4630  -16.5660    1.0810 C.ar   47  U47         0.0870
    704  OP1      -11.3020  -14.6900   -4.7680 O.2    47  U47        -0.5172
    705  OP2      -11.0770  -16.9850   -3.7180 O.co2  47  U47        -0.4373
    706  P         -6.6460  -11.9550   -1.9880 P.3    48  U48         0.2141
    707  C5'       -5.7170  -14.0000   -3.3420 C.3    48  U48         0.1812
    708  O5'       -5.4610  -12.9140   -2.4380 O.3    48  U48        -0.3114
    709  C4'       -4.5620  -14.9480   -3.3400 C.3    48  U48         0.1773
    710  O4'       -3.4000  -14.2860   -3.9570 O.3    48  U48        -0.3307
    711  C3'       -4.0830  -15.4290   -1.9770 C.3    48  U48         0.1860
    712  O3'       -3.9070  -16.8460   -2.0390 O.3    48  U48        -0.3112
    713  C2'       -2.7200  -14.7300   -1.8370 C.3    48  U48         0.2309
    714  O2'       -1.8400  -15.4470   -1.0160 O.3    48  U48        -0.2156
    715  C1'       -2.2400  -14.6890   -3.2830 C.3    48  U48         0.2420
    716  N1        -1.1800  -13.7040   -3.5800 N.ar   48  U48        -0.2534
    717  C2        -0.1660  -14.0930   -4.4500 C.ar   48  U48         0.3546
    718  O2        -0.1640  -15.1720   -5.0340 O.2    48  U48        -0.2443
    719  N3         0.8410  -13.1670   -4.6310 N.ar   48  U48        -0.1530
    720  C4         0.9130  -11.8850   -4.0880 C.ar   48  U48         0.2846
    721  O4         1.9230  -11.1630   -4.3170 O.2    48  U48        -0.2650
    722  C5        -0.1920  -11.5430   -3.2500 C.ar   48  U48         0.0814
    723  C6        -1.1700  -12.4480   -3.0180 C.ar   48  U48         0.0870
    724  OP1       -6.0910  -10.7870   -1.2550 O.3    48  U48        -0.4373
    725  OP2       -7.5000  -11.6870   -3.1900 O.co2  48  U48        -0.5172
    726  P         -4.9000  -17.8290   -1.2380 P.3    49  U49         0.2141
    727  C5'       -3.6490  -17.7830    1.0800 C.3    49  U49         0.1812
    728  O5'       -4.7460  -17.3380    0.2830 O.3    49  U49        -0.3114
    729  C4'       -3.9190  -17.5550    2.5530 C.3    49  U49         0.1773
    730  O4'       -3.7420  -16.1540    2.8630 O.3    49  U49        -0.3307
    731  C3'       -5.3330  -17.9240    2.9930 C.3    49  U49         0.1860
    732  O3'       -5.2940  -18.7050    4.1720 O.3    49  U49        -0.3112
    733  C2'       -6.0200  -16.5700    3.1890 C.3    49  U49         0.2309
    734  O2'       -7.0380  -16.5850    4.1900 O.3    49  U49        -0.2156
    735  C1'       -4.8390  -15.7070    3.6450 C.3    49  U49         0.2420
    736  N1        -5.0060  -14.2630    3.4310 N.ar   49  U49        -0.2534
    737  C2        -4.6290  -13.4630    4.4760 C.ar   49  U49         0.3546
    738  O2        -4.2330  -13.9190    5.5500 O.2    49  U49        -0.2443
    739  N3        -4.7310  -12.1230    4.2470 N.ar   49  U49        -0.1530
    740  C4        -5.1690  -11.4950    3.1430 C.ar   49  U49         0.2846
    741  O4        -5.1040  -10.2660    3.1030 O.2    49  U49        -0.2650
    742  C5        -5.6050  -12.3790    2.0790 C.ar   49  U49         0.0814
    743  C6        -5.4990  -13.7090    2.2620 C.ar   49  U49         0.0870
    744  OP1       -4.4560  -19.2520   -1.2690 O.3    49  U49        -0.4373
    745  OP2       -6.3010  -17.4940   -1.6520 O.co2  49  U49        -0.5172
    746  P         -6.5010  -19.7020    4.4940 P.3    50  C50         0.2141
    747  C5'       -5.0740  -20.8130    6.3590 C.3    50  C50         0.1812
    748  O5'       -6.2660  -20.1520    5.9780 O.3    50  C50        -0.3114
    749  C4'       -4.8910  -20.6450    7.8230 C.3    50  C50         0.1773
    750  O4'       -4.2930  -19.3290    8.0590 O.3    50  C50        -0.3307
    751  C3'       -6.2000  -20.4740    8.5460 C.3    50  C50         0.1860
    752  O3'       -7.2760  -21.4450    8.3600 O.3    50  C50        -0.3112
    753  C2'       -5.7330  -19.8260    9.8360 C.3    50  C50         0.2309
    754  O2'       -4.8900  -20.5870   10.6730 O.3    50  C50        -0.2156
    755  C1'       -4.8340  -18.7510    9.2440 C.3    50  C50         0.2420
    756  N1        -5.5670  -17.5200    8.8950 N.ar   50  C50        -0.2535
    757  C2        -6.0210  -16.7210    9.9420 C.ar   50  C50         0.3532
    758  O2        -5.7360  -17.0600   11.0850 O.2    50  C50        -0.2443
    759  N3        -6.7300  -15.5940    9.6700 N.ar   50  C50        -0.1739
    760  C4        -6.9470  -15.2310    8.4010 C.ar   50  C50         0.1759
    761  N4        -7.5950  -14.0800    8.1700 N.pl3  50  C50        -0.1070
    762  C5        -6.4860  -16.0280    7.2980 C.ar   50  C50         0.0566
    763  C6        -5.8050  -17.1570    7.5940 C.ar   50  C50         0.0850
    764  OP1       -6.3080  -20.9320    3.6690 O.2    50  C50        -0.5172
    765  OP2       -7.7990  -18.9700    4.4430 O.co2  50  C50        -0.4373
    766  P         -7.4230  -22.6700    9.3410 P.3    51  U51         0.2141
    767  C5'       -9.1500  -21.0900   10.3780 C.3    51  U51         0.1812
    768  O5'       -8.5070  -22.2930   10.4280 O.3    51  U51        -0.3114
    769  C4'       -9.2420  -20.4840   11.7640 C.3    51  U51         0.1773
    770  O4'       -8.4490  -19.2690   11.7190 O.3    51  U51        -0.3307
    771  C3'      -10.6690  -20.0220   12.0030 C.3    51  U51         0.1860
    772  O3'      -11.4420  -20.9690   12.7330 O.3    51  U51        -0.3112
    773  C2'      -10.5470  -18.5780   12.5020 C.3    51  U51         0.2309
    774  O2'      -10.2890  -18.3920   13.8740 O.3    51  U51        -0.2156
    775  C1'       -9.3000  -18.1210   11.7470 C.3    51  U51         0.2420
    776  N1        -9.5060  -17.6130   10.3770 N.ar   51  U51        -0.2534
    777  C2       -10.0630  -16.3220   10.2320 C.ar   51  U51         0.3546
    778  O2       -10.4790  -15.6660   11.1860 O.2    51  U51        -0.2443
    779  N3       -10.1480  -15.8520    8.9420 N.ar   51  U51        -0.1530
    780  C4        -9.7770  -16.5390    7.7950 C.ar   51  U51         0.2846
    781  O4        -9.9790  -16.0370    6.6830 O.2    51  U51        -0.2650
    782  C5        -9.2590  -17.8640    8.0350 C.ar   51  U51         0.0814
    783  C6        -9.1530  -18.3390    9.2730 C.ar   51  U51         0.0870
    784  OP1       -6.0510  -22.5760    9.9070 O.3    51  U51        -0.4373
    785  OP2       -7.8970  -23.9100    8.7290 O.co2  51  U51        -0.5172
    786  P        -12.9190  -21.3170   12.2270 P.3    52  A52         0.2141
    787  C5'      -13.7740  -19.1820   13.5850 C.3    52  A52         0.1812
    788  O5'      -13.6400  -19.8740   12.3370 O.3    52  A52        -0.3114
    789  C4'      -14.3680  -17.7810   13.3750 C.3    52  A52         0.1773
    790  O4'      -13.4950  -16.9330   12.5660 O.3    52  A52        -0.3307
    791  C3'      -15.7310  -17.7650   12.6950 C.3    52  A52         0.1860
    792  O3'      -16.7620  -17.9250   13.6930 O.3    52  A52        -0.3112
    793  C2'      -15.7470  -16.4000   11.9670 C.3    52  A52         0.2309
    794  O2'      -16.1140  -15.3260   12.8100 O.3    52  A52        -0.2156
    795  C1'      -14.2680  -16.2340   11.5860 C.3    52  A52         0.2408
    796  N1       -13.9750  -14.8800    6.6840 N.ar   52  A52        -0.2040
    797  C2       -14.4880  -14.2760    7.7980 C.ar   52  A52         0.2016
    798  N3       -14.5590  -14.7230    9.0330 N.ar   52  A52        -0.2048
    799  C4       -14.0380  -15.9650    9.1040 C.ar   52  A52         0.1692
    800  C5       -13.4640  -16.7160    8.0710 C.ar   52  A52         0.1518
    801  C6       -13.4540  -16.1200    6.7830 C.ar   52  A52         0.1919
    802  N6       -12.9810  -16.7150    5.6600 N.pl3  52  A52        -0.1054
    803  N7       -13.0300  -17.9460    8.5430 N.ar   52  A52        -0.2193
    804  C8       -13.3450  -17.9250    9.8310 C.ar   52  A52         0.1816
    805  N9       -13.9170  -16.7260   10.2400 N.ar   52  A52        -0.2693
    806  OP1      -13.4960  -22.2260   13.2640 O.3    52  A52        -0.4373
    807  OP2      -12.9890  -21.7150   10.8090 O.co2  52  A52        -0.5172
    808  P        -18.0370  -18.8750   13.3990 P.3    53  C53         0.2141
    809  C5'      -19.5560  -16.8580   12.6600 C.3    53  C53         0.1812
    810  O5'      -18.9190  -18.0870   12.3380 O.3    53  C53        -0.3114
    811  C4'      -19.9600  -16.1460   11.3760 C.3    53  C53         0.1773
    812  O4'      -18.7080  -15.8480   10.6520 O.3    53  C53        -0.3307
    813  C3'      -20.7320  -17.0150   10.3860 C.3    53  C53         0.1860
    814  O3'      -22.1520  -16.9800   10.5570 O.3    53  C53        -0.3112
    815  C2'      -20.3820  -16.3240    9.0420 C.3    53  C53         0.2309
    816  O2'      -21.0620  -15.0750    8.8620 O.3    53  C53        -0.2156
    817  C1'      -18.9120  -15.9980    9.2510 C.3    53  C53         0.2420
    818  N1       -17.9650  -17.0160    8.7480 N.ar   53  C53        -0.2535
    819  C2       -17.3010  -16.7850    7.5120 C.ar   53  C53         0.3532
    820  O2       -17.4210  -15.6600    6.9390 O.2    53  C53        -0.2443
    821  N3       -16.4900  -17.7550    7.0160 N.ar   53  C53        -0.1739
    822  C4       -16.2520  -18.8640    7.7110 C.ar   53  C53         0.1759
    823  N4       -15.4530  -19.7770    7.1840 N.pl3  53  C53        -0.1070
    824  C5       -16.8570  -19.1010    9.0060 C.ar   53  C53         0.0566
    825  C6       -17.7140  -18.1510    9.4590 C.ar   53  C53         0.0850
    826  OP1      -18.8120  -18.9480   14.6950 O.3    53  C53        -0.4373
    827  OP2      -17.5470  -20.1390   12.7840 O.co2  53  C53        -0.5172
    828  P        -22.9610  -18.2760   11.1570 P.3    54  C54         0.2141
    829  C5'      -22.9970  -17.4200   13.6600 C.3    54  C54         0.1812
    830  O5'      -23.6510  -17.6810   12.4790 O.3    54  C54        -0.3114
    831  C4'      -23.2230  -15.9600   14.1600 C.3    54  C54         0.1773
    832  O4'      -22.2490  -15.0640   13.6060 O.3    54  C54        -0.3307
    833  C3'      -24.4320  -15.0570   14.5130 C.3    54  C54         0.1860
    834  O3'      -25.3160  -15.5820   15.5490 O.3    54  C54        -0.3112
    835  C2'      -23.6390  -13.9140   15.1530 C.3    54  C54         0.2309
    836  O2'      -23.0260  -14.3040   16.3620 O.3    54  C54        -0.2156
    837  C1'      -22.4560  -13.7720   14.1750 C.3    54  C54         0.2420
    838  N1       -22.7040  -12.7550   13.1220 N.ar   54  C54        -0.2535
    839  C2       -22.5700  -11.3950   13.4680 C.ar   54  C54         0.3532
    840  O2       -22.1770  -11.0800   14.6130 O.2    54  C54        -0.2443
    841  N3       -22.8640  -10.4280   12.5540 N.ar   54  C54        -0.1739
    842  C4       -23.2570  -10.7570   11.3510 C.ar   54  C54         0.1759
    843  N4       -23.5590   -9.7300   10.4940 N.pl3  54  C54        -0.1070
    844  C5       -23.3680  -12.1330   10.9470 C.ar   54  C54         0.0566
    845  C6       -23.0850  -13.0930   11.8530 C.ar   54  C54         0.0850
    846  OP1      -22.0300  -19.4230   11.3350 O.3    54  C54        -0.4373
    847  OP2      -24.1390  -18.4620   10.3110 O.co2  54  C54        -0.5172
    848  P        -26.7540  -14.8750   15.8730 P.3    55  G55         0.2141
    849  C5'      -25.9580  -13.6090   18.0560 C.3    55  G55         0.1812
    850  O5'      -26.4220  -13.5750   16.7240 O.3    55  G55        -0.3114
    851  C4'      -25.8970  -12.1830   18.6430 C.3    55  G55         0.1773
    852  O4'      -24.8900  -11.3540   17.9520 O.3    55  G55        -0.3307
    853  C3'      -27.1830  -11.3800   18.5240 C.3    55  G55         0.1860
    854  O3'      -28.0270  -11.6680   19.6440 O.3    55  G55        -0.3112
    855  C2'      -26.6760   -9.9280   18.6410 C.3    55  G55         0.2309
    856  O2'      -26.2980   -9.6510   19.9810 O.3    55  G55        -0.2156
    857  C1'      -25.3720   -9.9970   17.8420 C.3    55  G55         0.2408
    858  N1       -25.8340   -6.2460   14.3820 N.ar   55  G55        -0.1709
    859  C2       -25.6770   -6.1500   15.7370 C.ar   55  G55         0.2606
    860  N2       -25.6500   -4.9010   16.2730 N.pl3  55  G55        -0.0859
    861  N3       -25.5740   -7.2210   16.5540 N.ar   55  G55        -0.1918
    862  C4       -25.6750   -8.3960   15.8720 C.ar   55  G55         0.1723
    863  C5       -25.8650   -8.6010   14.5240 C.ar   55  G55         0.1748
    864  C6       -25.9430   -7.4450   13.6540 C.ar   55  G55         0.3023
    865  O6       -26.0580   -7.4170   12.3940 O.2    55  G55        -0.2633
    866  N7       -25.9180   -9.9860   14.2360 N.ar   55  G55        -0.2173
    867  C8       -25.7620  -10.5670   15.3980 C.ar   55  G55         0.1817
    868  N9       -25.5800   -9.6860   16.4290 N.ar   55  G55        -0.2693
    869  OP1      -27.4540  -15.8930   16.7060 O.3    55  G55        -0.4373
    870  OP2      -27.4190  -14.3920   14.6420 O.co2  55  G55        -0.5172
    871  P        -29.5860  -11.4740   19.5000 P.3    56  G56         0.2141
    872  C5'      -29.5660   -9.1570   20.7860 C.3    56  G56         0.1812
    873  O5'      -29.7940   -9.8710   19.5740 O.3    56  G56        -0.3114
    874  C4'      -29.7070   -7.6300   20.5650 C.3    56  G56         0.1773
    875  O4'      -28.6500   -7.1740   19.7180 O.3    56  G56        -0.3307
    876  C3'      -30.9160   -7.1290   19.8380 C.3    56  G56         0.1860
    877  O3'      -32.0330   -6.9790   20.7290 O.3    56  G56        -0.3112
    878  C2'      -30.4440   -5.7510   19.4400 C.3    56  G56         0.2309
    879  O2'      -30.2950   -4.8600   20.5660 O.3    56  G56        -0.2156
    880  C1'      -29.0590   -6.0950   18.8990 C.3    56  G56         0.2408
    881  N1       -29.1050   -4.8440   14.0160 N.ar   56  G56        -0.1709
    882  C2       -29.0470   -4.0130   15.1060 C.ar   56  G56         0.2606
    883  N2       -29.0190   -2.6940   14.8320 N.pl3  56  G56        -0.0859
    884  N3       -29.0230   -4.4470   16.3480 N.ar   56  G56        -0.1918
    885  C4       -29.0790   -5.8250   16.3970 C.ar   56  G56         0.1723
    886  C5       -29.1570   -6.7270   15.3410 C.ar   56  G56         0.1748
    887  C6       -29.1630   -6.2390   14.0430 C.ar   56  G56         0.3023
    888  O6       -29.1770   -6.9170   12.9680 O.2    56  G56        -0.2633
    889  N7       -29.2130   -8.0440   15.7890 N.ar   56  G56        -0.2173
    890  C8       -29.1570   -7.9250   17.1050 C.ar   56  G56         0.1817
    891  N9       -29.0860   -6.5800   17.5190 N.ar   56  G56        -0.2693
    892  OP1      -30.2100  -12.1370   20.6790 O.3    56  G56        -0.4373
    893  OP2      -30.0070  -11.8530   18.1290 O.co2  56  G56        -0.5172
    894  P        -33.4890   -6.7570   20.1220 P.3    57  G57         0.2141
    895  C5'      -33.5150   -4.0790   20.1560 C.3    57  G57         0.1812
    896  O5'      -33.5370   -5.3150   19.3920 O.3    57  G57        -0.3114
    897  C4'      -33.4810   -2.8650   19.2140 C.3    57  G57         0.1773
    898  O4'      -32.2720   -2.8690   18.4150 O.3    57  G57        -0.3307
    899  C3'      -34.6030   -2.7200   18.1860 C.3    57  G57         0.1860
    900  O3'      -35.7040   -2.1100   18.8460 O.3    57  G57        -0.3112
    901  C2'      -33.9970   -1.7560   17.2030 C.3    57  G57         0.2309
    902  O2'      -34.0530   -0.4260   17.7620 O.3    57  G57        -0.2156
    903  C1'      -32.5530   -2.3120   17.1110 C.3    57  G57         0.2408
    904  N1       -32.3980   -3.3620   12.2070 N.ar   57  G57        -0.1709
    905  C2       -32.5470   -2.1620   12.8520 C.ar   57  G57         0.2606
    906  N2       -32.7400   -1.0660   12.0680 N.pl3  57  G57        -0.0859
    907  N3       -32.5580   -2.0400   14.1910 N.ar   57  G57        -0.1918
    908  C4       -32.4890   -3.2270   14.7860 C.ar   57  G57         0.1723
    909  C5       -32.4150   -4.5020   14.2240 C.ar   57  G57         0.1748
    910  C6       -32.3440   -4.6280   12.8280 C.ar   57  G57         0.3023
    911  O6       -32.2590   -5.7060   12.1410 O.2    57  G57        -0.2633
    912  N7       -32.4140   -5.4800   15.2070 N.ar   57  G57        -0.2173
    913  C8       -32.4670   -4.7730   16.3540 C.ar   57  G57         0.1817
    914  N9       -32.5020   -3.4100   16.1440 N.ar   57  G57        -0.2693
    915  OP1      -34.3140   -6.8470   21.3390 O.3    57  G57        -0.4373
    916  OP2      -33.6600   -7.7820   19.0080 O.co2  57  G57        -0.5172
    917  P        -37.1880   -2.5700   18.4930 P.3    58  C58         0.2141
    918  C5'      -37.5200   -0.7130   16.6040 C.3    58  C58         0.1812
    919  O5'      -37.3990   -2.1110   16.9680 O.3    58  C58        -0.3114
    920  C4'      -37.3590   -0.5480   15.0840 C.3    58  C58         0.1773
    921  O4'      -36.0440   -1.0290   14.6270 O.3    58  C58        -0.3307
    922  C3'      -38.3210   -1.3910   14.2540 C.3    58  C58         0.1860
    923  O3'      -39.6000   -0.7540   14.1480 O.3    58  C58        -0.3112
    924  C2'      -37.6040   -1.3000   12.9090 C.3    58  C58         0.2309
    925  O2'      -37.6540    0.0250   12.3770 O.3    58  C58        -0.2156
    926  C1'      -36.1660   -1.6010   13.3340 C.3    58  C58         0.2420
    927  N1       -35.9000   -3.0830   13.4040 N.ar   58  C58        -0.2535
    928  C2       -35.6380   -3.7120   12.2070 C.ar   58  C58         0.3532
    929  O2       -35.6820   -2.9650   11.1720 O.2    58  C58        -0.2443
    930  N3       -35.3930   -5.0630   12.1970 N.ar   58  C58        -0.1739
    931  C4       -35.4130   -5.7690   13.3650 C.ar   58  C58         0.1759
    932  N4       -35.1400   -7.1330   13.3560 N.pl3  58  C58        -0.1070
    933  C5       -35.7050   -5.1320   14.6080 C.ar   58  C58         0.0566
    934  C6       -35.9360   -3.7880   14.5760 C.ar   58  C58         0.0850
    935  OP1      -38.1660   -1.7010   19.2210 O.3    58  C58        -0.4373
    936  OP2      -37.4050   -4.0720   18.4990 O.co2  58  C58        -0.5172
    937  P        -40.9030   -1.5760   13.8400 P.3    59  A59         0.2141
    938  C5'      -40.8230   -1.0490   11.2570 C.3    59  A59         0.1812
    939  O5'      -40.7600   -1.9870   12.3140 O.3    59  A59        -0.3114
    940  C4'      -40.3760   -1.7170    9.9690 C.3    59  A59         0.1773
    941  O4'      -39.0940   -2.3690   10.1770 O.3    59  A59        -0.3307
    942  C3'      -41.2890   -2.7930    9.4250 C.3    59  A59         0.1860
    943  O3'      -42.2860   -2.2160    8.5370 O.3    59  A59        -0.3112
    944  C2'      -40.3680   -3.6360    8.5790 C.3    59  A59         0.2309
    945  O2'      -40.1630   -3.0390    7.3150 O.3    59  A59        -0.2156
    946  C1'      -39.0560   -3.5460    9.3870 C.3    59  A59         0.2408
    947  N1       -37.8940   -8.5860    9.6220 N.ar   59  A59        -0.2040
    948  C2       -38.1120   -7.7600    8.6020 C.ar   59  A59         0.2016
    949  N3       -38.4540   -6.4600    8.6110 N.ar   59  A59        -0.2048
    950  C4       -38.5890   -6.0050    9.8740 C.ar   59  A59         0.1692
    951  C5       -38.4160   -6.7330   11.0300 C.ar   59  A59         0.1518
    952  C6       -38.0280   -8.1020   10.8850 C.ar   59  A59         0.1919
    953  N6       -37.7660   -8.9240   11.9430 N.pl3  59  A59        -0.1054
    954  N7       -38.6530   -5.9210   12.1680 N.ar   59  A59        -0.2193
    955  C8       -38.9490   -4.7420   11.6450 C.ar   59  A59         0.1816
    956  N9       -38.8930   -4.7090   10.2750 N.ar   59  A59        -0.2693
    957  OP1      -42.0800   -0.6780   14.0470 O.2    59  A59        -0.5172
    958  OP2      -40.8950   -2.8860   14.5370 O.co2  59  A59        -0.4373
    959  P        -43.7120   -2.9250    8.3940 P.3    60  C60         0.2141
    960  C5'      -43.0200   -4.5720    6.3980 C.3    60  C60         0.1812
    961  O5'      -43.4090   -4.3740    7.7590 O.3    60  C60        -0.3114
    962  C4'      -42.6550   -6.0640    6.1530 C.3    60  C60         0.1773
    963  O4'      -41.4880   -6.4260    6.9540 O.3    60  C60        -0.3307
    964  C3'      -43.6960   -7.0640    6.6290 C.3    60  C60         0.1860
    965  O3'      -44.7090   -7.2200    5.6470 O.3    60  C60        -0.3112
    966  C2'      -42.8610   -8.3610    6.7780 C.3    60  C60         0.2309
    967  O2'      -42.4420   -8.9420    5.5360 O.3    60  C60        -0.2156
    968  C1'      -41.6030   -7.7830    7.4430 C.3    60  C60         0.2420
    969  N1       -41.6770   -7.7920    8.9300 N.ar   60  C60        -0.2535
    970  C2       -41.2530   -8.9830    9.6290 C.ar   60  C60         0.3532
    971  O2       -40.9800  -10.0600    8.9640 O.2    60  C60        -0.2443
    972  N3       -41.1780   -8.9600   10.9640 N.ar   60  C60        -0.1739
    973  C4       -41.5520   -7.8640   11.6610 C.ar   60  C60         0.1759
    974  N4       -41.4610   -7.9220   13.0490 N.pl3  60  C60        -0.1070
    975  C5       -42.0560   -6.6870   11.0150 C.ar   60  C60         0.0566
    976  C6       -42.1110   -6.6930    9.6410 C.ar   60  C60         0.0850
    977  OP1      -44.4700   -2.0490    7.4230 O.2    60  C60        -0.5172
    978  OP2      -44.2800   -3.1900    9.6850 O.co2  60  C60        -0.4373
    979  P        -46.1710   -7.7060    6.0860 P.3    61  C61         0.2141
    980  C5'      -45.7270  -10.1450    5.0880 C.3    61  C61         0.1812
    981  O5'      -46.1280   -9.3030    6.1950 O.3    61  C61        -0.3114
    982  C4'      -45.2600  -11.5120    5.6120 C.3    61  C61         0.1773
    983  O4'      -44.1340  -11.3780    6.5340 O.3    61  C61        -0.3307
    984  C3'      -46.2910  -12.2860    6.4030 C.3    61  C61         0.1860
    985  O3'      -47.1280  -12.9830    5.5140 O.3    61  C61        -0.3112
    986  C2'      -45.4060  -13.2930    7.1810 C.3    61  C61         0.2309
    987  O2'      -45.0030  -14.3590    6.2760 O.3    61  C61        -0.2156
    988  C1'      -44.2370  -12.3750    7.5420 C.3    61  C61         0.2420
    989  N1       -44.3710  -11.6930    8.8450 N.ar   61  C61        -0.2535
    990  C2       -43.9550  -12.3940    9.9860 C.ar   61  C61         0.3532
    991  O2       -43.6050  -13.6250    9.8850 O.2    61  C61        -0.2443
    992  N3       -43.9250  -11.7550   11.1800 N.ar   61  C61        -0.1739
    993  C4       -44.3370  -10.4730   11.2860 C.ar   61  C61         0.1759
    994  N4       -44.2080   -9.8570   12.5280 N.pl3  61  C61        -0.1070
    995  C5       -44.8480   -9.7580   10.1530 C.ar   61  C61         0.0566
    996  C6       -44.8290  -10.4140    8.9420 C.ar   61  C61         0.0850
    997  OP1      -46.9910   -7.2620    4.8820 O.2    61  C61        -0.5172
    998  OP2      -46.5790   -7.2500    7.4710 O.co2  61  C61        -0.4373
    999  P        -48.6840  -12.6590    5.4440 P.3    62  G62         0.2141
   1000  C5'      -50.6570  -13.9460    6.5600 C.3    62  G62         0.1812
   1001  O5'      -49.3000  -13.5950    6.5790 O.3    62  G62        -0.3114
   1002  C4'      -51.0850  -14.4640    7.9250 C.3    62  G62         0.1773
   1003  O4'      -50.9210  -13.3780    8.8970 O.3    62  G62        -0.3307
   1004  C3'      -52.5670  -14.8450    7.9660 C.3    62  G62         0.1860
   1005  O3'      -52.7740  -15.9270    8.8680 O.3    62  G62        -0.3112
   1006  C2'      -53.2380  -13.5890    8.5310 C.3    62  G62         0.2309
   1007  O2'      -54.3980  -13.9630    9.2640 O.3    62  G62        -0.2156
   1008  C1'      -52.1660  -13.0810    9.5150 C.3    62  G62         0.2408
   1009  N1       -51.1390   -9.5690   13.0810 N.ar   62  G62        -0.1709
   1010  C2       -51.0120  -10.9350   13.1430 C.ar   62  G62         0.2606
   1011  N2       -50.5440  -11.4360   14.3110 N.pl3  62  G62        -0.0859
   1012  N3       -51.3210  -11.7590   12.1410 N.ar   62  G62        -0.1918
   1013  C4       -51.7820  -11.0810   11.0450 C.ar   62  G62         0.1723
   1014  C5       -51.9500   -9.7200   10.8810 C.ar   62  G62         0.1748
   1015  C6       -51.6090   -8.8490   11.9660 C.ar   62  G62         0.3023
   1016  O6       -51.6660   -7.5800   12.0090 O.2    62  G62        -0.2633
   1017  N7       -52.4440   -9.4240    9.6030 N.ar   62  G62        -0.2173
   1018  C8       -52.5730  -10.5940    9.0280 C.ar   62  G62         0.1817
   1019  N9       -52.1850  -11.6490    9.8480 N.ar   62  G62        -0.2693
   1020  OP1      -49.1620  -13.2590    4.1390 O.2    62  G62        -0.5172
   1021  OP2      -48.8800  -11.2290    5.6890 O.co2  62  G62        -0.4373
   1022  P        -53.1980  -17.3700    8.3070 P.3    63  U63         0.2141
   1023  C5'      -50.9450  -18.7740    8.1030 C.3    63  U63         0.1812
   1024  O5'      -52.0810  -18.3500    8.8570 O.3    63  U63        -0.3114
   1025  C4'      -50.1130  -19.6460    9.0020 C.3    63  U63         0.1773
   1026  O4'      -49.3610  -18.7110    9.8650 O.3    63  U63        -0.3307
   1027  C3'      -51.0540  -20.4160    9.9400 C.3    63  U63         0.1860
   1028  O3'      -51.4300  -21.8300    9.7480 O.3    63  U63        -0.3112
   1029  C2'      -51.0190  -19.6520   11.2820 C.3    63  U63         0.2309
   1030  O2'      -51.0990  -20.4630   12.4070 O.3    63  U63        -0.2156
   1031  C1'      -49.6530  -18.9450   11.2320 C.3    63  U63         0.2420
   1032  N1       -49.5750  -17.6560   11.9770 N.ar   63  U63        -0.2534
   1033  C2       -49.0190  -17.7070   13.2360 C.ar   63  U63         0.3546
   1034  O2       -48.5530  -18.7700   13.7130 O.2    63  U63        -0.2443
   1035  N3       -49.0140  -16.5000   13.9340 N.ar   63  U63        -0.1530
   1036  C4       -49.5400  -15.2750   13.5070 C.ar   63  U63         0.2846
   1037  O4       -49.5150  -14.2740   14.2640 O.2    63  U63        -0.2650
   1038  C5       -50.0840  -15.3030   12.1610 C.ar   63  U63         0.0814
   1039  C6       -50.0530  -16.4570   11.4580 C.ar   63  U63         0.0870
   1040  OP1      -53.2490  -17.4340    6.8100 O.2    63  U63        -0.5172
   1041  OP2      -54.3760  -17.7090    9.1180 O.co2  63  U63        -0.4373
   1042  P        -50.3010  -22.9850    9.7520 P.3    64  A64         0.2141
   1043  C5'      -48.3780  -23.3870    8.0860 C.3    64  A64         0.1812
   1044  O5'      -49.7300  -23.0410    8.2730 O.3    64  A64        -0.3114
   1045  C4'      -47.8100  -22.7270    6.8670 C.3    64  A64         0.1773
   1046  O4'      -47.9750  -21.2580    6.9080 O.3    64  A64        -0.3307
   1047  C3'      -46.3130  -22.9990    6.8280 C.3    64  A64         0.1860
   1048  O3'      -46.1220  -24.1780    6.0090 O.3    64  A64        -0.3112
   1049  C2'      -45.7820  -21.7350    6.1660 C.3    64  A64         0.2309
   1050  O2'      -46.0010  -21.8630    4.7500 O.3    64  A64        -0.2156
   1051  C1'      -46.7160  -20.6460    6.7400 C.3    64  A64         0.2408
   1052  N1       -46.8740  -16.1180    9.2700 N.ar   64  A64        -0.2040
   1053  C2       -47.0880  -16.4440    7.9910 C.ar   64  A64         0.2016
   1054  N3       -46.9740  -17.6450    7.3980 N.ar   64  A64        -0.2048
   1055  C4       -46.5770  -18.5880    8.2490 C.ar   64  A64         0.1692
   1056  C5       -46.2840  -18.3980    9.5890 C.ar   64  A64         0.1518
   1057  C6       -46.4440  -17.0830   10.1120 C.ar   64  A64         0.1919
   1058  N6       -46.1750  -16.7340   11.3950 N.pl3  64  A64        -0.1054
   1059  N7       -45.8630  -19.5940   10.1610 N.ar   64  A64        -0.2193
   1060  C8       -45.9590  -20.4840    9.1750 C.ar   64  A64         0.1816
   1061  N9       -46.4060  -19.9480    8.0020 N.ar   64  A64        -0.2693
   1062  OP1      -50.6470  -24.3110   10.1800 O.2    64  A64        -0.5172
   1063  OP2      -49.3410  -22.2090   10.5600 O.co2  64  A64        -0.4373
   1064  P        -44.8890  -25.1550    6.2670 P.3    65  A65         0.2141
   1065  C5'      -43.5290  -24.0140    4.3360 C.3    65  A65         0.1812
   1066  O5'      -43.6470  -24.2950    5.7190 O.3    65  A65        -0.3114
   1067  C4'      -42.4550  -22.9710    4.0610 C.3    65  A65         0.1773
   1068  O4'      -42.8190  -21.6800    4.7090 O.3    65  A65        -0.3307
   1069  C3'      -41.0360  -23.3010    4.5110 C.3    65  A65         0.1860
   1070  O3'      -40.2060  -22.6040    3.5940 O.3    65  A65        -0.3112
   1071  C2'      -40.9990  -22.5630    5.8780 C.3    65  A65         0.2309
   1072  O2'      -39.6690  -22.3220    6.3590 O.3    65  A65        -0.2156
   1073  C1'      -41.7350  -21.2700    5.5090 C.3    65  A65         0.2408
   1074  N1       -43.2990  -16.5060    6.9700 N.ar   65  A65        -0.2040
   1075  C2       -42.9790  -17.0520    5.7360 C.ar   65  A65         0.2016
   1076  N3       -42.6410  -18.3300    5.4270 N.ar   65  A65        -0.2048
   1077  C4       -42.6160  -19.1020    6.5250 C.ar   65  A65         0.1692
   1078  C5       -42.9020  -18.7040    7.8220 C.ar   65  A65         0.1518
   1079  C6       -43.2290  -17.3540    8.0440 C.ar   65  A65         0.1919
   1080  N6       -43.4590  -16.8690    9.2530 N.pl3  65  A65        -0.1054
   1081  N7       -42.7780  -19.7850    8.7160 N.ar   65  A65        -0.2193
   1082  C8       -42.3880  -20.7850    7.9240 C.ar   65  A65         0.1816
   1083  N9       -42.2520  -20.4310    6.6090 N.ar   65  A65        -0.2693
   1084  OP1      -45.0140  -26.3230    5.2830 O.2    65  A65        -0.5172
   1085  OP2      -44.5810  -25.4140    7.7010 O.co2  65  A65        -0.4373
   1086  P        -38.8940  -23.2540    2.9510 P.3    66  A66         0.2141
   1087  C5'      -37.4990  -21.1990    3.9900 C.3    66  A66         0.1812
   1088  O5'      -37.9050  -21.9970    2.8140 O.3    66  A66        -0.3114
   1089  C4'      -37.8310  -19.6830    3.7690 C.3    66  A66         0.1773
   1090  O4'      -39.2040  -19.3240    4.1260 O.3    66  A66        -0.3307
   1091  C3'      -37.0240  -18.6940    4.5600 C.3    66  A66         0.1860
   1092  O3'      -35.6880  -18.5390    4.0680 O.3    66  A66        -0.3112
   1093  C2'      -37.8450  -17.4150    4.3450 C.3    66  A66         0.2309
   1094  O2'      -37.6820  -16.9640    2.9700 O.3    66  A66        -0.2156
   1095  C1'      -39.2470  -17.9780    4.5950 C.3    66  A66         0.2408
   1096  N1       -40.1250  -14.8730    8.5700 N.ar   66  A66        -0.2040
   1097  C2       -40.0820  -14.6630    7.2510 C.ar   66  A66         0.2016
   1098  N3       -39.9190  -15.5850    6.2510 N.ar   66  A66        -0.2048
   1099  C4       -39.7550  -16.8360    6.7620 C.ar   66  A66         0.1692
   1100  C5       -39.7720  -17.2090    8.0960 C.ar   66  A66         0.1518
   1101  C6       -39.9730  -16.1790    9.0420 C.ar   66  A66         0.1919
   1102  N6       -40.0000  -16.4230   10.3600 N.pl3  66  A66        -0.1054
   1103  N7       -39.5310  -18.5950    8.2300 N.ar   66  A66        -0.2193
   1104  C8       -39.3690  -19.0040    6.9560 C.ar   66  A66         0.1816
   1105  N9       -39.4690  -17.9850    6.0470 N.ar   66  A66        -0.2693
   1106  OP1      -39.2810  -23.6140    1.4890 O.2    66  A66        -0.5172
   1107  OP2      -38.2540  -24.2620    3.8180 O.co2  66  A66        -0.4373
   1108  P        -34.4710  -18.5930    5.0800 P.3    67  U67         0.2141
   1109  C5'      -34.1690  -16.0790    6.0210 C.3    67  U67         0.1812
   1110  O5'      -34.7700  -17.3960    6.1270 O.3    67  U67        -0.3114
   1111  C4'      -35.1020  -15.0760    5.2870 C.3    67  U67         0.1773
   1112  O4'      -36.3770  -14.8760    5.9550 O.3    67  U67        -0.3307
   1113  C3'      -34.5070  -13.6620    5.2490 C.3    67  U67         0.1860
   1114  O3'      -33.6170  -13.5180    4.1340 O.3    67  U67        -0.3112
   1115  C2'      -35.7290  -12.7690    5.0930 C.3    67  U67         0.2309
   1116  O2'      -36.1960  -12.8430    3.7490 O.3    67  U67        -0.2156
   1117  C1'      -36.7210  -13.4690    6.0020 C.3    67  U67         0.2420
   1118  N1       -36.6740  -13.0100    7.4170 N.ar   67  U67        -0.2534
   1119  C2       -37.0840  -11.7030    7.6960 C.ar   67  U67         0.3546
   1120  O2       -37.4090  -10.8780    6.8210 O.2    67  U67        -0.2443
   1121  N3       -37.1000  -11.3510    9.0270 N.ar   67  U67        -0.1530
   1122  C4       -36.7050  -12.1420   10.0620 C.ar   67  U67         0.2846
   1123  O4       -36.6080  -11.6310   11.1920 O.2    67  U67        -0.2650
   1124  C5       -36.2510  -13.4620    9.6790 C.ar   67  U67         0.0814
   1125  C6       -36.2710  -13.8330    8.3860 C.ar   67  U67         0.0870
   1126  OP1      -33.2420  -18.3260    4.3560 O.2    67  U67        -0.5172
   1127  OP2      -34.6270  -19.9040    5.8250 O.co2  67  U67        -0.4373
   1128  P        -32.3130  -12.6010    4.2850 P.3    68  G68         0.2141
   1129  C5'      -33.2990  -10.5000    2.9040 C.3    68  G68         0.1812
   1130  O5'      -32.7810  -11.0460    4.1540 O.3    68  G68        -0.3114
   1131  C4'      -33.8830   -9.0930    3.0890 C.3    68  G68         0.1773
   1132  O4'      -34.9610   -9.1530    4.0630 O.3    68  G68        -0.3307
   1133  C3'      -32.8920   -8.1070    3.7100 C.3    68  G68         0.1860
   1134  O3'      -32.1410   -7.4610    2.6810 O.3    68  G68        -0.3112
   1135  C2'      -33.8460   -7.0780    4.3180 C.3    68  G68         0.2309
   1136  O2'      -34.4280   -6.2790    3.2950 O.3    68  G68        -0.2156
   1137  C1'      -34.9400   -7.9780    4.8780 C.3    68  G68         0.2408
   1138  N1       -34.9890   -6.4470    9.7230 N.ar   68  G68        -0.1709
   1139  C2       -35.3580   -5.7520    8.6020 C.ar   68  G68         0.2606
   1140  N2       -35.7120   -4.4390    8.7290 N.pl3  68  G68        -0.0859
   1141  N3       -35.3620   -6.3070    7.3990 N.ar   68  G68        -0.1918
   1142  C4       -34.8990   -7.5900    7.3940 C.ar   68  G68         0.1723
   1143  C5       -34.5160   -8.3650    8.4650 C.ar   68  G68         0.1748
   1144  C6       -34.5680   -7.8100    9.7330 C.ar   68  G68         0.3023
   1145  O6       -34.3030   -8.3780   10.8080 O.2    68  G68        -0.2633
   1146  N7       -34.0410   -9.6310    8.0410 N.ar   68  G68        -0.2173
   1147  C8       -34.1970   -9.5970    6.7230 C.ar   68  G68         0.1817
   1148  N9       -34.6840   -8.3860    6.2610 N.ar   68  G68        -0.2693
   1149  OP1      -31.4250  -12.9220    3.1310 O.2    68  G68        -0.5172
   1150  OP2      -31.7010  -12.6890    5.6230 O.co2  68  G68        -0.4373
   1151  P        -30.6280   -7.0010    2.9450 P.3    69  U69         0.2141
   1152  C5'      -31.4870   -4.5180    3.2130 C.3    69  U69         0.1812
   1153  O5'      -30.8030   -5.6550    3.7790 O.3    69  U69        -0.3114
   1154  C4'      -31.8070   -3.4760    4.3110 C.3    69  U69         0.1773
   1155  O4'      -32.7340   -4.0720    5.2390 O.3    69  U69        -0.3307
   1156  C3'      -30.6660   -2.9740    5.1740 C.3    69  U69         0.1860
   1157  O3'      -30.0060   -1.8590    4.5530 O.3    69  U69        -0.3112
   1158  C2'      -31.3790   -2.5890    6.4920 C.3    69  U69         0.2309
   1159  O2'      -32.1440   -1.3880    6.3970 O.3    69  U69        -0.2156
   1160  C1'      -32.4390   -3.6680    6.5560 C.3    69  U69         0.2420
   1161  N1       -32.0380   -4.8270    7.3380 N.ar   69  U69        -0.2534
   1162  C2       -32.1800   -4.6960    8.7240 C.ar   69  U69         0.3546
   1163  O2       -32.5210   -3.6210    9.2330 O.2    69  U69        -0.2443
   1164  N3       -31.8460   -5.8140    9.4400 N.ar   69  U69        -0.1530
   1165  C4       -31.3630   -7.0270    8.9490 C.ar   69  U69         0.2846
   1166  O4       -31.1330   -8.0160    9.7280 O.2    69  U69        -0.2650
   1167  C5       -31.1980   -7.0580    7.5020 C.ar   69  U69         0.0814
   1168  C6       -31.5440   -5.9900    6.7740 C.ar   69  U69         0.0870
   1169  OP1      -30.1200   -6.6210    1.5420 O.2    69  U69        -0.5172
   1170  OP2      -29.8620   -7.9810    3.7580 O.co2  69  U69        -0.4373
   1171  P        -28.4390   -1.6470    4.7360 P.3    70  C70         0.2141
   1172  C5'      -28.8250    0.4640    6.2790 C.3    70  C70         0.1812
   1173  O5'      -28.3850   -0.9380    6.1630 O.3    70  C70        -0.3114
   1174  C4'      -28.9420    0.8650    7.7680 C.3    70  C70         0.1773
   1175  O4'      -29.8090   -0.0780    8.4190 O.3    70  C70        -0.3307
   1176  C3'      -27.6530    0.6960    8.5580 C.3    70  C70         0.1860
   1177  O3'      -26.7480    1.8300    8.3710 O.3    70  C70        -0.3112
   1178  C2'      -28.1700    0.5950    9.9860 C.3    70  C70         0.2309
   1179  O2'      -28.6260    1.9260   10.3790 O.3    70  C70        -0.2156
   1180  C1'      -29.3800   -0.3300    9.7750 C.3    70  C70         0.2420
   1181  N1       -29.0800   -1.7980    9.9170 N.ar   70  C70        -0.2535
   1182  C2       -29.1700   -2.3860   11.1610 C.ar   70  C70         0.3532
   1183  O2       -29.3570   -1.6220   12.1630 O.2    70  C70        -0.2443
   1184  N3       -29.0300   -3.7350   11.3020 N.ar   70  C70        -0.1739
   1185  C4       -28.7470   -4.4840   10.2160 C.ar   70  C70         0.1759
   1186  N4       -28.6220   -5.8220   10.3700 N.pl3  70  C70        -0.1070
   1187  C5       -28.5740   -3.8910    8.9230 C.ar   70  C70         0.0566
   1188  C6       -28.7560   -2.5470    8.8130 C.ar   70  C70         0.0850
   1189  OP1      -27.9940   -0.7090    3.6330 O.2    70  C70        -0.5172
   1190  OP2      -27.6830   -2.9790    4.9120 O.co2  70  C70        -0.4373
   1191  P        -25.1960    1.6120    8.3850 P.3    71  C71         0.2141
   1192  C5'      -24.9220    2.5260   10.8310 C.3    71  C71         0.1812
   1193  O5'      -24.7150    1.4740    9.8990 O.3    71  C71        -0.3114
   1194  C4'      -24.9090    1.9720   12.2500 C.3    71  C71         0.1773
   1195  O4'      -26.0110    1.0130   12.3680 O.3    71  C71        -0.3307
   1196  C3'      -23.7030    1.0870   12.6180 C.3    71  C71         0.1860
   1197  O3'      -22.5540    1.9300   12.9900 O.3    71  C71        -0.3112
   1198  C2'      -24.2780    0.3690   13.8340 C.3    71  C71         0.2309
   1199  O2'      -24.4830    1.2640   14.9790 O.3    71  C71        -0.2156
   1200  C1'      -25.6460   -0.0280   13.2910 C.3    71  C71         0.2420
   1201  N1       -25.6130   -1.3540   12.5860 N.ar   71  C71        -0.2535
   1202  C2       -25.7170   -2.5280   13.3850 C.ar   71  C71         0.3532
   1203  O2       -25.7090   -2.3960   14.6530 O.2    71  C71        -0.2443
   1204  N3       -25.7390   -3.7360   12.7690 N.ar   71  C71        -0.1739
   1205  C4       -25.5850   -3.8200   11.4450 C.ar   71  C71         0.1759
   1206  N4       -25.5110   -5.0310   10.8840 N.pl3  71  C71        -0.1070
   1207  C5       -25.4590   -2.6540   10.6040 C.ar   71  C71         0.0566
   1208  C6       -25.4760   -1.4510   11.2220 C.ar   71  C71         0.0850
   1209  OP1      -24.6890    2.9490    7.8510 O.3    71  C71        -0.4373
   1210  OP2      -24.8650    0.3230    7.6600 O.co2  71  C71        -0.5172
   1211  P        -21.0640    1.3860   12.9360 P.3    72  G72         0.2141
   1212  C5'      -21.0530    0.4110   15.3930 C.3    72  G72         0.1812
   1213  O5'      -21.0540    0.1500   13.9940 O.3    72  G72        -0.3114
   1214  C4'      -21.1540   -0.9180   16.1590 C.3    72  G72         0.1773
   1215  O4'      -22.3460   -1.6300   15.7810 O.3    72  G72        -0.3307
   1216  C3'      -20.0220   -1.8810   15.8690 C.3    72  G72         0.1860
   1217  O3'      -18.9120   -1.3930   16.6160 O.3    72  G72        -0.3112
   1218  C2'      -20.6400   -3.2040   16.3320 C.3    72  G72         0.2309
   1219  O2'      -20.6390   -3.2320   17.7530 O.3    72  G72        -0.2156
   1220  C1'      -22.0820   -3.0540   15.8380 C.3    72  G72         0.2408
   1221  N1       -22.7440   -7.5240   13.4450 N.ar   72  G72        -0.1709
   1222  C2       -22.6090   -7.2520   14.8100 C.ar   72  G72         0.2606
   1223  N2       -22.6430   -8.3440   15.6520 N.pl3  72  G72        -0.0859
   1224  N3       -22.4630   -6.0170   15.3180 N.ar   72  G72        -0.1918
   1225  C4       -22.4550   -5.0670   14.3310 C.ar   72  G72         0.1723
   1226  C5       -22.5750   -5.2330   12.9650 C.ar   72  G72         0.1748
   1227  C6       -22.7080   -6.5650   12.4260 C.ar   72  G72         0.3023
   1228  O6       -22.7410   -6.9480   11.1930 O.2    72  G72        -0.2633
   1229  N7       -22.5110   -3.9870   12.2960 N.ar   72  G72        -0.2173
   1230  C8       -22.3470   -3.0980   13.2740 C.ar   72  G72         0.1817
   1231  N9       -22.2980   -3.6900   14.5350 N.ar   72  G72        -0.2693
   1232  OP1      -20.1950    2.5270   13.3320 O.3    72  G72        -0.4373
   1233  OP2      -20.9050    0.7530   11.5420 O.co2  72  G72        -0.5172
   1234  P        -17.4210   -1.7660   16.2120 P.3    73  A73         0.2141
   1235  C5'      -16.0410   -4.0180   16.6380 C.3    73  A73         0.1812
   1236  O5'      -17.2700   -3.2970   16.7720 O.3    73  A73        -0.3114
   1237  C4'      -16.2040   -5.4990   17.0200 C.3    73  A73         0.1773
   1238  O4'      -17.1400   -6.1700   16.1290 O.3    73  A73        -0.3307
   1239  C3'      -14.9110   -6.3190   16.8310 C.3    73  A73         0.1860
   1240  O3'      -14.0910   -6.0810   17.9620 O.3    73  A73        -0.3112
   1241  C2'      -15.4840   -7.7360   16.7630 C.3    73  A73         0.2309
   1242  O2'      -16.0940   -8.2020   17.9850 O.3    73  A73        -0.2156
   1243  C1'      -16.6770   -7.4990   15.8360 C.3    73  A73         0.2408
   1244  N1       -15.9320  -10.6810   11.7920 N.ar   73  A73        -0.2040
   1245  C2       -16.0910  -10.9010   13.1050 C.ar   73  A73         0.2016
   1246  N3       -16.2220   -9.9970   14.1150 N.ar   73  A73        -0.2048
   1247  C4       -16.1850   -8.7390   13.6520 C.ar   73  A73         0.1692
   1248  C5       -16.0200   -8.3470   12.3340 C.ar   73  A73         0.1518
   1249  C6       -15.8950   -9.3910   11.3550 C.ar   73  A73         0.1919
   1250  N6       -15.7680   -9.1950   10.0140 N.pl3  73  A73        -0.1054
   1251  N7       -15.9850   -6.9380   12.2370 N.ar   73  A73        -0.2193
   1252  C8       -16.1990   -6.5200   13.4890 C.ar   73  A73         0.1816
   1253  N9       -16.3650   -7.5790   14.3960 N.ar   73  A73        -0.2693
   1254  OP1      -16.5390   -0.8760   17.0550 O.3    73  A73        -0.4373
   1255  OP2      -17.2250   -1.7960   14.7430 O.co2  73  A73        -0.5172
   1256  P        -12.4880   -6.1680   17.8460 P.3    74  C74         0.2141
   1257  C5'      -12.5880   -8.8010   18.1740 C.3    74  C74         0.1812
   1258  O5'      -12.1590   -7.6790   17.4240 O.3    74  C74        -0.3114
   1259  C4'      -12.3170  -10.1040   17.4400 C.3    74  C74         0.1773
   1260  O4'      -13.3320  -10.3420   16.4350 O.3    74  C74        -0.3307
   1261  C3'      -10.9920  -10.2890   16.6920 C.3    74  C74         0.1860
   1262  O3'       -9.9370  -10.7170   17.5360 O.3    74  C74        -0.3112
   1263  C2'      -11.3410  -11.4040   15.7210 C.3    74  C74         0.2309
   1264  O2'      -11.4760  -12.6880   16.3170 O.3    74  C74        -0.2156
   1265  C1'      -12.7360  -10.9540   15.2910 C.3    74  C74         0.2420
   1266  N1       -12.6950   -9.9930   14.1750 N.ar   74  C74        -0.2535
   1267  C2       -12.6960  -10.5280   12.9230 C.ar   74  C74         0.3532
   1268  O2       -12.6320  -11.7680   12.8160 O.2    74  C74        -0.2443
   1269  N3       -12.7450   -9.7400   11.8440 N.ar   74  C74        -0.1739
   1270  C4       -12.7450   -8.4300   11.9770 C.ar   74  C74         0.1759
   1271  N4       -12.8130   -7.7070   10.8200 N.pl3  74  C74        -0.1070
   1272  C5       -12.6840   -7.7970   13.2780 C.ar   74  C74         0.0566
   1273  C6       -12.6660   -8.6320   14.3550 C.ar   74  C74         0.0850
   1274  OP1      -11.9620   -5.9780   19.2340 O.3    74  C74        -0.4373
   1275  OP2      -12.0060   -5.2660   16.7640 O.co2  74  C74        -0.5172
   1276  P         -8.4310  -10.3060   17.1650 P.3    75  A75         0.2141
   1277  C5'       -8.0650  -12.5580   15.8690 C.3    75  A75         0.1812
   1278  O5'       -8.0910  -11.1350   15.8340 O.3    75  A75        -0.3114
   1279  C4'       -7.9240  -13.1470   14.4770 C.3    75  A75         0.1773
   1280  O4'       -9.0990  -12.9150   13.6410 O.3    75  A75        -0.3307
   1281  C3'       -6.7680  -12.6260   13.6530 C.3    75  A75         0.1860
   1282  O3'       -5.6150  -13.2900   14.1690 O.3    75  A75        -0.3112
   1283  C2'       -7.1860  -13.0850   12.2550 C.3    75  A75         0.2309
   1284  O2'       -7.0680  -14.5040   12.1060 O.3    75  A75        -0.2156
   1285  C1'       -8.6870  -12.7340   12.2820 C.3    75  A75         0.2408
   1286  N1        -9.0890   -9.3980    8.3830 N.ar   75  A75        -0.2040
   1287  C2        -8.7870  -10.7240    8.4340 C.ar   75  A75         0.2016
   1288  N3        -8.7200  -11.5370    9.5020 N.ar   75  A75        -0.2048
   1289  C4        -8.9810  -10.8430   10.6330 C.ar   75  A75         0.1692
   1290  C5        -9.2940   -9.4800   10.7440 C.ar   75  A75         0.1518
   1291  C6        -9.3660   -8.7390    9.5440 C.ar   75  A75         0.1919
   1292  N6        -9.6860   -7.4430    9.5020 N.pl3  75  A75        -0.1054
   1293  N7        -9.4050   -9.1010   12.0780 N.ar   75  A75        -0.2193
   1294  C8        -9.1910  -10.2380   12.7470 C.ar   75  A75         0.1816
   1295  N9        -8.9480  -11.3290   11.9190 N.ar   75  A75        -0.2693
   1296  OP1       -7.6460  -10.8810   18.2850 O.3    75  A75        -0.4373
   1297  OP2       -8.3350   -8.8550   16.8630 O.co2  75  A75        -0.5172
   1298  P         -4.1580  -12.6590   13.9140 P.3    76  A76         0.2141
   1299  C5'       -3.6120  -14.1120   11.7910 C.3    76  A76         0.1812
   1300  O5'       -3.9520  -12.8540   12.3420 O.3    76  A76        -0.3114
   1301  C4'       -3.3730  -13.9630   10.3210 C.3    76  A76         0.1773
   1302  O4'       -4.5930  -13.4890    9.6750 O.3    76  A76        -0.3307
   1303  C3'       -2.3430  -12.9280    9.9170 C.3    76  A76         0.1860
   1304  O3'       -1.0330  -13.4590   10.0020 O.3    76  A76        -0.3112
   1305  C2'       -2.7400  -12.7000    8.4720 C.3    76  A76         0.2309
   1306  O2'       -2.5010  -13.8840    7.7590 O.3    76  A76        -0.2156
   1307  C1'       -4.2660  -12.5860    8.6260 C.3    76  A76         0.2408
   1308  N1        -5.8300   -8.0600    6.7240 N.ar   76  A76        -0.2040
   1309  C2        -5.3380   -9.1710    6.1400 C.ar   76  A76         0.2016
   1310  N3        -4.9450  -10.2890    6.6870 N.ar   76  A76        -0.2048
   1311  C4        -5.0540  -10.2430    8.0340 C.ar   76  A76         0.1692
   1312  C5        -5.5580   -9.1850    8.7740 C.ar   76  A76         0.1518
   1313  C6        -5.9860   -8.0620    8.0660 C.ar   76  A76         0.1919
   1314  N6        -6.5760   -6.9810    8.6440 N.pl3  76  A76        -0.1054
   1315  N7        -5.5550   -9.4870   10.1380 N.ar   76  A76        -0.2193
   1316  C8        -5.0650  -10.7140   10.1880 C.ar   76  A76         0.1816
   1317  N9        -4.7530  -11.2350    8.9390 N.ar   76  A76        -0.2693
   1318  OP1       -3.3010  -13.5820   14.6890 O.3    76  A76        -0.4373
   1319  OP2       -4.0680  -11.1830   14.1350 O.co2  76  A76        -0.5172
   1320  P          0.1630  -12.5220   10.5520 P.3    77  U77         0.2141
   1321  C5'        0.9510  -12.0860    8.1480 C.3    77  U77         0.1812
   1322  O5'        0.4490  -11.5610    9.3500 O.3    77  U77        -0.3114
   1323  C4'        0.9170  -11.0320    7.0930 C.3    77  U77         0.1773
   1324  O4'       -0.4390  -10.6940    6.7310 O.3    77  U77        -0.3307
   1325  C3'        1.5200   -9.6890    7.4730 C.3    77  U77         0.1860
   1326  O3'        2.9450   -9.7850    7.4200 O.3    77  U77        -0.3112
   1327  C2'        0.9700   -8.8260    6.3610 C.3    77  U77         0.2309
   1328  O2'        1.5840   -9.0920    5.1060 O.3    77  U77        -0.2156
   1329  C1'       -0.4780   -9.3260    6.3330 C.3    77  U77         0.2420
   1330  N1        -1.3190   -8.5770    7.2820 N.ar   77  U77        -0.2534
   1331  C2        -1.8280   -7.3810    6.8410 C.ar   77  U77         0.3546
   1332  O2        -1.5990   -6.9610    5.7310 O.2    77  U77        -0.2443
   1333  N3        -2.6260   -6.6960    7.7530 N.ar   77  U77        -0.1530
   1334  C4        -2.9310   -7.0940    9.0410 C.ar   77  U77         0.2846
   1335  O4        -3.6490   -6.3490    9.7760 O.2    77  U77        -0.2650
   1336  C5        -2.3610   -8.3590    9.4200 C.ar   77  U77         0.0814
   1337  C6        -1.5840   -9.0450    8.5320 C.ar   77  U77         0.0870
   1338  OP1        1.2460  -13.5220   10.7890 O.2    77  U77        -0.5172
   1339  OP2       -0.3170  -11.6720   11.6860 O.co2  77  U77        -0.4373
   1340  P          3.8420   -9.0020    8.4990 P.3    78  G78         0.2141
   1341  C5'        3.4050   -6.5280    7.9480 C.3    78  G78         0.1812
   1342  O5'        4.1590   -7.6660    7.7270 O.3    78  G78        -0.3114
   1343  C4'        3.5000   -5.6110    6.7670 C.3    78  G78         0.1773
   1344  O4'        2.1970   -5.6280    6.1210 O.3    78  G78        -0.3307
   1345  C3'        3.7310   -4.1700    7.2180 C.3    78  G78         0.1860
   1346  O3'        5.0540   -3.7360    6.9710 O.3    78  G78        -0.3112
   1347  C2'        2.7060   -3.3540    6.4490 C.3    78  G78         0.2309
   1348  O2'        3.1870   -2.8080    5.2280 O.3    78  G78        -0.2156
   1349  C1'        1.5720   -4.3730    6.2920 C.3    78  G78         0.2408
   1350  N1        -1.8630   -1.9130    9.0670 N.ar   78  G78        -0.1709
   1351  C2        -1.3030   -1.5750    7.8700 C.ar   78  G78         0.2606
   1352  N2        -1.7010   -0.4420    7.3280 N.pl3  78  G78        -0.0859
   1353  N3        -0.4200   -2.3120    7.2380 N.ar   78  G78        -0.1918
   1354  C4        -0.1570   -3.4510    7.8930 C.ar   78  G78         0.1723
   1355  C5        -0.6820   -3.8980    9.0730 C.ar   78  G78         0.1748
   1356  C6        -1.6140   -3.0910    9.7500 C.ar   78  G78         0.3023
   1357  O6        -2.1930   -3.3310   10.8180 O.2    78  G78        -0.2633
   1358  N7        -0.1740   -5.1420    9.4030 N.ar   78  G78        -0.2173
   1359  C8         0.6670   -5.4120    8.4400 C.ar   78  G78         0.1817
   1360  N9         0.7300   -4.4260    7.4920 N.ar   78  G78        -0.2693
   1361  OP1        5.1380   -9.7540    8.6120 O.2    78  G78        -0.5172
   1362  OP2        3.1180   -8.6690    9.7470 O.co2  78  G78        -0.4373
   1363  P          5.7970   -2.8270    8.0680 P.3    79  U79         0.2141
   1364  C5'        4.8860   -0.7380    6.7540 C.3    79  U79         0.1812
   1365  O5'        5.0510   -1.4210    8.0030 O.3    79  U79        -0.3114
   1366  C4'        4.1450    0.5640    6.9520 C.3    79  U79         0.1773
   1367  O4'        2.7120    0.3090    7.0220 O.3    79  U79        -0.3307
   1368  C3'        4.4450    1.3180    8.2460 C.3    79  U79         0.1860
   1369  O3'        5.6290    2.1180    8.1310 O.3    79  U79        -0.3112
   1370  C2'        3.2030    2.1840    8.3880 C.3    79  U79         0.2309
   1371  O2'        3.2410    3.2890    7.5110 O.3    79  U79        -0.2156
   1372  C1'        2.1110    1.2040    7.9520 C.3    79  U79         0.2420
   1373  N1         1.5740    0.4120    9.0680 N.ar   79  U79        -0.2534
   1374  C2         0.4970    0.9180    9.7820 C.ar   79  U79         0.3546
   1375  O2         0.0070    2.0140    9.5530 O.2    79  U79        -0.2443
   1376  N3         0.0270    0.0940   10.7800 N.ar   79  U79        -0.1530
   1377  C4         0.5340   -1.1420   11.1390 C.ar   79  U79         0.2846
   1378  O4        -0.0040   -1.7910   12.0290 O.2    79  U79        -0.2650
   1379  C5         1.6600   -1.5700   10.3690 C.ar   79  U79         0.0814
   1380  C6         2.1240   -0.7990    9.3840 C.ar   79  U79         0.0870
   1381  OP1        7.1590   -2.6630    7.4930 O.2    79  U79        -0.5172
   1382  OP2        5.6400   -3.4190    9.4170 O.co2  79  U79        -0.4373
   1383  P          6.2420    2.8490    9.4360 P.3    80  C80         0.2141
   1384  C5'        5.4940    5.0710   10.6430 C.3    80  C80         0.1812
   1385  O5'        5.3000    4.1350    9.5890 O.3    80  C80        -0.3114
   1386  C4'        4.1670    5.5970   11.1400 C.3    80  C80         0.1773
   1387  O4'        3.1070    4.6450   10.8580 O.3    80  C80        -0.3307
   1388  C3'        4.0950    5.7410   12.6460 C.3    80  C80         0.1860
   1389  O3'        4.7780    6.9000   13.1050 O.3    80  C80        -0.3112
   1390  C2'        2.5920    5.7510   12.9050 C.3    80  C80         0.2309
   1391  O2'        1.9580    7.0030   12.7060 O.3    80  C80        -0.2156
   1392  C1'        2.1160    4.7060   11.8880 C.3    80  C80         0.2420
   1393  N1         2.0090    3.3740   12.5180 N.ar   80  C80        -0.2535
   1394  C2         0.8980    3.0910   13.3500 C.ar   80  C80         0.3532
   1395  O2         0.0130    3.9540   13.4920 O.2    80  C80        -0.2443
   1396  N3         0.8260    1.8850   13.9700 N.ar   80  C80        -0.1739
   1397  C4         1.7930    0.9780   13.7790 C.ar   80  C80         0.1759
   1398  N4         1.6850   -0.1950   14.3960 N.pl3  80  C80        -0.1070
   1399  C5         2.9210    1.2360   12.9330 C.ar   80  C80         0.0566
   1400  C6         2.9810    2.4320   12.3240 C.ar   80  C80         0.0850
   1401  OP1        7.6080    3.3110    9.0460 O.2    80  C80        -0.5172
   1402  OP2        6.0900    1.9620   10.6290 O.co2  80  C80        -0.4373
   1403  P          5.7150    6.7890   14.4110 P.3    81  C81         0.2141
   1404  C5'        3.6130    7.0020   16.0170 C.3    81  C81         0.1813
   1405  O5'        4.7470    6.2370   15.5650 O.3    81  C81        -0.3114
   1406  C4'        3.0070    6.3890   17.2770 C.3    81  C81         0.1801
   1407  O4'        2.2660    5.1690   16.9760 O.3    81  C81        -0.3306
   1408  C3'        3.9840    5.9370   18.3590 C.3    81  C81         0.2161
   1409  O3'        4.6380    6.9990   19.0840 O.3    81  C81        -0.2175
   1410  C2'        3.1250    4.9990   19.2110 C.3    81  C81         0.2338
   1411  O2'        2.3210    5.6500   20.1860 O.3    81  C81        -0.2155
   1412  C1'        2.2190    4.3550   18.1520 C.3    81  C81         0.2421
   1413  N1         2.6260    2.9770   17.8070 N.ar   81  C81        -0.2535
   1414  C2         2.1360    1.8980   18.5920 C.ar   81  C81         0.3532
   1415  O2         1.4000    2.1360   19.5700 O.2    81  C81        -0.2443
   1416  N3         2.4890    0.6340   18.2630 N.ar   81  C81        -0.1739
   1417  C4         3.2980    0.4130   17.2160 C.ar   81  C81         0.1759
   1418  N4         3.6100   -0.8590   16.9210 N.pl3  81  C81        -0.1070
   1419  C5         3.8230    1.4870   16.4200 C.ar   81  C81         0.0566
   1420  C6         3.4620    2.7370   16.7470 C.ar   81  C81         0.0850
   1421  OP1        6.1320    8.1730   14.7730 O.3    81  C81        -0.4373
   1422  OP2        6.7530    5.7490   14.1140 O.co2  81  C81        -0.5172
@<TRIPOS>BOND
     1   718   717    2
     2   684   663    2
     3   704   686    2
     4   719   717   ar
     5   719   720   ar
     6   717   716   ar
     7   721   720    2
     8   720   722   ar
     9   293   275    2
    10   710   709    1
    11   710   715    1
    12   664   666    1
    13   664   665    1
    14   240   239    1
    15   260   259    1
    16   705   686    1
    17   253   255    1
    18   253   254    1
    19   258   275    1
    20   258   257    1
    21   255   256    1
    22   255   257    1
    23   686   669    1
    24   686   688    1
    25   716   715    1
    26   716   723   ar
    27   647   663    1
    28   647   646    1
    29   663   665    1
    30   663   685    1
    31   649   648    1
    32   669   668    1
    33   707   709    1
    34   707   708    1
    35   709   711    1
    36   715   713    1
    37   722   723   ar
    38   725   706    2
    39   666   668    1
    40   666   667    1
    41   273   252    2
    42   275   277    1
    43   275   294    1
    44   256   261    1
    45   257   259    1
    46   259   261    1
    47   146   128    2
    48   238   252    1
    49   238   237    1
    50   668   670    1
    51   239   237    1
    52   239   241    1
    53   708   706    1
    54   277   276    1
    55   254   252    1
    56   646   648    1
    57   646   644    1
    58   648   650    1
    59   261   272    1
    60   688   687    1
    61   644   645    1
    62   644   642    1
    63   661   641    2
    64   252   274    1
    65   712   711    1
    66   712   726    1
    67   667   672    1
    68   706   724    1
    69   706   692    1
    70   711   713    1
    71   687   689    1
    72   235   237    1
    73   235   236    1
    74   235   233    1
    75   713   714    1
    76   627   626    1
    77   241   236    1
    78   241   242    1
    79   166   148    2
    80   643   642    1
    81   643   641    1
    82   671   670    1
    83   745   726    2
    84   244   243    2
    85   645   650    1
    86   167   148    1
    87   650   660    1
    88   670   672    1
    89   691   689    1
    90   691   692    1
    91   691   693    1
    92   744   726    1
    93   726   728    1
    94   276   278    1
    95   128   114    1
    96   128   147    1
    97   128   130    1
    98   641   625    1
    99   641   662    1
   100   689   690    1
   101   114   113    1
   102   233   234    1
   103   278   279    1
   104   278   280    1
   105   148   134    1
   106   148   150    1
   107   672   683    1
   108   625   624    1
   109   272   271   ar
   110   272   266   ar
   111   129   130    1
   112   129   131    1
   113   279   284    1
   114   243   242   ar
   115   243   245   ar
   116   626   624    1
   117   626   628    1
   118   242   249   ar
   119   283   282    1
   120   693   694    1
   121   693   695    1
   122   265   266   ar
   123   265   263   ar
   124   185   186   ar
   125   185   182   ar
   126   186   187   ar
   127   134   133    1
   128   281   280    1
   129   281   295    1
   130   116   115    1
   131   126   108    2
   132   271   270   ar
   133   266   267   ar
   134   660   654   ar
   135   660   659   ar
   136   653   654   ar
   137   653   652   ar
   138   109   111    1
   139   109   110    1
   140   624   622    1
   141   682   683   ar
   142   682   681   ar
   143   316   295    2
   144   683   677   ar
   145   111   113    1
   146   111   112    1
   147   131   133    1
   148   131   132    1
   149   149   150    1
   150   149   151    1
   151   280   282    1
   152   113   115    1
   153   728   727    1
   154   690   695    1
   155   622   623    1
   156   622   620    1
   157   234   232    1
   158   628   623    1
   159   628   638    1
   160   284   282    1
   161   284   285    1
   162   264   263    1
   163   220   219    1
   164   631   630   ar
   165   631   632   ar
   166   245   246   ar
   167   654   655   ar
   168   263   262   ar
   169   249   248   ar
   170   133   135    1
   171   695   696    1
   172   184   183    1
   173   295   297    1
   174   295   317    1
   175   115   117    1
   176   296   297    1
   177   296   298    1
   178   182   183   ar
   179   182   181   ar
   180   250   232    2
   181   652   651   ar
   182   187   177    1
   183   187   181   ar
   184   630   629   ar
   185   659   658   ar
   186   727   729    1
   187   703   696   ar
   188   703   702   ar
   189   110   108    1
   190   270   267   ar
   191   681   678   ar
   192   267   268   ar
   193   108    92    1
   194   108   127    1
   195   620   621    1
   196   177   172    1
   197   177   175    1
   198   132   137    1
   199   112   117    1
   200  1106  1086    2
   201   232   218    1
   202   232   251    1
   203   224   223    2
   204  1169  1151    2
   205   183   178   ar
   206   677   676   ar
   207   677   678   ar
   208   638   632   ar
   209   638   637   ar
   210   151   152    1
   211   151   153    1
   212   696   697   ar
   213   219   217    1
   214   219   221    1
   215   632   633   ar
   216   136   135    1
   217   285   292   ar
   218   285   286   ar
   219   218   217    1
   220    92    91    1
   221   246   248   ar
   222   246   247    1
   223   702   700   ar
   224   172   171    1
   225   181   180   ar
   226   292   291   ar
   227   117   118    1
   228   298   299    1
   229   298   300    1
   230   135   137    1
   231   262   268   ar
   232   655   658   ar
   233   655   656   ar
   234   164   165   ar
   235   164   162   ar
   236   152   157    1
   237   742   743   ar
   238   742   740   ar
   239    94    93    1
   240   676   674   ar
   241   165   158   ar
   242   678   679   ar
   243   629   634   ar
   244   176   175    1
   245   743   736   ar
   246   188   168    2
   247   651   656   ar
   248   299   304    1
   249   268   269    2
   250   137   138    1
   251   621   619    1
   252   175   173    1
   253   217   215    1
   254   729   730    1
   255   729   731    1
   256   221   222    1
   257   221   216    1
   258   153   155    1
   259   153   154    1
   260   611   610    2
   261   287   286    2
   262  1134  1151    1
   263  1134  1133    1
   264   223   222   ar
   265   223   225   ar
   266   607   606    1
   267   336   318    2
   268  1088  1086    1
   269  1088  1087    1
   270   286   288   ar
   271   730   735    1
   272   656   657    1
   273   178   179   ar
   274   637   636   ar
   275  1129  1131    1
   276  1129  1130    1
   277   301   300    1
   278   301   318    1
   279  1151  1170    1
   280  1151  1153    1
   281  1086  1070    1
   282  1086  1107    1
   283   633   634   ar
   284   633   636   ar
   285  1094  1093    1
   286   291   289   ar
   287   731   733    1
   288   731   732    1
   289   171   173    1
   290   171   169    1
   291   170   168    1
   292   170   169    1
   293   697   698    2
   294   697   699   ar
   295  1131  1133    1
   296  1131  1132    1
   297   741   740    2
   298    91    93    1
   299    91    89    1
   300  1149  1128    2
   301   740   739   ar
   302    93    95    1
   303   180   179   ar
   304   162   163    2
   305   162   161   ar
   306   300   302    1
   307   733   735    1
   308   733   734    1
   309   118   125   ar
   310   118   119   ar
   311  1152  1153    1
   312  1152  1154    1
   313   215   216    1
   314   215   213    1
   315   155   157    1
   316   155   156    1
   317   700   699   ar
   318   700   701    2
   319   158   157    1
   320   158   159   ar
   321   634   635    1
   322  1136  1135    1
   323   222   229   ar
   324   639   619    2
   325   145   138   ar
   326   145   144   ar
   327   736   735    1
   328   736   737   ar
   329   318   337    1
   330   318   320    1
   331   674   675    1
   332   674   673   ar
   333   168   154    1
   334   168   189    1
   335   225   226   ar
   336   606   608    1
   337   606   604    1
   338  1070  1069    1
   339   679   673   ar
   340   679   680    2
   341   125   124   ar
   342   138   139   ar
   343  1189  1171    2
   344   764   746    2
   345   120   119    2
   346    89    87    1
   347    89    90    1
   348  1133  1135    1
   349   173   174    1
   350  1116  1115    1
   351  1089  1087    1
   352  1089  1090    1
   353  1089  1091    1
   354   610   612   ar
   355   610   609   ar
   356   304   302    1
   357   304   315    1
   358   619   605    1
   359   619   640    1
   360   303   302    1
   361   119   121   ar
   362   288   289   ar
   363  1067  1065    1
   364  1067  1069    1
   365  1067  1068    1
   366  1132  1137    1
   367  1092  1091    1
   368  1092  1108    1
   369   612   613   ar
   370   314   315   ar
   371   314   313   ar
   372  1090  1095    1
   373   289   290    1
   374  1114  1128    1
   375  1114  1113    1
   376  1020   999    2
   377  1130  1128    1
   378   732   746    1
   379   605   604    1
   380   739   737   ar
   381   161   159   ar
   382    87    88    1
   383  1128  1150    1
   384  1154  1156    1
   385  1154  1155    1
   386  1135  1137    1
   387  1065  1066    1
   388  1093  1091    1
   389  1093  1095    1
   390  1126  1108    2
   391   608   609    1
   392   608   603    1
   393   159   160    2
   394   144   142   ar
   395   765   746    1
   396    95    90    1
   397    95   105    1
   398   737   738    2
   399   746   748    1
   400  1069  1071    1
   401   213   214    1
   402   315   309   ar
   403  1157  1171    1
   404  1157  1156    1
   405   174   190    1
   406  1095  1105    1
   407   604   602    1
   408  1068  1073    1
   409  1171  1190    1
   410  1171  1173    1
   411  1050  1049    1
   412   229   228   ar
   413   124   122   ar
   414   609   616   ar
   415   139   140    2
   416   139   141   ar
   417  1137  1148    1
   418   997   979    2
   419   226   227    2
   420   226   228   ar
   421   320   319    1
   422   588   587    1
   423   313   310   ar
   424  1108  1127    1
   425  1108  1110    1
   426   980   982    1
   427   980   981    1
   428  1115  1113    1
   429  1115  1117    1
   430  1328  1327    1
   431  1156  1158    1
   432    98    97   ar
   433    98    99   ar
   434   121   122   ar
   435   106    86    2
   436  1348  1347    1
   437  1155  1160    1
   438  1113  1111    1
   439  1084  1064    2
   440  1111  1112    1
   441  1111  1109    1
   442   613   614    1
   443   613   615   ar
   444    88    86    1
   445   214   212    1
   446   319   321    1
   447  1076  1075   ar
   448  1076  1077   ar
   449   999   985    1
   450   999  1021    1
   451   999  1001    1
   452  1073  1071    1
   453  1073  1083    1
   454   985   984    1
   455   967   966    1
   456   603   602    1
   457   602   600    1
   458   105    99   ar
   459   105   104   ar
   460   982   984    1
   461   982   983    1
   462   965   979    1
   463   965   964    1
   464   802   801    1
   465   122   123    2
   466  1066  1064    1
   467  1332  1331    2
   468  1075  1074   ar
   469    97    96   ar
   470   142   141   ar
   471   142   143    2
   472    99   100   ar
   473   309   310   ar
   474   309   308   ar
   475  1071  1072    1
   476  1112  1117    1
   477   748   747    1
   478  1117  1118    1
   479  1048  1064    1
   480  1048  1047    1
   481  1109  1110    1
   482  1105  1099   ar
   483  1105  1104   ar
   484   616   615   ar
   485   191   192    1
   486   191   193    1
   487   979   981    1
   488   979   998    1
   489  1344  1349    1
   490  1344  1343    1
   491  1309  1310   ar
   492  1309  1308   ar
   493   962   960    1
   494   962   964    1
   495   962   963    1
   496  1173  1172    1
   497  1049  1051    1
   498  1049  1047    1
   499   310   311   ar
   500    86   107    1
   501    86    72    1
   502   190   192    1
   503   190   211    2
   504   190   210    1
   505   587   586   ar
   506   587   589   ar
   507  1098  1099   ar
   508  1098  1097   ar
   509  1148  1147   ar
   510  1148  1142   ar
   511  1064  1085    1
   512   987   986    1
   513  1172  1174    1
   514  1349  1347    1
   515  1349  1360    1
   516  1329  1327    1
   517  1329  1324    1
   518  1329  1330    1
   519   747   749    1
   520  1327  1325    1
   521   586   592   ar
   522  1159  1158    1
   523   960   961    1
   524   984   986    1
   525  1347  1345    1
   526  1158  1160    1
   527  1077  1083   ar
   528  1077  1078   ar
   529   983   988    1
   530   104   103   ar
   531  1160  1161    1
   532  1000  1001    1
   533  1000  1002    1
   534  1083  1082   ar
   535   964   966    1
   536   781   780    2
   537   796   801   ar
   538   796   797   ar
   539  1310  1311   ar
   540   308   306   ar
   541  1147  1146   ar
   542  1308  1313   ar
   543  1324  1323    1
   544  1051  1046    1
   545  1051  1061    1
   546  1364  1366    1
   547  1364  1365    1
   548  1099  1100   ar
   549  1343  1345    1
   550  1343  1341    1
   551  1168  1161   ar
   552  1168  1167   ar
   553   966   968    1
   554   801   800   ar
   555  1040  1022    2
   556  1120  1119    2
   557  1047  1045    1
   558    96   101   ar
   559  1331  1330   ar
   560  1331  1333   ar
   561   334   335   ar
   562   334   332   ar
   563  1045  1046    1
   564  1045  1043    1
   565   321   322    1
   566   321   323    1
   567   820   819    2
   568  1366  1367    1
   569  1366  1368    1
   570   963   968    1
   571  1104  1103   ar
   572  1074  1079   ar
   573  1346  1345    1
   574  1346  1363    1
   575   212   231    2
   576   212   196    1
   577   212   230    1
   578   100   103   ar
   579   100   101   ar
   580   335   328   ar
   581   821   819   ar
   582   821   822   ar
   583   600   601    1
   584  1367  1372    1
   585   322   327    1
   586  1323  1325    1
   587  1323  1321    1
   588    74    73    1
   589    72    71    1
   590   986   988    1
   591   823   822    1
   592  1353  1351   ar
   593  1353  1354   ar
   594   589   590   ar
   595  1097  1096   ar
   596   193   195    1
   597   193   194    1
   598  1330  1337   ar
   599   762   763   ar
   600   762   760   ar
   601   945   944    1
   602  1352  1351    1
   603  1161  1162   ar
   604   360   338    2
   605  1142  1141   ar
   606  1142  1143   ar
   607  1054  1053   ar
   608  1054  1055   ar
   609  1141  1139   ar
   610  1118  1119   ar
   611  1118  1125   ar
   612  1326  1325    1
   613  1326  1340    1
   614   977   959    2
   615   196   195    1
   616   968   969    1
   617  1360  1354   ar
   618  1360  1359   ar
   619  1381  1363    2
   620  1167  1165   ar
   621   101   102    1
   622  1371  1370    1
   623   819   818   ar
   624   311   312    2
   625   311   305   ar
   626   988   989    1
   627   592   593    2
   628   592   591   ar
   629   763   756   ar
   630   601   599    1
   631  1210  1191    2
   632  1119  1121   ar
   633   822   824   ar
   634  1342  1341    1
   635  1342  1340    1
   636  1333  1334   ar
   637  1306  1305    1
   638   961   959    1
   639  1174  1175    1
   640  1174  1176    1
   641   323   324    1
   642   323   325    1
   643   780   782   ar
   644   780   779   ar
   645   797   798   ar
   646  1078  1079   ar
   647  1078  1081   ar
   648   749   750    1
   649   749   751    1
   650    73    71    1
   651    73    75    1
   652  1209  1191    1
   653  1351  1350   ar
   654  1354  1355   ar
   655  1082  1081   ar
   656  1002  1004    1
   657  1002  1003    1
   658  1372  1370    1
   659  1372  1373    1
   660   333   332    2
   661   306   305   ar
   662   306   307    1
   663  1004  1006    1
   664  1004  1005    1
   665  1053  1052   ar
   666   332   331   ar
   667  1061  1055   ar
   668  1061  1060   ar
   669   324   338    1
   670  1365  1363    1
   671  1311  1312   ar
   672  1311  1317   ar
   673   782   783   ar
   674  1146  1143   ar
   675  1079  1080    1
   676   750   755    1
   677  1313  1314    1
   678  1313  1312   ar
   679  1363  1382    1
   680   800   803   ar
   681   800   799   ar
   682   195   197    1
   683  1043  1044    1
   684  1100  1103   ar
   685  1100  1101   ar
   686  1023  1024    1
   687  1023  1025    1
   688  1369  1368    1
   689  1369  1383    1
   690  1321  1322    1
   691   761   760    1
   692   359   338    1
   693   328   327    1
   694   328   329   ar
   695    71    69    1
   696  1368  1370    1
   697  1055  1056   ar
   698   338   340    1
   699   194   199    1
   700  1044  1042    1
   701  1022  1024    1
   702  1022  1005    1
   703  1022  1041    1
   704   752   751    1
   705   752   766    1
   706  1177  1191    1
   707  1177  1176    1
   708   327   325    1
   709  1286  1287   ar
   710  1286  1291   ar
   711  1191  1193    1
   712  1125  1124   ar
   713   590   591   ar
   714   590   596   ar
   715   959   943    1
   716   959   978    1
   717   760   759   ar
   718  1175  1180    1
   719  1287  1288   ar
   720    78    77    2
   721  1359  1358   ar
   722  1143  1144   ar
   723  1305  1307    1
   724  1305  1303    1
   725  1340  1361    2
   726  1340  1362    1
   727  1006  1007    1
   728  1006  1008    1
   729  1337  1336   ar
   730   943   942    1
   731   803   804   ar
   732   751   753    1
   733  1176  1178    1
   734  1096  1101   ar
   735   944   946    1
   736   944   942    1
   737   948   949   ar
   738   948   947   ar
   739  1139  1140    1
   740  1139  1138   ar
   741   949   950   ar
   742  1307  1317    1
   743  1307  1302    1
   744   591   594   ar
   745   584   583    1
   746  1162  1163    2
   747  1162  1164   ar
   748   785   766    2
   749   818   817    1
   750   818   825   ar
   751  1312  1315   ar
   752  1188  1187   ar
   753  1188  1181   ar
   754   989   996   ar
   755   989   990   ar
   756   816   815    1
   757   756   755    1
   758   756   757   ar
   759  1003  1008    1
   760  1187  1185   ar
   761   969   970   ar
   762   969   976   ar
   763  1317  1316   ar
   764   996   995   ar
   765   779   777   ar
   766  1165  1164   ar
   767  1165  1166    2
   768   971   970    2
   769  1025  1026    1
   770  1025  1027    1
   771   824   825   ar
   772   325   326    1
   773  1121  1122   ar
   774   583   585    1
   775   583   581    1
   776  1018  1017   ar
   777  1018  1019   ar
   778   798   799   ar
   779  1334  1336   ar
   780  1334  1335    2
   781   815   817    1
   782   815   813    1
   783  1101  1102    1
   784  1401  1383    2
   785  1350  1356   ar
   786  1373  1380   ar
   787  1373  1374   ar
   788  1355  1358   ar
   789  1355  1356   ar
   790   799   805   ar
   791   599   617    2
   792   599   618    1
   793   599   582    1
   794   331   329   ar
   795  1060  1059   ar
   796    75    76    1
   797    75    70    1
   798   198   197    1
   799   755   753    1
   800   817   812    1
   801  1052  1057   ar
   802   783   776   ar
   803   329   330    2
   804    69    70    1
   805    69    67    1
   806   766   784    1
   807   766   768    1
   808  1322  1320    1
   809    77    76   ar
   810    77    79   ar
   811   197   199    1
   812  1380  1379   ar
   813   946   941    1
   814   946   956    1
   815   942   940    1
   816  1383  1385    1
   817  1383  1402    1
   818  1292  1291    1
   819  1288  1289   ar
   820  1008  1019    1
   821  1291  1290   ar
   822   199   209    1
   823  1375  1374    2
   824   596   585    1
   825   596   595   ar
   826  1385  1384    1
   827  1056  1057   ar
   828  1056  1059   ar
   829  1017  1014   ar
   830   947   952   ar
   831   970   972   ar
   832   976   975   ar
   833   442   441    1
   834   759   757   ar
   835  1302  1301    1
   836  1124  1122   ar
   837   585   580    1
   838   340   339    1
   839  1138  1144   ar
   840  1144  1145    2
   841   356   357   ar
   842   356   353   ar
   843  1028  1042    1
   844  1028  1027    1
   845  1356  1357    2
   846  1042  1062    2
   847  1042  1063    1
   848  1180  1181    1
   849  1180  1178    1
   850  1374  1376   ar
   851    76    83   ar
   852   804   805   ar
   853   753   754    1
   854  1019  1013   ar
   855  1026  1031    1
   856   950   956   ar
   857   950   951   ar
   858   991   990    2
   859   378   377    2
   860  1193  1192    1
   861  1303  1304    1
   862  1303  1301    1
   863  1181  1182   ar
   864  1027  1029    1
   865   757   758    2
   866    79    80   ar
   867   594   595   ar
   868   940   941    1
   869   940   938    1
   870  1178  1179    1
   871   990   992   ar
   872   582   581    1
   873  1304  1320    1
   874  1250  1249    1
   875   208   209   ar
   876   208   207   ar
   877  1122  1123    2
   878   355   354    2
   879  1057  1058    1
   880  1315  1316   ar
   881   995   993   ar
   882   581   579    1
   883   357   358   ar
   884  1185  1186    1
   885  1185  1184   ar
   886    67    68    1
   887   777   776   ar
   888   777   778    2
   889   805   795    1
   890   956   955   ar
   891   847   828    2
   892  1301  1299    1
   893   503   502    1
   894  1379  1377   ar
   895   571   570    1
   896   776   775    1
   897   767   768    1
   898   767   769    1
   899   813   814    1
   900   813   811    1
   901   209   203   ar
   902   529   528    1
   903   550   549    1
   904   400   399    1
   905   843   842    1
   906   436   441   ar
   907   436   437   ar
   908  1320  1338    2
   909  1320  1339    1
   910   814   828    1
   911  1207  1208   ar
   912  1207  1205   ar
   913  1289  1290   ar
   914  1289  1295   ar
   915  1384  1386    1
   916   812   811    1
   917   441   440   ar
   918  1290  1293   ar
   919  1376  1377   ar
   920   807   786    2
   921   339   341    1
   922  1271  1270    1
   923   353   354   ar
   924   353   352   ar
   925    83    82   ar
   926  1192  1194    1
   927  1387  1386    1
   928  1387  1392    1
   929  1014  1013   ar
   930  1014  1015   ar
   931  1206  1205    1
   932   952   951   ar
   933   952   953    1
   934    68    66    1
   935    80    82   ar
   936    80    81    1
   937   844   842   ar
   938   844   845   ar
   939   569   570   ar
   940   569   567   ar
   941   354   348   ar
   942   972   973   ar
   943   421   420    2
   944   975   973   ar
   945   951   954   ar
   946  1013  1012   ar
   947   207   204   ar
   948   580   579    1
   949   377   371   ar
   950   377   376   ar
   951  1377  1378    2
   952  1386  1388    1
   953   828   846    1
   954   828   830    1
   955  1182  1184   ar
   956  1182  1183    2
   957   929   928    2
   958   992   993   ar
   959  1228  1227    2
   960  1208  1201   ar
   961  1031  1029    1
   962  1031  1032    1
   963   938   939    1
   964  1029  1030    1
   965   993   994    1
   966   570   572   ar
   967   579   577    1
   968   842   841   ar
   969  1249  1244   ar
   970  1249  1248   ar
   971   811   809    1
   972  1205  1204   ar
   973  1039  1032   ar
   974  1039  1038   ar
   975   544   549   ar
   976   544   545   ar
   977   419   420   ar
   978   419   417   ar
   979   437   438   ar
   980   549   548   ar
   981  1233  1211    2
   982   358   352   ar
   983   358   347    1
   984   568   567    2
   985   795   793    1
   986   795   790    1
   987   502   504   ar
   988   502   501   ar
   989    84    66    2
   990   955   954   ar
   991   973   974    1
   992   379   376   ar
   993   379   380   ar
   994   770   775    1
   995   770   769    1
   996   399   394   ar
   997   399   398   ar
   998   528   530   ar
   999   528   527   ar
  1000   342   341    1
  1001   342   347    1
  1002   775   773    1
  1003   203   204   ar
  1004   203   202   ar
  1005   769   771    1
  1006   371   372   ar
  1007  1299  1300    1
  1008  1244  1245   ar
  1009  1269  1270   ar
  1010  1269  1267   ar
  1011   845   838   ar
  1012   567   566   ar
  1013   420   422   ar
  1014   499   498    1
  1015  1392  1393    1
  1016  1392  1390    1
  1017   440   443   ar
  1018   440   439   ar
  1019  1295  1285    1
  1020  1295  1294   ar
  1021   418   417    2
  1022   352   351   ar
  1023  1015  1016    2
  1024  1015  1009   ar
  1025   793   791    1
  1026   793   794    1
  1027  1032  1033   ar
  1028  1270  1272   ar
  1029   394   395   ar
  1030   771   773    1
  1031   771   772    1
  1032    55    54   ar
  1033    55    56   ar
  1034   530   531   ar
  1035   376   375   ar
  1036   341   343    1
  1037   504   505   ar
  1038   906   905    1
  1039  1293  1294   ar
  1040  1284  1283    1
  1041    66    85    1
  1042    66    50    1
  1043   383   361    2
  1044  1012  1010   ar
  1045   911   910    2
  1046   204   205   ar
  1047  1038  1036   ar
  1048   930   928   ar
  1049   930   931   ar
  1050   928   927   ar
  1051   904   910   ar
  1052   904   905   ar
  1053   480   479    1
  1054   786   788    1
  1055   786   772    1
  1056   786   806    1
  1057  1251  1248   ar
  1058  1251  1252   ar
  1059  1194  1195    1
  1060  1194  1196    1
  1061  1283  1285    1
  1062  1283  1281    1
  1063    54    59   ar
  1064   348   349   ar
  1065  1285  1280    1
  1066  1229  1226   ar
  1067  1229  1230   ar
  1068   939   937    1
  1069   501   507   ar
  1070  1400  1393   ar
  1071  1400  1399   ar
  1072  1248  1247   ar
  1073   788   787    1
  1074   810   809    1
  1075   810   808    1
  1076  1300  1298    1
  1077   443   444   ar
  1078   417   416   ar
  1079  1195  1200    1
  1080   925   924    1
  1081   865   864    2
  1082  1227  1226   ar
  1083  1227  1221   ar
  1084   347   345    1
  1085   830   829    1
  1086   343   344    1
  1087   343   345    1
  1088   773   774    1
  1089  1393  1394   ar
  1090   202   201   ar
  1091   841   839   ar
  1092   790   789    1
  1093   545   546   ar
  1094  1201  1200    1
  1095  1201  1202   ar
  1096  1196  1197    1
  1097  1196  1198    1
  1098  1388  1390    1
  1099  1388  1389    1
  1100   572   573   ar
  1101    56    57   ar
  1102   791   789    1
  1103   791   792    1
  1104  1391  1390    1
  1105   527   525   ar
  1106   577   578    1
  1107   438   439   ar
  1108  1204  1202   ar
  1109   827   808    2
  1110   548   551   ar
  1111   548   547   ar
  1112  1268  1267    2
  1113   398   401   ar
  1114   398   397   ar
  1115   910   909   ar
  1116   905   907   ar
  1117   439   445   ar
  1118   380   381   ar
  1119   401   402   ar
  1120   578   576    1
  1121   924   926    1
  1122   924   922    1
  1123  1267  1266   ar
  1124  1399  1397   ar
  1125  1211  1197    1
  1126  1211  1232    1
  1127  1211  1213    1
  1128  1226  1225   ar
  1129   888   887    2
  1130   498   500    1
  1131   498   496    1
  1132  1009  1010   ar
  1133  1245  1246   ar
  1134  1389  1403    1
  1135   838   839   ar
  1136   838   837    1
  1137  1010  1011    1
  1138   372   373    1
  1139   372   374   ar
  1140   533   514    2
  1141   566   573   ar
  1142   566   565    1
  1143   551   552   ar
  1144   351   349   ar
  1145  1033  1034    2
  1146  1033  1035   ar
  1147   395   396   ar
  1148   422   423   ar
  1149    52    51    1
  1150    50    49    1
  1151  1230  1231   ar
  1152  1272  1273   ar
  1153   344   361    1
  1154  1200  1198    1
  1155   531   524   ar
  1156   926   927    1
  1157   926   921    1
  1158   505   511   ar
  1159   505   506   ar
  1160   349   350    1
  1161  1394  1395    2
  1162  1394  1396   ar
  1163   375   381   ar
  1164   375   374   ar
  1165   932   931    1
  1166   931   933   ar
  1167    59    60    1
  1168    59    58   ar
  1169   789   787    1
  1170   345   346    1
  1171  1202  1203    2
  1172   808   792    1
  1173   808   826    1
  1174   479   478   ar
  1175   479   481   ar
  1176   927   934   ar
  1177   478   484   ar
  1178   500   511    1
  1179   500   495    1
  1180   361   363    1
  1181   361   382    1
  1182  1221  1222   ar
  1183   839   840    2
  1184  1252  1253   ar
  1185  1036  1035   ar
  1186  1036  1037    2
  1187   205   206    1
  1188   205   200   ar
  1189    51    49    1
  1190    51    53    1
  1191   444   445   ar
  1192   832   831    1
  1193   832   837    1
  1194   507   506   ar
  1195   507   508    2
  1196  1280  1279    1
  1197  1247  1246   ar
  1198  1247  1253   ar
  1199  1281  1282    1
  1200  1281  1279    1
  1201   864   858   ar
  1202   864   863   ar
  1203   829   831    1
  1204   416   423   ar
  1205   416   415    1
  1206    57    58   ar
  1207    57    63   ar
  1208  1397  1396   ar
  1209  1397  1398    1
  1210   201   200   ar
  1211   546   547   ar
  1212  1198  1199    1
  1213   937   957    2
  1214   937   923    1
  1215   937   958    1
  1216   547   553   ar
  1217  1298  1319    2
  1218  1298  1282    1
  1219  1298  1318    1
  1220   381   370    1
  1221   445   435    1
  1222   414   413    1
  1223   563   565    1
  1224   563   564    1
  1225   563   561    1
  1226   497   496    1
  1227   497   514    1
  1228  1213  1212    1
  1229   511   510   ar
  1230   881   887   ar
  1231   881   882   ar
  1232   887   886   ar
  1233    49    47    1
  1234   525   524   ar
  1235   525   526    2
  1236   397   396   ar
  1237   397   403   ar
  1238  1422  1403    2
  1239   565   560    1
  1240   923   922    1
  1241   506   509   ar
  1242   831   833    1
  1243    58    61   ar
  1244   837   835    1
  1245  1266  1273   ar
  1246  1266  1265    1
  1247   907   908   ar
  1248   402   403   ar
  1249   909   908   ar
  1250   909   912   ar
  1251   866   863   ar
  1252   866   867   ar
  1253   922   920    1
  1254   598   576    2
  1255   363   362    1
  1256   496   494    1
  1257   524   523    1
  1258  1225  1231   ar
  1259  1225  1224   ar
  1260   514   532    1
  1261   514   516    1
  1262   858   859   ar
  1263  1253  1243    1
  1264  1403  1421    1
  1265  1403  1405    1
  1266   576   597    1
  1267   576   562    1
  1268   495   494    1
  1269   481   482   ar
  1270  1279  1277    1
  1271   485   484    2
  1272   552   553   ar
  1273   833   835    1
  1274   833   834    1
  1275   863   862   ar
  1276  1231  1220    1
  1277   484   483   ar
  1278   934   933   ar
  1279   415   413    1
  1280   415   410    1
  1281   921   920    1
  1282   870   848    2
  1283    63    53    1
  1284    63    62   ar
  1285  1255  1234    2
  1286    53    48    1
  1287   494   492    1
  1288   908   914   ar
  1289  1222  1224   ar
  1290  1222  1223    1
  1291   883   882    1
  1292   561   562    1
  1293   561   559    1
  1294   553   543    1
  1295   403   393    1
  1296   413   411    1
  1297   920   918    1
  1298   882   884   ar
  1299   835   836    1
  1300   912   913   ar
  1301   435   430    1
  1302   435   433    1
  1303   510   509   ar
  1304   405   384    2
  1305   516   515    1
  1306  1265  1263    1
  1307  1265  1260    1
  1308   370   365    1
  1309   370   368    1
  1310   886   889   ar
  1311   886   885   ar
  1312    61    62   ar
  1313  1212  1214    1
  1314   867   868   ar
  1315   365   364    1
  1316   555   534    2
  1317   560   559    1
  1318    47    48    1
  1319    47    45    1
  1320   482   483   ar
  1321   482   488   ar
  1322   834   848    1
  1323  1405  1404    1
  1324   362   364    1
  1325   483   486   ar
  1326   523   518    1
  1327   523   521    1
  1328  1263  1264    1
  1329  1263  1261    1
  1330   430   429    1
  1331   859   860    1
  1332   859   861   ar
  1333   518   517    1
  1334  1215  1220    1
  1335  1215  1214    1
  1336   889   890   ar
  1337   410   409    1
  1338  1278  1277    1
  1339  1278  1276    1
  1340  1243  1238    1
  1341  1243  1241    1
  1342  1220  1218    1
  1343  1216  1214    1
  1344  1216  1218    1
  1345  1216  1217    1
  1346    38    37    2
  1347   862   868   ar
  1348   862   861   ar
  1349   848   869    1
  1350   848   850    1
  1351   366   364    1
  1352   366   368    1
  1353   366   367    1
  1354  1404  1406    1
  1355   519   517    1
  1356   519   521    1
  1357   519   520    1
  1358   559   557    1
  1359  1238  1237    1
  1360   368   369    1
  1361   914   913   ar
  1362   914   903    1
  1363   412   411    1
  1364   412   426    1
  1365  1234  1217    1
  1366  1234  1236    1
  1367  1234  1254    1
  1368   517   515    1
  1369   434   433    1
  1370   433   431    1
  1371    46    45    1
  1372    46    44    1
  1373   492   493    1
  1374   575   556    2
  1375  1218  1219    1
  1376   521   522    1
  1377   543   541    1
  1378   543   538    1
  1379   884   885   ar
  1380   885   891   ar
  1381   411   409    1
  1382  1419  1420   ar
  1383  1419  1417   ar
  1384   393   388    1
  1385   393   391    1
  1386   868   857    1
  1387  1260  1259    1
  1388   558   557    1
  1389   558   556    1
  1390   447   426    2
  1391    37    31   ar
  1392    37    36   ar
  1393   918   919    1
  1394  1235  1236    1
  1395  1235  1237    1
  1396   384   386    1
  1397   384   367    1
  1398   384   404    1
  1399  1261  1259    1
  1400  1261  1262    1
  1401    31    32   ar
  1402   850   849    1
  1403   541   539    1
  1404   541   542    1
  1405  1420  1413   ar
  1406   488   477    1
  1407   488   487   ar
  1408  1241  1239    1
  1409  1241  1242    1
  1410  1275  1256    2
  1411   534   536    1
  1412   534   520    1
  1413   534   554    1
  1414   386   385    1
  1415  1239  1237    1
  1416  1239  1240    1
  1417   536   535    1
  1418  1297  1276    2
  1419   476   475    1
  1420   428   426    1
  1421   428   427    1
  1422   486   487   ar
  1423  1418  1417    1
  1424   409   407    1
  1425   919   917    1
  1426   475   477    1
  1427   475   473    1
  1428  1407  1406    1
  1429  1407  1412    1
  1430   388   387    1
  1431    65    44    2
  1432   493   491    1
  1433   477   472    1
  1434   426   446    1
  1435   890   891   ar
  1436   903   901    1
  1437   903   898    1
  1438   429   427    1
  1439   429   431    1
  1440   391   389    1
  1441   391   392    1
  1442  1276  1262    1
  1443  1276  1296    1
  1444   539   537    1
  1445   539   540    1
  1446   901   902    1
  1447   901   899    1
  1448   538   537    1
  1449  1417  1416   ar
  1450  1406  1408    1
  1451   556   540    1
  1452   556   574    1
  1453    36    39   ar
  1454    36    35   ar
  1455    44    64    1
  1456    44    27    1
  1457   425   406    2
  1458  1258  1256    1
  1459  1258  1257    1
  1460  1259  1257    1
  1461   408   407    1
  1462   408   406    1
  1463   389   387    1
  1464   389   390    1
  1465    32    33    1
  1466    32    34   ar
  1467   891   880    1
  1468    39    40   ar
  1469   431   432    1
  1470    17    16    2
  1471  1413  1412    1
  1472  1413  1414   ar
  1473   857   852    1
  1474   857   855    1
  1475  1256  1240    1
  1476  1256  1274    1
  1477   537   535    1
  1478   852   851    1
  1479   387   385    1
  1480   849   851    1
  1481   893   871    2
  1482    35    34   ar
  1483    35    41   ar
  1484  1412  1410    1
  1485   899   900    1
  1486   899   897    1
  1487   432   448    1
  1488  1416  1414   ar
  1489   406   390    1
  1490   406   424    1
  1491   473   474    1
  1492   473   471    1
  1493  1408  1409    1
  1494  1408  1410    1
  1495    40    41   ar
  1496   898   897    1
  1497   472   471    1
  1498   917   936    2
  1499   917   900    1
  1500   917   935    1
  1501   853   855    1
  1502   853   851    1
  1503   853   854    1
  1504   491   474    1
  1505   491   513    2
  1506   491   512    1
  1507  1414  1415    2
  1508   855   856    1
  1509    27    26    1
  1510    26    28    1
  1511    26    24    1
  1512    41    30    1
  1513    16    10   ar
  1514    16    15   ar
  1515   880   878    1
  1516   880   875    1
  1517    28    30    1
  1518    28    29    1
  1519   916   894    2
  1520  1410  1411    1
  1521   897   895    1
  1522   471   469    1
  1523   896   894    1
  1524   896   895    1
  1525    10    11   ar
  1526   878   876    1
  1527   878   879    1
  1528    22    24    1
  1529    22    23    1
  1530   871   873    1
  1531   871   854    1
  1532   871   892    1
  1533   873   872    1
  1534    18    15   ar
  1535    18    19   ar
  1536    30    25    1
  1537   875   874    1
  1538    15    14   ar
  1539   448   467    2
  1540   448   466    1
  1541   448   450    1
  1542   876   874    1
  1543   876   877    1
  1544    24    25    1
  1545   894   877    1
  1546   894   915    1
  1547     2     1    1
  1548   450   449    1
  1549   470   469    1
  1550   470   468    1
  1551    23    21    1
  1552   449   451    1
  1553   874   872    1
  1554    11    12    1
  1555    11    13   ar
  1556   490   468    2
  1557    19    20   ar
  1558    14    13   ar
  1559    14    20   ar
  1560     1     3    1
  1561    43    21    2
  1562   453   451    1
  1563   453   455    1
  1564   453   454    1
  1565   468   454    1
  1566   468   489    1
  1567    20     9    1
  1568   451   452    1
  1569    21     6    1
  1570    21    42    1
  1571     5     6    1
  1572     5     3    1
  1573     5     7    1
  1574   455   456    1
  1575   455   457    1
  1576     3     4    1
  1577     4     9    1
  1578     9     7    1
  1579   452   457    1
  1580     7     8    1
  1581   465   464   ar
  1582   465   458   ar
  1583   457   458    1
  1584   464   462   ar
  1585   458   459   ar
  1586   462   461   ar
  1587   462   463    2
  1588   459   461   ar
  1589   459   460    2
