ligand
  PyMOL2.2          3D                             0

 10 11  0  0  0  0  0  0  0  0999 V2000
   12.0080    8.8820   29.7230 N   0  0  0  0  0  0  0  0  0  0  0  0
   11.6610   10.2100   29.9010 C   0  0  0  0  0  0  0  0  0  0  0  0
   11.1950   10.9600   28.8950 N   0  0  0  0  0  0  0  0  0  0  0  0
   11.1070   10.2750   27.7090 C   0  0  0  0  0  0  0  0  0  0  0  0
   11.4360    8.9600   27.4730 C   0  0  0  0  0  0  0  0  0  0  0  0
   11.9320    8.1540   28.5350 C   0  0  0  0  0  0  0  0  0  0  0  0
   12.2820    6.9670   28.5390 O   0  0  0  0  0  0  0  0  0  0  0  0
   11.1950    8.6810   26.1530 N   0  0  0  0  0  0  0  0  0  0  0  0
   10.7240    9.8140   25.5980 C   0  0  0  0  0  0  0  0  0  0  0  0
   10.6590   10.8180   26.5310 N   0  0  0  0  0  0  0  0  0  0  0  0
  1  2  4  0  0  0  0
  1  6  4  0  0  0  0
  2  3  4  0  0  0  0
  3  4  4  0  0  0  0
  4  5  4  0  0  0  0
  4 10  4  0  0  0  0
  5  6  4  0  0  0  0
  5  8  4  0  0  0  0
  6  7  2  0  0  0  0
  8  9  4  0  0  0  0
  9 10  4  0  0  0  0
M  END
$$$$
