ligand
 OpenBabel11021811423D
libRbt.so/2013.1/901 2013/11/27
 10 11  0  0  0  0  0  0  0  0999 V2000
   11.5232    9.3943   29.5377 N   0  0  0  0  0  0  0  0  0  0  0  0
   11.3979   10.7626   29.3712 C   0  0  0  0  0  0  0  0  0  0  0  0
   11.1610   11.3104   28.1731 N   0  0  0  0  0  0  0  0  0  0  0  0
   11.0614   10.3821   27.1671 C   0  0  0  0  0  0  0  0  0  0  0  0
   11.1765    9.0151   27.2723 C   0  0  0  0  0  0  0  0  0  0  0  0
   11.4281    8.4225   28.5409 C   0  0  0  0  0  0  0  0  0  0  0  0
   11.5646    7.2327   28.8524 O   0  0  0  0  0  0  0  0  0  0  0  0
   11.0094    8.4669   26.0274 N   0  0  0  0  0  0  0  0  0  0  0  0
   10.7939    9.4910   25.1797 C   0  0  0  0  0  0  0  0  0  0  0  0
   10.8215   10.6874   25.8509 N   0  0  0  0  0  0  0  0  0  0  0  0
  1  2  1  0  0  0  0
  1  6  1  0  0  0  0
  2  3  2  0  0  0  0
  3  4  1  0  0  0  0
  4  5  2  0  0  0  0
  4 10  1  0  0  0  0
  5  6  1  0  0  0  0
  5  8  1  0  0  0  0
  6  7  2  0  0  0  0
  8  9  1  0  0  0  0
  9 10  2  0  0  0  0
M  END
>  <CHROM.1>
11.20104460,9.47463551,27.62308991,0.07818059,-1.39245260,0.40749690

>  <Name>
ligand

>  <RI>
0

>  <Rbt.Current_Directory>
/home/itssahil/PROJECTS/Mol_Feturizer/New_Systems/rnas/2EET

>  <Rbt.Executable>
rbdock ($Id: //depot/dev/client3/rdock/2013.1/src/exe/rbdock.cxx#4 $)

>  <Rbt.Library>
libRbt.so (2013.1, Build901 2013/11/27)

>  <Rbt.Parameter_File>
/export/apps/rDock/src/rDock_2013.1_src/data/scripts/dock_solv.prm

>  <Rbt.Receptor>
prm/blind_docking_60.prm

>  <SCORE>
-17.995

>  <SCORE.INTER>
-17.995

>  <SCORE.INTER.CONST>
1

>  <SCORE.INTER.POLAR>
0

>  <SCORE.INTER.ROT>
0

>  <SCORE.INTER.SOLV>
4.20836

>  <SCORE.INTER.VDW>
-16.9995

>  <SCORE.INTER.norm>
-1.7995

>  <SCORE.INTRA>
0

>  <SCORE.INTRA.DIHEDRAL>
0

>  <SCORE.INTRA.DIHEDRAL.0>
0

>  <SCORE.INTRA.POLAR>
0

>  <SCORE.INTRA.POLAR.0>
0

>  <SCORE.INTRA.REPUL>
0

>  <SCORE.INTRA.REPUL.0>
0

>  <SCORE.INTRA.SOLV>
0

>  <SCORE.INTRA.SOLV.lig_0>
-4.28464

>  <SCORE.INTRA.VDW>
0

>  <SCORE.INTRA.VDW.0>
0

>  <SCORE.INTRA.norm>
0

>  <SCORE.RESTR>
0

>  <SCORE.RESTR.CAVITY>
0

>  <SCORE.RESTR.norm>
0

>  <SCORE.SYSTEM>
0

>  <SCORE.SYSTEM.CONST>
0

>  <SCORE.SYSTEM.DIHEDRAL>
0

>  <SCORE.SYSTEM.SOLV>
0

>  <SCORE.SYSTEM.norm>
0

>  <SCORE.heavy>
10

>  <SCORE.norm>
-1.7995

>  <RMSD>
0.644

$$$$
ligand
 OpenBabel11021811423D
libRbt.so/2013.1/901 2013/11/27
 10 11  0  0  0  0  0  0  0  0999 V2000
   11.4820    9.4553   29.5647 N   0  0  0  0  0  0  0  0  0  0  0  0
   11.3391   10.8184   29.3720 C   0  0  0  0  0  0  0  0  0  0  0  0
   11.1174   11.3417   28.1601 N   0  0  0  0  0  0  0  0  0  0  0  0
   11.0516   10.3948   27.1688 C   0  0  0  0  0  0  0  0  0  0  0  0
   11.1854    9.0318   27.3001 C   0  0  0  0  0  0  0  0  0  0  0  0
   11.4212    8.4651   28.5834 C   0  0  0  0  0  0  0  0  0  0  0  0
   11.5697    7.2830   28.9182 O   0  0  0  0  0  0  0  0  0  0  0  0
   11.0510    8.4598   26.0619 N   0  0  0  0  0  0  0  0  0  0  0  0
   10.8366    9.4656   25.1925 C   0  0  0  0  0  0  0  0  0  0  0  0
   10.8328   10.6737   25.8430 N   0  0  0  0  0  0  0  0  0  0  0  0
  1  2  1  0  0  0  0
  1  6  1  0  0  0  0
  2  3  2  0  0  0  0
  3  4  1  0  0  0  0
  4  5  2  0  0  0  0
  4 10  1  0  0  0  0
  5  6  1  0  0  0  0
  5  8  1  0  0  0  0
  6  7  2  0  0  0  0
  8  9  1  0  0  0  0
  9 10  2  0  0  0  0
M  END
>  <CHROM.1>
11.19607321,9.49760999,27.64315274,0.20854259,-1.40294725,0.51857035

>  <Name>
ligand

>  <RI>
0

>  <Rbt.Current_Directory>
/home/itssahil/PROJECTS/Mol_Feturizer/New_Systems/rnas/2EET

>  <Rbt.Executable>
rbdock ($Id: //depot/dev/client3/rdock/2013.1/src/exe/rbdock.cxx#4 $)

>  <Rbt.Library>
libRbt.so (2013.1, Build901 2013/11/27)

>  <Rbt.Parameter_File>
/export/apps/rDock/src/rDock_2013.1_src/data/scripts/dock_solv.prm

>  <Rbt.Receptor>
prm/pocket_docking_8.prm

>  <SCORE>
-17.9687

>  <SCORE.INTER>
-17.9687

>  <SCORE.INTER.CONST>
1

>  <SCORE.INTER.POLAR>
0

>  <SCORE.INTER.ROT>
0

>  <SCORE.INTER.SOLV>
4.23358

>  <SCORE.INTER.VDW>
-16.9903

>  <SCORE.INTER.norm>
-1.79687

>  <SCORE.INTRA>
0

>  <SCORE.INTRA.DIHEDRAL>
0

>  <SCORE.INTRA.DIHEDRAL.0>
0

>  <SCORE.INTRA.POLAR>
0

>  <SCORE.INTRA.POLAR.0>
0

>  <SCORE.INTRA.REPUL>
0

>  <SCORE.INTRA.REPUL.0>
0

>  <SCORE.INTRA.SOLV>
0

>  <SCORE.INTRA.SOLV.lig_0>
-4.28464

>  <SCORE.INTRA.VDW>
0

>  <SCORE.INTRA.VDW.0>
0

>  <SCORE.INTRA.norm>
0

>  <SCORE.RESTR>
0

>  <SCORE.RESTR.CAVITY>
0

>  <SCORE.RESTR.norm>
0

>  <SCORE.SYSTEM>
0

>  <SCORE.SYSTEM.CONST>
0

>  <SCORE.SYSTEM.DIHEDRAL>
0

>  <SCORE.SYSTEM.SOLV>
0

>  <SCORE.SYSTEM.norm>
0

>  <SCORE.heavy>
10

>  <SCORE.norm>
-1.79687

>  <RMSD>
0.670

$$$$
ligand
 OpenBabel11021811423D
libRbt.so/2013.1/901 2013/11/27
 10 11  0  0  0  0  0  0  0  0999 V2000
   11.5341    9.4261   29.4815 N   0  0  0  0  0  0  0  0  0  0  0  0
   11.3908   10.7931   29.3182 C   0  0  0  0  0  0  0  0  0  0  0  0
   11.1460   11.3404   28.1215 N   0  0  0  0  0  0  0  0  0  0  0  0
   11.0580   10.4132   27.1135 C   0  0  0  0  0  0  0  0  0  0  0  0
   11.1910    9.0475   27.2155 C   0  0  0  0  0  0  0  0  0  0  0  0
   11.4511    8.4555   28.4825 C   0  0  0  0  0  0  0  0  0  0  0  0
   11.6033    7.2668   28.7912 O   0  0  0  0  0  0  0  0  0  0  0  0
   11.0303    8.5001   25.9693 N   0  0  0  0  0  0  0  0  0  0  0  0
   10.8010    9.5232   25.1242 C   0  0  0  0  0  0  0  0  0  0  0  0
   10.8133   10.7183   25.7981 N   0  0  0  0  0  0  0  0  0  0  0  0
  1  2  1  0  0  0  0
  1  6  1  0  0  0  0
  2  3  2  0  0  0  0
  3  4  1  0  0  0  0
  4  5  2  0  0  0  0
  4 10  1  0  0  0  0
  5  6  1  0  0  0  0
  5  8  1  0  0  0  0
  6  7  2  0  0  0  0
  8  9  1  0  0  0  0
  9 10  2  0  0  0  0
M  END
>  <CHROM.1>
11.20973135,9.50658553,27.56724316,0.14237579,-1.38635205,0.47292963

>  <Name>
ligand

>  <RI>
0

>  <Rbt.Current_Directory>
/home/itssahil/PROJECTS/Mol_Feturizer/New_Systems/rnas/2EET

>  <Rbt.Executable>
rbdock ($Id: //depot/dev/client3/rdock/2013.1/src/exe/rbdock.cxx#4 $)

>  <Rbt.Library>
libRbt.so (2013.1, Build901 2013/11/27)

>  <Rbt.Parameter_File>
/export/apps/rDock/src/rDock_2013.1_src/data/scripts/dock_solv.prm

>  <Rbt.Receptor>
prm/pocket_docking_6.prm

>  <SCORE>
-18.0088

>  <SCORE.INTER>
-18.0088

>  <SCORE.INTER.CONST>
1

>  <SCORE.INTER.POLAR>
0

>  <SCORE.INTER.ROT>
0

>  <SCORE.INTER.SOLV>
4.10947

>  <SCORE.INTER.VDW>
-16.9757

>  <SCORE.INTER.norm>
-1.80088

>  <SCORE.INTRA>
0

>  <SCORE.INTRA.DIHEDRAL>
0

>  <SCORE.INTRA.DIHEDRAL.0>
0

>  <SCORE.INTRA.POLAR>
0

>  <SCORE.INTRA.POLAR.0>
0

>  <SCORE.INTRA.REPUL>
0

>  <SCORE.INTRA.REPUL.0>
0

>  <SCORE.INTRA.SOLV>
0

>  <SCORE.INTRA.SOLV.lig_0>
-4.28464

>  <SCORE.INTRA.VDW>
0

>  <SCORE.INTRA.VDW.0>
0

>  <SCORE.INTRA.norm>
0

>  <SCORE.RESTR>
0

>  <SCORE.RESTR.CAVITY>
0

>  <SCORE.RESTR.norm>
0

>  <SCORE.SYSTEM>
0

>  <SCORE.SYSTEM.CONST>
0

>  <SCORE.SYSTEM.DIHEDRAL>
0

>  <SCORE.SYSTEM.SOLV>
0

>  <SCORE.SYSTEM.norm>
0

>  <SCORE.heavy>
10

>  <SCORE.norm>
-1.80088

>  <RMSD>
0.671

$$$$
ligand
 OpenBabel11021811423D
libRbt.so/2013.1/901 2013/11/27
 10 11  0  0  0  0  0  0  0  0999 V2000
   11.5073    9.4703   29.5435 N   0  0  0  0  0  0  0  0  0  0  0  0
   11.3572   10.8335   29.3563 C   0  0  0  0  0  0  0  0  0  0  0  0
   11.1295   11.3603   28.1471 N   0  0  0  0  0  0  0  0  0  0  0  0
   11.0657   10.4169   27.1524 C   0  0  0  0  0  0  0  0  0  0  0  0
   11.2066    9.0540   27.2781 C   0  0  0  0  0  0  0  0  0  0  0  0
   11.4487    8.4836   28.5586 C   0  0  0  0  0  0  0  0  0  0  0  0
   11.6040    7.3010   28.8885 O   0  0  0  0  0  0  0  0  0  0  0  0
   11.0716    8.4860   26.0381 N   0  0  0  0  0  0  0  0  0  0  0  0
   10.8498    9.4941   25.1731 C   0  0  0  0  0  0  0  0  0  0  0  0
   10.8419   10.6997   25.8283 N   0  0  0  0  0  0  0  0  0  0  0  0
  1  2  1  0  0  0  0
  1  6  1  0  0  0  0
  2  3  2  0  0  0  0
  3  4  1  0  0  0  0
  4  5  2  0  0  0  0
  4 10  1  0  0  0  0
  5  6  1  0  0  0  0
  5  8  1  0  0  0  0
  6  7  2  0  0  0  0
  8  9  1  0  0  0  0
  9 10  2  0  0  0  0
M  END
>  <CHROM.1>
11.21589569,9.51856580,27.62288827,0.22565335,-1.39808966,0.53924457

>  <Name>
ligand

>  <RI>
0

>  <Rbt.Current_Directory>
/home/itssahil/PROJECTS/Mol_Feturizer/New_Systems/rnas/2EET

>  <Rbt.Executable>
rbdock ($Id: //depot/dev/client3/rdock/2013.1/src/exe/rbdock.cxx#4 $)

>  <Rbt.Library>
libRbt.so (2013.1, Build901 2013/11/27)

>  <Rbt.Parameter_File>
/export/apps/rDock/src/rDock_2013.1_src/data/scripts/dock_solv.prm

>  <Rbt.Receptor>
prm/pocket_docking_6.prm

>  <SCORE>
-17.9694

>  <SCORE.INTER>
-17.9694

>  <SCORE.INTER.CONST>
1

>  <SCORE.INTER.POLAR>
0

>  <SCORE.INTER.ROT>
0

>  <SCORE.INTER.SOLV>
4.17143

>  <SCORE.INTER.VDW>
-16.9701

>  <SCORE.INTER.norm>
-1.79694

>  <SCORE.INTRA>
0

>  <SCORE.INTRA.DIHEDRAL>
0

>  <SCORE.INTRA.DIHEDRAL.0>
0

>  <SCORE.INTRA.POLAR>
0

>  <SCORE.INTRA.POLAR.0>
0

>  <SCORE.INTRA.REPUL>
0

>  <SCORE.INTRA.REPUL.0>
0

>  <SCORE.INTRA.SOLV>
0

>  <SCORE.INTRA.SOLV.lig_0>
-4.28464

>  <SCORE.INTRA.VDW>
0

>  <SCORE.INTRA.VDW.0>
0

>  <SCORE.INTRA.norm>
0

>  <SCORE.RESTR>
0

>  <SCORE.RESTR.CAVITY>
0

>  <SCORE.RESTR.norm>
0

>  <SCORE.SYSTEM>
0

>  <SCORE.SYSTEM.CONST>
0

>  <SCORE.SYSTEM.DIHEDRAL>
0

>  <SCORE.SYSTEM.SOLV>
0

>  <SCORE.SYSTEM.norm>
0

>  <SCORE.heavy>
10

>  <SCORE.norm>
-1.79694

>  <RMSD>
0.671

$$$$
ligand
 OpenBabel11021811423D
libRbt.so/2013.1/901 2013/11/27
 10 11  0  0  0  0  0  0  0  0999 V2000
   11.5548    9.4507   29.4893 N   0  0  0  0  0  0  0  0  0  0  0  0
   11.4013   10.8153   29.3164 C   0  0  0  0  0  0  0  0  0  0  0  0
   11.1421   11.3514   28.1176 N   0  0  0  0  0  0  0  0  0  0  0  0
   11.0507   10.4155   27.1179 C   0  0  0  0  0  0  0  0  0  0  0  0
   11.1933    9.0515   27.2297 C   0  0  0  0  0  0  0  0  0  0  0  0
   11.4688    8.4714   28.4990 C   0  0  0  0  0  0  0  0  0  0  0  0
   11.6314    7.2862   28.8158 O   0  0  0  0  0  0  0  0  0  0  0  0
   11.0247    8.4930   25.9895 N   0  0  0  0  0  0  0  0  0  0  0  0
   10.7811    9.5077   25.1383 C   0  0  0  0  0  0  0  0  0  0  0  0
   10.7920   10.7084   25.8024 N   0  0  0  0  0  0  0  0  0  0  0  0
  1  2  1  0  0  0  0
  1  6  1  0  0  0  0
  2  3  2  0  0  0  0
  3  4  1  0  0  0  0
  4  5  2  0  0  0  0
  4 10  1  0  0  0  0
  5  6  1  0  0  0  0
  5  8  1  0  0  0  0
  6  7  2  0  0  0  0
  8  9  1  0  0  0  0
  9 10  2  0  0  0  0
M  END
>  <CHROM.1>
11.21233492,9.51353842,27.57755811,0.15000553,-1.37527238,0.47233270

>  <Name>
ligand

>  <RI>
0

>  <Rbt.Current_Directory>
/home/itssahil/PROJECTS/Mol_Feturizer/New_Systems/rnas/2EET

>  <Rbt.Executable>
rbdock ($Id: //depot/dev/client3/rdock/2013.1/src/exe/rbdock.cxx#4 $)

>  <Rbt.Library>
libRbt.so (2013.1, Build901 2013/11/27)

>  <Rbt.Parameter_File>
/export/apps/rDock/src/rDock_2013.1_src/data/scripts/dock_solv.prm

>  <Rbt.Receptor>
prm/pocket_docking_7.prm

>  <SCORE>
-18.0238

>  <SCORE.INTER>
-18.0238

>  <SCORE.INTER.CONST>
1

>  <SCORE.INTER.POLAR>
0

>  <SCORE.INTER.ROT>
0

>  <SCORE.INTER.SOLV>
4.08367

>  <SCORE.INTER.VDW>
-16.9771

>  <SCORE.INTER.norm>
-1.80238

>  <SCORE.INTRA>
0

>  <SCORE.INTRA.DIHEDRAL>
0

>  <SCORE.INTRA.DIHEDRAL.0>
0

>  <SCORE.INTRA.POLAR>
0

>  <SCORE.INTRA.POLAR.0>
0

>  <SCORE.INTRA.REPUL>
0

>  <SCORE.INTRA.REPUL.0>
0

>  <SCORE.INTRA.SOLV>
0

>  <SCORE.INTRA.SOLV.lig_0>
-4.28464

>  <SCORE.INTRA.VDW>
0

>  <SCORE.INTRA.VDW.0>
0

>  <SCORE.INTRA.norm>
0

>  <SCORE.RESTR>
0

>  <SCORE.RESTR.CAVITY>
0

>  <SCORE.RESTR.norm>
0

>  <SCORE.SYSTEM>
0

>  <SCORE.SYSTEM.CONST>
0

>  <SCORE.SYSTEM.DIHEDRAL>
0

>  <SCORE.SYSTEM.SOLV>
0

>  <SCORE.SYSTEM.norm>
0

>  <SCORE.heavy>
10

>  <SCORE.norm>
-1.80238

>  <RMSD>
0.671

$$$$
ligand
 OpenBabel11021811423D
libRbt.so/2013.1/901 2013/11/27
 10 11  0  0  0  0  0  0  0  0999 V2000
   11.5177    9.4354   29.4948 N   0  0  0  0  0  0  0  0  0  0  0  0
   11.3771   10.8024   29.3296 C   0  0  0  0  0  0  0  0  0  0  0  0
   11.1408   11.3491   28.1308 N   0  0  0  0  0  0  0  0  0  0  0  0
   11.0582   10.4212   27.1230 C   0  0  0  0  0  0  0  0  0  0  0  0
   11.1889    9.0555   27.2269 C   0  0  0  0  0  0  0  0  0  0  0  0
   11.4400    8.4641   28.4960 C   0  0  0  0  0  0  0  0  0  0  0  0
   11.5888    7.2754   28.8066 O   0  0  0  0  0  0  0  0  0  0  0  0
   11.0357    8.5073   25.9801 N   0  0  0  0  0  0  0  0  0  0  0  0
   10.8131    9.5300   25.1327 C   0  0  0  0  0  0  0  0  0  0  0  0
   10.8224   10.7257   25.8058 N   0  0  0  0  0  0  0  0  0  0  0  0
  1  2  1  0  0  0  0
  1  6  1  0  0  0  0
  2  3  2  0  0  0  0
  3  4  1  0  0  0  0
  4  5  2  0  0  0  0
  4 10  1  0  0  0  0
  5  6  1  0  0  0  0
  5  8  1  0  0  0  0
  6  7  2  0  0  0  0
  8  9  1  0  0  0  0
  9 10  2  0  0  0  0
M  END
>  <CHROM.1>
11.20587405,9.51477680,27.57842534,0.15306975,-1.39268276,0.48268859

>  <Name>
ligand

>  <RI>
0

>  <Rbt.Current_Directory>
/home/itssahil/PROJECTS/Mol_Feturizer/New_Systems/rnas/2EET

>  <Rbt.Executable>
rbdock ($Id: //depot/dev/client3/rdock/2013.1/src/exe/rbdock.cxx#4 $)

>  <Rbt.Library>
libRbt.so (2013.1, Build901 2013/11/27)

>  <Rbt.Parameter_File>
/export/apps/rDock/src/rDock_2013.1_src/data/scripts/dock_solv.prm

>  <Rbt.Receptor>
prm/blind_docking_40.prm

>  <SCORE>
-18.007

>  <SCORE.INTER>
-18.007

>  <SCORE.INTER.CONST>
1

>  <SCORE.INTER.POLAR>
0

>  <SCORE.INTER.ROT>
0

>  <SCORE.INTER.SOLV>
4.13983

>  <SCORE.INTER.VDW>
-16.9846

>  <SCORE.INTER.norm>
-1.8007

>  <SCORE.INTRA>
0

>  <SCORE.INTRA.DIHEDRAL>
0

>  <SCORE.INTRA.DIHEDRAL.0>
0

>  <SCORE.INTRA.POLAR>
0

>  <SCORE.INTRA.POLAR.0>
0

>  <SCORE.INTRA.REPUL>
0

>  <SCORE.INTRA.REPUL.0>
0

>  <SCORE.INTRA.SOLV>
0

>  <SCORE.INTRA.SOLV.lig_0>
-4.28464

>  <SCORE.INTRA.VDW>
0

>  <SCORE.INTRA.VDW.0>
0

>  <SCORE.INTRA.norm>
0

>  <SCORE.RESTR>
0

>  <SCORE.RESTR.CAVITY>
0

>  <SCORE.RESTR.norm>
0

>  <SCORE.SYSTEM>
0

>  <SCORE.SYSTEM.CONST>
0

>  <SCORE.SYSTEM.DIHEDRAL>
0

>  <SCORE.SYSTEM.SOLV>
0

>  <SCORE.SYSTEM.norm>
0

>  <SCORE.heavy>
10

>  <SCORE.norm>
-1.8007

>  <RMSD>
0.673

$$$$
ligand
 OpenBabel11021811423D
libRbt.so/2013.1/901 2013/11/27
 10 11  0  0  0  0  0  0  0  0999 V2000
   11.5479    9.4533   29.4770 N   0  0  0  0  0  0  0  0  0  0  0  0
   11.3928   10.8170   29.2987 C   0  0  0  0  0  0  0  0  0  0  0  0
   11.1429   11.3490   28.0961 N   0  0  0  0  0  0  0  0  0  0  0  0
   11.0624   10.4100   27.0985 C   0  0  0  0  0  0  0  0  0  0  0  0
   11.2072    9.0467   27.2155 C   0  0  0  0  0  0  0  0  0  0  0  0
   11.4728    8.4709   28.4888 C   0  0  0  0  0  0  0  0  0  0  0  0
   11.6354    7.2871   28.8106 O   0  0  0  0  0  0  0  0  0  0  0  0
   11.0508    8.4842   25.9756 N   0  0  0  0  0  0  0  0  0  0  0  0
   10.8123    9.4959   25.1192 C   0  0  0  0  0  0  0  0  0  0  0  0
   10.8147   10.6985   25.7799 N   0  0  0  0  0  0  0  0  0  0  0  0
  1  2  1  0  0  0  0
  1  6  1  0  0  0  0
  2  3  2  0  0  0  0
  3  4  1  0  0  0  0
  4  5  2  0  0  0  0
  4 10  1  0  0  0  0
  5  6  1  0  0  0  0
  5  8  1  0  0  0  0
  6  7  2  0  0  0  0
  8  9  1  0  0  0  0
  9 10  2  0  0  0  0
M  END
>  <CHROM.1>
11.22213128,9.50978114,27.56215925,0.18213483,-1.38196428,0.50094105

>  <Name>
ligand

>  <RI>
0

>  <Rbt.Current_Directory>
/home/itssahil/PROJECTS/Mol_Feturizer/New_Systems/rnas/2EET

>  <Rbt.Executable>
rbdock ($Id: //depot/dev/client3/rdock/2013.1/src/exe/rbdock.cxx#4 $)

>  <Rbt.Library>
libRbt.so (2013.1, Build901 2013/11/27)

>  <Rbt.Parameter_File>
/export/apps/rDock/src/rDock_2013.1_src/data/scripts/dock_solv.prm

>  <Rbt.Receptor>
prm/pocket_docking_5.prm

>  <SCORE>
-18.0089

>  <SCORE.INTER>
-18.0089

>  <SCORE.INTER.CONST>
1

>  <SCORE.INTER.POLAR>
0

>  <SCORE.INTER.ROT>
0

>  <SCORE.INTER.SOLV>
4.07547

>  <SCORE.INTER.VDW>
-16.9644

>  <SCORE.INTER.norm>
-1.80089

>  <SCORE.INTRA>
0

>  <SCORE.INTRA.DIHEDRAL>
0

>  <SCORE.INTRA.DIHEDRAL.0>
0

>  <SCORE.INTRA.POLAR>
0

>  <SCORE.INTRA.POLAR.0>
0

>  <SCORE.INTRA.REPUL>
0

>  <SCORE.INTRA.REPUL.0>
0

>  <SCORE.INTRA.SOLV>
0

>  <SCORE.INTRA.SOLV.lig_0>
-4.28464

>  <SCORE.INTRA.VDW>
0

>  <SCORE.INTRA.VDW.0>
0

>  <SCORE.INTRA.norm>
0

>  <SCORE.RESTR>
0

>  <SCORE.RESTR.CAVITY>
0

>  <SCORE.RESTR.norm>
0

>  <SCORE.SYSTEM>
0

>  <SCORE.SYSTEM.CONST>
0

>  <SCORE.SYSTEM.DIHEDRAL>
0

>  <SCORE.SYSTEM.SOLV>
0

>  <SCORE.SYSTEM.norm>
0

>  <SCORE.heavy>
10

>  <SCORE.norm>
-1.80089

>  <RMSD>
0.682

$$$$
ligand
 OpenBabel11021811423D
libRbt.so/2013.1/901 2013/11/27
 10 11  0  0  0  0  0  0  0  0999 V2000
   11.5493    9.4594   29.4812 N   0  0  0  0  0  0  0  0  0  0  0  0
   11.3976   10.8233   29.3012 C   0  0  0  0  0  0  0  0  0  0  0  0
   11.1461   11.3541   28.0984 N   0  0  0  0  0  0  0  0  0  0  0  0
   11.0604   10.4138   27.1024 C   0  0  0  0  0  0  0  0  0  0  0  0
   11.2015    9.0503   27.2212 C   0  0  0  0  0  0  0  0  0  0  0  0
   11.4688    8.4757   28.4948 C   0  0  0  0  0  0  0  0  0  0  0  0
   11.6289    7.2919   28.8180 O   0  0  0  0  0  0  0  0  0  0  0  0
   11.0403    8.4863   25.9826 N   0  0  0  0  0  0  0  0  0  0  0  0
   10.8025    9.4973   25.1253 C   0  0  0  0  0  0  0  0  0  0  0  0
   10.8100   10.7009   25.7841 N   0  0  0  0  0  0  0  0  0  0  0  0
  1  2  1  0  0  0  0
  1  6  1  0  0  0  0
  2  3  2  0  0  0  0
  3  4  1  0  0  0  0
  4  5  2  0  0  0  0
  4 10  1  0  0  0  0
  5  6  1  0  0  0  0
  5  8  1  0  0  0  0
  6  7  2  0  0  0  0
  8  9  1  0  0  0  0
  9 10  2  0  0  0  0
M  END
>  <CHROM.1>
11.21869336,9.51383509,27.56713432,0.16226720,-1.38100873,0.47987450

>  <Name>
ligand

>  <RI>
0

>  <Rbt.Current_Directory>
/home/itssahil/PROJECTS/Mol_Feturizer/New_Systems/rnas/2EET

>  <Rbt.Executable>
rbdock ($Id: //depot/dev/client3/rdock/2013.1/src/exe/rbdock.cxx#4 $)

>  <Rbt.Library>
libRbt.so (2013.1, Build901 2013/11/27)

>  <Rbt.Parameter_File>
/export/apps/rDock/src/rDock_2013.1_src/data/scripts/dock_solv.prm

>  <Rbt.Receptor>
prm/blind_docking_80.prm

>  <SCORE>
-18.0505

>  <SCORE.INTER>
-18.054

>  <SCORE.INTER.CONST>
1

>  <SCORE.INTER.POLAR>
0

>  <SCORE.INTER.ROT>
0

>  <SCORE.INTER.SOLV>
4.08814

>  <SCORE.INTER.VDW>
-16.9987

>  <SCORE.INTER.norm>
-1.8054

>  <SCORE.INTRA>
0

>  <SCORE.INTRA.DIHEDRAL>
0

>  <SCORE.INTRA.DIHEDRAL.0>
0

>  <SCORE.INTRA.POLAR>
0

>  <SCORE.INTRA.POLAR.0>
0

>  <SCORE.INTRA.REPUL>
0

>  <SCORE.INTRA.REPUL.0>
0

>  <SCORE.INTRA.SOLV>
0

>  <SCORE.INTRA.SOLV.lig_0>
-4.28464

>  <SCORE.INTRA.VDW>
0

>  <SCORE.INTRA.VDW.0>
0

>  <SCORE.INTRA.norm>
0

>  <SCORE.RESTR>
0.00348263

>  <SCORE.RESTR.CAVITY>
0.00348263

>  <SCORE.RESTR.norm>
0.000348263

>  <SCORE.SYSTEM>
0

>  <SCORE.SYSTEM.CONST>
0

>  <SCORE.SYSTEM.DIHEDRAL>
0

>  <SCORE.SYSTEM.SOLV>
0

>  <SCORE.SYSTEM.norm>
0

>  <SCORE.heavy>
10

>  <SCORE.norm>
-1.80505

>  <RMSD>
0.683

$$$$
ligand
 OpenBabel11021811423D
libRbt.so/2013.1/901 2013/11/27
 10 11  0  0  0  0  0  0  0  0999 V2000
   11.5486    9.4633   29.4817 N   0  0  0  0  0  0  0  0  0  0  0  0
   11.3950   10.8268   29.3003 C   0  0  0  0  0  0  0  0  0  0  0  0
   11.1418   11.3560   28.0972 N   0  0  0  0  0  0  0  0  0  0  0  0
   11.0564   10.4144   27.1023 C   0  0  0  0  0  0  0  0  0  0  0  0
   11.1995    9.0512   27.2225 C   0  0  0  0  0  0  0  0  0  0  0  0
   11.4686    8.4784   28.4965 C   0  0  0  0  0  0  0  0  0  0  0  0
   11.6305    7.2952   28.8209 O   0  0  0  0  0  0  0  0  0  0  0  0
   11.0379    8.4856   25.9846 N   0  0  0  0  0  0  0  0  0  0  0  0
   10.7981    9.4953   25.1264 C   0  0  0  0  0  0  0  0  0  0  0  0
   10.8046   10.6997   25.7838 N   0  0  0  0  0  0  0  0  0  0  0  0
  1  2  1  0  0  0  0
  1  6  1  0  0  0  0
  2  3  2  0  0  0  0
  3  4  1  0  0  0  0
  4  5  2  0  0  0  0
  4 10  1  0  0  0  0
  5  6  1  0  0  0  0
  5  8  1  0  0  0  0
  6  7  2  0  0  0  0
  8  9  1  0  0  0  0
  9 10  2  0  0  0  0
M  END
>  <CHROM.1>
11.21633300,9.51517531,27.56789017,0.16639083,-1.37965758,0.48280376

>  <Name>
ligand

>  <RI>
0

>  <Rbt.Current_Directory>
/home/itssahil/PROJECTS/Mol_Feturizer/New_Systems/rnas/2EET

>  <Rbt.Executable>
rbdock ($Id: //depot/dev/client3/rdock/2013.1/src/exe/rbdock.cxx#4 $)

>  <Rbt.Library>
libRbt.so (2013.1, Build901 2013/11/27)

>  <Rbt.Parameter_File>
/export/apps/rDock/src/rDock_2013.1_src/data/scripts/dock_solv.prm

>  <Rbt.Receptor>
prm/blind_docking_80.prm

>  <SCORE>
-18.0485

>  <SCORE.INTER>
-18.0494

>  <SCORE.INTER.CONST>
1

>  <SCORE.INTER.POLAR>
0

>  <SCORE.INTER.ROT>
0

>  <SCORE.INTER.SOLV>
4.08616

>  <SCORE.INTER.VDW>
-16.995

>  <SCORE.INTER.norm>
-1.80494

>  <SCORE.INTRA>
0

>  <SCORE.INTRA.DIHEDRAL>
0

>  <SCORE.INTRA.DIHEDRAL.0>
0

>  <SCORE.INTRA.POLAR>
0

>  <SCORE.INTRA.POLAR.0>
0

>  <SCORE.INTRA.REPUL>
0

>  <SCORE.INTRA.REPUL.0>
0

>  <SCORE.INTRA.SOLV>
0

>  <SCORE.INTRA.SOLV.lig_0>
-4.28464

>  <SCORE.INTRA.VDW>
0

>  <SCORE.INTRA.VDW.0>
0

>  <SCORE.INTRA.norm>
0

>  <SCORE.RESTR>
0.000928501

>  <SCORE.RESTR.CAVITY>
0.000928501

>  <SCORE.RESTR.norm>
9.28501e-05

>  <SCORE.SYSTEM>
0

>  <SCORE.SYSTEM.CONST>
0

>  <SCORE.SYSTEM.DIHEDRAL>
0

>  <SCORE.SYSTEM.SOLV>
0

>  <SCORE.SYSTEM.norm>
0

>  <SCORE.heavy>
10

>  <SCORE.norm>
-1.80485

>  <RMSD>
0.684

$$$$
ligand
 OpenBabel11021811423D
libRbt.so/2013.1/901 2013/11/27
 10 11  0  0  0  0  0  0  0  0999 V2000
   11.5416    9.4601   29.4742 N   0  0  0  0  0  0  0  0  0  0  0  0
   11.3885   10.8243   29.2977 C   0  0  0  0  0  0  0  0  0  0  0  0
   11.1394   11.3583   28.0958 N   0  0  0  0  0  0  0  0  0  0  0  0
   11.0575   10.4207   27.0969 C   0  0  0  0  0  0  0  0  0  0  0  0
   11.2003    9.0571   27.2121 C   0  0  0  0  0  0  0  0  0  0  0  0
   11.4651    8.4792   28.4847 C   0  0  0  0  0  0  0  0  0  0  0  0
   11.6260    7.2947   28.8049 O   0  0  0  0  0  0  0  0  0  0  0  0
   11.0430    8.4964   25.9714 N   0  0  0  0  0  0  0  0  0  0  0  0
   10.8060    9.5096   25.1165 C   0  0  0  0  0  0  0  0  0  0  0  0
   10.8101   10.7113   25.7787 N   0  0  0  0  0  0  0  0  0  0  0  0
  1  2  1  0  0  0  0
  1  6  1  0  0  0  0
  2  3  2  0  0  0  0
  3  4  1  0  0  0  0
  4  5  2  0  0  0  0
  4 10  1  0  0  0  0
  5  6  1  0  0  0  0
  5  8  1  0  0  0  0
  6  7  2  0  0  0  0
  8  9  1  0  0  0  0
  9 10  2  0  0  0  0
M  END
>  <CHROM.1>
11.21590609,9.51964234,27.55941233,0.17525975,-1.38263547,0.49552647

>  <Name>
ligand

>  <RI>
0

>  <Rbt.Current_Directory>
/home/itssahil/PROJECTS/Mol_Feturizer/New_Systems/rnas/2EET

>  <Rbt.Executable>
rbdock ($Id: //depot/dev/client3/rdock/2013.1/src/exe/rbdock.cxx#4 $)

>  <Rbt.Library>
libRbt.so (2013.1, Build901 2013/11/27)

>  <Rbt.Parameter_File>
/export/apps/rDock/src/rDock_2013.1_src/data/scripts/dock_solv.prm

>  <Rbt.Receptor>
prm/pocket_docking_5.prm

>  <SCORE>
-18.0145

>  <SCORE.INTER>
-18.0145

>  <SCORE.INTER.CONST>
1

>  <SCORE.INTER.POLAR>
0

>  <SCORE.INTER.ROT>
0

>  <SCORE.INTER.SOLV>
4.08164

>  <SCORE.INTER.VDW>
-16.9702

>  <SCORE.INTER.norm>
-1.80145

>  <SCORE.INTRA>
0

>  <SCORE.INTRA.DIHEDRAL>
0

>  <SCORE.INTRA.DIHEDRAL.0>
0

>  <SCORE.INTRA.POLAR>
0

>  <SCORE.INTRA.POLAR.0>
0

>  <SCORE.INTRA.REPUL>
0

>  <SCORE.INTRA.REPUL.0>
0

>  <SCORE.INTRA.SOLV>
0

>  <SCORE.INTRA.SOLV.lig_0>
-4.28464

>  <SCORE.INTRA.VDW>
0

>  <SCORE.INTRA.VDW.0>
0

>  <SCORE.INTRA.norm>
0

>  <SCORE.RESTR>
0

>  <SCORE.RESTR.CAVITY>
0

>  <SCORE.RESTR.norm>
0

>  <SCORE.SYSTEM>
0

>  <SCORE.SYSTEM.CONST>
0

>  <SCORE.SYSTEM.DIHEDRAL>
0

>  <SCORE.SYSTEM.SOLV>
0

>  <SCORE.SYSTEM.norm>
0

>  <SCORE.heavy>
10

>  <SCORE.norm>
-1.80145

>  <RMSD>
0.687

$$$$
ligand
 OpenBabel11021811423D
libRbt.so/2013.1/901 2013/11/27
 10 11  0  0  0  0  0  0  0  0999 V2000
   11.4928    9.4645   29.5401 N   0  0  0  0  0  0  0  0  0  0  0  0
   11.3709   10.8282   29.3374 C   0  0  0  0  0  0  0  0  0  0  0  0
   11.1442   11.3453   28.1238 N   0  0  0  0  0  0  0  0  0  0  0  0
   11.0509   10.3915   27.1413 C   0  0  0  0  0  0  0  0  0  0  0  0
   11.1630    9.0275   27.2826 C   0  0  0  0  0  0  0  0  0  0  0  0
   11.4038    8.4675   28.5679 C   0  0  0  0  0  0  0  0  0  0  0  0
   11.5360    7.2858   28.9110 O   0  0  0  0  0  0  0  0  0  0  0  0
   11.0046    8.4477   26.0509 N   0  0  0  0  0  0  0  0  0  0  0  0
   10.7974    9.4498   25.1755 C   0  0  0  0  0  0  0  0  0  0  0  0
   10.8217   10.6631   25.8158 N   0  0  0  0  0  0  0  0  0  0  0  0
  1  2  1  0  0  0  0
  1  6  1  0  0  0  0
  2  3  2  0  0  0  0
  3  4  1  0  0  0  0
  4  5  2  0  0  0  0
  4 10  1  0  0  0  0
  5  6  1  0  0  0  0
  5  8  1  0  0  0  0
  6  7  2  0  0  0  0
  8  9  1  0  0  0  0
  9 10  2  0  0  0  0
M  END
>  <CHROM.1>
11.18553037,9.49589309,27.62157972,0.08763604,-1.40018743,0.39104208

>  <Name>
ligand

>  <RI>
0

>  <Rbt.Current_Directory>
/home/itssahil/PROJECTS/Mol_Feturizer/New_Systems/rnas/2EET

>  <Rbt.Executable>
rbdock ($Id: //depot/dev/client3/rdock/2013.1/src/exe/rbdock.cxx#4 $)

>  <Rbt.Library>
libRbt.so (2013.1, Build901 2013/11/27)

>  <Rbt.Parameter_File>
/export/apps/rDock/src/rDock_2013.1_src/data/scripts/dock_solv.prm

>  <Rbt.Receptor>
prm/blind_docking_40.prm

>  <SCORE>
-18.0206

>  <SCORE.INTER>
-18.0206

>  <SCORE.INTER.CONST>
1

>  <SCORE.INTER.POLAR>
0

>  <SCORE.INTER.ROT>
0

>  <SCORE.INTER.SOLV>
4.26323

>  <SCORE.INTER.VDW>
-17.0348

>  <SCORE.INTER.norm>
-1.80206

>  <SCORE.INTRA>
0

>  <SCORE.INTRA.DIHEDRAL>
0

>  <SCORE.INTRA.DIHEDRAL.0>
0

>  <SCORE.INTRA.POLAR>
0

>  <SCORE.INTRA.POLAR.0>
0

>  <SCORE.INTRA.REPUL>
0

>  <SCORE.INTRA.REPUL.0>
0

>  <SCORE.INTRA.SOLV>
0

>  <SCORE.INTRA.SOLV.lig_0>
-4.28464

>  <SCORE.INTRA.VDW>
0

>  <SCORE.INTRA.VDW.0>
0

>  <SCORE.INTRA.norm>
0

>  <SCORE.RESTR>
0

>  <SCORE.RESTR.CAVITY>
0

>  <SCORE.RESTR.norm>
0

>  <SCORE.SYSTEM>
0

>  <SCORE.SYSTEM.CONST>
0

>  <SCORE.SYSTEM.DIHEDRAL>
0

>  <SCORE.SYSTEM.SOLV>
0

>  <SCORE.SYSTEM.norm>
0

>  <SCORE.heavy>
10

>  <SCORE.norm>
-1.80206

>  <RMSD>
0.691

$$$$
ligand
 OpenBabel11021811423D
libRbt.so/2013.1/901 2013/11/27
 10 11  0  0  0  0  0  0  0  0999 V2000
   11.5240    9.4641   29.4861 N   0  0  0  0  0  0  0  0  0  0  0  0
   11.3839   10.8286   29.3015 C   0  0  0  0  0  0  0  0  0  0  0  0
   11.1400   11.3577   28.0964 N   0  0  0  0  0  0  0  0  0  0  0  0
   11.0494   10.4151   27.1030 C   0  0  0  0  0  0  0  0  0  0  0  0
   11.1792    9.0508   27.2264 C   0  0  0  0  0  0  0  0  0  0  0  0
   11.4383    8.4781   28.5024 C   0  0  0  0  0  0  0  0  0  0  0  0
   11.5879    7.2940   28.8297 O   0  0  0  0  0  0  0  0  0  0  0  0
   11.0167    8.4843   25.9891 N   0  0  0  0  0  0  0  0  0  0  0  0
   10.7895    9.4945   25.1280 C   0  0  0  0  0  0  0  0  0  0  0  0
   10.8049   10.7001   25.7831 N   0  0  0  0  0  0  0  0  0  0  0  0
  1  2  1  0  0  0  0
  1  6  1  0  0  0  0
  2  3  2  0  0  0  0
  3  4  1  0  0  0  0
  4  5  2  0  0  0  0
  4 10  1  0  0  0  0
  5  6  1  0  0  0  0
  5  8  1  0  0  0  0
  6  7  2  0  0  0  0
  8  9  1  0  0  0  0
  9 10  2  0  0  0  0
M  END
>  <CHROM.1>
11.19912693,9.51530004,27.57093761,0.12987396,-1.38708916,0.44495363

>  <Name>
ligand

>  <RI>
0

>  <Rbt.Current_Directory>
/home/itssahil/PROJECTS/Mol_Feturizer/New_Systems/rnas/2EET

>  <Rbt.Executable>
rbdock ($Id: //depot/dev/client3/rdock/2013.1/src/exe/rbdock.cxx#4 $)

>  <Rbt.Library>
libRbt.so (2013.1, Build901 2013/11/27)

>  <Rbt.Parameter_File>
/export/apps/rDock/src/rDock_2013.1_src/data/scripts/dock_solv.prm

>  <Rbt.Receptor>
prm/blind_docking_80.prm

>  <SCORE>
-18.0303

>  <SCORE.INTER>
-18.0305

>  <SCORE.INTER.CONST>
1

>  <SCORE.INTER.POLAR>
0

>  <SCORE.INTER.ROT>
0

>  <SCORE.INTER.SOLV>
4.14347

>  <SCORE.INTER.VDW>
-17.0015

>  <SCORE.INTER.norm>
-1.80305

>  <SCORE.INTRA>
0

>  <SCORE.INTRA.DIHEDRAL>
0

>  <SCORE.INTRA.DIHEDRAL.0>
0

>  <SCORE.INTRA.POLAR>
0

>  <SCORE.INTRA.POLAR.0>
0

>  <SCORE.INTRA.REPUL>
0

>  <SCORE.INTRA.REPUL.0>
0

>  <SCORE.INTRA.SOLV>
0

>  <SCORE.INTRA.SOLV.lig_0>
-4.28464

>  <SCORE.INTRA.VDW>
0

>  <SCORE.INTRA.VDW.0>
0

>  <SCORE.INTRA.norm>
0

>  <SCORE.RESTR>
0.000165875

>  <SCORE.RESTR.CAVITY>
0.000165875

>  <SCORE.RESTR.norm>
1.65875e-05

>  <SCORE.SYSTEM>
0

>  <SCORE.SYSTEM.CONST>
0

>  <SCORE.SYSTEM.DIHEDRAL>
0

>  <SCORE.SYSTEM.SOLV>
0

>  <SCORE.SYSTEM.norm>
0

>  <SCORE.heavy>
10

>  <SCORE.norm>
-1.80303

>  <RMSD>
0.694

$$$$
ligand
 OpenBabel11021811423D
libRbt.so/2013.1/901 2013/11/27
 10 11  0  0  0  0  0  0  0  0999 V2000
   11.5401    9.5008   29.4897 N   0  0  0  0  0  0  0  0  0  0  0  0
   11.3767   10.8622   29.3012 C   0  0  0  0  0  0  0  0  0  0  0  0
   11.1289   11.3841   28.0937 N   0  0  0  0  0  0  0  0  0  0  0  0
   11.0595   10.4376   27.1023 C   0  0  0  0  0  0  0  0  0  0  0  0
   11.2129    9.0762   27.2295 C   0  0  0  0  0  0  0  0  0  0  0  0
   11.4764    8.5111   28.5081 C   0  0  0  0  0  0  0  0  0  0  0  0
   11.6454    7.3306   28.8389 O   0  0  0  0  0  0  0  0  0  0  0  0
   11.0661    8.5040   25.9928 N   0  0  0  0  0  0  0  0  0  0  0  0
   10.8249    9.5080   25.1283 C   0  0  0  0  0  0  0  0  0  0  0  0
   10.8160   10.7152   25.7806 N   0  0  0  0  0  0  0  0  0  0  0  0
  1  2  1  0  0  0  0
  1  6  1  0  0  0  0
  2  3  2  0  0  0  0
  3  4  1  0  0  0  0
  4  5  2  0  0  0  0
  4 10  1  0  0  0  0
  5  6  1  0  0  0  0
  5  8  1  0  0  0  0
  6  7  2  0  0  0  0
  8  9  1  0  0  0  0
  9 10  2  0  0  0  0
M  END
>  <CHROM.1>
11.22304860,9.54174214,27.57300017,0.22598624,-1.38268650,0.53704790

>  <Name>
ligand

>  <RI>
0

>  <Rbt.Current_Directory>
/home/itssahil/PROJECTS/Mol_Feturizer/New_Systems/rnas/2EET

>  <Rbt.Executable>
rbdock ($Id: //depot/dev/client3/rdock/2013.1/src/exe/rbdock.cxx#4 $)

>  <Rbt.Library>
libRbt.so (2013.1, Build901 2013/11/27)

>  <Rbt.Parameter_File>
/export/apps/rDock/src/rDock_2013.1_src/data/scripts/dock_solv.prm

>  <Rbt.Receptor>
prm/blind_docking_60.prm

>  <SCORE>
-17.9965

>  <SCORE.INTER>
-17.9965

>  <SCORE.INTER.CONST>
1

>  <SCORE.INTER.POLAR>
0

>  <SCORE.INTER.ROT>
0

>  <SCORE.INTER.SOLV>
4.07578

>  <SCORE.INTER.VDW>
-16.9563

>  <SCORE.INTER.norm>
-1.79965

>  <SCORE.INTRA>
0

>  <SCORE.INTRA.DIHEDRAL>
0

>  <SCORE.INTRA.DIHEDRAL.0>
0

>  <SCORE.INTRA.POLAR>
0

>  <SCORE.INTRA.POLAR.0>
0

>  <SCORE.INTRA.REPUL>
0

>  <SCORE.INTRA.REPUL.0>
0

>  <SCORE.INTRA.SOLV>
0

>  <SCORE.INTRA.SOLV.lig_0>
-4.28464

>  <SCORE.INTRA.VDW>
0

>  <SCORE.INTRA.VDW.0>
0

>  <SCORE.INTRA.norm>
0

>  <SCORE.RESTR>
0

>  <SCORE.RESTR.CAVITY>
0

>  <SCORE.RESTR.norm>
0

>  <SCORE.SYSTEM>
0

>  <SCORE.SYSTEM.CONST>
0

>  <SCORE.SYSTEM.DIHEDRAL>
0

>  <SCORE.SYSTEM.SOLV>
0

>  <SCORE.SYSTEM.norm>
0

>  <SCORE.heavy>
10

>  <SCORE.norm>
-1.79965

>  <RMSD>
0.695

$$$$
ligand
 OpenBabel11021811423D
libRbt.so/2013.1/901 2013/11/27
 10 11  0  0  0  0  0  0  0  0999 V2000
   11.5360    9.5000   29.4890 N   0  0  0  0  0  0  0  0  0  0  0  0
   11.3763   10.8617   29.2993 C   0  0  0  0  0  0  0  0  0  0  0  0
   11.1303   11.3832   28.0913 N   0  0  0  0  0  0  0  0  0  0  0  0
   11.0586   10.4360   27.1006 C   0  0  0  0  0  0  0  0  0  0  0  0
   11.2083    9.0743   27.2291 C   0  0  0  0  0  0  0  0  0  0  0  0
   11.4698    8.5096   28.5083 C   0  0  0  0  0  0  0  0  0  0  0  0
   11.6356    7.3290   28.8402 O   0  0  0  0  0  0  0  0  0  0  0  0
   11.0604    8.5014   25.9929 N   0  0  0  0  0  0  0  0  0  0  0  0
   10.8222    9.5054   25.1275 C   0  0  0  0  0  0  0  0  0  0  0  0
   10.8164   10.7131   25.7786 N   0  0  0  0  0  0  0  0  0  0  0  0
  1  2  1  0  0  0  0
  1  6  1  0  0  0  0
  2  3  2  0  0  0  0
  3  4  1  0  0  0  0
  4  5  2  0  0  0  0
  4 10  1  0  0  0  0
  5  6  1  0  0  0  0
  5  8  1  0  0  0  0
  6  7  2  0  0  0  0
  8  9  1  0  0  0  0
  9 10  2  0  0  0  0
M  END
>  <CHROM.1>
11.21962621,9.54013334,27.57222107,0.21424716,-1.38435212,0.52462741

>  <Name>
ligand

>  <RI>
0

>  <Rbt.Current_Directory>
/home/itssahil/PROJECTS/Mol_Feturizer/New_Systems/rnas/2EET

>  <Rbt.Executable>
rbdock ($Id: //depot/dev/client3/rdock/2013.1/src/exe/rbdock.cxx#4 $)

>  <Rbt.Library>
libRbt.so (2013.1, Build901 2013/11/27)

>  <Rbt.Parameter_File>
/export/apps/rDock/src/rDock_2013.1_src/data/scripts/dock_solv.prm

>  <Rbt.Receptor>
prm/blind_docking_80.prm

>  <SCORE>
-18.0056

>  <SCORE.INTER>
-18.0056

>  <SCORE.INTER.CONST>
1

>  <SCORE.INTER.POLAR>
0

>  <SCORE.INTER.ROT>
0

>  <SCORE.INTER.SOLV>
4.08896

>  <SCORE.INTER.VDW>
-16.9667

>  <SCORE.INTER.norm>
-1.80056

>  <SCORE.INTRA>
0

>  <SCORE.INTRA.DIHEDRAL>
0

>  <SCORE.INTRA.DIHEDRAL.0>
0

>  <SCORE.INTRA.POLAR>
0

>  <SCORE.INTRA.POLAR.0>
0

>  <SCORE.INTRA.REPUL>
0

>  <SCORE.INTRA.REPUL.0>
0

>  <SCORE.INTRA.SOLV>
0

>  <SCORE.INTRA.SOLV.lig_0>
-4.28464

>  <SCORE.INTRA.VDW>
0

>  <SCORE.INTRA.VDW.0>
0

>  <SCORE.INTRA.norm>
0

>  <SCORE.RESTR>
0

>  <SCORE.RESTR.CAVITY>
0

>  <SCORE.RESTR.norm>
0

>  <SCORE.SYSTEM>
0

>  <SCORE.SYSTEM.CONST>
0

>  <SCORE.SYSTEM.DIHEDRAL>
0

>  <SCORE.SYSTEM.SOLV>
0

>  <SCORE.SYSTEM.norm>
0

>  <SCORE.heavy>
10

>  <SCORE.norm>
-1.80056

>  <RMSD>
0.697

$$$$
ligand
 OpenBabel11021811423D
libRbt.so/2013.1/901 2013/11/27
 10 11  0  0  0  0  0  0  0  0999 V2000
   11.5140    9.4673   29.4884 N   0  0  0  0  0  0  0  0  0  0  0  0
   11.3765   10.8319   29.3028 C   0  0  0  0  0  0  0  0  0  0  0  0
   11.1385   11.3610   28.0965 N   0  0  0  0  0  0  0  0  0  0  0  0
   11.0509   10.4181   27.1031 C   0  0  0  0  0  0  0  0  0  0  0  0
   11.1785    9.0538   27.2274 C   0  0  0  0  0  0  0  0  0  0  0  0
   11.4314    8.4811   28.5047 C   0  0  0  0  0  0  0  0  0  0  0  0
   11.5780    7.2969   28.8330 O   0  0  0  0  0  0  0  0  0  0  0  0
   11.0207    8.4871   25.9895 N   0  0  0  0  0  0  0  0  0  0  0  0
   10.7985    9.4973   25.1272 C   0  0  0  0  0  0  0  0  0  0  0  0
   10.8126   10.7031   25.7820 N   0  0  0  0  0  0  0  0  0  0  0  0
  1  2  1  0  0  0  0
  1  6  1  0  0  0  0
  2  3  2  0  0  0  0
  3  4  1  0  0  0  0
  4  5  2  0  0  0  0
  4 10  1  0  0  0  0
  5  6  1  0  0  0  0
  5  8  1  0  0  0  0
  6  7  2  0  0  0  0
  8  9  1  0  0  0  0
  9 10  2  0  0  0  0
M  END
>  <CHROM.1>
11.19752507,9.51830217,27.57186076,0.13388725,-1.39154537,0.44860570

>  <Name>
ligand

>  <RI>
0

>  <Rbt.Current_Directory>
/home/itssahil/PROJECTS/Mol_Feturizer/New_Systems/rnas/2EET

>  <Rbt.Executable>
rbdock ($Id: //depot/dev/client3/rdock/2013.1/src/exe/rbdock.cxx#4 $)

>  <Rbt.Library>
libRbt.so (2013.1, Build901 2013/11/27)

>  <Rbt.Parameter_File>
/export/apps/rDock/src/rDock_2013.1_src/data/scripts/dock_solv.prm

>  <Rbt.Receptor>
prm/pocket_docking_5.prm

>  <SCORE>
-18.0292

>  <SCORE.INTER>
-18.0292

>  <SCORE.INTER.CONST>
1

>  <SCORE.INTER.POLAR>
0

>  <SCORE.INTER.ROT>
0

>  <SCORE.INTER.SOLV>
4.15961

>  <SCORE.INTER.VDW>
-17.006

>  <SCORE.INTER.norm>
-1.80292

>  <SCORE.INTRA>
0

>  <SCORE.INTRA.DIHEDRAL>
0

>  <SCORE.INTRA.DIHEDRAL.0>
0

>  <SCORE.INTRA.POLAR>
0

>  <SCORE.INTRA.POLAR.0>
0

>  <SCORE.INTRA.REPUL>
0

>  <SCORE.INTRA.REPUL.0>
0

>  <SCORE.INTRA.SOLV>
0

>  <SCORE.INTRA.SOLV.lig_0>
-4.28464

>  <SCORE.INTRA.VDW>
0

>  <SCORE.INTRA.VDW.0>
0

>  <SCORE.INTRA.norm>
0

>  <SCORE.RESTR>
0

>  <SCORE.RESTR.CAVITY>
0

>  <SCORE.RESTR.norm>
0

>  <SCORE.SYSTEM>
0

>  <SCORE.SYSTEM.CONST>
0

>  <SCORE.SYSTEM.DIHEDRAL>
0

>  <SCORE.SYSTEM.SOLV>
0

>  <SCORE.SYSTEM.norm>
0

>  <SCORE.heavy>
10

>  <SCORE.norm>
-1.80292

>  <RMSD>
0.697

$$$$
ligand
 OpenBabel11021811423D
libRbt.so/2013.1/901 2013/11/27
 10 11  0  0  0  0  0  0  0  0999 V2000
   11.5021    9.4727   29.5206 N   0  0  0  0  0  0  0  0  0  0  0  0
   11.3666   10.8342   29.3120 C   0  0  0  0  0  0  0  0  0  0  0  0
   11.1400   11.3440   28.0953 N   0  0  0  0  0  0  0  0  0  0  0  0
   11.0614   10.3855   27.1162 C   0  0  0  0  0  0  0  0  0  0  0  0
   11.1874    9.0232   27.2635 C   0  0  0  0  0  0  0  0  0  0  0  0
   11.4282    8.4709   28.5521 C   0  0  0  0  0  0  0  0  0  0  0  0
   11.5715    7.2921   28.9005 O   0  0  0  0  0  0  0  0  0  0  0  0
   11.0410    8.4369   26.0334 N   0  0  0  0  0  0  0  0  0  0  0  0
   10.8271    9.4333   25.1531 C   0  0  0  0  0  0  0  0  0  0  0  0
   10.8355   10.6493   25.7886 N   0  0  0  0  0  0  0  0  0  0  0  0
  1  2  1  0  0  0  0
  1  6  1  0  0  0  0
  2  3  2  0  0  0  0
  3  4  1  0  0  0  0
  4  5  2  0  0  0  0
  4 10  1  0  0  0  0
  5  6  1  0  0  0  0
  5  8  1  0  0  0  0
  6  7  2  0  0  0  0
  8  9  1  0  0  0  0
  9 10  2  0  0  0  0
M  END
>  <CHROM.1>
11.20340910,9.49320709,27.60067733,0.15607571,-1.40001610,0.45450936

>  <Name>
ligand

>  <RI>
0

>  <Rbt.Current_Directory>
/home/itssahil/PROJECTS/Mol_Feturizer/New_Systems/rnas/2EET

>  <Rbt.Executable>
rbdock ($Id: //depot/dev/client3/rdock/2013.1/src/exe/rbdock.cxx#4 $)

>  <Rbt.Library>
libRbt.so (2013.1, Build901 2013/11/27)

>  <Rbt.Parameter_File>
/export/apps/rDock/src/rDock_2013.1_src/data/scripts/dock_solv.prm

>  <Rbt.Receptor>
prm/pocket_docking_4.prm

>  <SCORE>
-18.0609

>  <SCORE.INTER>
-18.0609

>  <SCORE.INTER.CONST>
1

>  <SCORE.INTER.POLAR>
0

>  <SCORE.INTER.ROT>
0

>  <SCORE.INTER.SOLV>
4.21104

>  <SCORE.INTER.VDW>
-17.0443

>  <SCORE.INTER.norm>
-1.80609

>  <SCORE.INTRA>
0

>  <SCORE.INTRA.DIHEDRAL>
0

>  <SCORE.INTRA.DIHEDRAL.0>
0

>  <SCORE.INTRA.POLAR>
0

>  <SCORE.INTRA.POLAR.0>
0

>  <SCORE.INTRA.REPUL>
0

>  <SCORE.INTRA.REPUL.0>
0

>  <SCORE.INTRA.SOLV>
0

>  <SCORE.INTRA.SOLV.lig_0>
-4.28464

>  <SCORE.INTRA.VDW>
0

>  <SCORE.INTRA.VDW.0>
0

>  <SCORE.INTRA.norm>
0

>  <SCORE.RESTR>
0

>  <SCORE.RESTR.CAVITY>
0

>  <SCORE.RESTR.norm>
0

>  <SCORE.SYSTEM>
0

>  <SCORE.SYSTEM.CONST>
0

>  <SCORE.SYSTEM.DIHEDRAL>
0

>  <SCORE.SYSTEM.SOLV>
0

>  <SCORE.SYSTEM.norm>
0

>  <SCORE.heavy>
10

>  <SCORE.norm>
-1.80609

>  <RMSD>
0.699

$$$$
ligand
 OpenBabel11021811423D
libRbt.so/2013.1/901 2013/11/27
 10 11  0  0  0  0  0  0  0  0999 V2000
   11.5075    9.4773   29.5178 N   0  0  0  0  0  0  0  0  0  0  0  0
   11.3665   10.8383   29.3089 C   0  0  0  0  0  0  0  0  0  0  0  0
   11.1326   11.3465   28.0928 N   0  0  0  0  0  0  0  0  0  0  0  0
   11.0528   10.3869   27.1148 C   0  0  0  0  0  0  0  0  0  0  0  0
   11.1840    9.0253   27.2624 C   0  0  0  0  0  0  0  0  0  0  0  0
   11.4326    8.4747   28.5503 C   0  0  0  0  0  0  0  0  0  0  0  0
   11.5813    7.2966   28.8989 O   0  0  0  0  0  0  0  0  0  0  0  0
   11.0339    8.4376   26.0334 N   0  0  0  0  0  0  0  0  0  0  0  0
   10.8127    9.4327   25.1534 C   0  0  0  0  0  0  0  0  0  0  0  0
   10.8199   10.6492   25.7881 N   0  0  0  0  0  0  0  0  0  0  0  0
  1  2  1  0  0  0  0
  1  6  1  0  0  0  0
  2  3  2  0  0  0  0
  3  4  1  0  0  0  0
  4  5  2  0  0  0  0
  4 10  1  0  0  0  0
  5  6  1  0  0  0  0
  5  8  1  0  0  0  0
  6  7  2  0  0  0  0
  8  9  1  0  0  0  0
  9 10  2  0  0  0  0
M  END
>  <CHROM.1>
11.19996152,9.49551643,27.59920617,0.16179040,-1.39443011,0.45944918

>  <Name>
ligand

>  <RI>
0

>  <Rbt.Current_Directory>
/home/itssahil/PROJECTS/Mol_Feturizer/New_Systems/rnas/2EET

>  <Rbt.Executable>
rbdock ($Id: //depot/dev/client3/rdock/2013.1/src/exe/rbdock.cxx#4 $)

>  <Rbt.Library>
libRbt.so (2013.1, Build901 2013/11/27)

>  <Rbt.Parameter_File>
/export/apps/rDock/src/rDock_2013.1_src/data/scripts/dock_solv.prm

>  <Rbt.Receptor>
prm/pocket_docking_3.prm

>  <SCORE>
-18.0568

>  <SCORE.INTER>
-18.0568

>  <SCORE.INTER.CONST>
1

>  <SCORE.INTER.POLAR>
0

>  <SCORE.INTER.ROT>
0

>  <SCORE.INTER.SOLV>
4.19266

>  <SCORE.INTER.VDW>
-17.0354

>  <SCORE.INTER.norm>
-1.80568

>  <SCORE.INTRA>
0

>  <SCORE.INTRA.DIHEDRAL>
0

>  <SCORE.INTRA.DIHEDRAL.0>
0

>  <SCORE.INTRA.POLAR>
0

>  <SCORE.INTRA.POLAR.0>
0

>  <SCORE.INTRA.REPUL>
0

>  <SCORE.INTRA.REPUL.0>
0

>  <SCORE.INTRA.SOLV>
0

>  <SCORE.INTRA.SOLV.lig_0>
-4.28464

>  <SCORE.INTRA.VDW>
0

>  <SCORE.INTRA.VDW.0>
0

>  <SCORE.INTRA.norm>
0

>  <SCORE.RESTR>
0

>  <SCORE.RESTR.CAVITY>
0

>  <SCORE.RESTR.norm>
0

>  <SCORE.SYSTEM>
0

>  <SCORE.SYSTEM.CONST>
0

>  <SCORE.SYSTEM.DIHEDRAL>
0

>  <SCORE.SYSTEM.SOLV>
0

>  <SCORE.SYSTEM.norm>
0

>  <SCORE.heavy>
10

>  <SCORE.norm>
-1.80568

>  <RMSD>
0.700

$$$$
ligand
 OpenBabel11021811423D
libRbt.so/2013.1/901 2013/11/27
 10 11  0  0  0  0  0  0  0  0999 V2000
   11.5069    9.4761   29.5185 N   0  0  0  0  0  0  0  0  0  0  0  0
   11.3678   10.8370   29.3081 C   0  0  0  0  0  0  0  0  0  0  0  0
   11.1353   11.3442   28.0913 N   0  0  0  0  0  0  0  0  0  0  0  0
   11.0550   10.3838   27.1142 C   0  0  0  0  0  0  0  0  0  0  0  0
   11.1844    9.0221   27.2633 C   0  0  0  0  0  0  0  0  0  0  0  0
   11.4314    8.4725   28.5519 C   0  0  0  0  0  0  0  0  0  0  0  0
   11.5785    7.2946   28.9018 O   0  0  0  0  0  0  0  0  0  0  0  0
   11.0345    8.4333   26.0348 N   0  0  0  0  0  0  0  0  0  0  0  0
   10.8151    9.4278   25.1536 C   0  0  0  0  0  0  0  0  0  0  0  0
   10.8234   10.6449   25.7871 N   0  0  0  0  0  0  0  0  0  0  0  0
  1  2  1  0  0  0  0
  1  6  1  0  0  0  0
  2  3  2  0  0  0  0
  3  4  1  0  0  0  0
  4  5  2  0  0  0  0
  4 10  1  0  0  0  0
  5  6  1  0  0  0  0
  5  8  1  0  0  0  0
  6  7  2  0  0  0  0
  8  9  1  0  0  0  0
  9 10  2  0  0  0  0
M  END
>  <CHROM.1>
11.20073791,9.49266072,27.59965205,0.15719545,-1.39560375,0.45389962

>  <Name>
ligand

>  <RI>
0

>  <Rbt.Current_Directory>
/home/itssahil/PROJECTS/Mol_Feturizer/New_Systems/rnas/2EET

>  <Rbt.Executable>
rbdock ($Id: //depot/dev/client3/rdock/2013.1/src/exe/rbdock.cxx#4 $)

>  <Rbt.Library>
libRbt.so (2013.1, Build901 2013/11/27)

>  <Rbt.Parameter_File>
/export/apps/rDock/src/rDock_2013.1_src/data/scripts/dock_solv.prm

>  <Rbt.Receptor>
prm/pocket_docking_4.prm

>  <SCORE>
-18.0582

>  <SCORE.INTER>
-18.0582

>  <SCORE.INTER.CONST>
1

>  <SCORE.INTER.POLAR>
0

>  <SCORE.INTER.ROT>
0

>  <SCORE.INTER.SOLV>
4.19853

>  <SCORE.INTER.VDW>
-17.0383

>  <SCORE.INTER.norm>
-1.80582

>  <SCORE.INTRA>
0

>  <SCORE.INTRA.DIHEDRAL>
0

>  <SCORE.INTRA.DIHEDRAL.0>
0

>  <SCORE.INTRA.POLAR>
0

>  <SCORE.INTRA.POLAR.0>
0

>  <SCORE.INTRA.REPUL>
0

>  <SCORE.INTRA.REPUL.0>
0

>  <SCORE.INTRA.SOLV>
0

>  <SCORE.INTRA.SOLV.lig_0>
-4.28464

>  <SCORE.INTRA.VDW>
0

>  <SCORE.INTRA.VDW.0>
0

>  <SCORE.INTRA.norm>
0

>  <SCORE.RESTR>
0

>  <SCORE.RESTR.CAVITY>
0

>  <SCORE.RESTR.norm>
0

>  <SCORE.SYSTEM>
0

>  <SCORE.SYSTEM.CONST>
0

>  <SCORE.SYSTEM.DIHEDRAL>
0

>  <SCORE.SYSTEM.SOLV>
0

>  <SCORE.SYSTEM.norm>
0

>  <SCORE.heavy>
10

>  <SCORE.norm>
-1.80582

>  <RMSD>
0.700

$$$$
ligand
 OpenBabel11021811423D
libRbt.so/2013.1/901 2013/11/27
 10 11  0  0  0  0  0  0  0  0999 V2000
   11.5019    9.4750   29.5195 N   0  0  0  0  0  0  0  0  0  0  0  0
   11.3612   10.8359   29.3102 C   0  0  0  0  0  0  0  0  0  0  0  0
   11.1339   11.3443   28.0930 N   0  0  0  0  0  0  0  0  0  0  0  0
   11.0602   10.3851   27.1143 C   0  0  0  0  0  0  0  0  0  0  0  0
   11.1914    9.0234   27.2622 C   0  0  0  0  0  0  0  0  0  0  0  0
   11.4330    8.4726   28.5513 C   0  0  0  0  0  0  0  0  0  0  0  0
   11.5806    7.2945   28.9003 O   0  0  0  0  0  0  0  0  0  0  0  0
   11.0486    8.4360   26.0322 N   0  0  0  0  0  0  0  0  0  0  0  0
   10.8317    9.4313   25.1512 C   0  0  0  0  0  0  0  0  0  0  0  0
   10.8346   10.6475   25.7863 N   0  0  0  0  0  0  0  0  0  0  0  0
  1  2  1  0  0  0  0
  1  6  1  0  0  0  0
  2  3  2  0  0  0  0
  3  4  1  0  0  0  0
  4  5  2  0  0  0  0
  4 10  1  0  0  0  0
  5  6  1  0  0  0  0
  5  8  1  0  0  0  0
  6  7  2  0  0  0  0
  8  9  1  0  0  0  0
  9 10  2  0  0  0  0
M  END
>  <CHROM.1>
11.20514876,9.49357637,27.59923186,0.17970673,-1.39917276,0.47740649

>  <Name>
ligand

>  <RI>
0

>  <Rbt.Current_Directory>
/home/itssahil/PROJECTS/Mol_Feturizer/New_Systems/rnas/2EET

>  <Rbt.Executable>
rbdock ($Id: //depot/dev/client3/rdock/2013.1/src/exe/rbdock.cxx#4 $)

>  <Rbt.Library>
libRbt.so (2013.1, Build901 2013/11/27)

>  <Rbt.Parameter_File>
/export/apps/rDock/src/rDock_2013.1_src/data/scripts/dock_solv.prm

>  <Rbt.Receptor>
prm/pocket_docking_8.prm

>  <SCORE>
-18.0503

>  <SCORE.INTER>
-18.0503

>  <SCORE.INTER.CONST>
1

>  <SCORE.INTER.POLAR>
0

>  <SCORE.INTER.ROT>
0

>  <SCORE.INTER.SOLV>
4.19841

>  <SCORE.INTER.VDW>
-17.033

>  <SCORE.INTER.norm>
-1.80503

>  <SCORE.INTRA>
0

>  <SCORE.INTRA.DIHEDRAL>
0

>  <SCORE.INTRA.DIHEDRAL.0>
0

>  <SCORE.INTRA.POLAR>
0

>  <SCORE.INTRA.POLAR.0>
0

>  <SCORE.INTRA.REPUL>
0

>  <SCORE.INTRA.REPUL.0>
0

>  <SCORE.INTRA.SOLV>
0

>  <SCORE.INTRA.SOLV.lig_0>
-4.28464

>  <SCORE.INTRA.VDW>
0

>  <SCORE.INTRA.VDW.0>
0

>  <SCORE.INTRA.norm>
0

>  <SCORE.RESTR>
0

>  <SCORE.RESTR.CAVITY>
0

>  <SCORE.RESTR.norm>
0

>  <SCORE.SYSTEM>
0

>  <SCORE.SYSTEM.CONST>
0

>  <SCORE.SYSTEM.DIHEDRAL>
0

>  <SCORE.SYSTEM.SOLV>
0

>  <SCORE.SYSTEM.norm>
0

>  <SCORE.heavy>
10

>  <SCORE.norm>
-1.80503

>  <RMSD>
0.700

$$$$
ligand
 OpenBabel11021811423D
libRbt.so/2013.1/901 2013/11/27
 10 11  0  0  0  0  0  0  0  0999 V2000
   11.5030    9.4766   29.5199 N   0  0  0  0  0  0  0  0  0  0  0  0
   11.3655   10.8379   29.3112 C   0  0  0  0  0  0  0  0  0  0  0  0
   11.1369   11.3472   28.0947 N   0  0  0  0  0  0  0  0  0  0  0  0
   11.0586   10.3884   27.1159 C   0  0  0  0  0  0  0  0  0  0  0  0
   11.1865    9.0264   27.2632 C   0  0  0  0  0  0  0  0  0  0  0  0
   11.4294    8.4746   28.5516 C   0  0  0  0  0  0  0  0  0  0  0  0
   11.5746    7.2960   28.9000 O   0  0  0  0  0  0  0  0  0  0  0  0
   11.0395    8.4397   26.0333 N   0  0  0  0  0  0  0  0  0  0  0  0
   10.8234    9.4357   25.1531 C   0  0  0  0  0  0  0  0  0  0  0  0
   10.8308   10.6518   25.7885 N   0  0  0  0  0  0  0  0  0  0  0  0
  1  2  1  0  0  0  0
  1  6  1  0  0  0  0
  2  3  2  0  0  0  0
  3  4  1  0  0  0  0
  4  5  2  0  0  0  0
  4 10  1  0  0  0  0
  5  6  1  0  0  0  0
  5  8  1  0  0  0  0
  6  7  2  0  0  0  0
  8  9  1  0  0  0  0
  9 10  2  0  0  0  0
M  END
>  <CHROM.1>
11.20222134,9.49641658,27.60026408,0.16024663,-1.39847093,0.45848078

>  <Name>
ligand

>  <RI>
0

>  <Rbt.Current_Directory>
/home/itssahil/PROJECTS/Mol_Feturizer/New_Systems/rnas/2EET

>  <Rbt.Executable>
rbdock ($Id: //depot/dev/client3/rdock/2013.1/src/exe/rbdock.cxx#4 $)

>  <Rbt.Library>
libRbt.so (2013.1, Build901 2013/11/27)

>  <Rbt.Parameter_File>
/export/apps/rDock/src/rDock_2013.1_src/data/scripts/dock_solv.prm

>  <Rbt.Receptor>
prm/pocket_docking_8.prm

>  <SCORE>
-18.0597

>  <SCORE.INTER>
-18.0597

>  <SCORE.INTER.CONST>
1

>  <SCORE.INTER.POLAR>
0

>  <SCORE.INTER.ROT>
0

>  <SCORE.INTER.SOLV>
4.20492

>  <SCORE.INTER.VDW>
-17.0415

>  <SCORE.INTER.norm>
-1.80597

>  <SCORE.INTRA>
0

>  <SCORE.INTRA.DIHEDRAL>
0

>  <SCORE.INTRA.DIHEDRAL.0>
0

>  <SCORE.INTRA.POLAR>
0

>  <SCORE.INTRA.POLAR.0>
0

>  <SCORE.INTRA.REPUL>
0

>  <SCORE.INTRA.REPUL.0>
0

>  <SCORE.INTRA.SOLV>
0

>  <SCORE.INTRA.SOLV.lig_0>
-4.28464

>  <SCORE.INTRA.VDW>
0

>  <SCORE.INTRA.VDW.0>
0

>  <SCORE.INTRA.norm>
0

>  <SCORE.RESTR>
0

>  <SCORE.RESTR.CAVITY>
0

>  <SCORE.RESTR.norm>
0

>  <SCORE.SYSTEM>
0

>  <SCORE.SYSTEM.CONST>
0

>  <SCORE.SYSTEM.DIHEDRAL>
0

>  <SCORE.SYSTEM.SOLV>
0

>  <SCORE.SYSTEM.norm>
0

>  <SCORE.heavy>
10

>  <SCORE.norm>
-1.80597

>  <RMSD>
0.700

$$$$
ligand
 OpenBabel11021811423D
libRbt.so/2013.1/901 2013/11/27
 10 11  0  0  0  0  0  0  0  0999 V2000
   11.5170    9.5024   29.5151 N   0  0  0  0  0  0  0  0  0  0  0  0
   11.3723   10.8634   29.3086 C   0  0  0  0  0  0  0  0  0  0  0  0
   11.1332   11.3727   28.0941 N   0  0  0  0  0  0  0  0  0  0  0  0
   11.0522   10.4144   27.1150 C   0  0  0  0  0  0  0  0  0  0  0  0
   11.1869    9.0528   27.2602 C   0  0  0  0  0  0  0  0  0  0  0  0
   11.4410    8.5010   28.5464 C   0  0  0  0  0  0  0  0  0  0  0  0
   11.5936    7.3227   28.8928 O   0  0  0  0  0  0  0  0  0  0  0  0
   11.0340    8.4666   26.0309 N   0  0  0  0  0  0  0  0  0  0  0  0
   10.8076    9.4624   25.1530 C   0  0  0  0  0  0  0  0  0  0  0  0
   10.8143   10.6780   25.7894 N   0  0  0  0  0  0  0  0  0  0  0  0
  1  2  1  0  0  0  0
  1  6  1  0  0  0  0
  2  3  2  0  0  0  0
  3  4  1  0  0  0  0
  4  5  2  0  0  0  0
  4 10  1  0  0  0  0
  5  6  1  0  0  0  0
  5  8  1  0  0  0  0
  6  7  2  0  0  0  0
  8  9  1  0  0  0  0
  9 10  2  0  0  0  0
M  END
>  <CHROM.1>
11.20298206,9.52263180,27.59758174,0.16447430,-1.39042917,0.46350025

>  <Name>
ligand

>  <RI>
0

>  <Rbt.Current_Directory>
/home/itssahil/PROJECTS/Mol_Feturizer/New_Systems/rnas/2EET

>  <Rbt.Executable>
rbdock ($Id: //depot/dev/client3/rdock/2013.1/src/exe/rbdock.cxx#4 $)

>  <Rbt.Library>
libRbt.so (2013.1, Build901 2013/11/27)

>  <Rbt.Parameter_File>
/export/apps/rDock/src/rDock_2013.1_src/data/scripts/dock_solv.prm

>  <Rbt.Receptor>
prm/blind_docking_40.prm

>  <SCORE>
-18.0438

>  <SCORE.INTER>
-18.0438

>  <SCORE.INTER.CONST>
1

>  <SCORE.INTER.POLAR>
0

>  <SCORE.INTER.ROT>
0

>  <SCORE.INTER.SOLV>
4.17279

>  <SCORE.INTER.VDW>
-17.0201

>  <SCORE.INTER.norm>
-1.80438

>  <SCORE.INTRA>
0

>  <SCORE.INTRA.DIHEDRAL>
0

>  <SCORE.INTRA.DIHEDRAL.0>
0

>  <SCORE.INTRA.POLAR>
0

>  <SCORE.INTRA.POLAR.0>
0

>  <SCORE.INTRA.REPUL>
0

>  <SCORE.INTRA.REPUL.0>
0

>  <SCORE.INTRA.SOLV>
0

>  <SCORE.INTRA.SOLV.lig_0>
-4.28464

>  <SCORE.INTRA.VDW>
0

>  <SCORE.INTRA.VDW.0>
0

>  <SCORE.INTRA.norm>
0

>  <SCORE.RESTR>
0

>  <SCORE.RESTR.CAVITY>
0

>  <SCORE.RESTR.norm>
0

>  <SCORE.SYSTEM>
0

>  <SCORE.SYSTEM.CONST>
0

>  <SCORE.SYSTEM.DIHEDRAL>
0

>  <SCORE.SYSTEM.SOLV>
0

>  <SCORE.SYSTEM.norm>
0

>  <SCORE.heavy>
10

>  <SCORE.norm>
-1.80438

>  <RMSD>
0.702

$$$$
ligand
 OpenBabel11021811423D
libRbt.so/2013.1/901 2013/11/27
 10 11  0  0  0  0  0  0  0  0999 V2000
   11.5207    9.5007   29.5136 N   0  0  0  0  0  0  0  0  0  0  0  0
   11.3777   10.8619   29.3078 C   0  0  0  0  0  0  0  0  0  0  0  0
   11.1344   11.3718   28.0944 N   0  0  0  0  0  0  0  0  0  0  0  0
   11.0474   10.4137   27.1156 C   0  0  0  0  0  0  0  0  0  0  0  0
   11.1801    9.0519   27.2601 C   0  0  0  0  0  0  0  0  0  0  0  0
   11.4387    8.4994   28.5452 C   0  0  0  0  0  0  0  0  0  0  0  0
   11.5904    7.3209   28.8909 O   0  0  0  0  0  0  0  0  0  0  0  0
   11.0208    8.4660   26.0314 N   0  0  0  0  0  0  0  0  0  0  0  0
   10.7926    9.4623   25.1546 C   0  0  0  0  0  0  0  0  0  0  0  0
   10.8043   10.6779   25.7910 N   0  0  0  0  0  0  0  0  0  0  0  0
  1  2  1  0  0  0  0
  1  6  1  0  0  0  0
  2  3  2  0  0  0  0
  3  4  1  0  0  0  0
  4  5  2  0  0  0  0
  4 10  1  0  0  0  0
  5  6  1  0  0  0  0
  5  8  1  0  0  0  0
  6  7  2  0  0  0  0
  8  9  1  0  0  0  0
  9 10  2  0  0  0  0
M  END
>  <CHROM.1>
11.19850432,9.52163527,27.59748705,0.14463782,-1.38742754,0.44406649

>  <Name>
ligand

>  <RI>
0

>  <Rbt.Current_Directory>
/home/itssahil/PROJECTS/Mol_Feturizer/New_Systems/rnas/2EET

>  <Rbt.Executable>
rbdock ($Id: //depot/dev/client3/rdock/2013.1/src/exe/rbdock.cxx#4 $)

>  <Rbt.Library>
libRbt.so (2013.1, Build901 2013/11/27)

>  <Rbt.Parameter_File>
/export/apps/rDock/src/rDock_2013.1_src/data/scripts/dock_solv.prm

>  <Rbt.Receptor>
prm/pocket_docking_6.prm

>  <SCORE>
-18.0441

>  <SCORE.INTER>
-18.0441

>  <SCORE.INTER.CONST>
1

>  <SCORE.INTER.POLAR>
0

>  <SCORE.INTER.ROT>
0

>  <SCORE.INTER.SOLV>
4.17423

>  <SCORE.INTER.VDW>
-17.0208

>  <SCORE.INTER.norm>
-1.80441

>  <SCORE.INTRA>
0

>  <SCORE.INTRA.DIHEDRAL>
0

>  <SCORE.INTRA.DIHEDRAL.0>
0

>  <SCORE.INTRA.POLAR>
0

>  <SCORE.INTRA.POLAR.0>
0

>  <SCORE.INTRA.REPUL>
0

>  <SCORE.INTRA.REPUL.0>
0

>  <SCORE.INTRA.SOLV>
0

>  <SCORE.INTRA.SOLV.lig_0>
-4.28464

>  <SCORE.INTRA.VDW>
0

>  <SCORE.INTRA.VDW.0>
0

>  <SCORE.INTRA.norm>
0

>  <SCORE.RESTR>
0

>  <SCORE.RESTR.CAVITY>
0

>  <SCORE.RESTR.norm>
0

>  <SCORE.SYSTEM>
0

>  <SCORE.SYSTEM.CONST>
0

>  <SCORE.SYSTEM.DIHEDRAL>
0

>  <SCORE.SYSTEM.SOLV>
0

>  <SCORE.SYSTEM.norm>
0

>  <SCORE.heavy>
10

>  <SCORE.norm>
-1.80441

>  <RMSD>
0.702

$$$$
ligand
 OpenBabel11021811423D
libRbt.so/2013.1/901 2013/11/27
 10 11  0  0  0  0  0  0  0  0999 V2000
   11.5175    9.5141   29.5221 N   0  0  0  0  0  0  0  0  0  0  0  0
   11.3610   10.8730   29.3115 C   0  0  0  0  0  0  0  0  0  0  0  0
   11.1290   11.3777   28.0937 N   0  0  0  0  0  0  0  0  0  0  0  0
   11.0678   10.4169   27.1156 C   0  0  0  0  0  0  0  0  0  0  0  0
   11.2150    9.0570   27.2648 C   0  0  0  0  0  0  0  0  0  0  0  0
   11.4617    8.5101   28.5546 C   0  0  0  0  0  0  0  0  0  0  0  0
   11.6228    7.3341   28.9048 O   0  0  0  0  0  0  0  0  0  0  0  0
   11.0806    8.4669   26.0352 N   0  0  0  0  0  0  0  0  0  0  0  0
   10.8529    9.4588   25.1531 C   0  0  0  0  0  0  0  0  0  0  0  0
   10.8407   10.6755   25.7872 N   0  0  0  0  0  0  0  0  0  0  0  0
  1  2  1  0  0  0  0
  1  6  1  0  0  0  0
  2  3  2  0  0  0  0
  3  4  1  0  0  0  0
  4  5  2  0  0  0  0
  4 10  1  0  0  0  0
  5  6  1  0  0  0  0
  5  8  1  0  0  0  0
  6  7  2  0  0  0  0
  8  9  1  0  0  0  0
  9 10  2  0  0  0  0
M  END
>  <CHROM.1>
11.22282468,9.52754889,27.60147499,0.24281262,-1.39439667,0.53873081

>  <Name>
ligand

>  <RI>
0

>  <Rbt.Current_Directory>
/home/itssahil/PROJECTS/Mol_Feturizer/New_Systems/rnas/2EET

>  <Rbt.Executable>
rbdock ($Id: //depot/dev/client3/rdock/2013.1/src/exe/rbdock.cxx#4 $)

>  <Rbt.Library>
libRbt.so (2013.1, Build901 2013/11/27)

>  <Rbt.Parameter_File>
/export/apps/rDock/src/rDock_2013.1_src/data/scripts/dock_solv.prm

>  <Rbt.Receptor>
prm/pocket_docking_7.prm

>  <SCORE>
-18.0383

>  <SCORE.INTER>
-18.0383

>  <SCORE.INTER.CONST>
1

>  <SCORE.INTER.POLAR>
0

>  <SCORE.INTER.ROT>
0

>  <SCORE.INTER.SOLV>
4.14613

>  <SCORE.INTER.VDW>
-17.0076

>  <SCORE.INTER.norm>
-1.80383

>  <SCORE.INTRA>
0

>  <SCORE.INTRA.DIHEDRAL>
0

>  <SCORE.INTRA.DIHEDRAL.0>
0

>  <SCORE.INTRA.POLAR>
0

>  <SCORE.INTRA.POLAR.0>
0

>  <SCORE.INTRA.REPUL>
0

>  <SCORE.INTRA.REPUL.0>
0

>  <SCORE.INTRA.SOLV>
0

>  <SCORE.INTRA.SOLV.lig_0>
-4.28464

>  <SCORE.INTRA.VDW>
0

>  <SCORE.INTRA.VDW.0>
0

>  <SCORE.INTRA.norm>
0

>  <SCORE.RESTR>
0

>  <SCORE.RESTR.CAVITY>
0

>  <SCORE.RESTR.norm>
0

>  <SCORE.SYSTEM>
0

>  <SCORE.SYSTEM.CONST>
0

>  <SCORE.SYSTEM.DIHEDRAL>
0

>  <SCORE.SYSTEM.SOLV>
0

>  <SCORE.SYSTEM.norm>
0

>  <SCORE.heavy>
10

>  <SCORE.norm>
-1.80383

>  <RMSD>
0.702

$$$$
ligand
 OpenBabel11021811423D
libRbt.so/2013.1/901 2013/11/27
 10 11  0  0  0  0  0  0  0  0999 V2000
   11.5246    9.5198   29.5223 N   0  0  0  0  0  0  0  0  0  0  0  0
   11.3654   10.8781   29.3092 C   0  0  0  0  0  0  0  0  0  0  0  0
   11.1294   11.3798   28.0909 N   0  0  0  0  0  0  0  0  0  0  0  0
   11.0670   10.4167   27.1151 C   0  0  0  0  0  0  0  0  0  0  0  0
   11.2167    9.0574   27.2669 C   0  0  0  0  0  0  0  0  0  0  0  0
   11.4677    8.5137   28.5572 C   0  0  0  0  0  0  0  0  0  0  0  0
   11.6315    7.3387   28.9095 O   0  0  0  0  0  0  0  0  0  0  0  0
   11.0798    8.4644   26.0389 N   0  0  0  0  0  0  0  0  0  0  0  0
   10.8482    9.4540   25.1553 C   0  0  0  0  0  0  0  0  0  0  0  0
   10.8358   10.6721   25.7868 N   0  0  0  0  0  0  0  0  0  0  0  0
  1  2  1  0  0  0  0
  1  6  1  0  0  0  0
  2  3  2  0  0  0  0
  3  4  1  0  0  0  0
  4  5  2  0  0  0  0
  4 10  1  0  0  0  0
  5  6  1  0  0  0  0
  5  8  1  0  0  0  0
  6  7  2  0  0  0  0
  8  9  1  0  0  0  0
  9 10  2  0  0  0  0
M  END
>  <CHROM.1>
11.22463912,9.52866201,27.60248036,0.24234970,-1.39128407,0.53610107

>  <Name>
ligand

>  <RI>
0

>  <Rbt.Current_Directory>
/home/itssahil/PROJECTS/Mol_Feturizer/New_Systems/rnas/2EET

>  <Rbt.Executable>
rbdock ($Id: //depot/dev/client3/rdock/2013.1/src/exe/rbdock.cxx#4 $)

>  <Rbt.Library>
libRbt.so (2013.1, Build901 2013/11/27)

>  <Rbt.Parameter_File>
/export/apps/rDock/src/rDock_2013.1_src/data/scripts/dock_solv.prm

>  <Rbt.Receptor>
prm/pocket_docking_7.prm

>  <SCORE>
-18.0355

>  <SCORE.INTER>
-18.0355

>  <SCORE.INTER.CONST>
1

>  <SCORE.INTER.POLAR>
0

>  <SCORE.INTER.ROT>
0

>  <SCORE.INTER.SOLV>
4.13714

>  <SCORE.INTER.VDW>
-17.0027

>  <SCORE.INTER.norm>
-1.80355

>  <SCORE.INTRA>
0

>  <SCORE.INTRA.DIHEDRAL>
0

>  <SCORE.INTRA.DIHEDRAL.0>
0

>  <SCORE.INTRA.POLAR>
0

>  <SCORE.INTRA.POLAR.0>
0

>  <SCORE.INTRA.REPUL>
0

>  <SCORE.INTRA.REPUL.0>
0

>  <SCORE.INTRA.SOLV>
0

>  <SCORE.INTRA.SOLV.lig_0>
-4.28464

>  <SCORE.INTRA.VDW>
0

>  <SCORE.INTRA.VDW.0>
0

>  <SCORE.INTRA.norm>
0

>  <SCORE.RESTR>
0

>  <SCORE.RESTR.CAVITY>
0

>  <SCORE.RESTR.norm>
0

>  <SCORE.SYSTEM>
0

>  <SCORE.SYSTEM.CONST>
0

>  <SCORE.SYSTEM.DIHEDRAL>
0

>  <SCORE.SYSTEM.SOLV>
0

>  <SCORE.SYSTEM.norm>
0

>  <SCORE.heavy>
10

>  <SCORE.norm>
-1.80355

>  <RMSD>
0.702

$$$$
ligand
 OpenBabel11021811423D
libRbt.so/2013.1/901 2013/11/27
 10 11  0  0  0  0  0  0  0  0999 V2000
   11.5035    9.4801   29.5213 N   0  0  0  0  0  0  0  0  0  0  0  0
   11.3703   10.8416   29.3105 C   0  0  0  0  0  0  0  0  0  0  0  0
   11.1413   11.3496   28.0935 N   0  0  0  0  0  0  0  0  0  0  0  0
   11.0580   10.3894   27.1164 C   0  0  0  0  0  0  0  0  0  0  0  0
   11.1816    9.0272   27.2658 C   0  0  0  0  0  0  0  0  0  0  0  0
   11.4249    8.4767   28.5548 C   0  0  0  0  0  0  0  0  0  0  0  0
   11.5666    7.2983   28.9050 O   0  0  0  0  0  0  0  0  0  0  0  0
   11.0304    8.4389   26.0373 N   0  0  0  0  0  0  0  0  0  0  0  0
   10.8162    9.4342   25.1557 C   0  0  0  0  0  0  0  0  0  0  0  0
   10.8289   10.6513   25.7890 N   0  0  0  0  0  0  0  0  0  0  0  0
  1  2  1  0  0  0  0
  1  6  1  0  0  0  0
  2  3  2  0  0  0  0
  3  4  1  0  0  0  0
  4  5  2  0  0  0  0
  4 10  1  0  0  0  0
  5  6  1  0  0  0  0
  5  8  1  0  0  0  0
  6  7  2  0  0  0  0
  8  9  1  0  0  0  0
  9 10  2  0  0  0  0
M  END
>  <CHROM.1>
11.19948074,9.49773733,27.60211933,0.13799376,-1.39836929,0.43486027

>  <Name>
ligand

>  <RI>
0

>  <Rbt.Current_Directory>
/home/itssahil/PROJECTS/Mol_Feturizer/New_Systems/rnas/2EET

>  <Rbt.Executable>
rbdock ($Id: //depot/dev/client3/rdock/2013.1/src/exe/rbdock.cxx#4 $)

>  <Rbt.Library>
libRbt.so (2013.1, Build901 2013/11/27)

>  <Rbt.Parameter_File>
/export/apps/rDock/src/rDock_2013.1_src/data/scripts/dock_solv.prm

>  <Rbt.Receptor>
prm/pocket_docking_8.prm

>  <SCORE>
-18.0665

>  <SCORE.INTER>
-18.0665

>  <SCORE.INTER.CONST>
1

>  <SCORE.INTER.POLAR>
0

>  <SCORE.INTER.ROT>
0

>  <SCORE.INTER.SOLV>
4.21648

>  <SCORE.INTER.VDW>
-17.0498

>  <SCORE.INTER.norm>
-1.80665

>  <SCORE.INTRA>
0

>  <SCORE.INTRA.DIHEDRAL>
0

>  <SCORE.INTRA.DIHEDRAL.0>
0

>  <SCORE.INTRA.POLAR>
0

>  <SCORE.INTRA.POLAR.0>
0

>  <SCORE.INTRA.REPUL>
0

>  <SCORE.INTRA.REPUL.0>
0

>  <SCORE.INTRA.SOLV>
0

>  <SCORE.INTRA.SOLV.lig_0>
-4.28464

>  <SCORE.INTRA.VDW>
0

>  <SCORE.INTRA.VDW.0>
0

>  <SCORE.INTRA.norm>
0

>  <SCORE.RESTR>
0

>  <SCORE.RESTR.CAVITY>
0

>  <SCORE.RESTR.norm>
0

>  <SCORE.SYSTEM>
0

>  <SCORE.SYSTEM.CONST>
0

>  <SCORE.SYSTEM.DIHEDRAL>
0

>  <SCORE.SYSTEM.SOLV>
0

>  <SCORE.SYSTEM.norm>
0

>  <SCORE.heavy>
10

>  <SCORE.norm>
-1.80665

>  <RMSD>
0.702

$$$$
ligand
 OpenBabel11021811423D
libRbt.so/2013.1/901 2013/11/27
 10 11  0  0  0  0  0  0  0  0999 V2000
   11.5146    9.5035   29.5167 N   0  0  0  0  0  0  0  0  0  0  0  0
   11.3693   10.8642   29.3089 C   0  0  0  0  0  0  0  0  0  0  0  0
   11.1328   11.3726   28.0935 N   0  0  0  0  0  0  0  0  0  0  0  0
   11.0551   10.4135   27.1148 C   0  0  0  0  0  0  0  0  0  0  0  0
   11.1906    9.0522   27.2613 C   0  0  0  0  0  0  0  0  0  0  0  0
   11.4420    8.5014   28.5485 C   0  0  0  0  0  0  0  0  0  0  0  0
   11.5947    7.3235   28.8961 O   0  0  0  0  0  0  0  0  0  0  0  0
   11.0412    8.4649   26.0320 N   0  0  0  0  0  0  0  0  0  0  0  0
   10.8162    9.4600   25.1529 C   0  0  0  0  0  0  0  0  0  0  0  0
   10.8202   10.6760   25.7885 N   0  0  0  0  0  0  0  0  0  0  0  0
  1  2  1  0  0  0  0
  1  6  1  0  0  0  0
  2  3  2  0  0  0  0
  3  4  1  0  0  0  0
  4  5  2  0  0  0  0
  4 10  1  0  0  0  0
  5  6  1  0  0  0  0
  5  8  1  0  0  0  0
  6  7  2  0  0  0  0
  8  9  1  0  0  0  0
  9 10  2  0  0  0  0
M  END
>  <CHROM.1>
11.20540412,9.52219929,27.59843389,0.17503956,-1.39227023,0.47322826

>  <Name>
ligand

>  <RI>
0

>  <Rbt.Current_Directory>
/home/itssahil/PROJECTS/Mol_Feturizer/New_Systems/rnas/2EET

>  <Rbt.Executable>
rbdock ($Id: //depot/dev/client3/rdock/2013.1/src/exe/rbdock.cxx#4 $)

>  <Rbt.Library>
libRbt.so (2013.1, Build901 2013/11/27)

>  <Rbt.Parameter_File>
/export/apps/rDock/src/rDock_2013.1_src/data/scripts/dock_solv.prm

>  <Rbt.Receptor>
prm/blind_docking_40.prm

>  <SCORE>
-18.0424

>  <SCORE.INTER>
-18.0424

>  <SCORE.INTER.CONST>
1

>  <SCORE.INTER.POLAR>
0

>  <SCORE.INTER.ROT>
0

>  <SCORE.INTER.SOLV>
4.17406

>  <SCORE.INTER.VDW>
-17.0196

>  <SCORE.INTER.norm>
-1.80424

>  <SCORE.INTRA>
0

>  <SCORE.INTRA.DIHEDRAL>
0

>  <SCORE.INTRA.DIHEDRAL.0>
0

>  <SCORE.INTRA.POLAR>
0

>  <SCORE.INTRA.POLAR.0>
0

>  <SCORE.INTRA.REPUL>
0

>  <SCORE.INTRA.REPUL.0>
0

>  <SCORE.INTRA.SOLV>
0

>  <SCORE.INTRA.SOLV.lig_0>
-4.28464

>  <SCORE.INTRA.VDW>
0

>  <SCORE.INTRA.VDW.0>
0

>  <SCORE.INTRA.norm>
0

>  <SCORE.RESTR>
0

>  <SCORE.RESTR.CAVITY>
0

>  <SCORE.RESTR.norm>
0

>  <SCORE.SYSTEM>
0

>  <SCORE.SYSTEM.CONST>
0

>  <SCORE.SYSTEM.DIHEDRAL>
0

>  <SCORE.SYSTEM.SOLV>
0

>  <SCORE.SYSTEM.norm>
0

>  <SCORE.heavy>
10

>  <SCORE.norm>
-1.80424

>  <RMSD>
0.703

$$$$
ligand
 OpenBabel11021811423D
libRbt.so/2013.1/901 2013/11/27
 10 11  0  0  0  0  0  0  0  0999 V2000
   11.5263    9.5038   29.4802 N   0  0  0  0  0  0  0  0  0  0  0  0
   11.3631   10.8660   29.2966 C   0  0  0  0  0  0  0  0  0  0  0  0
   11.1197   11.3927   28.0904 N   0  0  0  0  0  0  0  0  0  0  0  0
   11.0543   10.4503   27.0948 C   0  0  0  0  0  0  0  0  0  0  0  0
   11.2077    9.0884   27.2171 C   0  0  0  0  0  0  0  0  0  0  0  0
   11.4665    8.5182   28.4943 C   0  0  0  0  0  0  0  0  0  0  0  0
   11.6347    7.3364   28.8209 O   0  0  0  0  0  0  0  0  0  0  0  0
   11.0657    8.5212   25.9775 N   0  0  0  0  0  0  0  0  0  0  0  0
   10.8275    9.5287   25.1162 C   0  0  0  0  0  0  0  0  0  0  0  0
   10.8158   10.7332   25.7733 N   0  0  0  0  0  0  0  0  0  0  0  0
  1  2  1  0  0  0  0
  1  6  1  0  0  0  0
  2  3  2  0  0  0  0
  3  4  1  0  0  0  0
  4  5  2  0  0  0  0
  4 10  1  0  0  0  0
  5  6  1  0  0  0  0
  5  8  1  0  0  0  0
  6  7  2  0  0  0  0
  8  9  1  0  0  0  0
  9 10  2  0  0  0  0
M  END
>  <CHROM.1>
11.21641173,9.55252624,27.56249724,0.23787250,-1.38575638,0.55279463

>  <Name>
ligand

>  <RI>
0

>  <Rbt.Current_Directory>
/home/itssahil/PROJECTS/Mol_Feturizer/New_Systems/rnas/2EET

>  <Rbt.Executable>
rbdock ($Id: //depot/dev/client3/rdock/2013.1/src/exe/rbdock.cxx#4 $)

>  <Rbt.Library>
libRbt.so (2013.1, Build901 2013/11/27)

>  <Rbt.Parameter_File>
/export/apps/rDock/src/rDock_2013.1_src/data/scripts/dock_solv.prm

>  <Rbt.Receptor>
prm/pocket_docking_7.prm

>  <SCORE>
-17.9954

>  <SCORE.INTER>
-17.9954

>  <SCORE.INTER.CONST>
1

>  <SCORE.INTER.POLAR>
0

>  <SCORE.INTER.ROT>
0

>  <SCORE.INTER.SOLV>
4.07561

>  <SCORE.INTER.VDW>
-16.9554

>  <SCORE.INTER.norm>
-1.79954

>  <SCORE.INTRA>
0

>  <SCORE.INTRA.DIHEDRAL>
0

>  <SCORE.INTRA.DIHEDRAL.0>
0

>  <SCORE.INTRA.POLAR>
0

>  <SCORE.INTRA.POLAR.0>
0

>  <SCORE.INTRA.REPUL>
0

>  <SCORE.INTRA.REPUL.0>
0

>  <SCORE.INTRA.SOLV>
0

>  <SCORE.INTRA.SOLV.lig_0>
-4.28464

>  <SCORE.INTRA.VDW>
0

>  <SCORE.INTRA.VDW.0>
0

>  <SCORE.INTRA.norm>
0

>  <SCORE.RESTR>
0

>  <SCORE.RESTR.CAVITY>
0

>  <SCORE.RESTR.norm>
0

>  <SCORE.SYSTEM>
0

>  <SCORE.SYSTEM.CONST>
0

>  <SCORE.SYSTEM.DIHEDRAL>
0

>  <SCORE.SYSTEM.SOLV>
0

>  <SCORE.SYSTEM.norm>
0

>  <SCORE.heavy>
10

>  <SCORE.norm>
-1.79954

>  <RMSD>
0.703

$$$$
ligand
 OpenBabel11021811423D
libRbt.so/2013.1/901 2013/11/27
 10 11  0  0  0  0  0  0  0  0999 V2000
   11.5206    9.5060   29.5156 N   0  0  0  0  0  0  0  0  0  0  0  0
   11.3730   10.8661   29.3059 C   0  0  0  0  0  0  0  0  0  0  0  0
   11.1330   11.3721   28.0901 N   0  0  0  0  0  0  0  0  0  0  0  0
   11.0543   10.4113   27.1132 C   0  0  0  0  0  0  0  0  0  0  0  0
   11.1920    9.0503   27.2617 C   0  0  0  0  0  0  0  0  0  0  0  0
   11.4471    8.5021   28.5493 C   0  0  0  0  0  0  0  0  0  0  0  0
   11.6021    7.3250   28.8985 O   0  0  0  0  0  0  0  0  0  0  0  0
   11.0406    8.4608   26.0337 N   0  0  0  0  0  0  0  0  0  0  0  0
   10.8123    9.4541   25.1535 C   0  0  0  0  0  0  0  0  0  0  0  0
   10.8161   10.6712   25.7870 N   0  0  0  0  0  0  0  0  0  0  0  0
  1  2  1  0  0  0  0
  1  6  1  0  0  0  0
  2  3  2  0  0  0  0
  3  4  1  0  0  0  0
  4  5  2  0  0  0  0
  4 10  1  0  0  0  0
  5  6  1  0  0  0  0
  5  8  1  0  0  0  0
  6  7  2  0  0  0  0
  8  9  1  0  0  0  0
  9 10  2  0  0  0  0
M  END
>  <CHROM.1>
11.20695401,9.52097097,27.59798941,0.17596877,-1.38963787,0.47245451

>  <Name>
ligand

>  <RI>
0

>  <Rbt.Current_Directory>
/home/itssahil/PROJECTS/Mol_Feturizer/New_Systems/rnas/2EET

>  <Rbt.Executable>
rbdock ($Id: //depot/dev/client3/rdock/2013.1/src/exe/rbdock.cxx#4 $)

>  <Rbt.Library>
libRbt.so (2013.1, Build901 2013/11/27)

>  <Rbt.Parameter_File>
/export/apps/rDock/src/rDock_2013.1_src/data/scripts/dock_solv.prm

>  <Rbt.Receptor>
prm/pocket_docking_7.prm

>  <SCORE>
-18.0399

>  <SCORE.INTER>
-18.0399

>  <SCORE.INTER.CONST>
1

>  <SCORE.INTER.POLAR>
0

>  <SCORE.INTER.ROT>
0

>  <SCORE.INTER.SOLV>
4.16504

>  <SCORE.INTER.VDW>
-17.015

>  <SCORE.INTER.norm>
-1.80399

>  <SCORE.INTRA>
0

>  <SCORE.INTRA.DIHEDRAL>
0

>  <SCORE.INTRA.DIHEDRAL.0>
0

>  <SCORE.INTRA.POLAR>
0

>  <SCORE.INTRA.POLAR.0>
0

>  <SCORE.INTRA.REPUL>
0

>  <SCORE.INTRA.REPUL.0>
0

>  <SCORE.INTRA.SOLV>
0

>  <SCORE.INTRA.SOLV.lig_0>
-4.28464

>  <SCORE.INTRA.VDW>
0

>  <SCORE.INTRA.VDW.0>
0

>  <SCORE.INTRA.norm>
0

>  <SCORE.RESTR>
0

>  <SCORE.RESTR.CAVITY>
0

>  <SCORE.RESTR.norm>
0

>  <SCORE.SYSTEM>
0

>  <SCORE.SYSTEM.CONST>
0

>  <SCORE.SYSTEM.DIHEDRAL>
0

>  <SCORE.SYSTEM.SOLV>
0

>  <SCORE.SYSTEM.norm>
0

>  <SCORE.heavy>
10

>  <SCORE.norm>
-1.80399

>  <RMSD>
0.703

$$$$
ligand
 OpenBabel11021811423D
libRbt.so/2013.1/901 2013/11/27
 10 11  0  0  0  0  0  0  0  0999 V2000
   11.4985    9.4780   29.4914 N   0  0  0  0  0  0  0  0  0  0  0  0
   11.3603   10.8423   29.3033 C   0  0  0  0  0  0  0  0  0  0  0  0
   11.1328   11.3699   28.0943 N   0  0  0  0  0  0  0  0  0  0  0  0
   11.0564   10.4259   27.1009 C   0  0  0  0  0  0  0  0  0  0  0  0
   11.1851    9.0619   27.2277 C   0  0  0  0  0  0  0  0  0  0  0  0
   11.4269    8.4908   28.5079 C   0  0  0  0  0  0  0  0  0  0  0  0
   11.5724    7.3072   28.8386 O   0  0  0  0  0  0  0  0  0  0  0  0
   11.0401    8.4939   25.9889 N   0  0  0  0  0  0  0  0  0  0  0  0
   10.8243    9.5030   25.1236 C   0  0  0  0  0  0  0  0  0  0  0  0
   10.8301   10.7093   25.7774 N   0  0  0  0  0  0  0  0  0  0  0  0
  1  2  1  0  0  0  0
  1  6  1  0  0  0  0
  2  3  2  0  0  0  0
  3  4  1  0  0  0  0
  4  5  2  0  0  0  0
  4 10  1  0  0  0  0
  5  6  1  0  0  0  0
  5  8  1  0  0  0  0
  6  7  2  0  0  0  0
  8  9  1  0  0  0  0
  9 10  2  0  0  0  0
M  END
>  <CHROM.1>
11.20008861,9.52681131,27.57191407,0.16723830,-1.39925686,0.48054598

>  <Name>
ligand

>  <RI>
0

>  <Rbt.Current_Directory>
/home/itssahil/PROJECTS/Mol_Feturizer/New_Systems/rnas/2EET

>  <Rbt.Executable>
rbdock ($Id: //depot/dev/client3/rdock/2013.1/src/exe/rbdock.cxx#4 $)

>  <Rbt.Library>
libRbt.so (2013.1, Build901 2013/11/27)

>  <Rbt.Parameter_File>
/export/apps/rDock/src/rDock_2013.1_src/data/scripts/dock_solv.prm

>  <Rbt.Receptor>
prm/blind_docking_60.prm

>  <SCORE>
-18.0475

>  <SCORE.INTER>
-18.0475

>  <SCORE.INTER.CONST>
1

>  <SCORE.INTER.POLAR>
0

>  <SCORE.INTER.ROT>
0

>  <SCORE.INTER.SOLV>
4.17271

>  <SCORE.INTER.VDW>
-17.0226

>  <SCORE.INTER.norm>
-1.80475

>  <SCORE.INTRA>
0

>  <SCORE.INTRA.DIHEDRAL>
0

>  <SCORE.INTRA.DIHEDRAL.0>
0

>  <SCORE.INTRA.POLAR>
0

>  <SCORE.INTRA.POLAR.0>
0

>  <SCORE.INTRA.REPUL>
0

>  <SCORE.INTRA.REPUL.0>
0

>  <SCORE.INTRA.SOLV>
0

>  <SCORE.INTRA.SOLV.lig_0>
-4.28464

>  <SCORE.INTRA.VDW>
0

>  <SCORE.INTRA.VDW.0>
0

>  <SCORE.INTRA.norm>
0

>  <SCORE.RESTR>
0

>  <SCORE.RESTR.CAVITY>
0

>  <SCORE.RESTR.norm>
0

>  <SCORE.SYSTEM>
0

>  <SCORE.SYSTEM.CONST>
0

>  <SCORE.SYSTEM.DIHEDRAL>
0

>  <SCORE.SYSTEM.SOLV>
0

>  <SCORE.SYSTEM.norm>
0

>  <SCORE.heavy>
10

>  <SCORE.norm>
-1.80475

>  <RMSD>
0.704

$$$$
ligand
 OpenBabel11021811423D
libRbt.so/2013.1/901 2013/11/27
 10 11  0  0  0  0  0  0  0  0999 V2000
   11.5039    9.4809   29.4884 N   0  0  0  0  0  0  0  0  0  0  0  0
   11.3600   10.8446   29.3003 C   0  0  0  0  0  0  0  0  0  0  0  0
   11.1272   11.3711   28.0919 N   0  0  0  0  0  0  0  0  0  0  0  0
   11.0516   10.4267   27.0989 C   0  0  0  0  0  0  0  0  0  0  0  0
   11.1858    9.0632   27.2256 C   0  0  0  0  0  0  0  0  0  0  0  0
   11.4332    8.4932   28.5052 C   0  0  0  0  0  0  0  0  0  0  0  0
   11.5842    7.3102   28.8357 O   0  0  0  0  0  0  0  0  0  0  0  0
   11.0395    8.4944   25.9873 N   0  0  0  0  0  0  0  0  0  0  0  0
   10.8175    9.5025   25.1224 C   0  0  0  0  0  0  0  0  0  0  0  0
   10.8206   10.7089   25.7760 N   0  0  0  0  0  0  0  0  0  0  0  0
  1  2  1  0  0  0  0
  1  6  1  0  0  0  0
  2  3  2  0  0  0  0
  3  4  1  0  0  0  0
  4  5  2  0  0  0  0
  4 10  1  0  0  0  0
  5  6  1  0  0  0  0
  5  8  1  0  0  0  0
  6  7  2  0  0  0  0
  8  9  1  0  0  0  0
  9 10  2  0  0  0  0
M  END
>  <CHROM.1>
11.19997421,9.52819218,27.56967693,0.17909425,-1.39503769,0.49204107

>  <Name>
ligand

>  <RI>
0

>  <Rbt.Current_Directory>
/home/itssahil/PROJECTS/Mol_Feturizer/New_Systems/rnas/2EET

>  <Rbt.Executable>
rbdock ($Id: //depot/dev/client3/rdock/2013.1/src/exe/rbdock.cxx#4 $)

>  <Rbt.Library>
libRbt.so (2013.1, Build901 2013/11/27)

>  <Rbt.Parameter_File>
/export/apps/rDock/src/rDock_2013.1_src/data/scripts/dock_solv.prm

>  <Rbt.Receptor>
prm/pocket_docking_5.prm

>  <SCORE>
-18.0406

>  <SCORE.INTER>
-18.0406

>  <SCORE.INTER.CONST>
1

>  <SCORE.INTER.POLAR>
0

>  <SCORE.INTER.ROT>
0

>  <SCORE.INTER.SOLV>
4.15258

>  <SCORE.INTER.VDW>
-17.0113

>  <SCORE.INTER.norm>
-1.80406

>  <SCORE.INTRA>
0

>  <SCORE.INTRA.DIHEDRAL>
0

>  <SCORE.INTRA.DIHEDRAL.0>
0

>  <SCORE.INTRA.POLAR>
0

>  <SCORE.INTRA.POLAR.0>
0

>  <SCORE.INTRA.REPUL>
0

>  <SCORE.INTRA.REPUL.0>
0

>  <SCORE.INTRA.SOLV>
0

>  <SCORE.INTRA.SOLV.lig_0>
-4.28464

>  <SCORE.INTRA.VDW>
0

>  <SCORE.INTRA.VDW.0>
0

>  <SCORE.INTRA.norm>
0

>  <SCORE.RESTR>
0

>  <SCORE.RESTR.CAVITY>
0

>  <SCORE.RESTR.norm>
0

>  <SCORE.SYSTEM>
0

>  <SCORE.SYSTEM.CONST>
0

>  <SCORE.SYSTEM.DIHEDRAL>
0

>  <SCORE.SYSTEM.SOLV>
0

>  <SCORE.SYSTEM.norm>
0

>  <SCORE.heavy>
10

>  <SCORE.norm>
-1.80406

>  <RMSD>
0.704

$$$$
ligand
 OpenBabel11021811423D
libRbt.so/2013.1/901 2013/11/27
 10 11  0  0  0  0  0  0  0  0999 V2000
   11.5069    9.4863   29.5094 N   0  0  0  0  0  0  0  0  0  0  0  0
   11.3731   10.8489   29.3067 C   0  0  0  0  0  0  0  0  0  0  0  0
   11.1376   11.3636   28.0938 N   0  0  0  0  0  0  0  0  0  0  0  0
   11.0484   10.4087   27.1120 C   0  0  0  0  0  0  0  0  0  0  0  0
   11.1723    9.0457   27.2534 C   0  0  0  0  0  0  0  0  0  0  0  0
   11.4225    8.4882   28.5379 C   0  0  0  0  0  0  0  0  0  0  0  0
   11.5658    7.3078   28.8810 O   0  0  0  0  0  0  0  0  0  0  0  0
   11.0141    8.4641   26.0225 N   0  0  0  0  0  0  0  0  0  0  0  0
   10.7954    9.4641   25.1475 C   0  0  0  0  0  0  0  0  0  0  0  0
   10.8120   10.6779   25.7873 N   0  0  0  0  0  0  0  0  0  0  0  0
  1  2  1  0  0  0  0
  1  6  1  0  0  0  0
  2  3  2  0  0  0  0
  3  4  1  0  0  0  0
  4  5  2  0  0  0  0
  4 10  1  0  0  0  0
  5  6  1  0  0  0  0
  5  8  1  0  0  0  0
  6  7  2  0  0  0  0
  8  9  1  0  0  0  0
  9 10  2  0  0  0  0
M  END
>  <CHROM.1>
11.19226382,9.51439788,27.59208865,0.12267649,-1.39347815,0.42516169

>  <Name>
ligand

>  <RI>
0

>  <Rbt.Current_Directory>
/home/itssahil/PROJECTS/Mol_Feturizer/New_Systems/rnas/2EET

>  <Rbt.Executable>
rbdock ($Id: //depot/dev/client3/rdock/2013.1/src/exe/rbdock.cxx#4 $)

>  <Rbt.Library>
libRbt.so (2013.1, Build901 2013/11/27)

>  <Rbt.Parameter_File>
/export/apps/rDock/src/rDock_2013.1_src/data/scripts/dock_solv.prm

>  <Rbt.Receptor>
prm/pocket_docking_8.prm

>  <SCORE>
-18.0622

>  <SCORE.INTER>
-18.0623

>  <SCORE.INTER.CONST>
1

>  <SCORE.INTER.POLAR>
0

>  <SCORE.INTER.ROT>
0

>  <SCORE.INTER.SOLV>
4.20058

>  <SCORE.INTER.VDW>
-17.0417

>  <SCORE.INTER.norm>
-1.80623

>  <SCORE.INTRA>
0

>  <SCORE.INTRA.DIHEDRAL>
0

>  <SCORE.INTRA.DIHEDRAL.0>
0

>  <SCORE.INTRA.POLAR>
0

>  <SCORE.INTRA.POLAR.0>
0

>  <SCORE.INTRA.REPUL>
0

>  <SCORE.INTRA.REPUL.0>
0

>  <SCORE.INTRA.SOLV>
0

>  <SCORE.INTRA.SOLV.lig_0>
-4.28464

>  <SCORE.INTRA.VDW>
0

>  <SCORE.INTRA.VDW.0>
0

>  <SCORE.INTRA.norm>
0

>  <SCORE.RESTR>
3.88354e-05

>  <SCORE.RESTR.CAVITY>
3.88354e-05

>  <SCORE.RESTR.norm>
3.88354e-06

>  <SCORE.SYSTEM>
0

>  <SCORE.SYSTEM.CONST>
0

>  <SCORE.SYSTEM.DIHEDRAL>
0

>  <SCORE.SYSTEM.SOLV>
0

>  <SCORE.SYSTEM.norm>
0

>  <SCORE.heavy>
10

>  <SCORE.norm>
-1.80622

>  <RMSD>
0.704

$$$$
ligand
 OpenBabel11021811423D
libRbt.so/2013.1/901 2013/11/27
 10 11  0  0  0  0  0  0  0  0999 V2000
   11.5106    9.5085   29.5188 N   0  0  0  0  0  0  0  0  0  0  0  0
   11.3592   10.8681   29.3083 C   0  0  0  0  0  0  0  0  0  0  0  0
   11.1292   11.3738   28.0905 N   0  0  0  0  0  0  0  0  0  0  0  0
   11.0644   10.4132   27.1123 C   0  0  0  0  0  0  0  0  0  0  0  0
   11.2065    9.0528   27.2614 C   0  0  0  0  0  0  0  0  0  0  0  0
   11.4510    8.5049   28.5512 C   0  0  0  0  0  0  0  0  0  0  0  0
   11.6076    7.3283   28.9013 O   0  0  0  0  0  0  0  0  0  0  0  0
   11.0699    8.4634   26.0317 N   0  0  0  0  0  0  0  0  0  0  0  0
   10.8460    9.4562   25.1497 C   0  0  0  0  0  0  0  0  0  0  0  0
   10.8383   10.6729   25.7839 N   0  0  0  0  0  0  0  0  0  0  0  0
  1  2  1  0  0  0  0
  1  6  1  0  0  0  0
  2  3  2  0  0  0  0
  3  4  1  0  0  0  0
  4  5  2  0  0  0  0
  4 10  1  0  0  0  0
  5  6  1  0  0  0  0
  5  8  1  0  0  0  0
  6  7  2  0  0  0  0
  8  9  1  0  0  0  0
  9 10  2  0  0  0  0
M  END
>  <CHROM.1>
11.21603141,9.52329492,27.59811785,0.22416701,-1.39637050,0.52046389

>  <Name>
ligand

>  <RI>
0

>  <Rbt.Current_Directory>
/home/itssahil/PROJECTS/Mol_Feturizer/New_Systems/rnas/2EET

>  <Rbt.Executable>
rbdock ($Id: //depot/dev/client3/rdock/2013.1/src/exe/rbdock.cxx#4 $)

>  <Rbt.Library>
libRbt.so (2013.1, Build901 2013/11/27)

>  <Rbt.Parameter_File>
/export/apps/rDock/src/rDock_2013.1_src/data/scripts/dock_solv.prm

>  <Rbt.Receptor>
prm/blind_docking_100.prm

>  <SCORE>
-18.0539

>  <SCORE.INTER>
-18.0539

>  <SCORE.INTER.CONST>
1

>  <SCORE.INTER.POLAR>
0

>  <SCORE.INTER.ROT>
0

>  <SCORE.INTER.SOLV>
4.16244

>  <SCORE.INTER.VDW>
-17.0234

>  <SCORE.INTER.norm>
-1.80539

>  <SCORE.INTRA>
0

>  <SCORE.INTRA.DIHEDRAL>
0

>  <SCORE.INTRA.DIHEDRAL.0>
0

>  <SCORE.INTRA.POLAR>
0

>  <SCORE.INTRA.POLAR.0>
0

>  <SCORE.INTRA.REPUL>
0

>  <SCORE.INTRA.REPUL.0>
0

>  <SCORE.INTRA.SOLV>
0

>  <SCORE.INTRA.SOLV.lig_0>
-4.28464

>  <SCORE.INTRA.VDW>
0

>  <SCORE.INTRA.VDW.0>
0

>  <SCORE.INTRA.norm>
0

>  <SCORE.RESTR>
0

>  <SCORE.RESTR.CAVITY>
0

>  <SCORE.RESTR.norm>
0

>  <SCORE.SYSTEM>
0

>  <SCORE.SYSTEM.CONST>
0

>  <SCORE.SYSTEM.DIHEDRAL>
0

>  <SCORE.SYSTEM.SOLV>
0

>  <SCORE.SYSTEM.norm>
0

>  <SCORE.heavy>
10

>  <SCORE.norm>
-1.80539

>  <RMSD>
0.705

$$$$
ligand
 OpenBabel11021811423D
libRbt.so/2013.1/901 2013/11/27
 10 11  0  0  0  0  0  0  0  0999 V2000
   11.5156    9.5107   29.5167 N   0  0  0  0  0  0  0  0  0  0  0  0
   11.3624   10.8701   29.3060 C   0  0  0  0  0  0  0  0  0  0  0  0
   11.1312   11.3752   28.0882 N   0  0  0  0  0  0  0  0  0  0  0  0
   11.0672   10.4143   27.1103 C   0  0  0  0  0  0  0  0  0  0  0  0
   11.2110    9.0541   27.2596 C   0  0  0  0  0  0  0  0  0  0  0  0
   11.4569    8.5068   28.5494 C   0  0  0  0  0  0  0  0  0  0  0  0
   11.6152    7.3305   28.8997 O   0  0  0  0  0  0  0  0  0  0  0  0
   11.0746    8.4643   26.0301 N   0  0  0  0  0  0  0  0  0  0  0  0
   10.8491    9.4565   25.1480 C   0  0  0  0  0  0  0  0  0  0  0  0
   10.8401   10.6734   25.7819 N   0  0  0  0  0  0  0  0  0  0  0  0
  1  2  1  0  0  0  0
  1  6  1  0  0  0  0
  2  3  2  0  0  0  0
  3  4  1  0  0  0  0
  4  5  2  0  0  0  0
  4 10  1  0  0  0  0
  5  6  1  0  0  0  0
  5  8  1  0  0  0  0
  6  7  2  0  0  0  0
  8  9  1  0  0  0  0
  9 10  2  0  0  0  0
M  END
>  <CHROM.1>
11.22015572,9.52470034,27.59617974,0.22917845,-1.39530914,0.52517284

>  <Name>
ligand

>  <RI>
0

>  <Rbt.Current_Directory>
/home/itssahil/PROJECTS/Mol_Feturizer/New_Systems/rnas/2EET

>  <Rbt.Executable>
rbdock ($Id: //depot/dev/client3/rdock/2013.1/src/exe/rbdock.cxx#4 $)

>  <Rbt.Library>
libRbt.so (2013.1, Build901 2013/11/27)

>  <Rbt.Parameter_File>
/export/apps/rDock/src/rDock_2013.1_src/data/scripts/dock_solv.prm

>  <Rbt.Receptor>
prm/blind_docking_100.prm

>  <SCORE>
-18.0469

>  <SCORE.INTER>
-18.0469

>  <SCORE.INTER.CONST>
1

>  <SCORE.INTER.POLAR>
0

>  <SCORE.INTER.ROT>
0

>  <SCORE.INTER.SOLV>
4.1524

>  <SCORE.INTER.VDW>
-17.0154

>  <SCORE.INTER.norm>
-1.80469

>  <SCORE.INTRA>
0

>  <SCORE.INTRA.DIHEDRAL>
0

>  <SCORE.INTRA.DIHEDRAL.0>
0

>  <SCORE.INTRA.POLAR>
0

>  <SCORE.INTRA.POLAR.0>
0

>  <SCORE.INTRA.REPUL>
0

>  <SCORE.INTRA.REPUL.0>
0

>  <SCORE.INTRA.SOLV>
0

>  <SCORE.INTRA.SOLV.lig_0>
-4.28464

>  <SCORE.INTRA.VDW>
0

>  <SCORE.INTRA.VDW.0>
0

>  <SCORE.INTRA.norm>
0

>  <SCORE.RESTR>
0

>  <SCORE.RESTR.CAVITY>
0

>  <SCORE.RESTR.norm>
0

>  <SCORE.SYSTEM>
0

>  <SCORE.SYSTEM.CONST>
0

>  <SCORE.SYSTEM.DIHEDRAL>
0

>  <SCORE.SYSTEM.SOLV>
0

>  <SCORE.SYSTEM.norm>
0

>  <SCORE.heavy>
10

>  <SCORE.norm>
-1.80469

>  <RMSD>
0.705

$$$$
ligand
 OpenBabel11021811423D
libRbt.so/2013.1/901 2013/11/27
 10 11  0  0  0  0  0  0  0  0999 V2000
   11.5085    9.4829   29.4877 N   0  0  0  0  0  0  0  0  0  0  0  0
   11.3683   10.8469   29.2993 C   0  0  0  0  0  0  0  0  0  0  0  0
   11.1339   11.3734   28.0912 N   0  0  0  0  0  0  0  0  0  0  0  0
   11.0528   10.4287   27.0989 C   0  0  0  0  0  0  0  0  0  0  0  0
   11.1833    9.0649   27.2260 C   0  0  0  0  0  0  0  0  0  0  0  0
   11.4323    8.4949   28.5053 C   0  0  0  0  0  0  0  0  0  0  0  0
   11.5806    7.3116   28.8360 O   0  0  0  0  0  0  0  0  0  0  0  0
   11.0320    8.4959   25.9884 N   0  0  0  0  0  0  0  0  0  0  0  0
   10.8108    9.5042   25.1236 C   0  0  0  0  0  0  0  0  0  0  0  0
   10.8192   10.7110   25.7764 N   0  0  0  0  0  0  0  0  0  0  0  0
  1  2  1  0  0  0  0
  1  6  1  0  0  0  0
  2  3  2  0  0  0  0
  3  4  1  0  0  0  0
  4  5  2  0  0  0  0
  4 10  1  0  0  0  0
  5  6  1  0  0  0  0
  5  8  1  0  0  0  0
  6  7  2  0  0  0  0
  8  9  1  0  0  0  0
  9 10  2  0  0  0  0
M  END
>  <CHROM.1>
11.19973676,9.53003798,27.56980183,0.15690866,-1.39411362,0.46965551

>  <Name>
ligand

>  <RI>
0

>  <Rbt.Current_Directory>
/home/itssahil/PROJECTS/Mol_Feturizer/New_Systems/rnas/2EET

>  <Rbt.Executable>
rbdock ($Id: //depot/dev/client3/rdock/2013.1/src/exe/rbdock.cxx#4 $)

>  <Rbt.Library>
libRbt.so (2013.1, Build901 2013/11/27)

>  <Rbt.Parameter_File>
/export/apps/rDock/src/rDock_2013.1_src/data/scripts/dock_solv.prm

>  <Rbt.Receptor>
prm/blind_docking_40.prm

>  <SCORE>
-18.0488

>  <SCORE.INTER>
-18.0488

>  <SCORE.INTER.CONST>
1

>  <SCORE.INTER.POLAR>
0

>  <SCORE.INTER.ROT>
0

>  <SCORE.INTER.SOLV>
4.15678

>  <SCORE.INTER.VDW>
-17.0182

>  <SCORE.INTER.norm>
-1.80488

>  <SCORE.INTRA>
0

>  <SCORE.INTRA.DIHEDRAL>
0

>  <SCORE.INTRA.DIHEDRAL.0>
0

>  <SCORE.INTRA.POLAR>
0

>  <SCORE.INTRA.POLAR.0>
0

>  <SCORE.INTRA.REPUL>
0

>  <SCORE.INTRA.REPUL.0>
0

>  <SCORE.INTRA.SOLV>
0

>  <SCORE.INTRA.SOLV.lig_0>
-4.28464

>  <SCORE.INTRA.VDW>
0

>  <SCORE.INTRA.VDW.0>
0

>  <SCORE.INTRA.norm>
0

>  <SCORE.RESTR>
0

>  <SCORE.RESTR.CAVITY>
0

>  <SCORE.RESTR.norm>
0

>  <SCORE.SYSTEM>
0

>  <SCORE.SYSTEM.CONST>
0

>  <SCORE.SYSTEM.DIHEDRAL>
0

>  <SCORE.SYSTEM.SOLV>
0

>  <SCORE.SYSTEM.norm>
0

>  <SCORE.heavy>
10

>  <SCORE.norm>
-1.80488

>  <RMSD>
0.705

$$$$
ligand
 OpenBabel11021811423D
libRbt.so/2013.1/901 2013/11/27
 10 11  0  0  0  0  0  0  0  0999 V2000
   11.5045    9.4866   29.5007 N   0  0  0  0  0  0  0  0  0  0  0  0
   11.3438   10.8460   29.2966 C   0  0  0  0  0  0  0  0  0  0  0  0
   11.1049   11.3553   28.0820 N   0  0  0  0  0  0  0  0  0  0  0  0
   11.0413   10.3984   27.1002 C   0  0  0  0  0  0  0  0  0  0  0  0
   11.1924    9.0383   27.2429 C   0  0  0  0  0  0  0  0  0  0  0  0
   11.4464    8.4866   28.5292 C   0  0  0  0  0  0  0  0  0  0  0  0
   11.6119    7.3095   28.8737 O   0  0  0  0  0  0  0  0  0  0  0  0
   11.0536    8.4531   26.0114 N   0  0  0  0  0  0  0  0  0  0  0  0
   10.8194    9.4481   25.1347 C   0  0  0  0  0  0  0  0  0  0  0  0
   10.8073   10.6622   25.7739 N   0  0  0  0  0  0  0  0  0  0  0  0
  1  2  1  0  0  0  0
  1  6  1  0  0  0  0
  2  3  2  0  0  0  0
  3  4  1  0  0  0  0
  4  5  2  0  0  0  0
  4 10  1  0  0  0  0
  5  6  1  0  0  0  0
  5  8  1  0  0  0  0
  6  7  2  0  0  0  0
  8  9  1  0  0  0  0
  9 10  2  0  0  0  0
M  END
>  <CHROM.1>
11.20068855,9.50744525,27.58152340,0.24045269,-1.38915429,0.54062935

>  <Name>
ligand

>  <RI>
0

>  <Rbt.Current_Directory>
/home/itssahil/PROJECTS/Mol_Feturizer/New_Systems/rnas/2EET

>  <Rbt.Executable>
rbdock ($Id: //depot/dev/client3/rdock/2013.1/src/exe/rbdock.cxx#4 $)

>  <Rbt.Library>
libRbt.so (2013.1, Build901 2013/11/27)

>  <Rbt.Parameter_File>
/export/apps/rDock/src/rDock_2013.1_src/data/scripts/dock_solv.prm

>  <Rbt.Receptor>
prm/blind_docking_40.prm

>  <SCORE>
-18.0407

>  <SCORE.INTER>
-18.0407

>  <SCORE.INTER.CONST>
1

>  <SCORE.INTER.POLAR>
0

>  <SCORE.INTER.ROT>
0

>  <SCORE.INTER.SOLV>
4.13356

>  <SCORE.INTER.VDW>
-17.005

>  <SCORE.INTER.norm>
-1.80407

>  <SCORE.INTRA>
0

>  <SCORE.INTRA.DIHEDRAL>
0

>  <SCORE.INTRA.DIHEDRAL.0>
0

>  <SCORE.INTRA.POLAR>
0

>  <SCORE.INTRA.POLAR.0>
0

>  <SCORE.INTRA.REPUL>
0

>  <SCORE.INTRA.REPUL.0>
0

>  <SCORE.INTRA.SOLV>
0

>  <SCORE.INTRA.SOLV.lig_0>
-4.28464

>  <SCORE.INTRA.VDW>
0

>  <SCORE.INTRA.VDW.0>
0

>  <SCORE.INTRA.norm>
0

>  <SCORE.RESTR>
0

>  <SCORE.RESTR.CAVITY>
0

>  <SCORE.RESTR.norm>
0

>  <SCORE.SYSTEM>
0

>  <SCORE.SYSTEM.CONST>
0

>  <SCORE.SYSTEM.DIHEDRAL>
0

>  <SCORE.SYSTEM.SOLV>
0

>  <SCORE.SYSTEM.norm>
0

>  <SCORE.heavy>
10

>  <SCORE.norm>
-1.80407

>  <RMSD>
0.705

$$$$
ligand
 OpenBabel11021811423D
libRbt.so/2013.1/901 2013/11/27
 10 11  0  0  0  0  0  0  0  0999 V2000
   11.5177    9.5073   29.5141 N   0  0  0  0  0  0  0  0  0  0  0  0
   11.3660   10.8668   29.3033 C   0  0  0  0  0  0  0  0  0  0  0  0
   11.1320   11.3718   28.0859 N   0  0  0  0  0  0  0  0  0  0  0  0
   11.0637   10.4106   27.1086 C   0  0  0  0  0  0  0  0  0  0  0  0
   11.2058    9.0503   27.2581 C   0  0  0  0  0  0  0  0  0  0  0  0
   11.4546    8.5031   28.5474 C   0  0  0  0  0  0  0  0  0  0  0  0
   11.6121    7.3267   28.8977 O   0  0  0  0  0  0  0  0  0  0  0  0
   11.0649    8.4601   26.0292 N   0  0  0  0  0  0  0  0  0  0  0  0
   10.8384    9.4524   25.1474 C   0  0  0  0  0  0  0  0  0  0  0  0
   10.8331   10.6695   25.7808 N   0  0  0  0  0  0  0  0  0  0  0  0
  1  2  1  0  0  0  0
  1  6  1  0  0  0  0
  2  3  2  0  0  0  0
  3  4  1  0  0  0  0
  4  5  2  0  0  0  0
  4 10  1  0  0  0  0
  5  6  1  0  0  0  0
  5  8  1  0  0  0  0
  6  7  2  0  0  0  0
  8  9  1  0  0  0  0
  9 10  2  0  0  0  0
M  END
>  <CHROM.1>
11.21665431,9.52097569,27.59444466,0.21335297,-1.39355551,0.50917350

>  <Name>
ligand

>  <RI>
0

>  <Rbt.Current_Directory>
/home/itssahil/PROJECTS/Mol_Feturizer/New_Systems/rnas/2EET

>  <Rbt.Executable>
rbdock ($Id: //depot/dev/client3/rdock/2013.1/src/exe/rbdock.cxx#4 $)

>  <Rbt.Library>
libRbt.so (2013.1, Build901 2013/11/27)

>  <Rbt.Parameter_File>
/export/apps/rDock/src/rDock_2013.1_src/data/scripts/dock_solv.prm

>  <Rbt.Receptor>
prm/blind_docking_80.prm

>  <SCORE>
-18.0593

>  <SCORE.INTER>
-18.0593

>  <SCORE.INTER.CONST>
1

>  <SCORE.INTER.POLAR>
0

>  <SCORE.INTER.ROT>
0

>  <SCORE.INTER.SOLV>
4.15403

>  <SCORE.INTER.VDW>
-17.0242

>  <SCORE.INTER.norm>
-1.80593

>  <SCORE.INTRA>
0

>  <SCORE.INTRA.DIHEDRAL>
0

>  <SCORE.INTRA.DIHEDRAL.0>
0

>  <SCORE.INTRA.POLAR>
0

>  <SCORE.INTRA.POLAR.0>
0

>  <SCORE.INTRA.REPUL>
0

>  <SCORE.INTRA.REPUL.0>
0

>  <SCORE.INTRA.SOLV>
0

>  <SCORE.INTRA.SOLV.lig_0>
-4.28464

>  <SCORE.INTRA.VDW>
0

>  <SCORE.INTRA.VDW.0>
0

>  <SCORE.INTRA.norm>
0

>  <SCORE.RESTR>
0

>  <SCORE.RESTR.CAVITY>
0

>  <SCORE.RESTR.norm>
0

>  <SCORE.SYSTEM>
0

>  <SCORE.SYSTEM.CONST>
0

>  <SCORE.SYSTEM.DIHEDRAL>
0

>  <SCORE.SYSTEM.SOLV>
0

>  <SCORE.SYSTEM.norm>
0

>  <SCORE.heavy>
10

>  <SCORE.norm>
-1.80593

>  <RMSD>
0.705

$$$$
ligand
 OpenBabel11021811423D
libRbt.so/2013.1/901 2013/11/27
 10 11  0  0  0  0  0  0  0  0999 V2000
   11.5219    9.4881   29.4944 N   0  0  0  0  0  0  0  0  0  0  0  0
   11.3666   10.8478   29.2876 C   0  0  0  0  0  0  0  0  0  0  0  0
   11.1268   11.3554   28.0724 N   0  0  0  0  0  0  0  0  0  0  0  0
   11.0565   10.3966   27.0930 C   0  0  0  0  0  0  0  0  0  0  0  0
   11.2021    9.0361   27.2384 C   0  0  0  0  0  0  0  0  0  0  0  0
   11.4570    8.4862   28.5253 C   0  0  0  0  0  0  0  0  0  0  0  0
   11.6183    7.3092   28.8720 O   0  0  0  0  0  0  0  0  0  0  0  0
   11.0575    8.4488   26.0086 N   0  0  0  0  0  0  0  0  0  0  0  0
   10.8255    9.4428   25.1302 C   0  0  0  0  0  0  0  0  0  0  0  0
   10.8202   10.6584   25.7668 N   0  0  0  0  0  0  0  0  0  0  0  0
  1  2  1  0  0  0  0
  1  6  1  0  0  0  0
  2  3  2  0  0  0  0
  3  4  1  0  0  0  0
  4  5  2  0  0  0  0
  4 10  1  0  0  0  0
  5  6  1  0  0  0  0
  5  8  1  0  0  0  0
  6  7  2  0  0  0  0
  8  9  1  0  0  0  0
  9 10  2  0  0  0  0
M  END
>  <CHROM.1>
11.21326380,9.50599806,27.57593409,0.21260092,-1.38911793,0.51098177

>  <Name>
ligand

>  <RI>
0

>  <Rbt.Current_Directory>
/home/itssahil/PROJECTS/Mol_Feturizer/New_Systems/rnas/2EET

>  <Rbt.Executable>
rbdock ($Id: //depot/dev/client3/rdock/2013.1/src/exe/rbdock.cxx#4 $)

>  <Rbt.Library>
libRbt.so (2013.1, Build901 2013/11/27)

>  <Rbt.Parameter_File>
/export/apps/rDock/src/rDock_2013.1_src/data/scripts/dock_solv.prm

>  <Rbt.Receptor>
prm/blind_docking_80.prm

>  <SCORE>
-18.0523

>  <SCORE.INTER>
-18.0523

>  <SCORE.INTER.CONST>
1

>  <SCORE.INTER.POLAR>
0

>  <SCORE.INTER.ROT>
0

>  <SCORE.INTER.SOLV>
4.12781

>  <SCORE.INTER.VDW>
-17.0108

>  <SCORE.INTER.norm>
-1.80523

>  <SCORE.INTRA>
0

>  <SCORE.INTRA.DIHEDRAL>
0

>  <SCORE.INTRA.DIHEDRAL.0>
0

>  <SCORE.INTRA.POLAR>
0

>  <SCORE.INTRA.POLAR.0>
0

>  <SCORE.INTRA.REPUL>
0

>  <SCORE.INTRA.REPUL.0>
0

>  <SCORE.INTRA.SOLV>
0

>  <SCORE.INTRA.SOLV.lig_0>
-4.28464

>  <SCORE.INTRA.VDW>
0

>  <SCORE.INTRA.VDW.0>
0

>  <SCORE.INTRA.norm>
0

>  <SCORE.RESTR>
0

>  <SCORE.RESTR.CAVITY>
0

>  <SCORE.RESTR.norm>
0

>  <SCORE.SYSTEM>
0

>  <SCORE.SYSTEM.CONST>
0

>  <SCORE.SYSTEM.DIHEDRAL>
0

>  <SCORE.SYSTEM.SOLV>
0

>  <SCORE.SYSTEM.norm>
0

>  <SCORE.heavy>
10

>  <SCORE.norm>
-1.80523

>  <RMSD>
0.705

$$$$
ligand
 OpenBabel11021811423D
libRbt.so/2013.1/901 2013/11/27
 10 11  0  0  0  0  0  0  0  0999 V2000
   11.5123    9.5043   29.5174 N   0  0  0  0  0  0  0  0  0  0  0  0
   11.3696   10.8651   29.3084 C   0  0  0  0  0  0  0  0  0  0  0  0
   11.1338   11.3728   28.0926 N   0  0  0  0  0  0  0  0  0  0  0  0
   11.0540   10.4131   27.1148 C   0  0  0  0  0  0  0  0  0  0  0  0
   11.1869    9.0516   27.2624 C   0  0  0  0  0  0  0  0  0  0  0  0
   11.4375    8.5014   28.5501 C   0  0  0  0  0  0  0  0  0  0  0  0
   11.5879    7.3236   28.8987 O   0  0  0  0  0  0  0  0  0  0  0  0
   11.0362    8.4636   26.0337 N   0  0  0  0  0  0  0  0  0  0  0  0
   10.8129    9.4582   25.1537 C   0  0  0  0  0  0  0  0  0  0  0  0
   10.8194   10.6748   25.7882 N   0  0  0  0  0  0  0  0  0  0  0  0
  1  2  1  0  0  0  0
  1  6  1  0  0  0  0
  2  3  2  0  0  0  0
  3  4  1  0  0  0  0
  4  5  2  0  0  0  0
  4 10  1  0  0  0  0
  5  6  1  0  0  0  0
  5  8  1  0  0  0  0
  6  7  2  0  0  0  0
  8  9  1  0  0  0  0
  9 10  2  0  0  0  0
M  END
>  <CHROM.1>
11.20271024,9.52188045,27.59912630,0.16481087,-1.39297543,0.46228059

>  <Name>
ligand

>  <RI>
0

>  <Rbt.Current_Directory>
/home/itssahil/PROJECTS/Mol_Feturizer/New_Systems/rnas/2EET

>  <Rbt.Executable>
rbdock ($Id: //depot/dev/client3/rdock/2013.1/src/exe/rbdock.cxx#4 $)

>  <Rbt.Library>
libRbt.so (2013.1, Build901 2013/11/27)

>  <Rbt.Parameter_File>
/export/apps/rDock/src/rDock_2013.1_src/data/scripts/dock_solv.prm

>  <Rbt.Receptor>
prm/blind_docking_80.prm

>  <SCORE>
-18.0457

>  <SCORE.INTER>
-18.0457

>  <SCORE.INTER.CONST>
1

>  <SCORE.INTER.POLAR>
0

>  <SCORE.INTER.ROT>
0

>  <SCORE.INTER.SOLV>
4.18339

>  <SCORE.INTER.VDW>
-17.0249

>  <SCORE.INTER.norm>
-1.80457

>  <SCORE.INTRA>
0

>  <SCORE.INTRA.DIHEDRAL>
0

>  <SCORE.INTRA.DIHEDRAL.0>
0

>  <SCORE.INTRA.POLAR>
0

>  <SCORE.INTRA.POLAR.0>
0

>  <SCORE.INTRA.REPUL>
0

>  <SCORE.INTRA.REPUL.0>
0

>  <SCORE.INTRA.SOLV>
0

>  <SCORE.INTRA.SOLV.lig_0>
-4.28464

>  <SCORE.INTRA.VDW>
0

>  <SCORE.INTRA.VDW.0>
0

>  <SCORE.INTRA.norm>
0

>  <SCORE.RESTR>
0

>  <SCORE.RESTR.CAVITY>
0

>  <SCORE.RESTR.norm>
0

>  <SCORE.SYSTEM>
0

>  <SCORE.SYSTEM.CONST>
0

>  <SCORE.SYSTEM.DIHEDRAL>
0

>  <SCORE.SYSTEM.SOLV>
0

>  <SCORE.SYSTEM.norm>
0

>  <SCORE.heavy>
10

>  <SCORE.norm>
-1.80457

>  <RMSD>
0.705

$$$$
ligand
 OpenBabel11021811423D
libRbt.so/2013.1/901 2013/11/27
 10 11  0  0  0  0  0  0  0  0999 V2000
   11.5122    9.5033   29.5178 N   0  0  0  0  0  0  0  0  0  0  0  0
   11.3707   10.8642   29.3090 C   0  0  0  0  0  0  0  0  0  0  0  0
   11.1339   11.3723   28.0935 N   0  0  0  0  0  0  0  0  0  0  0  0
   11.0517   10.4127   27.1158 C   0  0  0  0  0  0  0  0  0  0  0  0
   11.1833    9.0510   27.2632 C   0  0  0  0  0  0  0  0  0  0  0  0
   11.4350    8.5005   28.5505 C   0  0  0  0  0  0  0  0  0  0  0  0
   11.5845    7.3225   28.8988 O   0  0  0  0  0  0  0  0  0  0  0  0
   11.0303    8.4632   26.0346 N   0  0  0  0  0  0  0  0  0  0  0  0
   10.8069    9.4582   25.1550 C   0  0  0  0  0  0  0  0  0  0  0  0
   10.8157   10.6748   25.7896 N   0  0  0  0  0  0  0  0  0  0  0  0
  1  2  1  0  0  0  0
  1  6  1  0  0  0  0
  2  3  2  0  0  0  0
  3  4  1  0  0  0  0
  4  5  2  0  0  0  0
  4 10  1  0  0  0  0
  5  6  1  0  0  0  0
  5  8  1  0  0  0  0
  6  7  2  0  0  0  0
  8  9  1  0  0  0  0
  9 10  2  0  0  0  0
M  END
>  <CHROM.1>
11.20007086,9.52128039,27.59989478,0.15577913,-1.39228335,0.45345125

>  <Name>
ligand

>  <RI>
0

>  <Rbt.Current_Directory>
/home/itssahil/PROJECTS/Mol_Feturizer/New_Systems/rnas/2EET

>  <Rbt.Executable>
rbdock ($Id: //depot/dev/client3/rdock/2013.1/src/exe/rbdock.cxx#4 $)

>  <Rbt.Library>
libRbt.so (2013.1, Build901 2013/11/27)

>  <Rbt.Parameter_File>
/export/apps/rDock/src/rDock_2013.1_src/data/scripts/dock_solv.prm

>  <Rbt.Receptor>
prm/pocket_docking_3.prm

>  <SCORE>
-18.0477

>  <SCORE.INTER>
-18.0477

>  <SCORE.INTER.CONST>
1

>  <SCORE.INTER.POLAR>
0

>  <SCORE.INTER.ROT>
0

>  <SCORE.INTER.SOLV>
4.18719

>  <SCORE.INTER.VDW>
-17.0276

>  <SCORE.INTER.norm>
-1.80477

>  <SCORE.INTRA>
0

>  <SCORE.INTRA.DIHEDRAL>
0

>  <SCORE.INTRA.DIHEDRAL.0>
0

>  <SCORE.INTRA.POLAR>
0

>  <SCORE.INTRA.POLAR.0>
0

>  <SCORE.INTRA.REPUL>
0

>  <SCORE.INTRA.REPUL.0>
0

>  <SCORE.INTRA.SOLV>
0

>  <SCORE.INTRA.SOLV.lig_0>
-4.28464

>  <SCORE.INTRA.VDW>
0

>  <SCORE.INTRA.VDW.0>
0

>  <SCORE.INTRA.norm>
0

>  <SCORE.RESTR>
0

>  <SCORE.RESTR.CAVITY>
0

>  <SCORE.RESTR.norm>
0

>  <SCORE.SYSTEM>
0

>  <SCORE.SYSTEM.CONST>
0

>  <SCORE.SYSTEM.DIHEDRAL>
0

>  <SCORE.SYSTEM.SOLV>
0

>  <SCORE.SYSTEM.norm>
0

>  <SCORE.heavy>
10

>  <SCORE.norm>
-1.80477

>  <RMSD>
0.705

$$$$
ligand
 OpenBabel11021811423D
libRbt.so/2013.1/901 2013/11/27
 10 11  0  0  0  0  0  0  0  0999 V2000
   11.5036    9.4857   29.5078 N   0  0  0  0  0  0  0  0  0  0  0  0
   11.3678   10.8481   29.3047 C   0  0  0  0  0  0  0  0  0  0  0  0
   11.1362   11.3624   28.0908 N   0  0  0  0  0  0  0  0  0  0  0  0
   11.0531   10.4075   27.1086 C   0  0  0  0  0  0  0  0  0  0  0  0
   11.1792    9.0447   27.2503 C   0  0  0  0  0  0  0  0  0  0  0  0
   11.4253    8.4875   28.5358 C   0  0  0  0  0  0  0  0  0  0  0  0
   11.5696    7.3074   28.8794 O   0  0  0  0  0  0  0  0  0  0  0  0
   11.0273    8.4629   26.0187 N   0  0  0  0  0  0  0  0  0  0  0  0
   10.8101    9.4626   25.1430 C   0  0  0  0  0  0  0  0  0  0  0  0
   10.8216   10.6763   25.7830 N   0  0  0  0  0  0  0  0  0  0  0  0
  1  2  1  0  0  0  0
  1  6  1  0  0  0  0
  2  3  2  0  0  0  0
  3  4  1  0  0  0  0
  4  5  2  0  0  0  0
  4 10  1  0  0  0  0
  5  6  1  0  0  0  0
  5  8  1  0  0  0  0
  6  7  2  0  0  0  0
  8  9  1  0  0  0  0
  9 10  2  0  0  0  0
M  END
>  <CHROM.1>
11.19680441,9.51338710,27.58917584,0.14345122,-1.39633411,0.44574552

>  <Name>
ligand

>  <RI>
0

>  <Rbt.Current_Directory>
/home/itssahil/PROJECTS/Mol_Feturizer/New_Systems/rnas/2EET

>  <Rbt.Executable>
rbdock ($Id: //depot/dev/client3/rdock/2013.1/src/exe/rbdock.cxx#4 $)

>  <Rbt.Library>
libRbt.so (2013.1, Build901 2013/11/27)

>  <Rbt.Parameter_File>
/export/apps/rDock/src/rDock_2013.1_src/data/scripts/dock_solv.prm

>  <Rbt.Receptor>
prm/pocket_docking_3.prm

>  <SCORE>
-18.0606

>  <SCORE.INTER>
-18.0606

>  <SCORE.INTER.CONST>
1

>  <SCORE.INTER.POLAR>
0

>  <SCORE.INTER.ROT>
0

>  <SCORE.INTER.SOLV>
4.19649

>  <SCORE.INTER.VDW>
-17.0392

>  <SCORE.INTER.norm>
-1.80606

>  <SCORE.INTRA>
0

>  <SCORE.INTRA.DIHEDRAL>
0

>  <SCORE.INTRA.DIHEDRAL.0>
0

>  <SCORE.INTRA.POLAR>
0

>  <SCORE.INTRA.POLAR.0>
0

>  <SCORE.INTRA.REPUL>
0

>  <SCORE.INTRA.REPUL.0>
0

>  <SCORE.INTRA.SOLV>
0

>  <SCORE.INTRA.SOLV.lig_0>
-4.28464

>  <SCORE.INTRA.VDW>
0

>  <SCORE.INTRA.VDW.0>
0

>  <SCORE.INTRA.norm>
0

>  <SCORE.RESTR>
0

>  <SCORE.RESTR.CAVITY>
0

>  <SCORE.RESTR.norm>
0

>  <SCORE.SYSTEM>
0

>  <SCORE.SYSTEM.CONST>
0

>  <SCORE.SYSTEM.DIHEDRAL>
0

>  <SCORE.SYSTEM.SOLV>
0

>  <SCORE.SYSTEM.norm>
0

>  <SCORE.heavy>
10

>  <SCORE.norm>
-1.80606

>  <RMSD>
0.705

$$$$
ligand
 OpenBabel11021811423D
libRbt.so/2013.1/901 2013/11/27
 10 11  0  0  0  0  0  0  0  0999 V2000
   11.5168    9.5104   29.5157 N   0  0  0  0  0  0  0  0  0  0  0  0
   11.3626   10.8694   29.3036 C   0  0  0  0  0  0  0  0  0  0  0  0
   11.1308   11.3731   28.0853 N   0  0  0  0  0  0  0  0  0  0  0  0
   11.0674   10.4112   27.1084 C   0  0  0  0  0  0  0  0  0  0  0  0
   11.2123    9.0512   27.2591 C   0  0  0  0  0  0  0  0  0  0  0  0
   11.4587    8.5054   28.5494 C   0  0  0  0  0  0  0  0  0  0  0  0
   11.6179    7.3296   28.9009 O   0  0  0  0  0  0  0  0  0  0  0  0
   11.0761    8.4600   26.0302 N   0  0  0  0  0  0  0  0  0  0  0  0
   10.8497    9.4512   25.1472 C   0  0  0  0  0  0  0  0  0  0  0  0
   10.8399   10.6687   25.7798 N   0  0  0  0  0  0  0  0  0  0  0  0
  1  2  1  0  0  0  0
  1  6  1  0  0  0  0
  2  3  2  0  0  0  0
  3  4  1  0  0  0  0
  4  5  2  0  0  0  0
  4 10  1  0  0  0  0
  5  6  1  0  0  0  0
  5  8  1  0  0  0  0
  6  7  2  0  0  0  0
  8  9  1  0  0  0  0
  9 10  2  0  0  0  0
M  END
>  <CHROM.1>
11.22107417,9.52214599,27.59522947,0.23242640,-1.39482045,0.52733296

>  <Name>
ligand

>  <RI>
0

>  <Rbt.Current_Directory>
/home/itssahil/PROJECTS/Mol_Feturizer/New_Systems/rnas/2EET

>  <Rbt.Executable>
rbdock ($Id: //depot/dev/client3/rdock/2013.1/src/exe/rbdock.cxx#4 $)

>  <Rbt.Library>
libRbt.so (2013.1, Build901 2013/11/27)

>  <Rbt.Parameter_File>
/export/apps/rDock/src/rDock_2013.1_src/data/scripts/dock_solv.prm

>  <Rbt.Receptor>
prm/pocket_docking_6.prm

>  <SCORE>
-18.0443

>  <SCORE.INTER>
-18.0443

>  <SCORE.INTER.CONST>
1

>  <SCORE.INTER.POLAR>
0

>  <SCORE.INTER.ROT>
0

>  <SCORE.INTER.SOLV>
4.14937

>  <SCORE.INTER.VDW>
-17.0127

>  <SCORE.INTER.norm>
-1.80443

>  <SCORE.INTRA>
0

>  <SCORE.INTRA.DIHEDRAL>
0

>  <SCORE.INTRA.DIHEDRAL.0>
0

>  <SCORE.INTRA.POLAR>
0

>  <SCORE.INTRA.POLAR.0>
0

>  <SCORE.INTRA.REPUL>
0

>  <SCORE.INTRA.REPUL.0>
0

>  <SCORE.INTRA.SOLV>
0

>  <SCORE.INTRA.SOLV.lig_0>
-4.28464

>  <SCORE.INTRA.VDW>
0

>  <SCORE.INTRA.VDW.0>
0

>  <SCORE.INTRA.norm>
0

>  <SCORE.RESTR>
0

>  <SCORE.RESTR.CAVITY>
0

>  <SCORE.RESTR.norm>
0

>  <SCORE.SYSTEM>
0

>  <SCORE.SYSTEM.CONST>
0

>  <SCORE.SYSTEM.DIHEDRAL>
0

>  <SCORE.SYSTEM.SOLV>
0

>  <SCORE.SYSTEM.norm>
0

>  <SCORE.heavy>
10

>  <SCORE.norm>
-1.80443

>  <RMSD>
0.705

$$$$
ligand
 OpenBabel11021811423D
libRbt.so/2013.1/901 2013/11/27
 10 11  0  0  0  0  0  0  0  0999 V2000
   11.5030    9.4796   29.4926 N   0  0  0  0  0  0  0  0  0  0  0  0
   11.3688   10.8441   29.3027 C   0  0  0  0  0  0  0  0  0  0  0  0
   11.1339   11.3700   28.0945 N   0  0  0  0  0  0  0  0  0  0  0  0
   11.0456   10.4244   27.1037 C   0  0  0  0  0  0  0  0  0  0  0  0
   11.1698    9.0601   27.2323 C   0  0  0  0  0  0  0  0  0  0  0  0
   11.4194    8.4907   28.5117 C   0  0  0  0  0  0  0  0  0  0  0  0
   11.5628    7.3072   28.8438 O   0  0  0  0  0  0  0  0  0  0  0  0
   11.0125    8.4901   25.9960 N   0  0  0  0  0  0  0  0  0  0  0  0
   10.7939    9.4983   25.1303 C   0  0  0  0  0  0  0  0  0  0  0  0
   10.8099   10.7059   25.7815 N   0  0  0  0  0  0  0  0  0  0  0  0
  1  2  1  0  0  0  0
  1  6  1  0  0  0  0
  2  3  2  0  0  0  0
  3  4  1  0  0  0  0
  4  5  2  0  0  0  0
  4 10  1  0  0  0  0
  5  6  1  0  0  0  0
  5  8  1  0  0  0  0
  6  7  2  0  0  0  0
  8  9  1  0  0  0  0
  9 10  2  0  0  0  0
M  END
>  <CHROM.1>
11.18940404,9.52565702,27.57545045,0.12561263,-1.39388495,0.43745854

>  <Name>
ligand

>  <RI>
0

>  <Rbt.Current_Directory>
/home/itssahil/PROJECTS/Mol_Feturizer/New_Systems/rnas/2EET

>  <Rbt.Executable>
rbdock ($Id: //depot/dev/client3/rdock/2013.1/src/exe/rbdock.cxx#4 $)

>  <Rbt.Library>
libRbt.so (2013.1, Build901 2013/11/27)

>  <Rbt.Parameter_File>
/export/apps/rDock/src/rDock_2013.1_src/data/scripts/dock_solv.prm

>  <Rbt.Receptor>
prm/pocket_docking_7.prm

>  <SCORE>
-18.0547

>  <SCORE.INTER>
-18.0547

>  <SCORE.INTER.CONST>
1

>  <SCORE.INTER.POLAR>
0

>  <SCORE.INTER.ROT>
0

>  <SCORE.INTER.SOLV>
4.18301

>  <SCORE.INTER.VDW>
-17.0308

>  <SCORE.INTER.norm>
-1.80547

>  <SCORE.INTRA>
0

>  <SCORE.INTRA.DIHEDRAL>
0

>  <SCORE.INTRA.DIHEDRAL.0>
0

>  <SCORE.INTRA.POLAR>
0

>  <SCORE.INTRA.POLAR.0>
0

>  <SCORE.INTRA.REPUL>
0

>  <SCORE.INTRA.REPUL.0>
0

>  <SCORE.INTRA.SOLV>
0

>  <SCORE.INTRA.SOLV.lig_0>
-4.28464

>  <SCORE.INTRA.VDW>
0

>  <SCORE.INTRA.VDW.0>
0

>  <SCORE.INTRA.norm>
0

>  <SCORE.RESTR>
0

>  <SCORE.RESTR.CAVITY>
0

>  <SCORE.RESTR.norm>
0

>  <SCORE.SYSTEM>
0

>  <SCORE.SYSTEM.CONST>
0

>  <SCORE.SYSTEM.DIHEDRAL>
0

>  <SCORE.SYSTEM.SOLV>
0

>  <SCORE.SYSTEM.norm>
0

>  <SCORE.heavy>
10

>  <SCORE.norm>
-1.80547

>  <RMSD>
0.705

$$$$
ligand
 OpenBabel11021811423D
libRbt.so/2013.1/901 2013/11/27
 10 11  0  0  0  0  0  0  0  0999 V2000
   11.5182    9.5092   29.4913 N   0  0  0  0  0  0  0  0  0  0  0  0
   11.3646   10.8715   29.3016 C   0  0  0  0  0  0  0  0  0  0  0  0
   11.1260   11.3946   28.0928 N   0  0  0  0  0  0  0  0  0  0  0  0
   11.0552   10.4482   27.1013 C   0  0  0  0  0  0  0  0  0  0  0  0
   11.1990    9.0859   27.2298 C   0  0  0  0  0  0  0  0  0  0  0  0
   11.4527    8.5195   28.5098 C   0  0  0  0  0  0  0  0  0  0  0  0
   11.6124    7.3381   28.8418 O   0  0  0  0  0  0  0  0  0  0  0  0
   11.0544    8.5142   25.9926 N   0  0  0  0  0  0  0  0  0  0  0  0
   10.8240    9.5194   25.1266 C   0  0  0  0  0  0  0  0  0  0  0  0
   10.8198   10.7269   25.7784 N   0  0  0  0  0  0  0  0  0  0  0  0
  1  2  1  0  0  0  0
  1  6  1  0  0  0  0
  2  3  2  0  0  0  0
  3  4  1  0  0  0  0
  4  5  2  0  0  0  0
  4 10  1  0  0  0  0
  5  6  1  0  0  0  0
  5  8  1  0  0  0  0
  6  7  2  0  0  0  0
  8  9  1  0  0  0  0
  9 10  2  0  0  0  0
M  END
>  <CHROM.1>
11.21059694,9.55146323,27.57314037,0.20827257,-1.39012990,0.51926405

>  <Name>
ligand

>  <RI>
0

>  <Rbt.Current_Directory>
/home/itssahil/PROJECTS/Mol_Feturizer/New_Systems/rnas/2EET

>  <Rbt.Executable>
rbdock ($Id: //depot/dev/client3/rdock/2013.1/src/exe/rbdock.cxx#4 $)

>  <Rbt.Library>
libRbt.so (2013.1, Build901 2013/11/27)

>  <Rbt.Parameter_File>
/export/apps/rDock/src/rDock_2013.1_src/data/scripts/dock_solv.prm

>  <Rbt.Receptor>
prm/pocket_docking_8.prm

>  <SCORE>
-18.0215

>  <SCORE.INTER>
-18.0215

>  <SCORE.INTER.CONST>
1

>  <SCORE.INTER.POLAR>
0

>  <SCORE.INTER.ROT>
0

>  <SCORE.INTER.SOLV>
4.11778

>  <SCORE.INTER.VDW>
-16.987

>  <SCORE.INTER.norm>
-1.80215

>  <SCORE.INTRA>
0

>  <SCORE.INTRA.DIHEDRAL>
0

>  <SCORE.INTRA.DIHEDRAL.0>
0

>  <SCORE.INTRA.POLAR>
0

>  <SCORE.INTRA.POLAR.0>
0

>  <SCORE.INTRA.REPUL>
0

>  <SCORE.INTRA.REPUL.0>
0

>  <SCORE.INTRA.SOLV>
0

>  <SCORE.INTRA.SOLV.lig_0>
-4.28464

>  <SCORE.INTRA.VDW>
0

>  <SCORE.INTRA.VDW.0>
0

>  <SCORE.INTRA.norm>
0

>  <SCORE.RESTR>
0

>  <SCORE.RESTR.CAVITY>
0

>  <SCORE.RESTR.norm>
0

>  <SCORE.SYSTEM>
0

>  <SCORE.SYSTEM.CONST>
0

>  <SCORE.SYSTEM.DIHEDRAL>
0

>  <SCORE.SYSTEM.SOLV>
0

>  <SCORE.SYSTEM.norm>
0

>  <SCORE.heavy>
10

>  <SCORE.norm>
-1.80215

>  <RMSD>
0.705

$$$$
ligand
 OpenBabel11021811423D
libRbt.so/2013.1/901 2013/11/27
 10 11  0  0  0  0  0  0  0  0999 V2000
   11.5094    9.4860   29.4985 N   0  0  0  0  0  0  0  0  0  0  0  0
   11.3495   10.8455   29.2939 C   0  0  0  0  0  0  0  0  0  0  0  0
   11.1105   11.3545   28.0792 N   0  0  0  0  0  0  0  0  0  0  0  0
   11.0460   10.3973   27.0978 C   0  0  0  0  0  0  0  0  0  0  0  0
   11.1963    9.0371   27.2410 C   0  0  0  0  0  0  0  0  0  0  0  0
   11.4504    8.4857   28.5274 C   0  0  0  0  0  0  0  0  0  0  0  0
   11.6153    7.3087   28.8723 O   0  0  0  0  0  0  0  0  0  0  0  0
   11.0566    8.4516   26.0098 N   0  0  0  0  0  0  0  0  0  0  0  0
   10.8228    9.4464   25.1327 C   0  0  0  0  0  0  0  0  0  0  0  0
   10.8117   10.6607   25.7716 N   0  0  0  0  0  0  0  0  0  0  0  0
  1  2  1  0  0  0  0
  1  6  1  0  0  0  0
  2  3  2  0  0  0  0
  3  4  1  0  0  0  0
  4  5  2  0  0  0  0
  4 10  1  0  0  0  0
  5  6  1  0  0  0  0
  5  8  1  0  0  0  0
  6  7  2  0  0  0  0
  8  9  1  0  0  0  0
  9 10  2  0  0  0  0
M  END
>  <CHROM.1>
11.20497249,9.50640413,27.57941942,0.23643427,-1.38918026,0.53631100

>  <Name>
ligand

>  <RI>
0

>  <Rbt.Current_Directory>
/home/itssahil/PROJECTS/Mol_Feturizer/New_Systems/rnas/2EET

>  <Rbt.Executable>
rbdock ($Id: //depot/dev/client3/rdock/2013.1/src/exe/rbdock.cxx#4 $)

>  <Rbt.Library>
libRbt.so (2013.1, Build901 2013/11/27)

>  <Rbt.Parameter_File>
/export/apps/rDock/src/rDock_2013.1_src/data/scripts/dock_solv.prm

>  <Rbt.Receptor>
prm/pocket_docking_8.prm

>  <SCORE>
-18.0432

>  <SCORE.INTER>
-18.0432

>  <SCORE.INTER.CONST>
1

>  <SCORE.INTER.POLAR>
0

>  <SCORE.INTER.ROT>
0

>  <SCORE.INTER.SOLV>
4.12928

>  <SCORE.INTER.VDW>
-17.0052

>  <SCORE.INTER.norm>
-1.80432

>  <SCORE.INTRA>
0

>  <SCORE.INTRA.DIHEDRAL>
0

>  <SCORE.INTRA.DIHEDRAL.0>
0

>  <SCORE.INTRA.POLAR>
0

>  <SCORE.INTRA.POLAR.0>
0

>  <SCORE.INTRA.REPUL>
0

>  <SCORE.INTRA.REPUL.0>
0

>  <SCORE.INTRA.SOLV>
0

>  <SCORE.INTRA.SOLV.lig_0>
-4.28464

>  <SCORE.INTRA.VDW>
0

>  <SCORE.INTRA.VDW.0>
0

>  <SCORE.INTRA.norm>
0

>  <SCORE.RESTR>
0

>  <SCORE.RESTR.CAVITY>
0

>  <SCORE.RESTR.norm>
0

>  <SCORE.SYSTEM>
0

>  <SCORE.SYSTEM.CONST>
0

>  <SCORE.SYSTEM.DIHEDRAL>
0

>  <SCORE.SYSTEM.SOLV>
0

>  <SCORE.SYSTEM.norm>
0

>  <SCORE.heavy>
10

>  <SCORE.norm>
-1.80432

>  <RMSD>
0.705

$$$$
ligand
 OpenBabel11021811423D
libRbt.so/2013.1/901 2013/11/27
 10 11  0  0  0  0  0  0  0  0999 V2000
   11.5077    9.5082   29.5185 N   0  0  0  0  0  0  0  0  0  0  0  0
   11.3562   10.8678   29.3082 C   0  0  0  0  0  0  0  0  0  0  0  0
   11.1273   11.3737   28.0902 N   0  0  0  0  0  0  0  0  0  0  0  0
   11.0637   10.4134   27.1118 C   0  0  0  0  0  0  0  0  0  0  0  0
   11.2059    9.0529   27.2607 C   0  0  0  0  0  0  0  0  0  0  0  0
   11.4493    8.5047   28.5506 C   0  0  0  0  0  0  0  0  0  0  0  0
   11.6058    7.3281   28.9006 O   0  0  0  0  0  0  0  0  0  0  0  0
   11.0707    8.4638   26.0307 N   0  0  0  0  0  0  0  0  0  0  0  0
   10.8474    9.4567   25.1488 C   0  0  0  0  0  0  0  0  0  0  0  0
   10.8388   10.6733   25.7833 N   0  0  0  0  0  0  0  0  0  0  0  0
  1  2  1  0  0  0  0
  1  6  1  0  0  0  0
  2  3  2  0  0  0  0
  3  4  1  0  0  0  0
  4  5  2  0  0  0  0
  4 10  1  0  0  0  0
  5  6  1  0  0  0  0
  5  8  1  0  0  0  0
  6  7  2  0  0  0  0
  8  9  1  0  0  0  0
  9 10  2  0  0  0  0
M  END
>  <CHROM.1>
11.21502653,9.52334010,27.59753765,0.22816437,-1.39710239,0.52463611

>  <Name>
ligand

>  <RI>
0

>  <Rbt.Current_Directory>
/home/itssahil/PROJECTS/Mol_Feturizer/New_Systems/rnas/2EET

>  <Rbt.Executable>
rbdock ($Id: //depot/dev/client3/rdock/2013.1/src/exe/rbdock.cxx#4 $)

>  <Rbt.Library>
libRbt.so (2013.1, Build901 2013/11/27)

>  <Rbt.Parameter_File>
/export/apps/rDock/src/rDock_2013.1_src/data/scripts/dock_solv.prm

>  <Rbt.Receptor>
prm/blind_docking_100.prm

>  <SCORE>
-18.051

>  <SCORE.INTER>
-18.051

>  <SCORE.INTER.CONST>
1

>  <SCORE.INTER.POLAR>
0

>  <SCORE.INTER.ROT>
0

>  <SCORE.INTER.SOLV>
4.16395

>  <SCORE.INTER.VDW>
-17.022

>  <SCORE.INTER.norm>
-1.8051

>  <SCORE.INTRA>
0

>  <SCORE.INTRA.DIHEDRAL>
0

>  <SCORE.INTRA.DIHEDRAL.0>
0

>  <SCORE.INTRA.POLAR>
0

>  <SCORE.INTRA.POLAR.0>
0

>  <SCORE.INTRA.REPUL>
0

>  <SCORE.INTRA.REPUL.0>
0

>  <SCORE.INTRA.SOLV>
0

>  <SCORE.INTRA.SOLV.lig_0>
-4.28464

>  <SCORE.INTRA.VDW>
0

>  <SCORE.INTRA.VDW.0>
0

>  <SCORE.INTRA.norm>
0

>  <SCORE.RESTR>
0

>  <SCORE.RESTR.CAVITY>
0

>  <SCORE.RESTR.norm>
0

>  <SCORE.SYSTEM>
0

>  <SCORE.SYSTEM.CONST>
0

>  <SCORE.SYSTEM.DIHEDRAL>
0

>  <SCORE.SYSTEM.SOLV>
0

>  <SCORE.SYSTEM.norm>
0

>  <SCORE.heavy>
10

>  <SCORE.norm>
-1.8051

>  <RMSD>
0.706

$$$$
ligand
 OpenBabel11021811423D
libRbt.so/2013.1/901 2013/11/27
 10 11  0  0  0  0  0  0  0  0999 V2000
   11.4973    9.4781   29.4909 N   0  0  0  0  0  0  0  0  0  0  0  0
   11.3621   10.8425   29.3019 C   0  0  0  0  0  0  0  0  0  0  0  0
   11.1346   11.3698   28.0928 N   0  0  0  0  0  0  0  0  0  0  0  0
   11.0549   10.4254   27.1002 C   0  0  0  0  0  0  0  0  0  0  0  0
   11.1805    9.0611   27.2278 C   0  0  0  0  0  0  0  0  0  0  0  0
   11.4223    8.4903   28.5081 C   0  0  0  0  0  0  0  0  0  0  0  0
   11.5654    7.3066   28.8395 O   0  0  0  0  0  0  0  0  0  0  0  0
   11.0328    8.4925   25.9896 N   0  0  0  0  0  0  0  0  0  0  0  0
   10.8185    9.5015   25.1238 C   0  0  0  0  0  0  0  0  0  0  0  0
   10.8279   10.7083   25.7767 N   0  0  0  0  0  0  0  0  0  0  0  0
  1  2  1  0  0  0  0
  1  6  1  0  0  0  0
  2  3  2  0  0  0  0
  3  4  1  0  0  0  0
  4  5  2  0  0  0  0
  4 10  1  0  0  0  0
  5  6  1  0  0  0  0
  5  8  1  0  0  0  0
  6  7  2  0  0  0  0
  8  9  1  0  0  0  0
  9 10  2  0  0  0  0
M  END
>  <CHROM.1>
11.19697017,9.52621689,27.57165366,0.15212330,-1.39938105,0.46493811

>  <Name>
ligand

>  <RI>
0

>  <Rbt.Current_Directory>
/home/itssahil/PROJECTS/Mol_Feturizer/New_Systems/rnas/2EET

>  <Rbt.Executable>
rbdock ($Id: //depot/dev/client3/rdock/2013.1/src/exe/rbdock.cxx#4 $)

>  <Rbt.Library>
libRbt.so (2013.1, Build901 2013/11/27)

>  <Rbt.Parameter_File>
/export/apps/rDock/src/rDock_2013.1_src/data/scripts/dock_solv.prm

>  <Rbt.Receptor>
prm/pocket_docking_3.prm

>  <SCORE>
-18.0517

>  <SCORE.INTER>
-18.0517

>  <SCORE.INTER.CONST>
1

>  <SCORE.INTER.POLAR>
0

>  <SCORE.INTER.ROT>
0

>  <SCORE.INTER.SOLV>
4.18159

>  <SCORE.INTER.VDW>
-17.0283

>  <SCORE.INTER.norm>
-1.80517

>  <SCORE.INTRA>
0

>  <SCORE.INTRA.DIHEDRAL>
0

>  <SCORE.INTRA.DIHEDRAL.0>
0

>  <SCORE.INTRA.POLAR>
0

>  <SCORE.INTRA.POLAR.0>
0

>  <SCORE.INTRA.REPUL>
0

>  <SCORE.INTRA.REPUL.0>
0

>  <SCORE.INTRA.SOLV>
0

>  <SCORE.INTRA.SOLV.lig_0>
-4.28464

>  <SCORE.INTRA.VDW>
0

>  <SCORE.INTRA.VDW.0>
0

>  <SCORE.INTRA.norm>
0

>  <SCORE.RESTR>
0

>  <SCORE.RESTR.CAVITY>
0

>  <SCORE.RESTR.norm>
0

>  <SCORE.SYSTEM>
0

>  <SCORE.SYSTEM.CONST>
0

>  <SCORE.SYSTEM.DIHEDRAL>
0

>  <SCORE.SYSTEM.SOLV>
0

>  <SCORE.SYSTEM.norm>
0

>  <SCORE.heavy>
10

>  <SCORE.norm>
-1.80517

>  <RMSD>
0.706

$$$$
ligand
 OpenBabel11021811423D
libRbt.so/2013.1/901 2013/11/27
 10 11  0  0  0  0  0  0  0  0999 V2000
   11.4982    9.4786   29.4925 N   0  0  0  0  0  0  0  0  0  0  0  0
   11.3642   10.8431   29.3030 C   0  0  0  0  0  0  0  0  0  0  0  0
   11.1341   11.3699   28.0942 N   0  0  0  0  0  0  0  0  0  0  0  0
   11.0506   10.4250   27.1024 C   0  0  0  0  0  0  0  0  0  0  0  0
   11.1749    9.0607   27.2305 C   0  0  0  0  0  0  0  0  0  0  0  0
   11.4194    8.4903   28.5105 C   0  0  0  0  0  0  0  0  0  0  0  0
   11.5620    7.3067   28.8422 O   0  0  0  0  0  0  0  0  0  0  0  0
   11.0233    8.4915   25.9930 N   0  0  0  0  0  0  0  0  0  0  0  0
   10.8079    9.5002   25.1272 C   0  0  0  0  0  0  0  0  0  0  0  0
   10.8204   10.7074   25.7793 N   0  0  0  0  0  0  0  0  0  0  0  0
  1  2  1  0  0  0  0
  1  6  1  0  0  0  0
  2  3  2  0  0  0  0
  3  4  1  0  0  0  0
  4  5  2  0  0  0  0
  4 10  1  0  0  0  0
  5  6  1  0  0  0  0
  5  8  1  0  0  0  0
  6  7  2  0  0  0  0
  8  9  1  0  0  0  0
  9 10  2  0  0  0  0
M  END
>  <CHROM.1>
11.19285479,9.52592864,27.57403454,0.13889812,-1.39753073,0.45131440

>  <Name>
ligand

>  <RI>
0

>  <Rbt.Current_Directory>
/home/itssahil/PROJECTS/Mol_Feturizer/New_Systems/rnas/2EET

>  <Rbt.Executable>
rbdock ($Id: //depot/dev/client3/rdock/2013.1/src/exe/rbdock.cxx#4 $)

>  <Rbt.Library>
libRbt.so (2013.1, Build901 2013/11/27)

>  <Rbt.Parameter_File>
/export/apps/rDock/src/rDock_2013.1_src/data/scripts/dock_solv.prm

>  <Rbt.Receptor>
prm/pocket_docking_5.prm

>  <SCORE>
-18.055

>  <SCORE.INTER>
-18.055

>  <SCORE.INTER.CONST>
1

>  <SCORE.INTER.POLAR>
0

>  <SCORE.INTER.ROT>
0

>  <SCORE.INTER.SOLV>
4.18596

>  <SCORE.INTER.VDW>
-17.032

>  <SCORE.INTER.norm>
-1.8055

>  <SCORE.INTRA>
0

>  <SCORE.INTRA.DIHEDRAL>
0

>  <SCORE.INTRA.DIHEDRAL.0>
0

>  <SCORE.INTRA.POLAR>
0

>  <SCORE.INTRA.POLAR.0>
0

>  <SCORE.INTRA.REPUL>
0

>  <SCORE.INTRA.REPUL.0>
0

>  <SCORE.INTRA.SOLV>
0

>  <SCORE.INTRA.SOLV.lig_0>
-4.28464

>  <SCORE.INTRA.VDW>
0

>  <SCORE.INTRA.VDW.0>
0

>  <SCORE.INTRA.norm>
0

>  <SCORE.RESTR>
0

>  <SCORE.RESTR.CAVITY>
0

>  <SCORE.RESTR.norm>
0

>  <SCORE.SYSTEM>
0

>  <SCORE.SYSTEM.CONST>
0

>  <SCORE.SYSTEM.DIHEDRAL>
0

>  <SCORE.SYSTEM.SOLV>
0

>  <SCORE.SYSTEM.norm>
0

>  <SCORE.heavy>
10

>  <SCORE.norm>
-1.8055

>  <RMSD>
0.706

$$$$
ligand
 OpenBabel11021811423D
libRbt.so/2013.1/901 2013/11/27
 10 11  0  0  0  0  0  0  0  0999 V2000
   11.4944    9.4774   29.4882 N   0  0  0  0  0  0  0  0  0  0  0  0
   11.3523   10.8413   29.3004 C   0  0  0  0  0  0  0  0  0  0  0  0
   11.1265   11.3687   28.0911 N   0  0  0  0  0  0  0  0  0  0  0  0
   11.0560   10.4251   27.0970 C   0  0  0  0  0  0  0  0  0  0  0  0
   11.1888    9.0615   27.2234 C   0  0  0  0  0  0  0  0  0  0  0  0
   11.4288    8.4904   28.5040 C   0  0  0  0  0  0  0  0  0  0  0  0
   11.5773    7.3071   28.8345 O   0  0  0  0  0  0  0  0  0  0  0  0
   11.0491    8.4936   25.9839 N   0  0  0  0  0  0  0  0  0  0  0  0
   10.8325    9.5025   25.1185 C   0  0  0  0  0  0  0  0  0  0  0  0
   10.8325   10.7085   25.7730 N   0  0  0  0  0  0  0  0  0  0  0  0
  1  2  1  0  0  0  0
  1  6  1  0  0  0  0
  2  3  2  0  0  0  0
  3  4  1  0  0  0  0
  4  5  2  0  0  0  0
  4 10  1  0  0  0  0
  5  6  1  0  0  0  0
  5  8  1  0  0  0  0
  6  7  2  0  0  0  0
  8  9  1  0  0  0  0
  9 10  2  0  0  0  0
M  END
>  <CHROM.1>
11.20130771,9.52620738,27.56790931,0.19203811,-1.40019164,0.50551894

>  <Name>
ligand

>  <RI>
0

>  <Rbt.Current_Directory>
/home/itssahil/PROJECTS/Mol_Feturizer/New_Systems/rnas/2EET

>  <Rbt.Executable>
rbdock ($Id: //depot/dev/client3/rdock/2013.1/src/exe/rbdock.cxx#4 $)

>  <Rbt.Library>
libRbt.so (2013.1, Build901 2013/11/27)

>  <Rbt.Parameter_File>
/export/apps/rDock/src/rDock_2013.1_src/data/scripts/dock_solv.prm

>  <Rbt.Receptor>
prm/pocket_docking_8.prm

>  <SCORE>
-18.0321

>  <SCORE.INTER>
-18.0321

>  <SCORE.INTER.CONST>
1

>  <SCORE.INTER.POLAR>
0

>  <SCORE.INTER.ROT>
0

>  <SCORE.INTER.SOLV>
4.16429

>  <SCORE.INTER.VDW>
-17.0095

>  <SCORE.INTER.norm>
-1.80321

>  <SCORE.INTRA>
0

>  <SCORE.INTRA.DIHEDRAL>
0

>  <SCORE.INTRA.DIHEDRAL.0>
0

>  <SCORE.INTRA.POLAR>
0

>  <SCORE.INTRA.POLAR.0>
0

>  <SCORE.INTRA.REPUL>
0

>  <SCORE.INTRA.REPUL.0>
0

>  <SCORE.INTRA.SOLV>
0

>  <SCORE.INTRA.SOLV.lig_0>
-4.28464

>  <SCORE.INTRA.VDW>
0

>  <SCORE.INTRA.VDW.0>
0

>  <SCORE.INTRA.norm>
0

>  <SCORE.RESTR>
0

>  <SCORE.RESTR.CAVITY>
0

>  <SCORE.RESTR.norm>
0

>  <SCORE.SYSTEM>
0

>  <SCORE.SYSTEM.CONST>
0

>  <SCORE.SYSTEM.DIHEDRAL>
0

>  <SCORE.SYSTEM.SOLV>
0

>  <SCORE.SYSTEM.norm>
0

>  <SCORE.heavy>
10

>  <SCORE.norm>
-1.80321

>  <RMSD>
0.706

$$$$
ligand
 OpenBabel11021811423D
libRbt.so/2013.1/901 2013/11/27
 10 11  0  0  0  0  0  0  0  0999 V2000
   11.5001    9.4888   29.5036 N   0  0  0  0  0  0  0  0  0  0  0  0
   11.3449   10.8486   29.2973 C   0  0  0  0  0  0  0  0  0  0  0  0
   11.1103   11.3570   28.0814 N   0  0  0  0  0  0  0  0  0  0  0  0
   11.0452   10.3989   27.1009 C   0  0  0  0  0  0  0  0  0  0  0  0
   11.1910    9.0385   27.2459 C   0  0  0  0  0  0  0  0  0  0  0  0
   11.4404    8.4877   28.5335 C   0  0  0  0  0  0  0  0  0  0  0  0
   11.6009    7.3105   28.8800 O   0  0  0  0  0  0  0  0  0  0  0  0
   11.0524    8.4520   26.0150 N   0  0  0  0  0  0  0  0  0  0  0  0
   10.8237    9.4466   25.1363 C   0  0  0  0  0  0  0  0  0  0  0  0
   10.8148   10.6616   25.7738 N   0  0  0  0  0  0  0  0  0  0  0  0
  1  2  1  0  0  0  0
  1  6  1  0  0  0  0
  2  3  2  0  0  0  0
  3  4  1  0  0  0  0
  4  5  2  0  0  0  0
  4 10  1  0  0  0  0
  5  6  1  0  0  0  0
  5  8  1  0  0  0  0
  6  7  2  0  0  0  0
  8  9  1  0  0  0  0
  9 10  2  0  0  0  0
M  END
>  <CHROM.1>
11.20028877,9.50807294,27.58384603,0.22850296,-1.39275831,0.52743014

>  <Name>
ligand

>  <RI>
0

>  <Rbt.Current_Directory>
/home/itssahil/PROJECTS/Mol_Feturizer/New_Systems/rnas/2EET

>  <Rbt.Executable>
rbdock ($Id: //depot/dev/client3/rdock/2013.1/src/exe/rbdock.cxx#4 $)

>  <Rbt.Library>
libRbt.so (2013.1, Build901 2013/11/27)

>  <Rbt.Parameter_File>
/export/apps/rDock/src/rDock_2013.1_src/data/scripts/dock_solv.prm

>  <Rbt.Receptor>
prm/blind_docking_100.prm

>  <SCORE>
-18.0492

>  <SCORE.INTER>
-18.0492

>  <SCORE.INTER.CONST>
1

>  <SCORE.INTER.POLAR>
0

>  <SCORE.INTER.ROT>
0

>  <SCORE.INTER.SOLV>
4.1529

>  <SCORE.INTER.VDW>
-17.0171

>  <SCORE.INTER.norm>
-1.80492

>  <SCORE.INTRA>
0

>  <SCORE.INTRA.DIHEDRAL>
0

>  <SCORE.INTRA.DIHEDRAL.0>
0

>  <SCORE.INTRA.POLAR>
0

>  <SCORE.INTRA.POLAR.0>
0

>  <SCORE.INTRA.REPUL>
0

>  <SCORE.INTRA.REPUL.0>
0

>  <SCORE.INTRA.SOLV>
0

>  <SCORE.INTRA.SOLV.lig_0>
-4.28464

>  <SCORE.INTRA.VDW>
0

>  <SCORE.INTRA.VDW.0>
0

>  <SCORE.INTRA.norm>
0

>  <SCORE.RESTR>
0

>  <SCORE.RESTR.CAVITY>
0

>  <SCORE.RESTR.norm>
0

>  <SCORE.SYSTEM>
0

>  <SCORE.SYSTEM.CONST>
0

>  <SCORE.SYSTEM.DIHEDRAL>
0

>  <SCORE.SYSTEM.SOLV>
0

>  <SCORE.SYSTEM.norm>
0

>  <SCORE.heavy>
10

>  <SCORE.norm>
-1.80492

>  <RMSD>
0.707

$$$$
ligand
 OpenBabel11021811423D
libRbt.so/2013.1/901 2013/11/27
 10 11  0  0  0  0  0  0  0  0999 V2000
   11.5149    9.5110   29.5159 N   0  0  0  0  0  0  0  0  0  0  0  0
   11.3631   10.8701   29.3027 C   0  0  0  0  0  0  0  0  0  0  0  0
   11.1282   11.3728   28.0846 N   0  0  0  0  0  0  0  0  0  0  0  0
   11.0590   10.4098   27.1091 C   0  0  0  0  0  0  0  0  0  0  0  0
   11.2012    9.0497   27.2610 C   0  0  0  0  0  0  0  0  0  0  0  0
   11.4509    8.5049   28.5511 C   0  0  0  0  0  0  0  0  0  0  0  0
   11.6086    7.3292   28.9035 O   0  0  0  0  0  0  0  0  0  0  0  0
   11.0593    8.4573   26.0333 N   0  0  0  0  0  0  0  0  0  0  0  0
   10.8321    9.4480   25.1498 C   0  0  0  0  0  0  0  0  0  0  0  0
   10.8274   10.6663   25.7810 N   0  0  0  0  0  0  0  0  0  0  0  0
  1  2  1  0  0  0  0
  1  6  1  0  0  0  0
  2  3  2  0  0  0  0
  3  4  1  0  0  0  0
  4  5  2  0  0  0  0
  4 10  1  0  0  0  0
  5  6  1  0  0  0  0
  5  8  1  0  0  0  0
  6  7  2  0  0  0  0
  8  9  1  0  0  0  0
  9 10  2  0  0  0  0
M  END
>  <CHROM.1>
11.21232572,9.52107324,27.59648059,0.21080445,-1.39289559,0.50481858

>  <Name>
ligand

>  <RI>
0

>  <Rbt.Current_Directory>
/home/itssahil/PROJECTS/Mol_Feturizer/New_Systems/rnas/2EET

>  <Rbt.Executable>
rbdock ($Id: //depot/dev/client3/rdock/2013.1/src/exe/rbdock.cxx#4 $)

>  <Rbt.Library>
libRbt.so (2013.1, Build901 2013/11/27)

>  <Rbt.Parameter_File>
/export/apps/rDock/src/rDock_2013.1_src/data/scripts/dock_solv.prm

>  <Rbt.Receptor>
prm/blind_docking_40.prm

>  <SCORE>
-18.0608

>  <SCORE.INTER>
-18.0608

>  <SCORE.INTER.CONST>
1

>  <SCORE.INTER.POLAR>
0

>  <SCORE.INTER.ROT>
0

>  <SCORE.INTER.SOLV>
4.15955

>  <SCORE.INTER.VDW>
-17.027

>  <SCORE.INTER.norm>
-1.80608

>  <SCORE.INTRA>
0

>  <SCORE.INTRA.DIHEDRAL>
0

>  <SCORE.INTRA.DIHEDRAL.0>
0

>  <SCORE.INTRA.POLAR>
0

>  <SCORE.INTRA.POLAR.0>
0

>  <SCORE.INTRA.REPUL>
0

>  <SCORE.INTRA.REPUL.0>
0

>  <SCORE.INTRA.SOLV>
0

>  <SCORE.INTRA.SOLV.lig_0>
-4.28464

>  <SCORE.INTRA.VDW>
0

>  <SCORE.INTRA.VDW.0>
0

>  <SCORE.INTRA.norm>
0

>  <SCORE.RESTR>
0

>  <SCORE.RESTR.CAVITY>
0

>  <SCORE.RESTR.norm>
0

>  <SCORE.SYSTEM>
0

>  <SCORE.SYSTEM.CONST>
0

>  <SCORE.SYSTEM.DIHEDRAL>
0

>  <SCORE.SYSTEM.SOLV>
0

>  <SCORE.SYSTEM.norm>
0

>  <SCORE.heavy>
10

>  <SCORE.norm>
-1.80608

>  <RMSD>
0.707

$$$$
ligand
 OpenBabel11021811423D
libRbt.so/2013.1/901 2013/11/27
 10 11  0  0  0  0  0  0  0  0999 V2000
   11.5053    9.4870   29.4978 N   0  0  0  0  0  0  0  0  0  0  0  0
   11.3427   10.8458   29.2911 C   0  0  0  0  0  0  0  0  0  0  0  0
   11.1068   11.3528   28.0750 N   0  0  0  0  0  0  0  0  0  0  0  0
   11.0483   10.3944   27.0944 C   0  0  0  0  0  0  0  0  0  0  0  0
   11.2016    9.0348   27.2397 C   0  0  0  0  0  0  0  0  0  0  0  0
   11.4525    8.4854   28.5276 C   0  0  0  0  0  0  0  0  0  0  0  0
   11.6191    7.3092   28.8744 O   0  0  0  0  0  0  0  0  0  0  0  0
   11.0679    8.4475   26.0086 N   0  0  0  0  0  0  0  0  0  0  0  0
   10.8348    9.4408   25.1296 C   0  0  0  0  0  0  0  0  0  0  0  0
   10.8182   10.6557   25.7670 N   0  0  0  0  0  0  0  0  0  0  0  0
  1  2  1  0  0  0  0
  1  6  1  0  0  0  0
  2  3  2  0  0  0  0
  3  4  1  0  0  0  0
  4  5  2  0  0  0  0
  4 10  1  0  0  0  0
  5  6  1  0  0  0  0
  5  8  1  0  0  0  0
  6  7  2  0  0  0  0
  8  9  1  0  0  0  0
  9 10  2  0  0  0  0
M  END
>  <CHROM.1>
11.20783936,9.50443977,27.57757236,0.25933466,-1.39094216,0.55772563

>  <Name>
ligand

>  <RI>
0

>  <Rbt.Current_Directory>
/home/itssahil/PROJECTS/Mol_Feturizer/New_Systems/rnas/2EET

>  <Rbt.Executable>
rbdock ($Id: //depot/dev/client3/rdock/2013.1/src/exe/rbdock.cxx#4 $)

>  <Rbt.Library>
libRbt.so (2013.1, Build901 2013/11/27)

>  <Rbt.Parameter_File>
/export/apps/rDock/src/rDock_2013.1_src/data/scripts/dock_solv.prm

>  <Rbt.Receptor>
prm/blind_docking_40.prm

>  <SCORE>
-18.0257

>  <SCORE.INTER>
-18.0257

>  <SCORE.INTER.CONST>
1

>  <SCORE.INTER.POLAR>
0

>  <SCORE.INTER.ROT>
0

>  <SCORE.INTER.SOLV>
4.12583

>  <SCORE.INTER.VDW>
-16.9924

>  <SCORE.INTER.norm>
-1.80257

>  <SCORE.INTRA>
0

>  <SCORE.INTRA.DIHEDRAL>
0

>  <SCORE.INTRA.DIHEDRAL.0>
0

>  <SCORE.INTRA.POLAR>
0

>  <SCORE.INTRA.POLAR.0>
0

>  <SCORE.INTRA.REPUL>
0

>  <SCORE.INTRA.REPUL.0>
0

>  <SCORE.INTRA.SOLV>
0

>  <SCORE.INTRA.SOLV.lig_0>
-4.28464

>  <SCORE.INTRA.VDW>
0

>  <SCORE.INTRA.VDW.0>
0

>  <SCORE.INTRA.norm>
0

>  <SCORE.RESTR>
0

>  <SCORE.RESTR.CAVITY>
0

>  <SCORE.RESTR.norm>
0

>  <SCORE.SYSTEM>
0

>  <SCORE.SYSTEM.CONST>
0

>  <SCORE.SYSTEM.DIHEDRAL>
0

>  <SCORE.SYSTEM.SOLV>
0

>  <SCORE.SYSTEM.norm>
0

>  <SCORE.heavy>
10

>  <SCORE.norm>
-1.80257

>  <RMSD>
0.707

$$$$
ligand
 OpenBabel11021811423D
libRbt.so/2013.1/901 2013/11/27
 10 11  0  0  0  0  0  0  0  0999 V2000
   11.5002    9.4861   29.5021 N   0  0  0  0  0  0  0  0  0  0  0  0
   11.3469   10.8462   29.2967 C   0  0  0  0  0  0  0  0  0  0  0  0
   11.1137   11.3559   28.0812 N   0  0  0  0  0  0  0  0  0  0  0  0
   11.0477   10.3987   27.0999 C   0  0  0  0  0  0  0  0  0  0  0  0
   11.1915    9.0379   27.2439 C   0  0  0  0  0  0  0  0  0  0  0  0
   11.4395    8.4857   28.5312 C   0  0  0  0  0  0  0  0  0  0  0  0
   11.5982    7.3081   28.8769 O   0  0  0  0  0  0  0  0  0  0  0  0
   11.0528    8.4526   26.0124 N   0  0  0  0  0  0  0  0  0  0  0  0
   10.8259    9.4482   25.1344 C   0  0  0  0  0  0  0  0  0  0  0  0
   10.8183   10.6627   25.7729 N   0  0  0  0  0  0  0  0  0  0  0  0
  1  2  1  0  0  0  0
  1  6  1  0  0  0  0
  2  3  2  0  0  0  0
  3  4  1  0  0  0  0
  4  5  2  0  0  0  0
  4 10  1  0  0  0  0
  5  6  1  0  0  0  0
  5  8  1  0  0  0  0
  6  7  2  0  0  0  0
  8  9  1  0  0  0  0
  9 10  2  0  0  0  0
M  END
>  <CHROM.1>
11.20133875,9.50722650,27.58220341,0.22309498,-1.39389067,0.52288849

>  <Name>
ligand

>  <RI>
0

>  <Rbt.Current_Directory>
/home/itssahil/PROJECTS/Mol_Feturizer/New_Systems/rnas/2EET

>  <Rbt.Executable>
rbdock ($Id: //depot/dev/client3/rdock/2013.1/src/exe/rbdock.cxx#4 $)

>  <Rbt.Library>
libRbt.so (2013.1, Build901 2013/11/27)

>  <Rbt.Parameter_File>
/export/apps/rDock/src/rDock_2013.1_src/data/scripts/dock_solv.prm

>  <Rbt.Receptor>
prm/pocket_docking_4.prm

>  <SCORE>
-18.0526

>  <SCORE.INTER>
-18.0526

>  <SCORE.INTER.CONST>
1

>  <SCORE.INTER.POLAR>
0

>  <SCORE.INTER.ROT>
0

>  <SCORE.INTER.SOLV>
4.1558

>  <SCORE.INTER.VDW>
-17.0203

>  <SCORE.INTER.norm>
-1.80526

>  <SCORE.INTRA>
0

>  <SCORE.INTRA.DIHEDRAL>
0

>  <SCORE.INTRA.DIHEDRAL.0>
0

>  <SCORE.INTRA.POLAR>
0

>  <SCORE.INTRA.POLAR.0>
0

>  <SCORE.INTRA.REPUL>
0

>  <SCORE.INTRA.REPUL.0>
0

>  <SCORE.INTRA.SOLV>
0

>  <SCORE.INTRA.SOLV.lig_0>
-4.28464

>  <SCORE.INTRA.VDW>
0

>  <SCORE.INTRA.VDW.0>
0

>  <SCORE.INTRA.norm>
0

>  <SCORE.RESTR>
0

>  <SCORE.RESTR.CAVITY>
0

>  <SCORE.RESTR.norm>
0

>  <SCORE.SYSTEM>
0

>  <SCORE.SYSTEM.CONST>
0

>  <SCORE.SYSTEM.DIHEDRAL>
0

>  <SCORE.SYSTEM.SOLV>
0

>  <SCORE.SYSTEM.norm>
0

>  <SCORE.heavy>
10

>  <SCORE.norm>
-1.80526

>  <RMSD>
0.707

$$$$
ligand
 OpenBabel11021811423D
libRbt.so/2013.1/901 2013/11/27
 10 11  0  0  0  0  0  0  0  0999 V2000
   11.5018    9.4869   29.5092 N   0  0  0  0  0  0  0  0  0  0  0  0
   11.3691   10.8494   29.3052 C   0  0  0  0  0  0  0  0  0  0  0  0
   11.1376   11.3633   28.0911 N   0  0  0  0  0  0  0  0  0  0  0  0
   11.0512   10.4078   27.1098 C   0  0  0  0  0  0  0  0  0  0  0  0
   11.1741    9.0448   27.2524 C   0  0  0  0  0  0  0  0  0  0  0  0
   11.4201    8.4881   28.5381 C   0  0  0  0  0  0  0  0  0  0  0  0
   11.5618    7.3079   28.8825 O   0  0  0  0  0  0  0  0  0  0  0  0
   11.0196    8.4625   26.0214 N   0  0  0  0  0  0  0  0  0  0  0  0
   10.8040    9.4620   25.1451 C   0  0  0  0  0  0  0  0  0  0  0  0
   10.8191   10.6762   25.7841 N   0  0  0  0  0  0  0  0  0  0  0  0
  1  2  1  0  0  0  0
  1  6  1  0  0  0  0
  2  3  2  0  0  0  0
  3  4  1  0  0  0  0
  4  5  2  0  0  0  0
  4 10  1  0  0  0  0
  5  6  1  0  0  0  0
  5  8  1  0  0  0  0
  6  7  2  0  0  0  0
  8  9  1  0  0  0  0
  9 10  2  0  0  0  0
M  END
>  <CHROM.1>
11.19318210,9.51377692,27.59087346,0.12828549,-1.39651885,0.43001941

>  <Name>
ligand

>  <RI>
0

>  <Rbt.Current_Directory>
/home/itssahil/PROJECTS/Mol_Feturizer/New_Systems/rnas/2EET

>  <Rbt.Executable>
rbdock ($Id: //depot/dev/client3/rdock/2013.1/src/exe/rbdock.cxx#4 $)

>  <Rbt.Library>
libRbt.so (2013.1, Build901 2013/11/27)

>  <Rbt.Parameter_File>
/export/apps/rDock/src/rDock_2013.1_src/data/scripts/dock_solv.prm

>  <Rbt.Receptor>
prm/pocket_docking_5.prm

>  <SCORE>
-18.0627

>  <SCORE.INTER>
-18.0627

>  <SCORE.INTER.CONST>
1

>  <SCORE.INTER.POLAR>
0

>  <SCORE.INTER.ROT>
0

>  <SCORE.INTER.SOLV>
4.20747

>  <SCORE.INTER.VDW>
-17.0443

>  <SCORE.INTER.norm>
-1.80627

>  <SCORE.INTRA>
0

>  <SCORE.INTRA.DIHEDRAL>
0

>  <SCORE.INTRA.DIHEDRAL.0>
0

>  <SCORE.INTRA.POLAR>
0

>  <SCORE.INTRA.POLAR.0>
0

>  <SCORE.INTRA.REPUL>
0

>  <SCORE.INTRA.REPUL.0>
0

>  <SCORE.INTRA.SOLV>
0

>  <SCORE.INTRA.SOLV.lig_0>
-4.28464

>  <SCORE.INTRA.VDW>
0

>  <SCORE.INTRA.VDW.0>
0

>  <SCORE.INTRA.norm>
0

>  <SCORE.RESTR>
0

>  <SCORE.RESTR.CAVITY>
0

>  <SCORE.RESTR.norm>
0

>  <SCORE.SYSTEM>
0

>  <SCORE.SYSTEM.CONST>
0

>  <SCORE.SYSTEM.DIHEDRAL>
0

>  <SCORE.SYSTEM.SOLV>
0

>  <SCORE.SYSTEM.norm>
0

>  <SCORE.heavy>
10

>  <SCORE.norm>
-1.80627

>  <RMSD>
0.707

$$$$
ligand
 OpenBabel11021811423D
libRbt.so/2013.1/901 2013/11/27
 10 11  0  0  0  0  0  0  0  0999 V2000
   11.5164    9.5128   29.5171 N   0  0  0  0  0  0  0  0  0  0  0  0
   11.3659   10.8720   29.3033 C   0  0  0  0  0  0  0  0  0  0  0  0
   11.1323   11.3744   28.0848 N   0  0  0  0  0  0  0  0  0  0  0  0
   11.0631   10.4112   27.1096 C   0  0  0  0  0  0  0  0  0  0  0  0
   11.2041    9.0510   27.2621 C   0  0  0  0  0  0  0  0  0  0  0  0
   11.4524    8.5065   28.5526 C   0  0  0  0  0  0  0  0  0  0  0  0
   11.6089    7.3307   28.9056 O   0  0  0  0  0  0  0  0  0  0  0  0
   11.0627    8.4582   26.0346 N   0  0  0  0  0  0  0  0  0  0  0  0
   10.8369    9.4487   25.1505 C   0  0  0  0  0  0  0  0  0  0  0  0
   10.8327   10.6673   25.7813 N   0  0  0  0  0  0  0  0  0  0  0  0
  1  2  1  0  0  0  0
  1  6  1  0  0  0  0
  2  3  2  0  0  0  0
  3  4  1  0  0  0  0
  4  5  2  0  0  0  0
  4 10  1  0  0  0  0
  5  6  1  0  0  0  0
  5  8  1  0  0  0  0
  6  7  2  0  0  0  0
  8  9  1  0  0  0  0
  9 10  2  0  0  0  0
M  END
>  <CHROM.1>
11.21535620,9.52244332,27.59743341,0.20896411,-1.39393691,0.50263095

>  <Name>
ligand

>  <RI>
0

>  <Rbt.Current_Directory>
/home/itssahil/PROJECTS/Mol_Feturizer/New_Systems/rnas/2EET

>  <Rbt.Executable>
rbdock ($Id: //depot/dev/client3/rdock/2013.1/src/exe/rbdock.cxx#4 $)

>  <Rbt.Library>
libRbt.so (2013.1, Build901 2013/11/27)

>  <Rbt.Parameter_File>
/export/apps/rDock/src/rDock_2013.1_src/data/scripts/dock_solv.prm

>  <Rbt.Receptor>
prm/pocket_docking_5.prm

>  <SCORE>
-18.0614

>  <SCORE.INTER>
-18.0614

>  <SCORE.INTER.CONST>
1

>  <SCORE.INTER.POLAR>
0

>  <SCORE.INTER.ROT>
0

>  <SCORE.INTER.SOLV>
4.16165

>  <SCORE.INTER.VDW>
-17.0281

>  <SCORE.INTER.norm>
-1.80614

>  <SCORE.INTRA>
0

>  <SCORE.INTRA.DIHEDRAL>
0

>  <SCORE.INTRA.DIHEDRAL.0>
0

>  <SCORE.INTRA.POLAR>
0

>  <SCORE.INTRA.POLAR.0>
0

>  <SCORE.INTRA.REPUL>
0

>  <SCORE.INTRA.REPUL.0>
0

>  <SCORE.INTRA.SOLV>
0

>  <SCORE.INTRA.SOLV.lig_0>
-4.28464

>  <SCORE.INTRA.VDW>
0

>  <SCORE.INTRA.VDW.0>
0

>  <SCORE.INTRA.norm>
0

>  <SCORE.RESTR>
0

>  <SCORE.RESTR.CAVITY>
0

>  <SCORE.RESTR.norm>
0

>  <SCORE.SYSTEM>
0

>  <SCORE.SYSTEM.CONST>
0

>  <SCORE.SYSTEM.DIHEDRAL>
0

>  <SCORE.SYSTEM.SOLV>
0

>  <SCORE.SYSTEM.norm>
0

>  <SCORE.heavy>
10

>  <SCORE.norm>
-1.80614

>  <RMSD>
0.707

$$$$
ligand
 OpenBabel11021811423D
libRbt.so/2013.1/901 2013/11/27
 10 11  0  0  0  0  0  0  0  0999 V2000
   11.4969    9.4804   29.4829 N   0  0  0  0  0  0  0  0  0  0  0  0
   11.3488   10.8439   29.2967 C   0  0  0  0  0  0  0  0  0  0  0  0
   11.1209   11.3718   28.0879 N   0  0  0  0  0  0  0  0  0  0  0  0
   11.0548   10.4290   27.0927 C   0  0  0  0  0  0  0  0  0  0  0  0
   11.1937    9.0658   27.2175 C   0  0  0  0  0  0  0  0  0  0  0  0
   11.4360    8.4944   28.4975 C   0  0  0  0  0  0  0  0  0  0  0  0
   11.5897    7.3114   28.8266 O   0  0  0  0  0  0  0  0  0  0  0  0
   11.0569    8.4988   25.9774 N   0  0  0  0  0  0  0  0  0  0  0  0
   10.8359    9.5077   25.1131 C   0  0  0  0  0  0  0  0  0  0  0  0
   10.8304   10.7129   25.7690 N   0  0  0  0  0  0  0  0  0  0  0  0
  1  2  1  0  0  0  0
  1  6  1  0  0  0  0
  2  3  2  0  0  0  0
  3  4  1  0  0  0  0
  4  5  2  0  0  0  0
  4 10  1  0  0  0  0
  5  6  1  0  0  0  0
  5  8  1  0  0  0  0
  6  7  2  0  0  0  0
  8  9  1  0  0  0  0
  9 10  2  0  0  0  0
M  END
>  <CHROM.1>
11.20403815,9.53021642,27.56260726,0.21550439,-1.39816873,0.52982493

>  <Name>
ligand

>  <RI>
0

>  <Rbt.Current_Directory>
/home/itssahil/PROJECTS/Mol_Feturizer/New_Systems/rnas/2EET

>  <Rbt.Executable>
rbdock ($Id: //depot/dev/client3/rdock/2013.1/src/exe/rbdock.cxx#4 $)

>  <Rbt.Library>
libRbt.so (2013.1, Build901 2013/11/27)

>  <Rbt.Parameter_File>
/export/apps/rDock/src/rDock_2013.1_src/data/scripts/dock_solv.prm

>  <Rbt.Receptor>
prm/pocket_docking_6.prm

>  <SCORE>
-18.0139

>  <SCORE.INTER>
-18.0139

>  <SCORE.INTER.CONST>
1

>  <SCORE.INTER.POLAR>
0

>  <SCORE.INTER.ROT>
0

>  <SCORE.INTER.SOLV>
4.14204

>  <SCORE.INTER.VDW>
-16.9899

>  <SCORE.INTER.norm>
-1.80139

>  <SCORE.INTRA>
0

>  <SCORE.INTRA.DIHEDRAL>
0

>  <SCORE.INTRA.DIHEDRAL.0>
0

>  <SCORE.INTRA.POLAR>
0

>  <SCORE.INTRA.POLAR.0>
0

>  <SCORE.INTRA.REPUL>
0

>  <SCORE.INTRA.REPUL.0>
0

>  <SCORE.INTRA.SOLV>
0

>  <SCORE.INTRA.SOLV.lig_0>
-4.28464

>  <SCORE.INTRA.VDW>
0

>  <SCORE.INTRA.VDW.0>
0

>  <SCORE.INTRA.norm>
0

>  <SCORE.RESTR>
0

>  <SCORE.RESTR.CAVITY>
0

>  <SCORE.RESTR.norm>
0

>  <SCORE.SYSTEM>
0

>  <SCORE.SYSTEM.CONST>
0

>  <SCORE.SYSTEM.DIHEDRAL>
0

>  <SCORE.SYSTEM.SOLV>
0

>  <SCORE.SYSTEM.norm>
0

>  <SCORE.heavy>
10

>  <SCORE.norm>
-1.80139

>  <RMSD>
0.707

$$$$
ligand
 OpenBabel11021811423D
libRbt.so/2013.1/901 2013/11/27
 10 11  0  0  0  0  0  0  0  0999 V2000
   11.4998    9.4795   29.4890 N   0  0  0  0  0  0  0  0  0  0  0  0
   11.3642   10.8437   29.2987 C   0  0  0  0  0  0  0  0  0  0  0  0
   11.1333   11.3694   28.0896 N   0  0  0  0  0  0  0  0  0  0  0  0
   11.0508   10.4238   27.0984 C   0  0  0  0  0  0  0  0  0  0  0  0
   11.1767    9.0597   27.2273 C   0  0  0  0  0  0  0  0  0  0  0  0
   11.4220    8.4905   28.5076 C   0  0  0  0  0  0  0  0  0  0  0  0
   11.5660    7.3072   28.8401 O   0  0  0  0  0  0  0  0  0  0  0  0
   11.0255    8.4896   25.9902 N   0  0  0  0  0  0  0  0  0  0  0  0
   10.8088    9.4976   25.1238 C   0  0  0  0  0  0  0  0  0  0  0  0
   10.8200   10.7052   25.7752 N   0  0  0  0  0  0  0  0  0  0  0  0
  1  2  1  0  0  0  0
  1  6  1  0  0  0  0
  2  3  2  0  0  0  0
  3  4  1  0  0  0  0
  4  5  2  0  0  0  0
  4 10  1  0  0  0  0
  5  6  1  0  0  0  0
  5  8  1  0  0  0  0
  6  7  2  0  0  0  0
  8  9  1  0  0  0  0
  9 10  2  0  0  0  0
M  END
>  <CHROM.1>
11.19412450,9.52524315,27.57054634,0.14460165,-1.39688456,0.45631092

>  <Name>
ligand

>  <RI>
0

>  <Rbt.Current_Directory>
/home/itssahil/PROJECTS/Mol_Feturizer/New_Systems/rnas/2EET

>  <Rbt.Executable>
rbdock ($Id: //depot/dev/client3/rdock/2013.1/src/exe/rbdock.cxx#4 $)

>  <Rbt.Library>
libRbt.so (2013.1, Build901 2013/11/27)

>  <Rbt.Parameter_File>
/export/apps/rDock/src/rDock_2013.1_src/data/scripts/dock_solv.prm

>  <Rbt.Receptor>
prm/pocket_docking_7.prm

>  <SCORE>
-18.052

>  <SCORE.INTER>
-18.052

>  <SCORE.INTER.CONST>
1

>  <SCORE.INTER.POLAR>
0

>  <SCORE.INTER.ROT>
0

>  <SCORE.INTER.SOLV>
4.17865

>  <SCORE.INTER.VDW>
-17.0276

>  <SCORE.INTER.norm>
-1.8052

>  <SCORE.INTRA>
0

>  <SCORE.INTRA.DIHEDRAL>
0

>  <SCORE.INTRA.DIHEDRAL.0>
0

>  <SCORE.INTRA.POLAR>
0

>  <SCORE.INTRA.POLAR.0>
0

>  <SCORE.INTRA.REPUL>
0

>  <SCORE.INTRA.REPUL.0>
0

>  <SCORE.INTRA.SOLV>
0

>  <SCORE.INTRA.SOLV.lig_0>
-4.28464

>  <SCORE.INTRA.VDW>
0

>  <SCORE.INTRA.VDW.0>
0

>  <SCORE.INTRA.norm>
0

>  <SCORE.RESTR>
0

>  <SCORE.RESTR.CAVITY>
0

>  <SCORE.RESTR.norm>
0

>  <SCORE.SYSTEM>
0

>  <SCORE.SYSTEM.CONST>
0

>  <SCORE.SYSTEM.DIHEDRAL>
0

>  <SCORE.SYSTEM.SOLV>
0

>  <SCORE.SYSTEM.norm>
0

>  <SCORE.heavy>
10

>  <SCORE.norm>
-1.8052

>  <RMSD>
0.707

$$$$
ligand
 OpenBabel11021811423D
libRbt.so/2013.1/901 2013/11/27
 10 11  0  0  0  0  0  0  0  0999 V2000
   11.5114    9.4876   29.5000 N   0  0  0  0  0  0  0  0  0  0  0  0
   11.3699   10.8488   29.2928 C   0  0  0  0  0  0  0  0  0  0  0  0
   11.1367   11.3585   28.0773 N   0  0  0  0  0  0  0  0  0  0  0  0
   11.0582   10.4003   27.0979 C   0  0  0  0  0  0  0  0  0  0  0  0
   11.1900    9.0385   27.2437 C   0  0  0  0  0  0  0  0  0  0  0  0
   11.4378    8.4863   28.5310 C   0  0  0  0  0  0  0  0  0  0  0  0
   11.5869    7.3078   28.8781 O   0  0  0  0  0  0  0  0  0  0  0  0
   11.0412    8.4524   26.0138 N   0  0  0  0  0  0  0  0  0  0  0  0
   10.8202    9.4486   25.1350 C   0  0  0  0  0  0  0  0  0  0  0  0
   10.8262   10.6642   25.7713 N   0  0  0  0  0  0  0  0  0  0  0  0
  1  2  1  0  0  0  0
  1  6  1  0  0  0  0
  2  3  2  0  0  0  0
  3  4  1  0  0  0  0
  4  5  2  0  0  0  0
  4 10  1  0  0  0  0
  5  6  1  0  0  0  0
  5  8  1  0  0  0  0
  6  7  2  0  0  0  0
  8  9  1  0  0  0  0
  9 10  2  0  0  0  0
M  END
>  <CHROM.1>
11.20541313,9.50829138,27.58118526,0.16654741,-1.39492950,0.46550240

>  <Name>
ligand

>  <RI>
0

>  <Rbt.Current_Directory>
/home/itssahil/PROJECTS/Mol_Feturizer/New_Systems/rnas/2EET

>  <Rbt.Executable>
rbdock ($Id: //depot/dev/client3/rdock/2013.1/src/exe/rbdock.cxx#4 $)

>  <Rbt.Library>
libRbt.so (2013.1, Build901 2013/11/27)

>  <Rbt.Parameter_File>
/export/apps/rDock/src/rDock_2013.1_src/data/scripts/dock_solv.prm

>  <Rbt.Receptor>
prm/blind_docking_100.prm

>  <SCORE>
-18.0798

>  <SCORE.INTER>
-18.0798

>  <SCORE.INTER.CONST>
1

>  <SCORE.INTER.POLAR>
0

>  <SCORE.INTER.ROT>
0

>  <SCORE.INTER.SOLV>
4.17296

>  <SCORE.INTER.VDW>
-17.0442

>  <SCORE.INTER.norm>
-1.80798

>  <SCORE.INTRA>
0

>  <SCORE.INTRA.DIHEDRAL>
0

>  <SCORE.INTRA.DIHEDRAL.0>
0

>  <SCORE.INTRA.POLAR>
0

>  <SCORE.INTRA.POLAR.0>
0

>  <SCORE.INTRA.REPUL>
0

>  <SCORE.INTRA.REPUL.0>
0

>  <SCORE.INTRA.SOLV>
0

>  <SCORE.INTRA.SOLV.lig_0>
-4.28464

>  <SCORE.INTRA.VDW>
0

>  <SCORE.INTRA.VDW.0>
0

>  <SCORE.INTRA.norm>
0

>  <SCORE.RESTR>
0

>  <SCORE.RESTR.CAVITY>
0

>  <SCORE.RESTR.norm>
0

>  <SCORE.SYSTEM>
0

>  <SCORE.SYSTEM.CONST>
0

>  <SCORE.SYSTEM.DIHEDRAL>
0

>  <SCORE.SYSTEM.SOLV>
0

>  <SCORE.SYSTEM.norm>
0

>  <SCORE.heavy>
10

>  <SCORE.norm>
-1.80798

>  <RMSD>
0.708

$$$$
ligand
 OpenBabel11021811423D
libRbt.so/2013.1/901 2013/11/27
 10 11  0  0  0  0  0  0  0  0999 V2000
   11.5008    9.5124   29.5246 N   0  0  0  0  0  0  0  0  0  0  0  0
   11.3553   10.8724   29.3125 C   0  0  0  0  0  0  0  0  0  0  0  0
   11.1321   11.3780   28.0934 N   0  0  0  0  0  0  0  0  0  0  0  0
   11.0678   10.4170   27.1157 C   0  0  0  0  0  0  0  0  0  0  0  0
   11.2043    9.0562   27.2663 C   0  0  0  0  0  0  0  0  0  0  0  0
   11.4415    8.5083   28.5574 C   0  0  0  0  0  0  0  0  0  0  0  0
   11.5924    7.3314   28.9090 O   0  0  0  0  0  0  0  0  0  0  0  0
   11.0706    8.4664   26.0364 N   0  0  0  0  0  0  0  0  0  0  0  0
   10.8540    9.4594   25.1529 C   0  0  0  0  0  0  0  0  0  0  0  0
   10.8481   10.6766   25.7862 N   0  0  0  0  0  0  0  0  0  0  0  0
  1  2  1  0  0  0  0
  1  6  1  0  0  0  0
  2  3  2  0  0  0  0
  3  4  1  0  0  0  0
  4  5  2  0  0  0  0
  4 10  1  0  0  0  0
  5  6  1  0  0  0  0
  5  8  1  0  0  0  0
  6  7  2  0  0  0  0
  8  9  1  0  0  0  0
  9 10  2  0  0  0  0
M  END
>  <CHROM.1>
11.21419379,9.52688713,27.60270772,0.21748924,-1.40173100,0.51319324

>  <Name>
ligand

>  <RI>
0

>  <Rbt.Current_Directory>
/home/itssahil/PROJECTS/Mol_Feturizer/New_Systems/rnas/2EET

>  <Rbt.Executable>
rbdock ($Id: //depot/dev/client3/rdock/2013.1/src/exe/rbdock.cxx#4 $)

>  <Rbt.Library>
libRbt.so (2013.1, Build901 2013/11/27)

>  <Rbt.Parameter_File>
/export/apps/rDock/src/rDock_2013.1_src/data/scripts/dock_solv.prm

>  <Rbt.Receptor>
prm/blind_docking_100.prm

>  <SCORE>
-18.0558

>  <SCORE.INTER>
-18.0558

>  <SCORE.INTER.CONST>
1

>  <SCORE.INTER.POLAR>
0

>  <SCORE.INTER.ROT>
0

>  <SCORE.INTER.SOLV>
4.18731

>  <SCORE.INTER.VDW>
-17.033

>  <SCORE.INTER.norm>
-1.80558

>  <SCORE.INTRA>
0

>  <SCORE.INTRA.DIHEDRAL>
0

>  <SCORE.INTRA.DIHEDRAL.0>
0

>  <SCORE.INTRA.POLAR>
0

>  <SCORE.INTRA.POLAR.0>
0

>  <SCORE.INTRA.REPUL>
0

>  <SCORE.INTRA.REPUL.0>
0

>  <SCORE.INTRA.SOLV>
0

>  <SCORE.INTRA.SOLV.lig_0>
-4.28464

>  <SCORE.INTRA.VDW>
0

>  <SCORE.INTRA.VDW.0>
0

>  <SCORE.INTRA.norm>
0

>  <SCORE.RESTR>
0

>  <SCORE.RESTR.CAVITY>
0

>  <SCORE.RESTR.norm>
0

>  <SCORE.SYSTEM>
0

>  <SCORE.SYSTEM.CONST>
0

>  <SCORE.SYSTEM.DIHEDRAL>
0

>  <SCORE.SYSTEM.SOLV>
0

>  <SCORE.SYSTEM.norm>
0

>  <SCORE.heavy>
10

>  <SCORE.norm>
-1.80558

>  <RMSD>
0.708

$$$$
ligand
 OpenBabel11021811423D
libRbt.so/2013.1/901 2013/11/27
 10 11  0  0  0  0  0  0  0  0999 V2000
   11.5089    9.5080   29.5164 N   0  0  0  0  0  0  0  0  0  0  0  0
   11.3605   10.8676   29.3038 C   0  0  0  0  0  0  0  0  0  0  0  0
   11.1298   11.3717   28.0855 N   0  0  0  0  0  0  0  0  0  0  0  0
   11.0610   10.4097   27.1091 C   0  0  0  0  0  0  0  0  0  0  0  0
   11.2000    9.0491   27.2603 C   0  0  0  0  0  0  0  0  0  0  0  0
   11.4454    8.5028   28.5506 C   0  0  0  0  0  0  0  0  0  0  0  0
   11.5997    7.3265   28.9025 O   0  0  0  0  0  0  0  0  0  0  0  0
   11.0600    8.4579   26.0318 N   0  0  0  0  0  0  0  0  0  0  0  0
   10.8371    9.4497   25.1485 C   0  0  0  0  0  0  0  0  0  0  0  0
   10.8333   10.6676   25.7806 N   0  0  0  0  0  0  0  0  0  0  0  0
  1  2  1  0  0  0  0
  1  6  1  0  0  0  0
  2  3  2  0  0  0  0
  3  4  1  0  0  0  0
  4  5  2  0  0  0  0
  4 10  1  0  0  0  0
  5  6  1  0  0  0  0
  5  8  1  0  0  0  0
  6  7  2  0  0  0  0
  8  9  1  0  0  0  0
  9 10  2  0  0  0  0
M  END
>  <CHROM.1>
11.21127156,9.52020083,27.59617279,0.20738446,-1.39610565,0.50220752

>  <Name>
ligand

>  <RI>
0

>  <Rbt.Current_Directory>
/home/itssahil/PROJECTS/Mol_Feturizer/New_Systems/rnas/2EET

>  <Rbt.Executable>
rbdock ($Id: //depot/dev/client3/rdock/2013.1/src/exe/rbdock.cxx#4 $)

>  <Rbt.Library>
libRbt.so (2013.1, Build901 2013/11/27)

>  <Rbt.Parameter_File>
/export/apps/rDock/src/rDock_2013.1_src/data/scripts/dock_solv.prm

>  <Rbt.Receptor>
prm/blind_docking_40.prm

>  <SCORE>
-18.064

>  <SCORE.INTER>
-18.064

>  <SCORE.INTER.CONST>
1

>  <SCORE.INTER.POLAR>
0

>  <SCORE.INTER.ROT>
0

>  <SCORE.INTER.SOLV>
4.17131

>  <SCORE.INTER.VDW>
-17.0331

>  <SCORE.INTER.norm>
-1.8064

>  <SCORE.INTRA>
0

>  <SCORE.INTRA.DIHEDRAL>
0

>  <SCORE.INTRA.DIHEDRAL.0>
0

>  <SCORE.INTRA.POLAR>
0

>  <SCORE.INTRA.POLAR.0>
0

>  <SCORE.INTRA.REPUL>
0

>  <SCORE.INTRA.REPUL.0>
0

>  <SCORE.INTRA.SOLV>
0

>  <SCORE.INTRA.SOLV.lig_0>
-4.28464

>  <SCORE.INTRA.VDW>
0

>  <SCORE.INTRA.VDW.0>
0

>  <SCORE.INTRA.norm>
0

>  <SCORE.RESTR>
0

>  <SCORE.RESTR.CAVITY>
0

>  <SCORE.RESTR.norm>
0

>  <SCORE.SYSTEM>
0

>  <SCORE.SYSTEM.CONST>
0

>  <SCORE.SYSTEM.DIHEDRAL>
0

>  <SCORE.SYSTEM.SOLV>
0

>  <SCORE.SYSTEM.norm>
0

>  <SCORE.heavy>
10

>  <SCORE.norm>
-1.8064

>  <RMSD>
0.708

$$$$
ligand
 OpenBabel11021811423D
libRbt.so/2013.1/901 2013/11/27
 10 11  0  0  0  0  0  0  0  0999 V2000
   11.5063    9.4865   29.5007 N   0  0  0  0  0  0  0  0  0  0  0  0
   11.3608   10.8474   29.2945 C   0  0  0  0  0  0  0  0  0  0  0  0
   11.1309   11.3577   28.0786 N   0  0  0  0  0  0  0  0  0  0  0  0
   11.0599   10.4004   27.0978 C   0  0  0  0  0  0  0  0  0  0  0  0
   11.1960    9.0389   27.2425 C   0  0  0  0  0  0  0  0  0  0  0  0
   11.4404    8.4860   28.5302 C   0  0  0  0  0  0  0  0  0  0  0  0
   11.5923    7.3077   28.8765 O   0  0  0  0  0  0  0  0  0  0  0  0
   11.0545    8.4538   26.0113 N   0  0  0  0  0  0  0  0  0  0  0  0
   10.8336    9.4502   25.1327 C   0  0  0  0  0  0  0  0  0  0  0  0
   10.8326   10.6651   25.7706 N   0  0  0  0  0  0  0  0  0  0  0  0
  1  2  1  0  0  0  0
  1  6  1  0  0  0  0
  2  3  2  0  0  0  0
  3  4  1  0  0  0  0
  4  5  2  0  0  0  0
  4 10  1  0  0  0  0
  5  6  1  0  0  0  0
  5  8  1  0  0  0  0
  6  7  2  0  0  0  0
  8  9  1  0  0  0  0
  9 10  2  0  0  0  0
M  END
>  <CHROM.1>
11.20834158,9.50834909,27.58061096,0.19613526,-1.39698226,0.49584390

>  <Name>
ligand

>  <RI>
0

>  <Rbt.Current_Directory>
/home/itssahil/PROJECTS/Mol_Feturizer/New_Systems/rnas/2EET

>  <Rbt.Executable>
rbdock ($Id: //depot/dev/client3/rdock/2013.1/src/exe/rbdock.cxx#4 $)

>  <Rbt.Library>
libRbt.so (2013.1, Build901 2013/11/27)

>  <Rbt.Parameter_File>
/export/apps/rDock/src/rDock_2013.1_src/data/scripts/dock_solv.prm

>  <Rbt.Receptor>
prm/blind_docking_80.prm

>  <SCORE>
-18.0658

>  <SCORE.INTER>
-18.0658

>  <SCORE.INTER.CONST>
1

>  <SCORE.INTER.POLAR>
0

>  <SCORE.INTER.ROT>
0

>  <SCORE.INTER.SOLV>
4.16662

>  <SCORE.INTER.VDW>
-17.0328

>  <SCORE.INTER.norm>
-1.80658

>  <SCORE.INTRA>
0

>  <SCORE.INTRA.DIHEDRAL>
0

>  <SCORE.INTRA.DIHEDRAL.0>
0

>  <SCORE.INTRA.POLAR>
0

>  <SCORE.INTRA.POLAR.0>
0

>  <SCORE.INTRA.REPUL>
0

>  <SCORE.INTRA.REPUL.0>
0

>  <SCORE.INTRA.SOLV>
0

>  <SCORE.INTRA.SOLV.lig_0>
-4.28464

>  <SCORE.INTRA.VDW>
0

>  <SCORE.INTRA.VDW.0>
0

>  <SCORE.INTRA.norm>
0

>  <SCORE.RESTR>
0

>  <SCORE.RESTR.CAVITY>
0

>  <SCORE.RESTR.norm>
0

>  <SCORE.SYSTEM>
0

>  <SCORE.SYSTEM.CONST>
0

>  <SCORE.SYSTEM.DIHEDRAL>
0

>  <SCORE.SYSTEM.SOLV>
0

>  <SCORE.SYSTEM.norm>
0

>  <SCORE.heavy>
10

>  <SCORE.norm>
-1.80658

>  <RMSD>
0.708

$$$$
ligand
 OpenBabel11021811423D
libRbt.so/2013.1/901 2013/11/27
 10 11  0  0  0  0  0  0  0  0999 V2000
   11.5141    9.5060   29.5122 N   0  0  0  0  0  0  0  0  0  0  0  0
   11.3660   10.8657   29.3002 C   0  0  0  0  0  0  0  0  0  0  0  0
   11.1336   11.3702   28.0823 N   0  0  0  0  0  0  0  0  0  0  0  0
   11.0629   10.4084   27.1059 C   0  0  0  0  0  0  0  0  0  0  0  0
   11.2015    9.0478   27.2565 C   0  0  0  0  0  0  0  0  0  0  0  0
   11.4486    8.5011   28.5463 C   0  0  0  0  0  0  0  0  0  0  0  0
   11.6030    7.3246   28.8977 O   0  0  0  0  0  0  0  0  0  0  0  0
   11.0593    8.4570   26.0281 N   0  0  0  0  0  0  0  0  0  0  0  0
   10.8354    9.4491   25.1454 C   0  0  0  0  0  0  0  0  0  0  0  0
   10.8333   10.6668   25.7778 N   0  0  0  0  0  0  0  0  0  0  0  0
  1  2  1  0  0  0  0
  1  6  1  0  0  0  0
  2  3  2  0  0  0  0
  3  4  1  0  0  0  0
  4  5  2  0  0  0  0
  4 10  1  0  0  0  0
  5  6  1  0  0  0  0
  5  8  1  0  0  0  0
  6  7  2  0  0  0  0
  8  9  1  0  0  0  0
  9 10  2  0  0  0  0
M  END
>  <CHROM.1>
11.21348162,9.51880137,27.59248506,0.20084339,-1.39496489,0.49599952

>  <Name>
ligand

>  <RI>
0

>  <Rbt.Current_Directory>
/home/itssahil/PROJECTS/Mol_Feturizer/New_Systems/rnas/2EET

>  <Rbt.Executable>
rbdock ($Id: //depot/dev/client3/rdock/2013.1/src/exe/rbdock.cxx#4 $)

>  <Rbt.Library>
libRbt.so (2013.1, Build901 2013/11/27)

>  <Rbt.Parameter_File>
/export/apps/rDock/src/rDock_2013.1_src/data/scripts/dock_solv.prm

>  <Rbt.Receptor>
prm/pocket_docking_3.prm

>  <SCORE>
-18.0658

>  <SCORE.INTER>
-18.0658

>  <SCORE.INTER.CONST>
1

>  <SCORE.INTER.POLAR>
0

>  <SCORE.INTER.ROT>
0

>  <SCORE.INTER.SOLV>
4.16501

>  <SCORE.INTER.VDW>
-17.0322

>  <SCORE.INTER.norm>
-1.80658

>  <SCORE.INTRA>
0

>  <SCORE.INTRA.DIHEDRAL>
0

>  <SCORE.INTRA.DIHEDRAL.0>
0

>  <SCORE.INTRA.POLAR>
0

>  <SCORE.INTRA.POLAR.0>
0

>  <SCORE.INTRA.REPUL>
0

>  <SCORE.INTRA.REPUL.0>
0

>  <SCORE.INTRA.SOLV>
0

>  <SCORE.INTRA.SOLV.lig_0>
-4.28464

>  <SCORE.INTRA.VDW>
0

>  <SCORE.INTRA.VDW.0>
0

>  <SCORE.INTRA.norm>
0

>  <SCORE.RESTR>
0

>  <SCORE.RESTR.CAVITY>
0

>  <SCORE.RESTR.norm>
0

>  <SCORE.SYSTEM>
0

>  <SCORE.SYSTEM.CONST>
0

>  <SCORE.SYSTEM.DIHEDRAL>
0

>  <SCORE.SYSTEM.SOLV>
0

>  <SCORE.SYSTEM.norm>
0

>  <SCORE.heavy>
10

>  <SCORE.norm>
-1.80658

>  <RMSD>
0.708

$$$$
ligand
 OpenBabel11021811423D
libRbt.so/2013.1/901 2013/11/27
 10 11  0  0  0  0  0  0  0  0999 V2000
   11.5088    9.4859   29.4985 N   0  0  0  0  0  0  0  0  0  0  0  0
   11.3627   10.8466   29.2918 C   0  0  0  0  0  0  0  0  0  0  0  0
   11.1313   11.3563   28.0759 N   0  0  0  0  0  0  0  0  0  0  0  0
   11.0595   10.3985   27.0956 C   0  0  0  0  0  0  0  0  0  0  0  0
   11.1962    9.0371   27.2409 C   0  0  0  0  0  0  0  0  0  0  0  0
   11.4421    8.4849   28.5286 C   0  0  0  0  0  0  0  0  0  0  0  0
   11.5948    7.3068   28.8754 O   0  0  0  0  0  0  0  0  0  0  0  0
   11.0534    8.4513   26.0101 N   0  0  0  0  0  0  0  0  0  0  0  0
   10.8312    9.4472   25.1313 C   0  0  0  0  0  0  0  0  0  0  0  0
   10.8306   10.6624   25.7685 N   0  0  0  0  0  0  0  0  0  0  0  0
  1  2  1  0  0  0  0
  1  6  1  0  0  0  0
  2  3  2  0  0  0  0
  3  4  1  0  0  0  0
  4  5  2  0  0  0  0
  4 10  1  0  0  0  0
  5  6  1  0  0  0  0
  5  8  1  0  0  0  0
  6  7  2  0  0  0  0
  8  9  1  0  0  0  0
  9 10  2  0  0  0  0
M  END
>  <CHROM.1>
11.20872202,9.50668685,27.57874832,0.19447144,-1.39585908,0.49369477

>  <Name>
ligand

>  <RI>
0

>  <Rbt.Current_Directory>
/home/itssahil/PROJECTS/Mol_Feturizer/New_Systems/rnas/2EET

>  <Rbt.Executable>
rbdock ($Id: //depot/dev/client3/rdock/2013.1/src/exe/rbdock.cxx#4 $)

>  <Rbt.Library>
libRbt.so (2013.1, Build901 2013/11/27)

>  <Rbt.Parameter_File>
/export/apps/rDock/src/rDock_2013.1_src/data/scripts/dock_solv.prm

>  <Rbt.Receptor>
prm/pocket_docking_4.prm

>  <SCORE>
-18.0652

>  <SCORE.INTER>
-18.0652

>  <SCORE.INTER.CONST>
1

>  <SCORE.INTER.POLAR>
0

>  <SCORE.INTER.ROT>
0

>  <SCORE.INTER.SOLV>
4.16212

>  <SCORE.INTER.VDW>
-17.0308

>  <SCORE.INTER.norm>
-1.80652

>  <SCORE.INTRA>
0

>  <SCORE.INTRA.DIHEDRAL>
0

>  <SCORE.INTRA.DIHEDRAL.0>
0

>  <SCORE.INTRA.POLAR>
0

>  <SCORE.INTRA.POLAR.0>
0

>  <SCORE.INTRA.REPUL>
0

>  <SCORE.INTRA.REPUL.0>
0

>  <SCORE.INTRA.SOLV>
0

>  <SCORE.INTRA.SOLV.lig_0>
-4.28464

>  <SCORE.INTRA.VDW>
0

>  <SCORE.INTRA.VDW.0>
0

>  <SCORE.INTRA.norm>
0

>  <SCORE.RESTR>
0

>  <SCORE.RESTR.CAVITY>
0

>  <SCORE.RESTR.norm>
0

>  <SCORE.SYSTEM>
0

>  <SCORE.SYSTEM.CONST>
0

>  <SCORE.SYSTEM.DIHEDRAL>
0

>  <SCORE.SYSTEM.SOLV>
0

>  <SCORE.SYSTEM.norm>
0

>  <SCORE.heavy>
10

>  <SCORE.norm>
-1.80652

>  <RMSD>
0.708

$$$$
ligand
 OpenBabel11021811423D
libRbt.so/2013.1/901 2013/11/27
 10 11  0  0  0  0  0  0  0  0999 V2000
   11.4953    9.4861   29.5036 N   0  0  0  0  0  0  0  0  0  0  0  0
   11.3415   10.8462   29.2985 C   0  0  0  0  0  0  0  0  0  0  0  0
   11.1087   11.3561   28.0829 N   0  0  0  0  0  0  0  0  0  0  0  0
   11.0436   10.3991   27.1013 C   0  0  0  0  0  0  0  0  0  0  0  0
   11.1879    9.0383   27.2451 C   0  0  0  0  0  0  0  0  0  0  0  0
   11.4355    8.4860   28.5324 C   0  0  0  0  0  0  0  0  0  0  0  0
   11.5945    7.3083   28.8778 O   0  0  0  0  0  0  0  0  0  0  0  0
   11.0500    8.4533   26.0134 N   0  0  0  0  0  0  0  0  0  0  0  0
   10.8232    9.4490   25.1356 C   0  0  0  0  0  0  0  0  0  0  0  0
   10.8148   10.6634   25.7743 N   0  0  0  0  0  0  0  0  0  0  0  0
  1  2  1  0  0  0  0
  1  6  1  0  0  0  0
  2  3  2  0  0  0  0
  3  4  1  0  0  0  0
  4  5  2  0  0  0  0
  4 10  1  0  0  0  0
  5  6  1  0  0  0  0
  5  8  1  0  0  0  0
  6  7  2  0  0  0  0
  8  9  1  0  0  0  0
  9 10  2  0  0  0  0
M  END
>  <CHROM.1>
11.19736921,9.50759957,27.58352617,0.22660525,-1.39409246,0.52659862

>  <Name>
ligand

>  <RI>
0

>  <Rbt.Current_Directory>
/home/itssahil/PROJECTS/Mol_Feturizer/New_Systems/rnas/2EET

>  <Rbt.Executable>
rbdock ($Id: //depot/dev/client3/rdock/2013.1/src/exe/rbdock.cxx#4 $)

>  <Rbt.Library>
libRbt.so (2013.1, Build901 2013/11/27)

>  <Rbt.Parameter_File>
/export/apps/rDock/src/rDock_2013.1_src/data/scripts/dock_solv.prm

>  <Rbt.Receptor>
prm/pocket_docking_4.prm

>  <SCORE>
-18.0495

>  <SCORE.INTER>
-18.0495

>  <SCORE.INTER.CONST>
1

>  <SCORE.INTER.POLAR>
0

>  <SCORE.INTER.ROT>
0

>  <SCORE.INTER.SOLV>
4.16069

>  <SCORE.INTER.VDW>
-17.0199

>  <SCORE.INTER.norm>
-1.80495

>  <SCORE.INTRA>
0

>  <SCORE.INTRA.DIHEDRAL>
0

>  <SCORE.INTRA.DIHEDRAL.0>
0

>  <SCORE.INTRA.POLAR>
0

>  <SCORE.INTRA.POLAR.0>
0

>  <SCORE.INTRA.REPUL>
0

>  <SCORE.INTRA.REPUL.0>
0

>  <SCORE.INTRA.SOLV>
0

>  <SCORE.INTRA.SOLV.lig_0>
-4.28464

>  <SCORE.INTRA.VDW>
0

>  <SCORE.INTRA.VDW.0>
0

>  <SCORE.INTRA.norm>
0

>  <SCORE.RESTR>
0

>  <SCORE.RESTR.CAVITY>
0

>  <SCORE.RESTR.norm>
0

>  <SCORE.SYSTEM>
0

>  <SCORE.SYSTEM.CONST>
0

>  <SCORE.SYSTEM.DIHEDRAL>
0

>  <SCORE.SYSTEM.SOLV>
0

>  <SCORE.SYSTEM.norm>
0

>  <SCORE.heavy>
10

>  <SCORE.norm>
-1.80495

>  <RMSD>
0.708

$$$$
ligand
 OpenBabel11021811423D
libRbt.so/2013.1/901 2013/11/27
 10 11  0  0  0  0  0  0  0  0999 V2000
   11.5002    9.4826   29.4802 N   0  0  0  0  0  0  0  0  0  0  0  0
   11.3621   10.8479   29.2995 C   0  0  0  0  0  0  0  0  0  0  0  0
   11.1306   11.3817   28.0940 N   0  0  0  0  0  0  0  0  0  0  0  0
   11.0500   10.4429   27.0962 C   0  0  0  0  0  0  0  0  0  0  0  0
   11.1783    9.0782   27.2155 C   0  0  0  0  0  0  0  0  0  0  0  0
   11.4243    8.5004   28.4919 C   0  0  0  0  0  0  0  0  0  0  0  0
   11.5704    7.3151   28.8161 O   0  0  0  0  0  0  0  0  0  0  0  0
   11.0284    8.5165   25.9744 N   0  0  0  0  0  0  0  0  0  0  0  0
   10.8102    9.5301   25.1150 C   0  0  0  0  0  0  0  0  0  0  0  0
   10.8191   10.7331   25.7749 N   0  0  0  0  0  0  0  0  0  0  0  0
  1  2  1  0  0  0  0
  1  6  1  0  0  0  0
  2  3  2  0  0  0  0
  3  4  1  0  0  0  0
  4  5  2  0  0  0  0
  4 10  1  0  0  0  0
  5  6  1  0  0  0  0
  5  8  1  0  0  0  0
  6  7  2  0  0  0  0
  8  9  1  0  0  0  0
  9 10  2  0  0  0  0
M  END
>  <CHROM.1>
11.19483592,9.54129234,27.56206056,0.15435582,-1.39631333,0.47292977

>  <Name>
ligand

>  <RI>
0

>  <Rbt.Current_Directory>
/home/itssahil/PROJECTS/Mol_Feturizer/New_Systems/rnas/2EET

>  <Rbt.Executable>
rbdock ($Id: //depot/dev/client3/rdock/2013.1/src/exe/rbdock.cxx#4 $)

>  <Rbt.Library>
libRbt.so (2013.1, Build901 2013/11/27)

>  <Rbt.Parameter_File>
/export/apps/rDock/src/rDock_2013.1_src/data/scripts/dock_solv.prm

>  <Rbt.Receptor>
prm/pocket_docking_4.prm

>  <SCORE>
-18.0564

>  <SCORE.INTER>
-18.0564

>  <SCORE.INTER.CONST>
1

>  <SCORE.INTER.POLAR>
0

>  <SCORE.INTER.ROT>
0

>  <SCORE.INTER.SOLV>
4.15818

>  <SCORE.INTER.VDW>
-17.0237

>  <SCORE.INTER.norm>
-1.80564

>  <SCORE.INTRA>
0

>  <SCORE.INTRA.DIHEDRAL>
0

>  <SCORE.INTRA.DIHEDRAL.0>
0

>  <SCORE.INTRA.POLAR>
0

>  <SCORE.INTRA.POLAR.0>
0

>  <SCORE.INTRA.REPUL>
0

>  <SCORE.INTRA.REPUL.0>
0

>  <SCORE.INTRA.SOLV>
0

>  <SCORE.INTRA.SOLV.lig_0>
-4.28464

>  <SCORE.INTRA.VDW>
0

>  <SCORE.INTRA.VDW.0>
0

>  <SCORE.INTRA.norm>
0

>  <SCORE.RESTR>
0

>  <SCORE.RESTR.CAVITY>
0

>  <SCORE.RESTR.norm>
0

>  <SCORE.SYSTEM>
0

>  <SCORE.SYSTEM.CONST>
0

>  <SCORE.SYSTEM.DIHEDRAL>
0

>  <SCORE.SYSTEM.SOLV>
0

>  <SCORE.SYSTEM.norm>
0

>  <SCORE.heavy>
10

>  <SCORE.norm>
-1.80564

>  <RMSD>
0.708

$$$$
ligand
 OpenBabel11021811423D
libRbt.so/2013.1/901 2013/11/27
 10 11  0  0  0  0  0  0  0  0999 V2000
   11.5092    9.4852   29.4971 N   0  0  0  0  0  0  0  0  0  0  0  0
   11.3594   10.8456   29.2903 C   0  0  0  0  0  0  0  0  0  0  0  0
   11.1242   11.3543   28.0748 N   0  0  0  0  0  0  0  0  0  0  0  0
   11.0525   10.3961   27.0949 C   0  0  0  0  0  0  0  0  0  0  0  0
   11.1927    9.0350   27.2403 C   0  0  0  0  0  0  0  0  0  0  0  0
   11.4428    8.4838   28.5276 C   0  0  0  0  0  0  0  0  0  0  0  0
   11.5989    7.3062   28.8744 O   0  0  0  0  0  0  0  0  0  0  0  0
   11.0487    8.4486   26.0100 N   0  0  0  0  0  0  0  0  0  0  0  0
   10.8223    9.4437   25.1314 C   0  0  0  0  0  0  0  0  0  0  0  0
   10.8201   10.6591   25.7683 N   0  0  0  0  0  0  0  0  0  0  0  0
  1  2  1  0  0  0  0
  1  6  1  0  0  0  0
  2  3  2  0  0  0  0
  3  4  1  0  0  0  0
  4  5  2  0  0  0  0
  4 10  1  0  0  0  0
  5  6  1  0  0  0  0
  5  8  1  0  0  0  0
  6  7  2  0  0  0  0
  8  9  1  0  0  0  0
  9 10  2  0  0  0  0
M  END
>  <CHROM.1>
11.20488285,9.50478044,27.57799082,0.20038573,-1.39284463,0.49922636

>  <Name>
ligand

>  <RI>
0

>  <Rbt.Current_Directory>
/home/itssahil/PROJECTS/Mol_Feturizer/New_Systems/rnas/2EET

>  <Rbt.Executable>
rbdock ($Id: //depot/dev/client3/rdock/2013.1/src/exe/rbdock.cxx#4 $)

>  <Rbt.Library>
libRbt.so (2013.1, Build901 2013/11/27)

>  <Rbt.Parameter_File>
/export/apps/rDock/src/rDock_2013.1_src/data/scripts/dock_solv.prm

>  <Rbt.Receptor>
prm/pocket_docking_6.prm

>  <SCORE>
-18.0618

>  <SCORE.INTER>
-18.0618

>  <SCORE.INTER.CONST>
1

>  <SCORE.INTER.POLAR>
0

>  <SCORE.INTER.ROT>
0

>  <SCORE.INTER.SOLV>
4.15345

>  <SCORE.INTER.VDW>
-17.0257

>  <SCORE.INTER.norm>
-1.80618

>  <SCORE.INTRA>
0

>  <SCORE.INTRA.DIHEDRAL>
0

>  <SCORE.INTRA.DIHEDRAL.0>
0

>  <SCORE.INTRA.POLAR>
0

>  <SCORE.INTRA.POLAR.0>
0

>  <SCORE.INTRA.REPUL>
0

>  <SCORE.INTRA.REPUL.0>
0

>  <SCORE.INTRA.SOLV>
0

>  <SCORE.INTRA.SOLV.lig_0>
-4.28464

>  <SCORE.INTRA.VDW>
0

>  <SCORE.INTRA.VDW.0>
0

>  <SCORE.INTRA.norm>
0

>  <SCORE.RESTR>
0

>  <SCORE.RESTR.CAVITY>
0

>  <SCORE.RESTR.norm>
0

>  <SCORE.SYSTEM>
0

>  <SCORE.SYSTEM.CONST>
0

>  <SCORE.SYSTEM.DIHEDRAL>
0

>  <SCORE.SYSTEM.SOLV>
0

>  <SCORE.SYSTEM.norm>
0

>  <SCORE.heavy>
10

>  <SCORE.norm>
-1.80618

>  <RMSD>
0.708

$$$$
ligand
 OpenBabel11021811423D
libRbt.so/2013.1/901 2013/11/27
 10 11  0  0  0  0  0  0  0  0999 V2000
   11.4894    9.4842   29.5047 N   0  0  0  0  0  0  0  0  0  0  0  0
   11.3387   10.8448   29.3004 C   0  0  0  0  0  0  0  0  0  0  0  0
   11.1126   11.3564   28.0843 N   0  0  0  0  0  0  0  0  0  0  0  0
   11.0509   10.4007   27.1013 C   0  0  0  0  0  0  0  0  0  0  0  0
   11.1925    9.0395   27.2442 C   0  0  0  0  0  0  0  0  0  0  0  0
   11.4329    8.4853   28.5321 C   0  0  0  0  0  0  0  0  0  0  0  0
   11.5884    7.3070   28.8770 O   0  0  0  0  0  0  0  0  0  0  0  0
   11.0599    8.4561   26.0112 N   0  0  0  0  0  0  0  0  0  0  0  0
   10.8388    9.4532   25.1334 C   0  0  0  0  0  0  0  0  0  0  0  0
   10.8291   10.6668   25.7735 N   0  0  0  0  0  0  0  0  0  0  0  0
  1  2  1  0  0  0  0
  1  6  1  0  0  0  0
  2  3  2  0  0  0  0
  3  4  1  0  0  0  0
  4  5  2  0  0  0  0
  4 10  1  0  0  0  0
  5  6  1  0  0  0  0
  5  8  1  0  0  0  0
  6  7  2  0  0  0  0
  8  9  1  0  0  0  0
  9 10  2  0  0  0  0
M  END
>  <CHROM.1>
11.20098725,9.50837117,27.58323028,0.23356964,-1.39912442,0.53459574

>  <Name>
ligand

>  <RI>
0

>  <Rbt.Current_Directory>
/home/itssahil/PROJECTS/Mol_Feturizer/New_Systems/rnas/2EET

>  <Rbt.Executable>
rbdock ($Id: //depot/dev/client3/rdock/2013.1/src/exe/rbdock.cxx#4 $)

>  <Rbt.Library>
libRbt.so (2013.1, Build901 2013/11/27)

>  <Rbt.Parameter_File>
/export/apps/rDock/src/rDock_2013.1_src/data/scripts/dock_solv.prm

>  <Rbt.Receptor>
prm/pocket_docking_6.prm

>  <SCORE>
-18.0453

>  <SCORE.INTER>
-18.0453

>  <SCORE.INTER.CONST>
1

>  <SCORE.INTER.POLAR>
0

>  <SCORE.INTER.ROT>
0

>  <SCORE.INTER.SOLV>
4.17219

>  <SCORE.INTER.VDW>
-17.0209

>  <SCORE.INTER.norm>
-1.80453

>  <SCORE.INTRA>
0

>  <SCORE.INTRA.DIHEDRAL>
0

>  <SCORE.INTRA.DIHEDRAL.0>
0

>  <SCORE.INTRA.POLAR>
0

>  <SCORE.INTRA.POLAR.0>
0

>  <SCORE.INTRA.REPUL>
0

>  <SCORE.INTRA.REPUL.0>
0

>  <SCORE.INTRA.SOLV>
0

>  <SCORE.INTRA.SOLV.lig_0>
-4.28464

>  <SCORE.INTRA.VDW>
0

>  <SCORE.INTRA.VDW.0>
0

>  <SCORE.INTRA.norm>
0

>  <SCORE.RESTR>
0

>  <SCORE.RESTR.CAVITY>
0

>  <SCORE.RESTR.norm>
0

>  <SCORE.SYSTEM>
0

>  <SCORE.SYSTEM.CONST>
0

>  <SCORE.SYSTEM.DIHEDRAL>
0

>  <SCORE.SYSTEM.SOLV>
0

>  <SCORE.SYSTEM.norm>
0

>  <SCORE.heavy>
10

>  <SCORE.norm>
-1.80453

>  <RMSD>
0.708

$$$$
ligand
 OpenBabel11021811423D
libRbt.so/2013.1/901 2013/11/27
 10 11  0  0  0  0  0  0  0  0999 V2000
   11.4966    9.4799   29.4901 N   0  0  0  0  0  0  0  0  0  0  0  0
   11.3618   10.8442   29.3001 C   0  0  0  0  0  0  0  0  0  0  0  0
   11.1347   11.3707   28.0906 N   0  0  0  0  0  0  0  0  0  0  0  0
   11.0550   10.4256   27.0986 C   0  0  0  0  0  0  0  0  0  0  0  0
   11.1802    9.0614   27.2272 C   0  0  0  0  0  0  0  0  0  0  0  0
   11.4216    8.4915   28.5080 C   0  0  0  0  0  0  0  0  0  0  0  0
   11.5643    7.3079   28.8403 O   0  0  0  0  0  0  0  0  0  0  0  0
   11.0326    8.4920   25.9894 N   0  0  0  0  0  0  0  0  0  0  0  0
   10.8188    9.5004   25.1228 C   0  0  0  0  0  0  0  0  0  0  0  0
   10.8283   10.7077   25.7749 N   0  0  0  0  0  0  0  0  0  0  0  0
  1  2  1  0  0  0  0
  1  6  1  0  0  0  0
  2  3  2  0  0  0  0
  3  4  1  0  0  0  0
  4  5  2  0  0  0  0
  4 10  1  0  0  0  0
  5  6  1  0  0  0  0
  5  8  1  0  0  0  0
  6  7  2  0  0  0  0
  8  9  1  0  0  0  0
  9 10  2  0  0  0  0
M  END
>  <CHROM.1>
11.19670899,9.52672483,27.57078603,0.15130419,-1.39969371,0.46343356

>  <Name>
ligand

>  <RI>
0

>  <Rbt.Current_Directory>
/home/itssahil/PROJECTS/Mol_Feturizer/New_Systems/rnas/2EET

>  <Rbt.Executable>
rbdock ($Id: //depot/dev/client3/rdock/2013.1/src/exe/rbdock.cxx#4 $)

>  <Rbt.Library>
libRbt.so (2013.1, Build901 2013/11/27)

>  <Rbt.Parameter_File>
/export/apps/rDock/src/rDock_2013.1_src/data/scripts/dock_solv.prm

>  <Rbt.Receptor>
prm/pocket_docking_7.prm

>  <SCORE>
-18.0503

>  <SCORE.INTER>
-18.0503

>  <SCORE.INTER.CONST>
1

>  <SCORE.INTER.POLAR>
0

>  <SCORE.INTER.ROT>
0

>  <SCORE.INTER.SOLV>
4.18304

>  <SCORE.INTER.VDW>
-17.0279

>  <SCORE.INTER.norm>
-1.80503

>  <SCORE.INTRA>
0

>  <SCORE.INTRA.DIHEDRAL>
0

>  <SCORE.INTRA.DIHEDRAL.0>
0

>  <SCORE.INTRA.POLAR>
0

>  <SCORE.INTRA.POLAR.0>
0

>  <SCORE.INTRA.REPUL>
0

>  <SCORE.INTRA.REPUL.0>
0

>  <SCORE.INTRA.SOLV>
0

>  <SCORE.INTRA.SOLV.lig_0>
-4.28464

>  <SCORE.INTRA.VDW>
0

>  <SCORE.INTRA.VDW.0>
0

>  <SCORE.INTRA.norm>
0

>  <SCORE.RESTR>
0

>  <SCORE.RESTR.CAVITY>
0

>  <SCORE.RESTR.norm>
0

>  <SCORE.SYSTEM>
0

>  <SCORE.SYSTEM.CONST>
0

>  <SCORE.SYSTEM.DIHEDRAL>
0

>  <SCORE.SYSTEM.SOLV>
0

>  <SCORE.SYSTEM.norm>
0

>  <SCORE.heavy>
10

>  <SCORE.norm>
-1.80503

>  <RMSD>
0.708

$$$$
ligand
 OpenBabel11021811423D
libRbt.so/2013.1/901 2013/11/27
 10 11  0  0  0  0  0  0  0  0999 V2000
   11.5024    9.4914   29.5015 N   0  0  0  0  0  0  0  0  0  0  0  0
   11.3390   10.8501   29.2942 C   0  0  0  0  0  0  0  0  0  0  0  0
   11.1006   11.3562   28.0782 N   0  0  0  0  0  0  0  0  0  0  0  0
   11.0404   10.3970   27.0984 C   0  0  0  0  0  0  0  0  0  0  0  0
   11.1943    9.0376   27.2443 C   0  0  0  0  0  0  0  0  0  0  0  0
   11.4479    8.4892   28.5321 C   0  0  0  0  0  0  0  0  0  0  0  0
   11.6156    7.3133   28.8794 O   0  0  0  0  0  0  0  0  0  0  0  0
   11.0583    8.4494   26.0139 N   0  0  0  0  0  0  0  0  0  0  0  0
   10.8231    9.4420   25.1347 C   0  0  0  0  0  0  0  0  0  0  0  0
   10.8075   10.6574   25.7713 N   0  0  0  0  0  0  0  0  0  0  0  0
  1  2  1  0  0  0  0
  1  6  1  0  0  0  0
  2  3  2  0  0  0  0
  3  4  1  0  0  0  0
  4  5  2  0  0  0  0
  4 10  1  0  0  0  0
  5  6  1  0  0  0  0
  5  8  1  0  0  0  0
  6  7  2  0  0  0  0
  8  9  1  0  0  0  0
  9 10  2  0  0  0  0
M  END
>  <CHROM.1>
11.20109207,9.50746638,27.58190076,0.25469531,-1.38910206,0.55246299

>  <Name>
ligand

>  <RI>
0

>  <Rbt.Current_Directory>
/home/itssahil/PROJECTS/Mol_Feturizer/New_Systems/rnas/2EET

>  <Rbt.Executable>
rbdock ($Id: //depot/dev/client3/rdock/2013.1/src/exe/rbdock.cxx#4 $)

>  <Rbt.Library>
libRbt.so (2013.1, Build901 2013/11/27)

>  <Rbt.Parameter_File>
/export/apps/rDock/src/rDock_2013.1_src/data/scripts/dock_solv.prm

>  <Rbt.Receptor>
prm/pocket_docking_8.prm

>  <SCORE>
-18.0295

>  <SCORE.INTER>
-18.0295

>  <SCORE.INTER.CONST>
1

>  <SCORE.INTER.POLAR>
0

>  <SCORE.INTER.ROT>
0

>  <SCORE.INTER.SOLV>
4.13085

>  <SCORE.INTER.VDW>
-16.9966

>  <SCORE.INTER.norm>
-1.80295

>  <SCORE.INTRA>
0

>  <SCORE.INTRA.DIHEDRAL>
0

>  <SCORE.INTRA.DIHEDRAL.0>
0

>  <SCORE.INTRA.POLAR>
0

>  <SCORE.INTRA.POLAR.0>
0

>  <SCORE.INTRA.REPUL>
0

>  <SCORE.INTRA.REPUL.0>
0

>  <SCORE.INTRA.SOLV>
0

>  <SCORE.INTRA.SOLV.lig_0>
-4.28464

>  <SCORE.INTRA.VDW>
0

>  <SCORE.INTRA.VDW.0>
0

>  <SCORE.INTRA.norm>
0

>  <SCORE.RESTR>
0

>  <SCORE.RESTR.CAVITY>
0

>  <SCORE.RESTR.norm>
0

>  <SCORE.SYSTEM>
0

>  <SCORE.SYSTEM.CONST>
0

>  <SCORE.SYSTEM.DIHEDRAL>
0

>  <SCORE.SYSTEM.SOLV>
0

>  <SCORE.SYSTEM.norm>
0

>  <SCORE.heavy>
10

>  <SCORE.norm>
-1.80295

>  <RMSD>
0.708

$$$$
ligand
 OpenBabel11021811423D
libRbt.so/2013.1/901 2013/11/27
 10 11  0  0  0  0  0  0  0  0999 V2000
   11.5158    9.4882   29.4941 N   0  0  0  0  0  0  0  0  0  0  0  0
   11.3645   10.8480   29.2849 C   0  0  0  0  0  0  0  0  0  0  0  0
   11.1292   11.3544   28.0684 N   0  0  0  0  0  0  0  0  0  0  0  0
   11.0592   10.3944   27.0902 C   0  0  0  0  0  0  0  0  0  0  0  0
   11.2009    9.0338   27.2379 C   0  0  0  0  0  0  0  0  0  0  0  0
   11.4511    8.4850   28.5263 C   0  0  0  0  0  0  0  0  0  0  0  0
   11.6084    7.3081   28.8751 O   0  0  0  0  0  0  0  0  0  0  0  0
   11.0582    8.4450   26.0086 N   0  0  0  0  0  0  0  0  0  0  0  0
   10.8310    9.4384   25.1281 C   0  0  0  0  0  0  0  0  0  0  0  0
   10.8271   10.6548   25.7629 N   0  0  0  0  0  0  0  0  0  0  0  0
  1  2  1  0  0  0  0
  1  6  1  0  0  0  0
  2  3  2  0  0  0  0
  3  4  1  0  0  0  0
  4  5  2  0  0  0  0
  4 10  1  0  0  0  0
  5  6  1  0  0  0  0
  5  8  1  0  0  0  0
  6  7  2  0  0  0  0
  8  9  1  0  0  0  0
  9 10  2  0  0  0  0
M  END
>  <CHROM.1>
11.21240482,9.50407706,27.57479801,0.20759327,-1.39267498,0.50462624

>  <Name>
ligand

>  <RI>
0

>  <Rbt.Current_Directory>
/home/itssahil/PROJECTS/Mol_Feturizer/New_Systems/rnas/2EET

>  <Rbt.Executable>
rbdock ($Id: //depot/dev/client3/rdock/2013.1/src/exe/rbdock.cxx#4 $)

>  <Rbt.Library>
libRbt.so (2013.1, Build901 2013/11/27)

>  <Rbt.Parameter_File>
/export/apps/rDock/src/rDock_2013.1_src/data/scripts/dock_solv.prm

>  <Rbt.Receptor>
prm/blind_docking_100.prm

>  <SCORE>
-18.0523

>  <SCORE.INTER>
-18.0523

>  <SCORE.INTER.CONST>
1

>  <SCORE.INTER.POLAR>
0

>  <SCORE.INTER.ROT>
0

>  <SCORE.INTER.SOLV>
4.14269

>  <SCORE.INTER.VDW>
-17.0158

>  <SCORE.INTER.norm>
-1.80523

>  <SCORE.INTRA>
0

>  <SCORE.INTRA.DIHEDRAL>
0

>  <SCORE.INTRA.DIHEDRAL.0>
0

>  <SCORE.INTRA.POLAR>
0

>  <SCORE.INTRA.POLAR.0>
0

>  <SCORE.INTRA.REPUL>
0

>  <SCORE.INTRA.REPUL.0>
0

>  <SCORE.INTRA.SOLV>
0

>  <SCORE.INTRA.SOLV.lig_0>
-4.28464

>  <SCORE.INTRA.VDW>
0

>  <SCORE.INTRA.VDW.0>
0

>  <SCORE.INTRA.norm>
0

>  <SCORE.RESTR>
0

>  <SCORE.RESTR.CAVITY>
0

>  <SCORE.RESTR.norm>
0

>  <SCORE.SYSTEM>
0

>  <SCORE.SYSTEM.CONST>
0

>  <SCORE.SYSTEM.DIHEDRAL>
0

>  <SCORE.SYSTEM.SOLV>
0

>  <SCORE.SYSTEM.norm>
0

>  <SCORE.heavy>
10

>  <SCORE.norm>
-1.80523

>  <RMSD>
0.709

$$$$
ligand
 OpenBabel11021811423D
libRbt.so/2013.1/901 2013/11/27
 10 11  0  0  0  0  0  0  0  0999 V2000
   11.5022    9.4840   29.4743 N   0  0  0  0  0  0  0  0  0  0  0  0
   11.3579   10.8487   29.2941 C   0  0  0  0  0  0  0  0  0  0  0  0
   11.1239   11.3819   28.0888 N   0  0  0  0  0  0  0  0  0  0  0  0
   11.0475   10.4431   27.0906 C   0  0  0  0  0  0  0  0  0  0  0  0
   11.1820    9.0790   27.2095 C   0  0  0  0  0  0  0  0  0  0  0  0
   11.4308    8.5019   28.4856 C   0  0  0  0  0  0  0  0  0  0  0  0
   11.5822    7.3171   28.8094 O   0  0  0  0  0  0  0  0  0  0  0  0
   11.0346    8.5171   25.9682 N   0  0  0  0  0  0  0  0  0  0  0  0
   10.8117    9.5300   25.1092 C   0  0  0  0  0  0  0  0  0  0  0  0
   10.8152   10.7328   25.7695 N   0  0  0  0  0  0  0  0  0  0  0  0
  1  2  1  0  0  0  0
  1  6  1  0  0  0  0
  2  3  2  0  0  0  0
  3  4  1  0  0  0  0
  4  5  2  0  0  0  0
  4 10  1  0  0  0  0
  5  6  1  0  0  0  0
  5  8  1  0  0  0  0
  6  7  2  0  0  0  0
  8  9  1  0  0  0  0
  9 10  2  0  0  0  0
M  END
>  <CHROM.1>
11.19645173,9.54203753,27.55617514,0.17724301,-1.39413787,0.49583429

>  <Name>
ligand

>  <RI>
0

>  <Rbt.Current_Directory>
/home/itssahil/PROJECTS/Mol_Feturizer/New_Systems/rnas/2EET

>  <Rbt.Executable>
rbdock ($Id: //depot/dev/client3/rdock/2013.1/src/exe/rbdock.cxx#4 $)

>  <Rbt.Library>
libRbt.so (2013.1, Build901 2013/11/27)

>  <Rbt.Parameter_File>
/export/apps/rDock/src/rDock_2013.1_src/data/scripts/dock_solv.prm

>  <Rbt.Receptor>
prm/blind_docking_100.prm

>  <SCORE>
-18.0422

>  <SCORE.INTER>
-18.0422

>  <SCORE.INTER.CONST>
1

>  <SCORE.INTER.POLAR>
0

>  <SCORE.INTER.ROT>
0

>  <SCORE.INTER.SOLV>
4.1372

>  <SCORE.INTER.VDW>
-17.0072

>  <SCORE.INTER.norm>
-1.80422

>  <SCORE.INTRA>
0

>  <SCORE.INTRA.DIHEDRAL>
0

>  <SCORE.INTRA.DIHEDRAL.0>
0

>  <SCORE.INTRA.POLAR>
0

>  <SCORE.INTRA.POLAR.0>
0

>  <SCORE.INTRA.REPUL>
0

>  <SCORE.INTRA.REPUL.0>
0

>  <SCORE.INTRA.SOLV>
0

>  <SCORE.INTRA.SOLV.lig_0>
-4.28464

>  <SCORE.INTRA.VDW>
0

>  <SCORE.INTRA.VDW.0>
0

>  <SCORE.INTRA.norm>
0

>  <SCORE.RESTR>
0

>  <SCORE.RESTR.CAVITY>
0

>  <SCORE.RESTR.norm>
0

>  <SCORE.SYSTEM>
0

>  <SCORE.SYSTEM.CONST>
0

>  <SCORE.SYSTEM.DIHEDRAL>
0

>  <SCORE.SYSTEM.SOLV>
0

>  <SCORE.SYSTEM.norm>
0

>  <SCORE.heavy>
10

>  <SCORE.norm>
-1.80422

>  <RMSD>
0.709

$$$$
ligand
 OpenBabel11021811423D
libRbt.so/2013.1/901 2013/11/27
 10 11  0  0  0  0  0  0  0  0999 V2000
   11.5072    9.5052   29.5170 N   0  0  0  0  0  0  0  0  0  0  0  0
   11.3683   10.8659   29.3050 C   0  0  0  0  0  0  0  0  0  0  0  0
   11.1336   11.3715   28.0881 N   0  0  0  0  0  0  0  0  0  0  0  0
   11.0506   10.4098   27.1125 C   0  0  0  0  0  0  0  0  0  0  0  0
   11.1797    9.0482   27.2632 C   0  0  0  0  0  0  0  0  0  0  0  0
   11.4292    8.5003   28.5520 C   0  0  0  0  0  0  0  0  0  0  0  0
   11.5764    7.3228   28.9033 O   0  0  0  0  0  0  0  0  0  0  0  0
   11.0268    8.4579   26.0359 N   0  0  0  0  0  0  0  0  0  0  0  0
   10.8060    9.4512   25.1538 C   0  0  0  0  0  0  0  0  0  0  0  0
   10.8163   10.6692   25.7855 N   0  0  0  0  0  0  0  0  0  0  0  0
  1  2  1  0  0  0  0
  1  6  1  0  0  0  0
  2  3  2  0  0  0  0
  3  4  1  0  0  0  0
  4  5  2  0  0  0  0
  4 10  1  0  0  0  0
  5  6  1  0  0  0  0
  5  8  1  0  0  0  0
  6  7  2  0  0  0  0
  8  9  1  0  0  0  0
  9 10  2  0  0  0  0
M  END
>  <CHROM.1>
11.19697969,9.51927093,27.59886137,0.14932869,-1.39387981,0.44476516

>  <Name>
ligand

>  <RI>
0

>  <Rbt.Current_Directory>
/home/itssahil/PROJECTS/Mol_Feturizer/New_Systems/rnas/2EET

>  <Rbt.Executable>
rbdock ($Id: //depot/dev/client3/rdock/2013.1/src/exe/rbdock.cxx#4 $)

>  <Rbt.Library>
libRbt.so (2013.1, Build901 2013/11/27)

>  <Rbt.Parameter_File>
/export/apps/rDock/src/rDock_2013.1_src/data/scripts/dock_solv.prm

>  <Rbt.Receptor>
prm/blind_docking_100.prm

>  <SCORE>
-18.0476

>  <SCORE.INTER>
-18.0476

>  <SCORE.INTER.CONST>
1

>  <SCORE.INTER.POLAR>
0

>  <SCORE.INTER.ROT>
0

>  <SCORE.INTER.SOLV>
4.19835

>  <SCORE.INTER.VDW>
-17.0312

>  <SCORE.INTER.norm>
-1.80476

>  <SCORE.INTRA>
0

>  <SCORE.INTRA.DIHEDRAL>
0

>  <SCORE.INTRA.DIHEDRAL.0>
0

>  <SCORE.INTRA.POLAR>
0

>  <SCORE.INTRA.POLAR.0>
0

>  <SCORE.INTRA.REPUL>
0

>  <SCORE.INTRA.REPUL.0>
0

>  <SCORE.INTRA.SOLV>
0

>  <SCORE.INTRA.SOLV.lig_0>
-4.28464

>  <SCORE.INTRA.VDW>
0

>  <SCORE.INTRA.VDW.0>
0

>  <SCORE.INTRA.norm>
0

>  <SCORE.RESTR>
0

>  <SCORE.RESTR.CAVITY>
0

>  <SCORE.RESTR.norm>
0

>  <SCORE.SYSTEM>
0

>  <SCORE.SYSTEM.CONST>
0

>  <SCORE.SYSTEM.DIHEDRAL>
0

>  <SCORE.SYSTEM.SOLV>
0

>  <SCORE.SYSTEM.norm>
0

>  <SCORE.heavy>
10

>  <SCORE.norm>
-1.80476

>  <RMSD>
0.709

$$$$
ligand
 OpenBabel11021811423D
libRbt.so/2013.1/901 2013/11/27
 10 11  0  0  0  0  0  0  0  0999 V2000
   11.5067    9.5083   29.5172 N   0  0  0  0  0  0  0  0  0  0  0  0
   11.3600   10.8680   29.3044 C   0  0  0  0  0  0  0  0  0  0  0  0
   11.1303   11.3722   28.0859 N   0  0  0  0  0  0  0  0  0  0  0  0
   11.0607   10.4101   27.1097 C   0  0  0  0  0  0  0  0  0  0  0  0
   11.1980    9.0495   27.2611 C   0  0  0  0  0  0  0  0  0  0  0  0
   11.4423    8.5030   28.5516 C   0  0  0  0  0  0  0  0  0  0  0  0
   11.5951    7.3265   28.9037 O   0  0  0  0  0  0  0  0  0  0  0  0
   11.0576    8.4583   26.0327 N   0  0  0  0  0  0  0  0  0  0  0  0
   10.8362    9.4502   25.1491 C   0  0  0  0  0  0  0  0  0  0  0  0
   10.8338   10.6681   25.7811 N   0  0  0  0  0  0  0  0  0  0  0  0
  1  2  1  0  0  0  0
  1  6  1  0  0  0  0
  2  3  2  0  0  0  0
  3  4  1  0  0  0  0
  4  5  2  0  0  0  0
  4 10  1  0  0  0  0
  5  6  1  0  0  0  0
  5  8  1  0  0  0  0
  6  7  2  0  0  0  0
  8  9  1  0  0  0  0
  9 10  2  0  0  0  0
M  END
>  <CHROM.1>
11.20970758,9.52054713,27.59690448,0.20219240,-1.39697086,0.49695491

>  <Name>
ligand

>  <RI>
0

>  <Rbt.Current_Directory>
/home/itssahil/PROJECTS/Mol_Feturizer/New_Systems/rnas/2EET

>  <Rbt.Executable>
rbdock ($Id: //depot/dev/client3/rdock/2013.1/src/exe/rbdock.cxx#4 $)

>  <Rbt.Library>
libRbt.so (2013.1, Build901 2013/11/27)

>  <Rbt.Parameter_File>
/export/apps/rDock/src/rDock_2013.1_src/data/scripts/dock_solv.prm

>  <Rbt.Receptor>
prm/blind_docking_40.prm

>  <SCORE>
-18.0671

>  <SCORE.INTER>
-18.0671

>  <SCORE.INTER.CONST>
1

>  <SCORE.INTER.POLAR>
0

>  <SCORE.INTER.ROT>
0

>  <SCORE.INTER.SOLV>
4.17776

>  <SCORE.INTER.VDW>
-17.0373

>  <SCORE.INTER.norm>
-1.80671

>  <SCORE.INTRA>
0

>  <SCORE.INTRA.DIHEDRAL>
0

>  <SCORE.INTRA.DIHEDRAL.0>
0

>  <SCORE.INTRA.POLAR>
0

>  <SCORE.INTRA.POLAR.0>
0

>  <SCORE.INTRA.REPUL>
0

>  <SCORE.INTRA.REPUL.0>
0

>  <SCORE.INTRA.SOLV>
0

>  <SCORE.INTRA.SOLV.lig_0>
-4.28464

>  <SCORE.INTRA.VDW>
0

>  <SCORE.INTRA.VDW.0>
0

>  <SCORE.INTRA.norm>
0

>  <SCORE.RESTR>
0

>  <SCORE.RESTR.CAVITY>
0

>  <SCORE.RESTR.norm>
0

>  <SCORE.SYSTEM>
0

>  <SCORE.SYSTEM.CONST>
0

>  <SCORE.SYSTEM.DIHEDRAL>
0

>  <SCORE.SYSTEM.SOLV>
0

>  <SCORE.SYSTEM.norm>
0

>  <SCORE.heavy>
10

>  <SCORE.norm>
-1.80671

>  <RMSD>
0.709

$$$$
ligand
 OpenBabel11021811423D
libRbt.so/2013.1/901 2013/11/27
 10 11  0  0  0  0  0  0  0  0999 V2000
   11.5049    9.4864   29.4983 N   0  0  0  0  0  0  0  0  0  0  0  0
   11.3536   10.8466   29.2919 C   0  0  0  0  0  0  0  0  0  0  0  0
   11.1203   11.3556   28.0761 N   0  0  0  0  0  0  0  0  0  0  0  0
   11.0522   10.3977   27.0956 C   0  0  0  0  0  0  0  0  0  0  0  0
   11.1940    9.0368   27.2407 C   0  0  0  0  0  0  0  0  0  0  0  0
   11.4420    8.4853   28.5283 C   0  0  0  0  0  0  0  0  0  0  0  0
   11.5991    7.3078   28.8748 O   0  0  0  0  0  0  0  0  0  0  0  0
   11.0535    8.4507   26.0098 N   0  0  0  0  0  0  0  0  0  0  0  0
   10.8275    9.4459   25.1311 C   0  0  0  0  0  0  0  0  0  0  0  0
   10.8223   10.6610   25.7686 N   0  0  0  0  0  0  0  0  0  0  0  0
  1  2  1  0  0  0  0
  1  6  1  0  0  0  0
  2  3  2  0  0  0  0
  3  4  1  0  0  0  0
  4  5  2  0  0  0  0
  4 10  1  0  0  0  0
  5  6  1  0  0  0  0
  5  8  1  0  0  0  0
  6  7  2  0  0  0  0
  8  9  1  0  0  0  0
  9 10  2  0  0  0  0
M  END
>  <CHROM.1>
11.20476876,9.50640958,27.57858209,0.21341792,-1.39405611,0.51251816

>  <Name>
ligand

>  <RI>
0

>  <Rbt.Current_Directory>
/home/itssahil/PROJECTS/Mol_Feturizer/New_Systems/rnas/2EET

>  <Rbt.Executable>
rbdock ($Id: //depot/dev/client3/rdock/2013.1/src/exe/rbdock.cxx#4 $)

>  <Rbt.Library>
libRbt.so (2013.1, Build901 2013/11/27)

>  <Rbt.Parameter_File>
/export/apps/rDock/src/rDock_2013.1_src/data/scripts/dock_solv.prm

>  <Rbt.Receptor>
prm/blind_docking_60.prm

>  <SCORE>
-18.0553

>  <SCORE.INTER>
-18.0553

>  <SCORE.INTER.CONST>
1

>  <SCORE.INTER.POLAR>
0

>  <SCORE.INTER.ROT>
0

>  <SCORE.INTER.SOLV>
4.15382

>  <SCORE.INTER.VDW>
-17.0215

>  <SCORE.INTER.norm>
-1.80553

>  <SCORE.INTRA>
0

>  <SCORE.INTRA.DIHEDRAL>
0

>  <SCORE.INTRA.DIHEDRAL.0>
0

>  <SCORE.INTRA.POLAR>
0

>  <SCORE.INTRA.POLAR.0>
0

>  <SCORE.INTRA.REPUL>
0

>  <SCORE.INTRA.REPUL.0>
0

>  <SCORE.INTRA.SOLV>
0

>  <SCORE.INTRA.SOLV.lig_0>
-4.28464

>  <SCORE.INTRA.VDW>
0

>  <SCORE.INTRA.VDW.0>
0

>  <SCORE.INTRA.norm>
0

>  <SCORE.RESTR>
0

>  <SCORE.RESTR.CAVITY>
0

>  <SCORE.RESTR.norm>
0

>  <SCORE.SYSTEM>
0

>  <SCORE.SYSTEM.CONST>
0

>  <SCORE.SYSTEM.DIHEDRAL>
0

>  <SCORE.SYSTEM.SOLV>
0

>  <SCORE.SYSTEM.norm>
0

>  <SCORE.heavy>
10

>  <SCORE.norm>
-1.80553

>  <RMSD>
0.709

$$$$
ligand
 OpenBabel11021811423D
libRbt.so/2013.1/901 2013/11/27
 10 11  0  0  0  0  0  0  0  0999 V2000
   11.5045    9.4891   29.5026 N   0  0  0  0  0  0  0  0  0  0  0  0
   11.3594   10.8499   29.2954 C   0  0  0  0  0  0  0  0  0  0  0  0
   11.1272   11.3592   28.0795 N   0  0  0  0  0  0  0  0  0  0  0  0
   11.0534   10.4010   27.0998 C   0  0  0  0  0  0  0  0  0  0  0  0
   11.1890    9.0395   27.2456 C   0  0  0  0  0  0  0  0  0  0  0  0
   11.4358    8.4877   28.5332 C   0  0  0  0  0  0  0  0  0  0  0  0
   11.5877    7.3096   28.8804 O   0  0  0  0  0  0  0  0  0  0  0  0
   11.0444    8.4533   26.0152 N   0  0  0  0  0  0  0  0  0  0  0  0
   10.8222    9.4490   25.1361 C   0  0  0  0  0  0  0  0  0  0  0  0
   10.8234   10.6645   25.7728 N   0  0  0  0  0  0  0  0  0  0  0  0
  1  2  1  0  0  0  0
  1  6  1  0  0  0  0
  2  3  2  0  0  0  0
  3  4  1  0  0  0  0
  4  5  2  0  0  0  0
  4 10  1  0  0  0  0
  5  6  1  0  0  0  0
  5  8  1  0  0  0  0
  6  7  2  0  0  0  0
  8  9  1  0  0  0  0
  9 10  2  0  0  0  0
M  END
>  <CHROM.1>
11.20233828,9.50929972,27.58314715,0.18682254,-1.39535453,0.48569592

>  <Name>
ligand

>  <RI>
0

>  <Rbt.Current_Directory>
/home/itssahil/PROJECTS/Mol_Feturizer/New_Systems/rnas/2EET

>  <Rbt.Executable>
rbdock ($Id: //depot/dev/client3/rdock/2013.1/src/exe/rbdock.cxx#4 $)

>  <Rbt.Library>
libRbt.so (2013.1, Build901 2013/11/27)

>  <Rbt.Parameter_File>
/export/apps/rDock/src/rDock_2013.1_src/data/scripts/dock_solv.prm

>  <Rbt.Receptor>
prm/blind_docking_80.prm

>  <SCORE>
-18.0713

>  <SCORE.INTER>
-18.0713

>  <SCORE.INTER.CONST>
1

>  <SCORE.INTER.POLAR>
0

>  <SCORE.INTER.ROT>
0

>  <SCORE.INTER.SOLV>
4.17223

>  <SCORE.INTER.VDW>
-17.0383

>  <SCORE.INTER.norm>
-1.80713

>  <SCORE.INTRA>
0

>  <SCORE.INTRA.DIHEDRAL>
0

>  <SCORE.INTRA.DIHEDRAL.0>
0

>  <SCORE.INTRA.POLAR>
0

>  <SCORE.INTRA.POLAR.0>
0

>  <SCORE.INTRA.REPUL>
0

>  <SCORE.INTRA.REPUL.0>
0

>  <SCORE.INTRA.SOLV>
0

>  <SCORE.INTRA.SOLV.lig_0>
-4.28464

>  <SCORE.INTRA.VDW>
0

>  <SCORE.INTRA.VDW.0>
0

>  <SCORE.INTRA.norm>
0

>  <SCORE.RESTR>
0

>  <SCORE.RESTR.CAVITY>
0

>  <SCORE.RESTR.norm>
0

>  <SCORE.SYSTEM>
0

>  <SCORE.SYSTEM.CONST>
0

>  <SCORE.SYSTEM.DIHEDRAL>
0

>  <SCORE.SYSTEM.SOLV>
0

>  <SCORE.SYSTEM.norm>
0

>  <SCORE.heavy>
10

>  <SCORE.norm>
-1.80713

>  <RMSD>
0.709

$$$$
ligand
 OpenBabel11021811423D
libRbt.so/2013.1/901 2013/11/27
 10 11  0  0  0  0  0  0  0  0999 V2000
   11.5222    9.5111   29.4812 N   0  0  0  0  0  0  0  0  0  0  0  0
   11.3646   10.8730   29.2915 C   0  0  0  0  0  0  0  0  0  0  0  0
   11.1234   11.3953   28.0829 N   0  0  0  0  0  0  0  0  0  0  0  0
   11.0543   10.4487   27.0916 C   0  0  0  0  0  0  0  0  0  0  0  0
   11.2022    9.0868   27.2200 C   0  0  0  0  0  0  0  0  0  0  0  0
   11.4586    8.5212   28.4998 C   0  0  0  0  0  0  0  0  0  0  0  0
   11.6219    7.3403   28.8317 O   0  0  0  0  0  0  0  0  0  0  0  0
   11.0581    8.5146   25.9830 N   0  0  0  0  0  0  0  0  0  0  0  0
   10.8240    9.5192   25.1171 C   0  0  0  0  0  0  0  0  0  0  0  0
   10.8171   10.7266   25.7688 N   0  0  0  0  0  0  0  0  0  0  0  0
  1  2  1  0  0  0  0
  1  6  1  0  0  0  0
  2  3  2  0  0  0  0
  3  4  1  0  0  0  0
  4  5  2  0  0  0  0
  4 10  1  0  0  0  0
  5  6  1  0  0  0  0
  5  8  1  0  0  0  0
  6  7  2  0  0  0  0
  8  9  1  0  0  0  0
  9 10  2  0  0  0  0
M  END
>  <CHROM.1>
11.21274423,9.55242702,27.56332459,0.21930465,-1.38793756,0.53005879

>  <Name>
ligand

>  <RI>
0

>  <Rbt.Current_Directory>
/home/itssahil/PROJECTS/Mol_Feturizer/New_Systems/rnas/2EET

>  <Rbt.Executable>
rbdock ($Id: //depot/dev/client3/rdock/2013.1/src/exe/rbdock.cxx#4 $)

>  <Rbt.Library>
libRbt.so (2013.1, Build901 2013/11/27)

>  <Rbt.Parameter_File>
/export/apps/rDock/src/rDock_2013.1_src/data/scripts/dock_solv.prm

>  <Rbt.Receptor>
prm/pocket_docking_3.prm

>  <SCORE>
-18.0057

>  <SCORE.INTER>
-18.0057

>  <SCORE.INTER.CONST>
1

>  <SCORE.INTER.POLAR>
0

>  <SCORE.INTER.ROT>
0

>  <SCORE.INTER.SOLV>
4.09772

>  <SCORE.INTER.VDW>
-16.9697

>  <SCORE.INTER.norm>
-1.80057

>  <SCORE.INTRA>
0

>  <SCORE.INTRA.DIHEDRAL>
0

>  <SCORE.INTRA.DIHEDRAL.0>
0

>  <SCORE.INTRA.POLAR>
0

>  <SCORE.INTRA.POLAR.0>
0

>  <SCORE.INTRA.REPUL>
0

>  <SCORE.INTRA.REPUL.0>
0

>  <SCORE.INTRA.SOLV>
0

>  <SCORE.INTRA.SOLV.lig_0>
-4.28464

>  <SCORE.INTRA.VDW>
0

>  <SCORE.INTRA.VDW.0>
0

>  <SCORE.INTRA.norm>
0

>  <SCORE.RESTR>
0

>  <SCORE.RESTR.CAVITY>
0

>  <SCORE.RESTR.norm>
0

>  <SCORE.SYSTEM>
0

>  <SCORE.SYSTEM.CONST>
0

>  <SCORE.SYSTEM.DIHEDRAL>
0

>  <SCORE.SYSTEM.SOLV>
0

>  <SCORE.SYSTEM.norm>
0

>  <SCORE.heavy>
10

>  <SCORE.norm>
-1.80057

>  <RMSD>
0.709

$$$$
ligand
 OpenBabel11021811423D
libRbt.so/2013.1/901 2013/11/27
 10 11  0  0  0  0  0  0  0  0999 V2000
   11.4895    9.4744   29.4934 N   0  0  0  0  0  0  0  0  0  0  0  0
   11.3627   10.8395   29.3034 C   0  0  0  0  0  0  0  0  0  0  0  0
   11.1356   11.3671   28.0944 N   0  0  0  0  0  0  0  0  0  0  0  0
   11.0473   10.4223   27.1029 C   0  0  0  0  0  0  0  0  0  0  0  0
   11.1645    9.0574   27.2314 C   0  0  0  0  0  0  0  0  0  0  0  0
   11.4057    8.4862   28.5117 C   0  0  0  0  0  0  0  0  0  0  0  0
   11.5419    7.3019   28.8439 O   0  0  0  0  0  0  0  0  0  0  0  0
   11.0100    8.4886   25.9941 N   0  0  0  0  0  0  0  0  0  0  0  0
   10.8001    9.4982   25.1279 C   0  0  0  0  0  0  0  0  0  0  0  0
   10.8189   10.7055   25.7797 N   0  0  0  0  0  0  0  0  0  0  0  0
  1  2  1  0  0  0  0
  1  6  1  0  0  0  0
  2  3  2  0  0  0  0
  3  4  1  0  0  0  0
  4  5  2  0  0  0  0
  4 10  1  0  0  0  0
  5  6  1  0  0  0  0
  5  8  1  0  0  0  0
  6  7  2  0  0  0  0
  8  9  1  0  0  0  0
  9 10  2  0  0  0  0
M  END
>  <CHROM.1>
11.18474493,9.52268019,27.57484239,0.11152689,-1.39994745,0.42400880

>  <Name>
ligand

>  <RI>
0

>  <Rbt.Current_Directory>
/home/itssahil/PROJECTS/Mol_Feturizer/New_Systems/rnas/2EET

>  <Rbt.Executable>
rbdock ($Id: //depot/dev/client3/rdock/2013.1/src/exe/rbdock.cxx#4 $)

>  <Rbt.Library>
libRbt.so (2013.1, Build901 2013/11/27)

>  <Rbt.Parameter_File>
/export/apps/rDock/src/rDock_2013.1_src/data/scripts/dock_solv.prm

>  <Rbt.Receptor>
prm/pocket_docking_3.prm

>  <SCORE>
-18.0543

>  <SCORE.INTER>
-18.0543

>  <SCORE.INTER.CONST>
1

>  <SCORE.INTER.POLAR>
0

>  <SCORE.INTER.ROT>
0

>  <SCORE.INTER.SOLV>
4.21309

>  <SCORE.INTER.VDW>
-17.0406

>  <SCORE.INTER.norm>
-1.80543

>  <SCORE.INTRA>
0

>  <SCORE.INTRA.DIHEDRAL>
0

>  <SCORE.INTRA.DIHEDRAL.0>
0

>  <SCORE.INTRA.POLAR>
0

>  <SCORE.INTRA.POLAR.0>
0

>  <SCORE.INTRA.REPUL>
0

>  <SCORE.INTRA.REPUL.0>
0

>  <SCORE.INTRA.SOLV>
0

>  <SCORE.INTRA.SOLV.lig_0>
-4.28464

>  <SCORE.INTRA.VDW>
0

>  <SCORE.INTRA.VDW.0>
0

>  <SCORE.INTRA.norm>
0

>  <SCORE.RESTR>
0

>  <SCORE.RESTR.CAVITY>
0

>  <SCORE.RESTR.norm>
0

>  <SCORE.SYSTEM>
0

>  <SCORE.SYSTEM.CONST>
0

>  <SCORE.SYSTEM.DIHEDRAL>
0

>  <SCORE.SYSTEM.SOLV>
0

>  <SCORE.SYSTEM.norm>
0

>  <SCORE.heavy>
10

>  <SCORE.norm>
-1.80543

>  <RMSD>
0.709

$$$$
ligand
 OpenBabel11021811423D
libRbt.so/2013.1/901 2013/11/27
 10 11  0  0  0  0  0  0  0  0999 V2000
   11.5104    9.4892   29.5015 N   0  0  0  0  0  0  0  0  0  0  0  0
   11.3697   10.8503   29.2938 C   0  0  0  0  0  0  0  0  0  0  0  0
   11.1389   11.3599   28.0778 N   0  0  0  0  0  0  0  0  0  0  0  0
   11.0618   10.4015   27.0984 C   0  0  0  0  0  0  0  0  0  0  0  0
   11.1929    9.0397   27.2448 C   0  0  0  0  0  0  0  0  0  0  0  0
   11.4382    8.4876   28.5326 C   0  0  0  0  0  0  0  0  0  0  0  0
   11.5863    7.3092   28.8802 O   0  0  0  0  0  0  0  0  0  0  0  0
   11.0461    8.4534   26.0147 N   0  0  0  0  0  0  0  0  0  0  0  0
   10.8270    9.4495   25.1352 C   0  0  0  0  0  0  0  0  0  0  0  0
   10.8323   10.6652   25.7714 N   0  0  0  0  0  0  0  0  0  0  0  0
  1  2  1  0  0  0  0
  1  6  1  0  0  0  0
  2  3  2  0  0  0  0
  3  4  1  0  0  0  0
  4  5  2  0  0  0  0
  4 10  1  0  0  0  0
  5  6  1  0  0  0  0
  5  8  1  0  0  0  0
  6  7  2  0  0  0  0
  8  9  1  0  0  0  0
  9 10  2  0  0  0  0
M  END
>  <CHROM.1>
11.20786914,9.50954065,27.58213975,0.16947202,-1.39668488,0.46818409

>  <Name>
ligand

>  <RI>
0

>  <Rbt.Current_Directory>
/home/itssahil/PROJECTS/Mol_Feturizer/New_Systems/rnas/2EET

>  <Rbt.Executable>
rbdock ($Id: //depot/dev/client3/rdock/2013.1/src/exe/rbdock.cxx#4 $)

>  <Rbt.Library>
libRbt.so (2013.1, Build901 2013/11/27)

>  <Rbt.Parameter_File>
/export/apps/rDock/src/rDock_2013.1_src/data/scripts/dock_solv.prm

>  <Rbt.Receptor>
prm/pocket_docking_4.prm

>  <SCORE>
-18.0789

>  <SCORE.INTER>
-18.0789

>  <SCORE.INTER.CONST>
1

>  <SCORE.INTER.POLAR>
0

>  <SCORE.INTER.ROT>
0

>  <SCORE.INTER.SOLV>
4.17635

>  <SCORE.INTER.VDW>
-17.0447

>  <SCORE.INTER.norm>
-1.80789

>  <SCORE.INTRA>
0

>  <SCORE.INTRA.DIHEDRAL>
0

>  <SCORE.INTRA.DIHEDRAL.0>
0

>  <SCORE.INTRA.POLAR>
0

>  <SCORE.INTRA.POLAR.0>
0

>  <SCORE.INTRA.REPUL>
0

>  <SCORE.INTRA.REPUL.0>
0

>  <SCORE.INTRA.SOLV>
0

>  <SCORE.INTRA.SOLV.lig_0>
-4.28464

>  <SCORE.INTRA.VDW>
0

>  <SCORE.INTRA.VDW.0>
0

>  <SCORE.INTRA.norm>
0

>  <SCORE.RESTR>
0

>  <SCORE.RESTR.CAVITY>
0

>  <SCORE.RESTR.norm>
0

>  <SCORE.SYSTEM>
0

>  <SCORE.SYSTEM.CONST>
0

>  <SCORE.SYSTEM.DIHEDRAL>
0

>  <SCORE.SYSTEM.SOLV>
0

>  <SCORE.SYSTEM.norm>
0

>  <SCORE.heavy>
10

>  <SCORE.norm>
-1.80789

>  <RMSD>
0.709

$$$$
ligand
 OpenBabel11021811423D
libRbt.so/2013.1/901 2013/11/27
 10 11  0  0  0  0  0  0  0  0999 V2000
   11.4973    9.4848   29.4837 N   0  0  0  0  0  0  0  0  0  0  0  0
   11.3614   10.8499   29.3006 C   0  0  0  0  0  0  0  0  0  0  0  0
   11.1303   11.3820   28.0943 N   0  0  0  0  0  0  0  0  0  0  0  0
   11.0478   10.4416   27.0982 C   0  0  0  0  0  0  0  0  0  0  0  0
   11.1740    9.0769   27.2199 C   0  0  0  0  0  0  0  0  0  0  0  0
   11.4195    8.5010   28.4972 C   0  0  0  0  0  0  0  0  0  0  0  0
   11.5638    7.3160   28.8234 O   0  0  0  0  0  0  0  0  0  0  0  0
   11.0227    8.5133   25.9798 N   0  0  0  0  0  0  0  0  0  0  0  0
   10.8058    9.5257   25.1187 C   0  0  0  0  0  0  0  0  0  0  0  0
   10.8169   10.7298   25.7765 N   0  0  0  0  0  0  0  0  0  0  0  0
  1  2  1  0  0  0  0
  1  6  1  0  0  0  0
  2  3  2  0  0  0  0
  3  4  1  0  0  0  0
  4  5  2  0  0  0  0
  4 10  1  0  0  0  0
  5  6  1  0  0  0  0
  5  8  1  0  0  0  0
  6  7  2  0  0  0  0
  8  9  1  0  0  0  0
  9 10  2  0  0  0  0
M  END
>  <CHROM.1>
11.19135789,9.54056574,27.56558866,0.14523594,-1.39670901,0.46218408

>  <Name>
ligand

>  <RI>
0

>  <Rbt.Current_Directory>
/home/itssahil/PROJECTS/Mol_Feturizer/New_Systems/rnas/2EET

>  <Rbt.Executable>
rbdock ($Id: //depot/dev/client3/rdock/2013.1/src/exe/rbdock.cxx#4 $)

>  <Rbt.Library>
libRbt.so (2013.1, Build901 2013/11/27)

>  <Rbt.Parameter_File>
/export/apps/rDock/src/rDock_2013.1_src/data/scripts/dock_solv.prm

>  <Rbt.Receptor>
prm/pocket_docking_5.prm

>  <SCORE>
-18.0588

>  <SCORE.INTER>
-18.0588

>  <SCORE.INTER.CONST>
1

>  <SCORE.INTER.POLAR>
0

>  <SCORE.INTER.ROT>
0

>  <SCORE.INTER.SOLV>
4.1704

>  <SCORE.INTER.VDW>
-17.0293

>  <SCORE.INTER.norm>
-1.80588

>  <SCORE.INTRA>
0

>  <SCORE.INTRA.DIHEDRAL>
0

>  <SCORE.INTRA.DIHEDRAL.0>
0

>  <SCORE.INTRA.POLAR>
0

>  <SCORE.INTRA.POLAR.0>
0

>  <SCORE.INTRA.REPUL>
0

>  <SCORE.INTRA.REPUL.0>
0

>  <SCORE.INTRA.SOLV>
0

>  <SCORE.INTRA.SOLV.lig_0>
-4.28464

>  <SCORE.INTRA.VDW>
0

>  <SCORE.INTRA.VDW.0>
0

>  <SCORE.INTRA.norm>
0

>  <SCORE.RESTR>
0

>  <SCORE.RESTR.CAVITY>
0

>  <SCORE.RESTR.norm>
0

>  <SCORE.SYSTEM>
0

>  <SCORE.SYSTEM.CONST>
0

>  <SCORE.SYSTEM.DIHEDRAL>
0

>  <SCORE.SYSTEM.SOLV>
0

>  <SCORE.SYSTEM.norm>
0

>  <SCORE.heavy>
10

>  <SCORE.norm>
-1.80588

>  <RMSD>
0.709

$$$$
ligand
 OpenBabel11021811423D
libRbt.so/2013.1/901 2013/11/27
 10 11  0  0  0  0  0  0  0  0999 V2000
   11.5027    9.5078   29.5182 N   0  0  0  0  0  0  0  0  0  0  0  0
   11.3571   10.8678   29.3062 C   0  0  0  0  0  0  0  0  0  0  0  0
   11.1306   11.3732   28.0876 N   0  0  0  0  0  0  0  0  0  0  0  0
   11.0630   10.4120   27.1104 C   0  0  0  0  0  0  0  0  0  0  0  0
   11.1993    9.0511   27.2609 C   0  0  0  0  0  0  0  0  0  0  0  0
   11.4401    8.5034   28.5515 C   0  0  0  0  0  0  0  0  0  0  0  0
   11.5916    7.3266   28.9030 O   0  0  0  0  0  0  0  0  0  0  0  0
   11.0617    8.4611   26.0316 N   0  0  0  0  0  0  0  0  0  0  0  0
   10.8429    9.4539   25.1484 C   0  0  0  0  0  0  0  0  0  0  0  0
   10.8395   10.6713   25.7815 N   0  0  0  0  0  0  0  0  0  0  0  0
  1  2  1  0  0  0  0
  1  6  1  0  0  0  0
  2  3  2  0  0  0  0
  3  4  1  0  0  0  0
  4  5  2  0  0  0  0
  4 10  1  0  0  0  0
  5  6  1  0  0  0  0
  5  8  1  0  0  0  0
  6  7  2  0  0  0  0
  8  9  1  0  0  0  0
  9 10  2  0  0  0  0
M  END
>  <CHROM.1>
11.21041111,9.52188943,27.59718918,0.20672697,-1.39935863,0.50230668

>  <Name>
ligand

>  <RI>
0

>  <Rbt.Current_Directory>
/home/itssahil/PROJECTS/Mol_Feturizer/New_Systems/rnas/2EET

>  <Rbt.Executable>
rbdock ($Id: //depot/dev/client3/rdock/2013.1/src/exe/rbdock.cxx#4 $)

>  <Rbt.Library>
libRbt.so (2013.1, Build901 2013/11/27)

>  <Rbt.Parameter_File>
/export/apps/rDock/src/rDock_2013.1_src/data/scripts/dock_solv.prm

>  <Rbt.Receptor>
prm/pocket_docking_5.prm

>  <SCORE>
-18.0638

>  <SCORE.INTER>
-18.0638

>  <SCORE.INTER.CONST>
1

>  <SCORE.INTER.POLAR>
0

>  <SCORE.INTER.ROT>
0

>  <SCORE.INTER.SOLV>
4.18293

>  <SCORE.INTER.VDW>
-17.0368

>  <SCORE.INTER.norm>
-1.80638

>  <SCORE.INTRA>
0

>  <SCORE.INTRA.DIHEDRAL>
0

>  <SCORE.INTRA.DIHEDRAL.0>
0

>  <SCORE.INTRA.POLAR>
0

>  <SCORE.INTRA.POLAR.0>
0

>  <SCORE.INTRA.REPUL>
0

>  <SCORE.INTRA.REPUL.0>
0

>  <SCORE.INTRA.SOLV>
0

>  <SCORE.INTRA.SOLV.lig_0>
-4.28464

>  <SCORE.INTRA.VDW>
0

>  <SCORE.INTRA.VDW.0>
0

>  <SCORE.INTRA.norm>
0

>  <SCORE.RESTR>
0

>  <SCORE.RESTR.CAVITY>
0

>  <SCORE.RESTR.norm>
0

>  <SCORE.SYSTEM>
0

>  <SCORE.SYSTEM.CONST>
0

>  <SCORE.SYSTEM.DIHEDRAL>
0

>  <SCORE.SYSTEM.SOLV>
0

>  <SCORE.SYSTEM.norm>
0

>  <SCORE.heavy>
10

>  <SCORE.norm>
-1.80638

>  <RMSD>
0.709

$$$$
ligand
 OpenBabel11021811423D
libRbt.so/2013.1/901 2013/11/27
 10 11  0  0  0  0  0  0  0  0999 V2000
   11.5027    9.5115   29.5206 N   0  0  0  0  0  0  0  0  0  0  0  0
   11.3554   10.8710   29.3070 C   0  0  0  0  0  0  0  0  0  0  0  0
   11.1288   11.3747   28.0878 N   0  0  0  0  0  0  0  0  0  0  0  0
   11.0630   10.4123   27.1116 C   0  0  0  0  0  0  0  0  0  0  0  0
   11.2011    9.0518   27.2638 C   0  0  0  0  0  0  0  0  0  0  0  0
   11.4421    8.5060   28.5551 C   0  0  0  0  0  0  0  0  0  0  0  0
   11.5949    7.3297   28.9079 O   0  0  0  0  0  0  0  0  0  0  0  0
   11.0650    8.4602   26.0350 N   0  0  0  0  0  0  0  0  0  0  0  0
   10.8452    9.4517   25.1506 C   0  0  0  0  0  0  0  0  0  0  0  0
   10.8398   10.6698   25.7822 N   0  0  0  0  0  0  0  0  0  0  0  0
  1  2  1  0  0  0  0
  1  6  1  0  0  0  0
  2  3  2  0  0  0  0
  3  4  1  0  0  0  0
  4  5  2  0  0  0  0
  4 10  1  0  0  0  0
  5  6  1  0  0  0  0
  5  8  1  0  0  0  0
  6  7  2  0  0  0  0
  8  9  1  0  0  0  0
  9 10  2  0  0  0  0
M  END
>  <CHROM.1>
11.21139433,9.52300818,27.59946406,0.21529915,-1.39911859,0.50961637

>  <Name>
ligand

>  <RI>
0

>  <Rbt.Current_Directory>
/home/itssahil/PROJECTS/Mol_Feturizer/New_Systems/rnas/2EET

>  <Rbt.Executable>
rbdock ($Id: //depot/dev/client3/rdock/2013.1/src/exe/rbdock.cxx#4 $)

>  <Rbt.Library>
libRbt.so (2013.1, Build901 2013/11/27)

>  <Rbt.Parameter_File>
/export/apps/rDock/src/rDock_2013.1_src/data/scripts/dock_solv.prm

>  <Rbt.Receptor>
prm/pocket_docking_5.prm

>  <SCORE>
-18.0587

>  <SCORE.INTER>
-18.0587

>  <SCORE.INTER.CONST>
1

>  <SCORE.INTER.POLAR>
0

>  <SCORE.INTER.ROT>
0

>  <SCORE.INTER.SOLV>
4.18108

>  <SCORE.INTER.VDW>
-17.0328

>  <SCORE.INTER.norm>
-1.80587

>  <SCORE.INTRA>
0

>  <SCORE.INTRA.DIHEDRAL>
0

>  <SCORE.INTRA.DIHEDRAL.0>
0

>  <SCORE.INTRA.POLAR>
0

>  <SCORE.INTRA.POLAR.0>
0

>  <SCORE.INTRA.REPUL>
0

>  <SCORE.INTRA.REPUL.0>
0

>  <SCORE.INTRA.SOLV>
0

>  <SCORE.INTRA.SOLV.lig_0>
-4.28464

>  <SCORE.INTRA.VDW>
0

>  <SCORE.INTRA.VDW.0>
0

>  <SCORE.INTRA.norm>
0

>  <SCORE.RESTR>
0

>  <SCORE.RESTR.CAVITY>
0

>  <SCORE.RESTR.norm>
0

>  <SCORE.SYSTEM>
0

>  <SCORE.SYSTEM.CONST>
0

>  <SCORE.SYSTEM.DIHEDRAL>
0

>  <SCORE.SYSTEM.SOLV>
0

>  <SCORE.SYSTEM.norm>
0

>  <SCORE.heavy>
10

>  <SCORE.norm>
-1.80587

>  <RMSD>
0.709

$$$$
ligand
 OpenBabel11021811423D
libRbt.so/2013.1/901 2013/11/27
 10 11  0  0  0  0  0  0  0  0999 V2000
   11.4899    9.4827   29.5243 N   0  0  0  0  0  0  0  0  0  0  0  0
   11.3701   10.8455   29.3139 C   0  0  0  0  0  0  0  0  0  0  0  0
   11.1424   11.3558   28.0976 N   0  0  0  0  0  0  0  0  0  0  0  0
   11.0459   10.3964   27.1209 C   0  0  0  0  0  0  0  0  0  0  0  0
   11.1558    9.0330   27.2700 C   0  0  0  0  0  0  0  0  0  0  0  0
   11.3977    8.4802   28.5582 C   0  0  0  0  0  0  0  0  0  0  0  0
   11.5284    7.3003   28.9080 O   0  0  0  0  0  0  0  0  0  0  0  0
   10.9945    8.4463   26.0420 N   0  0  0  0  0  0  0  0  0  0  0  0
   10.7877    9.4436   25.1611 C   0  0  0  0  0  0  0  0  0  0  0  0
   10.8151   10.6606   25.7942 N   0  0  0  0  0  0  0  0  0  0  0  0
  1  2  1  0  0  0  0
  1  6  1  0  0  0  0
  2  3  2  0  0  0  0
  3  4  1  0  0  0  0
  4  5  2  0  0  0  0
  4 10  1  0  0  0  0
  5  6  1  0  0  0  0
  5  8  1  0  0  0  0
  6  7  2  0  0  0  0
  8  9  1  0  0  0  0
  9 10  2  0  0  0  0
M  END
>  <CHROM.1>
11.17973290,9.50337352,27.60619046,0.07469491,-1.39937704,0.37241813

>  <Name>
ligand

>  <RI>
0

>  <Rbt.Current_Directory>
/home/itssahil/PROJECTS/Mol_Feturizer/New_Systems/rnas/2EET

>  <Rbt.Executable>
rbdock ($Id: //depot/dev/client3/rdock/2013.1/src/exe/rbdock.cxx#4 $)

>  <Rbt.Library>
libRbt.so (2013.1, Build901 2013/11/27)

>  <Rbt.Parameter_File>
/export/apps/rDock/src/rDock_2013.1_src/data/scripts/dock_solv.prm

>  <Rbt.Receptor>
prm/pocket_docking_6.prm

>  <SCORE>
-18.0258

>  <SCORE.INTER>
-18.0271

>  <SCORE.INTER.CONST>
1

>  <SCORE.INTER.POLAR>
0

>  <SCORE.INTER.ROT>
0

>  <SCORE.INTER.SOLV>
4.26382

>  <SCORE.INTER.VDW>
-17.0393

>  <SCORE.INTER.norm>
-1.80271

>  <SCORE.INTRA>
0

>  <SCORE.INTRA.DIHEDRAL>
0

>  <SCORE.INTRA.DIHEDRAL.0>
0

>  <SCORE.INTRA.POLAR>
0

>  <SCORE.INTRA.POLAR.0>
0

>  <SCORE.INTRA.REPUL>
0

>  <SCORE.INTRA.REPUL.0>
0

>  <SCORE.INTRA.SOLV>
0

>  <SCORE.INTRA.SOLV.lig_0>
-4.28464

>  <SCORE.INTRA.VDW>
0

>  <SCORE.INTRA.VDW.0>
0

>  <SCORE.INTRA.norm>
0

>  <SCORE.RESTR>
0.00130391

>  <SCORE.RESTR.CAVITY>
0.00130391

>  <SCORE.RESTR.norm>
0.000130391

>  <SCORE.SYSTEM>
0

>  <SCORE.SYSTEM.CONST>
0

>  <SCORE.SYSTEM.DIHEDRAL>
0

>  <SCORE.SYSTEM.SOLV>
0

>  <SCORE.SYSTEM.norm>
0

>  <SCORE.heavy>
10

>  <SCORE.norm>
-1.80258

>  <RMSD>
0.709

$$$$
ligand
 OpenBabel11021811423D
libRbt.so/2013.1/901 2013/11/27
 10 11  0  0  0  0  0  0  0  0999 V2000
   11.4976    9.4808   29.4777 N   0  0  0  0  0  0  0  0  0  0  0  0
   11.3591   10.8462   29.2981 C   0  0  0  0  0  0  0  0  0  0  0  0
   11.1290   11.3810   28.0928 N   0  0  0  0  0  0  0  0  0  0  0  0
   11.0504   10.4431   27.0939 C   0  0  0  0  0  0  0  0  0  0  0  0
   11.1793    9.0783   27.2122 C   0  0  0  0  0  0  0  0  0  0  0  0
   11.4238    8.4995   28.4885 C   0  0  0  0  0  0  0  0  0  0  0  0
   11.5700    7.3139   28.8118 O   0  0  0  0  0  0  0  0  0  0  0  0
   11.0315    8.5177   25.9704 N   0  0  0  0  0  0  0  0  0  0  0  0
   10.8139    9.5320   25.1116 C   0  0  0  0  0  0  0  0  0  0  0  0
   10.8212   10.7344   25.7726 N   0  0  0  0  0  0  0  0  0  0  0  0
  1  2  1  0  0  0  0
  1  6  1  0  0  0  0
  2  3  2  0  0  0  0
  3  4  1  0  0  0  0
  4  5  2  0  0  0  0
  4 10  1  0  0  0  0
  5  6  1  0  0  0  0
  5  8  1  0  0  0  0
  6  7  2  0  0  0  0
  8  9  1  0  0  0  0
  9 10  2  0  0  0  0
M  END
>  <CHROM.1>
11.19505330,9.54112103,27.55921345,0.16110128,-1.39734447,0.48049031

>  <Name>
ligand

>  <RI>
0

>  <Rbt.Current_Directory>
/home/itssahil/PROJECTS/Mol_Feturizer/New_Systems/rnas/2EET

>  <Rbt.Executable>
rbdock ($Id: //depot/dev/client3/rdock/2013.1/src/exe/rbdock.cxx#4 $)

>  <Rbt.Library>
libRbt.so (2013.1, Build901 2013/11/27)

>  <Rbt.Parameter_File>
/export/apps/rDock/src/rDock_2013.1_src/data/scripts/dock_solv.prm

>  <Rbt.Receptor>
prm/pocket_docking_6.prm

>  <SCORE>
-18.0515

>  <SCORE.INTER>
-18.0515

>  <SCORE.INTER.CONST>
1

>  <SCORE.INTER.POLAR>
0

>  <SCORE.INTER.ROT>
0

>  <SCORE.INTER.SOLV>
4.15696

>  <SCORE.INTER.VDW>
-17.02

>  <SCORE.INTER.norm>
-1.80515

>  <SCORE.INTRA>
0

>  <SCORE.INTRA.DIHEDRAL>
0

>  <SCORE.INTRA.DIHEDRAL.0>
0

>  <SCORE.INTRA.POLAR>
0

>  <SCORE.INTRA.POLAR.0>
0

>  <SCORE.INTRA.REPUL>
0

>  <SCORE.INTRA.REPUL.0>
0

>  <SCORE.INTRA.SOLV>
0

>  <SCORE.INTRA.SOLV.lig_0>
-4.28464

>  <SCORE.INTRA.VDW>
0

>  <SCORE.INTRA.VDW.0>
0

>  <SCORE.INTRA.norm>
0

>  <SCORE.RESTR>
0

>  <SCORE.RESTR.CAVITY>
0

>  <SCORE.RESTR.norm>
0

>  <SCORE.SYSTEM>
0

>  <SCORE.SYSTEM.CONST>
0

>  <SCORE.SYSTEM.DIHEDRAL>
0

>  <SCORE.SYSTEM.SOLV>
0

>  <SCORE.SYSTEM.norm>
0

>  <SCORE.heavy>
10

>  <SCORE.norm>
-1.80515

>  <RMSD>
0.709

$$$$
ligand
 OpenBabel11021811423D
libRbt.so/2013.1/901 2013/11/27
 10 11  0  0  0  0  0  0  0  0999 V2000
   11.5080    9.4859   29.4974 N   0  0  0  0  0  0  0  0  0  0  0  0
   11.3589   10.8463   29.2907 C   0  0  0  0  0  0  0  0  0  0  0  0
   11.1254   11.3553   28.0749 N   0  0  0  0  0  0  0  0  0  0  0  0
   11.0547   10.3972   27.0948 C   0  0  0  0  0  0  0  0  0  0  0  0
   11.1942    9.0361   27.2402 C   0  0  0  0  0  0  0  0  0  0  0  0
   11.4425    8.4846   28.5277 C   0  0  0  0  0  0  0  0  0  0  0  0
   11.5978    7.3069   28.8745 O   0  0  0  0  0  0  0  0  0  0  0  0
   11.0516    8.4499   26.0096 N   0  0  0  0  0  0  0  0  0  0  0  0
   10.8266    9.4452   25.1308 C   0  0  0  0  0  0  0  0  0  0  0  0
   10.8241   10.6605   25.7679 N   0  0  0  0  0  0  0  0  0  0  0  0
  1  2  1  0  0  0  0
  1  6  1  0  0  0  0
  2  3  2  0  0  0  0
  3  4  1  0  0  0  0
  4  5  2  0  0  0  0
  4 10  1  0  0  0  0
  5  6  1  0  0  0  0
  5  8  1  0  0  0  0
  6  7  2  0  0  0  0
  8  9  1  0  0  0  0
  9 10  2  0  0  0  0
M  END
>  <CHROM.1>
11.20614291,9.50581956,27.57790199,0.20234834,-1.39411067,0.50131866

>  <Name>
ligand

>  <RI>
0

>  <Rbt.Current_Directory>
/home/itssahil/PROJECTS/Mol_Feturizer/New_Systems/rnas/2EET

>  <Rbt.Executable>
rbdock ($Id: //depot/dev/client3/rdock/2013.1/src/exe/rbdock.cxx#4 $)

>  <Rbt.Library>
libRbt.so (2013.1, Build901 2013/11/27)

>  <Rbt.Parameter_File>
/export/apps/rDock/src/rDock_2013.1_src/data/scripts/dock_solv.prm

>  <Rbt.Receptor>
prm/pocket_docking_7.prm

>  <SCORE>
-18.0607

>  <SCORE.INTER>
-18.0607

>  <SCORE.INTER.CONST>
1

>  <SCORE.INTER.POLAR>
0

>  <SCORE.INTER.ROT>
0

>  <SCORE.INTER.SOLV>
4.15579

>  <SCORE.INTER.VDW>
-17.0257

>  <SCORE.INTER.norm>
-1.80607

>  <SCORE.INTRA>
0

>  <SCORE.INTRA.DIHEDRAL>
0

>  <SCORE.INTRA.DIHEDRAL.0>
0

>  <SCORE.INTRA.POLAR>
0

>  <SCORE.INTRA.POLAR.0>
0

>  <SCORE.INTRA.REPUL>
0

>  <SCORE.INTRA.REPUL.0>
0

>  <SCORE.INTRA.SOLV>
0

>  <SCORE.INTRA.SOLV.lig_0>
-4.28464

>  <SCORE.INTRA.VDW>
0

>  <SCORE.INTRA.VDW.0>
0

>  <SCORE.INTRA.norm>
0

>  <SCORE.RESTR>
0

>  <SCORE.RESTR.CAVITY>
0

>  <SCORE.RESTR.norm>
0

>  <SCORE.SYSTEM>
0

>  <SCORE.SYSTEM.CONST>
0

>  <SCORE.SYSTEM.DIHEDRAL>
0

>  <SCORE.SYSTEM.SOLV>
0

>  <SCORE.SYSTEM.norm>
0

>  <SCORE.heavy>
10

>  <SCORE.norm>
-1.80607

>  <RMSD>
0.709

$$$$
ligand
 OpenBabel11021811423D
libRbt.so/2013.1/901 2013/11/27
 10 11  0  0  0  0  0  0  0  0999 V2000
   11.4897    9.4769   29.4935 N   0  0  0  0  0  0  0  0  0  0  0  0
   11.3605   10.8417   29.3034 C   0  0  0  0  0  0  0  0  0  0  0  0
   11.1348   11.3689   28.0939 N   0  0  0  0  0  0  0  0  0  0  0  0
   11.0504   10.4240   27.1022 C   0  0  0  0  0  0  0  0  0  0  0  0
   11.1701    9.0593   27.2309 C   0  0  0  0  0  0  0  0  0  0  0  0
   11.4099    8.4886   28.5116 C   0  0  0  0  0  0  0  0  0  0  0  0
   11.5480    7.3046   28.8440 O   0  0  0  0  0  0  0  0  0  0  0  0
   11.0193    8.4903   25.9932 N   0  0  0  0  0  0  0  0  0  0  0  0
   10.8091    9.4995   25.1267 C   0  0  0  0  0  0  0  0  0  0  0  0
   10.8240   10.7068   25.7785 N   0  0  0  0  0  0  0  0  0  0  0  0
  1  2  1  0  0  0  0
  1  6  1  0  0  0  0
  2  3  2  0  0  0  0
  3  4  1  0  0  0  0
  4  5  2  0  0  0  0
  4 10  1  0  0  0  0
  5  6  1  0  0  0  0
  5  8  1  0  0  0  0
  6  7  2  0  0  0  0
  8  9  1  0  0  0  0
  9 10  2  0  0  0  0
M  END
>  <CHROM.1>
11.18873963,9.52464129,27.57435627,0.12751478,-1.40089231,0.43981981

>  <Name>
ligand

>  <RI>
0

>  <Rbt.Current_Directory>
/home/itssahil/PROJECTS/Mol_Feturizer/New_Systems/rnas/2EET

>  <Rbt.Executable>
rbdock ($Id: //depot/dev/client3/rdock/2013.1/src/exe/rbdock.cxx#4 $)

>  <Rbt.Library>
libRbt.so (2013.1, Build901 2013/11/27)

>  <Rbt.Parameter_File>
/export/apps/rDock/src/rDock_2013.1_src/data/scripts/dock_solv.prm

>  <Rbt.Receptor>
prm/pocket_docking_8.prm

>  <SCORE>
-18.0538

>  <SCORE.INTER>
-18.0538

>  <SCORE.INTER.CONST>
1

>  <SCORE.INTER.POLAR>
0

>  <SCORE.INTER.ROT>
0

>  <SCORE.INTER.SOLV>
4.20623

>  <SCORE.INTER.VDW>
-17.038

>  <SCORE.INTER.norm>
-1.80538

>  <SCORE.INTRA>
0

>  <SCORE.INTRA.DIHEDRAL>
0

>  <SCORE.INTRA.DIHEDRAL.0>
0

>  <SCORE.INTRA.POLAR>
0

>  <SCORE.INTRA.POLAR.0>
0

>  <SCORE.INTRA.REPUL>
0

>  <SCORE.INTRA.REPUL.0>
0

>  <SCORE.INTRA.SOLV>
0

>  <SCORE.INTRA.SOLV.lig_0>
-4.28464

>  <SCORE.INTRA.VDW>
0

>  <SCORE.INTRA.VDW.0>
0

>  <SCORE.INTRA.norm>
0

>  <SCORE.RESTR>
0

>  <SCORE.RESTR.CAVITY>
0

>  <SCORE.RESTR.norm>
0

>  <SCORE.SYSTEM>
0

>  <SCORE.SYSTEM.CONST>
0

>  <SCORE.SYSTEM.DIHEDRAL>
0

>  <SCORE.SYSTEM.SOLV>
0

>  <SCORE.SYSTEM.norm>
0

>  <SCORE.heavy>
10

>  <SCORE.norm>
-1.80538

>  <RMSD>
0.709

$$$$
ligand
 OpenBabel11021811423D
libRbt.so/2013.1/901 2013/11/27
 10 11  0  0  0  0  0  0  0  0999 V2000
   11.4965    9.5085   29.5223 N   0  0  0  0  0  0  0  0  0  0  0  0
   11.3533   10.8688   29.3106 C   0  0  0  0  0  0  0  0  0  0  0  0
   11.1306   11.3750   28.0916 N   0  0  0  0  0  0  0  0  0  0  0  0
   11.0644   10.4144   27.1138 C   0  0  0  0  0  0  0  0  0  0  0  0
   11.1985    9.0533   27.2641 C   0  0  0  0  0  0  0  0  0  0  0  0
   11.4352    8.5047   28.5550 C   0  0  0  0  0  0  0  0  0  0  0  0
   11.5842    7.3275   28.9063 O   0  0  0  0  0  0  0  0  0  0  0  0
   11.0634    8.4639   26.0341 N   0  0  0  0  0  0  0  0  0  0  0  0
   10.8483    9.4574   25.1508 C   0  0  0  0  0  0  0  0  0  0  0  0
   10.8447   10.6745   25.7844 N   0  0  0  0  0  0  0  0  0  0  0  0
  1  2  1  0  0  0  0
  1  6  1  0  0  0  0
  2  3  2  0  0  0  0
  3  4  1  0  0  0  0
  4  5  2  0  0  0  0
  4 10  1  0  0  0  0
  5  6  1  0  0  0  0
  5  8  1  0  0  0  0
  6  7  2  0  0  0  0
  8  9  1  0  0  0  0
  9 10  2  0  0  0  0
M  END
>  <CHROM.1>
11.20935102,9.52387767,27.60055213,0.20762108,-1.40230024,0.50364038

>  <Name>
ligand

>  <RI>
0

>  <Rbt.Current_Directory>
/home/itssahil/PROJECTS/Mol_Feturizer/New_Systems/rnas/2EET

>  <Rbt.Executable>
rbdock ($Id: //depot/dev/client3/rdock/2013.1/src/exe/rbdock.cxx#4 $)

>  <Rbt.Library>
libRbt.so (2013.1, Build901 2013/11/27)

>  <Rbt.Parameter_File>
/export/apps/rDock/src/rDock_2013.1_src/data/scripts/dock_solv.prm

>  <Rbt.Receptor>
prm/pocket_docking_8.prm

>  <SCORE>
-18.0629

>  <SCORE.INTER>
-18.0629

>  <SCORE.INTER.CONST>
1

>  <SCORE.INTER.POLAR>
0

>  <SCORE.INTER.ROT>
0

>  <SCORE.INTER.SOLV>
4.19529

>  <SCORE.INTER.VDW>
-17.0404

>  <SCORE.INTER.norm>
-1.80629

>  <SCORE.INTRA>
0

>  <SCORE.INTRA.DIHEDRAL>
0

>  <SCORE.INTRA.DIHEDRAL.0>
0

>  <SCORE.INTRA.POLAR>
0

>  <SCORE.INTRA.POLAR.0>
0

>  <SCORE.INTRA.REPUL>
0

>  <SCORE.INTRA.REPUL.0>
0

>  <SCORE.INTRA.SOLV>
0

>  <SCORE.INTRA.SOLV.lig_0>
-4.28464

>  <SCORE.INTRA.VDW>
0

>  <SCORE.INTRA.VDW.0>
0

>  <SCORE.INTRA.norm>
0

>  <SCORE.RESTR>
0

>  <SCORE.RESTR.CAVITY>
0

>  <SCORE.RESTR.norm>
0

>  <SCORE.SYSTEM>
0

>  <SCORE.SYSTEM.CONST>
0

>  <SCORE.SYSTEM.DIHEDRAL>
0

>  <SCORE.SYSTEM.SOLV>
0

>  <SCORE.SYSTEM.norm>
0

>  <SCORE.heavy>
10

>  <SCORE.norm>
-1.80629

>  <RMSD>
0.709

$$$$
ligand
 OpenBabel11021811423D
libRbt.so/2013.1/901 2013/11/27
 10 11  0  0  0  0  0  0  0  0999 V2000
   11.4946    9.4895   29.5132 N   0  0  0  0  0  0  0  0  0  0  0  0
   11.3646   10.8521   29.3080 C   0  0  0  0  0  0  0  0  0  0  0  0
   11.1364   11.3655   28.0930 N   0  0  0  0  0  0  0  0  0  0  0  0
   11.0505   10.4094   27.1122 C   0  0  0  0  0  0  0  0  0  0  0  0
   11.1708    9.0464   27.2561 C   0  0  0  0  0  0  0  0  0  0  0  0
   11.4132    8.4902   28.5427 C   0  0  0  0  0  0  0  0  0  0  0  0
   11.5522    7.3100   28.8882 O   0  0  0  0  0  0  0  0  0  0  0  0
   11.0178    8.4634   26.0253 N   0  0  0  0  0  0  0  0  0  0  0  0
   10.8057    9.4626   25.1477 C   0  0  0  0  0  0  0  0  0  0  0  0
   10.8215   10.6772   25.7859 N   0  0  0  0  0  0  0  0  0  0  0  0
  1  2  1  0  0  0  0
  1  6  1  0  0  0  0
  2  3  2  0  0  0  0
  3  4  1  0  0  0  0
  4  5  2  0  0  0  0
  4 10  1  0  0  0  0
  5  6  1  0  0  0  0
  5  8  1  0  0  0  0
  6  7  2  0  0  0  0
  8  9  1  0  0  0  0
  9 10  2  0  0  0  0
M  END
>  <CHROM.1>
11.18993516,9.51550993,27.59426203,0.12431205,-1.39906643,0.42536172

>  <Name>
ligand

>  <RI>
0

>  <Rbt.Current_Directory>
/home/itssahil/PROJECTS/Mol_Feturizer/New_Systems/rnas/2EET

>  <Rbt.Executable>
rbdock ($Id: //depot/dev/client3/rdock/2013.1/src/exe/rbdock.cxx#4 $)

>  <Rbt.Library>
libRbt.so (2013.1, Build901 2013/11/27)

>  <Rbt.Parameter_File>
/export/apps/rDock/src/rDock_2013.1_src/data/scripts/dock_solv.prm

>  <Rbt.Receptor>
prm/pocket_docking_8.prm

>  <SCORE>
-18.0618

>  <SCORE.INTER>
-18.0618

>  <SCORE.INTER.CONST>
1

>  <SCORE.INTER.POLAR>
0

>  <SCORE.INTER.ROT>
0

>  <SCORE.INTER.SOLV>
4.2234

>  <SCORE.INTER.VDW>
-17.049

>  <SCORE.INTER.norm>
-1.80618

>  <SCORE.INTRA>
0

>  <SCORE.INTRA.DIHEDRAL>
0

>  <SCORE.INTRA.DIHEDRAL.0>
0

>  <SCORE.INTRA.POLAR>
0

>  <SCORE.INTRA.POLAR.0>
0

>  <SCORE.INTRA.REPUL>
0

>  <SCORE.INTRA.REPUL.0>
0

>  <SCORE.INTRA.SOLV>
0

>  <SCORE.INTRA.SOLV.lig_0>
-4.28464

>  <SCORE.INTRA.VDW>
0

>  <SCORE.INTRA.VDW.0>
0

>  <SCORE.INTRA.norm>
0

>  <SCORE.RESTR>
0

>  <SCORE.RESTR.CAVITY>
0

>  <SCORE.RESTR.norm>
0

>  <SCORE.SYSTEM>
0

>  <SCORE.SYSTEM.CONST>
0

>  <SCORE.SYSTEM.DIHEDRAL>
0

>  <SCORE.SYSTEM.SOLV>
0

>  <SCORE.SYSTEM.norm>
0

>  <SCORE.heavy>
10

>  <SCORE.norm>
-1.80618

>  <RMSD>
0.709

$$$$
ligand
 OpenBabel11021811423D
libRbt.so/2013.1/901 2013/11/27
 10 11  0  0  0  0  0  0  0  0999 V2000
   11.5025    9.5047   29.5196 N   0  0  0  0  0  0  0  0  0  0  0  0
   11.3655   10.8658   29.3090 C   0  0  0  0  0  0  0  0  0  0  0  0
   11.1339   11.3731   28.0921 N   0  0  0  0  0  0  0  0  0  0  0  0
   11.0521   10.4126   27.1152 C   0  0  0  0  0  0  0  0  0  0  0  0
   11.1794    9.0508   27.2646 C   0  0  0  0  0  0  0  0  0  0  0  0
   11.4255    8.5010   28.5533 C   0  0  0  0  0  0  0  0  0  0  0  0
   11.5707    7.3230   28.9034 O   0  0  0  0  0  0  0  0  0  0  0  0
   11.0285    8.4621   26.0362 N   0  0  0  0  0  0  0  0  0  0  0  0
   10.8107    9.4567   25.1548 C   0  0  0  0  0  0  0  0  0  0  0  0
   10.8209   10.6739   25.7880 N   0  0  0  0  0  0  0  0  0  0  0  0
  1  2  1  0  0  0  0
  1  6  1  0  0  0  0
  2  3  2  0  0  0  0
  3  4  1  0  0  0  0
  4  5  2  0  0  0  0
  4 10  1  0  0  0  0
  5  6  1  0  0  0  0
  5  8  1  0  0  0  0
  6  7  2  0  0  0  0
  8  9  1  0  0  0  0
  9 10  2  0  0  0  0
M  END
>  <CHROM.1>
11.19644321,9.52139760,27.60080538,0.14914151,-1.39630554,0.44578401

>  <Name>
ligand

>  <RI>
0

>  <Rbt.Current_Directory>
/home/itssahil/PROJECTS/Mol_Feturizer/New_Systems/rnas/2EET

>  <Rbt.Executable>
rbdock ($Id: //depot/dev/client3/rdock/2013.1/src/exe/rbdock.cxx#4 $)

>  <Rbt.Library>
libRbt.so (2013.1, Build901 2013/11/27)

>  <Rbt.Parameter_File>
/export/apps/rDock/src/rDock_2013.1_src/data/scripts/dock_solv.prm

>  <Rbt.Receptor>
prm/pocket_docking_8.prm

>  <SCORE>
-18.0496

>  <SCORE.INTER>
-18.0496

>  <SCORE.INTER.CONST>
1

>  <SCORE.INTER.POLAR>
0

>  <SCORE.INTER.ROT>
0

>  <SCORE.INTER.SOLV>
4.20672

>  <SCORE.INTER.VDW>
-17.0353

>  <SCORE.INTER.norm>
-1.80496

>  <SCORE.INTRA>
0

>  <SCORE.INTRA.DIHEDRAL>
0

>  <SCORE.INTRA.DIHEDRAL.0>
0

>  <SCORE.INTRA.POLAR>
0

>  <SCORE.INTRA.POLAR.0>
0

>  <SCORE.INTRA.REPUL>
0

>  <SCORE.INTRA.REPUL.0>
0

>  <SCORE.INTRA.SOLV>
0

>  <SCORE.INTRA.SOLV.lig_0>
-4.28464

>  <SCORE.INTRA.VDW>
0

>  <SCORE.INTRA.VDW.0>
0

>  <SCORE.INTRA.norm>
0

>  <SCORE.RESTR>
0

>  <SCORE.RESTR.CAVITY>
0

>  <SCORE.RESTR.norm>
0

>  <SCORE.SYSTEM>
0

>  <SCORE.SYSTEM.CONST>
0

>  <SCORE.SYSTEM.DIHEDRAL>
0

>  <SCORE.SYSTEM.SOLV>
0

>  <SCORE.SYSTEM.norm>
0

>  <SCORE.heavy>
10

>  <SCORE.norm>
-1.80496

>  <RMSD>
0.709

$$$$
ligand
 OpenBabel11021811423D
libRbt.so/2013.1/901 2013/11/27
 10 11  0  0  0  0  0  0  0  0999 V2000
   11.5049    9.5110   29.5181 N   0  0  0  0  0  0  0  0  0  0  0  0
   11.3563   10.8705   29.3053 C   0  0  0  0  0  0  0  0  0  0  0  0
   11.1273   11.3746   28.0866 N   0  0  0  0  0  0  0  0  0  0  0  0
   11.0604   10.4125   27.1102 C   0  0  0  0  0  0  0  0  0  0  0  0
   11.1997    9.0520   27.2616 C   0  0  0  0  0  0  0  0  0  0  0  0
   11.4432    8.5058   28.5523 C   0  0  0  0  0  0  0  0  0  0  0  0
   11.5975    7.3295   28.9044 O   0  0  0  0  0  0  0  0  0  0  0  0
   11.0618    8.4608   26.0329 N   0  0  0  0  0  0  0  0  0  0  0  0
   10.8399    9.4525   25.1492 C   0  0  0  0  0  0  0  0  0  0  0  0
   10.8348   10.6703   25.7813 N   0  0  0  0  0  0  0  0  0  0  0  0
  1  2  1  0  0  0  0
  1  6  1  0  0  0  0
  2  3  2  0  0  0  0
  3  4  1  0  0  0  0
  4  5  2  0  0  0  0
  4 10  1  0  0  0  0
  5  6  1  0  0  0  0
  5  8  1  0  0  0  0
  6  7  2  0  0  0  0
  8  9  1  0  0  0  0
  9 10  2  0  0  0  0
M  END
>  <CHROM.1>
11.21026816,9.52307848,27.59747060,0.21376659,-1.39729869,0.50849337

>  <Name>
ligand

>  <RI>
0

>  <Rbt.Current_Directory>
/home/itssahil/PROJECTS/Mol_Feturizer/New_Systems/rnas/2EET

>  <Rbt.Executable>
rbdock ($Id: //depot/dev/client3/rdock/2013.1/src/exe/rbdock.cxx#4 $)

>  <Rbt.Library>
libRbt.so (2013.1, Build901 2013/11/27)

>  <Rbt.Parameter_File>
/export/apps/rDock/src/rDock_2013.1_src/data/scripts/dock_solv.prm

>  <Rbt.Receptor>
prm/pocket_docking_8.prm

>  <SCORE>
-18.0591

>  <SCORE.INTER>
-18.0591

>  <SCORE.INTER.CONST>
1

>  <SCORE.INTER.POLAR>
0

>  <SCORE.INTER.ROT>
0

>  <SCORE.INTER.SOLV>
4.17481

>  <SCORE.INTER.VDW>
-17.031

>  <SCORE.INTER.norm>
-1.80591

>  <SCORE.INTRA>
0

>  <SCORE.INTRA.DIHEDRAL>
0

>  <SCORE.INTRA.DIHEDRAL.0>
0

>  <SCORE.INTRA.POLAR>
0

>  <SCORE.INTRA.POLAR.0>
0

>  <SCORE.INTRA.REPUL>
0

>  <SCORE.INTRA.REPUL.0>
0

>  <SCORE.INTRA.SOLV>
0

>  <SCORE.INTRA.SOLV.lig_0>
-4.28464

>  <SCORE.INTRA.VDW>
0

>  <SCORE.INTRA.VDW.0>
0

>  <SCORE.INTRA.norm>
0

>  <SCORE.RESTR>
0

>  <SCORE.RESTR.CAVITY>
0

>  <SCORE.RESTR.norm>
0

>  <SCORE.SYSTEM>
0

>  <SCORE.SYSTEM.CONST>
0

>  <SCORE.SYSTEM.DIHEDRAL>
0

>  <SCORE.SYSTEM.SOLV>
0

>  <SCORE.SYSTEM.norm>
0

>  <SCORE.heavy>
10

>  <SCORE.norm>
-1.80591

>  <RMSD>
0.709

$$$$
ligand
 OpenBabel11021811423D
libRbt.so/2013.1/901 2013/11/27
 10 11  0  0  0  0  0  0  0  0999 V2000
   11.5237    9.5157   29.5134 N   0  0  0  0  0  0  0  0  0  0  0  0
   11.3739   10.8742   29.2955 C   0  0  0  0  0  0  0  0  0  0  0  0
   11.1333   11.3726   28.0767 N   0  0  0  0  0  0  0  0  0  0  0  0
   11.0563   10.4059   27.1056 C   0  0  0  0  0  0  0  0  0  0  0  0
   11.1961    9.0460   27.2622 C   0  0  0  0  0  0  0  0  0  0  0  0
   11.4519    8.5059   28.5530 C   0  0  0  0  0  0  0  0  0  0  0  0
   11.6088    7.3312   28.9093 O   0  0  0  0  0  0  0  0  0  0  0  0
   11.0458    8.4490   26.0377 N   0  0  0  0  0  0  0  0  0  0  0  0
   10.8159    9.4366   25.1515 C   0  0  0  0  0  0  0  0  0  0  0  0
   10.8178   10.6575   25.7778 N   0  0  0  0  0  0  0  0  0  0  0  0
  1  2  1  0  0  0  0
  1  6  1  0  0  0  0
  2  3  2  0  0  0  0
  3  4  1  0  0  0  0
  4  5  2  0  0  0  0
  4 10  1  0  0  0  0
  5  6  1  0  0  0  0
  5  8  1  0  0  0  0
  6  7  2  0  0  0  0
  8  9  1  0  0  0  0
  9 10  2  0  0  0  0
M  END
>  <CHROM.1>
11.21026373,9.51870229,27.59565437,0.18412366,-1.38898828,0.47450717

>  <Name>
ligand

>  <RI>
0

>  <Rbt.Current_Directory>
/home/itssahil/PROJECTS/Mol_Feturizer/New_Systems/rnas/2EET

>  <Rbt.Executable>
rbdock ($Id: //depot/dev/client3/rdock/2013.1/src/exe/rbdock.cxx#4 $)

>  <Rbt.Library>
libRbt.so (2013.1, Build901 2013/11/27)

>  <Rbt.Parameter_File>
/export/apps/rDock/src/rDock_2013.1_src/data/scripts/dock_solv.prm

>  <Rbt.Receptor>
prm/blind_docking_100.prm

>  <SCORE>
-18.069

>  <SCORE.INTER>
-18.069

>  <SCORE.INTER.CONST>
1

>  <SCORE.INTER.POLAR>
0

>  <SCORE.INTER.ROT>
0

>  <SCORE.INTER.SOLV>
4.16027

>  <SCORE.INTER.VDW>
-17.0328

>  <SCORE.INTER.norm>
-1.8069

>  <SCORE.INTRA>
0

>  <SCORE.INTRA.DIHEDRAL>
0

>  <SCORE.INTRA.DIHEDRAL.0>
0

>  <SCORE.INTRA.POLAR>
0

>  <SCORE.INTRA.POLAR.0>
0

>  <SCORE.INTRA.REPUL>
0

>  <SCORE.INTRA.REPUL.0>
0

>  <SCORE.INTRA.SOLV>
0

>  <SCORE.INTRA.SOLV.lig_0>
-4.28464

>  <SCORE.INTRA.VDW>
0

>  <SCORE.INTRA.VDW.0>
0

>  <SCORE.INTRA.norm>
0

>  <SCORE.RESTR>
0

>  <SCORE.RESTR.CAVITY>
0

>  <SCORE.RESTR.norm>
0

>  <SCORE.SYSTEM>
0

>  <SCORE.SYSTEM.CONST>
0

>  <SCORE.SYSTEM.DIHEDRAL>
0

>  <SCORE.SYSTEM.SOLV>
0

>  <SCORE.SYSTEM.norm>
0

>  <SCORE.heavy>
10

>  <SCORE.norm>
-1.8069

>  <RMSD>
0.710

$$$$
ligand
 OpenBabel11021811423D
libRbt.so/2013.1/901 2013/11/27
 10 11  0  0  0  0  0  0  0  0999 V2000
   11.5057    9.4902   29.5011 N   0  0  0  0  0  0  0  0  0  0  0  0
   11.3594   10.8506   29.2923 C   0  0  0  0  0  0  0  0  0  0  0  0
   11.1283   11.3584   28.0755 N   0  0  0  0  0  0  0  0  0  0  0  0
   11.0571   10.3991   27.0967 C   0  0  0  0  0  0  0  0  0  0  0  0
   11.1940    9.0379   27.2441 C   0  0  0  0  0  0  0  0  0  0  0  0
   11.4396    8.4877   28.5327 C   0  0  0  0  0  0  0  0  0  0  0  0
   11.5923    7.3102   28.8813 O   0  0  0  0  0  0  0  0  0  0  0  0
   11.0518    8.4503   26.0141 N   0  0  0  0  0  0  0  0  0  0  0  0
   10.8298    9.4448   25.1337 C   0  0  0  0  0  0  0  0  0  0  0  0
   10.8286   10.6609   25.7691 N   0  0  0  0  0  0  0  0  0  0  0  0
  1  2  1  0  0  0  0
  1  6  1  0  0  0  0
  2  3  2  0  0  0  0
  3  4  1  0  0  0  0
  4  5  2  0  0  0  0
  4 10  1  0  0  0  0
  5  6  1  0  0  0  0
  5  8  1  0  0  0  0
  6  7  2  0  0  0  0
  8  9  1  0  0  0  0
  9 10  2  0  0  0  0
M  END
>  <CHROM.1>
11.20632631,9.50804815,27.58118174,0.19650043,-1.39608893,0.49418087

>  <Name>
ligand

>  <RI>
0

>  <Rbt.Current_Directory>
/home/itssahil/PROJECTS/Mol_Feturizer/New_Systems/rnas/2EET

>  <Rbt.Executable>
rbdock ($Id: //depot/dev/client3/rdock/2013.1/src/exe/rbdock.cxx#4 $)

>  <Rbt.Library>
libRbt.so (2013.1, Build901 2013/11/27)

>  <Rbt.Parameter_File>
/export/apps/rDock/src/rDock_2013.1_src/data/scripts/dock_solv.prm

>  <Rbt.Receptor>
prm/blind_docking_40.prm

>  <SCORE>
-18.0646

>  <SCORE.INTER>
-18.0646

>  <SCORE.INTER.CONST>
1

>  <SCORE.INTER.POLAR>
0

>  <SCORE.INTER.ROT>
0

>  <SCORE.INTER.SOLV>
4.16753

>  <SCORE.INTER.VDW>
-17.0322

>  <SCORE.INTER.norm>
-1.80646

>  <SCORE.INTRA>
0

>  <SCORE.INTRA.DIHEDRAL>
0

>  <SCORE.INTRA.DIHEDRAL.0>
0

>  <SCORE.INTRA.POLAR>
0

>  <SCORE.INTRA.POLAR.0>
0

>  <SCORE.INTRA.REPUL>
0

>  <SCORE.INTRA.REPUL.0>
0

>  <SCORE.INTRA.SOLV>
0

>  <SCORE.INTRA.SOLV.lig_0>
-4.28464

>  <SCORE.INTRA.VDW>
0

>  <SCORE.INTRA.VDW.0>
0

>  <SCORE.INTRA.norm>
0

>  <SCORE.RESTR>
0

>  <SCORE.RESTR.CAVITY>
0

>  <SCORE.RESTR.norm>
0

>  <SCORE.SYSTEM>
0

>  <SCORE.SYSTEM.CONST>
0

>  <SCORE.SYSTEM.DIHEDRAL>
0

>  <SCORE.SYSTEM.SOLV>
0

>  <SCORE.SYSTEM.norm>
0

>  <SCORE.heavy>
10

>  <SCORE.norm>
-1.80646

>  <RMSD>
0.710

$$$$
ligand
 OpenBabel11021811423D
libRbt.so/2013.1/901 2013/11/27
 10 11  0  0  0  0  0  0  0  0999 V2000
   11.5047    9.5093   29.5181 N   0  0  0  0  0  0  0  0  0  0  0  0
   11.3596   10.8691   29.3050 C   0  0  0  0  0  0  0  0  0  0  0  0
   11.1313   11.3734   28.0863 N   0  0  0  0  0  0  0  0  0  0  0  0
   11.0616   10.4112   27.1101 C   0  0  0  0  0  0  0  0  0  0  0  0
   11.1975    9.0504   27.2619 C   0  0  0  0  0  0  0  0  0  0  0  0
   11.4401    8.5040   28.5526 C   0  0  0  0  0  0  0  0  0  0  0  0
   11.5915    7.3274   28.9050 O   0  0  0  0  0  0  0  0  0  0  0  0
   11.0576    8.4592   26.0334 N   0  0  0  0  0  0  0  0  0  0  0  0
   10.8379    9.4512   25.1495 C   0  0  0  0  0  0  0  0  0  0  0  0
   10.8361   10.6692   25.7813 N   0  0  0  0  0  0  0  0  0  0  0  0
  1  2  1  0  0  0  0
  1  6  1  0  0  0  0
  2  3  2  0  0  0  0
  3  4  1  0  0  0  0
  4  5  2  0  0  0  0
  4 10  1  0  0  0  0
  5  6  1  0  0  0  0
  5  8  1  0  0  0  0
  6  7  2  0  0  0  0
  8  9  1  0  0  0  0
  9 10  2  0  0  0  0
M  END
>  <CHROM.1>
11.20935154,9.52156447,27.59759605,0.19952680,-1.39818103,0.49418265

>  <Name>
ligand

>  <RI>
0

>  <Rbt.Current_Directory>
/home/itssahil/PROJECTS/Mol_Feturizer/New_Systems/rnas/2EET

>  <Rbt.Executable>
rbdock ($Id: //depot/dev/client3/rdock/2013.1/src/exe/rbdock.cxx#4 $)

>  <Rbt.Library>
libRbt.so (2013.1, Build901 2013/11/27)

>  <Rbt.Parameter_File>
/export/apps/rDock/src/rDock_2013.1_src/data/scripts/dock_solv.prm

>  <Rbt.Receptor>
prm/blind_docking_60.prm

>  <SCORE>
-18.0681

>  <SCORE.INTER>
-18.0681

>  <SCORE.INTER.CONST>
1

>  <SCORE.INTER.POLAR>
0

>  <SCORE.INTER.ROT>
0

>  <SCORE.INTER.SOLV>
4.1834

>  <SCORE.INTER.VDW>
-17.0399

>  <SCORE.INTER.norm>
-1.80681

>  <SCORE.INTRA>
0

>  <SCORE.INTRA.DIHEDRAL>
0

>  <SCORE.INTRA.DIHEDRAL.0>
0

>  <SCORE.INTRA.POLAR>
0

>  <SCORE.INTRA.POLAR.0>
0

>  <SCORE.INTRA.REPUL>
0

>  <SCORE.INTRA.REPUL.0>
0

>  <SCORE.INTRA.SOLV>
0

>  <SCORE.INTRA.SOLV.lig_0>
-4.28464

>  <SCORE.INTRA.VDW>
0

>  <SCORE.INTRA.VDW.0>
0

>  <SCORE.INTRA.norm>
0

>  <SCORE.RESTR>
0

>  <SCORE.RESTR.CAVITY>
0

>  <SCORE.RESTR.norm>
0

>  <SCORE.SYSTEM>
0

>  <SCORE.SYSTEM.CONST>
0

>  <SCORE.SYSTEM.DIHEDRAL>
0

>  <SCORE.SYSTEM.SOLV>
0

>  <SCORE.SYSTEM.norm>
0

>  <SCORE.heavy>
10

>  <SCORE.norm>
-1.80681

>  <RMSD>
0.710

$$$$
ligand
 OpenBabel11021811423D
libRbt.so/2013.1/901 2013/11/27
 10 11  0  0  0  0  0  0  0  0999 V2000
   11.5070    9.5117   29.5181 N   0  0  0  0  0  0  0  0  0  0  0  0
   11.3605   10.8712   29.3035 C   0  0  0  0  0  0  0  0  0  0  0  0
   11.1301   11.3739   28.0845 N   0  0  0  0  0  0  0  0  0  0  0  0
   11.0597   10.4105   27.1096 C   0  0  0  0  0  0  0  0  0  0  0  0
   11.1968    9.0500   27.2628 C   0  0  0  0  0  0  0  0  0  0  0  0
   11.4417    8.5052   28.5538 C   0  0  0  0  0  0  0  0  0  0  0  0
   11.5945    7.3292   28.9074 O   0  0  0  0  0  0  0  0  0  0  0  0
   11.0555    8.4572   26.0352 N   0  0  0  0  0  0  0  0  0  0  0  0
   10.8338    9.4480   25.1505 C   0  0  0  0  0  0  0  0  0  0  0  0
   10.8320   10.6668   25.7808 N   0  0  0  0  0  0  0  0  0  0  0  0
  1  2  1  0  0  0  0
  1  6  1  0  0  0  0
  2  3  2  0  0  0  0
  3  4  1  0  0  0  0
  4  5  2  0  0  0  0
  4 10  1  0  0  0  0
  5  6  1  0  0  0  0
  5  8  1  0  0  0  0
  6  7  2  0  0  0  0
  8  9  1  0  0  0  0
  9 10  2  0  0  0  0
M  END
>  <CHROM.1>
11.20882109,9.52152051,27.59794344,0.19936601,-1.39653614,0.49284138

>  <Name>
ligand

>  <RI>
0

>  <Rbt.Current_Directory>
/home/itssahil/PROJECTS/Mol_Feturizer/New_Systems/rnas/2EET

>  <Rbt.Executable>
rbdock ($Id: //depot/dev/client3/rdock/2013.1/src/exe/rbdock.cxx#4 $)

>  <Rbt.Library>
libRbt.so (2013.1, Build901 2013/11/27)

>  <Rbt.Parameter_File>
/export/apps/rDock/src/rDock_2013.1_src/data/scripts/dock_solv.prm

>  <Rbt.Receptor>
prm/blind_docking_80.prm

>  <SCORE>
-18.0676

>  <SCORE.INTER>
-18.0676

>  <SCORE.INTER.CONST>
1

>  <SCORE.INTER.POLAR>
0

>  <SCORE.INTER.ROT>
0

>  <SCORE.INTER.SOLV>
4.17973

>  <SCORE.INTER.VDW>
-17.0383

>  <SCORE.INTER.norm>
-1.80676

>  <SCORE.INTRA>
0

>  <SCORE.INTRA.DIHEDRAL>
0

>  <SCORE.INTRA.DIHEDRAL.0>
0

>  <SCORE.INTRA.POLAR>
0

>  <SCORE.INTRA.POLAR.0>
0

>  <SCORE.INTRA.REPUL>
0

>  <SCORE.INTRA.REPUL.0>
0

>  <SCORE.INTRA.SOLV>
0

>  <SCORE.INTRA.SOLV.lig_0>
-4.28464

>  <SCORE.INTRA.VDW>
0

>  <SCORE.INTRA.VDW.0>
0

>  <SCORE.INTRA.norm>
0

>  <SCORE.RESTR>
0

>  <SCORE.RESTR.CAVITY>
0

>  <SCORE.RESTR.norm>
0

>  <SCORE.SYSTEM>
0

>  <SCORE.SYSTEM.CONST>
0

>  <SCORE.SYSTEM.DIHEDRAL>
0

>  <SCORE.SYSTEM.SOLV>
0

>  <SCORE.SYSTEM.norm>
0

>  <SCORE.heavy>
10

>  <SCORE.norm>
-1.80676

>  <RMSD>
0.710

$$$$
ligand
 OpenBabel11021811423D
libRbt.so/2013.1/901 2013/11/27
 10 11  0  0  0  0  0  0  0  0999 V2000
   11.4794    9.4632   29.5220 N   0  0  0  0  0  0  0  0  0  0  0  0
   11.3657   10.8263   29.3109 C   0  0  0  0  0  0  0  0  0  0  0  0
   11.1483   11.3375   28.0931 N   0  0  0  0  0  0  0  0  0  0  0  0
   11.0553   10.3786   27.1156 C   0  0  0  0  0  0  0  0  0  0  0  0
   11.1596    9.0149   27.2653 C   0  0  0  0  0  0  0  0  0  0  0  0
   11.3905    8.4610   28.5550 C   0  0  0  0  0  0  0  0  0  0  0  0
   11.5147    7.2807   28.9056 O   0  0  0  0  0  0  0  0  0  0  0  0
   11.0049    8.4288   26.0361 N   0  0  0  0  0  0  0  0  0  0  0  0
   10.8076    9.4270   25.1539 C   0  0  0  0  0  0  0  0  0  0  0  0
   10.8347   10.6438   25.7874 N   0  0  0  0  0  0  0  0  0  0  0  0
  1  2  1  0  0  0  0
  1  6  1  0  0  0  0
  2  3  2  0  0  0  0
  3  4  1  0  0  0  0
  4  5  2  0  0  0  0
  4 10  1  0  0  0  0
  5  6  1  0  0  0  0
  5  8  1  0  0  0  0
  6  7  2  0  0  0  0
  8  9  1  0  0  0  0
  9 10  2  0  0  0  0
M  END
>  <CHROM.1>
11.18270334,9.48509409,27.60170358,0.07075798,-1.40715275,0.36866287

>  <Name>
ligand

>  <RI>
0

>  <Rbt.Current_Directory>
/home/itssahil/PROJECTS/Mol_Feturizer/New_Systems/rnas/2EET

>  <Rbt.Executable>
rbdock ($Id: //depot/dev/client3/rdock/2013.1/src/exe/rbdock.cxx#4 $)

>  <Rbt.Library>
libRbt.so (2013.1, Build901 2013/11/27)

>  <Rbt.Parameter_File>
/export/apps/rDock/src/rDock_2013.1_src/data/scripts/dock_solv.prm

>  <Rbt.Receptor>
prm/pocket_docking_3.prm

>  <SCORE>
-18.0266

>  <SCORE.INTER>
-18.0267

>  <SCORE.INTER.CONST>
1

>  <SCORE.INTER.POLAR>
0

>  <SCORE.INTER.ROT>
0

>  <SCORE.INTER.SOLV>
4.28675

>  <SCORE.INTER.VDW>
-17.0467

>  <SCORE.INTER.norm>
-1.80267

>  <SCORE.INTRA>
0

>  <SCORE.INTRA.DIHEDRAL>
0

>  <SCORE.INTRA.DIHEDRAL.0>
0

>  <SCORE.INTRA.POLAR>
0

>  <SCORE.INTRA.POLAR.0>
0

>  <SCORE.INTRA.REPUL>
0

>  <SCORE.INTRA.REPUL.0>
0

>  <SCORE.INTRA.SOLV>
0

>  <SCORE.INTRA.SOLV.lig_0>
-4.28464

>  <SCORE.INTRA.VDW>
0

>  <SCORE.INTRA.VDW.0>
0

>  <SCORE.INTRA.norm>
0

>  <SCORE.RESTR>
8.2135e-05

>  <SCORE.RESTR.CAVITY>
8.2135e-05

>  <SCORE.RESTR.norm>
8.2135e-06

>  <SCORE.SYSTEM>
0

>  <SCORE.SYSTEM.CONST>
0

>  <SCORE.SYSTEM.DIHEDRAL>
0

>  <SCORE.SYSTEM.SOLV>
0

>  <SCORE.SYSTEM.norm>
0

>  <SCORE.heavy>
10

>  <SCORE.norm>
-1.80266

>  <RMSD>
0.710

$$$$
ligand
 OpenBabel11021811423D
libRbt.so/2013.1/901 2013/11/27
 10 11  0  0  0  0  0  0  0  0999 V2000
   11.5043    9.5068   29.5166 N   0  0  0  0  0  0  0  0  0  0  0  0
   11.3601   10.8669   29.3041 C   0  0  0  0  0  0  0  0  0  0  0  0
   11.1318   11.3718   28.0856 N   0  0  0  0  0  0  0  0  0  0  0  0
   11.0611   10.4101   27.1091 C   0  0  0  0  0  0  0  0  0  0  0  0
   11.1959    9.0492   27.2602 C   0  0  0  0  0  0  0  0  0  0  0  0
   11.4386    8.5020   28.5506 C   0  0  0  0  0  0  0  0  0  0  0  0
   11.5891    7.3251   28.9025 O   0  0  0  0  0  0  0  0  0  0  0  0
   11.0552    8.4586   26.0315 N   0  0  0  0  0  0  0  0  0  0  0  0
   10.8359    9.4511   25.1482 C   0  0  0  0  0  0  0  0  0  0  0  0
   10.8353   10.6689   25.7804 N   0  0  0  0  0  0  0  0  0  0  0  0
  1  2  1  0  0  0  0
  1  6  1  0  0  0  0
  2  3  2  0  0  0  0
  3  4  1  0  0  0  0
  4  5  2  0  0  0  0
  4 10  1  0  0  0  0
  5  6  1  0  0  0  0
  5  8  1  0  0  0  0
  6  7  2  0  0  0  0
  8  9  1  0  0  0  0
  9 10  2  0  0  0  0
M  END
>  <CHROM.1>
11.20829247,9.52015241,27.59614045,0.19466500,-1.39826027,0.48981869

>  <Name>
ligand

>  <RI>
0

>  <Rbt.Current_Directory>
/home/itssahil/PROJECTS/Mol_Feturizer/New_Systems/rnas/2EET

>  <Rbt.Executable>
rbdock ($Id: //depot/dev/client3/rdock/2013.1/src/exe/rbdock.cxx#4 $)

>  <Rbt.Library>
libRbt.so (2013.1, Build901 2013/11/27)

>  <Rbt.Parameter_File>
/export/apps/rDock/src/rDock_2013.1_src/data/scripts/dock_solv.prm

>  <Rbt.Receptor>
prm/pocket_docking_4.prm

>  <SCORE>
-18.0708

>  <SCORE.INTER>
-18.0708

>  <SCORE.INTER.CONST>
1

>  <SCORE.INTER.POLAR>
0

>  <SCORE.INTER.ROT>
0

>  <SCORE.INTER.SOLV>
4.18485

>  <SCORE.INTER.VDW>
-17.0421

>  <SCORE.INTER.norm>
-1.80708

>  <SCORE.INTRA>
0

>  <SCORE.INTRA.DIHEDRAL>
0

>  <SCORE.INTRA.DIHEDRAL.0>
0

>  <SCORE.INTRA.POLAR>
0

>  <SCORE.INTRA.POLAR.0>
0

>  <SCORE.INTRA.REPUL>
0

>  <SCORE.INTRA.REPUL.0>
0

>  <SCORE.INTRA.SOLV>
0

>  <SCORE.INTRA.SOLV.lig_0>
-4.28464

>  <SCORE.INTRA.VDW>
0

>  <SCORE.INTRA.VDW.0>
0

>  <SCORE.INTRA.norm>
0

>  <SCORE.RESTR>
0

>  <SCORE.RESTR.CAVITY>
0

>  <SCORE.RESTR.norm>
0

>  <SCORE.SYSTEM>
0

>  <SCORE.SYSTEM.CONST>
0

>  <SCORE.SYSTEM.DIHEDRAL>
0

>  <SCORE.SYSTEM.SOLV>
0

>  <SCORE.SYSTEM.norm>
0

>  <SCORE.heavy>
10

>  <SCORE.norm>
-1.80708

>  <RMSD>
0.710

$$$$
ligand
 OpenBabel11021811423D
libRbt.so/2013.1/901 2013/11/27
 10 11  0  0  0  0  0  0  0  0999 V2000
   11.5003    9.4802   29.4878 N   0  0  0  0  0  0  0  0  0  0  0  0
   11.3677   10.8444   29.2958 C   0  0  0  0  0  0  0  0  0  0  0  0
   11.1345   11.3689   28.0865 N   0  0  0  0  0  0  0  0  0  0  0  0
   11.0464   10.4218   27.0971 C   0  0  0  0  0  0  0  0  0  0  0  0
   11.1691    9.0577   27.2279 C   0  0  0  0  0  0  0  0  0  0  0  0
   11.4168    8.4898   28.5084 C   0  0  0  0  0  0  0  0  0  0  0  0
   11.5587    7.3067   28.8423 O   0  0  0  0  0  0  0  0  0  0  0  0
   11.0125    8.4860   25.9921 N   0  0  0  0  0  0  0  0  0  0  0  0
   10.7959    9.4931   25.1248 C   0  0  0  0  0  0  0  0  0  0  0  0
   10.8123   10.7017   25.7742 N   0  0  0  0  0  0  0  0  0  0  0  0
  1  2  1  0  0  0  0
  1  6  1  0  0  0  0
  2  3  2  0  0  0  0
  3  4  1  0  0  0  0
  4  5  2  0  0  0  0
  4 10  1  0  0  0  0
  5  6  1  0  0  0  0
  5  8  1  0  0  0  0
  6  7  2  0  0  0  0
  8  9  1  0  0  0  0
  9 10  2  0  0  0  0
M  END
>  <CHROM.1>
11.18880462,9.52365523,27.57029885,0.12305220,-1.39525252,0.43346723

>  <Name>
ligand

>  <RI>
0

>  <Rbt.Current_Directory>
/home/itssahil/PROJECTS/Mol_Feturizer/New_Systems/rnas/2EET

>  <Rbt.Executable>
rbdock ($Id: //depot/dev/client3/rdock/2013.1/src/exe/rbdock.cxx#4 $)

>  <Rbt.Library>
libRbt.so (2013.1, Build901 2013/11/27)

>  <Rbt.Parameter_File>
/export/apps/rDock/src/rDock_2013.1_src/data/scripts/dock_solv.prm

>  <Rbt.Receptor>
prm/pocket_docking_6.prm

>  <SCORE>
-18.0523

>  <SCORE.INTER>
-18.0523

>  <SCORE.INTER.CONST>
1

>  <SCORE.INTER.POLAR>
0

>  <SCORE.INTER.ROT>
0

>  <SCORE.INTER.SOLV>
4.1871

>  <SCORE.INTER.VDW>
-17.0306

>  <SCORE.INTER.norm>
-1.80523

>  <SCORE.INTRA>
0

>  <SCORE.INTRA.DIHEDRAL>
0

>  <SCORE.INTRA.DIHEDRAL.0>
0

>  <SCORE.INTRA.POLAR>
0

>  <SCORE.INTRA.POLAR.0>
0

>  <SCORE.INTRA.REPUL>
0

>  <SCORE.INTRA.REPUL.0>
0

>  <SCORE.INTRA.SOLV>
0

>  <SCORE.INTRA.SOLV.lig_0>
-4.28464

>  <SCORE.INTRA.VDW>
0

>  <SCORE.INTRA.VDW.0>
0

>  <SCORE.INTRA.norm>
0

>  <SCORE.RESTR>
0

>  <SCORE.RESTR.CAVITY>
0

>  <SCORE.RESTR.norm>
0

>  <SCORE.SYSTEM>
0

>  <SCORE.SYSTEM.CONST>
0

>  <SCORE.SYSTEM.DIHEDRAL>
0

>  <SCORE.SYSTEM.SOLV>
0

>  <SCORE.SYSTEM.norm>
0

>  <SCORE.heavy>
10

>  <SCORE.norm>
-1.80523

>  <RMSD>
0.710

$$$$
ligand
 OpenBabel11021811423D
libRbt.so/2013.1/901 2013/11/27
 10 11  0  0  0  0  0  0  0  0999 V2000
   11.4988    9.4833   29.4765 N   0  0  0  0  0  0  0  0  0  0  0  0
   11.3597   10.8486   29.2963 C   0  0  0  0  0  0  0  0  0  0  0  0
   11.1304   11.3829   28.0907 N   0  0  0  0  0  0  0  0  0  0  0  0
   11.0531   10.4447   27.0921 C   0  0  0  0  0  0  0  0  0  0  0  0
   11.1826    9.0800   27.2109 C   0  0  0  0  0  0  0  0  0  0  0  0
   11.4264    8.5017   28.4874 C   0  0  0  0  0  0  0  0  0  0  0  0
   11.5730    7.3163   28.8112 O   0  0  0  0  0  0  0  0  0  0  0  0
   11.0362    8.5190   25.9691 N   0  0  0  0  0  0  0  0  0  0  0  0
   10.8187    9.5329   25.1098 C   0  0  0  0  0  0  0  0  0  0  0  0
   10.8249   10.7355   25.7705 N   0  0  0  0  0  0  0  0  0  0  0  0
  1  2  1  0  0  0  0
  1  6  1  0  0  0  0
  2  3  2  0  0  0  0
  3  4  1  0  0  0  0
  4  5  2  0  0  0  0
  4 10  1  0  0  0  0
  5  6  1  0  0  0  0
  5  8  1  0  0  0  0
  6  7  2  0  0  0  0
  8  9  1  0  0  0  0
  9 10  2  0  0  0  0
M  END
>  <CHROM.1>
11.19782622,9.54291752,27.55771553,0.16605677,-1.39782833,0.48508327

>  <Name>
ligand

>  <RI>
0

>  <Rbt.Current_Directory>
/home/itssahil/PROJECTS/Mol_Feturizer/New_Systems/rnas/2EET

>  <Rbt.Executable>
rbdock ($Id: //depot/dev/client3/rdock/2013.1/src/exe/rbdock.cxx#4 $)

>  <Rbt.Library>
libRbt.so (2013.1, Build901 2013/11/27)

>  <Rbt.Parameter_File>
/export/apps/rDock/src/rDock_2013.1_src/data/scripts/dock_solv.prm

>  <Rbt.Receptor>
prm/pocket_docking_6.prm

>  <SCORE>
-18.0485

>  <SCORE.INTER>
-18.0485

>  <SCORE.INTER.CONST>
1

>  <SCORE.INTER.POLAR>
0

>  <SCORE.INTER.ROT>
0

>  <SCORE.INTER.SOLV>
4.15273

>  <SCORE.INTER.VDW>
-17.0166

>  <SCORE.INTER.norm>
-1.80485

>  <SCORE.INTRA>
0

>  <SCORE.INTRA.DIHEDRAL>
0

>  <SCORE.INTRA.DIHEDRAL.0>
0

>  <SCORE.INTRA.POLAR>
0

>  <SCORE.INTRA.POLAR.0>
0

>  <SCORE.INTRA.REPUL>
0

>  <SCORE.INTRA.REPUL.0>
0

>  <SCORE.INTRA.SOLV>
0

>  <SCORE.INTRA.SOLV.lig_0>
-4.28464

>  <SCORE.INTRA.VDW>
0

>  <SCORE.INTRA.VDW.0>
0

>  <SCORE.INTRA.norm>
0

>  <SCORE.RESTR>
0

>  <SCORE.RESTR.CAVITY>
0

>  <SCORE.RESTR.norm>
0

>  <SCORE.SYSTEM>
0

>  <SCORE.SYSTEM.CONST>
0

>  <SCORE.SYSTEM.DIHEDRAL>
0

>  <SCORE.SYSTEM.SOLV>
0

>  <SCORE.SYSTEM.norm>
0

>  <SCORE.heavy>
10

>  <SCORE.norm>
-1.80485

>  <RMSD>
0.710

$$$$
ligand
 OpenBabel11021811423D
libRbt.so/2013.1/901 2013/11/27
 10 11  0  0  0  0  0  0  0  0999 V2000
   11.5020    9.5104   29.5196 N   0  0  0  0  0  0  0  0  0  0  0  0
   11.3570   10.8702   29.3059 C   0  0  0  0  0  0  0  0  0  0  0  0
   11.1322   11.3742   28.0864 N   0  0  0  0  0  0  0  0  0  0  0  0
   11.0658   10.4119   27.1102 C   0  0  0  0  0  0  0  0  0  0  0  0
   11.2017    9.0512   27.2625 C   0  0  0  0  0  0  0  0  0  0  0  0
   11.4406    8.5050   28.5540 C   0  0  0  0  0  0  0  0  0  0  0  0
   11.5913    7.3285   28.9070 O   0  0  0  0  0  0  0  0  0  0  0  0
   11.0656    8.4598   26.0337 N   0  0  0  0  0  0  0  0  0  0  0  0
   10.8483    9.4516   25.1490 C   0  0  0  0  0  0  0  0  0  0  0  0
   10.8442   10.6697   25.7806 N   0  0  0  0  0  0  0  0  0  0  0  0
  1  2  1  0  0  0  0
  1  6  1  0  0  0  0
  2  3  2  0  0  0  0
  3  4  1  0  0  0  0
  4  5  2  0  0  0  0
  4 10  1  0  0  0  0
  5  6  1  0  0  0  0
  5  8  1  0  0  0  0
  6  7  2  0  0  0  0
  8  9  1  0  0  0  0
  9 10  2  0  0  0  0
M  END
>  <CHROM.1>
11.21237601,9.52237080,27.59819651,0.20968281,-1.40065759,0.50406848

>  <Name>
ligand

>  <RI>
0

>  <Rbt.Current_Directory>
/home/itssahil/PROJECTS/Mol_Feturizer/New_Systems/rnas/2EET

>  <Rbt.Executable>
rbdock ($Id: //depot/dev/client3/rdock/2013.1/src/exe/rbdock.cxx#4 $)

>  <Rbt.Library>
libRbt.so (2013.1, Build901 2013/11/27)

>  <Rbt.Parameter_File>
/export/apps/rDock/src/rDock_2013.1_src/data/scripts/dock_solv.prm

>  <Rbt.Receptor>
prm/pocket_docking_6.prm

>  <SCORE>
-18.0606

>  <SCORE.INTER>
-18.0606

>  <SCORE.INTER.CONST>
1

>  <SCORE.INTER.POLAR>
0

>  <SCORE.INTER.ROT>
0

>  <SCORE.INTER.SOLV>
4.1862

>  <SCORE.INTER.VDW>
-17.0358

>  <SCORE.INTER.norm>
-1.80606

>  <SCORE.INTRA>
0

>  <SCORE.INTRA.DIHEDRAL>
0

>  <SCORE.INTRA.DIHEDRAL.0>
0

>  <SCORE.INTRA.POLAR>
0

>  <SCORE.INTRA.POLAR.0>
0

>  <SCORE.INTRA.REPUL>
0

>  <SCORE.INTRA.REPUL.0>
0

>  <SCORE.INTRA.SOLV>
0

>  <SCORE.INTRA.SOLV.lig_0>
-4.28464

>  <SCORE.INTRA.VDW>
0

>  <SCORE.INTRA.VDW.0>
0

>  <SCORE.INTRA.norm>
0

>  <SCORE.RESTR>
0

>  <SCORE.RESTR.CAVITY>
0

>  <SCORE.RESTR.norm>
0

>  <SCORE.SYSTEM>
0

>  <SCORE.SYSTEM.CONST>
0

>  <SCORE.SYSTEM.DIHEDRAL>
0

>  <SCORE.SYSTEM.SOLV>
0

>  <SCORE.SYSTEM.norm>
0

>  <SCORE.heavy>
10

>  <SCORE.norm>
-1.80606

>  <RMSD>
0.710

$$$$
ligand
 OpenBabel11021811423D
libRbt.so/2013.1/901 2013/11/27
 10 11  0  0  0  0  0  0  0  0999 V2000
   11.4931    9.4782   29.4883 N   0  0  0  0  0  0  0  0  0  0  0  0
   11.3614   10.8428   29.2981 C   0  0  0  0  0  0  0  0  0  0  0  0
   11.1350   11.3694   28.0885 N   0  0  0  0  0  0  0  0  0  0  0  0
   11.0527   10.4243   27.0968 C   0  0  0  0  0  0  0  0  0  0  0  0
   11.1749    9.0598   27.2257 C   0  0  0  0  0  0  0  0  0  0  0  0
   11.4155    8.4897   28.5065 C   0  0  0  0  0  0  0  0  0  0  0  0
   11.5557    7.3059   28.8391 O   0  0  0  0  0  0  0  0  0  0  0  0
   11.0255    8.4904   25.9881 N   0  0  0  0  0  0  0  0  0  0  0  0
   10.8136    9.4991   25.1213 C   0  0  0  0  0  0  0  0  0  0  0  0
   10.8261   10.7065   25.7731 N   0  0  0  0  0  0  0  0  0  0  0  0
  1  2  1  0  0  0  0
  1  6  1  0  0  0  0
  2  3  2  0  0  0  0
  3  4  1  0  0  0  0
  4  5  2  0  0  0  0
  4 10  1  0  0  0  0
  5  6  1  0  0  0  0
  5  8  1  0  0  0  0
  6  7  2  0  0  0  0
  8  9  1  0  0  0  0
  9 10  2  0  0  0  0
M  END
>  <CHROM.1>
11.19258030,9.52521107,27.56913830,0.13836328,-1.40031884,0.45042223

>  <Name>
ligand

>  <RI>
0

>  <Rbt.Current_Directory>
/home/itssahil/PROJECTS/Mol_Feturizer/New_Systems/rnas/2EET

>  <Rbt.Executable>
rbdock ($Id: //depot/dev/client3/rdock/2013.1/src/exe/rbdock.cxx#4 $)

>  <Rbt.Library>
libRbt.so (2013.1, Build901 2013/11/27)

>  <Rbt.Parameter_File>
/export/apps/rDock/src/rDock_2013.1_src/data/scripts/dock_solv.prm

>  <Rbt.Receptor>
prm/pocket_docking_7.prm

>  <SCORE>
-18.0506

>  <SCORE.INTER>
-18.0506

>  <SCORE.INTER.CONST>
1

>  <SCORE.INTER.POLAR>
0

>  <SCORE.INTER.ROT>
0

>  <SCORE.INTER.SOLV>
4.19294

>  <SCORE.INTER.VDW>
-17.0313

>  <SCORE.INTER.norm>
-1.80506

>  <SCORE.INTRA>
0

>  <SCORE.INTRA.DIHEDRAL>
0

>  <SCORE.INTRA.DIHEDRAL.0>
0

>  <SCORE.INTRA.POLAR>
0

>  <SCORE.INTRA.POLAR.0>
0

>  <SCORE.INTRA.REPUL>
0

>  <SCORE.INTRA.REPUL.0>
0

>  <SCORE.INTRA.SOLV>
0

>  <SCORE.INTRA.SOLV.lig_0>
-4.28464

>  <SCORE.INTRA.VDW>
0

>  <SCORE.INTRA.VDW.0>
0

>  <SCORE.INTRA.norm>
0

>  <SCORE.RESTR>
0

>  <SCORE.RESTR.CAVITY>
0

>  <SCORE.RESTR.norm>
0

>  <SCORE.SYSTEM>
0

>  <SCORE.SYSTEM.CONST>
0

>  <SCORE.SYSTEM.DIHEDRAL>
0

>  <SCORE.SYSTEM.SOLV>
0

>  <SCORE.SYSTEM.norm>
0

>  <SCORE.heavy>
10

>  <SCORE.norm>
-1.80506

>  <RMSD>
0.710

$$$$
ligand
 OpenBabel11021811423D
libRbt.so/2013.1/901 2013/11/27
 10 11  0  0  0  0  0  0  0  0999 V2000
   11.5044    9.5109   29.5183 N   0  0  0  0  0  0  0  0  0  0  0  0
   11.3557   10.8701   29.3037 C   0  0  0  0  0  0  0  0  0  0  0  0
   11.1250   11.3725   28.0847 N   0  0  0  0  0  0  0  0  0  0  0  0
   11.0567   10.4090   27.1097 C   0  0  0  0  0  0  0  0  0  0  0  0
   11.1959    9.0487   27.2628 C   0  0  0  0  0  0  0  0  0  0  0  0
   11.4412    8.5043   28.5539 C   0  0  0  0  0  0  0  0  0  0  0  0
   11.5957    7.3285   28.9075 O   0  0  0  0  0  0  0  0  0  0  0  0
   11.0562    8.4558   26.0352 N   0  0  0  0  0  0  0  0  0  0  0  0
   10.8332    9.4463   25.1504 C   0  0  0  0  0  0  0  0  0  0  0  0
   10.8291   10.6650   25.7808 N   0  0  0  0  0  0  0  0  0  0  0  0
  1  2  1  0  0  0  0
  1  6  1  0  0  0  0
  2  3  2  0  0  0  0
  3  4  1  0  0  0  0
  4  5  2  0  0  0  0
  4 10  1  0  0  0  0
  5  6  1  0  0  0  0
  5  8  1  0  0  0  0
  6  7  2  0  0  0  0
  8  9  1  0  0  0  0
  9 10  2  0  0  0  0
M  END
>  <CHROM.1>
11.20702186,9.52027813,27.59802379,0.20889694,-1.39613820,0.50228224

>  <Name>
ligand

>  <RI>
0

>  <Rbt.Current_Directory>
/home/itssahil/PROJECTS/Mol_Feturizer/New_Systems/rnas/2EET

>  <Rbt.Executable>
rbdock ($Id: //depot/dev/client3/rdock/2013.1/src/exe/rbdock.cxx#4 $)

>  <Rbt.Library>
libRbt.so (2013.1, Build901 2013/11/27)

>  <Rbt.Parameter_File>
/export/apps/rDock/src/rDock_2013.1_src/data/scripts/dock_solv.prm

>  <Rbt.Receptor>
prm/pocket_docking_7.prm

>  <SCORE>
-18.0626

>  <SCORE.INTER>
-18.0626

>  <SCORE.INTER.CONST>
1

>  <SCORE.INTER.POLAR>
0

>  <SCORE.INTER.ROT>
0

>  <SCORE.INTER.SOLV>
4.17715

>  <SCORE.INTER.VDW>
-17.0341

>  <SCORE.INTER.norm>
-1.80626

>  <SCORE.INTRA>
0

>  <SCORE.INTRA.DIHEDRAL>
0

>  <SCORE.INTRA.DIHEDRAL.0>
0

>  <SCORE.INTRA.POLAR>
0

>  <SCORE.INTRA.POLAR.0>
0

>  <SCORE.INTRA.REPUL>
0

>  <SCORE.INTRA.REPUL.0>
0

>  <SCORE.INTRA.SOLV>
0

>  <SCORE.INTRA.SOLV.lig_0>
-4.28464

>  <SCORE.INTRA.VDW>
0

>  <SCORE.INTRA.VDW.0>
0

>  <SCORE.INTRA.norm>
0

>  <SCORE.RESTR>
0

>  <SCORE.RESTR.CAVITY>
0

>  <SCORE.RESTR.norm>
0

>  <SCORE.SYSTEM>
0

>  <SCORE.SYSTEM.CONST>
0

>  <SCORE.SYSTEM.DIHEDRAL>
0

>  <SCORE.SYSTEM.SOLV>
0

>  <SCORE.SYSTEM.norm>
0

>  <SCORE.heavy>
10

>  <SCORE.norm>
-1.80626

>  <RMSD>
0.710

$$$$
ligand
 OpenBabel11021811423D
libRbt.so/2013.1/901 2013/11/27
 10 11  0  0  0  0  0  0  0  0999 V2000
   11.5002    9.5083   29.5195 N   0  0  0  0  0  0  0  0  0  0  0  0
   11.3568   10.8684   29.3069 C   0  0  0  0  0  0  0  0  0  0  0  0
   11.1317   11.3737   28.0881 N   0  0  0  0  0  0  0  0  0  0  0  0
   11.0631   10.4122   27.1111 C   0  0  0  0  0  0  0  0  0  0  0  0
   11.1973    9.0512   27.2623 C   0  0  0  0  0  0  0  0  0  0  0  0
   11.4366    8.5037   28.5532 C   0  0  0  0  0  0  0  0  0  0  0  0
   11.5860    7.3267   28.9052 O   0  0  0  0  0  0  0  0  0  0  0  0
   11.0594    8.4609   26.0331 N   0  0  0  0  0  0  0  0  0  0  0  0
   10.8426    9.4537   25.1495 C   0  0  0  0  0  0  0  0  0  0  0  0
   10.8407   10.6713   25.7820 N   0  0  0  0  0  0  0  0  0  0  0  0
  1  2  1  0  0  0  0
  1  6  1  0  0  0  0
  2  3  2  0  0  0  0
  3  4  1  0  0  0  0
  4  5  2  0  0  0  0
  4 10  1  0  0  0  0
  5  6  1  0  0  0  0
  5  8  1  0  0  0  0
  6  7  2  0  0  0  0
  8  9  1  0  0  0  0
  9 10  2  0  0  0  0
M  END
>  <CHROM.1>
11.20889967,9.52210027,27.59836132,0.20026177,-1.40055368,0.49554702

>  <Name>
ligand

>  <RI>
0

>  <Rbt.Current_Directory>
/home/itssahil/PROJECTS/Mol_Feturizer/New_Systems/rnas/2EET

>  <Rbt.Executable>
rbdock ($Id: //depot/dev/client3/rdock/2013.1/src/exe/rbdock.cxx#4 $)

>  <Rbt.Library>
libRbt.so (2013.1, Build901 2013/11/27)

>  <Rbt.Parameter_File>
/export/apps/rDock/src/rDock_2013.1_src/data/scripts/dock_solv.prm

>  <Rbt.Receptor>
prm/pocket_docking_8.prm

>  <SCORE>
-18.0675

>  <SCORE.INTER>
-18.0675

>  <SCORE.INTER.CONST>
1

>  <SCORE.INTER.POLAR>
0

>  <SCORE.INTER.ROT>
0

>  <SCORE.INTER.SOLV>
4.19127

>  <SCORE.INTER.VDW>
-17.0421

>  <SCORE.INTER.norm>
-1.80675

>  <SCORE.INTRA>
0

>  <SCORE.INTRA.DIHEDRAL>
0

>  <SCORE.INTRA.DIHEDRAL.0>
0

>  <SCORE.INTRA.POLAR>
0

>  <SCORE.INTRA.POLAR.0>
0

>  <SCORE.INTRA.REPUL>
0

>  <SCORE.INTRA.REPUL.0>
0

>  <SCORE.INTRA.SOLV>
0

>  <SCORE.INTRA.SOLV.lig_0>
-4.28464

>  <SCORE.INTRA.VDW>
0

>  <SCORE.INTRA.VDW.0>
0

>  <SCORE.INTRA.norm>
0

>  <SCORE.RESTR>
0

>  <SCORE.RESTR.CAVITY>
0

>  <SCORE.RESTR.norm>
0

>  <SCORE.SYSTEM>
0

>  <SCORE.SYSTEM.CONST>
0

>  <SCORE.SYSTEM.DIHEDRAL>
0

>  <SCORE.SYSTEM.SOLV>
0

>  <SCORE.SYSTEM.norm>
0

>  <SCORE.heavy>
10

>  <SCORE.norm>
-1.80675

>  <RMSD>
0.710

$$$$
ligand
 OpenBabel11021811423D
libRbt.so/2013.1/901 2013/11/27
 10 11  0  0  0  0  0  0  0  0999 V2000
   11.5016    9.5092   29.5194 N   0  0  0  0  0  0  0  0  0  0  0  0
   11.3576   10.8692   29.3060 C   0  0  0  0  0  0  0  0  0  0  0  0
   11.1307   11.3735   28.0870 N   0  0  0  0  0  0  0  0  0  0  0  0
   11.0610   10.4112   27.1109 C   0  0  0  0  0  0  0  0  0  0  0  0
   11.1957    9.0504   27.2629 C   0  0  0  0  0  0  0  0  0  0  0  0
   11.4369    8.5039   28.5539 C   0  0  0  0  0  0  0  0  0  0  0  0
   11.5872    7.3272   28.9066 O   0  0  0  0  0  0  0  0  0  0  0  0
   11.0563    8.4591   26.0344 N   0  0  0  0  0  0  0  0  0  0  0  0
   10.8380    9.4512   25.1503 C   0  0  0  0  0  0  0  0  0  0  0  0
   10.8367   10.6693   25.7819 N   0  0  0  0  0  0  0  0  0  0  0  0
  1  2  1  0  0  0  0
  1  6  1  0  0  0  0
  2  3  2  0  0  0  0
  3  4  1  0  0  0  0
  4  5  2  0  0  0  0
  4 10  1  0  0  0  0
  5  6  1  0  0  0  0
  5  8  1  0  0  0  0
  6  7  2  0  0  0  0
  8  9  1  0  0  0  0
  9 10  2  0  0  0  0
M  END
>  <CHROM.1>
11.20770298,9.52151173,27.59863976,0.19772217,-1.39921560,0.49228664

>  <Name>
ligand

>  <RI>
0

>  <Rbt.Current_Directory>
/home/itssahil/PROJECTS/Mol_Feturizer/New_Systems/rnas/2EET

>  <Rbt.Executable>
rbdock ($Id: //depot/dev/client3/rdock/2013.1/src/exe/rbdock.cxx#4 $)

>  <Rbt.Library>
libRbt.so (2013.1, Build901 2013/11/27)

>  <Rbt.Parameter_File>
/export/apps/rDock/src/rDock_2013.1_src/data/scripts/dock_solv.prm

>  <Rbt.Receptor>
prm/pocket_docking_8.prm

>  <SCORE>
-18.0694

>  <SCORE.INTER>
-18.0694

>  <SCORE.INTER.CONST>
1

>  <SCORE.INTER.POLAR>
0

>  <SCORE.INTER.ROT>
0

>  <SCORE.INTER.SOLV>
4.1896

>  <SCORE.INTER.VDW>
-17.0428

>  <SCORE.INTER.norm>
-1.80694

>  <SCORE.INTRA>
0

>  <SCORE.INTRA.DIHEDRAL>
0

>  <SCORE.INTRA.DIHEDRAL.0>
0

>  <SCORE.INTRA.POLAR>
0

>  <SCORE.INTRA.POLAR.0>
0

>  <SCORE.INTRA.REPUL>
0

>  <SCORE.INTRA.REPUL.0>
0

>  <SCORE.INTRA.SOLV>
0

>  <SCORE.INTRA.SOLV.lig_0>
-4.28464

>  <SCORE.INTRA.VDW>
0

>  <SCORE.INTRA.VDW.0>
0

>  <SCORE.INTRA.norm>
0

>  <SCORE.RESTR>
0

>  <SCORE.RESTR.CAVITY>
0

>  <SCORE.RESTR.norm>
0

>  <SCORE.SYSTEM>
0

>  <SCORE.SYSTEM.CONST>
0

>  <SCORE.SYSTEM.DIHEDRAL>
0

>  <SCORE.SYSTEM.SOLV>
0

>  <SCORE.SYSTEM.norm>
0

>  <SCORE.heavy>
10

>  <SCORE.norm>
-1.80694

>  <RMSD>
0.710

$$$$
ligand
 OpenBabel11021811423D
libRbt.so/2013.1/901 2013/11/27
 10 11  0  0  0  0  0  0  0  0999 V2000
   11.5022    9.5085   29.5188 N   0  0  0  0  0  0  0  0  0  0  0  0
   11.3581   10.8685   29.3058 C   0  0  0  0  0  0  0  0  0  0  0  0
   11.1311   11.3731   28.0870 N   0  0  0  0  0  0  0  0  0  0  0  0
   11.0615   10.4111   27.1106 C   0  0  0  0  0  0  0  0  0  0  0  0
   11.1963    9.0503   27.2622 C   0  0  0  0  0  0  0  0  0  0  0  0
   11.4375    8.5034   28.5531 C   0  0  0  0  0  0  0  0  0  0  0  0
   11.5878    7.3267   28.9054 O   0  0  0  0  0  0  0  0  0  0  0  0
   11.0568    8.4593   26.0336 N   0  0  0  0  0  0  0  0  0  0  0  0
   10.8385    9.4516   25.1497 C   0  0  0  0  0  0  0  0  0  0  0  0
   10.8371   10.6696   25.7816 N   0  0  0  0  0  0  0  0  0  0  0  0
  1  2  1  0  0  0  0
  1  6  1  0  0  0  0
  2  3  2  0  0  0  0
  3  4  1  0  0  0  0
  4  5  2  0  0  0  0
  4 10  1  0  0  0  0
  5  6  1  0  0  0  0
  5  8  1  0  0  0  0
  6  7  2  0  0  0  0
  8  9  1  0  0  0  0
  9 10  2  0  0  0  0
M  END
>  <CHROM.1>
11.20822680,9.52132576,27.59806078,0.19791375,-1.39918042,0.49275048

>  <Name>
ligand

>  <RI>
0

>  <Rbt.Current_Directory>
/home/itssahil/PROJECTS/Mol_Feturizer/New_Systems/rnas/2EET

>  <Rbt.Executable>
rbdock ($Id: //depot/dev/client3/rdock/2013.1/src/exe/rbdock.cxx#4 $)

>  <Rbt.Library>
libRbt.so (2013.1, Build901 2013/11/27)

>  <Rbt.Parameter_File>
/export/apps/rDock/src/rDock_2013.1_src/data/scripts/dock_solv.prm

>  <Rbt.Receptor>
prm/pocket_docking_8.prm

>  <SCORE>
-18.0692

>  <SCORE.INTER>
-18.0692

>  <SCORE.INTER.CONST>
1

>  <SCORE.INTER.POLAR>
0

>  <SCORE.INTER.ROT>
0

>  <SCORE.INTER.SOLV>
4.18835

>  <SCORE.INTER.VDW>
-17.0423

>  <SCORE.INTER.norm>
-1.80692

>  <SCORE.INTRA>
0

>  <SCORE.INTRA.DIHEDRAL>
0

>  <SCORE.INTRA.DIHEDRAL.0>
0

>  <SCORE.INTRA.POLAR>
0

>  <SCORE.INTRA.POLAR.0>
0

>  <SCORE.INTRA.REPUL>
0

>  <SCORE.INTRA.REPUL.0>
0

>  <SCORE.INTRA.SOLV>
0

>  <SCORE.INTRA.SOLV.lig_0>
-4.28464

>  <SCORE.INTRA.VDW>
0

>  <SCORE.INTRA.VDW.0>
0

>  <SCORE.INTRA.norm>
0

>  <SCORE.RESTR>
0

>  <SCORE.RESTR.CAVITY>
0

>  <SCORE.RESTR.norm>
0

>  <SCORE.SYSTEM>
0

>  <SCORE.SYSTEM.CONST>
0

>  <SCORE.SYSTEM.DIHEDRAL>
0

>  <SCORE.SYSTEM.SOLV>
0

>  <SCORE.SYSTEM.norm>
0

>  <SCORE.heavy>
10

>  <SCORE.norm>
-1.80692

>  <RMSD>
0.710

$$$$
ligand
 OpenBabel11021811423D
libRbt.so/2013.1/901 2013/11/27
 10 11  0  0  0  0  0  0  0  0999 V2000
   11.5007    9.5086   29.5183 N   0  0  0  0  0  0  0  0  0  0  0  0
   11.3574   10.8685   29.3044 C   0  0  0  0  0  0  0  0  0  0  0  0
   11.1303   11.3725   28.0853 N   0  0  0  0  0  0  0  0  0  0  0  0
   11.0596   10.4099   27.1096 C   0  0  0  0  0  0  0  0  0  0  0  0
   11.1936    9.0490   27.2621 C   0  0  0  0  0  0  0  0  0  0  0  0
   11.4350    8.5029   28.5532 C   0  0  0  0  0  0  0  0  0  0  0  0
   11.5846    7.3262   28.9062 O   0  0  0  0  0  0  0  0  0  0  0  0
   11.0533    8.4574   26.0338 N   0  0  0  0  0  0  0  0  0  0  0  0
   10.8353    9.4493   25.1494 C   0  0  0  0  0  0  0  0  0  0  0  0
   10.8349   10.6676   25.7806 N   0  0  0  0  0  0  0  0  0  0  0  0
  1  2  1  0  0  0  0
  1  6  1  0  0  0  0
  2  3  2  0  0  0  0
  3  4  1  0  0  0  0
  4  5  2  0  0  0  0
  4 10  1  0  0  0  0
  5  6  1  0  0  0  0
  5  8  1  0  0  0  0
  6  7  2  0  0  0  0
  8  9  1  0  0  0  0
  9 10  2  0  0  0  0
M  END
>  <CHROM.1>
11.20598291,9.52029730,27.59759533,0.19340240,-1.39914800,0.48765575

>  <Name>
ligand

>  <RI>
0

>  <Rbt.Current_Directory>
/home/itssahil/PROJECTS/Mol_Feturizer/New_Systems/rnas/2EET

>  <Rbt.Executable>
rbdock ($Id: //depot/dev/client3/rdock/2013.1/src/exe/rbdock.cxx#4 $)

>  <Rbt.Library>
libRbt.so (2013.1, Build901 2013/11/27)

>  <Rbt.Parameter_File>
/export/apps/rDock/src/rDock_2013.1_src/data/scripts/dock_solv.prm

>  <Rbt.Receptor>
prm/blind_docking_40.prm

>  <SCORE>
-18.0711

>  <SCORE.INTER>
-18.0711

>  <SCORE.INTER.CONST>
1

>  <SCORE.INTER.POLAR>
0

>  <SCORE.INTER.ROT>
0

>  <SCORE.INTER.SOLV>
4.1919

>  <SCORE.INTER.VDW>
-17.0447

>  <SCORE.INTER.norm>
-1.80711

>  <SCORE.INTRA>
0

>  <SCORE.INTRA.DIHEDRAL>
0

>  <SCORE.INTRA.DIHEDRAL.0>
0

>  <SCORE.INTRA.POLAR>
0

>  <SCORE.INTRA.POLAR.0>
0

>  <SCORE.INTRA.REPUL>
0

>  <SCORE.INTRA.REPUL.0>
0

>  <SCORE.INTRA.SOLV>
0

>  <SCORE.INTRA.SOLV.lig_0>
-4.28464

>  <SCORE.INTRA.VDW>
0

>  <SCORE.INTRA.VDW.0>
0

>  <SCORE.INTRA.norm>
0

>  <SCORE.RESTR>
0

>  <SCORE.RESTR.CAVITY>
0

>  <SCORE.RESTR.norm>
0

>  <SCORE.SYSTEM>
0

>  <SCORE.SYSTEM.CONST>
0

>  <SCORE.SYSTEM.DIHEDRAL>
0

>  <SCORE.SYSTEM.SOLV>
0

>  <SCORE.SYSTEM.norm>
0

>  <SCORE.heavy>
10

>  <SCORE.norm>
-1.80711

>  <RMSD>
0.711

$$$$
ligand
 OpenBabel11021811423D
libRbt.so/2013.1/901 2013/11/27
 10 11  0  0  0  0  0  0  0  0999 V2000
   11.5027    9.5085   29.5175 N   0  0  0  0  0  0  0  0  0  0  0  0
   11.3596   10.8684   29.3038 C   0  0  0  0  0  0  0  0  0  0  0  0
   11.1323   11.3725   28.0848 N   0  0  0  0  0  0  0  0  0  0  0  0
   11.0612   10.4100   27.1090 C   0  0  0  0  0  0  0  0  0  0  0  0
   11.1950    9.0491   27.2614 C   0  0  0  0  0  0  0  0  0  0  0  0
   11.4366    8.5028   28.5524 C   0  0  0  0  0  0  0  0  0  0  0  0
   11.5862    7.3262   28.9054 O   0  0  0  0  0  0  0  0  0  0  0  0
   11.0543    8.4575   26.0332 N   0  0  0  0  0  0  0  0  0  0  0  0
   10.8362    9.4494   25.1489 C   0  0  0  0  0  0  0  0  0  0  0  0
   10.8362   10.6677   25.7801 N   0  0  0  0  0  0  0  0  0  0  0  0
  1  2  1  0  0  0  0
  1  6  1  0  0  0  0
  2  3  2  0  0  0  0
  3  4  1  0  0  0  0
  4  5  2  0  0  0  0
  4 10  1  0  0  0  0
  5  6  1  0  0  0  0
  5  8  1  0  0  0  0
  6  7  2  0  0  0  0
  8  9  1  0  0  0  0
  9 10  2  0  0  0  0
M  END
>  <CHROM.1>
11.20753440,9.52031984,27.59694817,0.19200224,-1.39899811,0.48631589

>  <Name>
ligand

>  <RI>
0

>  <Rbt.Current_Directory>
/home/itssahil/PROJECTS/Mol_Feturizer/New_Systems/rnas/2EET

>  <Rbt.Executable>
rbdock ($Id: //depot/dev/client3/rdock/2013.1/src/exe/rbdock.cxx#4 $)

>  <Rbt.Library>
libRbt.so (2013.1, Build901 2013/11/27)

>  <Rbt.Parameter_File>
/export/apps/rDock/src/rDock_2013.1_src/data/scripts/dock_solv.prm

>  <Rbt.Receptor>
prm/blind_docking_80.prm

>  <SCORE>
-18.0717

>  <SCORE.INTER>
-18.0717

>  <SCORE.INTER.CONST>
1

>  <SCORE.INTER.POLAR>
0

>  <SCORE.INTER.ROT>
0

>  <SCORE.INTER.SOLV>
4.19003

>  <SCORE.INTER.VDW>
-17.0445

>  <SCORE.INTER.norm>
-1.80717

>  <SCORE.INTRA>
0

>  <SCORE.INTRA.DIHEDRAL>
0

>  <SCORE.INTRA.DIHEDRAL.0>
0

>  <SCORE.INTRA.POLAR>
0

>  <SCORE.INTRA.POLAR.0>
0

>  <SCORE.INTRA.REPUL>
0

>  <SCORE.INTRA.REPUL.0>
0

>  <SCORE.INTRA.SOLV>
0

>  <SCORE.INTRA.SOLV.lig_0>
-4.28464

>  <SCORE.INTRA.VDW>
0

>  <SCORE.INTRA.VDW.0>
0

>  <SCORE.INTRA.norm>
0

>  <SCORE.RESTR>
0

>  <SCORE.RESTR.CAVITY>
0

>  <SCORE.RESTR.norm>
0

>  <SCORE.SYSTEM>
0

>  <SCORE.SYSTEM.CONST>
0

>  <SCORE.SYSTEM.DIHEDRAL>
0

>  <SCORE.SYSTEM.SOLV>
0

>  <SCORE.SYSTEM.norm>
0

>  <SCORE.heavy>
10

>  <SCORE.norm>
-1.80717

>  <RMSD>
0.711

$$$$
ligand
 OpenBabel11021811423D
libRbt.so/2013.1/901 2013/11/27
 10 11  0  0  0  0  0  0  0  0999 V2000
   11.5025    9.4887   29.5011 N   0  0  0  0  0  0  0  0  0  0  0  0
   11.3585   10.8495   29.2934 C   0  0  0  0  0  0  0  0  0  0  0  0
   11.1283   11.3586   28.0770 N   0  0  0  0  0  0  0  0  0  0  0  0
   11.0554   10.4001   27.0974 C   0  0  0  0  0  0  0  0  0  0  0  0
   11.1900    9.0386   27.2438 C   0  0  0  0  0  0  0  0  0  0  0  0
   11.4347    8.4871   28.5320 C   0  0  0  0  0  0  0  0  0  0  0  0
   11.5854    7.3090   28.8797 O   0  0  0  0  0  0  0  0  0  0  0  0
   11.0468    8.4522   26.0134 N   0  0  0  0  0  0  0  0  0  0  0  0
   10.8264    9.4477   25.1338 C   0  0  0  0  0  0  0  0  0  0  0  0
   10.8274   10.6634   25.7701 N   0  0  0  0  0  0  0  0  0  0  0  0
  1  2  1  0  0  0  0
  1  6  1  0  0  0  0
  2  3  2  0  0  0  0
  3  4  1  0  0  0  0
  4  5  2  0  0  0  0
  4 10  1  0  0  0  0
  5  6  1  0  0  0  0
  5  8  1  0  0  0  0
  6  7  2  0  0  0  0
  8  9  1  0  0  0  0
  9 10  2  0  0  0  0
M  END
>  <CHROM.1>
11.20310985,9.50848925,27.58128160,0.18772703,-1.39688619,0.48630467

>  <Name>
ligand

>  <RI>
0

>  <Rbt.Current_Directory>
/home/itssahil/PROJECTS/Mol_Feturizer/New_Systems/rnas/2EET

>  <Rbt.Executable>
rbdock ($Id: //depot/dev/client3/rdock/2013.1/src/exe/rbdock.cxx#4 $)

>  <Rbt.Library>
libRbt.so (2013.1, Build901 2013/11/27)

>  <Rbt.Parameter_File>
/export/apps/rDock/src/rDock_2013.1_src/data/scripts/dock_solv.prm

>  <Rbt.Receptor>
prm/pocket_docking_3.prm

>  <SCORE>
-18.069

>  <SCORE.INTER>
-18.069

>  <SCORE.INTER.CONST>
1

>  <SCORE.INTER.POLAR>
0

>  <SCORE.INTER.ROT>
0

>  <SCORE.INTER.SOLV>
4.17553

>  <SCORE.INTER.VDW>
-17.0379

>  <SCORE.INTER.norm>
-1.8069

>  <SCORE.INTRA>
0

>  <SCORE.INTRA.DIHEDRAL>
0

>  <SCORE.INTRA.DIHEDRAL.0>
0

>  <SCORE.INTRA.POLAR>
0

>  <SCORE.INTRA.POLAR.0>
0

>  <SCORE.INTRA.REPUL>
0

>  <SCORE.INTRA.REPUL.0>
0

>  <SCORE.INTRA.SOLV>
0

>  <SCORE.INTRA.SOLV.lig_0>
-4.28464

>  <SCORE.INTRA.VDW>
0

>  <SCORE.INTRA.VDW.0>
0

>  <SCORE.INTRA.norm>
0

>  <SCORE.RESTR>
0

>  <SCORE.RESTR.CAVITY>
0

>  <SCORE.RESTR.norm>
0

>  <SCORE.SYSTEM>
0

>  <SCORE.SYSTEM.CONST>
0

>  <SCORE.SYSTEM.DIHEDRAL>
0

>  <SCORE.SYSTEM.SOLV>
0

>  <SCORE.SYSTEM.norm>
0

>  <SCORE.heavy>
10

>  <SCORE.norm>
-1.8069

>  <RMSD>
0.711

$$$$
ligand
 OpenBabel11021811423D
libRbt.so/2013.1/901 2013/11/27
 10 11  0  0  0  0  0  0  0  0999 V2000
   11.5203    9.5007   29.4915 N   0  0  0  0  0  0  0  0  0  0  0  0
   11.3756   10.8620   29.2875 C   0  0  0  0  0  0  0  0  0  0  0  0
   11.1338   11.3734   28.0744 N   0  0  0  0  0  0  0  0  0  0  0  0
   11.0501   10.4167   27.0939 C   0  0  0  0  0  0  0  0  0  0  0  0
   11.1847    9.0549   27.2366 C   0  0  0  0  0  0  0  0  0  0  0  0
   11.4417    8.5008   28.5213 C   0  0  0  0  0  0  0  0  0  0  0  0
   11.5947    7.3220   28.8655 O   0  0  0  0  0  0  0  0  0  0  0  0
   11.0286    8.4706   26.0067 N   0  0  0  0  0  0  0  0  0  0  0  0
   10.8004    9.4679   25.1310 C   0  0  0  0  0  0  0  0  0  0  0  0
   10.8090   10.6825   25.7693 N   0  0  0  0  0  0  0  0  0  0  0  0
  1  2  1  0  0  0  0
  1  6  1  0  0  0  0
  2  3  2  0  0  0  0
  3  4  1  0  0  0  0
  4  5  2  0  0  0  0
  4 10  1  0  0  0  0
  5  6  1  0  0  0  0
  5  8  1  0  0  0  0
  6  7  2  0  0  0  0
  8  9  1  0  0  0  0
  9 10  2  0  0  0  0
M  END
>  <CHROM.1>
11.20169920,9.52410789,27.57474264,0.15682879,-1.38842799,0.45759666

>  <Name>
ligand

>  <RI>
0

>  <Rbt.Current_Directory>
/home/itssahil/PROJECTS/Mol_Feturizer/New_Systems/rnas/2EET

>  <Rbt.Executable>
rbdock ($Id: //depot/dev/client3/rdock/2013.1/src/exe/rbdock.cxx#4 $)

>  <Rbt.Library>
libRbt.so (2013.1, Build901 2013/11/27)

>  <Rbt.Parameter_File>
/export/apps/rDock/src/rDock_2013.1_src/data/scripts/dock_solv.prm

>  <Rbt.Receptor>
prm/pocket_docking_3.prm

>  <SCORE>
-18.0379

>  <SCORE.INTER>
-18.0379

>  <SCORE.INTER.CONST>
1

>  <SCORE.INTER.POLAR>
0

>  <SCORE.INTER.ROT>
0

>  <SCORE.INTER.SOLV>
4.15174

>  <SCORE.INTER.VDW>
-17.0092

>  <SCORE.INTER.norm>
-1.80379

>  <SCORE.INTRA>
0

>  <SCORE.INTRA.DIHEDRAL>
0

>  <SCORE.INTRA.DIHEDRAL.0>
0

>  <SCORE.INTRA.POLAR>
0

>  <SCORE.INTRA.POLAR.0>
0

>  <SCORE.INTRA.REPUL>
0

>  <SCORE.INTRA.REPUL.0>
0

>  <SCORE.INTRA.SOLV>
0

>  <SCORE.INTRA.SOLV.lig_0>
-4.28464

>  <SCORE.INTRA.VDW>
0

>  <SCORE.INTRA.VDW.0>
0

>  <SCORE.INTRA.norm>
0

>  <SCORE.RESTR>
0

>  <SCORE.RESTR.CAVITY>
0

>  <SCORE.RESTR.norm>
0

>  <SCORE.SYSTEM>
0

>  <SCORE.SYSTEM.CONST>
0

>  <SCORE.SYSTEM.DIHEDRAL>
0

>  <SCORE.SYSTEM.SOLV>
0

>  <SCORE.SYSTEM.norm>
0

>  <SCORE.heavy>
10

>  <SCORE.norm>
-1.80379

>  <RMSD>
0.711

$$$$
ligand
 OpenBabel11021811423D
libRbt.so/2013.1/901 2013/11/27
 10 11  0  0  0  0  0  0  0  0999 V2000
   11.4901    9.4821   29.4830 N   0  0  0  0  0  0  0  0  0  0  0  0
   11.3565   10.8476   29.3010 C   0  0  0  0  0  0  0  0  0  0  0  0
   11.1309   11.3814   28.0944 N   0  0  0  0  0  0  0  0  0  0  0  0
   11.0513   10.4422   27.0968 C   0  0  0  0  0  0  0  0  0  0  0  0
   11.1755    9.0773   27.2174 C   0  0  0  0  0  0  0  0  0  0  0  0
   11.4153    8.4995   28.4950 C   0  0  0  0  0  0  0  0  0  0  0  0
   11.5569    7.3140   28.8204 O   0  0  0  0  0  0  0  0  0  0  0  0
   11.0287    8.5153   25.9761 N   0  0  0  0  0  0  0  0  0  0  0  0
   10.8163    9.5290   25.1153 C   0  0  0  0  0  0  0  0  0  0  0  0
   10.8261   10.7323   25.7745 N   0  0  0  0  0  0  0  0  0  0  0  0
  1  2  1  0  0  0  0
  1  6  1  0  0  0  0
  2  3  2  0  0  0  0
  3  4  1  0  0  0  0
  4  5  2  0  0  0  0
  4 10  1  0  0  0  0
  5  6  1  0  0  0  0
  5  8  1  0  0  0  0
  6  7  2  0  0  0  0
  8  9  1  0  0  0  0
  9 10  2  0  0  0  0
M  END
>  <CHROM.1>
11.19200991,9.54050817,27.56373226,0.14994751,-1.40083404,0.46802732

>  <Name>
ligand

>  <RI>
0

>  <Rbt.Current_Directory>
/home/itssahil/PROJECTS/Mol_Feturizer/New_Systems/rnas/2EET

>  <Rbt.Executable>
rbdock ($Id: //depot/dev/client3/rdock/2013.1/src/exe/rbdock.cxx#4 $)

>  <Rbt.Library>
libRbt.so (2013.1, Build901 2013/11/27)

>  <Rbt.Parameter_File>
/export/apps/rDock/src/rDock_2013.1_src/data/scripts/dock_solv.prm

>  <Rbt.Receptor>
prm/pocket_docking_3.prm

>  <SCORE>
-18.0552

>  <SCORE.INTER>
-18.0552

>  <SCORE.INTER.CONST>
1

>  <SCORE.INTER.POLAR>
0

>  <SCORE.INTER.ROT>
0

>  <SCORE.INTER.SOLV>
4.18069

>  <SCORE.INTER.VDW>
-17.0303

>  <SCORE.INTER.norm>
-1.80552

>  <SCORE.INTRA>
0

>  <SCORE.INTRA.DIHEDRAL>
0

>  <SCORE.INTRA.DIHEDRAL.0>
0

>  <SCORE.INTRA.POLAR>
0

>  <SCORE.INTRA.POLAR.0>
0

>  <SCORE.INTRA.REPUL>
0

>  <SCORE.INTRA.REPUL.0>
0

>  <SCORE.INTRA.SOLV>
0

>  <SCORE.INTRA.SOLV.lig_0>
-4.28464

>  <SCORE.INTRA.VDW>
0

>  <SCORE.INTRA.VDW.0>
0

>  <SCORE.INTRA.norm>
0

>  <SCORE.RESTR>
0

>  <SCORE.RESTR.CAVITY>
0

>  <SCORE.RESTR.norm>
0

>  <SCORE.SYSTEM>
0

>  <SCORE.SYSTEM.CONST>
0

>  <SCORE.SYSTEM.DIHEDRAL>
0

>  <SCORE.SYSTEM.SOLV>
0

>  <SCORE.SYSTEM.norm>
0

>  <SCORE.heavy>
10

>  <SCORE.norm>
-1.80552

>  <RMSD>
0.711

$$$$
ligand
 OpenBabel11021811423D
libRbt.so/2013.1/901 2013/11/27
 10 11  0  0  0  0  0  0  0  0999 V2000
   11.5085    9.5137   29.5183 N   0  0  0  0  0  0  0  0  0  0  0  0
   11.3596   10.8727   29.3023 C   0  0  0  0  0  0  0  0  0  0  0  0
   11.1265   11.3735   28.0830 N   0  0  0  0  0  0  0  0  0  0  0  0
   11.0560   10.4088   27.1094 C   0  0  0  0  0  0  0  0  0  0  0  0
   11.1953    9.0487   27.2641 C   0  0  0  0  0  0  0  0  0  0  0  0
   11.4431    8.5059   28.5554 C   0  0  0  0  0  0  0  0  0  0  0  0
   11.5982    7.3305   28.9102 O   0  0  0  0  0  0  0  0  0  0  0  0
   11.0530    8.4541   26.0375 N   0  0  0  0  0  0  0  0  0  0  0  0
   10.8284    9.4435   25.1519 C   0  0  0  0  0  0  0  0  0  0  0  0
   10.8258   10.6631   25.7807 N   0  0  0  0  0  0  0  0  0  0  0  0
  1  2  1  0  0  0  0
  1  6  1  0  0  0  0
  2  3  2  0  0  0  0
  3  4  1  0  0  0  0
  4  5  2  0  0  0  0
  4 10  1  0  0  0  0
  5  6  1  0  0  0  0
  5  8  1  0  0  0  0
  6  7  2  0  0  0  0
  8  9  1  0  0  0  0
  9 10  2  0  0  0  0
M  END
>  <CHROM.1>
11.20718510,9.52066296,27.59864894,0.20234791,-1.39443775,0.49451882

>  <Name>
ligand

>  <RI>
0

>  <Rbt.Current_Directory>
/home/itssahil/PROJECTS/Mol_Feturizer/New_Systems/rnas/2EET

>  <Rbt.Executable>
rbdock ($Id: //depot/dev/client3/rdock/2013.1/src/exe/rbdock.cxx#4 $)

>  <Rbt.Library>
libRbt.so (2013.1, Build901 2013/11/27)

>  <Rbt.Parameter_File>
/export/apps/rDock/src/rDock_2013.1_src/data/scripts/dock_solv.prm

>  <Rbt.Receptor>
prm/pocket_docking_4.prm

>  <SCORE>
-18.0651

>  <SCORE.INTER>
-18.0651

>  <SCORE.INTER.CONST>
1

>  <SCORE.INTER.POLAR>
0

>  <SCORE.INTER.ROT>
0

>  <SCORE.INTER.SOLV>
4.175

>  <SCORE.INTER.VDW>
-17.0351

>  <SCORE.INTER.norm>
-1.80651

>  <SCORE.INTRA>
0

>  <SCORE.INTRA.DIHEDRAL>
0

>  <SCORE.INTRA.DIHEDRAL.0>
0

>  <SCORE.INTRA.POLAR>
0

>  <SCORE.INTRA.POLAR.0>
0

>  <SCORE.INTRA.REPUL>
0

>  <SCORE.INTRA.REPUL.0>
0

>  <SCORE.INTRA.SOLV>
0

>  <SCORE.INTRA.SOLV.lig_0>
-4.28464

>  <SCORE.INTRA.VDW>
0

>  <SCORE.INTRA.VDW.0>
0

>  <SCORE.INTRA.norm>
0

>  <SCORE.RESTR>
0

>  <SCORE.RESTR.CAVITY>
0

>  <SCORE.RESTR.norm>
0

>  <SCORE.SYSTEM>
0

>  <SCORE.SYSTEM.CONST>
0

>  <SCORE.SYSTEM.DIHEDRAL>
0

>  <SCORE.SYSTEM.SOLV>
0

>  <SCORE.SYSTEM.norm>
0

>  <SCORE.heavy>
10

>  <SCORE.norm>
-1.80651

>  <RMSD>
0.711

$$$$
ligand
 OpenBabel11021811423D
libRbt.so/2013.1/901 2013/11/27
 10 11  0  0  0  0  0  0  0  0999 V2000
   11.5003    9.5106   29.5199 N   0  0  0  0  0  0  0  0  0  0  0  0
   11.3552   10.8703   29.3060 C   0  0  0  0  0  0  0  0  0  0  0  0
   11.1280   11.3740   28.0868 N   0  0  0  0  0  0  0  0  0  0  0  0
   11.0592   10.4113   27.1111 C   0  0  0  0  0  0  0  0  0  0  0  0
   11.1950    9.0506   27.2636 C   0  0  0  0  0  0  0  0  0  0  0  0
   11.4365    8.5048   28.5548 C   0  0  0  0  0  0  0  0  0  0  0  0
   11.5876    7.3284   28.9080 O   0  0  0  0  0  0  0  0  0  0  0  0
   11.0561    8.4587   26.0353 N   0  0  0  0  0  0  0  0  0  0  0  0
   10.8371    9.4503   25.1508 C   0  0  0  0  0  0  0  0  0  0  0  0
   10.8348   10.6686   25.7819 N   0  0  0  0  0  0  0  0  0  0  0  0
  1  2  1  0  0  0  0
  1  6  1  0  0  0  0
  2  3  2  0  0  0  0
  3  4  1  0  0  0  0
  4  5  2  0  0  0  0
  4 10  1  0  0  0  0
  5  6  1  0  0  0  0
  5  8  1  0  0  0  0
  6  7  2  0  0  0  0
  8  9  1  0  0  0  0
  9 10  2  0  0  0  0
M  END
>  <CHROM.1>
11.20654003,9.52189856,27.59912486,0.20204842,-1.39891574,0.49615546

>  <Name>
ligand

>  <RI>
0

>  <Rbt.Current_Directory>
/home/itssahil/PROJECTS/Mol_Feturizer/New_Systems/rnas/2EET

>  <Rbt.Executable>
rbdock ($Id: //depot/dev/client3/rdock/2013.1/src/exe/rbdock.cxx#4 $)

>  <Rbt.Library>
libRbt.so (2013.1, Build901 2013/11/27)

>  <Rbt.Parameter_File>
/export/apps/rDock/src/rDock_2013.1_src/data/scripts/dock_solv.prm

>  <Rbt.Receptor>
prm/pocket_docking_5.prm

>  <SCORE>
-18.0666

>  <SCORE.INTER>
-18.0666

>  <SCORE.INTER.CONST>
1

>  <SCORE.INTER.POLAR>
0

>  <SCORE.INTER.ROT>
0

>  <SCORE.INTER.SOLV>
4.1889

>  <SCORE.INTER.VDW>
-17.0407

>  <SCORE.INTER.norm>
-1.80666

>  <SCORE.INTRA>
0

>  <SCORE.INTRA.DIHEDRAL>
0

>  <SCORE.INTRA.DIHEDRAL.0>
0

>  <SCORE.INTRA.POLAR>
0

>  <SCORE.INTRA.POLAR.0>
0

>  <SCORE.INTRA.REPUL>
0

>  <SCORE.INTRA.REPUL.0>
0

>  <SCORE.INTRA.SOLV>
0

>  <SCORE.INTRA.SOLV.lig_0>
-4.28464

>  <SCORE.INTRA.VDW>
0

>  <SCORE.INTRA.VDW.0>
0

>  <SCORE.INTRA.norm>
0

>  <SCORE.RESTR>
0

>  <SCORE.RESTR.CAVITY>
0

>  <SCORE.RESTR.norm>
0

>  <SCORE.SYSTEM>
0

>  <SCORE.SYSTEM.CONST>
0

>  <SCORE.SYSTEM.DIHEDRAL>
0

>  <SCORE.SYSTEM.SOLV>
0

>  <SCORE.SYSTEM.norm>
0

>  <SCORE.heavy>
10

>  <SCORE.norm>
-1.80666

>  <RMSD>
0.711

$$$$
ligand
 OpenBabel11021811423D
libRbt.so/2013.1/901 2013/11/27
 10 11  0  0  0  0  0  0  0  0999 V2000
   11.5028    9.5107   29.5178 N   0  0  0  0  0  0  0  0  0  0  0  0
   11.3580   10.8704   29.3036 C   0  0  0  0  0  0  0  0  0  0  0  0
   11.1295   11.3737   28.0845 N   0  0  0  0  0  0  0  0  0  0  0  0
   11.0593   10.4107   27.1092 C   0  0  0  0  0  0  0  0  0  0  0  0
   11.1947    9.0500   27.2620 C   0  0  0  0  0  0  0  0  0  0  0  0
   11.4376    8.5046   28.5532 C   0  0  0  0  0  0  0  0  0  0  0  0
   11.5887    7.3282   28.9065 O   0  0  0  0  0  0  0  0  0  0  0  0
   11.0543    8.4578   26.0341 N   0  0  0  0  0  0  0  0  0  0  0  0
   10.8346    9.4491   25.1495 C   0  0  0  0  0  0  0  0  0  0  0  0
   10.8334   10.6677   25.7802 N   0  0  0  0  0  0  0  0  0  0  0  0
  1  2  1  0  0  0  0
  1  6  1  0  0  0  0
  2  3  2  0  0  0  0
  3  4  1  0  0  0  0
  4  5  2  0  0  0  0
  4 10  1  0  0  0  0
  5  6  1  0  0  0  0
  5  8  1  0  0  0  0
  6  7  2  0  0  0  0
  8  9  1  0  0  0  0
  9 10  2  0  0  0  0
M  END
>  <CHROM.1>
11.20686809,9.52142024,27.59737854,0.19714296,-1.39806784,0.49099722

>  <Name>
ligand

>  <RI>
0

>  <Rbt.Current_Directory>
/home/itssahil/PROJECTS/Mol_Feturizer/New_Systems/rnas/2EET

>  <Rbt.Executable>
rbdock ($Id: //depot/dev/client3/rdock/2013.1/src/exe/rbdock.cxx#4 $)

>  <Rbt.Library>
libRbt.so (2013.1, Build901 2013/11/27)

>  <Rbt.Parameter_File>
/export/apps/rDock/src/rDock_2013.1_src/data/scripts/dock_solv.prm

>  <Rbt.Receptor>
prm/pocket_docking_5.prm

>  <SCORE>
-18.0683

>  <SCORE.INTER>
-18.0683

>  <SCORE.INTER.CONST>
1

>  <SCORE.INTER.POLAR>
0

>  <SCORE.INTER.ROT>
0

>  <SCORE.INTER.SOLV>
4.18648

>  <SCORE.INTER.VDW>
-17.0411

>  <SCORE.INTER.norm>
-1.80683

>  <SCORE.INTRA>
0

>  <SCORE.INTRA.DIHEDRAL>
0

>  <SCORE.INTRA.DIHEDRAL.0>
0

>  <SCORE.INTRA.POLAR>
0

>  <SCORE.INTRA.POLAR.0>
0

>  <SCORE.INTRA.REPUL>
0

>  <SCORE.INTRA.REPUL.0>
0

>  <SCORE.INTRA.SOLV>
0

>  <SCORE.INTRA.SOLV.lig_0>
-4.28464

>  <SCORE.INTRA.VDW>
0

>  <SCORE.INTRA.VDW.0>
0

>  <SCORE.INTRA.norm>
0

>  <SCORE.RESTR>
0

>  <SCORE.RESTR.CAVITY>
0

>  <SCORE.RESTR.norm>
0

>  <SCORE.SYSTEM>
0

>  <SCORE.SYSTEM.CONST>
0

>  <SCORE.SYSTEM.DIHEDRAL>
0

>  <SCORE.SYSTEM.SOLV>
0

>  <SCORE.SYSTEM.norm>
0

>  <SCORE.heavy>
10

>  <SCORE.norm>
-1.80683

>  <RMSD>
0.711

$$$$
ligand
 OpenBabel11021811423D
libRbt.so/2013.1/901 2013/11/27
 10 11  0  0  0  0  0  0  0  0999 V2000
   11.5184    9.4913   29.4796 N   0  0  0  0  0  0  0  0  0  0  0  0
   11.3572   10.8511   29.2777 C   0  0  0  0  0  0  0  0  0  0  0  0
   11.1154   11.3621   28.0644 N   0  0  0  0  0  0  0  0  0  0  0  0
   11.0496   10.4066   27.0814 C   0  0  0  0  0  0  0  0  0  0  0  0
   11.2010    9.0463   27.2219 C   0  0  0  0  0  0  0  0  0  0  0  0
   11.4581    8.4927   28.5068 C   0  0  0  0  0  0  0  0  0  0  0  0
   11.6245    7.3152   28.8493 O   0  0  0  0  0  0  0  0  0  0  0  0
   11.0593    8.4628   25.9899 N   0  0  0  0  0  0  0  0  0  0  0  0
   10.8231    9.4591   25.1151 C   0  0  0  0  0  0  0  0  0  0  0  0
   10.8124   10.6722   25.7561 N   0  0  0  0  0  0  0  0  0  0  0  0
  1  2  1  0  0  0  0
  1  6  1  0  0  0  0
  2  3  2  0  0  0  0
  3  4  1  0  0  0  0
  4  5  2  0  0  0  0
  4 10  1  0  0  0  0
  5  6  1  0  0  0  0
  5  8  1  0  0  0  0
  6  7  2  0  0  0  0
  8  9  1  0  0  0  0
  9 10  2  0  0  0  0
M  END
>  <CHROM.1>
11.21010350,9.51492811,27.56115014,0.23401597,-1.38712047,0.53571292

>  <Name>
ligand

>  <RI>
0

>  <Rbt.Current_Directory>
/home/itssahil/PROJECTS/Mol_Feturizer/New_Systems/rnas/2EET

>  <Rbt.Executable>
rbdock ($Id: //depot/dev/client3/rdock/2013.1/src/exe/rbdock.cxx#4 $)

>  <Rbt.Library>
libRbt.so (2013.1, Build901 2013/11/27)

>  <Rbt.Parameter_File>
/export/apps/rDock/src/rDock_2013.1_src/data/scripts/dock_solv.prm

>  <Rbt.Receptor>
prm/pocket_docking_5.prm

>  <SCORE>
-17.998

>  <SCORE.INTER>
-17.998

>  <SCORE.INTER.CONST>
1

>  <SCORE.INTER.POLAR>
0

>  <SCORE.INTER.ROT>
0

>  <SCORE.INTER.SOLV>
4.10253

>  <SCORE.INTER.VDW>
-16.9662

>  <SCORE.INTER.norm>
-1.7998

>  <SCORE.INTRA>
0

>  <SCORE.INTRA.DIHEDRAL>
0

>  <SCORE.INTRA.DIHEDRAL.0>
0

>  <SCORE.INTRA.POLAR>
0

>  <SCORE.INTRA.POLAR.0>
0

>  <SCORE.INTRA.REPUL>
0

>  <SCORE.INTRA.REPUL.0>
0

>  <SCORE.INTRA.SOLV>
0

>  <SCORE.INTRA.SOLV.lig_0>
-4.28464

>  <SCORE.INTRA.VDW>
0

>  <SCORE.INTRA.VDW.0>
0

>  <SCORE.INTRA.norm>
0

>  <SCORE.RESTR>
0

>  <SCORE.RESTR.CAVITY>
0

>  <SCORE.RESTR.norm>
0

>  <SCORE.SYSTEM>
0

>  <SCORE.SYSTEM.CONST>
0

>  <SCORE.SYSTEM.DIHEDRAL>
0

>  <SCORE.SYSTEM.SOLV>
0

>  <SCORE.SYSTEM.norm>
0

>  <SCORE.heavy>
10

>  <SCORE.norm>
-1.7998

>  <RMSD>
0.711

$$$$
ligand
 OpenBabel11021811423D
libRbt.so/2013.1/901 2013/11/27
 10 11  0  0  0  0  0  0  0  0999 V2000
   11.5167    9.5037   29.5067 N   0  0  0  0  0  0  0  0  0  0  0  0
   11.3770   10.8644   29.2953 C   0  0  0  0  0  0  0  0  0  0  0  0
   11.1338   11.3698   28.0799 N   0  0  0  0  0  0  0  0  0  0  0  0
   11.0434   10.4079   27.1052 C   0  0  0  0  0  0  0  0  0  0  0  0
   11.1729    9.0463   27.2554 C   0  0  0  0  0  0  0  0  0  0  0  0
   11.4312    8.4986   28.5425 C   0  0  0  0  0  0  0  0  0  0  0  0
   11.5804    7.3211   28.8930 O   0  0  0  0  0  0  0  0  0  0  0  0
   11.0109    8.4557   26.0293 N   0  0  0  0  0  0  0  0  0  0  0  0
   10.7844    9.4489   25.1485 C   0  0  0  0  0  0  0  0  0  0  0  0
   10.7997   10.6671   25.7798 N   0  0  0  0  0  0  0  0  0  0  0  0
  1  2  1  0  0  0  0
  1  6  1  0  0  0  0
  2  3  2  0  0  0  0
  3  4  1  0  0  0  0
  4  5  2  0  0  0  0
  4 10  1  0  0  0  0
  5  6  1  0  0  0  0
  5  8  1  0  0  0  0
  6  7  2  0  0  0  0
  8  9  1  0  0  0  0
  9 10  2  0  0  0  0
M  END
>  <CHROM.1>
11.19275446,9.51742362,27.59075031,0.12988816,-1.38763744,0.42536937

>  <Name>
ligand

>  <RI>
0

>  <Rbt.Current_Directory>
/home/itssahil/PROJECTS/Mol_Feturizer/New_Systems/rnas/2EET

>  <Rbt.Executable>
rbdock ($Id: //depot/dev/client3/rdock/2013.1/src/exe/rbdock.cxx#4 $)

>  <Rbt.Library>
libRbt.so (2013.1, Build901 2013/11/27)

>  <Rbt.Parameter_File>
/export/apps/rDock/src/rDock_2013.1_src/data/scripts/dock_solv.prm

>  <Rbt.Receptor>
prm/pocket_docking_6.prm

>  <SCORE>
-18.0746

>  <SCORE.INTER>
-18.0746

>  <SCORE.INTER.CONST>
1

>  <SCORE.INTER.POLAR>
0

>  <SCORE.INTER.ROT>
0

>  <SCORE.INTER.SOLV>
4.18406

>  <SCORE.INTER.VDW>
-17.0444

>  <SCORE.INTER.norm>
-1.80746

>  <SCORE.INTRA>
0

>  <SCORE.INTRA.DIHEDRAL>
0

>  <SCORE.INTRA.DIHEDRAL.0>
0

>  <SCORE.INTRA.POLAR>
0

>  <SCORE.INTRA.POLAR.0>
0

>  <SCORE.INTRA.REPUL>
0

>  <SCORE.INTRA.REPUL.0>
0

>  <SCORE.INTRA.SOLV>
0

>  <SCORE.INTRA.SOLV.lig_0>
-4.28464

>  <SCORE.INTRA.VDW>
0

>  <SCORE.INTRA.VDW.0>
0

>  <SCORE.INTRA.norm>
0

>  <SCORE.RESTR>
0

>  <SCORE.RESTR.CAVITY>
0

>  <SCORE.RESTR.norm>
0

>  <SCORE.SYSTEM>
0

>  <SCORE.SYSTEM.CONST>
0

>  <SCORE.SYSTEM.DIHEDRAL>
0

>  <SCORE.SYSTEM.SOLV>
0

>  <SCORE.SYSTEM.norm>
0

>  <SCORE.heavy>
10

>  <SCORE.norm>
-1.80746

>  <RMSD>
0.711

$$$$
ligand
 OpenBabel11021811423D
libRbt.so/2013.1/901 2013/11/27
 10 11  0  0  0  0  0  0  0  0999 V2000
   11.4996    9.5105   29.5206 N   0  0  0  0  0  0  0  0  0  0  0  0
   11.3558   10.8703   29.3066 C   0  0  0  0  0  0  0  0  0  0  0  0
   11.1300   11.3743   28.0873 N   0  0  0  0  0  0  0  0  0  0  0  0
   11.0612   10.4117   27.1114 C   0  0  0  0  0  0  0  0  0  0  0  0
   11.1957    9.0509   27.2640 C   0  0  0  0  0  0  0  0  0  0  0  0
   11.4358    8.5048   28.5553 C   0  0  0  0  0  0  0  0  0  0  0  0
   11.5856    7.3283   28.9085 O   0  0  0  0  0  0  0  0  0  0  0  0
   11.0574    8.4593   26.0355 N   0  0  0  0  0  0  0  0  0  0  0  0
   10.8399    9.4511   25.1509 C   0  0  0  0  0  0  0  0  0  0  0  0
   10.8380   10.6694   25.7821 N   0  0  0  0  0  0  0  0  0  0  0  0
  1  2  1  0  0  0  0
  1  6  1  0  0  0  0
  2  3  2  0  0  0  0
  3  4  1  0  0  0  0
  4  5  2  0  0  0  0
  4 10  1  0  0  0  0
  5  6  1  0  0  0  0
  5  8  1  0  0  0  0
  6  7  2  0  0  0  0
  8  9  1  0  0  0  0
  9 10  2  0  0  0  0
M  END
>  <CHROM.1>
11.20739350,9.52218786,27.59952820,0.20018679,-1.40001749,0.49441777

>  <Name>
ligand

>  <RI>
0

>  <Rbt.Current_Directory>
/home/itssahil/PROJECTS/Mol_Feturizer/New_Systems/rnas/2EET

>  <Rbt.Executable>
rbdock ($Id: //depot/dev/client3/rdock/2013.1/src/exe/rbdock.cxx#4 $)

>  <Rbt.Library>
libRbt.so (2013.1, Build901 2013/11/27)

>  <Rbt.Parameter_File>
/export/apps/rDock/src/rDock_2013.1_src/data/scripts/dock_solv.prm

>  <Rbt.Receptor>
prm/pocket_docking_6.prm

>  <SCORE>
-18.0676

>  <SCORE.INTER>
-18.0676

>  <SCORE.INTER.CONST>
1

>  <SCORE.INTER.POLAR>
0

>  <SCORE.INTER.ROT>
0

>  <SCORE.INTER.SOLV>
4.19251

>  <SCORE.INTER.VDW>
-17.0426

>  <SCORE.INTER.norm>
-1.80676

>  <SCORE.INTRA>
0

>  <SCORE.INTRA.DIHEDRAL>
0

>  <SCORE.INTRA.DIHEDRAL.0>
0

>  <SCORE.INTRA.POLAR>
0

>  <SCORE.INTRA.POLAR.0>
0

>  <SCORE.INTRA.REPUL>
0

>  <SCORE.INTRA.REPUL.0>
0

>  <SCORE.INTRA.SOLV>
0

>  <SCORE.INTRA.SOLV.lig_0>
-4.28464

>  <SCORE.INTRA.VDW>
0

>  <SCORE.INTRA.VDW.0>
0

>  <SCORE.INTRA.norm>
0

>  <SCORE.RESTR>
0

>  <SCORE.RESTR.CAVITY>
0

>  <SCORE.RESTR.norm>
0

>  <SCORE.SYSTEM>
0

>  <SCORE.SYSTEM.CONST>
0

>  <SCORE.SYSTEM.DIHEDRAL>
0

>  <SCORE.SYSTEM.SOLV>
0

>  <SCORE.SYSTEM.norm>
0

>  <SCORE.heavy>
10

>  <SCORE.norm>
-1.80676

>  <RMSD>
0.711

$$$$
ligand
 OpenBabel11021811423D
libRbt.so/2013.1/901 2013/11/27
 10 11  0  0  0  0  0  0  0  0999 V2000
   11.4967    9.5109   29.5232 N   0  0  0  0  0  0  0  0  0  0  0  0
   11.3539   10.8710   29.3100 C   0  0  0  0  0  0  0  0  0  0  0  0
   11.1307   11.3759   28.0906 N   0  0  0  0  0  0  0  0  0  0  0  0
   11.0633   10.4141   27.1139 C   0  0  0  0  0  0  0  0  0  0  0  0
   11.1970    9.0531   27.2657 C   0  0  0  0  0  0  0  0  0  0  0  0
   11.4344    8.5060   28.5571 C   0  0  0  0  0  0  0  0  0  0  0  0
   11.5831    7.3291   28.9097 O   0  0  0  0  0  0  0  0  0  0  0  0
   11.0608    8.4625   26.0365 N   0  0  0  0  0  0  0  0  0  0  0  0
   10.8455    9.4550   25.1522 C   0  0  0  0  0  0  0  0  0  0  0  0
   10.8429   10.6729   25.7843 N   0  0  0  0  0  0  0  0  0  0  0  0
  1  2  1  0  0  0  0
  1  6  1  0  0  0  0
  2  3  2  0  0  0  0
  3  4  1  0  0  0  0
  4  5  2  0  0  0  0
  4 10  1  0  0  0  0
  5  6  1  0  0  0  0
  5  8  1  0  0  0  0
  6  7  2  0  0  0  0
  8  9  1  0  0  0  0
  9 10  2  0  0  0  0
M  END
>  <CHROM.1>
11.20826399,9.52414827,27.60159576,0.20343000,-1.40190364,0.49835016

>  <Name>
ligand

>  <RI>
0

>  <Rbt.Current_Directory>
/home/itssahil/PROJECTS/Mol_Feturizer/New_Systems/rnas/2EET

>  <Rbt.Executable>
rbdock ($Id: //depot/dev/client3/rdock/2013.1/src/exe/rbdock.cxx#4 $)

>  <Rbt.Library>
libRbt.so (2013.1, Build901 2013/11/27)

>  <Rbt.Parameter_File>
/export/apps/rDock/src/rDock_2013.1_src/data/scripts/dock_solv.prm

>  <Rbt.Receptor>
prm/pocket_docking_7.prm

>  <SCORE>
-18.0655

>  <SCORE.INTER>
-18.0655

>  <SCORE.INTER.CONST>
1

>  <SCORE.INTER.POLAR>
0

>  <SCORE.INTER.ROT>
0

>  <SCORE.INTER.SOLV>
4.19773

>  <SCORE.INTER.VDW>
-17.0429

>  <SCORE.INTER.norm>
-1.80655

>  <SCORE.INTRA>
0

>  <SCORE.INTRA.DIHEDRAL>
0

>  <SCORE.INTRA.DIHEDRAL.0>
0

>  <SCORE.INTRA.POLAR>
0

>  <SCORE.INTRA.POLAR.0>
0

>  <SCORE.INTRA.REPUL>
0

>  <SCORE.INTRA.REPUL.0>
0

>  <SCORE.INTRA.SOLV>
0

>  <SCORE.INTRA.SOLV.lig_0>
-4.28464

>  <SCORE.INTRA.VDW>
0

>  <SCORE.INTRA.VDW.0>
0

>  <SCORE.INTRA.norm>
0

>  <SCORE.RESTR>
0

>  <SCORE.RESTR.CAVITY>
0

>  <SCORE.RESTR.norm>
0

>  <SCORE.SYSTEM>
0

>  <SCORE.SYSTEM.CONST>
0

>  <SCORE.SYSTEM.DIHEDRAL>
0

>  <SCORE.SYSTEM.SOLV>
0

>  <SCORE.SYSTEM.norm>
0

>  <SCORE.heavy>
10

>  <SCORE.norm>
-1.80655

>  <RMSD>
0.711

$$$$
ligand
 OpenBabel11021811423D
libRbt.so/2013.1/901 2013/11/27
 10 11  0  0  0  0  0  0  0  0999 V2000
   11.4952    9.5106   29.5230 N   0  0  0  0  0  0  0  0  0  0  0  0
   11.3528   10.8708   29.3100 C   0  0  0  0  0  0  0  0  0  0  0  0
   11.1305   11.3760   28.0906 N   0  0  0  0  0  0  0  0  0  0  0  0
   11.0637   10.4144   27.1136 C   0  0  0  0  0  0  0  0  0  0  0  0
   11.1970    9.0534   27.2652 C   0  0  0  0  0  0  0  0  0  0  0  0
   11.4333    8.5059   28.5567 C   0  0  0  0  0  0  0  0  0  0  0  0
   11.5815    7.3289   28.9091 O   0  0  0  0  0  0  0  0  0  0  0  0
   11.0617    8.4630   26.0358 N   0  0  0  0  0  0  0  0  0  0  0  0
   10.8472    9.4558   25.1515 C   0  0  0  0  0  0  0  0  0  0  0  0
   10.8443   10.6735   25.7839 N   0  0  0  0  0  0  0  0  0  0  0  0
  1  2  1  0  0  0  0
  1  6  1  0  0  0  0
  2  3  2  0  0  0  0
  3  4  1  0  0  0  0
  4  5  2  0  0  0  0
  4 10  1  0  0  0  0
  5  6  1  0  0  0  0
  5  8  1  0  0  0  0
  6  7  2  0  0  0  0
  8  9  1  0  0  0  0
  9 10  2  0  0  0  0
M  END
>  <CHROM.1>
11.20811666,9.52432871,27.60122518,0.20459838,-1.40265591,0.49972213

>  <Name>
ligand

>  <RI>
0

>  <Rbt.Current_Directory>
/home/itssahil/PROJECTS/Mol_Feturizer/New_Systems/rnas/2EET

>  <Rbt.Executable>
rbdock ($Id: //depot/dev/client3/rdock/2013.1/src/exe/rbdock.cxx#4 $)

>  <Rbt.Library>
libRbt.so (2013.1, Build901 2013/11/27)

>  <Rbt.Parameter_File>
/export/apps/rDock/src/rDock_2013.1_src/data/scripts/dock_solv.prm

>  <Rbt.Receptor>
prm/pocket_docking_7.prm

>  <SCORE>
-18.064

>  <SCORE.INTER>
-18.064

>  <SCORE.INTER.CONST>
1

>  <SCORE.INTER.POLAR>
0

>  <SCORE.INTER.ROT>
0

>  <SCORE.INTER.SOLV>
4.19973

>  <SCORE.INTER.VDW>
-17.0425

>  <SCORE.INTER.norm>
-1.8064

>  <SCORE.INTRA>
0

>  <SCORE.INTRA.DIHEDRAL>
0

>  <SCORE.INTRA.DIHEDRAL.0>
0

>  <SCORE.INTRA.POLAR>
0

>  <SCORE.INTRA.POLAR.0>
0

>  <SCORE.INTRA.REPUL>
0

>  <SCORE.INTRA.REPUL.0>
0

>  <SCORE.INTRA.SOLV>
0

>  <SCORE.INTRA.SOLV.lig_0>
-4.28464

>  <SCORE.INTRA.VDW>
0

>  <SCORE.INTRA.VDW.0>
0

>  <SCORE.INTRA.norm>
0

>  <SCORE.RESTR>
0

>  <SCORE.RESTR.CAVITY>
0

>  <SCORE.RESTR.norm>
0

>  <SCORE.SYSTEM>
0

>  <SCORE.SYSTEM.CONST>
0

>  <SCORE.SYSTEM.DIHEDRAL>
0

>  <SCORE.SYSTEM.SOLV>
0

>  <SCORE.SYSTEM.norm>
0

>  <SCORE.heavy>
10

>  <SCORE.norm>
-1.8064

>  <RMSD>
0.711

$$$$
ligand
 OpenBabel11021811423D
libRbt.so/2013.1/901 2013/11/27
 10 11  0  0  0  0  0  0  0  0999 V2000
   11.5044    9.5080   29.5167 N   0  0  0  0  0  0  0  0  0  0  0  0
   11.3611   10.8679   29.3028 C   0  0  0  0  0  0  0  0  0  0  0  0
   11.1324   11.3717   28.0839 N   0  0  0  0  0  0  0  0  0  0  0  0
   11.0602   10.4090   27.1085 C   0  0  0  0  0  0  0  0  0  0  0  0
   11.1942    9.0481   27.2611 C   0  0  0  0  0  0  0  0  0  0  0  0
   11.4372    8.5021   28.5519 C   0  0  0  0  0  0  0  0  0  0  0  0
   11.5872    7.3256   28.9050 O   0  0  0  0  0  0  0  0  0  0  0  0
   11.0521    8.4562   26.0331 N   0  0  0  0  0  0  0  0  0  0  0  0
   10.8330    9.4479   25.1488 C   0  0  0  0  0  0  0  0  0  0  0  0
   10.8338   10.6664   25.7797 N   0  0  0  0  0  0  0  0  0  0  0  0
  1  2  1  0  0  0  0
  1  6  1  0  0  0  0
  2  3  2  0  0  0  0
  3  4  1  0  0  0  0
  4  5  2  0  0  0  0
  4 10  1  0  0  0  0
  5  6  1  0  0  0  0
  5  8  1  0  0  0  0
  6  7  2  0  0  0  0
  8  9  1  0  0  0  0
  9 10  2  0  0  0  0
M  END
>  <CHROM.1>
11.20709969,9.51942524,27.59646503,0.18888806,-1.39801530,0.48300652

>  <Name>
ligand

>  <RI>
0

>  <Rbt.Current_Directory>
/home/itssahil/PROJECTS/Mol_Feturizer/New_Systems/rnas/2EET

>  <Rbt.Executable>
rbdock ($Id: //depot/dev/client3/rdock/2013.1/src/exe/rbdock.cxx#4 $)

>  <Rbt.Library>
libRbt.so (2013.1, Build901 2013/11/27)

>  <Rbt.Parameter_File>
/export/apps/rDock/src/rDock_2013.1_src/data/scripts/dock_solv.prm

>  <Rbt.Receptor>
prm/pocket_docking_7.prm

>  <SCORE>
-18.0735

>  <SCORE.INTER>
-18.0735

>  <SCORE.INTER.CONST>
1

>  <SCORE.INTER.POLAR>
0

>  <SCORE.INTER.ROT>
0

>  <SCORE.INTER.SOLV>
4.18813

>  <SCORE.INTER.VDW>
-17.045

>  <SCORE.INTER.norm>
-1.80735

>  <SCORE.INTRA>
0

>  <SCORE.INTRA.DIHEDRAL>
0

>  <SCORE.INTRA.DIHEDRAL.0>
0

>  <SCORE.INTRA.POLAR>
0

>  <SCORE.INTRA.POLAR.0>
0

>  <SCORE.INTRA.REPUL>
0

>  <SCORE.INTRA.REPUL.0>
0

>  <SCORE.INTRA.SOLV>
0

>  <SCORE.INTRA.SOLV.lig_0>
-4.28464

>  <SCORE.INTRA.VDW>
0

>  <SCORE.INTRA.VDW.0>
0

>  <SCORE.INTRA.norm>
0

>  <SCORE.RESTR>
0

>  <SCORE.RESTR.CAVITY>
0

>  <SCORE.RESTR.norm>
0

>  <SCORE.SYSTEM>
0

>  <SCORE.SYSTEM.CONST>
0

>  <SCORE.SYSTEM.DIHEDRAL>
0

>  <SCORE.SYSTEM.SOLV>
0

>  <SCORE.SYSTEM.norm>
0

>  <SCORE.heavy>
10

>  <SCORE.norm>
-1.80735

>  <RMSD>
0.711

$$$$
ligand
 OpenBabel11021811423D
libRbt.so/2013.1/901 2013/11/27
 10 11  0  0  0  0  0  0  0  0999 V2000
   11.4974    9.4903   29.4806 N   0  0  0  0  0  0  0  0  0  0  0  0
   11.3532   10.8544   29.2963 C   0  0  0  0  0  0  0  0  0  0  0  0
   11.1203   11.3841   28.0892 N   0  0  0  0  0  0  0  0  0  0  0  0
   11.0450   10.4424   27.0937 C   0  0  0  0  0  0  0  0  0  0  0  0
   11.1796    9.0786   27.2167 C   0  0  0  0  0  0  0  0  0  0  0  0
   11.4271    8.5052   28.4948 C   0  0  0  0  0  0  0  0  0  0  0  0
   11.5784    7.3214   28.8221 O   0  0  0  0  0  0  0  0  0  0  0  0
   11.0335    8.5130   25.9769 N   0  0  0  0  0  0  0  0  0  0  0  0
   10.8113    9.5234   25.1147 C   0  0  0  0  0  0  0  0  0  0  0  0
   10.8140   10.7281   25.7715 N   0  0  0  0  0  0  0  0  0  0  0  0
  1  2  1  0  0  0  0
  1  6  1  0  0  0  0
  2  3  2  0  0  0  0
  3  4  1  0  0  0  0
  4  5  2  0  0  0  0
  4 10  1  0  0  0  0
  5  6  1  0  0  0  0
  5  8  1  0  0  0  0
  6  7  2  0  0  0  0
  8  9  1  0  0  0  0
  9 10  2  0  0  0  0
M  END
>  <CHROM.1>
11.19359537,9.54263177,27.56203846,0.18062672,-1.39495415,0.49624372

>  <Name>
ligand

>  <RI>
0

>  <Rbt.Current_Directory>
/home/itssahil/PROJECTS/Mol_Feturizer/New_Systems/rnas/2EET

>  <Rbt.Executable>
rbdock ($Id: //depot/dev/client3/rdock/2013.1/src/exe/rbdock.cxx#4 $)

>  <Rbt.Library>
libRbt.so (2013.1, Build901 2013/11/27)

>  <Rbt.Parameter_File>
/export/apps/rDock/src/rDock_2013.1_src/data/scripts/dock_solv.prm

>  <Rbt.Receptor>
prm/pocket_docking_8.prm

>  <SCORE>
-18.0399

>  <SCORE.INTER>
-18.0399

>  <SCORE.INTER.CONST>
1

>  <SCORE.INTER.POLAR>
0

>  <SCORE.INTER.ROT>
0

>  <SCORE.INTER.SOLV>
4.14893

>  <SCORE.INTER.VDW>
-17.0095

>  <SCORE.INTER.norm>
-1.80399

>  <SCORE.INTRA>
0

>  <SCORE.INTRA.DIHEDRAL>
0

>  <SCORE.INTRA.DIHEDRAL.0>
0

>  <SCORE.INTRA.POLAR>
0

>  <SCORE.INTRA.POLAR.0>
0

>  <SCORE.INTRA.REPUL>
0

>  <SCORE.INTRA.REPUL.0>
0

>  <SCORE.INTRA.SOLV>
0

>  <SCORE.INTRA.SOLV.lig_0>
-4.28464

>  <SCORE.INTRA.VDW>
0

>  <SCORE.INTRA.VDW.0>
0

>  <SCORE.INTRA.norm>
0

>  <SCORE.RESTR>
0

>  <SCORE.RESTR.CAVITY>
0

>  <SCORE.RESTR.norm>
0

>  <SCORE.SYSTEM>
0

>  <SCORE.SYSTEM.CONST>
0

>  <SCORE.SYSTEM.DIHEDRAL>
0

>  <SCORE.SYSTEM.SOLV>
0

>  <SCORE.SYSTEM.norm>
0

>  <SCORE.heavy>
10

>  <SCORE.norm>
-1.80399

>  <RMSD>
0.711

$$$$
ligand
 OpenBabel11021811423D
libRbt.so/2013.1/901 2013/11/27
 10 11  0  0  0  0  0  0  0  0999 V2000
   11.5035    9.4896   29.5036 N   0  0  0  0  0  0  0  0  0  0  0  0
   11.3657   10.8509   29.2950 C   0  0  0  0  0  0  0  0  0  0  0  0
   11.1369   11.3602   28.0785 N   0  0  0  0  0  0  0  0  0  0  0  0
   11.0589   10.4014   27.0996 C   0  0  0  0  0  0  0  0  0  0  0  0
   11.1872    9.0394   27.2468 C   0  0  0  0  0  0  0  0  0  0  0  0
   11.4303    8.4876   28.5352 C   0  0  0  0  0  0  0  0  0  0  0  0
   11.5758    7.3091   28.8836 O   0  0  0  0  0  0  0  0  0  0  0  0
   11.0404    8.4528   26.0170 N   0  0  0  0  0  0  0  0  0  0  0  0
   10.8240    9.4487   25.1367 C   0  0  0  0  0  0  0  0  0  0  0  0
   10.8311   10.6648   25.7722 N   0  0  0  0  0  0  0  0  0  0  0  0
  1  2  1  0  0  0  0
  1  6  1  0  0  0  0
  2  3  2  0  0  0  0
  3  4  1  0  0  0  0
  4  5  2  0  0  0  0
  4 10  1  0  0  0  0
  5  6  1  0  0  0  0
  5  8  1  0  0  0  0
  6  7  2  0  0  0  0
  8  9  1  0  0  0  0
  9 10  2  0  0  0  0
M  END
>  <CHROM.1>
11.20280065,9.50945470,27.58395755,0.16180181,-1.39836420,0.46005817

>  <Name>
ligand

>  <RI>
0

>  <Rbt.Current_Directory>
/home/itssahil/PROJECTS/Mol_Feturizer/New_Systems/rnas/2EET

>  <Rbt.Executable>
rbdock ($Id: //depot/dev/client3/rdock/2013.1/src/exe/rbdock.cxx#4 $)

>  <Rbt.Library>
libRbt.so (2013.1, Build901 2013/11/27)

>  <Rbt.Parameter_File>
/export/apps/rDock/src/rDock_2013.1_src/data/scripts/dock_solv.prm

>  <Rbt.Receptor>
prm/pocket_docking_8.prm

>  <SCORE>
-18.0534

>  <SCORE.INTER>
-18.0534

>  <SCORE.INTER.CONST>
1

>  <SCORE.INTER.POLAR>
0

>  <SCORE.INTER.ROT>
0

>  <SCORE.INTER.SOLV>
4.1912

>  <SCORE.INTER.VDW>
-17.0326

>  <SCORE.INTER.norm>
-1.80534

>  <SCORE.INTRA>
0

>  <SCORE.INTRA.DIHEDRAL>
0

>  <SCORE.INTRA.DIHEDRAL.0>
0

>  <SCORE.INTRA.POLAR>
0

>  <SCORE.INTRA.POLAR.0>
0

>  <SCORE.INTRA.REPUL>
0

>  <SCORE.INTRA.REPUL.0>
0

>  <SCORE.INTRA.SOLV>
0

>  <SCORE.INTRA.SOLV.lig_0>
-4.28464

>  <SCORE.INTRA.VDW>
0

>  <SCORE.INTRA.VDW.0>
0

>  <SCORE.INTRA.norm>
0

>  <SCORE.RESTR>
0

>  <SCORE.RESTR.CAVITY>
0

>  <SCORE.RESTR.norm>
0

>  <SCORE.SYSTEM>
0

>  <SCORE.SYSTEM.CONST>
0

>  <SCORE.SYSTEM.DIHEDRAL>
0

>  <SCORE.SYSTEM.SOLV>
0

>  <SCORE.SYSTEM.norm>
0

>  <SCORE.heavy>
10

>  <SCORE.norm>
-1.80534

>  <RMSD>
0.711

$$$$
ligand
 OpenBabel11021811423D
libRbt.so/2013.1/901 2013/11/27
 10 11  0  0  0  0  0  0  0  0999 V2000
   11.4879    9.4891   29.5059 N   0  0  0  0  0  0  0  0  0  0  0  0
   11.3391   10.8495   29.2987 C   0  0  0  0  0  0  0  0  0  0  0  0
   11.1127   11.3587   28.0817 N   0  0  0  0  0  0  0  0  0  0  0  0
   11.0488   10.4008   27.1009 C   0  0  0  0  0  0  0  0  0  0  0  0
   11.1885    9.0398   27.2467 C   0  0  0  0  0  0  0  0  0  0  0  0
   11.4292    8.4881   28.5356 C   0  0  0  0  0  0  0  0  0  0  0  0
   11.5833    7.3104   28.8830 O   0  0  0  0  0  0  0  0  0  0  0  0
   11.0540    8.4538   26.0151 N   0  0  0  0  0  0  0  0  0  0  0  0
   10.8336    9.4493   25.1352 C   0  0  0  0  0  0  0  0  0  0  0  0
   10.8262   10.6643   25.7726 N   0  0  0  0  0  0  0  0  0  0  0  0
  1  2  1  0  0  0  0
  1  6  1  0  0  0  0
  2  3  2  0  0  0  0
  3  4  1  0  0  0  0
  4  5  2  0  0  0  0
  4 10  1  0  0  0  0
  5  6  1  0  0  0  0
  5  8  1  0  0  0  0
  6  7  2  0  0  0  0
  8  9  1  0  0  0  0
  9 10  2  0  0  0  0
M  END
>  <CHROM.1>
11.19795309,9.50940663,27.58463563,0.22368652,-1.39912945,0.52262308

>  <Name>
ligand

>  <RI>
0

>  <Rbt.Current_Directory>
/home/itssahil/PROJECTS/Mol_Feturizer/New_Systems/rnas/2EET

>  <Rbt.Executable>
rbdock ($Id: //depot/dev/client3/rdock/2013.1/src/exe/rbdock.cxx#4 $)

>  <Rbt.Library>
libRbt.so (2013.1, Build901 2013/11/27)

>  <Rbt.Parameter_File>
/export/apps/rDock/src/rDock_2013.1_src/data/scripts/dock_solv.prm

>  <Rbt.Receptor>
prm/pocket_docking_8.prm

>  <SCORE>
-18.0496

>  <SCORE.INTER>
-18.0496

>  <SCORE.INTER.CONST>
1

>  <SCORE.INTER.POLAR>
0

>  <SCORE.INTER.ROT>
0

>  <SCORE.INTER.SOLV>
4.18038

>  <SCORE.INTER.VDW>
-17.0265

>  <SCORE.INTER.norm>
-1.80496

>  <SCORE.INTRA>
0

>  <SCORE.INTRA.DIHEDRAL>
0

>  <SCORE.INTRA.DIHEDRAL.0>
0

>  <SCORE.INTRA.POLAR>
0

>  <SCORE.INTRA.POLAR.0>
0

>  <SCORE.INTRA.REPUL>
0

>  <SCORE.INTRA.REPUL.0>
0

>  <SCORE.INTRA.SOLV>
0

>  <SCORE.INTRA.SOLV.lig_0>
-4.28464

>  <SCORE.INTRA.VDW>
0

>  <SCORE.INTRA.VDW.0>
0

>  <SCORE.INTRA.norm>
0

>  <SCORE.RESTR>
0

>  <SCORE.RESTR.CAVITY>
0

>  <SCORE.RESTR.norm>
0

>  <SCORE.SYSTEM>
0

>  <SCORE.SYSTEM.CONST>
0

>  <SCORE.SYSTEM.DIHEDRAL>
0

>  <SCORE.SYSTEM.SOLV>
0

>  <SCORE.SYSTEM.norm>
0

>  <SCORE.heavy>
10

>  <SCORE.norm>
-1.80496

>  <RMSD>
0.711

$$$$
ligand
 OpenBabel11021811423D
libRbt.so/2013.1/901 2013/11/27
 10 11  0  0  0  0  0  0  0  0999 V2000
   11.4943    9.5101   29.5251 N   0  0  0  0  0  0  0  0  0  0  0  0
   11.3592   10.8710   29.3119 C   0  0  0  0  0  0  0  0  0  0  0  0
   11.1309   11.3765   28.0937 N   0  0  0  0  0  0  0  0  0  0  0  0
   11.0503   10.4145   27.1182 C   0  0  0  0  0  0  0  0  0  0  0  0
   11.1758    9.0528   27.2701 C   0  0  0  0  0  0  0  0  0  0  0  0
   11.4184    8.5049   28.5603 C   0  0  0  0  0  0  0  0  0  0  0  0
   11.5616    7.3273   28.9127 O   0  0  0  0  0  0  0  0  0  0  0  0
   11.0270    8.4622   26.0424 N   0  0  0  0  0  0  0  0  0  0  0  0
   10.8122    9.4555   25.1588 C   0  0  0  0  0  0  0  0  0  0  0  0
   10.8223   10.6738   25.7900 N   0  0  0  0  0  0  0  0  0  0  0  0
  1  2  1  0  0  0  0
  1  6  1  0  0  0  0
  2  3  2  0  0  0  0
  3  4  1  0  0  0  0
  4  5  2  0  0  0  0
  4 10  1  0  0  0  0
  5  6  1  0  0  0  0
  5  8  1  0  0  0  0
  6  7  2  0  0  0  0
  8  9  1  0  0  0  0
  9 10  2  0  0  0  0
M  END
>  <CHROM.1>
11.19254183,9.52394024,27.60559042,0.14917794,-1.39878078,0.44414321

>  <Name>
ligand

>  <RI>
0

>  <Rbt.Current_Directory>
/home/itssahil/PROJECTS/Mol_Feturizer/New_Systems/rnas/2EET

>  <Rbt.Executable>
rbdock ($Id: //depot/dev/client3/rdock/2013.1/src/exe/rbdock.cxx#4 $)

>  <Rbt.Library>
libRbt.so (2013.1, Build901 2013/11/27)

>  <Rbt.Parameter_File>
/export/apps/rDock/src/rDock_2013.1_src/data/scripts/dock_solv.prm

>  <Rbt.Receptor>
prm/blind_docking_100.prm

>  <SCORE>
-18.0463

>  <SCORE.INTER>
-18.0463

>  <SCORE.INTER.CONST>
1

>  <SCORE.INTER.POLAR>
0

>  <SCORE.INTER.ROT>
0

>  <SCORE.INTER.SOLV>
4.22275

>  <SCORE.INTER.VDW>
-17.0385

>  <SCORE.INTER.norm>
-1.80463

>  <SCORE.INTRA>
0

>  <SCORE.INTRA.DIHEDRAL>
0

>  <SCORE.INTRA.DIHEDRAL.0>
0

>  <SCORE.INTRA.POLAR>
0

>  <SCORE.INTRA.POLAR.0>
0

>  <SCORE.INTRA.REPUL>
0

>  <SCORE.INTRA.REPUL.0>
0

>  <SCORE.INTRA.SOLV>
0

>  <SCORE.INTRA.SOLV.lig_0>
-4.28464

>  <SCORE.INTRA.VDW>
0

>  <SCORE.INTRA.VDW.0>
0

>  <SCORE.INTRA.norm>
0

>  <SCORE.RESTR>
0

>  <SCORE.RESTR.CAVITY>
0

>  <SCORE.RESTR.norm>
0

>  <SCORE.SYSTEM>
0

>  <SCORE.SYSTEM.CONST>
0

>  <SCORE.SYSTEM.DIHEDRAL>
0

>  <SCORE.SYSTEM.SOLV>
0

>  <SCORE.SYSTEM.norm>
0

>  <SCORE.heavy>
10

>  <SCORE.norm>
-1.80463

>  <RMSD>
0.712

$$$$
ligand
 OpenBabel11021811423D
libRbt.so/2013.1/901 2013/11/27
 10 11  0  0  0  0  0  0  0  0999 V2000
   11.5015    9.5072   29.5155 N   0  0  0  0  0  0  0  0  0  0  0  0
   11.3592   10.8672   29.3014 C   0  0  0  0  0  0  0  0  0  0  0  0
   11.1321   11.3711   28.0823 N   0  0  0  0  0  0  0  0  0  0  0  0
   11.0605   10.4084   27.1068 C   0  0  0  0  0  0  0  0  0  0  0  0
   11.1934    9.0474   27.2595 C   0  0  0  0  0  0  0  0  0  0  0  0
   11.4348    8.5014   28.5507 C   0  0  0  0  0  0  0  0  0  0  0  0
   11.5837    7.3247   28.9039 O   0  0  0  0  0  0  0  0  0  0  0  0
   11.0524    8.4557   26.0314 N   0  0  0  0  0  0  0  0  0  0  0  0
   10.8348    9.4475   25.1469 C   0  0  0  0  0  0  0  0  0  0  0  0
   10.8355   10.6660   25.7778 N   0  0  0  0  0  0  0  0  0  0  0  0
  1  2  1  0  0  0  0
  1  6  1  0  0  0  0
  2  3  2  0  0  0  0
  3  4  1  0  0  0  0
  4  5  2  0  0  0  0
  4 10  1  0  0  0  0
  5  6  1  0  0  0  0
  5  8  1  0  0  0  0
  6  7  2  0  0  0  0
  8  9  1  0  0  0  0
  9 10  2  0  0  0  0
M  END
>  <CHROM.1>
11.20628258,9.51876798,27.59494754,0.18891994,-1.39923607,0.48304908

>  <Name>
ligand

>  <RI>
0

>  <Rbt.Current_Directory>
/home/itssahil/PROJECTS/Mol_Feturizer/New_Systems/rnas/2EET

>  <Rbt.Executable>
rbdock ($Id: //depot/dev/client3/rdock/2013.1/src/exe/rbdock.cxx#4 $)

>  <Rbt.Library>
libRbt.so (2013.1, Build901 2013/11/27)

>  <Rbt.Parameter_File>
/export/apps/rDock/src/rDock_2013.1_src/data/scripts/dock_solv.prm

>  <Rbt.Receptor>
prm/blind_docking_40.prm

>  <SCORE>
-18.0722

>  <SCORE.INTER>
-18.0722

>  <SCORE.INTER.CONST>
1

>  <SCORE.INTER.POLAR>
0

>  <SCORE.INTER.ROT>
0

>  <SCORE.INTER.SOLV>
4.19183

>  <SCORE.INTER.VDW>
-17.0454

>  <SCORE.INTER.norm>
-1.80722

>  <SCORE.INTRA>
0

>  <SCORE.INTRA.DIHEDRAL>
0

>  <SCORE.INTRA.DIHEDRAL.0>
0

>  <SCORE.INTRA.POLAR>
0

>  <SCORE.INTRA.POLAR.0>
0

>  <SCORE.INTRA.REPUL>
0

>  <SCORE.INTRA.REPUL.0>
0

>  <SCORE.INTRA.SOLV>
0

>  <SCORE.INTRA.SOLV.lig_0>
-4.28464

>  <SCORE.INTRA.VDW>
0

>  <SCORE.INTRA.VDW.0>
0

>  <SCORE.INTRA.norm>
0

>  <SCORE.RESTR>
0

>  <SCORE.RESTR.CAVITY>
0

>  <SCORE.RESTR.norm>
0

>  <SCORE.SYSTEM>
0

>  <SCORE.SYSTEM.CONST>
0

>  <SCORE.SYSTEM.DIHEDRAL>
0

>  <SCORE.SYSTEM.SOLV>
0

>  <SCORE.SYSTEM.norm>
0

>  <SCORE.heavy>
10

>  <SCORE.norm>
-1.80722

>  <RMSD>
0.712

$$$$
ligand
 OpenBabel11021811423D
libRbt.so/2013.1/901 2013/11/27
 10 11  0  0  0  0  0  0  0  0999 V2000
   11.4978    9.5101   29.5193 N   0  0  0  0  0  0  0  0  0  0  0  0
   11.3516   10.8696   29.3045 C   0  0  0  0  0  0  0  0  0  0  0  0
   11.1239   11.3724   28.0851 N   0  0  0  0  0  0  0  0  0  0  0  0
   11.0556   10.4091   27.1099 C   0  0  0  0  0  0  0  0  0  0  0  0
   11.1925    9.0486   27.2633 C   0  0  0  0  0  0  0  0  0  0  0  0
   11.4346    8.5037   28.5548 C   0  0  0  0  0  0  0  0  0  0  0  0
   11.5867    7.3276   28.9086 O   0  0  0  0  0  0  0  0  0  0  0  0
   11.0539    8.4559   26.0353 N   0  0  0  0  0  0  0  0  0  0  0  0
   10.8340    9.4468   25.1502 C   0  0  0  0  0  0  0  0  0  0  0  0
   10.8308   10.6655   25.7807 N   0  0  0  0  0  0  0  0  0  0  0  0
  1  2  1  0  0  0  0
  1  6  1  0  0  0  0
  2  3  2  0  0  0  0
  3  4  1  0  0  0  0
  4  5  2  0  0  0  0
  4 10  1  0  0  0  0
  5  6  1  0  0  0  0
  5  8  1  0  0  0  0
  6  7  2  0  0  0  0
  8  9  1  0  0  0  0
  9 10  2  0  0  0  0
M  END
>  <CHROM.1>
11.20373708,9.52007492,27.59850245,0.20558604,-1.39843073,0.49906348

>  <Name>
ligand

>  <RI>
0

>  <Rbt.Current_Directory>
/home/itssahil/PROJECTS/Mol_Feturizer/New_Systems/rnas/2EET

>  <Rbt.Executable>
rbdock ($Id: //depot/dev/client3/rdock/2013.1/src/exe/rbdock.cxx#4 $)

>  <Rbt.Library>
libRbt.so (2013.1, Build901 2013/11/27)

>  <Rbt.Parameter_File>
/export/apps/rDock/src/rDock_2013.1_src/data/scripts/dock_solv.prm

>  <Rbt.Receptor>
prm/blind_docking_40.prm

>  <SCORE>
-18.064

>  <SCORE.INTER>
-18.064

>  <SCORE.INTER.CONST>
1

>  <SCORE.INTER.POLAR>
0

>  <SCORE.INTER.ROT>
0

>  <SCORE.INTER.SOLV>
4.1891

>  <SCORE.INTER.VDW>
-17.039

>  <SCORE.INTER.norm>
-1.8064

>  <SCORE.INTRA>
0

>  <SCORE.INTRA.DIHEDRAL>
0

>  <SCORE.INTRA.DIHEDRAL.0>
0

>  <SCORE.INTRA.POLAR>
0

>  <SCORE.INTRA.POLAR.0>
0

>  <SCORE.INTRA.REPUL>
0

>  <SCORE.INTRA.REPUL.0>
0

>  <SCORE.INTRA.SOLV>
0

>  <SCORE.INTRA.SOLV.lig_0>
-4.28464

>  <SCORE.INTRA.VDW>
0

>  <SCORE.INTRA.VDW.0>
0

>  <SCORE.INTRA.norm>
0

>  <SCORE.RESTR>
0

>  <SCORE.RESTR.CAVITY>
0

>  <SCORE.RESTR.norm>
0

>  <SCORE.SYSTEM>
0

>  <SCORE.SYSTEM.CONST>
0

>  <SCORE.SYSTEM.DIHEDRAL>
0

>  <SCORE.SYSTEM.SOLV>
0

>  <SCORE.SYSTEM.norm>
0

>  <SCORE.heavy>
10

>  <SCORE.norm>
-1.8064

>  <RMSD>
0.712

$$$$
ligand
 OpenBabel11021811423D
libRbt.so/2013.1/901 2013/11/27
 10 11  0  0  0  0  0  0  0  0999 V2000
   11.5004    9.5065   29.5162 N   0  0  0  0  0  0  0  0  0  0  0  0
   11.3593   10.8668   29.3029 C   0  0  0  0  0  0  0  0  0  0  0  0
   11.1333   11.3715   28.0839 N   0  0  0  0  0  0  0  0  0  0  0  0
   11.0613   10.4094   27.1079 C   0  0  0  0  0  0  0  0  0  0  0  0
   11.1931    9.0483   27.2598 C   0  0  0  0  0  0  0  0  0  0  0  0
   11.4334    8.5013   28.5508 C   0  0  0  0  0  0  0  0  0  0  0  0
   11.5811    7.3243   28.9034 O   0  0  0  0  0  0  0  0  0  0  0  0
   11.0521    8.4573   26.0314 N   0  0  0  0  0  0  0  0  0  0  0  0
   10.8358    9.4499   25.1473 C   0  0  0  0  0  0  0  0  0  0  0  0
   10.8373   10.6680   25.7789 N   0  0  0  0  0  0  0  0  0  0  0  0
  1  2  1  0  0  0  0
  1  6  1  0  0  0  0
  2  3  2  0  0  0  0
  3  4  1  0  0  0  0
  4  5  2  0  0  0  0
  4 10  1  0  0  0  0
  5  6  1  0  0  0  0
  5  8  1  0  0  0  0
  6  7  2  0  0  0  0
  8  9  1  0  0  0  0
  9 10  2  0  0  0  0
M  END
>  <CHROM.1>
11.20614138,9.51942651,27.59553461,0.18591858,-1.40005512,0.48065190

>  <Name>
ligand

>  <RI>
0

>  <Rbt.Current_Directory>
/home/itssahil/PROJECTS/Mol_Feturizer/New_Systems/rnas/2EET

>  <Rbt.Executable>
rbdock ($Id: //depot/dev/client3/rdock/2013.1/src/exe/rbdock.cxx#4 $)

>  <Rbt.Library>
libRbt.so (2013.1, Build901 2013/11/27)

>  <Rbt.Parameter_File>
/export/apps/rDock/src/rDock_2013.1_src/data/scripts/dock_solv.prm

>  <Rbt.Receptor>
prm/blind_docking_40.prm

>  <SCORE>
-18.074

>  <SCORE.INTER>
-18.074

>  <SCORE.INTER.CONST>
1

>  <SCORE.INTER.POLAR>
0

>  <SCORE.INTER.ROT>
0

>  <SCORE.INTER.SOLV>
4.19556

>  <SCORE.INTER.VDW>
-17.0478

>  <SCORE.INTER.norm>
-1.8074

>  <SCORE.INTRA>
0

>  <SCORE.INTRA.DIHEDRAL>
0

>  <SCORE.INTRA.DIHEDRAL.0>
0

>  <SCORE.INTRA.POLAR>
0

>  <SCORE.INTRA.POLAR.0>
0

>  <SCORE.INTRA.REPUL>
0

>  <SCORE.INTRA.REPUL.0>
0

>  <SCORE.INTRA.SOLV>
0

>  <SCORE.INTRA.SOLV.lig_0>
-4.28464

>  <SCORE.INTRA.VDW>
0

>  <SCORE.INTRA.VDW.0>
0

>  <SCORE.INTRA.norm>
0

>  <SCORE.RESTR>
0

>  <SCORE.RESTR.CAVITY>
0

>  <SCORE.RESTR.norm>
0

>  <SCORE.SYSTEM>
0

>  <SCORE.SYSTEM.CONST>
0

>  <SCORE.SYSTEM.DIHEDRAL>
0

>  <SCORE.SYSTEM.SOLV>
0

>  <SCORE.SYSTEM.norm>
0

>  <SCORE.heavy>
10

>  <SCORE.norm>
-1.8074

>  <RMSD>
0.712

$$$$
ligand
 OpenBabel11021811423D
libRbt.so/2013.1/901 2013/11/27
 10 11  0  0  0  0  0  0  0  0999 V2000
   11.5013    9.5086   29.5184 N   0  0  0  0  0  0  0  0  0  0  0  0
   11.3601   10.8687   29.3042 C   0  0  0  0  0  0  0  0  0  0  0  0
   11.1335   11.3728   28.0851 N   0  0  0  0  0  0  0  0  0  0  0  0
   11.0611   10.4101   27.1096 C   0  0  0  0  0  0  0  0  0  0  0  0
   11.1930    9.0491   27.2624 C   0  0  0  0  0  0  0  0  0  0  0  0
   11.4339    8.5028   28.5535 C   0  0  0  0  0  0  0  0  0  0  0  0
   11.5818    7.3260   28.9068 O   0  0  0  0  0  0  0  0  0  0  0  0
   11.0516    8.4573   26.0343 N   0  0  0  0  0  0  0  0  0  0  0  0
   10.8349    9.4494   25.1497 C   0  0  0  0  0  0  0  0  0  0  0  0
   10.8365   10.6679   25.7806 N   0  0  0  0  0  0  0  0  0  0  0  0
  1  2  1  0  0  0  0
  1  6  1  0  0  0  0
  2  3  2  0  0  0  0
  3  4  1  0  0  0  0
  4  5  2  0  0  0  0
  4 10  1  0  0  0  0
  5  6  1  0  0  0  0
  5  8  1  0  0  0  0
  6  7  2  0  0  0  0
  8  9  1  0  0  0  0
  9 10  2  0  0  0  0
M  END
>  <CHROM.1>
11.20624123,9.52037829,27.59777516,0.18497562,-1.39965104,0.47914057

>  <Name>
ligand

>  <RI>
0

>  <Rbt.Current_Directory>
/home/itssahil/PROJECTS/Mol_Feturizer/New_Systems/rnas/2EET

>  <Rbt.Executable>
rbdock ($Id: //depot/dev/client3/rdock/2013.1/src/exe/rbdock.cxx#4 $)

>  <Rbt.Library>
libRbt.so (2013.1, Build901 2013/11/27)

>  <Rbt.Parameter_File>
/export/apps/rDock/src/rDock_2013.1_src/data/scripts/dock_solv.prm

>  <Rbt.Receptor>
prm/blind_docking_60.prm

>  <SCORE>
-18.0755

>  <SCORE.INTER>
-18.0755

>  <SCORE.INTER.CONST>
1

>  <SCORE.INTER.POLAR>
0

>  <SCORE.INTER.ROT>
0

>  <SCORE.INTER.SOLV>
4.19626

>  <SCORE.INTER.VDW>
-17.0491

>  <SCORE.INTER.norm>
-1.80755

>  <SCORE.INTRA>
0

>  <SCORE.INTRA.DIHEDRAL>
0

>  <SCORE.INTRA.DIHEDRAL.0>
0

>  <SCORE.INTRA.POLAR>
0

>  <SCORE.INTRA.POLAR.0>
0

>  <SCORE.INTRA.REPUL>
0

>  <SCORE.INTRA.REPUL.0>
0

>  <SCORE.INTRA.SOLV>
0

>  <SCORE.INTRA.SOLV.lig_0>
-4.28464

>  <SCORE.INTRA.VDW>
0

>  <SCORE.INTRA.VDW.0>
0

>  <SCORE.INTRA.norm>
0

>  <SCORE.RESTR>
0

>  <SCORE.RESTR.CAVITY>
0

>  <SCORE.RESTR.norm>
0

>  <SCORE.SYSTEM>
0

>  <SCORE.SYSTEM.CONST>
0

>  <SCORE.SYSTEM.DIHEDRAL>
0

>  <SCORE.SYSTEM.SOLV>
0

>  <SCORE.SYSTEM.norm>
0

>  <SCORE.heavy>
10

>  <SCORE.norm>
-1.80755

>  <RMSD>
0.712

$$$$
ligand
 OpenBabel11021811423D
libRbt.so/2013.1/901 2013/11/27
 10 11  0  0  0  0  0  0  0  0999 V2000
   11.4862    9.4849   29.5101 N   0  0  0  0  0  0  0  0  0  0  0  0
   11.3588   10.8478   29.3051 C   0  0  0  0  0  0  0  0  0  0  0  0
   11.1375   11.3623   28.0893 N   0  0  0  0  0  0  0  0  0  0  0  0
   11.0556   10.4070   27.1074 C   0  0  0  0  0  0  0  0  0  0  0  0
   11.1737    9.0437   27.2510 C   0  0  0  0  0  0  0  0  0  0  0  0
   11.4088    8.4864   28.5385 C   0  0  0  0  0  0  0  0  0  0  0  0
   11.5448    7.3058   28.8838 O   0  0  0  0  0  0  0  0  0  0  0  0
   11.0265    8.4617   26.0189 N   0  0  0  0  0  0  0  0  0  0  0  0
   10.8200    9.4618   25.1410 C   0  0  0  0  0  0  0  0  0  0  0  0
   10.8339   10.6759   25.7801 N   0  0  0  0  0  0  0  0  0  0  0  0
  1  2  1  0  0  0  0
  1  6  1  0  0  0  0
  2  3  2  0  0  0  0
  3  4  1  0  0  0  0
  4  5  2  0  0  0  0
  4 10  1  0  0  0  0
  5  6  1  0  0  0  0
  5  8  1  0  0  0  0
  6  7  2  0  0  0  0
  8  9  1  0  0  0  0
  9 10  2  0  0  0  0
M  END
>  <CHROM.1>
11.19161384,9.51259628,27.58954884,0.13134929,-1.40424574,0.43299028

>  <Name>
ligand

>  <RI>
0

>  <Rbt.Current_Directory>
/home/itssahil/PROJECTS/Mol_Feturizer/New_Systems/rnas/2EET

>  <Rbt.Executable>
rbdock ($Id: //depot/dev/client3/rdock/2013.1/src/exe/rbdock.cxx#4 $)

>  <Rbt.Library>
libRbt.so (2013.1, Build901 2013/11/27)

>  <Rbt.Parameter_File>
/export/apps/rDock/src/rDock_2013.1_src/data/scripts/dock_solv.prm

>  <Rbt.Receptor>
prm/blind_docking_60.prm

>  <SCORE>
-18.0582

>  <SCORE.INTER>
-18.0582

>  <SCORE.INTER.CONST>
1

>  <SCORE.INTER.POLAR>
0

>  <SCORE.INTER.ROT>
0

>  <SCORE.INTER.SOLV>
4.23379

>  <SCORE.INTER.VDW>
-17.0501

>  <SCORE.INTER.norm>
-1.80582

>  <SCORE.INTRA>
0

>  <SCORE.INTRA.DIHEDRAL>
0

>  <SCORE.INTRA.DIHEDRAL.0>
0

>  <SCORE.INTRA.POLAR>
0

>  <SCORE.INTRA.POLAR.0>
0

>  <SCORE.INTRA.REPUL>
0

>  <SCORE.INTRA.REPUL.0>
0

>  <SCORE.INTRA.SOLV>
0

>  <SCORE.INTRA.SOLV.lig_0>
-4.28464

>  <SCORE.INTRA.VDW>
0

>  <SCORE.INTRA.VDW.0>
0

>  <SCORE.INTRA.norm>
0

>  <SCORE.RESTR>
0

>  <SCORE.RESTR.CAVITY>
0

>  <SCORE.RESTR.norm>
0

>  <SCORE.SYSTEM>
0

>  <SCORE.SYSTEM.CONST>
0

>  <SCORE.SYSTEM.DIHEDRAL>
0

>  <SCORE.SYSTEM.SOLV>
0

>  <SCORE.SYSTEM.norm>
0

>  <SCORE.heavy>
10

>  <SCORE.norm>
-1.80582

>  <RMSD>
0.712

$$$$
ligand
 OpenBabel11021811423D
libRbt.so/2013.1/901 2013/11/27
 10 11  0  0  0  0  0  0  0  0999 V2000
   11.4892    9.4855   29.5010 N   0  0  0  0  0  0  0  0  0  0  0  0
   11.3347   10.8452   29.2935 C   0  0  0  0  0  0  0  0  0  0  0  0
   11.1019   11.3528   28.0770 N   0  0  0  0  0  0  0  0  0  0  0  0
   11.0376   10.3941   27.0971 C   0  0  0  0  0  0  0  0  0  0  0  0
   11.1826    9.0337   27.2432 C   0  0  0  0  0  0  0  0  0  0  0  0
   11.4302    8.4837   28.5315 C   0  0  0  0  0  0  0  0  0  0  0  0
   11.5897    7.3067   28.8790 O   0  0  0  0  0  0  0  0  0  0  0  0
   11.0454    8.4465   26.0125 N   0  0  0  0  0  0  0  0  0  0  0  0
   10.8182    9.4406   25.1329 C   0  0  0  0  0  0  0  0  0  0  0  0
   10.8090   10.6560   25.7695 N   0  0  0  0  0  0  0  0  0  0  0  0
  1  2  1  0  0  0  0
  1  6  1  0  0  0  0
  2  3  2  0  0  0  0
  3  4  1  0  0  0  0
  4  5  2  0  0  0  0
  4 10  1  0  0  0  0
  5  6  1  0  0  0  0
  5  8  1  0  0  0  0
  6  7  2  0  0  0  0
  8  9  1  0  0  0  0
  9 10  2  0  0  0  0
M  END
>  <CHROM.1>
11.19172325,9.50352480,27.58082136,0.22992849,-1.39406310,0.52814486

>  <Name>
ligand

>  <RI>
0

>  <Rbt.Current_Directory>
/home/itssahil/PROJECTS/Mol_Feturizer/New_Systems/rnas/2EET

>  <Rbt.Executable>
rbdock ($Id: //depot/dev/client3/rdock/2013.1/src/exe/rbdock.cxx#4 $)

>  <Rbt.Library>
libRbt.so (2013.1, Build901 2013/11/27)

>  <Rbt.Parameter_File>
/export/apps/rDock/src/rDock_2013.1_src/data/scripts/dock_solv.prm

>  <Rbt.Receptor>
prm/blind_docking_80.prm

>  <SCORE>
-18.0407

>  <SCORE.INTER>
-18.0407

>  <SCORE.INTER.CONST>
1

>  <SCORE.INTER.POLAR>
0

>  <SCORE.INTER.ROT>
0

>  <SCORE.INTER.SOLV>
4.16569

>  <SCORE.INTER.VDW>
-17.0157

>  <SCORE.INTER.norm>
-1.80407

>  <SCORE.INTRA>
0

>  <SCORE.INTRA.DIHEDRAL>
0

>  <SCORE.INTRA.DIHEDRAL.0>
0

>  <SCORE.INTRA.POLAR>
0

>  <SCORE.INTRA.POLAR.0>
0

>  <SCORE.INTRA.REPUL>
0

>  <SCORE.INTRA.REPUL.0>
0

>  <SCORE.INTRA.SOLV>
0

>  <SCORE.INTRA.SOLV.lig_0>
-4.28464

>  <SCORE.INTRA.VDW>
0

>  <SCORE.INTRA.VDW.0>
0

>  <SCORE.INTRA.norm>
0

>  <SCORE.RESTR>
0

>  <SCORE.RESTR.CAVITY>
0

>  <SCORE.RESTR.norm>
0

>  <SCORE.SYSTEM>
0

>  <SCORE.SYSTEM.CONST>
0

>  <SCORE.SYSTEM.DIHEDRAL>
0

>  <SCORE.SYSTEM.SOLV>
0

>  <SCORE.SYSTEM.norm>
0

>  <SCORE.heavy>
10

>  <SCORE.norm>
-1.80407

>  <RMSD>
0.712

$$$$
ligand
 OpenBabel11021811423D
libRbt.so/2013.1/901 2013/11/27
 10 11  0  0  0  0  0  0  0  0999 V2000
   11.5098    9.5088   29.5131 N   0  0  0  0  0  0  0  0  0  0  0  0
   11.3666   10.8685   29.2977 C   0  0  0  0  0  0  0  0  0  0  0  0
   11.1344   11.3707   28.0789 N   0  0  0  0  0  0  0  0  0  0  0  0
   11.0586   10.4066   27.1051 C   0  0  0  0  0  0  0  0  0  0  0  0
   11.1921    9.0459   27.2591 C   0  0  0  0  0  0  0  0  0  0  0  0
   11.4390    8.5016   28.5500 C   0  0  0  0  0  0  0  0  0  0  0  0
   11.5893    7.3254   28.9043 O   0  0  0  0  0  0  0  0  0  0  0  0
   11.0458    8.4523   26.0325 N   0  0  0  0  0  0  0  0  0  0  0  0
   10.8246    9.4429   25.1475 C   0  0  0  0  0  0  0  0  0  0  0  0
   10.8280   10.6623   25.7767 N   0  0  0  0  0  0  0  0  0  0  0  0
  1  2  1  0  0  0  0
  1  6  1  0  0  0  0
  2  3  2  0  0  0  0
  3  4  1  0  0  0  0
  4  5  2  0  0  0  0
  4 10  1  0  0  0  0
  5  6  1  0  0  0  0
  5  8  1  0  0  0  0
  6  7  2  0  0  0  0
  8  9  1  0  0  0  0
  9 10  2  0  0  0  0
M  END
>  <CHROM.1>
11.20643079,9.51765186,27.59382024,0.17739069,-1.39547612,0.47027192

>  <Name>
ligand

>  <RI>
0

>  <Rbt.Current_Directory>
/home/itssahil/PROJECTS/Mol_Feturizer/New_Systems/rnas/2EET

>  <Rbt.Executable>
rbdock ($Id: //depot/dev/client3/rdock/2013.1/src/exe/rbdock.cxx#4 $)

>  <Rbt.Library>
libRbt.so (2013.1, Build901 2013/11/27)

>  <Rbt.Parameter_File>
/export/apps/rDock/src/rDock_2013.1_src/data/scripts/dock_solv.prm

>  <Rbt.Receptor>
prm/blind_docking_80.prm

>  <SCORE>
-18.0766

>  <SCORE.INTER>
-18.0766

>  <SCORE.INTER.CONST>
1

>  <SCORE.INTER.POLAR>
0

>  <SCORE.INTER.ROT>
0

>  <SCORE.INTER.SOLV>
4.18365

>  <SCORE.INTER.VDW>
-17.0456

>  <SCORE.INTER.norm>
-1.80766

>  <SCORE.INTRA>
0

>  <SCORE.INTRA.DIHEDRAL>
0

>  <SCORE.INTRA.DIHEDRAL.0>
0

>  <SCORE.INTRA.POLAR>
0

>  <SCORE.INTRA.POLAR.0>
0

>  <SCORE.INTRA.REPUL>
0

>  <SCORE.INTRA.REPUL.0>
0

>  <SCORE.INTRA.SOLV>
0

>  <SCORE.INTRA.SOLV.lig_0>
-4.28464

>  <SCORE.INTRA.VDW>
0

>  <SCORE.INTRA.VDW.0>
0

>  <SCORE.INTRA.norm>
0

>  <SCORE.RESTR>
0

>  <SCORE.RESTR.CAVITY>
0

>  <SCORE.RESTR.norm>
0

>  <SCORE.SYSTEM>
0

>  <SCORE.SYSTEM.CONST>
0

>  <SCORE.SYSTEM.DIHEDRAL>
0

>  <SCORE.SYSTEM.SOLV>
0

>  <SCORE.SYSTEM.norm>
0

>  <SCORE.heavy>
10

>  <SCORE.norm>
-1.80766

>  <RMSD>
0.712

$$$$
ligand
 OpenBabel11021811423D
libRbt.so/2013.1/901 2013/11/27
 10 11  0  0  0  0  0  0  0  0999 V2000
   11.5018    9.5088   29.5171 N   0  0  0  0  0  0  0  0  0  0  0  0
   11.3595   10.8687   29.3025 C   0  0  0  0  0  0  0  0  0  0  0  0
   11.1317   11.3721   28.0833 N   0  0  0  0  0  0  0  0  0  0  0  0
   11.0594   10.4089   27.1083 C   0  0  0  0  0  0  0  0  0  0  0  0
   11.1923    9.0480   27.2615 C   0  0  0  0  0  0  0  0  0  0  0  0
   11.4344    8.5025   28.5527 C   0  0  0  0  0  0  0  0  0  0  0  0
   11.5834    7.3260   28.9064 O   0  0  0  0  0  0  0  0  0  0  0  0
   11.0504    8.4557   26.0338 N   0  0  0  0  0  0  0  0  0  0  0  0
   10.8324    9.4472   25.1489 C   0  0  0  0  0  0  0  0  0  0  0  0
   10.8336   10.6660   25.7793 N   0  0  0  0  0  0  0  0  0  0  0  0
  1  2  1  0  0  0  0
  1  6  1  0  0  0  0
  2  3  2  0  0  0  0
  3  4  1  0  0  0  0
  4  5  2  0  0  0  0
  4 10  1  0  0  0  0
  5  6  1  0  0  0  0
  5  8  1  0  0  0  0
  6  7  2  0  0  0  0
  8  9  1  0  0  0  0
  9 10  2  0  0  0  0
M  END
>  <CHROM.1>
11.20539085,9.51951905,27.59669729,0.18659504,-1.39873363,0.48031179

>  <Name>
ligand

>  <RI>
0

>  <Rbt.Current_Directory>
/home/itssahil/PROJECTS/Mol_Feturizer/New_Systems/rnas/2EET

>  <Rbt.Executable>
rbdock ($Id: //depot/dev/client3/rdock/2013.1/src/exe/rbdock.cxx#4 $)

>  <Rbt.Library>
libRbt.so (2013.1, Build901 2013/11/27)

>  <Rbt.Parameter_File>
/export/apps/rDock/src/rDock_2013.1_src/data/scripts/dock_solv.prm

>  <Rbt.Receptor>
prm/pocket_docking_3.prm

>  <SCORE>
-18.0739

>  <SCORE.INTER>
-18.0739

>  <SCORE.INTER.CONST>
1

>  <SCORE.INTER.POLAR>
0

>  <SCORE.INTER.ROT>
0

>  <SCORE.INTER.SOLV>
4.19318

>  <SCORE.INTER.VDW>
-17.047

>  <SCORE.INTER.norm>
-1.80739

>  <SCORE.INTRA>
0

>  <SCORE.INTRA.DIHEDRAL>
0

>  <SCORE.INTRA.DIHEDRAL.0>
0

>  <SCORE.INTRA.POLAR>
0

>  <SCORE.INTRA.POLAR.0>
0

>  <SCORE.INTRA.REPUL>
0

>  <SCORE.INTRA.REPUL.0>
0

>  <SCORE.INTRA.SOLV>
0

>  <SCORE.INTRA.SOLV.lig_0>
-4.28464

>  <SCORE.INTRA.VDW>
0

>  <SCORE.INTRA.VDW.0>
0

>  <SCORE.INTRA.norm>
0

>  <SCORE.RESTR>
0

>  <SCORE.RESTR.CAVITY>
0

>  <SCORE.RESTR.norm>
0

>  <SCORE.SYSTEM>
0

>  <SCORE.SYSTEM.CONST>
0

>  <SCORE.SYSTEM.DIHEDRAL>
0

>  <SCORE.SYSTEM.SOLV>
0

>  <SCORE.SYSTEM.norm>
0

>  <SCORE.heavy>
10

>  <SCORE.norm>
-1.80739

>  <RMSD>
0.712

$$$$
ligand
 OpenBabel11021811423D
libRbt.so/2013.1/901 2013/11/27
 10 11  0  0  0  0  0  0  0  0999 V2000
   11.5082    9.5138   29.5179 N   0  0  0  0  0  0  0  0  0  0  0  0
   11.3639   10.8731   29.3009 C   0  0  0  0  0  0  0  0  0  0  0  0
   11.1327   11.3737   28.0812 N   0  0  0  0  0  0  0  0  0  0  0  0
   11.0591   10.4085   27.1083 C   0  0  0  0  0  0  0  0  0  0  0  0
   11.1938    9.0481   27.2640 C   0  0  0  0  0  0  0  0  0  0  0  0
   11.4396    8.5055   28.5557 C   0  0  0  0  0  0  0  0  0  0  0  0
   11.5907    7.3298   28.9114 O   0  0  0  0  0  0  0  0  0  0  0  0
   11.0497    8.4531   26.0378 N   0  0  0  0  0  0  0  0  0  0  0  0
   10.8286    9.4426   25.1514 C   0  0  0  0  0  0  0  0  0  0  0  0
   10.8300   10.6626   25.7793 N   0  0  0  0  0  0  0  0  0  0  0  0
  1  2  1  0  0  0  0
  1  6  1  0  0  0  0
  2  3  2  0  0  0  0
  3  4  1  0  0  0  0
  4  5  2  0  0  0  0
  4 10  1  0  0  0  0
  5  6  1  0  0  0  0
  5  8  1  0  0  0  0
  6  7  2  0  0  0  0
  8  9  1  0  0  0  0
  9 10  2  0  0  0  0
M  END
>  <CHROM.1>
11.20723496,9.52027925,27.59817710,0.18591250,-1.39615030,0.47760039

>  <Name>
ligand

>  <RI>
0

>  <Rbt.Current_Directory>
/home/itssahil/PROJECTS/Mol_Feturizer/New_Systems/rnas/2EET

>  <Rbt.Executable>
rbdock ($Id: //depot/dev/client3/rdock/2013.1/src/exe/rbdock.cxx#4 $)

>  <Rbt.Library>
libRbt.so (2013.1, Build901 2013/11/27)

>  <Rbt.Parameter_File>
/export/apps/rDock/src/rDock_2013.1_src/data/scripts/dock_solv.prm

>  <Rbt.Receptor>
prm/pocket_docking_3.prm

>  <SCORE>
-18.0736

>  <SCORE.INTER>
-18.0736

>  <SCORE.INTER.CONST>
1

>  <SCORE.INTER.POLAR>
0

>  <SCORE.INTER.ROT>
0

>  <SCORE.INTER.SOLV>
4.18603

>  <SCORE.INTER.VDW>
-17.0444

>  <SCORE.INTER.norm>
-1.80736

>  <SCORE.INTRA>
0

>  <SCORE.INTRA.DIHEDRAL>
0

>  <SCORE.INTRA.DIHEDRAL.0>
0

>  <SCORE.INTRA.POLAR>
0

>  <SCORE.INTRA.POLAR.0>
0

>  <SCORE.INTRA.REPUL>
0

>  <SCORE.INTRA.REPUL.0>
0

>  <SCORE.INTRA.SOLV>
0

>  <SCORE.INTRA.SOLV.lig_0>
-4.28464

>  <SCORE.INTRA.VDW>
0

>  <SCORE.INTRA.VDW.0>
0

>  <SCORE.INTRA.norm>
0

>  <SCORE.RESTR>
0

>  <SCORE.RESTR.CAVITY>
0

>  <SCORE.RESTR.norm>
0

>  <SCORE.SYSTEM>
0

>  <SCORE.SYSTEM.CONST>
0

>  <SCORE.SYSTEM.DIHEDRAL>
0

>  <SCORE.SYSTEM.SOLV>
0

>  <SCORE.SYSTEM.norm>
0

>  <SCORE.heavy>
10

>  <SCORE.norm>
-1.80736

>  <RMSD>
0.712

$$$$
ligand
 OpenBabel11021811423D
libRbt.so/2013.1/901 2013/11/27
 10 11  0  0  0  0  0  0  0  0999 V2000
   11.5036    9.5072   29.5154 N   0  0  0  0  0  0  0  0  0  0  0  0
   11.3617   10.8672   29.3010 C   0  0  0  0  0  0  0  0  0  0  0  0
   11.1343   11.3708   28.0819 N   0  0  0  0  0  0  0  0  0  0  0  0
   11.0618   10.4079   27.1067 C   0  0  0  0  0  0  0  0  0  0  0  0
   11.1943    9.0469   27.2597 C   0  0  0  0  0  0  0  0  0  0  0  0
   11.4361    8.5011   28.5508 C   0  0  0  0  0  0  0  0  0  0  0  0
   11.5847    7.3245   28.9043 O   0  0  0  0  0  0  0  0  0  0  0  0
   11.0525    8.4549   26.0318 N   0  0  0  0  0  0  0  0  0  0  0  0
   10.8349    9.4466   25.1471 C   0  0  0  0  0  0  0  0  0  0  0  0
   10.8364   10.6652   25.7777 N   0  0  0  0  0  0  0  0  0  0  0  0
  1  2  1  0  0  0  0
  1  6  1  0  0  0  0
  2  3  2  0  0  0  0
  3  4  1  0  0  0  0
  4  5  2  0  0  0  0
  4 10  1  0  0  0  0
  5  6  1  0  0  0  0
  5  8  1  0  0  0  0
  6  7  2  0  0  0  0
  8  9  1  0  0  0  0
  9 10  2  0  0  0  0
M  END
>  <CHROM.1>
11.20750761,9.51834541,27.59494798,0.18566409,-1.39900859,0.47956185

>  <Name>
ligand

>  <RI>
0

>  <Rbt.Current_Directory>
/home/itssahil/PROJECTS/Mol_Feturizer/New_Systems/rnas/2EET

>  <Rbt.Executable>
rbdock ($Id: //depot/dev/client3/rdock/2013.1/src/exe/rbdock.cxx#4 $)

>  <Rbt.Library>
libRbt.so (2013.1, Build901 2013/11/27)

>  <Rbt.Parameter_File>
/export/apps/rDock/src/rDock_2013.1_src/data/scripts/dock_solv.prm

>  <Rbt.Receptor>
prm/pocket_docking_3.prm

>  <SCORE>
-18.0741

>  <SCORE.INTER>
-18.0741

>  <SCORE.INTER.CONST>
1

>  <SCORE.INTER.POLAR>
0

>  <SCORE.INTER.ROT>
0

>  <SCORE.INTER.SOLV>
4.19128

>  <SCORE.INTER.VDW>
-17.0465

>  <SCORE.INTER.norm>
-1.80741

>  <SCORE.INTRA>
0

>  <SCORE.INTRA.DIHEDRAL>
0

>  <SCORE.INTRA.DIHEDRAL.0>
0

>  <SCORE.INTRA.POLAR>
0

>  <SCORE.INTRA.POLAR.0>
0

>  <SCORE.INTRA.REPUL>
0

>  <SCORE.INTRA.REPUL.0>
0

>  <SCORE.INTRA.SOLV>
0

>  <SCORE.INTRA.SOLV.lig_0>
-4.28464

>  <SCORE.INTRA.VDW>
0

>  <SCORE.INTRA.VDW.0>
0

>  <SCORE.INTRA.norm>
0

>  <SCORE.RESTR>
0

>  <SCORE.RESTR.CAVITY>
0

>  <SCORE.RESTR.norm>
0

>  <SCORE.SYSTEM>
0

>  <SCORE.SYSTEM.CONST>
0

>  <SCORE.SYSTEM.DIHEDRAL>
0

>  <SCORE.SYSTEM.SOLV>
0

>  <SCORE.SYSTEM.norm>
0

>  <SCORE.heavy>
10

>  <SCORE.norm>
-1.80741

>  <RMSD>
0.712

$$$$
ligand
 OpenBabel11021811423D
libRbt.so/2013.1/901 2013/11/27
 10 11  0  0  0  0  0  0  0  0999 V2000
   11.5073    9.5026   29.5123 N   0  0  0  0  0  0  0  0  0  0  0  0
   11.3709   10.8633   29.2988 C   0  0  0  0  0  0  0  0  0  0  0  0
   11.1354   11.3679   28.0816 N   0  0  0  0  0  0  0  0  0  0  0  0
   11.0490   10.4051   27.1073 C   0  0  0  0  0  0  0  0  0  0  0  0
   11.1755    9.0435   27.2596 C   0  0  0  0  0  0  0  0  0  0  0  0
   11.4258    8.4967   28.5487 C   0  0  0  0  0  0  0  0  0  0  0  0
   11.5711    7.3193   28.9012 O   0  0  0  0  0  0  0  0  0  0  0  0
   11.0196    8.4519   26.0332 N   0  0  0  0  0  0  0  0  0  0  0  0
   10.7995    9.4445   25.1501 C   0  0  0  0  0  0  0  0  0  0  0  0
   10.8132   10.6633   25.7803 N   0  0  0  0  0  0  0  0  0  0  0  0
  1  2  1  0  0  0  0
  1  6  1  0  0  0  0
  2  3  2  0  0  0  0
  3  4  1  0  0  0  0
  4  5  2  0  0  0  0
  4 10  1  0  0  0  0
  5  6  1  0  0  0  0
  5  8  1  0  0  0  0
  6  7  2  0  0  0  0
  8  9  1  0  0  0  0
  9 10  2  0  0  0  0
M  END
>  <CHROM.1>
11.19423379,9.51489379,27.59458319,0.13515894,-1.39342031,0.42955968

>  <Name>
ligand

>  <RI>
0

>  <Rbt.Current_Directory>
/home/itssahil/PROJECTS/Mol_Feturizer/New_Systems/rnas/2EET

>  <Rbt.Executable>
rbdock ($Id: //depot/dev/client3/rdock/2013.1/src/exe/rbdock.cxx#4 $)

>  <Rbt.Library>
libRbt.so (2013.1, Build901 2013/11/27)

>  <Rbt.Parameter_File>
/export/apps/rDock/src/rDock_2013.1_src/data/scripts/dock_solv.prm

>  <Rbt.Receptor>
prm/pocket_docking_5.prm

>  <SCORE>
-18.0476

>  <SCORE.INTER>
-18.0476

>  <SCORE.INTER.CONST>
1

>  <SCORE.INTER.POLAR>
0

>  <SCORE.INTER.ROT>
0

>  <SCORE.INTER.SOLV>
4.2024

>  <SCORE.INTER.VDW>
-17.0326

>  <SCORE.INTER.norm>
-1.80476

>  <SCORE.INTRA>
0

>  <SCORE.INTRA.DIHEDRAL>
0

>  <SCORE.INTRA.DIHEDRAL.0>
0

>  <SCORE.INTRA.POLAR>
0

>  <SCORE.INTRA.POLAR.0>
0

>  <SCORE.INTRA.REPUL>
0

>  <SCORE.INTRA.REPUL.0>
0

>  <SCORE.INTRA.SOLV>
0

>  <SCORE.INTRA.SOLV.lig_0>
-4.28464

>  <SCORE.INTRA.VDW>
0

>  <SCORE.INTRA.VDW.0>
0

>  <SCORE.INTRA.norm>
0

>  <SCORE.RESTR>
0

>  <SCORE.RESTR.CAVITY>
0

>  <SCORE.RESTR.norm>
0

>  <SCORE.SYSTEM>
0

>  <SCORE.SYSTEM.CONST>
0

>  <SCORE.SYSTEM.DIHEDRAL>
0

>  <SCORE.SYSTEM.SOLV>
0

>  <SCORE.SYSTEM.norm>
0

>  <SCORE.heavy>
10

>  <SCORE.norm>
-1.80476

>  <RMSD>
0.712

$$$$
ligand
 OpenBabel11021811423D
libRbt.so/2013.1/901 2013/11/27
 10 11  0  0  0  0  0  0  0  0999 V2000
   11.4774    9.4843   29.5346 N   0  0  0  0  0  0  0  0  0  0  0  0
   11.3570   10.8458   29.3165 C   0  0  0  0  0  0  0  0  0  0  0  0
   11.1426   11.3499   28.0952 N   0  0  0  0  0  0  0  0  0  0  0  0
   11.0599   10.3858   27.1219 C   0  0  0  0  0  0  0  0  0  0  0  0
   11.1713    9.0234   27.2786 C   0  0  0  0  0  0  0  0  0  0  0  0
   11.3991    8.4771   28.5721 C   0  0  0  0  0  0  0  0  0  0  0  0
   11.5283    7.2992   28.9290 O   0  0  0  0  0  0  0  0  0  0  0  0
   11.0260    8.4306   26.0515 N   0  0  0  0  0  0  0  0  0  0  0  0
   10.8273    9.4234   25.1635 C   0  0  0  0  0  0  0  0  0  0  0  0
   10.8443   10.6434   25.7913 N   0  0  0  0  0  0  0  0  0  0  0  0
  1  2  1  0  0  0  0
  1  6  1  0  0  0  0
  2  3  2  0  0  0  0
  3  4  1  0  0  0  0
  4  5  2  0  0  0  0
  4 10  1  0  0  0  0
  5  6  1  0  0  0  0
  5  8  1  0  0  0  0
  6  7  2  0  0  0  0
  8  9  1  0  0  0  0
  9 10  2  0  0  0  0
M  END
>  <CHROM.1>
11.19006845,9.49536668,27.61287325,0.11519264,-1.40950608,0.40771672

>  <Name>
ligand

>  <RI>
0

>  <Rbt.Current_Directory>
/home/itssahil/PROJECTS/Mol_Feturizer/New_Systems/rnas/2EET

>  <Rbt.Executable>
rbdock ($Id: //depot/dev/client3/rdock/2013.1/src/exe/rbdock.cxx#4 $)

>  <Rbt.Library>
libRbt.so (2013.1, Build901 2013/11/27)

>  <Rbt.Parameter_File>
/export/apps/rDock/src/rDock_2013.1_src/data/scripts/dock_solv.prm

>  <Rbt.Receptor>
prm/pocket_docking_5.prm

>  <SCORE>
-18.0452

>  <SCORE.INTER>
-18.0452

>  <SCORE.INTER.CONST>
1

>  <SCORE.INTER.POLAR>
0

>  <SCORE.INTER.ROT>
0

>  <SCORE.INTER.SOLV>
4.28457

>  <SCORE.INTER.VDW>
-17.0583

>  <SCORE.INTER.norm>
-1.80452

>  <SCORE.INTRA>
0

>  <SCORE.INTRA.DIHEDRAL>
0

>  <SCORE.INTRA.DIHEDRAL.0>
0

>  <SCORE.INTRA.POLAR>
0

>  <SCORE.INTRA.POLAR.0>
0

>  <SCORE.INTRA.REPUL>
0

>  <SCORE.INTRA.REPUL.0>
0

>  <SCORE.INTRA.SOLV>
0

>  <SCORE.INTRA.SOLV.lig_0>
-4.28464

>  <SCORE.INTRA.VDW>
0

>  <SCORE.INTRA.VDW.0>
0

>  <SCORE.INTRA.norm>
0

>  <SCORE.RESTR>
0

>  <SCORE.RESTR.CAVITY>
0

>  <SCORE.RESTR.norm>
0

>  <SCORE.SYSTEM>
0

>  <SCORE.SYSTEM.CONST>
0

>  <SCORE.SYSTEM.DIHEDRAL>
0

>  <SCORE.SYSTEM.SOLV>
0

>  <SCORE.SYSTEM.norm>
0

>  <SCORE.heavy>
10

>  <SCORE.norm>
-1.80452

>  <RMSD>
0.712

$$$$
ligand
 OpenBabel11021811423D
libRbt.so/2013.1/901 2013/11/27
 10 11  0  0  0  0  0  0  0  0999 V2000
   11.4899    9.5141   29.5275 N   0  0  0  0  0  0  0  0  0  0  0  0
   11.3494   10.8743   29.3132 C   0  0  0  0  0  0  0  0  0  0  0  0
   11.1302   11.3788   28.0929 N   0  0  0  0  0  0  0  0  0  0  0  0
   11.0644   10.4166   27.1165 C   0  0  0  0  0  0  0  0  0  0  0  0
   11.1960    9.0556   27.2694 C   0  0  0  0  0  0  0  0  0  0  0  0
   11.4290    8.5088   28.5618 C   0  0  0  0  0  0  0  0  0  0  0  0
   11.5753    7.3319   28.9153 O   0  0  0  0  0  0  0  0  0  0  0  0
   11.0625    8.4644   26.0401 N   0  0  0  0  0  0  0  0  0  0  0  0
   10.8509    9.4568   25.1547 C   0  0  0  0  0  0  0  0  0  0  0  0
   10.8480   10.6749   25.7862 N   0  0  0  0  0  0  0  0  0  0  0  0
  1  2  1  0  0  0  0
  1  6  1  0  0  0  0
  2  3  2  0  0  0  0
  3  4  1  0  0  0  0
  4  5  2  0  0  0  0
  4 10  1  0  0  0  0
  5  6  1  0  0  0  0
  5  8  1  0  0  0  0
  6  7  2  0  0  0  0
  8  9  1  0  0  0  0
  9 10  2  0  0  0  0
M  END
>  <CHROM.1>
11.20684315,9.52671388,27.60510820,0.20498652,-1.40496483,0.49937168

>  <Name>
ligand

>  <RI>
0

>  <Rbt.Current_Directory>
/home/itssahil/PROJECTS/Mol_Feturizer/New_Systems/rnas/2EET

>  <Rbt.Executable>
rbdock ($Id: //depot/dev/client3/rdock/2013.1/src/exe/rbdock.cxx#4 $)

>  <Rbt.Library>
libRbt.so (2013.1, Build901 2013/11/27)

>  <Rbt.Parameter_File>
/export/apps/rDock/src/rDock_2013.1_src/data/scripts/dock_solv.prm

>  <Rbt.Receptor>
prm/pocket_docking_6.prm

>  <SCORE>
-18.0619

>  <SCORE.INTER>
-18.0619

>  <SCORE.INTER.CONST>
1

>  <SCORE.INTER.POLAR>
0

>  <SCORE.INTER.ROT>
0

>  <SCORE.INTER.SOLV>
4.21199

>  <SCORE.INTER.VDW>
-17.0453

>  <SCORE.INTER.norm>
-1.80619

>  <SCORE.INTRA>
0

>  <SCORE.INTRA.DIHEDRAL>
0

>  <SCORE.INTRA.DIHEDRAL.0>
0

>  <SCORE.INTRA.POLAR>
0

>  <SCORE.INTRA.POLAR.0>
0

>  <SCORE.INTRA.REPUL>
0

>  <SCORE.INTRA.REPUL.0>
0

>  <SCORE.INTRA.SOLV>
0

>  <SCORE.INTRA.SOLV.lig_0>
-4.28464

>  <SCORE.INTRA.VDW>
0

>  <SCORE.INTRA.VDW.0>
0

>  <SCORE.INTRA.norm>
0

>  <SCORE.RESTR>
0

>  <SCORE.RESTR.CAVITY>
0

>  <SCORE.RESTR.norm>
0

>  <SCORE.SYSTEM>
0

>  <SCORE.SYSTEM.CONST>
0

>  <SCORE.SYSTEM.DIHEDRAL>
0

>  <SCORE.SYSTEM.SOLV>
0

>  <SCORE.SYSTEM.norm>
0

>  <SCORE.heavy>
10

>  <SCORE.norm>
-1.80619

>  <RMSD>
0.712

$$$$
ligand
 OpenBabel11021811423D
libRbt.so/2013.1/901 2013/11/27
 10 11  0  0  0  0  0  0  0  0999 V2000
   11.5009    9.4883   29.5004 N   0  0  0  0  0  0  0  0  0  0  0  0
   11.3554   10.8488   29.2914 C   0  0  0  0  0  0  0  0  0  0  0  0
   11.1258   11.3566   28.0745 N   0  0  0  0  0  0  0  0  0  0  0  0
   11.0550   10.3973   27.0955 C   0  0  0  0  0  0  0  0  0  0  0  0
   11.1911    9.0361   27.2431 C   0  0  0  0  0  0  0  0  0  0  0  0
   11.4352    8.4859   28.5319 C   0  0  0  0  0  0  0  0  0  0  0  0
   11.5870    7.3082   28.8807 O   0  0  0  0  0  0  0  0  0  0  0  0
   11.0498    8.4485   26.0130 N   0  0  0  0  0  0  0  0  0  0  0  0
   10.8291    9.4432   25.1324 C   0  0  0  0  0  0  0  0  0  0  0  0
   10.8279   10.6593   25.7677 N   0  0  0  0  0  0  0  0  0  0  0  0
  1  2  1  0  0  0  0
  1  6  1  0  0  0  0
  2  3  2  0  0  0  0
  3  4  1  0  0  0  0
  4  5  2  0  0  0  0
  4 10  1  0  0  0  0
  5  6  1  0  0  0  0
  5  8  1  0  0  0  0
  6  7  2  0  0  0  0
  8  9  1  0  0  0  0
  9 10  2  0  0  0  0
M  END
>  <CHROM.1>
11.20333084,9.50626318,27.58022382,0.19658159,-1.39716294,0.49424666

>  <Name>
ligand

>  <RI>
0

>  <Rbt.Current_Directory>
/home/itssahil/PROJECTS/Mol_Feturizer/New_Systems/rnas/2EET

>  <Rbt.Executable>
rbdock ($Id: //depot/dev/client3/rdock/2013.1/src/exe/rbdock.cxx#4 $)

>  <Rbt.Library>
libRbt.so (2013.1, Build901 2013/11/27)

>  <Rbt.Parameter_File>
/export/apps/rDock/src/rDock_2013.1_src/data/scripts/dock_solv.prm

>  <Rbt.Receptor>
prm/pocket_docking_7.prm

>  <SCORE>
-18.0631

>  <SCORE.INTER>
-18.0631

>  <SCORE.INTER.CONST>
1

>  <SCORE.INTER.POLAR>
0

>  <SCORE.INTER.ROT>
0

>  <SCORE.INTER.SOLV>
4.17373

>  <SCORE.INTER.VDW>
-17.0333

>  <SCORE.INTER.norm>
-1.80631

>  <SCORE.INTRA>
0

>  <SCORE.INTRA.DIHEDRAL>
0

>  <SCORE.INTRA.DIHEDRAL.0>
0

>  <SCORE.INTRA.POLAR>
0

>  <SCORE.INTRA.POLAR.0>
0

>  <SCORE.INTRA.REPUL>
0

>  <SCORE.INTRA.REPUL.0>
0

>  <SCORE.INTRA.SOLV>
0

>  <SCORE.INTRA.SOLV.lig_0>
-4.28464

>  <SCORE.INTRA.VDW>
0

>  <SCORE.INTRA.VDW.0>
0

>  <SCORE.INTRA.norm>
0

>  <SCORE.RESTR>
0

>  <SCORE.RESTR.CAVITY>
0

>  <SCORE.RESTR.norm>
0

>  <SCORE.SYSTEM>
0

>  <SCORE.SYSTEM.CONST>
0

>  <SCORE.SYSTEM.DIHEDRAL>
0

>  <SCORE.SYSTEM.SOLV>
0

>  <SCORE.SYSTEM.norm>
0

>  <SCORE.heavy>
10

>  <SCORE.norm>
-1.80631

>  <RMSD>
0.712

$$$$
ligand
 OpenBabel11021811423D
libRbt.so/2013.1/901 2013/11/27
 10 11  0  0  0  0  0  0  0  0999 V2000
   11.4862    9.4897   29.5067 N   0  0  0  0  0  0  0  0  0  0  0  0
   11.3348   10.8497   29.2988 C   0  0  0  0  0  0  0  0  0  0  0  0
   11.1050   11.3576   28.0818 N   0  0  0  0  0  0  0  0  0  0  0  0
   11.0405   10.3989   27.1019 C   0  0  0  0  0  0  0  0  0  0  0  0
   11.1827    9.0382   27.2485 C   0  0  0  0  0  0  0  0  0  0  0  0
   11.4270    8.4879   28.5372 C   0  0  0  0  0  0  0  0  0  0  0  0
   11.5836    7.3107   28.8852 O   0  0  0  0  0  0  0  0  0  0  0  0
   11.0464    8.4511   26.0176 N   0  0  0  0  0  0  0  0  0  0  0  0
   10.8227    9.4455   25.1374 C   0  0  0  0  0  0  0  0  0  0  0  0
   10.8147   10.6610   25.7739 N   0  0  0  0  0  0  0  0  0  0  0  0
  1  2  1  0  0  0  0
  1  6  1  0  0  0  0
  2  3  2  0  0  0  0
  3  4  1  0  0  0  0
  4  5  2  0  0  0  0
  4 10  1  0  0  0  0
  5  6  1  0  0  0  0
  5  8  1  0  0  0  0
  6  7  2  0  0  0  0
  8  9  1  0  0  0  0
  9 10  2  0  0  0  0
M  END
>  <CHROM.1>
11.19210023,9.50807039,27.58603260,0.22537069,-1.39650522,0.52351919

>  <Name>
ligand

>  <RI>
0

>  <Rbt.Current_Directory>
/home/itssahil/PROJECTS/Mol_Feturizer/New_Systems/rnas/2EET

>  <Rbt.Executable>
rbdock ($Id: //depot/dev/client3/rdock/2013.1/src/exe/rbdock.cxx#4 $)

>  <Rbt.Library>
libRbt.so (2013.1, Build901 2013/11/27)

>  <Rbt.Parameter_File>
/export/apps/rDock/src/rDock_2013.1_src/data/scripts/dock_solv.prm

>  <Rbt.Receptor>
prm/pocket_docking_7.prm

>  <SCORE>
-18.0465

>  <SCORE.INTER>
-18.0465

>  <SCORE.INTER.CONST>
1

>  <SCORE.INTER.POLAR>
0

>  <SCORE.INTER.ROT>
0

>  <SCORE.INTER.SOLV>
4.17844

>  <SCORE.INTER.VDW>
-17.0238

>  <SCORE.INTER.norm>
-1.80465

>  <SCORE.INTRA>
0

>  <SCORE.INTRA.DIHEDRAL>
0

>  <SCORE.INTRA.DIHEDRAL.0>
0

>  <SCORE.INTRA.POLAR>
0

>  <SCORE.INTRA.POLAR.0>
0

>  <SCORE.INTRA.REPUL>
0

>  <SCORE.INTRA.REPUL.0>
0

>  <SCORE.INTRA.SOLV>
0

>  <SCORE.INTRA.SOLV.lig_0>
-4.28464

>  <SCORE.INTRA.VDW>
0

>  <SCORE.INTRA.VDW.0>
0

>  <SCORE.INTRA.norm>
0

>  <SCORE.RESTR>
0

>  <SCORE.RESTR.CAVITY>
0

>  <SCORE.RESTR.norm>
0

>  <SCORE.SYSTEM>
0

>  <SCORE.SYSTEM.CONST>
0

>  <SCORE.SYSTEM.DIHEDRAL>
0

>  <SCORE.SYSTEM.SOLV>
0

>  <SCORE.SYSTEM.norm>
0

>  <SCORE.heavy>
10

>  <SCORE.norm>
-1.80465

>  <RMSD>
0.712

$$$$
ligand
 OpenBabel11021811423D
libRbt.so/2013.1/901 2013/11/27
 10 11  0  0  0  0  0  0  0  0999 V2000
   11.4884    9.5121   29.5265 N   0  0  0  0  0  0  0  0  0  0  0  0
   11.3469   10.8722   29.3129 C   0  0  0  0  0  0  0  0  0  0  0  0
   11.1277   11.3774   28.0929 N   0  0  0  0  0  0  0  0  0  0  0  0
   11.0628   10.4157   27.1159 C   0  0  0  0  0  0  0  0  0  0  0  0
   11.1953    9.0546   27.2680 C   0  0  0  0  0  0  0  0  0  0  0  0
   11.4284    8.5072   28.5601 C   0  0  0  0  0  0  0  0  0  0  0  0
   11.5755    7.3303   28.9131 O   0  0  0  0  0  0  0  0  0  0  0  0
   11.0626    8.4641   26.0384 N   0  0  0  0  0  0  0  0  0  0  0  0
   10.8504    9.4568   25.1535 C   0  0  0  0  0  0  0  0  0  0  0  0
   10.8465   10.6746   25.7857 N   0  0  0  0  0  0  0  0  0  0  0  0
  1  2  1  0  0  0  0
  1  6  1  0  0  0  0
  2  3  2  0  0  0  0
  3  4  1  0  0  0  0
  4  5  2  0  0  0  0
  4 10  1  0  0  0  0
  5  6  1  0  0  0  0
  5  8  1  0  0  0  0
  6  7  2  0  0  0  0
  8  9  1  0  0  0  0
  9 10  2  0  0  0  0
M  END
>  <CHROM.1>
11.20578645,9.52557683,27.60399825,0.20949242,-1.40483137,0.50438690

>  <Name>
ligand

>  <RI>
0

>  <Rbt.Current_Directory>
/home/itssahil/PROJECTS/Mol_Feturizer/New_Systems/rnas/2EET

>  <Rbt.Executable>
rbdock ($Id: //depot/dev/client3/rdock/2013.1/src/exe/rbdock.cxx#4 $)

>  <Rbt.Library>
libRbt.so (2013.1, Build901 2013/11/27)

>  <Rbt.Parameter_File>
/export/apps/rDock/src/rDock_2013.1_src/data/scripts/dock_solv.prm

>  <Rbt.Receptor>
prm/pocket_docking_7.prm

>  <SCORE>
-18.0597

>  <SCORE.INTER>
-18.0597

>  <SCORE.INTER.CONST>
1

>  <SCORE.INTER.POLAR>
0

>  <SCORE.INTER.ROT>
0

>  <SCORE.INTER.SOLV>
4.2099

>  <SCORE.INTER.VDW>
-17.0431

>  <SCORE.INTER.norm>
-1.80597

>  <SCORE.INTRA>
0

>  <SCORE.INTRA.DIHEDRAL>
0

>  <SCORE.INTRA.DIHEDRAL.0>
0

>  <SCORE.INTRA.POLAR>
0

>  <SCORE.INTRA.POLAR.0>
0

>  <SCORE.INTRA.REPUL>
0

>  <SCORE.INTRA.REPUL.0>
0

>  <SCORE.INTRA.SOLV>
0

>  <SCORE.INTRA.SOLV.lig_0>
-4.28464

>  <SCORE.INTRA.VDW>
0

>  <SCORE.INTRA.VDW.0>
0

>  <SCORE.INTRA.norm>
0

>  <SCORE.RESTR>
0

>  <SCORE.RESTR.CAVITY>
0

>  <SCORE.RESTR.norm>
0

>  <SCORE.SYSTEM>
0

>  <SCORE.SYSTEM.CONST>
0

>  <SCORE.SYSTEM.DIHEDRAL>
0

>  <SCORE.SYSTEM.SOLV>
0

>  <SCORE.SYSTEM.norm>
0

>  <SCORE.heavy>
10

>  <SCORE.norm>
-1.80597

>  <RMSD>
0.712

$$$$
ligand
 OpenBabel11021811423D
libRbt.so/2013.1/901 2013/11/27
 10 11  0  0  0  0  0  0  0  0999 V2000
   11.4857    9.4899   29.5152 N   0  0  0  0  0  0  0  0  0  0  0  0
   11.3601   10.8527   29.3087 C   0  0  0  0  0  0  0  0  0  0  0  0
   11.1364   11.3660   28.0930 N   0  0  0  0  0  0  0  0  0  0  0  0
   11.0501   10.4096   27.1125 C   0  0  0  0  0  0  0  0  0  0  0  0
   11.1662    9.0463   27.2575 C   0  0  0  0  0  0  0  0  0  0  0  0
   11.4038    8.4902   28.5451 C   0  0  0  0  0  0  0  0  0  0  0  0
   11.5387    7.3098   28.8916 O   0  0  0  0  0  0  0  0  0  0  0  0
   11.0146    8.4630   26.0266 N   0  0  0  0  0  0  0  0  0  0  0  0
   10.8075    9.4623   25.1480 C   0  0  0  0  0  0  0  0  0  0  0  0
   10.8252   10.6772   25.7854 N   0  0  0  0  0  0  0  0  0  0  0  0
  1  2  1  0  0  0  0
  1  6  1  0  0  0  0
  2  3  2  0  0  0  0
  3  4  1  0  0  0  0
  4  5  2  0  0  0  0
  4 10  1  0  0  0  0
  5  6  1  0  0  0  0
  5  8  1  0  0  0  0
  6  7  2  0  0  0  0
  8  9  1  0  0  0  0
  9 10  2  0  0  0  0
M  END
>  <CHROM.1>
11.18586774,9.51557131,27.59543449,0.11486850,-1.40247615,0.41545134

>  <Name>
ligand

>  <RI>
0

>  <Rbt.Current_Directory>
/home/itssahil/PROJECTS/Mol_Feturizer/New_Systems/rnas/2EET

>  <Rbt.Executable>
rbdock ($Id: //depot/dev/client3/rdock/2013.1/src/exe/rbdock.cxx#4 $)

>  <Rbt.Library>
libRbt.so (2013.1, Build901 2013/11/27)

>  <Rbt.Parameter_File>
/export/apps/rDock/src/rDock_2013.1_src/data/scripts/dock_solv.prm

>  <Rbt.Receptor>
prm/pocket_docking_8.prm

>  <SCORE>
-18.0598

>  <SCORE.INTER>
-18.0598

>  <SCORE.INTER.CONST>
1

>  <SCORE.INTER.POLAR>
0

>  <SCORE.INTER.ROT>
0

>  <SCORE.INTER.SOLV>
4.24342

>  <SCORE.INTER.VDW>
-17.0543

>  <SCORE.INTER.norm>
-1.80598

>  <SCORE.INTRA>
0

>  <SCORE.INTRA.DIHEDRAL>
0

>  <SCORE.INTRA.DIHEDRAL.0>
0

>  <SCORE.INTRA.POLAR>
0

>  <SCORE.INTRA.POLAR.0>
0

>  <SCORE.INTRA.REPUL>
0

>  <SCORE.INTRA.REPUL.0>
0

>  <SCORE.INTRA.SOLV>
0

>  <SCORE.INTRA.SOLV.lig_0>
-4.28464

>  <SCORE.INTRA.VDW>
0

>  <SCORE.INTRA.VDW.0>
0

>  <SCORE.INTRA.norm>
0

>  <SCORE.RESTR>
0

>  <SCORE.RESTR.CAVITY>
0

>  <SCORE.RESTR.norm>
0

>  <SCORE.SYSTEM>
0

>  <SCORE.SYSTEM.CONST>
0

>  <SCORE.SYSTEM.DIHEDRAL>
0

>  <SCORE.SYSTEM.SOLV>
0

>  <SCORE.SYSTEM.norm>
0

>  <SCORE.heavy>
10

>  <SCORE.norm>
-1.80598

>  <RMSD>
0.712

$$$$
ligand
 OpenBabel11021811423D
libRbt.so/2013.1/901 2013/11/27
 10 11  0  0  0  0  0  0  0  0999 V2000
   11.5021    9.5097   29.5183 N   0  0  0  0  0  0  0  0  0  0  0  0
   11.3607   10.8697   29.3035 C   0  0  0  0  0  0  0  0  0  0  0  0
   11.1334   11.3732   28.0843 N   0  0  0  0  0  0  0  0  0  0  0  0
   11.0607   10.4100   27.1093 C   0  0  0  0  0  0  0  0  0  0  0  0
   11.1928    9.0491   27.2626 C   0  0  0  0  0  0  0  0  0  0  0  0
   11.4343    8.5034   28.5539 C   0  0  0  0  0  0  0  0  0  0  0  0
   11.5825    7.3268   28.9077 O   0  0  0  0  0  0  0  0  0  0  0  0
   11.0508    8.4567   26.0349 N   0  0  0  0  0  0  0  0  0  0  0  0
   10.8336    9.4483   25.1499 C   0  0  0  0  0  0  0  0  0  0  0  0
   10.8354   10.6671   25.7802 N   0  0  0  0  0  0  0  0  0  0  0  0
  1  2  1  0  0  0  0
  1  6  1  0  0  0  0
  2  3  2  0  0  0  0
  3  4  1  0  0  0  0
  4  5  2  0  0  0  0
  4 10  1  0  0  0  0
  5  6  1  0  0  0  0
  5  8  1  0  0  0  0
  6  7  2  0  0  0  0
  8  9  1  0  0  0  0
  9 10  2  0  0  0  0
M  END
>  <CHROM.1>
11.20611911,9.52053831,27.59779252,0.18411996,-1.39919574,0.47781896

>  <Name>
ligand

>  <RI>
0

>  <Rbt.Current_Directory>
/home/itssahil/PROJECTS/Mol_Feturizer/New_Systems/rnas/2EET

>  <Rbt.Executable>
rbdock ($Id: //depot/dev/client3/rdock/2013.1/src/exe/rbdock.cxx#4 $)

>  <Rbt.Library>
libRbt.so (2013.1, Build901 2013/11/27)

>  <Rbt.Parameter_File>
/export/apps/rDock/src/rDock_2013.1_src/data/scripts/dock_solv.prm

>  <Rbt.Receptor>
prm/pocket_docking_8.prm

>  <SCORE>
-18.0755

>  <SCORE.INTER>
-18.0755

>  <SCORE.INTER.CONST>
1

>  <SCORE.INTER.POLAR>
0

>  <SCORE.INTER.ROT>
0

>  <SCORE.INTER.SOLV>
4.19556

>  <SCORE.INTER.VDW>
-17.0489

>  <SCORE.INTER.norm>
-1.80755

>  <SCORE.INTRA>
0

>  <SCORE.INTRA.DIHEDRAL>
0

>  <SCORE.INTRA.DIHEDRAL.0>
0

>  <SCORE.INTRA.POLAR>
0

>  <SCORE.INTRA.POLAR.0>
0

>  <SCORE.INTRA.REPUL>
0

>  <SCORE.INTRA.REPUL.0>
0

>  <SCORE.INTRA.SOLV>
0

>  <SCORE.INTRA.SOLV.lig_0>
-4.28464

>  <SCORE.INTRA.VDW>
0

>  <SCORE.INTRA.VDW.0>
0

>  <SCORE.INTRA.norm>
0

>  <SCORE.RESTR>
0

>  <SCORE.RESTR.CAVITY>
0

>  <SCORE.RESTR.norm>
0

>  <SCORE.SYSTEM>
0

>  <SCORE.SYSTEM.CONST>
0

>  <SCORE.SYSTEM.DIHEDRAL>
0

>  <SCORE.SYSTEM.SOLV>
0

>  <SCORE.SYSTEM.norm>
0

>  <SCORE.heavy>
10

>  <SCORE.norm>
-1.80755

>  <RMSD>
0.712

$$$$
ligand
 OpenBabel11021811423D
libRbt.so/2013.1/901 2013/11/27
 10 11  0  0  0  0  0  0  0  0999 V2000
   11.5105    9.5001   29.4828 N   0  0  0  0  0  0  0  0  0  0  0  0
   11.3693   10.8636   29.2919 C   0  0  0  0  0  0  0  0  0  0  0  0
   11.1277   11.3872   28.0840 N   0  0  0  0  0  0  0  0  0  0  0  0
   11.0404   10.4401   27.0946 C   0  0  0  0  0  0  0  0  0  0  0  0
   11.1715    9.0766   27.2242 C   0  0  0  0  0  0  0  0  0  0  0  0
   11.4282    8.5097   28.5033 C   0  0  0  0  0  0  0  0  0  0  0  0
   11.5783    7.3272   28.8361 O   0  0  0  0  0  0  0  0  0  0  0  0
   11.0126    8.5045   25.9890 N   0  0  0  0  0  0  0  0  0  0  0  0
   10.7863    9.5107   25.1230 C   0  0  0  0  0  0  0  0  0  0  0  0
   10.7989   10.7191   25.7728 N   0  0  0  0  0  0  0  0  0  0  0  0
  1  2  1  0  0  0  0
  1  6  1  0  0  0  0
  2  3  2  0  0  0  0
  3  4  1  0  0  0  0
  4  5  2  0  0  0  0
  4 10  1  0  0  0  0
  5  6  1  0  0  0  0
  5  8  1  0  0  0  0
  6  7  2  0  0  0  0
  8  9  1  0  0  0  0
  9 10  2  0  0  0  0
M  END
>  <CHROM.1>
11.19008538,9.54253345,27.56673479,0.14097209,-1.38875540,0.45149744

>  <Name>
ligand

>  <RI>
0

>  <Rbt.Current_Directory>
/home/itssahil/PROJECTS/Mol_Feturizer/New_Systems/rnas/2EET

>  <Rbt.Executable>
rbdock ($Id: //depot/dev/client3/rdock/2013.1/src/exe/rbdock.cxx#4 $)

>  <Rbt.Library>
libRbt.so (2013.1, Build901 2013/11/27)

>  <Rbt.Parameter_File>
/export/apps/rDock/src/rDock_2013.1_src/data/scripts/dock_solv.prm

>  <Rbt.Receptor>
prm/blind_docking_40.prm

>  <SCORE>
-18.0853

>  <SCORE.INTER>
-18.0853

>  <SCORE.INTER.CONST>
1

>  <SCORE.INTER.POLAR>
0

>  <SCORE.INTER.ROT>
0

>  <SCORE.INTER.SOLV>
4.1539

>  <SCORE.INTER.VDW>
-17.0415

>  <SCORE.INTER.norm>
-1.80853

>  <SCORE.INTRA>
0

>  <SCORE.INTRA.DIHEDRAL>
0

>  <SCORE.INTRA.DIHEDRAL.0>
0

>  <SCORE.INTRA.POLAR>
0

>  <SCORE.INTRA.POLAR.0>
0

>  <SCORE.INTRA.REPUL>
0

>  <SCORE.INTRA.REPUL.0>
0

>  <SCORE.INTRA.SOLV>
0

>  <SCORE.INTRA.SOLV.lig_0>
-4.28464

>  <SCORE.INTRA.VDW>
0

>  <SCORE.INTRA.VDW.0>
0

>  <SCORE.INTRA.norm>
0

>  <SCORE.RESTR>
0

>  <SCORE.RESTR.CAVITY>
0

>  <SCORE.RESTR.norm>
0

>  <SCORE.SYSTEM>
0

>  <SCORE.SYSTEM.CONST>
0

>  <SCORE.SYSTEM.DIHEDRAL>
0

>  <SCORE.SYSTEM.SOLV>
0

>  <SCORE.SYSTEM.norm>
0

>  <SCORE.heavy>
10

>  <SCORE.norm>
-1.80853

>  <RMSD>
0.713

$$$$
ligand
 OpenBabel11021811423D
libRbt.so/2013.1/901 2013/11/27
 10 11  0  0  0  0  0  0  0  0999 V2000
   11.4891    9.5126   29.5261 N   0  0  0  0  0  0  0  0  0  0  0  0
   11.3496   10.8728   29.3117 C   0  0  0  0  0  0  0  0  0  0  0  0
   11.1302   11.3774   28.0915 N   0  0  0  0  0  0  0  0  0  0  0  0
   11.0631   10.4152   27.1152 C   0  0  0  0  0  0  0  0  0  0  0  0
   11.1936    9.0540   27.2682 C   0  0  0  0  0  0  0  0  0  0  0  0
   11.4268    8.5072   28.5605 C   0  0  0  0  0  0  0  0  0  0  0  0
   11.5723    7.3302   28.9141 O   0  0  0  0  0  0  0  0  0  0  0  0
   11.0590    8.4628   26.0390 N   0  0  0  0  0  0  0  0  0  0  0  0
   10.8477    9.4553   25.1536 C   0  0  0  0  0  0  0  0  0  0  0  0
   10.8462   10.6735   25.7850 N   0  0  0  0  0  0  0  0  0  0  0  0
  1  2  1  0  0  0  0
  1  6  1  0  0  0  0
  2  3  2  0  0  0  0
  3  4  1  0  0  0  0
  4  5  2  0  0  0  0
  4 10  1  0  0  0  0
  5  6  1  0  0  0  0
  5  8  1  0  0  0  0
  6  7  2  0  0  0  0
  8  9  1  0  0  0  0
  9 10  2  0  0  0  0
M  END
>  <CHROM.1>
11.20503448,9.52520786,27.60381202,0.19890465,-1.40491200,0.49326273

>  <Name>
ligand

>  <RI>
0

>  <Rbt.Current_Directory>
/home/itssahil/PROJECTS/Mol_Feturizer/New_Systems/rnas/2EET

>  <Rbt.Executable>
rbdock ($Id: //depot/dev/client3/rdock/2013.1/src/exe/rbdock.cxx#4 $)

>  <Rbt.Library>
libRbt.so (2013.1, Build901 2013/11/27)

>  <Rbt.Parameter_File>
/export/apps/rDock/src/rDock_2013.1_src/data/scripts/dock_solv.prm

>  <Rbt.Receptor>
prm/blind_docking_60.prm

>  <SCORE>
-18.0656

>  <SCORE.INTER>
-18.0656

>  <SCORE.INTER.CONST>
1

>  <SCORE.INTER.POLAR>
0

>  <SCORE.INTER.ROT>
0

>  <SCORE.INTER.SOLV>
4.21448

>  <SCORE.INTER.VDW>
-17.0486

>  <SCORE.INTER.norm>
-1.80656

>  <SCORE.INTRA>
0

>  <SCORE.INTRA.DIHEDRAL>
0

>  <SCORE.INTRA.DIHEDRAL.0>
0

>  <SCORE.INTRA.POLAR>
0

>  <SCORE.INTRA.POLAR.0>
0

>  <SCORE.INTRA.REPUL>
0

>  <SCORE.INTRA.REPUL.0>
0

>  <SCORE.INTRA.SOLV>
0

>  <SCORE.INTRA.SOLV.lig_0>
-4.28464

>  <SCORE.INTRA.VDW>
0

>  <SCORE.INTRA.VDW.0>
0

>  <SCORE.INTRA.norm>
0

>  <SCORE.RESTR>
0

>  <SCORE.RESTR.CAVITY>
0

>  <SCORE.RESTR.norm>
0

>  <SCORE.SYSTEM>
0

>  <SCORE.SYSTEM.CONST>
0

>  <SCORE.SYSTEM.DIHEDRAL>
0

>  <SCORE.SYSTEM.SOLV>
0

>  <SCORE.SYSTEM.norm>
0

>  <SCORE.heavy>
10

>  <SCORE.norm>
-1.80656

>  <RMSD>
0.713

$$$$
ligand
 OpenBabel11021811423D
libRbt.so/2013.1/901 2013/11/27
 10 11  0  0  0  0  0  0  0  0999 V2000
   11.5046    9.5057   29.5150 N   0  0  0  0  0  0  0  0  0  0  0  0
   11.3685   10.8663   29.3005 C   0  0  0  0  0  0  0  0  0  0  0  0
   11.1353   11.3702   28.0826 N   0  0  0  0  0  0  0  0  0  0  0  0
   11.0510   10.4069   27.1087 C   0  0  0  0  0  0  0  0  0  0  0  0
   11.1773    9.0454   27.2619 C   0  0  0  0  0  0  0  0  0  0  0  0
   11.4251    8.4993   28.5518 C   0  0  0  0  0  0  0  0  0  0  0  0
   11.5698    7.3221   28.9052 O   0  0  0  0  0  0  0  0  0  0  0  0
   11.0239    8.4531   26.0355 N   0  0  0  0  0  0  0  0  0  0  0  0
   10.8055    9.4453   25.1515 C   0  0  0  0  0  0  0  0  0  0  0  0
   10.8178   10.6644   25.7811 N   0  0  0  0  0  0  0  0  0  0  0  0
  1  2  1  0  0  0  0
  1  6  1  0  0  0  0
  2  3  2  0  0  0  0
  3  4  1  0  0  0  0
  4  5  2  0  0  0  0
  4 10  1  0  0  0  0
  5  6  1  0  0  0  0
  5  8  1  0  0  0  0
  6  7  2  0  0  0  0
  8  9  1  0  0  0  0
  9 10  2  0  0  0  0
M  END
>  <CHROM.1>
11.19533821,9.51696487,27.59667506,0.14043523,-1.39517523,0.43423147

>  <Name>
ligand

>  <RI>
0

>  <Rbt.Current_Directory>
/home/itssahil/PROJECTS/Mol_Feturizer/New_Systems/rnas/2EET

>  <Rbt.Executable>
rbdock ($Id: //depot/dev/client3/rdock/2013.1/src/exe/rbdock.cxx#4 $)

>  <Rbt.Library>
libRbt.so (2013.1, Build901 2013/11/27)

>  <Rbt.Parameter_File>
/export/apps/rDock/src/rDock_2013.1_src/data/scripts/dock_solv.prm

>  <Rbt.Receptor>
prm/blind_docking_60.prm

>  <SCORE>
-18.0484

>  <SCORE.INTER>
-18.0486

>  <SCORE.INTER.CONST>
1

>  <SCORE.INTER.POLAR>
0

>  <SCORE.INTER.ROT>
0

>  <SCORE.INTER.SOLV>
4.20679

>  <SCORE.INTER.VDW>
-17.0346

>  <SCORE.INTER.norm>
-1.80486

>  <SCORE.INTRA>
0

>  <SCORE.INTRA.DIHEDRAL>
0

>  <SCORE.INTRA.DIHEDRAL.0>
0

>  <SCORE.INTRA.POLAR>
0

>  <SCORE.INTRA.POLAR.0>
0

>  <SCORE.INTRA.REPUL>
0

>  <SCORE.INTRA.REPUL.0>
0

>  <SCORE.INTRA.SOLV>
0

>  <SCORE.INTRA.SOLV.lig_0>
-4.28464

>  <SCORE.INTRA.VDW>
0

>  <SCORE.INTRA.VDW.0>
0

>  <SCORE.INTRA.norm>
0

>  <SCORE.RESTR>
0.000176316

>  <SCORE.RESTR.CAVITY>
0.000176316

>  <SCORE.RESTR.norm>
1.76316e-05

>  <SCORE.SYSTEM>
0

>  <SCORE.SYSTEM.CONST>
0

>  <SCORE.SYSTEM.DIHEDRAL>
0

>  <SCORE.SYSTEM.SOLV>
0

>  <SCORE.SYSTEM.norm>
0

>  <SCORE.heavy>
10

>  <SCORE.norm>
-1.80484

>  <RMSD>
0.713

$$$$
ligand
 OpenBabel11021811423D
libRbt.so/2013.1/901 2013/11/27
 10 11  0  0  0  0  0  0  0  0999 V2000
   11.5019    9.5056   29.5150 N   0  0  0  0  0  0  0  0  0  0  0  0
   11.3618   10.8659   29.3011 C   0  0  0  0  0  0  0  0  0  0  0  0
   11.1342   11.3702   28.0822 N   0  0  0  0  0  0  0  0  0  0  0  0
   11.0597   10.4076   27.1068 C   0  0  0  0  0  0  0  0  0  0  0  0
   11.1903    9.0464   27.2594 C   0  0  0  0  0  0  0  0  0  0  0  0
   11.4322    8.4999   28.5503 C   0  0  0  0  0  0  0  0  0  0  0  0
   11.5793    7.3230   28.9034 O   0  0  0  0  0  0  0  0  0  0  0  0
   11.0467    8.4548   26.0315 N   0  0  0  0  0  0  0  0  0  0  0  0
   10.8300    9.4471   25.1472 C   0  0  0  0  0  0  0  0  0  0  0  0
   10.8337   10.6656   25.7781 N   0  0  0  0  0  0  0  0  0  0  0  0
  1  2  1  0  0  0  0
  1  6  1  0  0  0  0
  2  3  2  0  0  0  0
  3  4  1  0  0  0  0
  4  5  2  0  0  0  0
  4 10  1  0  0  0  0
  5  6  1  0  0  0  0
  5  8  1  0  0  0  0
  6  7  2  0  0  0  0
  8  9  1  0  0  0  0
  9 10  2  0  0  0  0
M  END
>  <CHROM.1>
11.20444694,9.51770230,27.59480233,0.17616457,-1.39903780,0.47045507

>  <Name>
ligand

>  <RI>
0

>  <Rbt.Current_Directory>
/home/itssahil/PROJECTS/Mol_Feturizer/New_Systems/rnas/2EET

>  <Rbt.Executable>
rbdock ($Id: //depot/dev/client3/rdock/2013.1/src/exe/rbdock.cxx#4 $)

>  <Rbt.Library>
libRbt.so (2013.1, Build901 2013/11/27)

>  <Rbt.Parameter_File>
/export/apps/rDock/src/rDock_2013.1_src/data/scripts/dock_solv.prm

>  <Rbt.Receptor>
prm/pocket_docking_3.prm

>  <SCORE>
-18.0786

>  <SCORE.INTER>
-18.0786

>  <SCORE.INTER.CONST>
1

>  <SCORE.INTER.POLAR>
0

>  <SCORE.INTER.ROT>
0

>  <SCORE.INTER.SOLV>
4.19685

>  <SCORE.INTER.VDW>
-17.0514

>  <SCORE.INTER.norm>
-1.80786

>  <SCORE.INTRA>
0

>  <SCORE.INTRA.DIHEDRAL>
0

>  <SCORE.INTRA.DIHEDRAL.0>
0

>  <SCORE.INTRA.POLAR>
0

>  <SCORE.INTRA.POLAR.0>
0

>  <SCORE.INTRA.REPUL>
0

>  <SCORE.INTRA.REPUL.0>
0

>  <SCORE.INTRA.SOLV>
0

>  <SCORE.INTRA.SOLV.lig_0>
-4.28464

>  <SCORE.INTRA.VDW>
0

>  <SCORE.INTRA.VDW.0>
0

>  <SCORE.INTRA.norm>
0

>  <SCORE.RESTR>
0

>  <SCORE.RESTR.CAVITY>
0

>  <SCORE.RESTR.norm>
0

>  <SCORE.SYSTEM>
0

>  <SCORE.SYSTEM.CONST>
0

>  <SCORE.SYSTEM.DIHEDRAL>
0

>  <SCORE.SYSTEM.SOLV>
0

>  <SCORE.SYSTEM.norm>
0

>  <SCORE.heavy>
10

>  <SCORE.norm>
-1.80786

>  <RMSD>
0.713

$$$$
ligand
 OpenBabel11021811423D
libRbt.so/2013.1/901 2013/11/27
 10 11  0  0  0  0  0  0  0  0999 V2000
   11.4979    9.5129   29.5218 N   0  0  0  0  0  0  0  0  0  0  0  0
   11.3567   10.8727   29.3061 C   0  0  0  0  0  0  0  0  0  0  0  0
   11.1322   11.3755   28.0860 N   0  0  0  0  0  0  0  0  0  0  0  0
   11.0618   10.4118   27.1114 C   0  0  0  0  0  0  0  0  0  0  0  0
   11.1937    9.0509   27.2658 C   0  0  0  0  0  0  0  0  0  0  0  0
   11.4324    8.5061   28.5579 C   0  0  0  0  0  0  0  0  0  0  0  0
   11.5800    7.3297   28.9126 O   0  0  0  0  0  0  0  0  0  0  0  0
   11.0546    8.4579   26.0380 N   0  0  0  0  0  0  0  0  0  0  0  0
   10.8392    9.4490   25.1521 C   0  0  0  0  0  0  0  0  0  0  0  0
   10.8394   10.6681   25.7817 N   0  0  0  0  0  0  0  0  0  0  0  0
  1  2  1  0  0  0  0
  1  6  1  0  0  0  0
  2  3  2  0  0  0  0
  3  4  1  0  0  0  0
  4  5  2  0  0  0  0
  4 10  1  0  0  0  0
  5  6  1  0  0  0  0
  5  8  1  0  0  0  0
  6  7  2  0  0  0  0
  8  9  1  0  0  0  0
  9 10  2  0  0  0  0
M  END
>  <CHROM.1>
11.20619539,9.52261007,27.60070779,0.19101304,-1.40112048,0.48406426

>  <Name>
ligand

>  <RI>
0

>  <Rbt.Current_Directory>
/home/itssahil/PROJECTS/Mol_Feturizer/New_Systems/rnas/2EET

>  <Rbt.Executable>
rbdock ($Id: //depot/dev/client3/rdock/2013.1/src/exe/rbdock.cxx#4 $)

>  <Rbt.Library>
libRbt.so (2013.1, Build901 2013/11/27)

>  <Rbt.Parameter_File>
/export/apps/rDock/src/rDock_2013.1_src/data/scripts/dock_solv.prm

>  <Rbt.Receptor>
prm/pocket_docking_4.prm

>  <SCORE>
-18.0717

>  <SCORE.INTER>
-18.0717

>  <SCORE.INTER.CONST>
1

>  <SCORE.INTER.POLAR>
0

>  <SCORE.INTER.ROT>
0

>  <SCORE.INTER.SOLV>
4.20187

>  <SCORE.INTER.VDW>
-17.0484

>  <SCORE.INTER.norm>
-1.80717

>  <SCORE.INTRA>
0

>  <SCORE.INTRA.DIHEDRAL>
0

>  <SCORE.INTRA.DIHEDRAL.0>
0

>  <SCORE.INTRA.POLAR>
0

>  <SCORE.INTRA.POLAR.0>
0

>  <SCORE.INTRA.REPUL>
0

>  <SCORE.INTRA.REPUL.0>
0

>  <SCORE.INTRA.SOLV>
0

>  <SCORE.INTRA.SOLV.lig_0>
-4.28464

>  <SCORE.INTRA.VDW>
0

>  <SCORE.INTRA.VDW.0>
0

>  <SCORE.INTRA.norm>
0

>  <SCORE.RESTR>
0

>  <SCORE.RESTR.CAVITY>
0

>  <SCORE.RESTR.norm>
0

>  <SCORE.SYSTEM>
0

>  <SCORE.SYSTEM.CONST>
0

>  <SCORE.SYSTEM.DIHEDRAL>
0

>  <SCORE.SYSTEM.SOLV>
0

>  <SCORE.SYSTEM.norm>
0

>  <SCORE.heavy>
10

>  <SCORE.norm>
-1.80717

>  <RMSD>
0.713

$$$$
ligand
 OpenBabel11021811423D
libRbt.so/2013.1/901 2013/11/27
 10 11  0  0  0  0  0  0  0  0999 V2000
   11.5056    9.5115   29.5168 N   0  0  0  0  0  0  0  0  0  0  0  0
   11.3636   10.8711   29.3006 C   0  0  0  0  0  0  0  0  0  0  0  0
   11.1341   11.3729   28.0811 N   0  0  0  0  0  0  0  0  0  0  0  0
   11.0597   10.4085   27.1075 C   0  0  0  0  0  0  0  0  0  0  0  0
   11.1922    9.0477   27.2624 C   0  0  0  0  0  0  0  0  0  0  0  0
   11.4361    8.5039   28.5540 C   0  0  0  0  0  0  0  0  0  0  0  0
   11.5851    7.3278   28.9091 O   0  0  0  0  0  0  0  0  0  0  0  0
   11.0480    8.4538   26.0357 N   0  0  0  0  0  0  0  0  0  0  0  0
   10.8291    9.4441   25.1498 C   0  0  0  0  0  0  0  0  0  0  0  0
   10.8320   10.6638   25.7785 N   0  0  0  0  0  0  0  0  0  0  0  0
  1  2  1  0  0  0  0
  1  6  1  0  0  0  0
  2  3  2  0  0  0  0
  3  4  1  0  0  0  0
  4  5  2  0  0  0  0
  4 10  1  0  0  0  0
  5  6  1  0  0  0  0
  5  8  1  0  0  0  0
  6  7  2  0  0  0  0
  8  9  1  0  0  0  0
  9 10  2  0  0  0  0
M  END
>  <CHROM.1>
11.20606418,9.51966849,27.59691743,0.17969342,-1.39752544,0.47210831

>  <Name>
ligand

>  <RI>
0

>  <Rbt.Current_Directory>
/home/itssahil/PROJECTS/Mol_Feturizer/New_Systems/rnas/2EET

>  <Rbt.Executable>
rbdock ($Id: //depot/dev/client3/rdock/2013.1/src/exe/rbdock.cxx#4 $)

>  <Rbt.Library>
libRbt.so (2013.1, Build901 2013/11/27)

>  <Rbt.Parameter_File>
/export/apps/rDock/src/rDock_2013.1_src/data/scripts/dock_solv.prm

>  <Rbt.Receptor>
prm/pocket_docking_5.prm

>  <SCORE>
-18.0765

>  <SCORE.INTER>
-18.0766

>  <SCORE.INTER.CONST>
1

>  <SCORE.INTER.POLAR>
0

>  <SCORE.INTER.ROT>
0

>  <SCORE.INTER.SOLV>
4.19219

>  <SCORE.INTER.VDW>
-17.0484

>  <SCORE.INTER.norm>
-1.80766

>  <SCORE.INTRA>
0

>  <SCORE.INTRA.DIHEDRAL>
0

>  <SCORE.INTRA.DIHEDRAL.0>
0

>  <SCORE.INTRA.POLAR>
0

>  <SCORE.INTRA.POLAR.0>
0

>  <SCORE.INTRA.REPUL>
0

>  <SCORE.INTRA.REPUL.0>
0

>  <SCORE.INTRA.SOLV>
0

>  <SCORE.INTRA.SOLV.lig_0>
-4.28464

>  <SCORE.INTRA.VDW>
0

>  <SCORE.INTRA.VDW.0>
0

>  <SCORE.INTRA.norm>
0

>  <SCORE.RESTR>
3.14211e-05

>  <SCORE.RESTR.CAVITY>
3.14211e-05

>  <SCORE.RESTR.norm>
3.14211e-06

>  <SCORE.SYSTEM>
0

>  <SCORE.SYSTEM.CONST>
0

>  <SCORE.SYSTEM.DIHEDRAL>
0

>  <SCORE.SYSTEM.SOLV>
0

>  <SCORE.SYSTEM.norm>
0

>  <SCORE.heavy>
10

>  <SCORE.norm>
-1.80765

>  <RMSD>
0.713

$$$$
ligand
 OpenBabel11021811423D
libRbt.so/2013.1/901 2013/11/27
 10 11  0  0  0  0  0  0  0  0999 V2000
   11.5028    9.5101   29.5177 N   0  0  0  0  0  0  0  0  0  0  0  0
   11.3606   10.8699   29.3024 C   0  0  0  0  0  0  0  0  0  0  0  0
   11.1322   11.3727   28.0831 N   0  0  0  0  0  0  0  0  0  0  0  0
   11.0591   10.4090   27.1087 C   0  0  0  0  0  0  0  0  0  0  0  0
   11.1918    9.0482   27.2626 C   0  0  0  0  0  0  0  0  0  0  0  0
   11.4346    8.5033   28.5539 C   0  0  0  0  0  0  0  0  0  0  0  0
   11.5835    7.3270   28.9082 O   0  0  0  0  0  0  0  0  0  0  0  0
   11.0491    8.4552   26.0352 N   0  0  0  0  0  0  0  0  0  0  0  0
   10.8308    9.4462   25.1500 C   0  0  0  0  0  0  0  0  0  0  0  0
   10.8326   10.6653   25.7797 N   0  0  0  0  0  0  0  0  0  0  0  0
  1  2  1  0  0  0  0
  1  6  1  0  0  0  0
  2  3  2  0  0  0  0
  3  4  1  0  0  0  0
  4  5  2  0  0  0  0
  4 10  1  0  0  0  0
  5  6  1  0  0  0  0
  5  8  1  0  0  0  0
  6  7  2  0  0  0  0
  8  9  1  0  0  0  0
  9 10  2  0  0  0  0
M  END
>  <CHROM.1>
11.20520457,9.51983762,27.59748149,0.18399682,-1.39830346,0.47719209

>  <Name>
ligand

>  <RI>
0

>  <Rbt.Current_Directory>
/home/itssahil/PROJECTS/Mol_Feturizer/New_Systems/rnas/2EET

>  <Rbt.Executable>
rbdock ($Id: //depot/dev/client3/rdock/2013.1/src/exe/rbdock.cxx#4 $)

>  <Rbt.Library>
libRbt.so (2013.1, Build901 2013/11/27)

>  <Rbt.Parameter_File>
/export/apps/rDock/src/rDock_2013.1_src/data/scripts/dock_solv.prm

>  <Rbt.Receptor>
prm/pocket_docking_5.prm

>  <SCORE>
-18.0752

>  <SCORE.INTER>
-18.0752

>  <SCORE.INTER.CONST>
1

>  <SCORE.INTER.POLAR>
0

>  <SCORE.INTER.ROT>
0

>  <SCORE.INTER.SOLV>
4.19375

>  <SCORE.INTER.VDW>
-17.0481

>  <SCORE.INTER.norm>
-1.80752

>  <SCORE.INTRA>
0

>  <SCORE.INTRA.DIHEDRAL>
0

>  <SCORE.INTRA.DIHEDRAL.0>
0

>  <SCORE.INTRA.POLAR>
0

>  <SCORE.INTRA.POLAR.0>
0

>  <SCORE.INTRA.REPUL>
0

>  <SCORE.INTRA.REPUL.0>
0

>  <SCORE.INTRA.SOLV>
0

>  <SCORE.INTRA.SOLV.lig_0>
-4.28464

>  <SCORE.INTRA.VDW>
0

>  <SCORE.INTRA.VDW.0>
0

>  <SCORE.INTRA.norm>
0

>  <SCORE.RESTR>
0

>  <SCORE.RESTR.CAVITY>
0

>  <SCORE.RESTR.norm>
0

>  <SCORE.SYSTEM>
0

>  <SCORE.SYSTEM.CONST>
0

>  <SCORE.SYSTEM.DIHEDRAL>
0

>  <SCORE.SYSTEM.SOLV>
0

>  <SCORE.SYSTEM.norm>
0

>  <SCORE.heavy>
10

>  <SCORE.norm>
-1.80752

>  <RMSD>
0.713

$$$$
ligand
 OpenBabel11021811423D
libRbt.so/2013.1/901 2013/11/27
 10 11  0  0  0  0  0  0  0  0999 V2000
   11.5071    9.5029   29.5110 N   0  0  0  0  0  0  0  0  0  0  0  0
   11.3720   10.8640   29.2993 C   0  0  0  0  0  0  0  0  0  0  0  0
   11.1336   11.3701   28.0833 N   0  0  0  0  0  0  0  0  0  0  0  0
   11.0432   10.4085   27.1083 C   0  0  0  0  0  0  0  0  0  0  0  0
   11.1682    9.0466   27.2587 C   0  0  0  0  0  0  0  0  0  0  0  0
   11.4215    8.4981   28.5465 C   0  0  0  0  0  0  0  0  0  0  0  0
   11.5662    7.3202   28.8974 O   0  0  0  0  0  0  0  0  0  0  0  0
   11.0080    8.4565   26.0322 N   0  0  0  0  0  0  0  0  0  0  0  0
   10.7867    9.4503   25.1508 C   0  0  0  0  0  0  0  0  0  0  0  0
   10.8039   10.6684   25.7822 N   0  0  0  0  0  0  0  0  0  0  0  0
  1  2  1  0  0  0  0
  1  6  1  0  0  0  0
  2  3  2  0  0  0  0
  3  4  1  0  0  0  0
  4  5  2  0  0  0  0
  4 10  1  0  0  0  0
  5  6  1  0  0  0  0
  5  8  1  0  0  0  0
  6  7  2  0  0  0  0
  8  9  1  0  0  0  0
  9 10  2  0  0  0  0
M  END
>  <CHROM.1>
11.18856318,9.51759487,27.59415874,0.12152047,-1.39134963,0.41718016

>  <Name>
ligand

>  <RI>
0

>  <Rbt.Current_Directory>
/home/itssahil/PROJECTS/Mol_Feturizer/New_Systems/rnas/2EET

>  <Rbt.Executable>
rbdock ($Id: //depot/dev/client3/rdock/2013.1/src/exe/rbdock.cxx#4 $)

>  <Rbt.Library>
libRbt.so (2013.1, Build901 2013/11/27)

>  <Rbt.Parameter_File>
/export/apps/rDock/src/rDock_2013.1_src/data/scripts/dock_solv.prm

>  <Rbt.Receptor>
prm/pocket_docking_7.prm

>  <SCORE>
-18.0503

>  <SCORE.INTER>
-18.0503

>  <SCORE.INTER.CONST>
1

>  <SCORE.INTER.POLAR>
0

>  <SCORE.INTER.ROT>
0

>  <SCORE.INTER.SOLV>
4.20459

>  <SCORE.INTER.VDW>
-17.035

>  <SCORE.INTER.norm>
-1.80503

>  <SCORE.INTRA>
0

>  <SCORE.INTRA.DIHEDRAL>
0

>  <SCORE.INTRA.DIHEDRAL.0>
0

>  <SCORE.INTRA.POLAR>
0

>  <SCORE.INTRA.POLAR.0>
0

>  <SCORE.INTRA.REPUL>
0

>  <SCORE.INTRA.REPUL.0>
0

>  <SCORE.INTRA.SOLV>
0

>  <SCORE.INTRA.SOLV.lig_0>
-4.28464

>  <SCORE.INTRA.VDW>
0

>  <SCORE.INTRA.VDW.0>
0

>  <SCORE.INTRA.norm>
0

>  <SCORE.RESTR>
0

>  <SCORE.RESTR.CAVITY>
0

>  <SCORE.RESTR.norm>
0

>  <SCORE.SYSTEM>
0

>  <SCORE.SYSTEM.CONST>
0

>  <SCORE.SYSTEM.DIHEDRAL>
0

>  <SCORE.SYSTEM.SOLV>
0

>  <SCORE.SYSTEM.norm>
0

>  <SCORE.heavy>
10

>  <SCORE.norm>
-1.80503

>  <RMSD>
0.713

$$$$
ligand
 OpenBabel11021811423D
libRbt.so/2013.1/901 2013/11/27
 10 11  0  0  0  0  0  0  0  0999 V2000
   11.4962    9.4953   29.5063 N   0  0  0  0  0  0  0  0  0  0  0  0
   11.3483   10.8551   29.2950 C   0  0  0  0  0  0  0  0  0  0  0  0
   11.1176   11.3605   28.0772 N   0  0  0  0  0  0  0  0  0  0  0  0
   11.0483   10.3994   27.0999 C   0  0  0  0  0  0  0  0  0  0  0  0
   11.1868    9.0387   27.2498 C   0  0  0  0  0  0  0  0  0  0  0  0
   11.4320    8.4910   28.5396 C   0  0  0  0  0  0  0  0  0  0  0  0
   11.5859    7.3143   28.8903 O   0  0  0  0  0  0  0  0  0  0  0  0
   11.0463    8.4487   26.0208 N   0  0  0  0  0  0  0  0  0  0  0  0
   10.8237    9.4414   25.1385 C   0  0  0  0  0  0  0  0  0  0  0  0
   10.8206   10.6586   25.7717 N   0  0  0  0  0  0  0  0  0  0  0  0
  1  2  1  0  0  0  0
  1  6  1  0  0  0  0
  2  3  2  0  0  0  0
  3  4  1  0  0  0  0
  4  5  2  0  0  0  0
  4 10  1  0  0  0  0
  5  6  1  0  0  0  0
  5  8  1  0  0  0  0
  6  7  2  0  0  0  0
  8  9  1  0  0  0  0
  9 10  2  0  0  0  0
M  END
>  <CHROM.1>
11.19824818,9.50938261,27.58613566,0.20491354,-1.39619366,0.50072347

>  <Name>
ligand

>  <RI>
0

>  <Rbt.Current_Directory>
/home/itssahil/PROJECTS/Mol_Feturizer/New_Systems/rnas/2EET

>  <Rbt.Executable>
rbdock ($Id: //depot/dev/client3/rdock/2013.1/src/exe/rbdock.cxx#4 $)

>  <Rbt.Library>
libRbt.so (2013.1, Build901 2013/11/27)

>  <Rbt.Parameter_File>
/export/apps/rDock/src/rDock_2013.1_src/data/scripts/dock_solv.prm

>  <Rbt.Receptor>
prm/pocket_docking_7.prm

>  <SCORE>
-18.06

>  <SCORE.INTER>
-18.06

>  <SCORE.INTER.CONST>
1

>  <SCORE.INTER.POLAR>
0

>  <SCORE.INTER.ROT>
0

>  <SCORE.INTER.SOLV>
4.17799

>  <SCORE.INTER.VDW>
-17.0326

>  <SCORE.INTER.norm>
-1.806

>  <SCORE.INTRA>
0

>  <SCORE.INTRA.DIHEDRAL>
0

>  <SCORE.INTRA.DIHEDRAL.0>
0

>  <SCORE.INTRA.POLAR>
0

>  <SCORE.INTRA.POLAR.0>
0

>  <SCORE.INTRA.REPUL>
0

>  <SCORE.INTRA.REPUL.0>
0

>  <SCORE.INTRA.SOLV>
0

>  <SCORE.INTRA.SOLV.lig_0>
-4.28464

>  <SCORE.INTRA.VDW>
0

>  <SCORE.INTRA.VDW.0>
0

>  <SCORE.INTRA.norm>
0

>  <SCORE.RESTR>
0

>  <SCORE.RESTR.CAVITY>
0

>  <SCORE.RESTR.norm>
0

>  <SCORE.SYSTEM>
0

>  <SCORE.SYSTEM.CONST>
0

>  <SCORE.SYSTEM.DIHEDRAL>
0

>  <SCORE.SYSTEM.SOLV>
0

>  <SCORE.SYSTEM.norm>
0

>  <SCORE.heavy>
10

>  <SCORE.norm>
-1.806

>  <RMSD>
0.713

$$$$
ligand
 OpenBabel11021811423D
libRbt.so/2013.1/901 2013/11/27
 10 11  0  0  0  0  0  0  0  0999 V2000
   11.4885    9.5091   29.5233 N   0  0  0  0  0  0  0  0  0  0  0  0
   11.3510   10.8698   29.3102 C   0  0  0  0  0  0  0  0  0  0  0  0
   11.1325   11.3759   28.0904 N   0  0  0  0  0  0  0  0  0  0  0  0
   11.0642   10.4146   27.1132 C   0  0  0  0  0  0  0  0  0  0  0  0
   11.1928    9.0531   27.2649 C   0  0  0  0  0  0  0  0  0  0  0  0
   11.4251    8.5047   28.5567 C   0  0  0  0  0  0  0  0  0  0  0  0
   11.5689    7.3272   28.9093 O   0  0  0  0  0  0  0  0  0  0  0  0
   11.0577    8.4633   26.0352 N   0  0  0  0  0  0  0  0  0  0  0  0
   10.8479    9.4569   25.1507 C   0  0  0  0  0  0  0  0  0  0  0  0
   10.8480   10.6745   25.7832 N   0  0  0  0  0  0  0  0  0  0  0  0
  1  2  1  0  0  0  0
  1  6  1  0  0  0  0
  2  3  2  0  0  0  0
  3  4  1  0  0  0  0
  4  5  2  0  0  0  0
  4 10  1  0  0  0  0
  5  6  1  0  0  0  0
  5  8  1  0  0  0  0
  6  7  2  0  0  0  0
  8  9  1  0  0  0  0
  9 10  2  0  0  0  0
M  END
>  <CHROM.1>
11.20488200,9.52398735,27.60101786,0.19217996,-1.40572904,0.48757636

>  <Name>
ligand

>  <RI>
0

>  <Rbt.Current_Directory>
/home/itssahil/PROJECTS/Mol_Feturizer/New_Systems/rnas/2EET

>  <Rbt.Executable>
rbdock ($Id: //depot/dev/client3/rdock/2013.1/src/exe/rbdock.cxx#4 $)

>  <Rbt.Library>
libRbt.so (2013.1, Build901 2013/11/27)

>  <Rbt.Parameter_File>
/export/apps/rDock/src/rDock_2013.1_src/data/scripts/dock_solv.prm

>  <Rbt.Receptor>
prm/pocket_docking_8.prm

>  <SCORE>
-18.0681

>  <SCORE.INTER>
-18.0681

>  <SCORE.INTER.CONST>
1

>  <SCORE.INTER.POLAR>
0

>  <SCORE.INTER.ROT>
0

>  <SCORE.INTER.SOLV>
4.21684

>  <SCORE.INTER.VDW>
-17.051

>  <SCORE.INTER.norm>
-1.80681

>  <SCORE.INTRA>
0

>  <SCORE.INTRA.DIHEDRAL>
0

>  <SCORE.INTRA.DIHEDRAL.0>
0

>  <SCORE.INTRA.POLAR>
0

>  <SCORE.INTRA.POLAR.0>
0

>  <SCORE.INTRA.REPUL>
0

>  <SCORE.INTRA.REPUL.0>
0

>  <SCORE.INTRA.SOLV>
0

>  <SCORE.INTRA.SOLV.lig_0>
-4.28464

>  <SCORE.INTRA.VDW>
0

>  <SCORE.INTRA.VDW.0>
0

>  <SCORE.INTRA.norm>
0

>  <SCORE.RESTR>
0

>  <SCORE.RESTR.CAVITY>
0

>  <SCORE.RESTR.norm>
0

>  <SCORE.SYSTEM>
0

>  <SCORE.SYSTEM.CONST>
0

>  <SCORE.SYSTEM.DIHEDRAL>
0

>  <SCORE.SYSTEM.SOLV>
0

>  <SCORE.SYSTEM.norm>
0

>  <SCORE.heavy>
10

>  <SCORE.norm>
-1.80681

>  <RMSD>
0.713

$$$$
ligand
 OpenBabel11021811423D
libRbt.so/2013.1/901 2013/11/27
 10 11  0  0  0  0  0  0  0  0999 V2000
   11.4865    9.5107   29.5248 N   0  0  0  0  0  0  0  0  0  0  0  0
   11.3459   10.8711   29.3121 C   0  0  0  0  0  0  0  0  0  0  0  0
   11.1288   11.3773   28.0922 N   0  0  0  0  0  0  0  0  0  0  0  0
   11.0653   10.4165   27.1143 C   0  0  0  0  0  0  0  0  0  0  0  0
   11.1971    9.0553   27.2655 C   0  0  0  0  0  0  0  0  0  0  0  0
   11.4279    8.5067   28.5575 C   0  0  0  0  0  0  0  0  0  0  0  0
   11.5739    7.3294   28.9098 O   0  0  0  0  0  0  0  0  0  0  0  0
   11.0663    8.4658   26.0352 N   0  0  0  0  0  0  0  0  0  0  0  0
   10.8560    9.4593   25.1507 C   0  0  0  0  0  0  0  0  0  0  0  0
   10.8514   10.6766   25.7839 N   0  0  0  0  0  0  0  0  0  0  0  0
  1  2  1  0  0  0  0
  1  6  1  0  0  0  0
  2  3  2  0  0  0  0
  3  4  1  0  0  0  0
  4  5  2  0  0  0  0
  4 10  1  0  0  0  0
  5  6  1  0  0  0  0
  5  8  1  0  0  0  0
  6  7  2  0  0  0  0
  8  9  1  0  0  0  0
  9 10  2  0  0  0  0
M  END
>  <CHROM.1>
11.20715672,9.52595074,27.60189562,0.21273588,-1.40647781,0.50842571

>  <Name>
ligand

>  <RI>
0

>  <Rbt.Current_Directory>
/home/itssahil/PROJECTS/Mol_Feturizer/New_Systems/rnas/2EET

>  <Rbt.Executable>
rbdock ($Id: //depot/dev/client3/rdock/2013.1/src/exe/rbdock.cxx#4 $)

>  <Rbt.Library>
libRbt.so (2013.1, Build901 2013/11/27)

>  <Rbt.Parameter_File>
/export/apps/rDock/src/rDock_2013.1_src/data/scripts/dock_solv.prm

>  <Rbt.Receptor>
prm/pocket_docking_8.prm

>  <SCORE>
-18.0546

>  <SCORE.INTER>
-18.0546

>  <SCORE.INTER.CONST>
1

>  <SCORE.INTER.POLAR>
0

>  <SCORE.INTER.ROT>
0

>  <SCORE.INTER.SOLV>
4.21133

>  <SCORE.INTER.VDW>
-17.0402

>  <SCORE.INTER.norm>
-1.80546

>  <SCORE.INTRA>
0

>  <SCORE.INTRA.DIHEDRAL>
0

>  <SCORE.INTRA.DIHEDRAL.0>
0

>  <SCORE.INTRA.POLAR>
0

>  <SCORE.INTRA.POLAR.0>
0

>  <SCORE.INTRA.REPUL>
0

>  <SCORE.INTRA.REPUL.0>
0

>  <SCORE.INTRA.SOLV>
0

>  <SCORE.INTRA.SOLV.lig_0>
-4.28464

>  <SCORE.INTRA.VDW>
0

>  <SCORE.INTRA.VDW.0>
0

>  <SCORE.INTRA.norm>
0

>  <SCORE.RESTR>
0

>  <SCORE.RESTR.CAVITY>
0

>  <SCORE.RESTR.norm>
0

>  <SCORE.SYSTEM>
0

>  <SCORE.SYSTEM.CONST>
0

>  <SCORE.SYSTEM.DIHEDRAL>
0

>  <SCORE.SYSTEM.SOLV>
0

>  <SCORE.SYSTEM.norm>
0

>  <SCORE.heavy>
10

>  <SCORE.norm>
-1.80546

>  <RMSD>
0.713

$$$$
ligand
 OpenBabel11021811423D
libRbt.so/2013.1/901 2013/11/27
 10 11  0  0  0  0  0  0  0  0999 V2000
   11.4994    9.5123   29.5190 N   0  0  0  0  0  0  0  0  0  0  0  0
   11.3563   10.8718   29.3023 C   0  0  0  0  0  0  0  0  0  0  0  0
   11.1295   11.3734   28.0822 N   0  0  0  0  0  0  0  0  0  0  0  0
   11.0589   10.4089   27.1084 C   0  0  0  0  0  0  0  0  0  0  0  0
   11.1926    9.0483   27.2637 C   0  0  0  0  0  0  0  0  0  0  0  0
   11.4337    8.5047   28.5559 C   0  0  0  0  0  0  0  0  0  0  0  0
   11.5832    7.3288   28.9113 O   0  0  0  0  0  0  0  0  0  0  0  0
   11.0525    8.4542   26.0366 N   0  0  0  0  0  0  0  0  0  0  0  0
   10.8347    9.4443   25.1501 C   0  0  0  0  0  0  0  0  0  0  0  0
   10.8344   10.6639   25.7789 N   0  0  0  0  0  0  0  0  0  0  0  0
  1  2  1  0  0  0  0
  1  6  1  0  0  0  0
  2  3  2  0  0  0  0
  3  4  1  0  0  0  0
  4  5  2  0  0  0  0
  4 10  1  0  0  0  0
  5  6  1  0  0  0  0
  5  8  1  0  0  0  0
  6  7  2  0  0  0  0
  8  9  1  0  0  0  0
  9 10  2  0  0  0  0
M  END
>  <CHROM.1>
11.20502033,9.52024194,27.59822893,0.19332552,-1.39935677,0.48557321

>  <Name>
ligand

>  <RI>
0

>  <Rbt.Current_Directory>
/home/itssahil/PROJECTS/Mol_Feturizer/New_Systems/rnas/2EET

>  <Rbt.Executable>
rbdock ($Id: //depot/dev/client3/rdock/2013.1/src/exe/rbdock.cxx#4 $)

>  <Rbt.Library>
libRbt.so (2013.1, Build901 2013/11/27)

>  <Rbt.Parameter_File>
/export/apps/rDock/src/rDock_2013.1_src/data/scripts/dock_solv.prm

>  <Rbt.Receptor>
prm/blind_docking_100.prm

>  <SCORE>
-18.0697

>  <SCORE.INTER>
-18.0697

>  <SCORE.INTER.CONST>
1

>  <SCORE.INTER.POLAR>
0

>  <SCORE.INTER.ROT>
0

>  <SCORE.INTER.SOLV>
4.19553

>  <SCORE.INTER.VDW>
-17.045

>  <SCORE.INTER.norm>
-1.80697

>  <SCORE.INTRA>
0

>  <SCORE.INTRA.DIHEDRAL>
0

>  <SCORE.INTRA.DIHEDRAL.0>
0

>  <SCORE.INTRA.POLAR>
0

>  <SCORE.INTRA.POLAR.0>
0

>  <SCORE.INTRA.REPUL>
0

>  <SCORE.INTRA.REPUL.0>
0

>  <SCORE.INTRA.SOLV>
0

>  <SCORE.INTRA.SOLV.lig_0>
-4.28464

>  <SCORE.INTRA.VDW>
0

>  <SCORE.INTRA.VDW.0>
0

>  <SCORE.INTRA.norm>
0

>  <SCORE.RESTR>
0

>  <SCORE.RESTR.CAVITY>
0

>  <SCORE.RESTR.norm>
0

>  <SCORE.SYSTEM>
0

>  <SCORE.SYSTEM.CONST>
0

>  <SCORE.SYSTEM.DIHEDRAL>
0

>  <SCORE.SYSTEM.SOLV>
0

>  <SCORE.SYSTEM.norm>
0

>  <SCORE.heavy>
10

>  <SCORE.norm>
-1.80697

>  <RMSD>
0.714

$$$$
ligand
 OpenBabel11021811423D
libRbt.so/2013.1/901 2013/11/27
 10 11  0  0  0  0  0  0  0  0999 V2000
   11.5007    9.5102   29.5172 N   0  0  0  0  0  0  0  0  0  0  0  0
   11.3588   10.8700   29.3011 C   0  0  0  0  0  0  0  0  0  0  0  0
   11.1299   11.3720   28.0816 N   0  0  0  0  0  0  0  0  0  0  0  0
   11.0560   10.4077   27.1078 C   0  0  0  0  0  0  0  0  0  0  0  0
   11.1885    9.0469   27.2626 C   0  0  0  0  0  0  0  0  0  0  0  0
   11.4317    8.5028   28.5542 C   0  0  0  0  0  0  0  0  0  0  0  0
   11.5805    7.3267   28.9091 O   0  0  0  0  0  0  0  0  0  0  0  0
   11.0449    8.4531   26.0357 N   0  0  0  0  0  0  0  0  0  0  0  0
   10.8265    9.4437   25.1499 C   0  0  0  0  0  0  0  0  0  0  0  0
   10.8290   10.6632   25.7787 N   0  0  0  0  0  0  0  0  0  0  0  0
  1  2  1  0  0  0  0
  1  6  1  0  0  0  0
  2  3  2  0  0  0  0
  3  4  1  0  0  0  0
  4  5  2  0  0  0  0
  4 10  1  0  0  0  0
  5  6  1  0  0  0  0
  5  8  1  0  0  0  0
  6  7  2  0  0  0  0
  8  9  1  0  0  0  0
  9 10  2  0  0  0  0
M  END
>  <CHROM.1>
11.20215585,9.51877387,27.59715245,0.18122424,-1.39798502,0.47379190

>  <Name>
ligand

>  <RI>
0

>  <Rbt.Current_Directory>
/home/itssahil/PROJECTS/Mol_Feturizer/New_Systems/rnas/2EET

>  <Rbt.Executable>
rbdock ($Id: //depot/dev/client3/rdock/2013.1/src/exe/rbdock.cxx#4 $)

>  <Rbt.Library>
libRbt.so (2013.1, Build901 2013/11/27)

>  <Rbt.Parameter_File>
/export/apps/rDock/src/rDock_2013.1_src/data/scripts/dock_solv.prm

>  <Rbt.Receptor>
prm/blind_docking_40.prm

>  <SCORE>
-18.0753

>  <SCORE.INTER>
-18.0753

>  <SCORE.INTER.CONST>
1

>  <SCORE.INTER.POLAR>
0

>  <SCORE.INTER.ROT>
0

>  <SCORE.INTER.SOLV>
4.19662

>  <SCORE.INTER.VDW>
-17.0491

>  <SCORE.INTER.norm>
-1.80753

>  <SCORE.INTRA>
0

>  <SCORE.INTRA.DIHEDRAL>
0

>  <SCORE.INTRA.DIHEDRAL.0>
0

>  <SCORE.INTRA.POLAR>
0

>  <SCORE.INTRA.POLAR.0>
0

>  <SCORE.INTRA.REPUL>
0

>  <SCORE.INTRA.REPUL.0>
0

>  <SCORE.INTRA.SOLV>
0

>  <SCORE.INTRA.SOLV.lig_0>
-4.28464

>  <SCORE.INTRA.VDW>
0

>  <SCORE.INTRA.VDW.0>
0

>  <SCORE.INTRA.norm>
0

>  <SCORE.RESTR>
0

>  <SCORE.RESTR.CAVITY>
0

>  <SCORE.RESTR.norm>
0

>  <SCORE.SYSTEM>
0

>  <SCORE.SYSTEM.CONST>
0

>  <SCORE.SYSTEM.DIHEDRAL>
0

>  <SCORE.SYSTEM.SOLV>
0

>  <SCORE.SYSTEM.norm>
0

>  <SCORE.heavy>
10

>  <SCORE.norm>
-1.80753

>  <RMSD>
0.714

$$$$
ligand
 OpenBabel11021811423D
libRbt.so/2013.1/901 2013/11/27
 10 11  0  0  0  0  0  0  0  0999 V2000
   11.5100    9.5187   29.5186 N   0  0  0  0  0  0  0  0  0  0  0  0
   11.3629   10.8773   29.2993 C   0  0  0  0  0  0  0  0  0  0  0  0
   11.1291   11.3753   28.0790 N   0  0  0  0  0  0  0  0  0  0  0  0
   11.0559   10.4082   27.1080 C   0  0  0  0  0  0  0  0  0  0  0  0
   11.1933    9.0483   27.2660 C   0  0  0  0  0  0  0  0  0  0  0  0
   11.4419    8.5085   28.5584 C   0  0  0  0  0  0  0  0  0  0  0  0
   11.5956    7.3338   28.9161 O   0  0  0  0  0  0  0  0  0  0  0  0
   11.0486    8.4508   26.0411 N   0  0  0  0  0  0  0  0  0  0  0  0
   10.8243    9.4382   25.1533 C   0  0  0  0  0  0  0  0  0  0  0  0
   10.8244   10.6594   25.7789 N   0  0  0  0  0  0  0  0  0  0  0  0
  1  2  1  0  0  0  0
  1  6  1  0  0  0  0
  2  3  2  0  0  0  0
  3  4  1  0  0  0  0
  4  5  2  0  0  0  0
  4 10  1  0  0  0  0
  5  6  1  0  0  0  0
  5  8  1  0  0  0  0
  6  7  2  0  0  0  0
  8  9  1  0  0  0  0
  9 10  2  0  0  0  0
M  END
>  <CHROM.1>
11.20631824,9.52110450,27.59933285,0.19147948,-1.39405062,0.48123423

>  <Name>
ligand

>  <RI>
0

>  <Rbt.Current_Directory>
/home/itssahil/PROJECTS/Mol_Feturizer/New_Systems/rnas/2EET

>  <Rbt.Executable>
rbdock ($Id: //depot/dev/client3/rdock/2013.1/src/exe/rbdock.cxx#4 $)

>  <Rbt.Library>
libRbt.so (2013.1, Build901 2013/11/27)

>  <Rbt.Parameter_File>
/export/apps/rDock/src/rDock_2013.1_src/data/scripts/dock_solv.prm

>  <Rbt.Receptor>
prm/blind_docking_80.prm

>  <SCORE>
-18.0679

>  <SCORE.INTER>
-18.0679

>  <SCORE.INTER.CONST>
1

>  <SCORE.INTER.POLAR>
0

>  <SCORE.INTER.ROT>
0

>  <SCORE.INTER.SOLV>
4.18094

>  <SCORE.INTER.VDW>
-17.0389

>  <SCORE.INTER.norm>
-1.80679

>  <SCORE.INTRA>
0

>  <SCORE.INTRA.DIHEDRAL>
0

>  <SCORE.INTRA.DIHEDRAL.0>
0

>  <SCORE.INTRA.POLAR>
0

>  <SCORE.INTRA.POLAR.0>
0

>  <SCORE.INTRA.REPUL>
0

>  <SCORE.INTRA.REPUL.0>
0

>  <SCORE.INTRA.SOLV>
0

>  <SCORE.INTRA.SOLV.lig_0>
-4.28464

>  <SCORE.INTRA.VDW>
0

>  <SCORE.INTRA.VDW.0>
0

>  <SCORE.INTRA.norm>
0

>  <SCORE.RESTR>
0

>  <SCORE.RESTR.CAVITY>
0

>  <SCORE.RESTR.norm>
0

>  <SCORE.SYSTEM>
0

>  <SCORE.SYSTEM.CONST>
0

>  <SCORE.SYSTEM.DIHEDRAL>
0

>  <SCORE.SYSTEM.SOLV>
0

>  <SCORE.SYSTEM.norm>
0

>  <SCORE.heavy>
10

>  <SCORE.norm>
-1.80679

>  <RMSD>
0.714

$$$$
ligand
 OpenBabel11021811423D
libRbt.so/2013.1/901 2013/11/27
 10 11  0  0  0  0  0  0  0  0999 V2000
   11.4986    9.5101   29.5184 N   0  0  0  0  0  0  0  0  0  0  0  0
   11.3574   10.8700   29.3031 C   0  0  0  0  0  0  0  0  0  0  0  0
   11.1333   11.3732   28.0832 N   0  0  0  0  0  0  0  0  0  0  0  0
   11.0633   10.4098   27.1082 C   0  0  0  0  0  0  0  0  0  0  0  0
   11.1953    9.0489   27.2621 C   0  0  0  0  0  0  0  0  0  0  0  0
   11.4335    8.5036   28.5541 C   0  0  0  0  0  0  0  0  0  0  0  0
   11.5811    7.3271   28.9085 O   0  0  0  0  0  0  0  0  0  0  0  0
   11.0566    8.4564   26.0341 N   0  0  0  0  0  0  0  0  0  0  0  0
   10.8415    9.4477   25.1484 C   0  0  0  0  0  0  0  0  0  0  0  0
   10.8415   10.6666   25.7785 N   0  0  0  0  0  0  0  0  0  0  0  0
  1  2  1  0  0  0  0
  1  6  1  0  0  0  0
  2  3  2  0  0  0  0
  3  4  1  0  0  0  0
  4  5  2  0  0  0  0
  4 10  1  0  0  0  0
  5  6  1  0  0  0  0
  5  8  1  0  0  0  0
  6  7  2  0  0  0  0
  8  9  1  0  0  0  0
  9 10  2  0  0  0  0
M  END
>  <CHROM.1>
11.20762227,9.52048824,27.59721287,0.19233847,-1.40141465,0.48571883

>  <Name>
ligand

>  <RI>
0

>  <Rbt.Current_Directory>
/home/itssahil/PROJECTS/Mol_Feturizer/New_Systems/rnas/2EET

>  <Rbt.Executable>
rbdock ($Id: //depot/dev/client3/rdock/2013.1/src/exe/rbdock.cxx#4 $)

>  <Rbt.Library>
libRbt.so (2013.1, Build901 2013/11/27)

>  <Rbt.Parameter_File>
/export/apps/rDock/src/rDock_2013.1_src/data/scripts/dock_solv.prm

>  <Rbt.Receptor>
prm/blind_docking_80.prm

>  <SCORE>
-18.0698

>  <SCORE.INTER>
-18.0698

>  <SCORE.INTER.CONST>
1

>  <SCORE.INTER.POLAR>
0

>  <SCORE.INTER.ROT>
0

>  <SCORE.INTER.SOLV>
4.19883

>  <SCORE.INTER.VDW>
-17.0461

>  <SCORE.INTER.norm>
-1.80698

>  <SCORE.INTRA>
0

>  <SCORE.INTRA.DIHEDRAL>
0

>  <SCORE.INTRA.DIHEDRAL.0>
0

>  <SCORE.INTRA.POLAR>
0

>  <SCORE.INTRA.POLAR.0>
0

>  <SCORE.INTRA.REPUL>
0

>  <SCORE.INTRA.REPUL.0>
0

>  <SCORE.INTRA.SOLV>
0

>  <SCORE.INTRA.SOLV.lig_0>
-4.28464

>  <SCORE.INTRA.VDW>
0

>  <SCORE.INTRA.VDW.0>
0

>  <SCORE.INTRA.norm>
0

>  <SCORE.RESTR>
0

>  <SCORE.RESTR.CAVITY>
0

>  <SCORE.RESTR.norm>
0

>  <SCORE.SYSTEM>
0

>  <SCORE.SYSTEM.CONST>
0

>  <SCORE.SYSTEM.DIHEDRAL>
0

>  <SCORE.SYSTEM.SOLV>
0

>  <SCORE.SYSTEM.norm>
0

>  <SCORE.heavy>
10

>  <SCORE.norm>
-1.80698

>  <RMSD>
0.714

$$$$
ligand
 OpenBabel11021811423D
libRbt.so/2013.1/901 2013/11/27
 10 11  0  0  0  0  0  0  0  0999 V2000
   11.5050    9.5094   29.5148 N   0  0  0  0  0  0  0  0  0  0  0  0
   11.3648   10.8692   29.2982 C   0  0  0  0  0  0  0  0  0  0  0  0
   11.1343   11.3708   28.0788 N   0  0  0  0  0  0  0  0  0  0  0  0
   11.0570   10.4060   27.1057 C   0  0  0  0  0  0  0  0  0  0  0  0
   11.1877    9.0452   27.2610 C   0  0  0  0  0  0  0  0  0  0  0  0
   11.4327    8.5015   28.5525 C   0  0  0  0  0  0  0  0  0  0  0  0
   11.5804    7.3253   28.9079 O   0  0  0  0  0  0  0  0  0  0  0  0
   11.0409    8.4509   26.0348 N   0  0  0  0  0  0  0  0  0  0  0  0
   10.8222    9.4412   25.1488 C   0  0  0  0  0  0  0  0  0  0  0  0
   10.8278   10.6611   25.7770 N   0  0  0  0  0  0  0  0  0  0  0  0
  1  2  1  0  0  0  0
  1  6  1  0  0  0  0
  2  3  2  0  0  0  0
  3  4  1  0  0  0  0
  4  5  2  0  0  0  0
  4 10  1  0  0  0  0
  5  6  1  0  0  0  0
  5  8  1  0  0  0  0
  6  7  2  0  0  0  0
  8  9  1  0  0  0  0
  9 10  2  0  0  0  0
M  END
>  <CHROM.1>
11.20277996,9.51723527,27.59531761,0.16822981,-1.39692360,0.46039452

>  <Name>
ligand

>  <RI>
0

>  <Rbt.Current_Directory>
/home/itssahil/PROJECTS/Mol_Feturizer/New_Systems/rnas/2EET

>  <Rbt.Executable>
rbdock ($Id: //depot/dev/client3/rdock/2013.1/src/exe/rbdock.cxx#4 $)

>  <Rbt.Library>
libRbt.so (2013.1, Build901 2013/11/27)

>  <Rbt.Parameter_File>
/export/apps/rDock/src/rDock_2013.1_src/data/scripts/dock_solv.prm

>  <Rbt.Receptor>
prm/pocket_docking_3.prm

>  <SCORE>
-18.0804

>  <SCORE.INTER>
-18.0804

>  <SCORE.INTER.CONST>
1

>  <SCORE.INTER.POLAR>
0

>  <SCORE.INTER.ROT>
0

>  <SCORE.INTER.SOLV>
4.19624

>  <SCORE.INTER.VDW>
-17.0523

>  <SCORE.INTER.norm>
-1.80804

>  <SCORE.INTRA>
0

>  <SCORE.INTRA.DIHEDRAL>
0

>  <SCORE.INTRA.DIHEDRAL.0>
0

>  <SCORE.INTRA.POLAR>
0

>  <SCORE.INTRA.POLAR.0>
0

>  <SCORE.INTRA.REPUL>
0

>  <SCORE.INTRA.REPUL.0>
0

>  <SCORE.INTRA.SOLV>
0

>  <SCORE.INTRA.SOLV.lig_0>
-4.28464

>  <SCORE.INTRA.VDW>
0

>  <SCORE.INTRA.VDW.0>
0

>  <SCORE.INTRA.norm>
0

>  <SCORE.RESTR>
0

>  <SCORE.RESTR.CAVITY>
0

>  <SCORE.RESTR.norm>
0

>  <SCORE.SYSTEM>
0

>  <SCORE.SYSTEM.CONST>
0

>  <SCORE.SYSTEM.DIHEDRAL>
0

>  <SCORE.SYSTEM.SOLV>
0

>  <SCORE.SYSTEM.norm>
0

>  <SCORE.heavy>
10

>  <SCORE.norm>
-1.80804

>  <RMSD>
0.714

$$$$
ligand
 OpenBabel11021811423D
libRbt.so/2013.1/901 2013/11/27
 10 11  0  0  0  0  0  0  0  0999 V2000
   11.4970    9.5080   29.5177 N   0  0  0  0  0  0  0  0  0  0  0  0
   11.3582   10.8684   29.3036 C   0  0  0  0  0  0  0  0  0  0  0  0
   11.1344   11.3730   28.0842 N   0  0  0  0  0  0  0  0  0  0  0  0
   11.0623   10.4106   27.1084 C   0  0  0  0  0  0  0  0  0  0  0  0
   11.1920    9.0493   27.2611 C   0  0  0  0  0  0  0  0  0  0  0  0
   11.4298    8.5025   28.5526 C   0  0  0  0  0  0  0  0  0  0  0  0
   11.5754    7.3254   28.9059 O   0  0  0  0  0  0  0  0  0  0  0  0
   11.0518    8.4580   26.0327 N   0  0  0  0  0  0  0  0  0  0  0  0
   10.8381    9.4505   25.1479 C   0  0  0  0  0  0  0  0  0  0  0  0
   10.8404   10.6689   25.7790 N   0  0  0  0  0  0  0  0  0  0  0  0
  1  2  1  0  0  0  0
  1  6  1  0  0  0  0
  2  3  2  0  0  0  0
  3  4  1  0  0  0  0
  4  5  2  0  0  0  0
  4 10  1  0  0  0  0
  5  6  1  0  0  0  0
  5  8  1  0  0  0  0
  6  7  2  0  0  0  0
  8  9  1  0  0  0  0
  9 10  2  0  0  0  0
M  END
>  <CHROM.1>
11.20530777,9.52055930,27.59664570,0.18207212,-1.40186589,0.47644967

>  <Name>
ligand

>  <RI>
0

>  <Rbt.Current_Directory>
/home/itssahil/PROJECTS/Mol_Feturizer/New_Systems/rnas/2EET

>  <Rbt.Executable>
rbdock ($Id: //depot/dev/client3/rdock/2013.1/src/exe/rbdock.cxx#4 $)

>  <Rbt.Library>
libRbt.so (2013.1, Build901 2013/11/27)

>  <Rbt.Parameter_File>
/export/apps/rDock/src/rDock_2013.1_src/data/scripts/dock_solv.prm

>  <Rbt.Receptor>
prm/pocket_docking_3.prm

>  <SCORE>
-18.0746

>  <SCORE.INTER>
-18.0748

>  <SCORE.INTER.CONST>
1

>  <SCORE.INTER.POLAR>
0

>  <SCORE.INTER.ROT>
0

>  <SCORE.INTER.SOLV>
4.20466

>  <SCORE.INTER.VDW>
-17.0514

>  <SCORE.INTER.norm>
-1.80748

>  <SCORE.INTRA>
0

>  <SCORE.INTRA.DIHEDRAL>
0

>  <SCORE.INTRA.DIHEDRAL.0>
0

>  <SCORE.INTRA.POLAR>
0

>  <SCORE.INTRA.POLAR.0>
0

>  <SCORE.INTRA.REPUL>
0

>  <SCORE.INTRA.REPUL.0>
0

>  <SCORE.INTRA.SOLV>
0

>  <SCORE.INTRA.SOLV.lig_0>
-4.28464

>  <SCORE.INTRA.VDW>
0

>  <SCORE.INTRA.VDW.0>
0

>  <SCORE.INTRA.norm>
0

>  <SCORE.RESTR>
0.000252235

>  <SCORE.RESTR.CAVITY>
0.000252235

>  <SCORE.RESTR.norm>
2.52235e-05

>  <SCORE.SYSTEM>
0

>  <SCORE.SYSTEM.CONST>
0

>  <SCORE.SYSTEM.DIHEDRAL>
0

>  <SCORE.SYSTEM.SOLV>
0

>  <SCORE.SYSTEM.norm>
0

>  <SCORE.heavy>
10

>  <SCORE.norm>
-1.80746

>  <RMSD>
0.714

$$$$
ligand
 OpenBabel11021811423D
libRbt.so/2013.1/901 2013/11/27
 10 11  0  0  0  0  0  0  0  0999 V2000
   11.5027    9.5065   29.5134 N   0  0  0  0  0  0  0  0  0  0  0  0
   11.3638   10.8667   29.2980 C   0  0  0  0  0  0  0  0  0  0  0  0
   11.1345   11.3697   28.0790 N   0  0  0  0  0  0  0  0  0  0  0  0
   11.0569   10.4060   27.1049 C   0  0  0  0  0  0  0  0  0  0  0  0
   11.1863    9.0449   27.2589 C   0  0  0  0  0  0  0  0  0  0  0  0
   11.4300    8.4997   28.5500 C   0  0  0  0  0  0  0  0  0  0  0  0
   11.5765    7.3230   28.9043 O   0  0  0  0  0  0  0  0  0  0  0  0
   11.0397    8.4520   26.0320 N   0  0  0  0  0  0  0  0  0  0  0  0
   10.8224    9.4434   25.1469 C   0  0  0  0  0  0  0  0  0  0  0  0
   10.8287   10.6626   25.7763 N   0  0  0  0  0  0  0  0  0  0  0  0
  1  2  1  0  0  0  0
  1  6  1  0  0  0  0
  2  3  2  0  0  0  0
  3  4  1  0  0  0  0
  4  5  2  0  0  0  0
  4 10  1  0  0  0  0
  5  6  1  0  0  0  0
  5  8  1  0  0  0  0
  6  7  2  0  0  0  0
  8  9  1  0  0  0  0
  9 10  2  0  0  0  0
M  END
>  <CHROM.1>
11.20160254,9.51658392,27.59369951,0.16519842,-1.39785481,0.45841689

>  <Name>
ligand

>  <RI>
0

>  <Rbt.Current_Directory>
/home/itssahil/PROJECTS/Mol_Feturizer/New_Systems/rnas/2EET

>  <Rbt.Executable>
rbdock ($Id: //depot/dev/client3/rdock/2013.1/src/exe/rbdock.cxx#4 $)

>  <Rbt.Library>
libRbt.so (2013.1, Build901 2013/11/27)

>  <Rbt.Parameter_File>
/export/apps/rDock/src/rDock_2013.1_src/data/scripts/dock_solv.prm

>  <Rbt.Receptor>
prm/pocket_docking_3.prm

>  <SCORE>
-18.0812

>  <SCORE.INTER>
-18.0812

>  <SCORE.INTER.CONST>
1

>  <SCORE.INTER.POLAR>
0

>  <SCORE.INTER.ROT>
0

>  <SCORE.INTER.SOLV>
4.19936

>  <SCORE.INTER.VDW>
-17.0539

>  <SCORE.INTER.norm>
-1.80812

>  <SCORE.INTRA>
0

>  <SCORE.INTRA.DIHEDRAL>
0

>  <SCORE.INTRA.DIHEDRAL.0>
0

>  <SCORE.INTRA.POLAR>
0

>  <SCORE.INTRA.POLAR.0>
0

>  <SCORE.INTRA.REPUL>
0

>  <SCORE.INTRA.REPUL.0>
0

>  <SCORE.INTRA.SOLV>
0

>  <SCORE.INTRA.SOLV.lig_0>
-4.28464

>  <SCORE.INTRA.VDW>
0

>  <SCORE.INTRA.VDW.0>
0

>  <SCORE.INTRA.norm>
0

>  <SCORE.RESTR>
0

>  <SCORE.RESTR.CAVITY>
0

>  <SCORE.RESTR.norm>
0

>  <SCORE.SYSTEM>
0

>  <SCORE.SYSTEM.CONST>
0

>  <SCORE.SYSTEM.DIHEDRAL>
0

>  <SCORE.SYSTEM.SOLV>
0

>  <SCORE.SYSTEM.norm>
0

>  <SCORE.heavy>
10

>  <SCORE.norm>
-1.80812

>  <RMSD>
0.714

$$$$
ligand
 OpenBabel11021811423D
libRbt.so/2013.1/901 2013/11/27
 10 11  0  0  0  0  0  0  0  0999 V2000
   11.4988    9.5070   29.5160 N   0  0  0  0  0  0  0  0  0  0  0  0
   11.3603   10.8672   29.3012 C   0  0  0  0  0  0  0  0  0  0  0  0
   11.1347   11.3712   28.0819 N   0  0  0  0  0  0  0  0  0  0  0  0
   11.0605   10.4082   27.1068 C   0  0  0  0  0  0  0  0  0  0  0  0
   11.1897    9.0469   27.2602 C   0  0  0  0  0  0  0  0  0  0  0  0
   11.4294    8.5008   28.5517 C   0  0  0  0  0  0  0  0  0  0  0  0
   11.5750    7.3239   28.9055 O   0  0  0  0  0  0  0  0  0  0  0  0
   11.0472    8.4549   26.0324 N   0  0  0  0  0  0  0  0  0  0  0  0
   10.8325    9.4469   25.1473 C   0  0  0  0  0  0  0  0  0  0  0  0
   10.8365   10.6657   25.7776 N   0  0  0  0  0  0  0  0  0  0  0  0
  1  2  1  0  0  0  0
  1  6  1  0  0  0  0
  2  3  2  0  0  0  0
  3  4  1  0  0  0  0
  4  5  2  0  0  0  0
  4 10  1  0  0  0  0
  5  6  1  0  0  0  0
  5  8  1  0  0  0  0
  6  7  2  0  0  0  0
  8  9  1  0  0  0  0
  9 10  2  0  0  0  0
M  END
>  <CHROM.1>
11.20384364,9.51839146,27.59539959,0.17470292,-1.40061046,0.46853207

>  <Name>
ligand

>  <RI>
0

>  <Rbt.Current_Directory>
/home/itssahil/PROJECTS/Mol_Feturizer/New_Systems/rnas/2EET

>  <Rbt.Executable>
rbdock ($Id: //depot/dev/client3/rdock/2013.1/src/exe/rbdock.cxx#4 $)

>  <Rbt.Library>
libRbt.so (2013.1, Build901 2013/11/27)

>  <Rbt.Parameter_File>
/export/apps/rDock/src/rDock_2013.1_src/data/scripts/dock_solv.prm

>  <Rbt.Receptor>
prm/pocket_docking_5.prm

>  <SCORE>
-18.0783

>  <SCORE.INTER>
-18.0784

>  <SCORE.INTER.CONST>
1

>  <SCORE.INTER.POLAR>
0

>  <SCORE.INTER.ROT>
0

>  <SCORE.INTER.SOLV>
4.20396

>  <SCORE.INTER.VDW>
-17.0536

>  <SCORE.INTER.norm>
-1.80784

>  <SCORE.INTRA>
0

>  <SCORE.INTRA.DIHEDRAL>
0

>  <SCORE.INTRA.DIHEDRAL.0>
0

>  <SCORE.INTRA.POLAR>
0

>  <SCORE.INTRA.POLAR.0>
0

>  <SCORE.INTRA.REPUL>
0

>  <SCORE.INTRA.REPUL.0>
0

>  <SCORE.INTRA.SOLV>
0

>  <SCORE.INTRA.SOLV.lig_0>
-4.28464

>  <SCORE.INTRA.VDW>
0

>  <SCORE.INTRA.VDW.0>
0

>  <SCORE.INTRA.norm>
0

>  <SCORE.RESTR>
2.4142e-05

>  <SCORE.RESTR.CAVITY>
2.4142e-05

>  <SCORE.RESTR.norm>
2.4142e-06

>  <SCORE.SYSTEM>
0

>  <SCORE.SYSTEM.CONST>
0

>  <SCORE.SYSTEM.DIHEDRAL>
0

>  <SCORE.SYSTEM.SOLV>
0

>  <SCORE.SYSTEM.norm>
0

>  <SCORE.heavy>
10

>  <SCORE.norm>
-1.80783

>  <RMSD>
0.714

$$$$
ligand
 OpenBabel11021811423D
libRbt.so/2013.1/901 2013/11/27
 10 11  0  0  0  0  0  0  0  0999 V2000
   11.5182    9.4997   29.4701 N   0  0  0  0  0  0  0  0  0  0  0  0
   11.3712   10.8631   29.2822 C   0  0  0  0  0  0  0  0  0  0  0  0
   11.1285   11.3884   28.0751 N   0  0  0  0  0  0  0  0  0  0  0  0
   11.0466   10.4431   27.0835 C   0  0  0  0  0  0  0  0  0  0  0  0
   11.1835    9.0799   27.2101 C   0  0  0  0  0  0  0  0  0  0  0  0
   11.4414    8.5112   28.4882 C   0  0  0  0  0  0  0  0  0  0  0  0
   11.5963    7.3287   28.8185 O   0  0  0  0  0  0  0  0  0  0  0  0
   11.0285    8.5100   25.9734 N   0  0  0  0  0  0  0  0  0  0  0  0
   10.7987    9.5171   25.1095 C   0  0  0  0  0  0  0  0  0  0  0  0
   10.8052   10.7241   25.7621 N   0  0  0  0  0  0  0  0  0  0  0  0
  1  2  1  0  0  0  0
  1  6  1  0  0  0  0
  2  3  2  0  0  0  0
  3  4  1  0  0  0  0
  4  5  2  0  0  0  0
  4 10  1  0  0  0  0
  5  6  1  0  0  0  0
  5  8  1  0  0  0  0
  6  7  2  0  0  0  0
  8  9  1  0  0  0  0
  9 10  2  0  0  0  0
M  END
>  <CHROM.1>
11.19969741,9.54518193,27.55373973,0.16554471,-1.38774737,0.47795262

>  <Name>
ligand

>  <RI>
0

>  <Rbt.Current_Directory>
/home/itssahil/PROJECTS/Mol_Feturizer/New_Systems/rnas/2EET

>  <Rbt.Executable>
rbdock ($Id: //depot/dev/client3/rdock/2013.1/src/exe/rbdock.cxx#4 $)

>  <Rbt.Library>
libRbt.so (2013.1, Build901 2013/11/27)

>  <Rbt.Parameter_File>
/export/apps/rDock/src/rDock_2013.1_src/data/scripts/dock_solv.prm

>  <Rbt.Receptor>
prm/pocket_docking_6.prm

>  <SCORE>
-18.0754

>  <SCORE.INTER>
-18.0754

>  <SCORE.INTER.CONST>
1

>  <SCORE.INTER.POLAR>
0

>  <SCORE.INTER.ROT>
0

>  <SCORE.INTER.SOLV>
4.12044

>  <SCORE.INTER.VDW>
-17.0237

>  <SCORE.INTER.norm>
-1.80754

>  <SCORE.INTRA>
0

>  <SCORE.INTRA.DIHEDRAL>
0

>  <SCORE.INTRA.DIHEDRAL.0>
0

>  <SCORE.INTRA.POLAR>
0

>  <SCORE.INTRA.POLAR.0>
0

>  <SCORE.INTRA.REPUL>
0

>  <SCORE.INTRA.REPUL.0>
0

>  <SCORE.INTRA.SOLV>
0

>  <SCORE.INTRA.SOLV.lig_0>
-4.28464

>  <SCORE.INTRA.VDW>
0

>  <SCORE.INTRA.VDW.0>
0

>  <SCORE.INTRA.norm>
0

>  <SCORE.RESTR>
0

>  <SCORE.RESTR.CAVITY>
0

>  <SCORE.RESTR.norm>
0

>  <SCORE.SYSTEM>
0

>  <SCORE.SYSTEM.CONST>
0

>  <SCORE.SYSTEM.DIHEDRAL>
0

>  <SCORE.SYSTEM.SOLV>
0

>  <SCORE.SYSTEM.norm>
0

>  <SCORE.heavy>
10

>  <SCORE.norm>
-1.80754

>  <RMSD>
0.714

$$$$
ligand
 OpenBabel11021811423D
libRbt.so/2013.1/901 2013/11/27
 10 11  0  0  0  0  0  0  0  0999 V2000
   11.5021    9.5070   29.5135 N   0  0  0  0  0  0  0  0  0  0  0  0
   11.3624   10.8672   29.2986 C   0  0  0  0  0  0  0  0  0  0  0  0
   11.1343   11.3706   28.0794 N   0  0  0  0  0  0  0  0  0  0  0  0
   11.0589   10.4072   27.1049 C   0  0  0  0  0  0  0  0  0  0  0  0
   11.1892    9.0461   27.2585 C   0  0  0  0  0  0  0  0  0  0  0  0
   11.4316    8.5006   28.5496 C   0  0  0  0  0  0  0  0  0  0  0  0
   11.5785    7.3239   28.9036 O   0  0  0  0  0  0  0  0  0  0  0  0
   11.0447    8.4536   26.0311 N   0  0  0  0  0  0  0  0  0  0  0  0
   10.8278    9.4452   25.1461 C   0  0  0  0  0  0  0  0  0  0  0  0
   10.8323   10.6642   25.7760 N   0  0  0  0  0  0  0  0  0  0  0  0
  1  2  1  0  0  0  0
  1  6  1  0  0  0  0
  2  3  2  0  0  0  0
  3  4  1  0  0  0  0
  4  5  2  0  0  0  0
  4 10  1  0  0  0  0
  5  6  1  0  0  0  0
  5  8  1  0  0  0  0
  6  7  2  0  0  0  0
  8  9  1  0  0  0  0
  9 10  2  0  0  0  0
M  END
>  <CHROM.1>
11.20364055,9.51768203,27.59346102,0.17302293,-1.39870026,0.46655661

>  <Name>
ligand

>  <RI>
0

>  <Rbt.Current_Directory>
/home/itssahil/PROJECTS/Mol_Feturizer/New_Systems/rnas/2EET

>  <Rbt.Executable>
rbdock ($Id: //depot/dev/client3/rdock/2013.1/src/exe/rbdock.cxx#4 $)

>  <Rbt.Library>
libRbt.so (2013.1, Build901 2013/11/27)

>  <Rbt.Parameter_File>
/export/apps/rDock/src/rDock_2013.1_src/data/scripts/dock_solv.prm

>  <Rbt.Receptor>
prm/pocket_docking_7.prm

>  <SCORE>
-18.0782

>  <SCORE.INTER>
-18.0782

>  <SCORE.INTER.CONST>
1

>  <SCORE.INTER.POLAR>
0

>  <SCORE.INTER.ROT>
0

>  <SCORE.INTER.SOLV>
4.19722

>  <SCORE.INTER.VDW>
-17.0512

>  <SCORE.INTER.norm>
-1.80782

>  <SCORE.INTRA>
0

>  <SCORE.INTRA.DIHEDRAL>
0

>  <SCORE.INTRA.DIHEDRAL.0>
0

>  <SCORE.INTRA.POLAR>
0

>  <SCORE.INTRA.POLAR.0>
0

>  <SCORE.INTRA.REPUL>
0

>  <SCORE.INTRA.REPUL.0>
0

>  <SCORE.INTRA.SOLV>
0

>  <SCORE.INTRA.SOLV.lig_0>
-4.28464

>  <SCORE.INTRA.VDW>
0

>  <SCORE.INTRA.VDW.0>
0

>  <SCORE.INTRA.norm>
0

>  <SCORE.RESTR>
0

>  <SCORE.RESTR.CAVITY>
0

>  <SCORE.RESTR.norm>
0

>  <SCORE.SYSTEM>
0

>  <SCORE.SYSTEM.CONST>
0

>  <SCORE.SYSTEM.DIHEDRAL>
0

>  <SCORE.SYSTEM.SOLV>
0

>  <SCORE.SYSTEM.norm>
0

>  <SCORE.heavy>
10

>  <SCORE.norm>
-1.80782

>  <RMSD>
0.714

$$$$
ligand
 OpenBabel11021811423D
libRbt.so/2013.1/901 2013/11/27
 10 11  0  0  0  0  0  0  0  0999 V2000
   11.4922    9.4948   29.5067 N   0  0  0  0  0  0  0  0  0  0  0  0
   11.3479   10.8551   29.2957 C   0  0  0  0  0  0  0  0  0  0  0  0
   11.1213   11.3615   28.0775 N   0  0  0  0  0  0  0  0  0  0  0  0
   11.0521   10.4010   27.0997 C   0  0  0  0  0  0  0  0  0  0  0  0
   11.1871    9.0399   27.2494 C   0  0  0  0  0  0  0  0  0  0  0  0
   11.4280    8.4912   28.5395 C   0  0  0  0  0  0  0  0  0  0  0  0
   11.5784    7.3139   28.8901 O   0  0  0  0  0  0  0  0  0  0  0  0
   11.0482    8.4507   26.0197 N   0  0  0  0  0  0  0  0  0  0  0  0
   10.8300    9.4443   25.1373 C   0  0  0  0  0  0  0  0  0  0  0  0
   10.8282   10.6613   25.7711 N   0  0  0  0  0  0  0  0  0  0  0  0
  1  2  1  0  0  0  0
  1  6  1  0  0  0  0
  2  3  2  0  0  0  0
  3  4  1  0  0  0  0
  4  5  2  0  0  0  0
  4 10  1  0  0  0  0
  5  6  1  0  0  0  0
  5  8  1  0  0  0  0
  6  7  2  0  0  0  0
  8  9  1  0  0  0  0
  9 10  2  0  0  0  0
M  END
>  <CHROM.1>
11.19886704,9.51044669,27.58588396,0.19982500,-1.39939247,0.49612771

>  <Name>
ligand

>  <RI>
0

>  <Rbt.Current_Directory>
/home/itssahil/PROJECTS/Mol_Feturizer/New_Systems/rnas/2EET

>  <Rbt.Executable>
rbdock ($Id: //depot/dev/client3/rdock/2013.1/src/exe/rbdock.cxx#4 $)

>  <Rbt.Library>
libRbt.so (2013.1, Build901 2013/11/27)

>  <Rbt.Parameter_File>
/export/apps/rDock/src/rDock_2013.1_src/data/scripts/dock_solv.prm

>  <Rbt.Receptor>
prm/pocket_docking_8.prm

>  <SCORE>
-18.062

>  <SCORE.INTER>
-18.062

>  <SCORE.INTER.CONST>
1

>  <SCORE.INTER.POLAR>
0

>  <SCORE.INTER.ROT>
0

>  <SCORE.INTER.SOLV>
4.18953

>  <SCORE.INTER.VDW>
-17.0379

>  <SCORE.INTER.norm>
-1.8062

>  <SCORE.INTRA>
0

>  <SCORE.INTRA.DIHEDRAL>
0

>  <SCORE.INTRA.DIHEDRAL.0>
0

>  <SCORE.INTRA.POLAR>
0

>  <SCORE.INTRA.POLAR.0>
0

>  <SCORE.INTRA.REPUL>
0

>  <SCORE.INTRA.REPUL.0>
0

>  <SCORE.INTRA.SOLV>
0

>  <SCORE.INTRA.SOLV.lig_0>
-4.28464

>  <SCORE.INTRA.VDW>
0

>  <SCORE.INTRA.VDW.0>
0

>  <SCORE.INTRA.norm>
0

>  <SCORE.RESTR>
0

>  <SCORE.RESTR.CAVITY>
0

>  <SCORE.RESTR.norm>
0

>  <SCORE.SYSTEM>
0

>  <SCORE.SYSTEM.CONST>
0

>  <SCORE.SYSTEM.DIHEDRAL>
0

>  <SCORE.SYSTEM.SOLV>
0

>  <SCORE.SYSTEM.norm>
0

>  <SCORE.heavy>
10

>  <SCORE.norm>
-1.8062

>  <RMSD>
0.714

$$$$
ligand
 OpenBabel11021811423D
libRbt.so/2013.1/901 2013/11/27
 10 11  0  0  0  0  0  0  0  0999 V2000
   11.4969    9.5100   29.5199 N   0  0  0  0  0  0  0  0  0  0  0  0
   11.3573   10.8701   29.3048 C   0  0  0  0  0  0  0  0  0  0  0  0
   11.1325   11.3737   28.0851 N   0  0  0  0  0  0  0  0  0  0  0  0
   11.0602   10.4105   27.1101 C   0  0  0  0  0  0  0  0  0  0  0  0
   11.1905    9.0495   27.2638 C   0  0  0  0  0  0  0  0  0  0  0  0
   11.4294    8.5037   28.5555 C   0  0  0  0  0  0  0  0  0  0  0  0
   11.5757    7.3270   28.9096 O   0  0  0  0  0  0  0  0  0  0  0  0
   11.0497    8.4572   26.0359 N   0  0  0  0  0  0  0  0  0  0  0  0
   10.8349    9.4489   25.1505 C   0  0  0  0  0  0  0  0  0  0  0  0
   10.8372   10.6678   25.7807 N   0  0  0  0  0  0  0  0  0  0  0  0
  1  2  1  0  0  0  0
  1  6  1  0  0  0  0
  2  3  2  0  0  0  0
  3  4  1  0  0  0  0
  4  5  2  0  0  0  0
  4 10  1  0  0  0  0
  5  6  1  0  0  0  0
  5  8  1  0  0  0  0
  6  7  2  0  0  0  0
  8  9  1  0  0  0  0
  9 10  2  0  0  0  0
M  END
>  <CHROM.1>
11.20380522,9.52095491,27.59894185,0.18228409,-1.40107060,0.47590869

>  <Name>
ligand

>  <RI>
0

>  <Rbt.Current_Directory>
/home/itssahil/PROJECTS/Mol_Feturizer/New_Systems/rnas/2EET

>  <Rbt.Executable>
rbdock ($Id: //depot/dev/client3/rdock/2013.1/src/exe/rbdock.cxx#4 $)

>  <Rbt.Library>
libRbt.so (2013.1, Build901 2013/11/27)

>  <Rbt.Parameter_File>
/export/apps/rDock/src/rDock_2013.1_src/data/scripts/dock_solv.prm

>  <Rbt.Receptor>
prm/pocket_docking_8.prm

>  <SCORE>
-18.0757

>  <SCORE.INTER>
-18.0757

>  <SCORE.INTER.CONST>
1

>  <SCORE.INTER.POLAR>
0

>  <SCORE.INTER.ROT>
0

>  <SCORE.INTER.SOLV>
4.20536

>  <SCORE.INTER.VDW>
-17.0523

>  <SCORE.INTER.norm>
-1.80757

>  <SCORE.INTRA>
0

>  <SCORE.INTRA.DIHEDRAL>
0

>  <SCORE.INTRA.DIHEDRAL.0>
0

>  <SCORE.INTRA.POLAR>
0

>  <SCORE.INTRA.POLAR.0>
0

>  <SCORE.INTRA.REPUL>
0

>  <SCORE.INTRA.REPUL.0>
0

>  <SCORE.INTRA.SOLV>
0

>  <SCORE.INTRA.SOLV.lig_0>
-4.28464

>  <SCORE.INTRA.VDW>
0

>  <SCORE.INTRA.VDW.0>
0

>  <SCORE.INTRA.norm>
0

>  <SCORE.RESTR>
0

>  <SCORE.RESTR.CAVITY>
0

>  <SCORE.RESTR.norm>
0

>  <SCORE.SYSTEM>
0

>  <SCORE.SYSTEM.CONST>
0

>  <SCORE.SYSTEM.DIHEDRAL>
0

>  <SCORE.SYSTEM.SOLV>
0

>  <SCORE.SYSTEM.norm>
0

>  <SCORE.heavy>
10

>  <SCORE.norm>
-1.80757

>  <RMSD>
0.714

$$$$
ligand
 OpenBabel11021811423D
libRbt.so/2013.1/901 2013/11/27
 10 11  0  0  0  0  0  0  0  0999 V2000
   11.4938    9.5074   29.5167 N   0  0  0  0  0  0  0  0  0  0  0  0
   11.3560   10.8680   29.3031 C   0  0  0  0  0  0  0  0  0  0  0  0
   11.1331   11.3733   28.0838 N   0  0  0  0  0  0  0  0  0  0  0  0
   11.0608   10.4114   27.1076 C   0  0  0  0  0  0  0  0  0  0  0  0
   11.1893    9.0499   27.2597 C   0  0  0  0  0  0  0  0  0  0  0  0
   11.4262    8.5024   28.5511 C   0  0  0  0  0  0  0  0  0  0  0  0
   11.5708    7.3250   28.9039 O   0  0  0  0  0  0  0  0  0  0  0  0
   11.0492    8.4593   26.0310 N   0  0  0  0  0  0  0  0  0  0  0  0
   10.8366    9.4524   25.1466 C   0  0  0  0  0  0  0  0  0  0  0  0
   10.8396   10.6704   25.7782 N   0  0  0  0  0  0  0  0  0  0  0  0
  1  2  1  0  0  0  0
  1  6  1  0  0  0  0
  2  3  2  0  0  0  0
  3  4  1  0  0  0  0
  4  5  2  0  0  0  0
  4 10  1  0  0  0  0
  5  6  1  0  0  0  0
  5  8  1  0  0  0  0
  6  7  2  0  0  0  0
  8  9  1  0  0  0  0
  9 10  2  0  0  0  0
M  END
>  <CHROM.1>
11.20284692,9.52103105,27.59546751,0.17924340,-1.40258109,0.47410953

>  <Name>
ligand

>  <RI>
0

>  <Rbt.Current_Directory>
/home/itssahil/PROJECTS/Mol_Feturizer/New_Systems/rnas/2EET

>  <Rbt.Executable>
rbdock ($Id: //depot/dev/client3/rdock/2013.1/src/exe/rbdock.cxx#4 $)

>  <Rbt.Library>
libRbt.so (2013.1, Build901 2013/11/27)

>  <Rbt.Parameter_File>
/export/apps/rDock/src/rDock_2013.1_src/data/scripts/dock_solv.prm

>  <Rbt.Receptor>
prm/pocket_docking_4.prm

>  <SCORE>
-18.0742

>  <SCORE.INTER>
-18.0742

>  <SCORE.INTER.CONST>
1

>  <SCORE.INTER.POLAR>
0

>  <SCORE.INTER.ROT>
0

>  <SCORE.INTER.SOLV>
4.20921

>  <SCORE.INTER.VDW>
-17.0525

>  <SCORE.INTER.norm>
-1.80742

>  <SCORE.INTRA>
0

>  <SCORE.INTRA.DIHEDRAL>
0

>  <SCORE.INTRA.DIHEDRAL.0>
0

>  <SCORE.INTRA.POLAR>
0

>  <SCORE.INTRA.POLAR.0>
0

>  <SCORE.INTRA.REPUL>
0

>  <SCORE.INTRA.REPUL.0>
0

>  <SCORE.INTRA.SOLV>
0

>  <SCORE.INTRA.SOLV.lig_0>
-4.28464

>  <SCORE.INTRA.VDW>
0

>  <SCORE.INTRA.VDW.0>
0

>  <SCORE.INTRA.norm>
0

>  <SCORE.RESTR>
0

>  <SCORE.RESTR.CAVITY>
0

>  <SCORE.RESTR.norm>
0

>  <SCORE.SYSTEM>
0

>  <SCORE.SYSTEM.CONST>
0

>  <SCORE.SYSTEM.DIHEDRAL>
0

>  <SCORE.SYSTEM.SOLV>
0

>  <SCORE.SYSTEM.norm>
0

>  <SCORE.heavy>
10

>  <SCORE.norm>
-1.80742

>  <RMSD>
0.715

$$$$
ligand
 OpenBabel11021811423D
libRbt.so/2013.1/901 2013/11/27
 10 11  0  0  0  0  0  0  0  0999 V2000
   11.5055    9.4937   29.4993 N   0  0  0  0  0  0  0  0  0  0  0  0
   11.3648   10.8543   29.2879 C   0  0  0  0  0  0  0  0  0  0  0  0
   11.1334   11.3605   28.0705 N   0  0  0  0  0  0  0  0  0  0  0  0
   11.0558   10.3993   27.0939 C   0  0  0  0  0  0  0  0  0  0  0  0
   11.1869    9.0379   27.2440 C   0  0  0  0  0  0  0  0  0  0  0  0
   11.4328    8.4895   28.5332 C   0  0  0  0  0  0  0  0  0  0  0  0
   11.5810    7.3120   28.8841 O   0  0  0  0  0  0  0  0  0  0  0  0
   11.0395    8.4482   26.0156 N   0  0  0  0  0  0  0  0  0  0  0  0
   10.8200    9.4418   25.1335 C   0  0  0  0  0  0  0  0  0  0  0  0
   10.8257   10.6593   25.7662 N   0  0  0  0  0  0  0  0  0  0  0  0
  1  2  1  0  0  0  0
  1  6  1  0  0  0  0
  2  3  2  0  0  0  0
  3  4  1  0  0  0  0
  4  5  2  0  0  0  0
  4 10  1  0  0  0  0
  5  6  1  0  0  0  0
  5  8  1  0  0  0  0
  6  7  2  0  0  0  0
  8  9  1  0  0  0  0
  9 10  2  0  0  0  0
M  END
>  <CHROM.1>
11.20206126,9.50871610,27.58003269,0.16801655,-1.39626878,0.46394421

>  <Name>
ligand

>  <RI>
0

>  <Rbt.Current_Directory>
/home/itssahil/PROJECTS/Mol_Feturizer/New_Systems/rnas/2EET

>  <Rbt.Executable>
rbdock ($Id: //depot/dev/client3/rdock/2013.1/src/exe/rbdock.cxx#4 $)

>  <Rbt.Library>
libRbt.so (2013.1, Build901 2013/11/27)

>  <Rbt.Parameter_File>
/export/apps/rDock/src/rDock_2013.1_src/data/scripts/dock_solv.prm

>  <Rbt.Receptor>
prm/pocket_docking_5.prm

>  <SCORE>
-18.0738

>  <SCORE.INTER>
-18.0738

>  <SCORE.INTER.CONST>
1

>  <SCORE.INTER.POLAR>
0

>  <SCORE.INTER.ROT>
0

>  <SCORE.INTER.SOLV>
4.18213

>  <SCORE.INTER.VDW>
-17.0432

>  <SCORE.INTER.norm>
-1.80738

>  <SCORE.INTRA>
0

>  <SCORE.INTRA.DIHEDRAL>
0

>  <SCORE.INTRA.DIHEDRAL.0>
0

>  <SCORE.INTRA.POLAR>
0

>  <SCORE.INTRA.POLAR.0>
0

>  <SCORE.INTRA.REPUL>
0

>  <SCORE.INTRA.REPUL.0>
0

>  <SCORE.INTRA.SOLV>
0

>  <SCORE.INTRA.SOLV.lig_0>
-4.28464

>  <SCORE.INTRA.VDW>
0

>  <SCORE.INTRA.VDW.0>
0

>  <SCORE.INTRA.norm>
0

>  <SCORE.RESTR>
0

>  <SCORE.RESTR.CAVITY>
0

>  <SCORE.RESTR.norm>
0

>  <SCORE.SYSTEM>
0

>  <SCORE.SYSTEM.CONST>
0

>  <SCORE.SYSTEM.DIHEDRAL>
0

>  <SCORE.SYSTEM.SOLV>
0

>  <SCORE.SYSTEM.norm>
0

>  <SCORE.heavy>
10

>  <SCORE.norm>
-1.80738

>  <RMSD>
0.715

$$$$
ligand
 OpenBabel11021811423D
libRbt.so/2013.1/901 2013/11/27
 10 11  0  0  0  0  0  0  0  0999 V2000
   11.4795    9.4961   29.5184 N   0  0  0  0  0  0  0  0  0  0  0  0
   11.3503   10.8581   29.3089 C   0  0  0  0  0  0  0  0  0  0  0  0
   11.1260   11.3682   28.0919 N   0  0  0  0  0  0  0  0  0  0  0  0
   11.0430   10.4093   27.1134 C   0  0  0  0  0  0  0  0  0  0  0  0
   11.1627    9.0466   27.2616 C   0  0  0  0  0  0  0  0  0  0  0  0
   11.4010    8.4941   28.5505 C   0  0  0  0  0  0  0  0  0  0  0  0
   11.5388    7.3148   28.8997 O   0  0  0  0  0  0  0  0  0  0  0  0
   11.0136    8.4602   26.0318 N   0  0  0  0  0  0  0  0  0  0  0  0
   10.8043    9.4570   25.1509 C   0  0  0  0  0  0  0  0  0  0  0  0
   10.8183   10.6734   25.7857 N   0  0  0  0  0  0  0  0  0  0  0  0
  1  2  1  0  0  0  0
  1  6  1  0  0  0  0
  2  3  2  0  0  0  0
  3  4  1  0  0  0  0
  4  5  2  0  0  0  0
  4 10  1  0  0  0  0
  5  6  1  0  0  0  0
  5  8  1  0  0  0  0
  6  7  2  0  0  0  0
  8  9  1  0  0  0  0
  9 10  2  0  0  0  0
M  END
>  <CHROM.1>
11.18090135,9.51674489,27.59843957,0.13136101,-1.40196733,0.42951083

>  <Name>
ligand

>  <RI>
0

>  <Rbt.Current_Directory>
/home/itssahil/PROJECTS/Mol_Feturizer/New_Systems/rnas/2EET

>  <Rbt.Executable>
rbdock ($Id: //depot/dev/client3/rdock/2013.1/src/exe/rbdock.cxx#4 $)

>  <Rbt.Library>
libRbt.so (2013.1, Build901 2013/11/27)

>  <Rbt.Parameter_File>
/export/apps/rDock/src/rDock_2013.1_src/data/scripts/dock_solv.prm

>  <Rbt.Receptor>
prm/pocket_docking_8.prm

>  <SCORE>
-18.0475

>  <SCORE.INTER>
-18.0475

>  <SCORE.INTER.CONST>
1

>  <SCORE.INTER.POLAR>
0

>  <SCORE.INTER.ROT>
0

>  <SCORE.INTER.SOLV>
4.24498

>  <SCORE.INTER.VDW>
-17.0467

>  <SCORE.INTER.norm>
-1.80475

>  <SCORE.INTRA>
0

>  <SCORE.INTRA.DIHEDRAL>
0

>  <SCORE.INTRA.DIHEDRAL.0>
0

>  <SCORE.INTRA.POLAR>
0

>  <SCORE.INTRA.POLAR.0>
0

>  <SCORE.INTRA.REPUL>
0

>  <SCORE.INTRA.REPUL.0>
0

>  <SCORE.INTRA.SOLV>
0

>  <SCORE.INTRA.SOLV.lig_0>
-4.28464

>  <SCORE.INTRA.VDW>
0

>  <SCORE.INTRA.VDW.0>
0

>  <SCORE.INTRA.norm>
0

>  <SCORE.RESTR>
0

>  <SCORE.RESTR.CAVITY>
0

>  <SCORE.RESTR.norm>
0

>  <SCORE.SYSTEM>
0

>  <SCORE.SYSTEM.CONST>
0

>  <SCORE.SYSTEM.DIHEDRAL>
0

>  <SCORE.SYSTEM.SOLV>
0

>  <SCORE.SYSTEM.norm>
0

>  <SCORE.heavy>
10

>  <SCORE.norm>
-1.80475

>  <RMSD>
0.715

$$$$
ligand
 OpenBabel11021811423D
libRbt.so/2013.1/901 2013/11/27
 10 11  0  0  0  0  0  0  0  0999 V2000
   11.4959    9.5088   29.5167 N   0  0  0  0  0  0  0  0  0  0  0  0
   11.3586   10.8689   29.3001 C   0  0  0  0  0  0  0  0  0  0  0  0
   11.1335   11.3715   28.0801 N   0  0  0  0  0  0  0  0  0  0  0  0
   11.0585   10.4073   27.1063 C   0  0  0  0  0  0  0  0  0  0  0  0
   11.1865    9.0462   27.2615 C   0  0  0  0  0  0  0  0  0  0  0  0
   11.4257    8.5015   28.5536 C   0  0  0  0  0  0  0  0  0  0  0  0
   11.5702    7.3249   28.9090 O   0  0  0  0  0  0  0  0  0  0  0  0
   11.0434    8.4527   26.0344 N   0  0  0  0  0  0  0  0  0  0  0  0
   10.8296    9.4437   25.1481 C   0  0  0  0  0  0  0  0  0  0  0  0
   10.8347   10.6633   25.7768 N   0  0  0  0  0  0  0  0  0  0  0  0
  1  2  1  0  0  0  0
  1  6  1  0  0  0  0
  2  3  2  0  0  0  0
  3  4  1  0  0  0  0
  4  5  2  0  0  0  0
  4 10  1  0  0  0  0
  5  6  1  0  0  0  0
  5  8  1  0  0  0  0
  6  7  2  0  0  0  0
  8  9  1  0  0  0  0
  9 10  2  0  0  0  0
M  END
>  <CHROM.1>
11.20098757,9.51803148,27.59604233,0.17017701,-1.40102013,0.46278129

>  <Name>
ligand

>  <RI>
0

>  <Rbt.Current_Directory>
/home/itssahil/PROJECTS/Mol_Feturizer/New_Systems/rnas/2EET

>  <Rbt.Executable>
rbdock ($Id: //depot/dev/client3/rdock/2013.1/src/exe/rbdock.cxx#4 $)

>  <Rbt.Library>
libRbt.so (2013.1, Build901 2013/11/27)

>  <Rbt.Parameter_File>
/export/apps/rDock/src/rDock_2013.1_src/data/scripts/dock_solv.prm

>  <Rbt.Receptor>
prm/blind_docking_40.prm

>  <SCORE>
-18.0789

>  <SCORE.INTER>
-18.0789

>  <SCORE.INTER.CONST>
1

>  <SCORE.INTER.POLAR>
0

>  <SCORE.INTER.ROT>
0

>  <SCORE.INTER.SOLV>
4.21096

>  <SCORE.INTER.VDW>
-17.0563

>  <SCORE.INTER.norm>
-1.80789

>  <SCORE.INTRA>
0

>  <SCORE.INTRA.DIHEDRAL>
0

>  <SCORE.INTRA.DIHEDRAL.0>
0

>  <SCORE.INTRA.POLAR>
0

>  <SCORE.INTRA.POLAR.0>
0

>  <SCORE.INTRA.REPUL>
0

>  <SCORE.INTRA.REPUL.0>
0

>  <SCORE.INTRA.SOLV>
0

>  <SCORE.INTRA.SOLV.lig_0>
-4.28464

>  <SCORE.INTRA.VDW>
0

>  <SCORE.INTRA.VDW.0>
0

>  <SCORE.INTRA.norm>
0

>  <SCORE.RESTR>
0

>  <SCORE.RESTR.CAVITY>
0

>  <SCORE.RESTR.norm>
0

>  <SCORE.SYSTEM>
0

>  <SCORE.SYSTEM.CONST>
0

>  <SCORE.SYSTEM.DIHEDRAL>
0

>  <SCORE.SYSTEM.SOLV>
0

>  <SCORE.SYSTEM.norm>
0

>  <SCORE.heavy>
10

>  <SCORE.norm>
-1.80789

>  <RMSD>
0.716

$$$$
ligand
 OpenBabel11021811423D
libRbt.so/2013.1/901 2013/11/27
 10 11  0  0  0  0  0  0  0  0999 V2000
   11.4987    9.5082   29.5154 N   0  0  0  0  0  0  0  0  0  0  0  0
   11.3616   10.8682   29.2985 C   0  0  0  0  0  0  0  0  0  0  0  0
   11.1341   11.3703   28.0787 N   0  0  0  0  0  0  0  0  0  0  0  0
   11.0565   10.4056   27.1055 C   0  0  0  0  0  0  0  0  0  0  0  0
   11.1842    9.0445   27.2611 C   0  0  0  0  0  0  0  0  0  0  0  0
   11.4259    8.5004   28.5530 C   0  0  0  0  0  0  0  0  0  0  0  0
   11.5706    7.3239   28.9087 O   0  0  0  0  0  0  0  0  0  0  0  0
   11.0382    8.4504   26.0347 N   0  0  0  0  0  0  0  0  0  0  0  0
   10.8230    9.4412   25.1483 C   0  0  0  0  0  0  0  0  0  0  0  0
   10.8301   10.6611   25.7764 N   0  0  0  0  0  0  0  0  0  0  0  0
  1  2  1  0  0  0  0
  1  6  1  0  0  0  0
  2  3  2  0  0  0  0
  3  4  1  0  0  0  0
  4  5  2  0  0  0  0
  4 10  1  0  0  0  0
  5  6  1  0  0  0  0
  5  8  1  0  0  0  0
  6  7  2  0  0  0  0
  8  9  1  0  0  0  0
  9 10  2  0  0  0  0
M  END
>  <CHROM.1>
11.19967227,9.51652815,27.59541322,0.16195951,-1.39932346,0.45416740

>  <Name>
ligand

>  <RI>
0

>  <Rbt.Current_Directory>
/home/itssahil/PROJECTS/Mol_Feturizer/New_Systems/rnas/2EET

>  <Rbt.Executable>
rbdock ($Id: //depot/dev/client3/rdock/2013.1/src/exe/rbdock.cxx#4 $)

>  <Rbt.Library>
libRbt.so (2013.1, Build901 2013/11/27)

>  <Rbt.Parameter_File>
/export/apps/rDock/src/rDock_2013.1_src/data/scripts/dock_solv.prm

>  <Rbt.Receptor>
prm/blind_docking_60.prm

>  <SCORE>
-18.082

>  <SCORE.INTER>
-18.082

>  <SCORE.INTER.CONST>
1

>  <SCORE.INTER.POLAR>
0

>  <SCORE.INTER.ROT>
0

>  <SCORE.INTER.SOLV>
4.20916

>  <SCORE.INTER.VDW>
-17.0577

>  <SCORE.INTER.norm>
-1.8082

>  <SCORE.INTRA>
0

>  <SCORE.INTRA.DIHEDRAL>
0

>  <SCORE.INTRA.DIHEDRAL.0>
0

>  <SCORE.INTRA.POLAR>
0

>  <SCORE.INTRA.POLAR.0>
0

>  <SCORE.INTRA.REPUL>
0

>  <SCORE.INTRA.REPUL.0>
0

>  <SCORE.INTRA.SOLV>
0

>  <SCORE.INTRA.SOLV.lig_0>
-4.28464

>  <SCORE.INTRA.VDW>
0

>  <SCORE.INTRA.VDW.0>
0

>  <SCORE.INTRA.norm>
0

>  <SCORE.RESTR>
0

>  <SCORE.RESTR.CAVITY>
0

>  <SCORE.RESTR.norm>
0

>  <SCORE.SYSTEM>
0

>  <SCORE.SYSTEM.CONST>
0

>  <SCORE.SYSTEM.DIHEDRAL>
0

>  <SCORE.SYSTEM.SOLV>
0

>  <SCORE.SYSTEM.norm>
0

>  <SCORE.heavy>
10

>  <SCORE.norm>
-1.8082

>  <RMSD>
0.716

$$$$
ligand
 OpenBabel11021811423D
libRbt.so/2013.1/901 2013/11/27
 10 11  0  0  0  0  0  0  0  0999 V2000
   11.5020    9.5110   29.5158 N   0  0  0  0  0  0  0  0  0  0  0  0
   11.3622   10.8707   29.2982 C   0  0  0  0  0  0  0  0  0  0  0  0
   11.1332   11.3716   28.0782 N   0  0  0  0  0  0  0  0  0  0  0  0
   11.0571   10.4063   27.1057 C   0  0  0  0  0  0  0  0  0  0  0  0
   11.1874    9.0455   27.2619 C   0  0  0  0  0  0  0  0  0  0  0  0
   11.4307    8.5026   28.5540 C   0  0  0  0  0  0  0  0  0  0  0  0
   11.5778    7.3266   28.9102 O   0  0  0  0  0  0  0  0  0  0  0  0
   11.0420    8.4505   26.0359 N   0  0  0  0  0  0  0  0  0  0  0  0
   10.8246    9.4404   25.1490 C   0  0  0  0  0  0  0  0  0  0  0  0
   10.8295   10.6606   25.7765 N   0  0  0  0  0  0  0  0  0  0  0  0
  1  2  1  0  0  0  0
  1  6  1  0  0  0  0
  2  3  2  0  0  0  0
  3  4  1  0  0  0  0
  4  5  2  0  0  0  0
  4 10  1  0  0  0  0
  5  6  1  0  0  0  0
  5  8  1  0  0  0  0
  6  7  2  0  0  0  0
  8  9  1  0  0  0  0
  9 10  2  0  0  0  0
M  END
>  <CHROM.1>
11.20211125,9.51776100,27.59594259,0.17085991,-1.39809060,0.46240466

>  <Name>
ligand

>  <RI>
0

>  <Rbt.Current_Directory>
/home/itssahil/PROJECTS/Mol_Feturizer/New_Systems/rnas/2EET

>  <Rbt.Executable>
rbdock ($Id: //depot/dev/client3/rdock/2013.1/src/exe/rbdock.cxx#4 $)

>  <Rbt.Library>
libRbt.so (2013.1, Build901 2013/11/27)

>  <Rbt.Parameter_File>
/export/apps/rDock/src/rDock_2013.1_src/data/scripts/dock_solv.prm

>  <Rbt.Receptor>
prm/blind_docking_60.prm

>  <SCORE>
-18.0788

>  <SCORE.INTER>
-18.0788

>  <SCORE.INTER.CONST>
1

>  <SCORE.INTER.POLAR>
0

>  <SCORE.INTER.ROT>
0

>  <SCORE.INTER.SOLV>
4.20055

>  <SCORE.INTER.VDW>
-17.0527

>  <SCORE.INTER.norm>
-1.80788

>  <SCORE.INTRA>
0

>  <SCORE.INTRA.DIHEDRAL>
0

>  <SCORE.INTRA.DIHEDRAL.0>
0

>  <SCORE.INTRA.POLAR>
0

>  <SCORE.INTRA.POLAR.0>
0

>  <SCORE.INTRA.REPUL>
0

>  <SCORE.INTRA.REPUL.0>
0

>  <SCORE.INTRA.SOLV>
0

>  <SCORE.INTRA.SOLV.lig_0>
-4.28464

>  <SCORE.INTRA.VDW>
0

>  <SCORE.INTRA.VDW.0>
0

>  <SCORE.INTRA.norm>
0

>  <SCORE.RESTR>
0

>  <SCORE.RESTR.CAVITY>
0

>  <SCORE.RESTR.norm>
0

>  <SCORE.SYSTEM>
0

>  <SCORE.SYSTEM.CONST>
0

>  <SCORE.SYSTEM.DIHEDRAL>
0

>  <SCORE.SYSTEM.SOLV>
0

>  <SCORE.SYSTEM.norm>
0

>  <SCORE.heavy>
10

>  <SCORE.norm>
-1.80788

>  <RMSD>
0.716

$$$$
ligand
 OpenBabel11021811423D
libRbt.so/2013.1/901 2013/11/27
 10 11  0  0  0  0  0  0  0  0999 V2000
   11.5101    9.5005   29.4808 N   0  0  0  0  0  0  0  0  0  0  0  0
   11.3689   10.8633   29.2846 C   0  0  0  0  0  0  0  0  0  0  0  0
   11.1307   11.3824   28.0740 N   0  0  0  0  0  0  0  0  0  0  0  0
   11.0468   10.4317   27.0878 C   0  0  0  0  0  0  0  0  0  0  0  0
   11.1780    9.0687   27.2227 C   0  0  0  0  0  0  0  0  0  0  0  0
   11.4312    8.5065   28.5047 C   0  0  0  0  0  0  0  0  0  0  0  0
   11.5808    7.3253   28.8422 O   0  0  0  0  0  0  0  0  0  0  0  0
   11.0231    8.4920   25.9891 N   0  0  0  0  0  0  0  0  0  0  0  0
   10.7990    9.4950   25.1188 C   0  0  0  0  0  0  0  0  0  0  0  0
   10.8091   10.7058   25.7643 N   0  0  0  0  0  0  0  0  0  0  0  0
  1  2  1  0  0  0  0
  1  6  1  0  0  0  0
  2  3  2  0  0  0  0
  3  4  1  0  0  0  0
  4  5  2  0  0  0  0
  4 10  1  0  0  0  0
  5  6  1  0  0  0  0
  5  8  1  0  0  0  0
  6  7  2  0  0  0  0
  8  9  1  0  0  0  0
  9 10  2  0  0  0  0
M  END
>  <CHROM.1>
11.19543324,9.53588932,27.56363619,0.15041284,-1.39123952,0.45716105

>  <Name>
ligand

>  <RI>
0

>  <Rbt.Current_Directory>
/home/itssahil/PROJECTS/Mol_Feturizer/New_Systems/rnas/2EET

>  <Rbt.Executable>
rbdock ($Id: //depot/dev/client3/rdock/2013.1/src/exe/rbdock.cxx#4 $)

>  <Rbt.Library>
libRbt.so (2013.1, Build901 2013/11/27)

>  <Rbt.Parameter_File>
/export/apps/rDock/src/rDock_2013.1_src/data/scripts/dock_solv.prm

>  <Rbt.Receptor>
prm/pocket_docking_3.prm

>  <SCORE>
-18.0681

>  <SCORE.INTER>
-18.0681

>  <SCORE.INTER.CONST>
1

>  <SCORE.INTER.POLAR>
0

>  <SCORE.INTER.ROT>
0

>  <SCORE.INTER.SOLV>
4.15507

>  <SCORE.INTER.VDW>
-17.0305

>  <SCORE.INTER.norm>
-1.80681

>  <SCORE.INTRA>
0

>  <SCORE.INTRA.DIHEDRAL>
0

>  <SCORE.INTRA.DIHEDRAL.0>
0

>  <SCORE.INTRA.POLAR>
0

>  <SCORE.INTRA.POLAR.0>
0

>  <SCORE.INTRA.REPUL>
0

>  <SCORE.INTRA.REPUL.0>
0

>  <SCORE.INTRA.SOLV>
0

>  <SCORE.INTRA.SOLV.lig_0>
-4.28464

>  <SCORE.INTRA.VDW>
0

>  <SCORE.INTRA.VDW.0>
0

>  <SCORE.INTRA.norm>
0

>  <SCORE.RESTR>
0

>  <SCORE.RESTR.CAVITY>
0

>  <SCORE.RESTR.norm>
0

>  <SCORE.SYSTEM>
0

>  <SCORE.SYSTEM.CONST>
0

>  <SCORE.SYSTEM.DIHEDRAL>
0

>  <SCORE.SYSTEM.SOLV>
0

>  <SCORE.SYSTEM.norm>
0

>  <SCORE.heavy>
10

>  <SCORE.norm>
-1.80681

>  <RMSD>
0.716

$$$$
ligand
 OpenBabel11021811423D
libRbt.so/2013.1/901 2013/11/27
 10 11  0  0  0  0  0  0  0  0999 V2000
   11.4985    9.5100   29.5164 N   0  0  0  0  0  0  0  0  0  0  0  0
   11.3583   10.8697   29.2993 C   0  0  0  0  0  0  0  0  0  0  0  0
   11.1319   11.3713   28.0791 N   0  0  0  0  0  0  0  0  0  0  0  0
   11.0586   10.4065   27.1058 C   0  0  0  0  0  0  0  0  0  0  0  0
   11.1895    9.0457   27.2615 C   0  0  0  0  0  0  0  0  0  0  0  0
   11.4302    8.5021   28.5538 C   0  0  0  0  0  0  0  0  0  0  0  0
   11.5772    7.3260   28.9096 O   0  0  0  0  0  0  0  0  0  0  0  0
   11.0474    8.4514   26.0347 N   0  0  0  0  0  0  0  0  0  0  0  0
   10.8313    9.4417   25.1480 C   0  0  0  0  0  0  0  0  0  0  0  0
   10.8340   10.6615   25.7762 N   0  0  0  0  0  0  0  0  0  0  0  0
  1  2  1  0  0  0  0
  1  6  1  0  0  0  0
  2  3  2  0  0  0  0
  3  4  1  0  0  0  0
  4  5  2  0  0  0  0
  4 10  1  0  0  0  0
  5  6  1  0  0  0  0
  5  8  1  0  0  0  0
  6  7  2  0  0  0  0
  8  9  1  0  0  0  0
  9 10  2  0  0  0  0
M  END
>  <CHROM.1>
11.20313469,9.51775284,27.59584200,0.18048280,-1.39987059,0.47251736

>  <Name>
ligand

>  <RI>
0

>  <Rbt.Current_Directory>
/home/itssahil/PROJECTS/Mol_Feturizer/New_Systems/rnas/2EET

>  <Rbt.Executable>
rbdock ($Id: //depot/dev/client3/rdock/2013.1/src/exe/rbdock.cxx#4 $)

>  <Rbt.Library>
libRbt.so (2013.1, Build901 2013/11/27)

>  <Rbt.Parameter_File>
/export/apps/rDock/src/rDock_2013.1_src/data/scripts/dock_solv.prm

>  <Rbt.Receptor>
prm/pocket_docking_3.prm

>  <SCORE>
-18.0748

>  <SCORE.INTER>
-18.0748

>  <SCORE.INTER.CONST>
1

>  <SCORE.INTER.POLAR>
0

>  <SCORE.INTER.ROT>
0

>  <SCORE.INTER.SOLV>
4.20204

>  <SCORE.INTER.VDW>
-17.0505

>  <SCORE.INTER.norm>
-1.80748

>  <SCORE.INTRA>
0

>  <SCORE.INTRA.DIHEDRAL>
0

>  <SCORE.INTRA.DIHEDRAL.0>
0

>  <SCORE.INTRA.POLAR>
0

>  <SCORE.INTRA.POLAR.0>
0

>  <SCORE.INTRA.REPUL>
0

>  <SCORE.INTRA.REPUL.0>
0

>  <SCORE.INTRA.SOLV>
0

>  <SCORE.INTRA.SOLV.lig_0>
-4.28464

>  <SCORE.INTRA.VDW>
0

>  <SCORE.INTRA.VDW.0>
0

>  <SCORE.INTRA.norm>
0

>  <SCORE.RESTR>
0

>  <SCORE.RESTR.CAVITY>
0

>  <SCORE.RESTR.norm>
0

>  <SCORE.SYSTEM>
0

>  <SCORE.SYSTEM.CONST>
0

>  <SCORE.SYSTEM.DIHEDRAL>
0

>  <SCORE.SYSTEM.SOLV>
0

>  <SCORE.SYSTEM.norm>
0

>  <SCORE.heavy>
10

>  <SCORE.norm>
-1.80748

>  <RMSD>
0.716

$$$$
ligand
 OpenBabel11021811423D
libRbt.so/2013.1/901 2013/11/27
 10 11  0  0  0  0  0  0  0  0999 V2000
   11.4902    9.4851   29.4810 N   0  0  0  0  0  0  0  0  0  0  0  0
   11.3616   10.8504   29.2939 C   0  0  0  0  0  0  0  0  0  0  0  0
   11.1309   11.3801   28.0865 N   0  0  0  0  0  0  0  0  0  0  0  0
   11.0410   10.4371   27.0934 C   0  0  0  0  0  0  0  0  0  0  0  0
   11.1597    9.0720   27.2191 C   0  0  0  0  0  0  0  0  0  0  0  0
   11.4047    8.4987   28.4977 C   0  0  0  0  0  0  0  0  0  0  0  0
   11.5430    7.3139   28.8272 O   0  0  0  0  0  0  0  0  0  0  0  0
   11.0026    8.5055   25.9811 N   0  0  0  0  0  0  0  0  0  0  0  0
   10.7895    9.5165   25.1174 C   0  0  0  0  0  0  0  0  0  0  0  0
   10.8088   10.7225   25.7714 N   0  0  0  0  0  0  0  0  0  0  0  0
  1  2  1  0  0  0  0
  1  6  1  0  0  0  0
  2  3  2  0  0  0  0
  3  4  1  0  0  0  0
  4  5  2  0  0  0  0
  4 10  1  0  0  0  0
  5  6  1  0  0  0  0
  5  8  1  0  0  0  0
  6  7  2  0  0  0  0
  8  9  1  0  0  0  0
  9 10  2  0  0  0  0
M  END
>  <CHROM.1>
11.18044137,9.53669653,27.56333671,0.11027895,-1.39719911,0.42466796

>  <Name>
ligand

>  <RI>
0

>  <Rbt.Current_Directory>
/home/itssahil/PROJECTS/Mol_Feturizer/New_Systems/rnas/2EET

>  <Rbt.Executable>
rbdock ($Id: //depot/dev/client3/rdock/2013.1/src/exe/rbdock.cxx#4 $)

>  <Rbt.Library>
libRbt.so (2013.1, Build901 2013/11/27)

>  <Rbt.Parameter_File>
/export/apps/rDock/src/rDock_2013.1_src/data/scripts/dock_solv.prm

>  <Rbt.Receptor>
prm/pocket_docking_3.prm

>  <SCORE>
-18.0536

>  <SCORE.INTER>
-18.0536

>  <SCORE.INTER.CONST>
1

>  <SCORE.INTER.POLAR>
0

>  <SCORE.INTER.ROT>
0

>  <SCORE.INTER.SOLV>
4.19791

>  <SCORE.INTER.VDW>
-17.035

>  <SCORE.INTER.norm>
-1.80536

>  <SCORE.INTRA>
0

>  <SCORE.INTRA.DIHEDRAL>
0

>  <SCORE.INTRA.DIHEDRAL.0>
0

>  <SCORE.INTRA.POLAR>
0

>  <SCORE.INTRA.POLAR.0>
0

>  <SCORE.INTRA.REPUL>
0

>  <SCORE.INTRA.REPUL.0>
0

>  <SCORE.INTRA.SOLV>
0

>  <SCORE.INTRA.SOLV.lig_0>
-4.28464

>  <SCORE.INTRA.VDW>
0

>  <SCORE.INTRA.VDW.0>
0

>  <SCORE.INTRA.norm>
0

>  <SCORE.RESTR>
0

>  <SCORE.RESTR.CAVITY>
0

>  <SCORE.RESTR.norm>
0

>  <SCORE.SYSTEM>
0

>  <SCORE.SYSTEM.CONST>
0

>  <SCORE.SYSTEM.DIHEDRAL>
0

>  <SCORE.SYSTEM.SOLV>
0

>  <SCORE.SYSTEM.norm>
0

>  <SCORE.heavy>
10

>  <SCORE.norm>
-1.80536

>  <RMSD>
0.716

$$$$
ligand
 OpenBabel11021811423D
libRbt.so/2013.1/901 2013/11/27
 10 11  0  0  0  0  0  0  0  0999 V2000
   11.4898    9.5102   29.5198 N   0  0  0  0  0  0  0  0  0  0  0  0
   11.3493   10.8700   29.3033 C   0  0  0  0  0  0  0  0  0  0  0  0
   11.1243   11.3722   28.0832 N   0  0  0  0  0  0  0  0  0  0  0  0
   11.0527   10.4081   27.1091 C   0  0  0  0  0  0  0  0  0  0  0  0
   11.1839    9.0472   27.2641 C   0  0  0  0  0  0  0  0  0  0  0  0
   11.4231    8.5029   28.5564 C   0  0  0  0  0  0  0  0  0  0  0  0
   11.5702    7.3266   28.9117 O   0  0  0  0  0  0  0  0  0  0  0  0
   11.0436    8.4536   26.0368 N   0  0  0  0  0  0  0  0  0  0  0  0
   10.8282    9.4443   25.1504 C   0  0  0  0  0  0  0  0  0  0  0  0
   10.8296   10.6638   25.7794 N   0  0  0  0  0  0  0  0  0  0  0  0
  1  2  1  0  0  0  0
  1  6  1  0  0  0  0
  2  3  2  0  0  0  0
  3  4  1  0  0  0  0
  4  5  2  0  0  0  0
  4 10  1  0  0  0  0
  5  6  1  0  0  0  0
  5  8  1  0  0  0  0
  6  7  2  0  0  0  0
  8  9  1  0  0  0  0
  9 10  2  0  0  0  0
M  END
>  <CHROM.1>
11.19688343,9.51905104,27.59881294,0.18601680,-1.40082777,0.47859317

>  <Name>
ligand

>  <RI>
0

>  <Rbt.Current_Directory>
/home/itssahil/PROJECTS/Mol_Feturizer/New_Systems/rnas/2EET

>  <Rbt.Executable>
rbdock ($Id: //depot/dev/client3/rdock/2013.1/src/exe/rbdock.cxx#4 $)

>  <Rbt.Library>
libRbt.so (2013.1, Build901 2013/11/27)

>  <Rbt.Parameter_File>
/export/apps/rDock/src/rDock_2013.1_src/data/scripts/dock_solv.prm

>  <Rbt.Receptor>
prm/pocket_docking_4.prm

>  <SCORE>
-18.0704

>  <SCORE.INTER>
-18.0704

>  <SCORE.INTER.CONST>
1

>  <SCORE.INTER.POLAR>
0

>  <SCORE.INTER.ROT>
0

>  <SCORE.INTER.SOLV>
4.21105

>  <SCORE.INTER.VDW>
-17.0506

>  <SCORE.INTER.norm>
-1.80704

>  <SCORE.INTRA>
0

>  <SCORE.INTRA.DIHEDRAL>
0

>  <SCORE.INTRA.DIHEDRAL.0>
0

>  <SCORE.INTRA.POLAR>
0

>  <SCORE.INTRA.POLAR.0>
0

>  <SCORE.INTRA.REPUL>
0

>  <SCORE.INTRA.REPUL.0>
0

>  <SCORE.INTRA.SOLV>
0

>  <SCORE.INTRA.SOLV.lig_0>
-4.28464

>  <SCORE.INTRA.VDW>
0

>  <SCORE.INTRA.VDW.0>
0

>  <SCORE.INTRA.norm>
0

>  <SCORE.RESTR>
0

>  <SCORE.RESTR.CAVITY>
0

>  <SCORE.RESTR.norm>
0

>  <SCORE.SYSTEM>
0

>  <SCORE.SYSTEM.CONST>
0

>  <SCORE.SYSTEM.DIHEDRAL>
0

>  <SCORE.SYSTEM.SOLV>
0

>  <SCORE.SYSTEM.norm>
0

>  <SCORE.heavy>
10

>  <SCORE.norm>
-1.80704

>  <RMSD>
0.716

$$$$
ligand
 OpenBabel11021811423D
libRbt.so/2013.1/901 2013/11/27
 10 11  0  0  0  0  0  0  0  0999 V2000
   11.4865    9.4878   29.5053 N   0  0  0  0  0  0  0  0  0  0  0  0
   11.3565   10.8499   29.2969 C   0  0  0  0  0  0  0  0  0  0  0  0
   11.1363   11.3612   28.0796 N   0  0  0  0  0  0  0  0  0  0  0  0
   11.0582   10.4035   27.0997 C   0  0  0  0  0  0  0  0  0  0  0  0
   11.1789    9.0407   27.2467 C   0  0  0  0  0  0  0  0  0  0  0  0
   11.4129    8.4869   28.5359 C   0  0  0  0  0  0  0  0  0  0  0  0
   11.5507    7.3074   28.8842 O   0  0  0  0  0  0  0  0  0  0  0  0
   11.0351    8.4556   26.0157 N   0  0  0  0  0  0  0  0  0  0  0  0
   10.8281    9.4533   25.1351 C   0  0  0  0  0  0  0  0  0  0  0  0
   10.8382   10.6689   25.7714 N   0  0  0  0  0  0  0  0  0  0  0  0
  1  2  1  0  0  0  0
  1  6  1  0  0  0  0
  2  3  2  0  0  0  0
  3  4  1  0  0  0  0
  4  5  2  0  0  0  0
  4 10  1  0  0  0  0
  5  6  1  0  0  0  0
  5  8  1  0  0  0  0
  6  7  2  0  0  0  0
  8  9  1  0  0  0  0
  9 10  2  0  0  0  0
M  END
>  <CHROM.1>
11.19522492,9.51046039,27.58419792,0.14740955,-1.40495100,0.44653981

>  <Name>
ligand

>  <RI>
0

>  <Rbt.Current_Directory>
/home/itssahil/PROJECTS/Mol_Feturizer/New_Systems/rnas/2EET

>  <Rbt.Executable>
rbdock ($Id: //depot/dev/client3/rdock/2013.1/src/exe/rbdock.cxx#4 $)

>  <Rbt.Library>
libRbt.so (2013.1, Build901 2013/11/27)

>  <Rbt.Parameter_File>
/export/apps/rDock/src/rDock_2013.1_src/data/scripts/dock_solv.prm

>  <Rbt.Receptor>
prm/pocket_docking_4.prm

>  <SCORE>
-18.052

>  <SCORE.INTER>
-18.052

>  <SCORE.INTER.CONST>
1

>  <SCORE.INTER.POLAR>
0

>  <SCORE.INTER.ROT>
0

>  <SCORE.INTER.SOLV>
4.22593

>  <SCORE.INTER.VDW>
-17.0433

>  <SCORE.INTER.norm>
-1.8052

>  <SCORE.INTRA>
0

>  <SCORE.INTRA.DIHEDRAL>
0

>  <SCORE.INTRA.DIHEDRAL.0>
0

>  <SCORE.INTRA.POLAR>
0

>  <SCORE.INTRA.POLAR.0>
0

>  <SCORE.INTRA.REPUL>
0

>  <SCORE.INTRA.REPUL.0>
0

>  <SCORE.INTRA.SOLV>
0

>  <SCORE.INTRA.SOLV.lig_0>
-4.28464

>  <SCORE.INTRA.VDW>
0

>  <SCORE.INTRA.VDW.0>
0

>  <SCORE.INTRA.norm>
0

>  <SCORE.RESTR>
0

>  <SCORE.RESTR.CAVITY>
0

>  <SCORE.RESTR.norm>
0

>  <SCORE.SYSTEM>
0

>  <SCORE.SYSTEM.CONST>
0

>  <SCORE.SYSTEM.DIHEDRAL>
0

>  <SCORE.SYSTEM.SOLV>
0

>  <SCORE.SYSTEM.norm>
0

>  <SCORE.heavy>
10

>  <SCORE.norm>
-1.8052

>  <RMSD>
0.716

$$$$
ligand
 OpenBabel11021811423D
libRbt.so/2013.1/901 2013/11/27
 10 11  0  0  0  0  0  0  0  0999 V2000
   11.5112    9.5041   29.5057 N   0  0  0  0  0  0  0  0  0  0  0  0
   11.3721   10.8639   29.2884 C   0  0  0  0  0  0  0  0  0  0  0  0
   11.1368   11.3648   28.0696 N   0  0  0  0  0  0  0  0  0  0  0  0
   11.0535   10.3992   27.0978 C   0  0  0  0  0  0  0  0  0  0  0  0
   11.1828    9.0383   27.2538 C   0  0  0  0  0  0  0  0  0  0  0  0
   11.4328    8.4954   28.5446 C   0  0  0  0  0  0  0  0  0  0  0  0
   11.5803    7.3194   28.9004 O   0  0  0  0  0  0  0  0  0  0  0  0
   11.0293    8.4431   26.0288 N   0  0  0  0  0  0  0  0  0  0  0  0
   10.8081    9.4329   25.1429 C   0  0  0  0  0  0  0  0  0  0  0  0
   10.8185   10.6534   25.7699 N   0  0  0  0  0  0  0  0  0  0  0  0
  1  2  1  0  0  0  0
  1  6  1  0  0  0  0
  2  3  2  0  0  0  0
  3  4  1  0  0  0  0
  4  5  2  0  0  0  0
  4 10  1  0  0  0  0
  5  6  1  0  0  0  0
  5  8  1  0  0  0  0
  6  7  2  0  0  0  0
  8  9  1  0  0  0  0
  9 10  2  0  0  0  0
M  END
>  <CHROM.1>
11.20012056,9.51062254,27.58756907,0.14855691,-1.39345332,0.44007858

>  <Name>
ligand

>  <RI>
0

>  <Rbt.Current_Directory>
/home/itssahil/PROJECTS/Mol_Feturizer/New_Systems/rnas/2EET

>  <Rbt.Executable>
rbdock ($Id: //depot/dev/client3/rdock/2013.1/src/exe/rbdock.cxx#4 $)

>  <Rbt.Library>
libRbt.so (2013.1, Build901 2013/11/27)

>  <Rbt.Parameter_File>
/export/apps/rDock/src/rDock_2013.1_src/data/scripts/dock_solv.prm

>  <Rbt.Receptor>
prm/pocket_docking_4.prm

>  <SCORE>
-18.0821

>  <SCORE.INTER>
-18.0821

>  <SCORE.INTER.CONST>
1

>  <SCORE.INTER.POLAR>
0

>  <SCORE.INTER.ROT>
0

>  <SCORE.INTER.SOLV>
4.18988

>  <SCORE.INTER.VDW>
-17.0514

>  <SCORE.INTER.norm>
-1.80821

>  <SCORE.INTRA>
0

>  <SCORE.INTRA.DIHEDRAL>
0

>  <SCORE.INTRA.DIHEDRAL.0>
0

>  <SCORE.INTRA.POLAR>
0

>  <SCORE.INTRA.POLAR.0>
0

>  <SCORE.INTRA.REPUL>
0

>  <SCORE.INTRA.REPUL.0>
0

>  <SCORE.INTRA.SOLV>
0

>  <SCORE.INTRA.SOLV.lig_0>
-4.28464

>  <SCORE.INTRA.VDW>
0

>  <SCORE.INTRA.VDW.0>
0

>  <SCORE.INTRA.norm>
0

>  <SCORE.RESTR>
0

>  <SCORE.RESTR.CAVITY>
0

>  <SCORE.RESTR.norm>
0

>  <SCORE.SYSTEM>
0

>  <SCORE.SYSTEM.CONST>
0

>  <SCORE.SYSTEM.DIHEDRAL>
0

>  <SCORE.SYSTEM.SOLV>
0

>  <SCORE.SYSTEM.norm>
0

>  <SCORE.heavy>
10

>  <SCORE.norm>
-1.80821

>  <RMSD>
0.716

$$$$
ligand
 OpenBabel11021811423D
libRbt.so/2013.1/901 2013/11/27
 10 11  0  0  0  0  0  0  0  0999 V2000
   11.5022    9.5120   29.5157 N   0  0  0  0  0  0  0  0  0  0  0  0
   11.3635   10.8718   29.2978 C   0  0  0  0  0  0  0  0  0  0  0  0
   11.1344   11.3726   28.0778 N   0  0  0  0  0  0  0  0  0  0  0  0
   11.0571   10.4070   27.1055 C   0  0  0  0  0  0  0  0  0  0  0  0
   11.1863    9.0462   27.2621 C   0  0  0  0  0  0  0  0  0  0  0  0
   11.4297    8.5034   28.5542 C   0  0  0  0  0  0  0  0  0  0  0  0
   11.5760    7.3274   28.9107 O   0  0  0  0  0  0  0  0  0  0  0  0
   11.0399    8.4510   26.0363 N   0  0  0  0  0  0  0  0  0  0  0  0
   10.8229    9.4408   25.1492 C   0  0  0  0  0  0  0  0  0  0  0  0
   10.8291   10.6612   25.7764 N   0  0  0  0  0  0  0  0  0  0  0  0
  1  2  1  0  0  0  0
  1  6  1  0  0  0  0
  2  3  2  0  0  0  0
  3  4  1  0  0  0  0
  4  5  2  0  0  0  0
  4 10  1  0  0  0  0
  5  6  1  0  0  0  0
  5  8  1  0  0  0  0
  6  7  2  0  0  0  0
  8  9  1  0  0  0  0
  9 10  2  0  0  0  0
M  END
>  <CHROM.1>
11.20155699,9.51850429,27.59599457,0.16540200,-1.39807719,0.45675621

>  <Name>
ligand

>  <RI>
0

>  <Rbt.Current_Directory>
/home/itssahil/PROJECTS/Mol_Feturizer/New_Systems/rnas/2EET

>  <Rbt.Executable>
rbdock ($Id: //depot/dev/client3/rdock/2013.1/src/exe/rbdock.cxx#4 $)

>  <Rbt.Library>
libRbt.so (2013.1, Build901 2013/11/27)

>  <Rbt.Parameter_File>
/export/apps/rDock/src/rDock_2013.1_src/data/scripts/dock_solv.prm

>  <Rbt.Receptor>
prm/pocket_docking_4.prm

>  <SCORE>
-18.0802

>  <SCORE.INTER>
-18.0804

>  <SCORE.INTER.CONST>
1

>  <SCORE.INTER.POLAR>
0

>  <SCORE.INTER.ROT>
0

>  <SCORE.INTER.SOLV>
4.20297

>  <SCORE.INTER.VDW>
-17.0546

>  <SCORE.INTER.norm>
-1.80804

>  <SCORE.INTRA>
0

>  <SCORE.INTRA.DIHEDRAL>
0

>  <SCORE.INTRA.DIHEDRAL.0>
0

>  <SCORE.INTRA.POLAR>
0

>  <SCORE.INTRA.POLAR.0>
0

>  <SCORE.INTRA.REPUL>
0

>  <SCORE.INTRA.REPUL.0>
0

>  <SCORE.INTRA.SOLV>
0

>  <SCORE.INTRA.SOLV.lig_0>
-4.28464

>  <SCORE.INTRA.VDW>
0

>  <SCORE.INTRA.VDW.0>
0

>  <SCORE.INTRA.norm>
0

>  <SCORE.RESTR>
0.000169668

>  <SCORE.RESTR.CAVITY>
0.000169668

>  <SCORE.RESTR.norm>
1.69668e-05

>  <SCORE.SYSTEM>
0

>  <SCORE.SYSTEM.CONST>
0

>  <SCORE.SYSTEM.DIHEDRAL>
0

>  <SCORE.SYSTEM.SOLV>
0

>  <SCORE.SYSTEM.norm>
0

>  <SCORE.heavy>
10

>  <SCORE.norm>
-1.80802

>  <RMSD>
0.716

$$$$
ligand
 OpenBabel11021811423D
libRbt.so/2013.1/901 2013/11/27
 10 11  0  0  0  0  0  0  0  0999 V2000
   11.4988    9.5165   29.5214 N   0  0  0  0  0  0  0  0  0  0  0  0
   11.3583   10.8759   29.3019 C   0  0  0  0  0  0  0  0  0  0  0  0
   11.1300   11.3752   28.0812 N   0  0  0  0  0  0  0  0  0  0  0  0
   11.0551   10.4086   27.1097 C   0  0  0  0  0  0  0  0  0  0  0  0
   11.1860    9.0480   27.2678 C   0  0  0  0  0  0  0  0  0  0  0  0
   11.4287    8.5069   28.5608 C   0  0  0  0  0  0  0  0  0  0  0  0
   11.5763    7.3314   28.9186 O   0  0  0  0  0  0  0  0  0  0  0  0
   11.0419    8.4514   26.0424 N   0  0  0  0  0  0  0  0  0  0  0  0
   10.8245    9.4400   25.1542 C   0  0  0  0  0  0  0  0  0  0  0  0
   10.8283   10.6611   25.7801 N   0  0  0  0  0  0  0  0  0  0  0  0
  1  2  1  0  0  0  0
  1  6  1  0  0  0  0
  2  3  2  0  0  0  0
  3  4  1  0  0  0  0
  4  5  2  0  0  0  0
  4 10  1  0  0  0  0
  5  6  1  0  0  0  0
  5  8  1  0  0  0  0
  6  7  2  0  0  0  0
  8  9  1  0  0  0  0
  9 10  2  0  0  0  0
M  END
>  <CHROM.1>
11.20026077,9.52072335,27.60125993,0.17563985,-1.39847791,0.46585339

>  <Name>
ligand

>  <RI>
0

>  <Rbt.Current_Directory>
/home/itssahil/PROJECTS/Mol_Feturizer/New_Systems/rnas/2EET

>  <Rbt.Executable>
rbdock ($Id: //depot/dev/client3/rdock/2013.1/src/exe/rbdock.cxx#4 $)

>  <Rbt.Library>
libRbt.so (2013.1, Build901 2013/11/27)

>  <Rbt.Parameter_File>
/export/apps/rDock/src/rDock_2013.1_src/data/scripts/dock_solv.prm

>  <Rbt.Receptor>
prm/pocket_docking_5.prm

>  <SCORE>
-18.0761

>  <SCORE.INTER>
-18.0761

>  <SCORE.INTER.CONST>
1

>  <SCORE.INTER.POLAR>
0

>  <SCORE.INTER.ROT>
0

>  <SCORE.INTER.SOLV>
4.20745

>  <SCORE.INTER.VDW>
-17.0532

>  <SCORE.INTER.norm>
-1.80761

>  <SCORE.INTRA>
0

>  <SCORE.INTRA.DIHEDRAL>
0

>  <SCORE.INTRA.DIHEDRAL.0>
0

>  <SCORE.INTRA.POLAR>
0

>  <SCORE.INTRA.POLAR.0>
0

>  <SCORE.INTRA.REPUL>
0

>  <SCORE.INTRA.REPUL.0>
0

>  <SCORE.INTRA.SOLV>
0

>  <SCORE.INTRA.SOLV.lig_0>
-4.28464

>  <SCORE.INTRA.VDW>
0

>  <SCORE.INTRA.VDW.0>
0

>  <SCORE.INTRA.norm>
0

>  <SCORE.RESTR>
0

>  <SCORE.RESTR.CAVITY>
0

>  <SCORE.RESTR.norm>
0

>  <SCORE.SYSTEM>
0

>  <SCORE.SYSTEM.CONST>
0

>  <SCORE.SYSTEM.DIHEDRAL>
0

>  <SCORE.SYSTEM.SOLV>
0

>  <SCORE.SYSTEM.norm>
0

>  <SCORE.heavy>
10

>  <SCORE.norm>
-1.80761

>  <RMSD>
0.716

$$$$
ligand
 OpenBabel11021811423D
libRbt.so/2013.1/901 2013/11/27
 10 11  0  0  0  0  0  0  0  0999 V2000
   11.5051    9.5041   29.4775 N   0  0  0  0  0  0  0  0  0  0  0  0
   11.3567   10.8672   29.2886 C   0  0  0  0  0  0  0  0  0  0  0  0
   11.1266   11.3925   28.0791 N   0  0  0  0  0  0  0  0  0  0  0  0
   11.0585   10.4477   27.0861 C   0  0  0  0  0  0  0  0  0  0  0  0
   11.1974    9.0847   27.2136 C   0  0  0  0  0  0  0  0  0  0  0  0
   11.4421    8.5160   28.4943 C   0  0  0  0  0  0  0  0  0  0  0  0
   11.5963    7.3337   28.8256 O   0  0  0  0  0  0  0  0  0  0  0  0
   11.0581    8.5151   25.9749 N   0  0  0  0  0  0  0  0  0  0  0  0
   10.8356    9.5221   25.1089 C   0  0  0  0  0  0  0  0  0  0  0  0
   10.8315   10.7288   25.7622 N   0  0  0  0  0  0  0  0  0  0  0  0
  1  2  1  0  0  0  0
  1  6  1  0  0  0  0
  2  3  2  0  0  0  0
  3  4  1  0  0  0  0
  4  5  2  0  0  0  0
  4 10  1  0  0  0  0
  5  6  1  0  0  0  0
  5  8  1  0  0  0  0
  6  7  2  0  0  0  0
  8  9  1  0  0  0  0
  9 10  2  0  0  0  0
M  END
>  <CHROM.1>
11.20846912,9.54984888,27.55761371,0.20911990,-1.39657804,0.52138746

>  <Name>
ligand

>  <RI>
0

>  <Rbt.Current_Directory>
/home/itssahil/PROJECTS/Mol_Feturizer/New_Systems/rnas/2EET

>  <Rbt.Executable>
rbdock ($Id: //depot/dev/client3/rdock/2013.1/src/exe/rbdock.cxx#4 $)

>  <Rbt.Library>
libRbt.so (2013.1, Build901 2013/11/27)

>  <Rbt.Parameter_File>
/export/apps/rDock/src/rDock_2013.1_src/data/scripts/dock_solv.prm

>  <Rbt.Receptor>
prm/pocket_docking_6.prm

>  <SCORE>
-18.0186

>  <SCORE.INTER>
-18.0186

>  <SCORE.INTER.CONST>
1

>  <SCORE.INTER.POLAR>
0

>  <SCORE.INTER.ROT>
0

>  <SCORE.INTER.SOLV>
4.12958

>  <SCORE.INTER.VDW>
-16.989

>  <SCORE.INTER.norm>
-1.80186

>  <SCORE.INTRA>
0

>  <SCORE.INTRA.DIHEDRAL>
0

>  <SCORE.INTRA.DIHEDRAL.0>
0

>  <SCORE.INTRA.POLAR>
0

>  <SCORE.INTRA.POLAR.0>
0

>  <SCORE.INTRA.REPUL>
0

>  <SCORE.INTRA.REPUL.0>
0

>  <SCORE.INTRA.SOLV>
0

>  <SCORE.INTRA.SOLV.lig_0>
-4.28464

>  <SCORE.INTRA.VDW>
0

>  <SCORE.INTRA.VDW.0>
0

>  <SCORE.INTRA.norm>
0

>  <SCORE.RESTR>
0

>  <SCORE.RESTR.CAVITY>
0

>  <SCORE.RESTR.norm>
0

>  <SCORE.SYSTEM>
0

>  <SCORE.SYSTEM.CONST>
0

>  <SCORE.SYSTEM.DIHEDRAL>
0

>  <SCORE.SYSTEM.SOLV>
0

>  <SCORE.SYSTEM.norm>
0

>  <SCORE.heavy>
10

>  <SCORE.norm>
-1.80186

>  <RMSD>
0.716

$$$$
ligand
 OpenBabel11021811423D
libRbt.so/2013.1/901 2013/11/27
 10 11  0  0  0  0  0  0  0  0999 V2000
   11.5060    9.5141   29.5150 N   0  0  0  0  0  0  0  0  0  0  0  0
   11.3647   10.8735   29.2962 C   0  0  0  0  0  0  0  0  0  0  0  0
   11.1322   11.3728   28.0762 N   0  0  0  0  0  0  0  0  0  0  0  0
   11.0541   10.4063   27.1050 C   0  0  0  0  0  0  0  0  0  0  0  0
   11.1858    9.0457   27.2625 C   0  0  0  0  0  0  0  0  0  0  0  0
   11.4328    8.5045   28.5546 C   0  0  0  0  0  0  0  0  0  0  0  0
   11.5817    7.3290   28.9119 O   0  0  0  0  0  0  0  0  0  0  0  0
   11.0375    8.4492   26.0376 N   0  0  0  0  0  0  0  0  0  0  0  0
   10.8170    9.4378   25.1501 C   0  0  0  0  0  0  0  0  0  0  0  0
   10.8229   10.6588   25.7761 N   0  0  0  0  0  0  0  0  0  0  0  0
  1  2  1  0  0  0  0
  1  6  1  0  0  0  0
  2  3  2  0  0  0  0
  3  4  1  0  0  0  0
  4  5  2  0  0  0  0
  4 10  1  0  0  0  0
  5  6  1  0  0  0  0
  5  8  1  0  0  0  0
  6  7  2  0  0  0  0
  8  9  1  0  0  0  0
  9 10  2  0  0  0  0
M  END
>  <CHROM.1>
11.20104209,9.51840335,27.59594765,0.16744813,-1.39542534,0.45784463

>  <Name>
ligand

>  <RI>
0

>  <Rbt.Current_Directory>
/home/itssahil/PROJECTS/Mol_Feturizer/New_Systems/rnas/2EET

>  <Rbt.Executable>
rbdock ($Id: //depot/dev/client3/rdock/2013.1/src/exe/rbdock.cxx#4 $)

>  <Rbt.Library>
libRbt.so (2013.1, Build901 2013/11/27)

>  <Rbt.Parameter_File>
/export/apps/rDock/src/rDock_2013.1_src/data/scripts/dock_solv.prm

>  <Rbt.Receptor>
prm/pocket_docking_6.prm

>  <SCORE>
-18.0775

>  <SCORE.INTER>
-18.0775

>  <SCORE.INTER.CONST>
1

>  <SCORE.INTER.POLAR>
0

>  <SCORE.INTER.ROT>
0

>  <SCORE.INTER.SOLV>
4.19498

>  <SCORE.INTER.VDW>
-17.05

>  <SCORE.INTER.norm>
-1.80775

>  <SCORE.INTRA>
0

>  <SCORE.INTRA.DIHEDRAL>
0

>  <SCORE.INTRA.DIHEDRAL.0>
0

>  <SCORE.INTRA.POLAR>
0

>  <SCORE.INTRA.POLAR.0>
0

>  <SCORE.INTRA.REPUL>
0

>  <SCORE.INTRA.REPUL.0>
0

>  <SCORE.INTRA.SOLV>
0

>  <SCORE.INTRA.SOLV.lig_0>
-4.28464

>  <SCORE.INTRA.VDW>
0

>  <SCORE.INTRA.VDW.0>
0

>  <SCORE.INTRA.norm>
0

>  <SCORE.RESTR>
0

>  <SCORE.RESTR.CAVITY>
0

>  <SCORE.RESTR.norm>
0

>  <SCORE.SYSTEM>
0

>  <SCORE.SYSTEM.CONST>
0

>  <SCORE.SYSTEM.DIHEDRAL>
0

>  <SCORE.SYSTEM.SOLV>
0

>  <SCORE.SYSTEM.norm>
0

>  <SCORE.heavy>
10

>  <SCORE.norm>
-1.80775

>  <RMSD>
0.716

$$$$
ligand
 OpenBabel11021811423D
libRbt.so/2013.1/901 2013/11/27
 10 11  0  0  0  0  0  0  0  0999 V2000
   11.4960    9.5073   29.5158 N   0  0  0  0  0  0  0  0  0  0  0  0
   11.3595   10.8675   29.2996 C   0  0  0  0  0  0  0  0  0  0  0  0
   11.1341   11.3705   28.0798 N   0  0  0  0  0  0  0  0  0  0  0  0
   11.0580   10.4066   27.1058 C   0  0  0  0  0  0  0  0  0  0  0  0
   11.1853    9.0453   27.2606 C   0  0  0  0  0  0  0  0  0  0  0  0
   11.4247    8.5002   28.5525 C   0  0  0  0  0  0  0  0  0  0  0  0
   11.5687    7.3235   28.9076 O   0  0  0  0  0  0  0  0  0  0  0  0
   11.0413    8.4522   26.0335 N   0  0  0  0  0  0  0  0  0  0  0  0
   10.8277    9.4436   25.1475 C   0  0  0  0  0  0  0  0  0  0  0  0
   10.8338   10.6631   25.7765 N   0  0  0  0  0  0  0  0  0  0  0  0
  1  2  1  0  0  0  0
  1  6  1  0  0  0  0
  2  3  2  0  0  0  0
  3  4  1  0  0  0  0
  4  5  2  0  0  0  0
  4 10  1  0  0  0  0
  5  6  1  0  0  0  0
  5  8  1  0  0  0  0
  6  7  2  0  0  0  0
  8  9  1  0  0  0  0
  9 10  2  0  0  0  0
M  END
>  <CHROM.1>
11.20024203,9.51711737,27.59528733,0.16563900,-1.40088053,0.45853349

>  <Name>
ligand

>  <RI>
0

>  <Rbt.Current_Directory>
/home/itssahil/PROJECTS/Mol_Feturizer/New_Systems/rnas/2EET

>  <Rbt.Executable>
rbdock ($Id: //depot/dev/client3/rdock/2013.1/src/exe/rbdock.cxx#4 $)

>  <Rbt.Library>
libRbt.so (2013.1, Build901 2013/11/27)

>  <Rbt.Parameter_File>
/export/apps/rDock/src/rDock_2013.1_src/data/scripts/dock_solv.prm

>  <Rbt.Receptor>
prm/pocket_docking_8.prm

>  <SCORE>
-18.0806

>  <SCORE.INTER>
-18.0806

>  <SCORE.INTER.CONST>
1

>  <SCORE.INTER.POLAR>
0

>  <SCORE.INTER.ROT>
0

>  <SCORE.INTER.SOLV>
4.21204

>  <SCORE.INTER.VDW>
-17.0578

>  <SCORE.INTER.norm>
-1.80806

>  <SCORE.INTRA>
0

>  <SCORE.INTRA.DIHEDRAL>
0

>  <SCORE.INTRA.DIHEDRAL.0>
0

>  <SCORE.INTRA.POLAR>
0

>  <SCORE.INTRA.POLAR.0>
0

>  <SCORE.INTRA.REPUL>
0

>  <SCORE.INTRA.REPUL.0>
0

>  <SCORE.INTRA.SOLV>
0

>  <SCORE.INTRA.SOLV.lig_0>
-4.28464

>  <SCORE.INTRA.VDW>
0

>  <SCORE.INTRA.VDW.0>
0

>  <SCORE.INTRA.norm>
0

>  <SCORE.RESTR>
0

>  <SCORE.RESTR.CAVITY>
0

>  <SCORE.RESTR.norm>
0

>  <SCORE.SYSTEM>
0

>  <SCORE.SYSTEM.CONST>
0

>  <SCORE.SYSTEM.DIHEDRAL>
0

>  <SCORE.SYSTEM.SOLV>
0

>  <SCORE.SYSTEM.norm>
0

>  <SCORE.heavy>
10

>  <SCORE.norm>
-1.80806

>  <RMSD>
0.716

$$$$
ligand
 OpenBabel11021811423D
libRbt.so/2013.1/901 2013/11/27
 10 11  0  0  0  0  0  0  0  0999 V2000
   11.5117    9.5029   29.4975 N   0  0  0  0  0  0  0  0  0  0  0  0
   11.3701   10.8631   29.2844 C   0  0  0  0  0  0  0  0  0  0  0  0
   11.1360   11.3674   28.0668 N   0  0  0  0  0  0  0  0  0  0  0  0
   11.0565   10.4049   27.0917 C   0  0  0  0  0  0  0  0  0  0  0  0
   11.1883    9.0437   27.2436 C   0  0  0  0  0  0  0  0  0  0  0  0
   11.4372    8.4972   28.5331 C   0  0  0  0  0  0  0  0  0  0  0  0
   11.5865    7.3203   28.8854 O   0  0  0  0  0  0  0  0  0  0  0  0
   11.0384    8.4521   26.0164 N   0  0  0  0  0  0  0  0  0  0  0  0
   10.8167    9.4444   25.1333 C   0  0  0  0  0  0  0  0  0  0  0  0
   10.8234   10.6628   25.7642 N   0  0  0  0  0  0  0  0  0  0  0  0
  1  2  1  0  0  0  0
  1  6  1  0  0  0  0
  2  3  2  0  0  0  0
  3  4  1  0  0  0  0
  4  5  2  0  0  0  0
  4 10  1  0  0  0  0
  5  6  1  0  0  0  0
  5  8  1  0  0  0  0
  6  7  2  0  0  0  0
  8  9  1  0  0  0  0
  9 10  2  0  0  0  0
M  END
>  <CHROM.1>
11.20409719,9.51499824,27.57888342,0.16390202,-1.39419139,0.45841995

>  <Name>
ligand

>  <RI>
0

>  <Rbt.Current_Directory>
/home/itssahil/PROJECTS/Mol_Feturizer/New_Systems/rnas/2EET

>  <Rbt.Executable>
rbdock ($Id: //depot/dev/client3/rdock/2013.1/src/exe/rbdock.cxx#4 $)

>  <Rbt.Library>
libRbt.so (2013.1, Build901 2013/11/27)

>  <Rbt.Parameter_File>
/export/apps/rDock/src/rDock_2013.1_src/data/scripts/dock_solv.prm

>  <Rbt.Receptor>
prm/blind_docking_60.prm

>  <SCORE>
-18.0728

>  <SCORE.INTER>
-18.0728

>  <SCORE.INTER.CONST>
1

>  <SCORE.INTER.POLAR>
0

>  <SCORE.INTER.ROT>
0

>  <SCORE.INTER.SOLV>
4.17443

>  <SCORE.INTER.VDW>
-17.04

>  <SCORE.INTER.norm>
-1.80728

>  <SCORE.INTRA>
0

>  <SCORE.INTRA.DIHEDRAL>
0

>  <SCORE.INTRA.DIHEDRAL.0>
0

>  <SCORE.INTRA.POLAR>
0

>  <SCORE.INTRA.POLAR.0>
0

>  <SCORE.INTRA.REPUL>
0

>  <SCORE.INTRA.REPUL.0>
0

>  <SCORE.INTRA.SOLV>
0

>  <SCORE.INTRA.SOLV.lig_0>
-4.28464

>  <SCORE.INTRA.VDW>
0

>  <SCORE.INTRA.VDW.0>
0

>  <SCORE.INTRA.norm>
0

>  <SCORE.RESTR>
0

>  <SCORE.RESTR.CAVITY>
0

>  <SCORE.RESTR.norm>
0

>  <SCORE.SYSTEM>
0

>  <SCORE.SYSTEM.CONST>
0

>  <SCORE.SYSTEM.DIHEDRAL>
0

>  <SCORE.SYSTEM.SOLV>
0

>  <SCORE.SYSTEM.norm>
0

>  <SCORE.heavy>
10

>  <SCORE.norm>
-1.80728

>  <RMSD>
0.717

$$$$
ligand
 OpenBabel11021811423D
libRbt.so/2013.1/901 2013/11/27
 10 11  0  0  0  0  0  0  0  0999 V2000
   11.4952    9.5077   29.5151 N   0  0  0  0  0  0  0  0  0  0  0  0
   11.3599   10.8680   29.2986 C   0  0  0  0  0  0  0  0  0  0  0  0
   11.1340   11.3708   28.0788 N   0  0  0  0  0  0  0  0  0  0  0  0
   11.0561   10.4067   27.1052 C   0  0  0  0  0  0  0  0  0  0  0  0
   11.1820    9.0453   27.2603 C   0  0  0  0  0  0  0  0  0  0  0  0
   11.4220    8.5004   28.5522 C   0  0  0  0  0  0  0  0  0  0  0  0
   11.5650    7.3236   28.9075 O   0  0  0  0  0  0  0  0  0  0  0  0
   11.0363    8.4520   26.0335 N   0  0  0  0  0  0  0  0  0  0  0  0
   10.8230    9.4433   25.1473 C   0  0  0  0  0  0  0  0  0  0  0  0
   10.8310   10.6630   25.7760 N   0  0  0  0  0  0  0  0  0  0  0  0
  1  2  1  0  0  0  0
  1  6  1  0  0  0  0
  2  3  2  0  0  0  0
  3  4  1  0  0  0  0
  4  5  2  0  0  0  0
  4 10  1  0  0  0  0
  5  6  1  0  0  0  0
  5  8  1  0  0  0  0
  6  7  2  0  0  0  0
  8  9  1  0  0  0  0
  9 10  2  0  0  0  0
M  END
>  <CHROM.1>
11.19774448,9.51722067,27.59482004,0.15773428,-1.40059168,0.45042730

>  <Name>
ligand

>  <RI>
0

>  <Rbt.Current_Directory>
/home/itssahil/PROJECTS/Mol_Feturizer/New_Systems/rnas/2EET

>  <Rbt.Executable>
rbdock ($Id: //depot/dev/client3/rdock/2013.1/src/exe/rbdock.cxx#4 $)

>  <Rbt.Library>
libRbt.so (2013.1, Build901 2013/11/27)

>  <Rbt.Parameter_File>
/export/apps/rDock/src/rDock_2013.1_src/data/scripts/dock_solv.prm

>  <Rbt.Receptor>
prm/blind_docking_60.prm

>  <SCORE>
-18.082

>  <SCORE.INTER>
-18.082

>  <SCORE.INTER.CONST>
1

>  <SCORE.INTER.POLAR>
0

>  <SCORE.INTER.ROT>
0

>  <SCORE.INTER.SOLV>
4.21587

>  <SCORE.INTER.VDW>
-17.06

>  <SCORE.INTER.norm>
-1.8082

>  <SCORE.INTRA>
0

>  <SCORE.INTRA.DIHEDRAL>
0

>  <SCORE.INTRA.DIHEDRAL.0>
0

>  <SCORE.INTRA.POLAR>
0

>  <SCORE.INTRA.POLAR.0>
0

>  <SCORE.INTRA.REPUL>
0

>  <SCORE.INTRA.REPUL.0>
0

>  <SCORE.INTRA.SOLV>
0

>  <SCORE.INTRA.SOLV.lig_0>
-4.28464

>  <SCORE.INTRA.VDW>
0

>  <SCORE.INTRA.VDW.0>
0

>  <SCORE.INTRA.norm>
0

>  <SCORE.RESTR>
0

>  <SCORE.RESTR.CAVITY>
0

>  <SCORE.RESTR.norm>
0

>  <SCORE.SYSTEM>
0

>  <SCORE.SYSTEM.CONST>
0

>  <SCORE.SYSTEM.DIHEDRAL>
0

>  <SCORE.SYSTEM.SOLV>
0

>  <SCORE.SYSTEM.norm>
0

>  <SCORE.heavy>
10

>  <SCORE.norm>
-1.8082

>  <RMSD>
0.717

$$$$
ligand
 OpenBabel11021811423D
libRbt.so/2013.1/901 2013/11/27
 10 11  0  0  0  0  0  0  0  0999 V2000
   11.5132    9.5054   29.5044 N   0  0  0  0  0  0  0  0  0  0  0  0
   11.3741   10.8651   29.2864 C   0  0  0  0  0  0  0  0  0  0  0  0
   11.1368   11.3652   28.0677 N   0  0  0  0  0  0  0  0  0  0  0  0
   11.0516   10.3990   27.0967 C   0  0  0  0  0  0  0  0  0  0  0  0
   11.1808    9.0382   27.2534 C   0  0  0  0  0  0  0  0  0  0  0  0
   11.4329    8.4961   28.5442 C   0  0  0  0  0  0  0  0  0  0  0  0
   11.5807    7.3203   28.9005 O   0  0  0  0  0  0  0  0  0  0  0  0
   11.0251    8.4422   26.0291 N   0  0  0  0  0  0  0  0  0  0  0  0
   10.8026    9.4315   25.1429 C   0  0  0  0  0  0  0  0  0  0  0  0
   10.8144   10.6524   25.7690 N   0  0  0  0  0  0  0  0  0  0  0  0
  1  2  1  0  0  0  0
  1  6  1  0  0  0  0
  2  3  2  0  0  0  0
  3  4  1  0  0  0  0
  4  5  2  0  0  0  0
  4 10  1  0  0  0  0
  5  6  1  0  0  0  0
  5  8  1  0  0  0  0
  6  7  2  0  0  0  0
  8  9  1  0  0  0  0
  9 10  2  0  0  0  0
M  END
>  <CHROM.1>
11.19881477,9.51073996,27.58682024,0.14316539,-1.39200049,0.43409583

>  <Name>
ligand

>  <RI>
0

>  <Rbt.Current_Directory>
/home/itssahil/PROJECTS/Mol_Feturizer/New_Systems/rnas/2EET

>  <Rbt.Executable>
rbdock ($Id: //depot/dev/client3/rdock/2013.1/src/exe/rbdock.cxx#4 $)

>  <Rbt.Library>
libRbt.so (2013.1, Build901 2013/11/27)

>  <Rbt.Parameter_File>
/export/apps/rDock/src/rDock_2013.1_src/data/scripts/dock_solv.prm

>  <Rbt.Receptor>
prm/pocket_docking_3.prm

>  <SCORE>
-18.0807

>  <SCORE.INTER>
-18.0807

>  <SCORE.INTER.CONST>
1

>  <SCORE.INTER.POLAR>
0

>  <SCORE.INTER.ROT>
0

>  <SCORE.INTER.SOLV>
4.18827

>  <SCORE.INTER.VDW>
-17.0499

>  <SCORE.INTER.norm>
-1.80807

>  <SCORE.INTRA>
0

>  <SCORE.INTRA.DIHEDRAL>
0

>  <SCORE.INTRA.DIHEDRAL.0>
0

>  <SCORE.INTRA.POLAR>
0

>  <SCORE.INTRA.POLAR.0>
0

>  <SCORE.INTRA.REPUL>
0

>  <SCORE.INTRA.REPUL.0>
0

>  <SCORE.INTRA.SOLV>
0

>  <SCORE.INTRA.SOLV.lig_0>
-4.28464

>  <SCORE.INTRA.VDW>
0

>  <SCORE.INTRA.VDW.0>
0

>  <SCORE.INTRA.norm>
0

>  <SCORE.RESTR>
0

>  <SCORE.RESTR.CAVITY>
0

>  <SCORE.RESTR.norm>
0

>  <SCORE.SYSTEM>
0

>  <SCORE.SYSTEM.CONST>
0

>  <SCORE.SYSTEM.DIHEDRAL>
0

>  <SCORE.SYSTEM.SOLV>
0

>  <SCORE.SYSTEM.norm>
0

>  <SCORE.heavy>
10

>  <SCORE.norm>
-1.80807

>  <RMSD>
0.717

$$$$
ligand
 OpenBabel11021811423D
libRbt.so/2013.1/901 2013/11/27
 10 11  0  0  0  0  0  0  0  0999 V2000
   11.5092    9.5036   29.5034 N   0  0  0  0  0  0  0  0  0  0  0  0
   11.3695   10.8637   29.2880 C   0  0  0  0  0  0  0  0  0  0  0  0
   11.1352   11.3662   28.0697 N   0  0  0  0  0  0  0  0  0  0  0  0
   11.0538   10.4020   27.0964 C   0  0  0  0  0  0  0  0  0  0  0  0
   11.1837    9.0410   27.2505 C   0  0  0  0  0  0  0  0  0  0  0  0
   11.4327    8.4964   28.5408 C   0  0  0  0  0  0  0  0  0  0  0  0
   11.5805    7.3199   28.8950 O   0  0  0  0  0  0  0  0  0  0  0  0
   11.0322    8.4475   26.0245 N   0  0  0  0  0  0  0  0  0  0  0  0
   10.8113    9.4385   25.1398 C   0  0  0  0  0  0  0  0  0  0  0  0
   10.8202   10.6580   25.7685 N   0  0  0  0  0  0  0  0  0  0  0  0
  1  2  1  0  0  0  0
  1  6  1  0  0  0  0
  2  3  2  0  0  0  0
  3  4  1  0  0  0  0
  4  5  2  0  0  0  0
  4 10  1  0  0  0  0
  5  6  1  0  0  0  0
  5  8  1  0  0  0  0
  6  7  2  0  0  0  0
  8  9  1  0  0  0  0
  9 10  2  0  0  0  0
M  END
>  <CHROM.1>
11.20038891,9.51281276,27.58496949,0.15499421,-1.39422516,0.44790403

>  <Name>
ligand

>  <RI>
0

>  <Rbt.Current_Directory>
/home/itssahil/PROJECTS/Mol_Feturizer/New_Systems/rnas/2EET

>  <Rbt.Executable>
rbdock ($Id: //depot/dev/client3/rdock/2013.1/src/exe/rbdock.cxx#4 $)

>  <Rbt.Library>
libRbt.so (2013.1, Build901 2013/11/27)

>  <Rbt.Parameter_File>
/export/apps/rDock/src/rDock_2013.1_src/data/scripts/dock_solv.prm

>  <Rbt.Receptor>
prm/pocket_docking_3.prm

>  <SCORE>
-18.0791

>  <SCORE.INTER>
-18.0791

>  <SCORE.INTER.CONST>
1

>  <SCORE.INTER.POLAR>
0

>  <SCORE.INTER.ROT>
0

>  <SCORE.INTER.SOLV>
4.1867

>  <SCORE.INTER.VDW>
-17.0483

>  <SCORE.INTER.norm>
-1.80791

>  <SCORE.INTRA>
0

>  <SCORE.INTRA.DIHEDRAL>
0

>  <SCORE.INTRA.DIHEDRAL.0>
0

>  <SCORE.INTRA.POLAR>
0

>  <SCORE.INTRA.POLAR.0>
0

>  <SCORE.INTRA.REPUL>
0

>  <SCORE.INTRA.REPUL.0>
0

>  <SCORE.INTRA.SOLV>
0

>  <SCORE.INTRA.SOLV.lig_0>
-4.28464

>  <SCORE.INTRA.VDW>
0

>  <SCORE.INTRA.VDW.0>
0

>  <SCORE.INTRA.norm>
0

>  <SCORE.RESTR>
0

>  <SCORE.RESTR.CAVITY>
0

>  <SCORE.RESTR.norm>
0

>  <SCORE.SYSTEM>
0

>  <SCORE.SYSTEM.CONST>
0

>  <SCORE.SYSTEM.DIHEDRAL>
0

>  <SCORE.SYSTEM.SOLV>
0

>  <SCORE.SYSTEM.norm>
0

>  <SCORE.heavy>
10

>  <SCORE.norm>
-1.80791

>  <RMSD>
0.717

$$$$
ligand
 OpenBabel11021811423D
libRbt.so/2013.1/901 2013/11/27
 10 11  0  0  0  0  0  0  0  0999 V2000
   11.4943    9.5016   29.4945 N   0  0  0  0  0  0  0  0  0  0  0  0
   11.3641   10.8656   29.2993 C   0  0  0  0  0  0  0  0  0  0  0  0
   11.1316   11.3877   28.0889 N   0  0  0  0  0  0  0  0  0  0  0  0
   11.0417   10.4385   27.1017 C   0  0  0  0  0  0  0  0  0  0  0  0
   11.1620    9.0744   27.2356 C   0  0  0  0  0  0  0  0  0  0  0  0
   11.4090    8.5091   28.5174 C   0  0  0  0  0  0  0  0  0  0  0  0
   11.5489    7.3265   28.8541 O   0  0  0  0  0  0  0  0  0  0  0  0
   11.0043    8.5001   26.0012 N   0  0  0  0  0  0  0  0  0  0  0  0
   10.7893    9.5056   25.1315 C   0  0  0  0  0  0  0  0  0  0  0  0
   10.8079   10.7156   25.7781 N   0  0  0  0  0  0  0  0  0  0  0  0
  1  2  1  0  0  0  0
  1  6  1  0  0  0  0
  2  3  2  0  0  0  0
  3  4  1  0  0  0  0
  4  5  2  0  0  0  0
  4 10  1  0  0  0  0
  5  6  1  0  0  0  0
  5  8  1  0  0  0  0
  6  7  2  0  0  0  0
  8  9  1  0  0  0  0
  9 10  2  0  0  0  0
M  END
>  <CHROM.1>
11.18261763,9.54117359,27.57694524,0.11372571,-1.39583934,0.42195205

>  <Name>
ligand

>  <RI>
0

>  <Rbt.Current_Directory>
/home/itssahil/PROJECTS/Mol_Feturizer/New_Systems/rnas/2EET

>  <Rbt.Executable>
rbdock ($Id: //depot/dev/client3/rdock/2013.1/src/exe/rbdock.cxx#4 $)

>  <Rbt.Library>
libRbt.so (2013.1, Build901 2013/11/27)

>  <Rbt.Parameter_File>
/export/apps/rDock/src/rDock_2013.1_src/data/scripts/dock_solv.prm

>  <Rbt.Receptor>
prm/pocket_docking_5.prm

>  <SCORE>
-18.0939

>  <SCORE.INTER>
-18.096

>  <SCORE.INTER.CONST>
1

>  <SCORE.INTER.POLAR>
0

>  <SCORE.INTER.ROT>
0

>  <SCORE.INTER.SOLV>
4.20298

>  <SCORE.INTER.VDW>
-17.065

>  <SCORE.INTER.norm>
-1.8096

>  <SCORE.INTRA>
0

>  <SCORE.INTRA.DIHEDRAL>
0

>  <SCORE.INTRA.DIHEDRAL.0>
0

>  <SCORE.INTRA.POLAR>
0

>  <SCORE.INTRA.POLAR.0>
0

>  <SCORE.INTRA.REPUL>
0

>  <SCORE.INTRA.REPUL.0>
0

>  <SCORE.INTRA.SOLV>
0

>  <SCORE.INTRA.SOLV.lig_0>
-4.28464

>  <SCORE.INTRA.VDW>
0

>  <SCORE.INTRA.VDW.0>
0

>  <SCORE.INTRA.norm>
0

>  <SCORE.RESTR>
0.00202698

>  <SCORE.RESTR.CAVITY>
0.00202698

>  <SCORE.RESTR.norm>
0.000202698

>  <SCORE.SYSTEM>
0

>  <SCORE.SYSTEM.CONST>
0

>  <SCORE.SYSTEM.DIHEDRAL>
0

>  <SCORE.SYSTEM.SOLV>
0

>  <SCORE.SYSTEM.norm>
0

>  <SCORE.heavy>
10

>  <SCORE.norm>
-1.80939

>  <RMSD>
0.717

$$$$
ligand
 OpenBabel11021811423D
libRbt.so/2013.1/901 2013/11/27
 10 11  0  0  0  0  0  0  0  0999 V2000
   11.5050    9.5024   29.4827 N   0  0  0  0  0  0  0  0  0  0  0  0
   11.3658   10.8658   29.2894 C   0  0  0  0  0  0  0  0  0  0  0  0
   11.1276   11.3879   28.0802 N   0  0  0  0  0  0  0  0  0  0  0  0
   11.0415   10.4394   27.0919 C   0  0  0  0  0  0  0  0  0  0  0  0
   11.1707    9.0760   27.2239 C   0  0  0  0  0  0  0  0  0  0  0  0
   11.4238    8.5106   28.5044 C   0  0  0  0  0  0  0  0  0  0  0  0
   11.5717    7.3285   28.8393 O   0  0  0  0  0  0  0  0  0  0  0  0
   11.0140    8.5022   25.9891 N   0  0  0  0  0  0  0  0  0  0  0  0
   10.7909    9.5074   25.1211 C   0  0  0  0  0  0  0  0  0  0  0  0
   10.8033   10.7168   25.7692 N   0  0  0  0  0  0  0  0  0  0  0  0
  1  2  1  0  0  0  0
  1  6  1  0  0  0  0
  2  3  2  0  0  0  0
  3  4  1  0  0  0  0
  4  5  2  0  0  0  0
  4 10  1  0  0  0  0
  5  6  1  0  0  0  0
  5  8  1  0  0  0  0
  6  7  2  0  0  0  0
  8  9  1  0  0  0  0
  9 10  2  0  0  0  0
M  END
>  <CHROM.1>
11.18904723,9.54242354,27.56577182,0.14073877,-1.39133402,0.44980236

>  <Name>
ligand

>  <RI>
0

>  <Rbt.Current_Directory>
/home/itssahil/PROJECTS/Mol_Feturizer/New_Systems/rnas/2EET

>  <Rbt.Executable>
rbdock ($Id: //depot/dev/client3/rdock/2013.1/src/exe/rbdock.cxx#4 $)

>  <Rbt.Library>
libRbt.so (2013.1, Build901 2013/11/27)

>  <Rbt.Parameter_File>
/export/apps/rDock/src/rDock_2013.1_src/data/scripts/dock_solv.prm

>  <Rbt.Receptor>
prm/pocket_docking_5.prm

>  <SCORE>
-18.0856

>  <SCORE.INTER>
-18.0856

>  <SCORE.INTER.CONST>
1

>  <SCORE.INTER.POLAR>
0

>  <SCORE.INTER.ROT>
0

>  <SCORE.INTER.SOLV>
4.16406

>  <SCORE.INTER.VDW>
-17.0451

>  <SCORE.INTER.norm>
-1.80856

>  <SCORE.INTRA>
0

>  <SCORE.INTRA.DIHEDRAL>
0

>  <SCORE.INTRA.DIHEDRAL.0>
0

>  <SCORE.INTRA.POLAR>
0

>  <SCORE.INTRA.POLAR.0>
0

>  <SCORE.INTRA.REPUL>
0

>  <SCORE.INTRA.REPUL.0>
0

>  <SCORE.INTRA.SOLV>
0

>  <SCORE.INTRA.SOLV.lig_0>
-4.28464

>  <SCORE.INTRA.VDW>
0

>  <SCORE.INTRA.VDW.0>
0

>  <SCORE.INTRA.norm>
0

>  <SCORE.RESTR>
0

>  <SCORE.RESTR.CAVITY>
0

>  <SCORE.RESTR.norm>
0

>  <SCORE.SYSTEM>
0

>  <SCORE.SYSTEM.CONST>
0

>  <SCORE.SYSTEM.DIHEDRAL>
0

>  <SCORE.SYSTEM.SOLV>
0

>  <SCORE.SYSTEM.norm>
0

>  <SCORE.heavy>
10

>  <SCORE.norm>
-1.80856

>  <RMSD>
0.717

$$$$
ligand
 OpenBabel11021811423D
libRbt.so/2013.1/901 2013/11/27
 10 11  0  0  0  0  0  0  0  0999 V2000
   11.4936    9.5118   29.5196 N   0  0  0  0  0  0  0  0  0  0  0  0
   11.3564   10.8717   29.3019 C   0  0  0  0  0  0  0  0  0  0  0  0
   11.1318   11.3733   28.0813 N   0  0  0  0  0  0  0  0  0  0  0  0
   11.0572   10.4082   27.1083 C   0  0  0  0  0  0  0  0  0  0  0  0
   11.1851    9.0472   27.2647 C   0  0  0  0  0  0  0  0  0  0  0  0
   11.4238    8.5037   28.5574 C   0  0  0  0  0  0  0  0  0  0  0  0
   11.5682    7.3274   28.9138 O   0  0  0  0  0  0  0  0  0  0  0  0
   11.0426    8.4527   26.0381 N   0  0  0  0  0  0  0  0  0  0  0  0
   10.8292    9.4430   25.1508 C   0  0  0  0  0  0  0  0  0  0  0  0
   10.8340   10.6631   25.7785 N   0  0  0  0  0  0  0  0  0  0  0  0
  1  2  1  0  0  0  0
  1  6  1  0  0  0  0
  2  3  2  0  0  0  0
  3  4  1  0  0  0  0
  4  5  2  0  0  0  0
  4 10  1  0  0  0  0
  5  6  1  0  0  0  0
  5  8  1  0  0  0  0
  6  7  2  0  0  0  0
  8  9  1  0  0  0  0
  9 10  2  0  0  0  0
M  END
>  <CHROM.1>
11.19952128,9.51938599,27.59887091,0.17132418,-1.40142190,0.46305941

>  <Name>
ligand

>  <RI>
0

>  <Rbt.Current_Directory>
/home/itssahil/PROJECTS/Mol_Feturizer/New_Systems/rnas/2EET

>  <Rbt.Executable>
rbdock ($Id: //depot/dev/client3/rdock/2013.1/src/exe/rbdock.cxx#4 $)

>  <Rbt.Library>
libRbt.so (2013.1, Build901 2013/11/27)

>  <Rbt.Parameter_File>
/export/apps/rDock/src/rDock_2013.1_src/data/scripts/dock_solv.prm

>  <Rbt.Receptor>
prm/pocket_docking_6.prm

>  <SCORE>
-18.0783

>  <SCORE.INTER>
-18.0783

>  <SCORE.INTER.CONST>
1

>  <SCORE.INTER.POLAR>
0

>  <SCORE.INTER.ROT>
0

>  <SCORE.INTER.SOLV>
4.21583

>  <SCORE.INTER.VDW>
-17.0575

>  <SCORE.INTER.norm>
-1.80783

>  <SCORE.INTRA>
0

>  <SCORE.INTRA.DIHEDRAL>
0

>  <SCORE.INTRA.DIHEDRAL.0>
0

>  <SCORE.INTRA.POLAR>
0

>  <SCORE.INTRA.POLAR.0>
0

>  <SCORE.INTRA.REPUL>
0

>  <SCORE.INTRA.REPUL.0>
0

>  <SCORE.INTRA.SOLV>
0

>  <SCORE.INTRA.SOLV.lig_0>
-4.28464

>  <SCORE.INTRA.VDW>
0

>  <SCORE.INTRA.VDW.0>
0

>  <SCORE.INTRA.norm>
0

>  <SCORE.RESTR>
0

>  <SCORE.RESTR.CAVITY>
0

>  <SCORE.RESTR.norm>
0

>  <SCORE.SYSTEM>
0

>  <SCORE.SYSTEM.CONST>
0

>  <SCORE.SYSTEM.DIHEDRAL>
0

>  <SCORE.SYSTEM.SOLV>
0

>  <SCORE.SYSTEM.norm>
0

>  <SCORE.heavy>
10

>  <SCORE.norm>
-1.80783

>  <RMSD>
0.717

$$$$
ligand
 OpenBabel11021811423D
libRbt.so/2013.1/901 2013/11/27
 10 11  0  0  0  0  0  0  0  0999 V2000
   11.4930    9.5078   29.5168 N   0  0  0  0  0  0  0  0  0  0  0  0
   11.3575   10.8681   29.3002 C   0  0  0  0  0  0  0  0  0  0  0  0
   11.1337   11.3711   28.0801 N   0  0  0  0  0  0  0  0  0  0  0  0
   11.0580   10.4070   27.1062 C   0  0  0  0  0  0  0  0  0  0  0  0
   11.1843    9.0457   27.2613 C   0  0  0  0  0  0  0  0  0  0  0  0
   11.4221    8.5007   28.5536 C   0  0  0  0  0  0  0  0  0  0  0  0
   11.5650    7.3239   28.9090 O   0  0  0  0  0  0  0  0  0  0  0  0
   11.0412    8.4525   26.0342 N   0  0  0  0  0  0  0  0  0  0  0  0
   10.8291    9.4439   25.1478 C   0  0  0  0  0  0  0  0  0  0  0  0
   10.8353   10.6634   25.7766 N   0  0  0  0  0  0  0  0  0  0  0  0
  1  2  1  0  0  0  0
  1  6  1  0  0  0  0
  2  3  2  0  0  0  0
  3  4  1  0  0  0  0
  4  5  2  0  0  0  0
  4 10  1  0  0  0  0
  5  6  1  0  0  0  0
  5  8  1  0  0  0  0
  6  7  2  0  0  0  0
  8  9  1  0  0  0  0
  9 10  2  0  0  0  0
M  END
>  <CHROM.1>
11.19918990,9.51754075,27.59595472,0.16513598,-1.40207277,0.45787963

>  <Name>
ligand

>  <RI>
0

>  <Rbt.Current_Directory>
/home/itssahil/PROJECTS/Mol_Feturizer/New_Systems/rnas/2EET

>  <Rbt.Executable>
rbdock ($Id: //depot/dev/client3/rdock/2013.1/src/exe/rbdock.cxx#4 $)

>  <Rbt.Library>
libRbt.so (2013.1, Build901 2013/11/27)

>  <Rbt.Parameter_File>
/export/apps/rDock/src/rDock_2013.1_src/data/scripts/dock_solv.prm

>  <Rbt.Receptor>
prm/pocket_docking_8.prm

>  <SCORE>
-18.0801

>  <SCORE.INTER>
-18.0801

>  <SCORE.INTER.CONST>
1

>  <SCORE.INTER.POLAR>
0

>  <SCORE.INTER.ROT>
0

>  <SCORE.INTER.SOLV>
4.21775

>  <SCORE.INTER.VDW>
-17.0593

>  <SCORE.INTER.norm>
-1.80801

>  <SCORE.INTRA>
0

>  <SCORE.INTRA.DIHEDRAL>
0

>  <SCORE.INTRA.DIHEDRAL.0>
0

>  <SCORE.INTRA.POLAR>
0

>  <SCORE.INTRA.POLAR.0>
0

>  <SCORE.INTRA.REPUL>
0

>  <SCORE.INTRA.REPUL.0>
0

>  <SCORE.INTRA.SOLV>
0

>  <SCORE.INTRA.SOLV.lig_0>
-4.28464

>  <SCORE.INTRA.VDW>
0

>  <SCORE.INTRA.VDW.0>
0

>  <SCORE.INTRA.norm>
0

>  <SCORE.RESTR>
0

>  <SCORE.RESTR.CAVITY>
0

>  <SCORE.RESTR.norm>
0

>  <SCORE.SYSTEM>
0

>  <SCORE.SYSTEM.CONST>
0

>  <SCORE.SYSTEM.DIHEDRAL>
0

>  <SCORE.SYSTEM.SOLV>
0

>  <SCORE.SYSTEM.norm>
0

>  <SCORE.heavy>
10

>  <SCORE.norm>
-1.80801

>  <RMSD>
0.717

$$$$
ligand
 OpenBabel11021811423D
libRbt.so/2013.1/901 2013/11/27
 10 11  0  0  0  0  0  0  0  0999 V2000
   11.5105    9.5058   29.5037 N   0  0  0  0  0  0  0  0  0  0  0  0
   11.3676   10.8650   29.2848 C   0  0  0  0  0  0  0  0  0  0  0  0
   11.1334   11.3639   28.0651 N   0  0  0  0  0  0  0  0  0  0  0  0
   11.0553   10.3972   27.0940 C   0  0  0  0  0  0  0  0  0  0  0  0
   11.1885    9.0368   27.2516 C   0  0  0  0  0  0  0  0  0  0  0  0
   11.4374    8.4960   28.5435 C   0  0  0  0  0  0  0  0  0  0  0  0
   11.5878    7.3207   28.9007 O   0  0  0  0  0  0  0  0  0  0  0  0
   11.0397    8.4400   26.0269 N   0  0  0  0  0  0  0  0  0  0  0  0
   10.8173    9.4283   25.1395 C   0  0  0  0  0  0  0  0  0  0  0  0
   10.8225   10.6494   25.7653 N   0  0  0  0  0  0  0  0  0  0  0  0
  1  2  1  0  0  0  0
  1  6  1  0  0  0  0
  2  3  2  0  0  0  0
  3  4  1  0  0  0  0
  4  5  2  0  0  0  0
  4 10  1  0  0  0  0
  5  6  1  0  0  0  0
  5  8  1  0  0  0  0
  6  7  2  0  0  0  0
  8  9  1  0  0  0  0
  9 10  2  0  0  0  0
M  END
>  <CHROM.1>
11.20363396,9.50952575,27.58495961,0.17016448,-1.39409107,0.46040282

>  <Name>
ligand

>  <RI>
0

>  <Rbt.Current_Directory>
/home/itssahil/PROJECTS/Mol_Feturizer/New_Systems/rnas/2EET

>  <Rbt.Executable>
rbdock ($Id: //depot/dev/client3/rdock/2013.1/src/exe/rbdock.cxx#4 $)

>  <Rbt.Library>
libRbt.so (2013.1, Build901 2013/11/27)

>  <Rbt.Parameter_File>
/export/apps/rDock/src/rDock_2013.1_src/data/scripts/dock_solv.prm

>  <Rbt.Receptor>
prm/blind_docking_60.prm

>  <SCORE>
-18.0724

>  <SCORE.INTER>
-18.0724

>  <SCORE.INTER.CONST>
1

>  <SCORE.INTER.POLAR>
0

>  <SCORE.INTER.ROT>
0

>  <SCORE.INTER.SOLV>
4.18054

>  <SCORE.INTER.VDW>
-17.0418

>  <SCORE.INTER.norm>
-1.80724

>  <SCORE.INTRA>
0

>  <SCORE.INTRA.DIHEDRAL>
0

>  <SCORE.INTRA.DIHEDRAL.0>
0

>  <SCORE.INTRA.POLAR>
0

>  <SCORE.INTRA.POLAR.0>
0

>  <SCORE.INTRA.REPUL>
0

>  <SCORE.INTRA.REPUL.0>
0

>  <SCORE.INTRA.SOLV>
0

>  <SCORE.INTRA.SOLV.lig_0>
-4.28464

>  <SCORE.INTRA.VDW>
0

>  <SCORE.INTRA.VDW.0>
0

>  <SCORE.INTRA.norm>
0

>  <SCORE.RESTR>
0

>  <SCORE.RESTR.CAVITY>
0

>  <SCORE.RESTR.norm>
0

>  <SCORE.SYSTEM>
0

>  <SCORE.SYSTEM.CONST>
0

>  <SCORE.SYSTEM.DIHEDRAL>
0

>  <SCORE.SYSTEM.SOLV>
0

>  <SCORE.SYSTEM.norm>
0

>  <SCORE.heavy>
10

>  <SCORE.norm>
-1.80724

>  <RMSD>
0.718

$$$$
ligand
 OpenBabel11021811423D
libRbt.so/2013.1/901 2013/11/27
 10 11  0  0  0  0  0  0  0  0999 V2000
   11.5009    9.5190   29.5203 N   0  0  0  0  0  0  0  0  0  0  0  0
   11.3611   10.8780   29.2987 C   0  0  0  0  0  0  0  0  0  0  0  0
   11.1314   11.3753   28.0773 N   0  0  0  0  0  0  0  0  0  0  0  0
   11.0545   10.4071   27.1077 C   0  0  0  0  0  0  0  0  0  0  0  0
   11.1848    9.0468   27.2679 C   0  0  0  0  0  0  0  0  0  0  0  0
   11.4289    8.5077   28.5615 C   0  0  0  0  0  0  0  0  0  0  0  0
   11.5761    7.3327   28.9212 O   0  0  0  0  0  0  0  0  0  0  0  0
   11.0386    8.4481   26.0438 N   0  0  0  0  0  0  0  0  0  0  0  0
   10.8206    9.4353   25.1541 C   0  0  0  0  0  0  0  0  0  0  0  0
   10.8261   10.6575   25.7779 N   0  0  0  0  0  0  0  0  0  0  0  0
  1  2  1  0  0  0  0
  1  6  1  0  0  0  0
  2  3  2  0  0  0  0
  3  4  1  0  0  0  0
  4  5  2  0  0  0  0
  4 10  1  0  0  0  0
  5  6  1  0  0  0  0
  5  8  1  0  0  0  0
  6  7  2  0  0  0  0
  8  9  1  0  0  0  0
  9 10  2  0  0  0  0
M  END
>  <CHROM.1>
11.19975832,9.52000519,27.60055869,0.16864019,-1.39756238,0.45722116

>  <Name>
ligand

>  <RI>
0

>  <Rbt.Current_Directory>
/home/itssahil/PROJECTS/Mol_Feturizer/New_Systems/rnas/2EET

>  <Rbt.Executable>
rbdock ($Id: //depot/dev/client3/rdock/2013.1/src/exe/rbdock.cxx#4 $)

>  <Rbt.Library>
libRbt.so (2013.1, Build901 2013/11/27)

>  <Rbt.Parameter_File>
/export/apps/rDock/src/rDock_2013.1_src/data/scripts/dock_solv.prm

>  <Rbt.Receptor>
prm/blind_docking_60.prm

>  <SCORE>
-18.0768

>  <SCORE.INTER>
-18.0768

>  <SCORE.INTER.CONST>
1

>  <SCORE.INTER.POLAR>
0

>  <SCORE.INTER.ROT>
0

>  <SCORE.INTER.SOLV>
4.20893

>  <SCORE.INTER.VDW>
-17.0541

>  <SCORE.INTER.norm>
-1.80768

>  <SCORE.INTRA>
0

>  <SCORE.INTRA.DIHEDRAL>
0

>  <SCORE.INTRA.DIHEDRAL.0>
0

>  <SCORE.INTRA.POLAR>
0

>  <SCORE.INTRA.POLAR.0>
0

>  <SCORE.INTRA.REPUL>
0

>  <SCORE.INTRA.REPUL.0>
0

>  <SCORE.INTRA.SOLV>
0

>  <SCORE.INTRA.SOLV.lig_0>
-4.28464

>  <SCORE.INTRA.VDW>
0

>  <SCORE.INTRA.VDW.0>
0

>  <SCORE.INTRA.norm>
0

>  <SCORE.RESTR>
0

>  <SCORE.RESTR.CAVITY>
0

>  <SCORE.RESTR.norm>
0

>  <SCORE.SYSTEM>
0

>  <SCORE.SYSTEM.CONST>
0

>  <SCORE.SYSTEM.DIHEDRAL>
0

>  <SCORE.SYSTEM.SOLV>
0

>  <SCORE.SYSTEM.norm>
0

>  <SCORE.heavy>
10

>  <SCORE.norm>
-1.80768

>  <RMSD>
0.718

$$$$
ligand
 OpenBabel11021811423D
libRbt.so/2013.1/901 2013/11/27
 10 11  0  0  0  0  0  0  0  0999 V2000
   11.5039    9.5188   29.5188 N   0  0  0  0  0  0  0  0  0  0  0  0
   11.3631   10.8777   29.2970 C   0  0  0  0  0  0  0  0  0  0  0  0
   11.1303   11.3745   28.0760 N   0  0  0  0  0  0  0  0  0  0  0  0
   11.0514   10.4059   27.1070 C   0  0  0  0  0  0  0  0  0  0  0  0
   11.1825    9.0456   27.2675 C   0  0  0  0  0  0  0  0  0  0  0  0
   11.4299    8.5071   28.5607 C   0  0  0  0  0  0  0  0  0  0  0  0
   11.5783    7.3324   28.9204 O   0  0  0  0  0  0  0  0  0  0  0  0
   11.0335    8.4465   26.0439 N   0  0  0  0  0  0  0  0  0  0  0  0
   10.8130    9.4332   25.1544 C   0  0  0  0  0  0  0  0  0  0  0  0
   10.8197   10.6556   25.7776 N   0  0  0  0  0  0  0  0  0  0  0  0
  1  2  1  0  0  0  0
  1  6  1  0  0  0  0
  2  3  2  0  0  0  0
  3  4  1  0  0  0  0
  4  5  2  0  0  0  0
  4 10  1  0  0  0  0
  5  6  1  0  0  0  0
  5  8  1  0  0  0  0
  6  7  2  0  0  0  0
  8  9  1  0  0  0  0
  9 10  2  0  0  0  0
M  END
>  <CHROM.1>
11.19809995,9.51901045,27.59985696,0.16409585,-1.39524026,0.45234166

>  <Name>
ligand

>  <RI>
0

>  <Rbt.Current_Directory>
/home/itssahil/PROJECTS/Mol_Feturizer/New_Systems/rnas/2EET

>  <Rbt.Executable>
rbdock ($Id: //depot/dev/client3/rdock/2013.1/src/exe/rbdock.cxx#4 $)

>  <Rbt.Library>
libRbt.so (2013.1, Build901 2013/11/27)

>  <Rbt.Parameter_File>
/export/apps/rDock/src/rDock_2013.1_src/data/scripts/dock_solv.prm

>  <Rbt.Receptor>
prm/blind_docking_80.prm

>  <SCORE>
-18.0761

>  <SCORE.INTER>
-18.0761

>  <SCORE.INTER.CONST>
1

>  <SCORE.INTER.POLAR>
0

>  <SCORE.INTER.ROT>
0

>  <SCORE.INTER.SOLV>
4.20419

>  <SCORE.INTER.VDW>
-17.0522

>  <SCORE.INTER.norm>
-1.80761

>  <SCORE.INTRA>
0

>  <SCORE.INTRA.DIHEDRAL>
0

>  <SCORE.INTRA.DIHEDRAL.0>
0

>  <SCORE.INTRA.POLAR>
0

>  <SCORE.INTRA.POLAR.0>
0

>  <SCORE.INTRA.REPUL>
0

>  <SCORE.INTRA.REPUL.0>
0

>  <SCORE.INTRA.SOLV>
0

>  <SCORE.INTRA.SOLV.lig_0>
-4.28464

>  <SCORE.INTRA.VDW>
0

>  <SCORE.INTRA.VDW.0>
0

>  <SCORE.INTRA.norm>
0

>  <SCORE.RESTR>
0

>  <SCORE.RESTR.CAVITY>
0

>  <SCORE.RESTR.norm>
0

>  <SCORE.SYSTEM>
0

>  <SCORE.SYSTEM.CONST>
0

>  <SCORE.SYSTEM.DIHEDRAL>
0

>  <SCORE.SYSTEM.SOLV>
0

>  <SCORE.SYSTEM.norm>
0

>  <SCORE.heavy>
10

>  <SCORE.norm>
-1.80761

>  <RMSD>
0.718

$$$$
ligand
 OpenBabel11021811423D
libRbt.so/2013.1/901 2013/11/27
 10 11  0  0  0  0  0  0  0  0999 V2000
   11.4940    9.5087   29.5170 N   0  0  0  0  0  0  0  0  0  0  0  0
   11.3585   10.8689   29.2998 C   0  0  0  0  0  0  0  0  0  0  0  0
   11.1338   11.3711   28.0795 N   0  0  0  0  0  0  0  0  0  0  0  0
   11.0572   10.4065   27.1063 C   0  0  0  0  0  0  0  0  0  0  0  0
   11.1834    9.0452   27.2621 C   0  0  0  0  0  0  0  0  0  0  0  0
   11.4222    8.5010   28.5545 C   0  0  0  0  0  0  0  0  0  0  0  0
   11.5652    7.3244   28.9105 O   0  0  0  0  0  0  0  0  0  0  0  0
   11.0393    8.4513   26.0354 N   0  0  0  0  0  0  0  0  0  0  0  0
   10.8266    9.4422   25.1486 C   0  0  0  0  0  0  0  0  0  0  0  0
   10.8335   10.6621   25.7767 N   0  0  0  0  0  0  0  0  0  0  0  0
  1  2  1  0  0  0  0
  1  6  1  0  0  0  0
  2  3  2  0  0  0  0
  3  4  1  0  0  0  0
  4  5  2  0  0  0  0
  4 10  1  0  0  0  0
  5  6  1  0  0  0  0
  5  8  1  0  0  0  0
  6  7  2  0  0  0  0
  8  9  1  0  0  0  0
  9 10  2  0  0  0  0
M  END
>  <CHROM.1>
11.19866261,9.51728272,27.59643755,0.16242633,-1.40140873,0.45460684

>  <Name>
ligand

>  <RI>
0

>  <Rbt.Current_Directory>
/home/itssahil/PROJECTS/Mol_Feturizer/New_Systems/rnas/2EET

>  <Rbt.Executable>
rbdock ($Id: //depot/dev/client3/rdock/2013.1/src/exe/rbdock.cxx#4 $)

>  <Rbt.Library>
libRbt.so (2013.1, Build901 2013/11/27)

>  <Rbt.Parameter_File>
/export/apps/rDock/src/rDock_2013.1_src/data/scripts/dock_solv.prm

>  <Rbt.Receptor>
prm/pocket_docking_3.prm

>  <SCORE>
-18.0813

>  <SCORE.INTER>
-18.0813

>  <SCORE.INTER.CONST>
1

>  <SCORE.INTER.POLAR>
0

>  <SCORE.INTER.ROT>
0

>  <SCORE.INTER.SOLV>
4.21764

>  <SCORE.INTER.VDW>
-17.0601

>  <SCORE.INTER.norm>
-1.80813

>  <SCORE.INTRA>
0

>  <SCORE.INTRA.DIHEDRAL>
0

>  <SCORE.INTRA.DIHEDRAL.0>
0

>  <SCORE.INTRA.POLAR>
0

>  <SCORE.INTRA.POLAR.0>
0

>  <SCORE.INTRA.REPUL>
0

>  <SCORE.INTRA.REPUL.0>
0

>  <SCORE.INTRA.SOLV>
0

>  <SCORE.INTRA.SOLV.lig_0>
-4.28464

>  <SCORE.INTRA.VDW>
0

>  <SCORE.INTRA.VDW.0>
0

>  <SCORE.INTRA.norm>
0

>  <SCORE.RESTR>
0

>  <SCORE.RESTR.CAVITY>
0

>  <SCORE.RESTR.norm>
0

>  <SCORE.SYSTEM>
0

>  <SCORE.SYSTEM.CONST>
0

>  <SCORE.SYSTEM.DIHEDRAL>
0

>  <SCORE.SYSTEM.SOLV>
0

>  <SCORE.SYSTEM.norm>
0

>  <SCORE.heavy>
10

>  <SCORE.norm>
-1.80813

>  <RMSD>
0.718

$$$$
ligand
 OpenBabel11021811423D
libRbt.so/2013.1/901 2013/11/27
 10 11  0  0  0  0  0  0  0  0999 V2000
   11.5104    9.5030   29.4735 N   0  0  0  0  0  0  0  0  0  0  0  0
   11.3616   10.8652   29.2790 C   0  0  0  0  0  0  0  0  0  0  0  0
   11.1296   11.3853   28.0676 N   0  0  0  0  0  0  0  0  0  0  0  0
   11.0600   10.4361   27.0788 C   0  0  0  0  0  0  0  0  0  0  0  0
   11.1994    9.0738   27.2119 C   0  0  0  0  0  0  0  0  0  0  0  0
   11.4461    8.5106   28.4947 C   0  0  0  0  0  0  0  0  0  0  0  0
   11.6009    7.3297   28.8309 O   0  0  0  0  0  0  0  0  0  0  0  0
   11.0582    8.4988   25.9759 N   0  0  0  0  0  0  0  0  0  0  0  0
   10.8342    9.5021   25.1059 C   0  0  0  0  0  0  0  0  0  0  0  0
   10.8310   10.7115   25.7540 N   0  0  0  0  0  0  0  0  0  0  0  0
  1  2  1  0  0  0  0
  1  6  1  0  0  0  0
  2  3  2  0  0  0  0
  3  4  1  0  0  0  0
  4  5  2  0  0  0  0
  4 10  1  0  0  0  0
  5  6  1  0  0  0  0
  5  8  1  0  0  0  0
  6  7  2  0  0  0  0
  8  9  1  0  0  0  0
  9 10  2  0  0  0  0
M  END
>  <CHROM.1>
11.21087324,9.54037795,27.55391783,0.20538505,-1.39517068,0.51339586

>  <Name>
ligand

>  <RI>
0

>  <Rbt.Current_Directory>
/home/itssahil/PROJECTS/Mol_Feturizer/New_Systems/rnas/2EET

>  <Rbt.Executable>
rbdock ($Id: //depot/dev/client3/rdock/2013.1/src/exe/rbdock.cxx#4 $)

>  <Rbt.Library>
libRbt.so (2013.1, Build901 2013/11/27)

>  <Rbt.Parameter_File>
/export/apps/rDock/src/rDock_2013.1_src/data/scripts/dock_solv.prm

>  <Rbt.Receptor>
prm/pocket_docking_4.prm

>  <SCORE>
-18.0001

>  <SCORE.INTER>
-18.0001

>  <SCORE.INTER.CONST>
1

>  <SCORE.INTER.POLAR>
0

>  <SCORE.INTER.ROT>
0

>  <SCORE.INTER.SOLV>
4.1259

>  <SCORE.INTER.VDW>
-16.9753

>  <SCORE.INTER.norm>
-1.80001

>  <SCORE.INTRA>
0

>  <SCORE.INTRA.DIHEDRAL>
0

>  <SCORE.INTRA.DIHEDRAL.0>
0

>  <SCORE.INTRA.POLAR>
0

>  <SCORE.INTRA.POLAR.0>
0

>  <SCORE.INTRA.REPUL>
0

>  <SCORE.INTRA.REPUL.0>
0

>  <SCORE.INTRA.SOLV>
0

>  <SCORE.INTRA.SOLV.lig_0>
-4.28464

>  <SCORE.INTRA.VDW>
0

>  <SCORE.INTRA.VDW.0>
0

>  <SCORE.INTRA.norm>
0

>  <SCORE.RESTR>
0

>  <SCORE.RESTR.CAVITY>
0

>  <SCORE.RESTR.norm>
0

>  <SCORE.SYSTEM>
0

>  <SCORE.SYSTEM.CONST>
0

>  <SCORE.SYSTEM.DIHEDRAL>
0

>  <SCORE.SYSTEM.SOLV>
0

>  <SCORE.SYSTEM.norm>
0

>  <SCORE.heavy>
10

>  <SCORE.norm>
-1.80001

>  <RMSD>
0.718

$$$$
ligand
 OpenBabel11021811423D
libRbt.so/2013.1/901 2013/11/27
 10 11  0  0  0  0  0  0  0  0999 V2000
   11.4944    9.5115   29.5178 N   0  0  0  0  0  0  0  0  0  0  0  0
   11.3585   10.8715   29.2995 C   0  0  0  0  0  0  0  0  0  0  0  0
   11.1328   11.3726   28.0790 N   0  0  0  0  0  0  0  0  0  0  0  0
   11.0555   10.4071   27.1066 C   0  0  0  0  0  0  0  0  0  0  0  0
   11.1820    9.0461   27.2636 C   0  0  0  0  0  0  0  0  0  0  0  0
   11.4219    8.5029   28.5562 C   0  0  0  0  0  0  0  0  0  0  0  0
   11.5654    7.3267   28.9130 O   0  0  0  0  0  0  0  0  0  0  0  0
   11.0369    8.4511   26.0375 N   0  0  0  0  0  0  0  0  0  0  0  0
   10.8234    9.4412   25.1500 C   0  0  0  0  0  0  0  0  0  0  0  0
   10.8306   10.6616   25.7770 N   0  0  0  0  0  0  0  0  0  0  0  0
  1  2  1  0  0  0  0
  1  6  1  0  0  0  0
  2  3  2  0  0  0  0
  3  4  1  0  0  0  0
  4  5  2  0  0  0  0
  4 10  1  0  0  0  0
  5  6  1  0  0  0  0
  5  8  1  0  0  0  0
  6  7  2  0  0  0  0
  8  9  1  0  0  0  0
  9 10  2  0  0  0  0
M  END
>  <CHROM.1>
11.19746449,9.51838899,27.59744854,0.16082937,-1.40061214,0.45217920

>  <Name>
ligand

>  <RI>
0

>  <Rbt.Current_Directory>
/home/itssahil/PROJECTS/Mol_Feturizer/New_Systems/rnas/2EET

>  <Rbt.Executable>
rbdock ($Id: //depot/dev/client3/rdock/2013.1/src/exe/rbdock.cxx#4 $)

>  <Rbt.Library>
libRbt.so (2013.1, Build901 2013/11/27)

>  <Rbt.Parameter_File>
/export/apps/rDock/src/rDock_2013.1_src/data/scripts/dock_solv.prm

>  <Rbt.Receptor>
prm/pocket_docking_6.prm

>  <SCORE>
-18.081

>  <SCORE.INTER>
-18.081

>  <SCORE.INTER.CONST>
1

>  <SCORE.INTER.POLAR>
0

>  <SCORE.INTER.ROT>
0

>  <SCORE.INTER.SOLV>
4.21782

>  <SCORE.INTER.VDW>
-17.0599

>  <SCORE.INTER.norm>
-1.8081

>  <SCORE.INTRA>
0

>  <SCORE.INTRA.DIHEDRAL>
0

>  <SCORE.INTRA.DIHEDRAL.0>
0

>  <SCORE.INTRA.POLAR>
0

>  <SCORE.INTRA.POLAR.0>
0

>  <SCORE.INTRA.REPUL>
0

>  <SCORE.INTRA.REPUL.0>
0

>  <SCORE.INTRA.SOLV>
0

>  <SCORE.INTRA.SOLV.lig_0>
-4.28464

>  <SCORE.INTRA.VDW>
0

>  <SCORE.INTRA.VDW.0>
0

>  <SCORE.INTRA.norm>
0

>  <SCORE.RESTR>
0

>  <SCORE.RESTR.CAVITY>
0

>  <SCORE.RESTR.norm>
0

>  <SCORE.SYSTEM>
0

>  <SCORE.SYSTEM.CONST>
0

>  <SCORE.SYSTEM.DIHEDRAL>
0

>  <SCORE.SYSTEM.SOLV>
0

>  <SCORE.SYSTEM.norm>
0

>  <SCORE.heavy>
10

>  <SCORE.norm>
-1.8081

>  <RMSD>
0.718

$$$$
ligand
 OpenBabel11021811423D
libRbt.so/2013.1/901 2013/11/27
 10 11  0  0  0  0  0  0  0  0999 V2000
   11.5051    9.5051   29.5062 N   0  0  0  0  0  0  0  0  0  0  0  0
   11.3676   10.8651   29.2889 C   0  0  0  0  0  0  0  0  0  0  0  0
   11.1354   11.3664   28.0697 N   0  0  0  0  0  0  0  0  0  0  0  0
   11.0535   10.4011   27.0975 C   0  0  0  0  0  0  0  0  0  0  0  0
   11.1812    9.0400   27.2535 C   0  0  0  0  0  0  0  0  0  0  0  0
   11.4280    8.4967   28.5448 C   0  0  0  0  0  0  0  0  0  0  0  0
   11.5736    7.3204   28.9006 O   0  0  0  0  0  0  0  0  0  0  0  0
   11.0300    8.4452   26.0281 N   0  0  0  0  0  0  0  0  0  0  0  0
   10.8115    9.4354   25.1419 C   0  0  0  0  0  0  0  0  0  0  0  0
   10.8216   10.6558   25.7691 N   0  0  0  0  0  0  0  0  0  0  0  0
  1  2  1  0  0  0  0
  1  6  1  0  0  0  0
  2  3  2  0  0  0  0
  3  4  1  0  0  0  0
  4  5  2  0  0  0  0
  4 10  1  0  0  0  0
  5  6  1  0  0  0  0
  5  8  1  0  0  0  0
  6  7  2  0  0  0  0
  8  9  1  0  0  0  0
  9 10  2  0  0  0  0
M  END
>  <CHROM.1>
11.19821965,9.51230059,27.58741338,0.14960266,-1.39581489,0.44132436

>  <Name>
ligand

>  <RI>
0

>  <Rbt.Current_Directory>
/home/itssahil/PROJECTS/Mol_Feturizer/New_Systems/rnas/2EET

>  <Rbt.Executable>
rbdock ($Id: //depot/dev/client3/rdock/2013.1/src/exe/rbdock.cxx#4 $)

>  <Rbt.Library>
libRbt.so (2013.1, Build901 2013/11/27)

>  <Rbt.Parameter_File>
/export/apps/rDock/src/rDock_2013.1_src/data/scripts/dock_solv.prm

>  <Rbt.Receptor>
prm/pocket_docking_6.prm

>  <SCORE>
-18.0814

>  <SCORE.INTER>
-18.0814

>  <SCORE.INTER.CONST>
1

>  <SCORE.INTER.POLAR>
0

>  <SCORE.INTER.ROT>
0

>  <SCORE.INTER.SOLV>
4.19838

>  <SCORE.INTER.VDW>
-17.0537

>  <SCORE.INTER.norm>
-1.80814

>  <SCORE.INTRA>
0

>  <SCORE.INTRA.DIHEDRAL>
0

>  <SCORE.INTRA.DIHEDRAL.0>
0

>  <SCORE.INTRA.POLAR>
0

>  <SCORE.INTRA.POLAR.0>
0

>  <SCORE.INTRA.REPUL>
0

>  <SCORE.INTRA.REPUL.0>
0

>  <SCORE.INTRA.SOLV>
0

>  <SCORE.INTRA.SOLV.lig_0>
-4.28464

>  <SCORE.INTRA.VDW>
0

>  <SCORE.INTRA.VDW.0>
0

>  <SCORE.INTRA.norm>
0

>  <SCORE.RESTR>
0

>  <SCORE.RESTR.CAVITY>
0

>  <SCORE.RESTR.norm>
0

>  <SCORE.SYSTEM>
0

>  <SCORE.SYSTEM.CONST>
0

>  <SCORE.SYSTEM.DIHEDRAL>
0

>  <SCORE.SYSTEM.SOLV>
0

>  <SCORE.SYSTEM.norm>
0

>  <SCORE.heavy>
10

>  <SCORE.norm>
-1.80814

>  <RMSD>
0.718

$$$$
ligand
 OpenBabel11021811423D
libRbt.so/2013.1/901 2013/11/27
 10 11  0  0  0  0  0  0  0  0999 V2000
   11.5143    9.5036   29.4989 N   0  0  0  0  0  0  0  0  0  0  0  0
   11.3716   10.8630   29.2814 C   0  0  0  0  0  0  0  0  0  0  0  0
   11.1374   11.3633   28.0622 N   0  0  0  0  0  0  0  0  0  0  0  0
   11.0591   10.3976   27.0901 C   0  0  0  0  0  0  0  0  0  0  0  0
   11.1921    9.0370   27.2463 C   0  0  0  0  0  0  0  0  0  0  0  0
   11.4410    8.4948   28.5376 C   0  0  0  0  0  0  0  0  0  0  0  0
   11.5912    7.3191   28.8936 O   0  0  0  0  0  0  0  0  0  0  0  0
   11.0431    8.4415   26.0209 N   0  0  0  0  0  0  0  0  0  0  0  0
   10.8208    9.4308   25.1346 C   0  0  0  0  0  0  0  0  0  0  0  0
   10.8262   10.6512   25.7617 N   0  0  0  0  0  0  0  0  0  0  0  0
  1  2  1  0  0  0  0
  1  6  1  0  0  0  0
  2  3  2  0  0  0  0
  3  4  1  0  0  0  0
  4  5  2  0  0  0  0
  4 10  1  0  0  0  0
  5  6  1  0  0  0  0
  5  8  1  0  0  0  0
  6  7  2  0  0  0  0
  8  9  1  0  0  0  0
  9 10  2  0  0  0  0
M  END
>  <CHROM.1>
11.20732626,9.50939679,27.58012353,0.16917188,-1.39409030,0.46047826

>  <Name>
ligand

>  <RI>
0

>  <Rbt.Current_Directory>
/home/itssahil/PROJECTS/Mol_Feturizer/New_Systems/rnas/2EET

>  <Rbt.Executable>
rbdock ($Id: //depot/dev/client3/rdock/2013.1/src/exe/rbdock.cxx#4 $)

>  <Rbt.Library>
libRbt.so (2013.1, Build901 2013/11/27)

>  <Rbt.Parameter_File>
/export/apps/rDock/src/rDock_2013.1_src/data/scripts/dock_solv.prm

>  <Rbt.Receptor>
prm/pocket_docking_7.prm

>  <SCORE>
-18.0702

>  <SCORE.INTER>
-18.0702

>  <SCORE.INTER.CONST>
1

>  <SCORE.INTER.POLAR>
0

>  <SCORE.INTER.ROT>
0

>  <SCORE.INTER.SOLV>
4.1734

>  <SCORE.INTER.VDW>
-17.0379

>  <SCORE.INTER.norm>
-1.80702

>  <SCORE.INTRA>
0

>  <SCORE.INTRA.DIHEDRAL>
0

>  <SCORE.INTRA.DIHEDRAL.0>
0

>  <SCORE.INTRA.POLAR>
0

>  <SCORE.INTRA.POLAR.0>
0

>  <SCORE.INTRA.REPUL>
0

>  <SCORE.INTRA.REPUL.0>
0

>  <SCORE.INTRA.SOLV>
0

>  <SCORE.INTRA.SOLV.lig_0>
-4.28464

>  <SCORE.INTRA.VDW>
0

>  <SCORE.INTRA.VDW.0>
0

>  <SCORE.INTRA.norm>
0

>  <SCORE.RESTR>
0

>  <SCORE.RESTR.CAVITY>
0

>  <SCORE.RESTR.norm>
0

>  <SCORE.SYSTEM>
0

>  <SCORE.SYSTEM.CONST>
0

>  <SCORE.SYSTEM.DIHEDRAL>
0

>  <SCORE.SYSTEM.SOLV>
0

>  <SCORE.SYSTEM.norm>
0

>  <SCORE.heavy>
10

>  <SCORE.norm>
-1.80702

>  <RMSD>
0.718

$$$$
ligand
 OpenBabel11021811423D
libRbt.so/2013.1/901 2013/11/27
 10 11  0  0  0  0  0  0  0  0999 V2000
   11.5086    9.5035   29.4761 N   0  0  0  0  0  0  0  0  0  0  0  0
   11.3607   10.8655   29.2795 C   0  0  0  0  0  0  0  0  0  0  0  0
   11.1246   11.3835   28.0681 N   0  0  0  0  0  0  0  0  0  0  0  0
   11.0500   10.4325   27.0814 C   0  0  0  0  0  0  0  0  0  0  0  0
   11.1881    9.0703   27.2166 C   0  0  0  0  0  0  0  0  0  0  0  0
   11.4391    8.5093   28.4995 C   0  0  0  0  0  0  0  0  0  0  0  0
   11.5938    7.3289   28.8374 O   0  0  0  0  0  0  0  0  0  0  0  0
   11.0414    8.4930   25.9823 N   0  0  0  0  0  0  0  0  0  0  0  0
   10.8153    9.4949   25.1113 C   0  0  0  0  0  0  0  0  0  0  0  0
   10.8161   10.7056   25.7570 N   0  0  0  0  0  0  0  0  0  0  0  0
  1  2  1  0  0  0  0
  1  6  1  0  0  0  0
  2  3  2  0  0  0  0
  3  4  1  0  0  0  0
  4  5  2  0  0  0  0
  4 10  1  0  0  0  0
  5  6  1  0  0  0  0
  5  8  1  0  0  0  0
  6  7  2  0  0  0  0
  8  9  1  0  0  0  0
  9 10  2  0  0  0  0
M  END
>  <CHROM.1>
11.20155505,9.53751455,27.55768505,0.18836034,-1.39235863,0.49468557

>  <Name>
ligand

>  <RI>
0

>  <Rbt.Current_Directory>
/home/itssahil/PROJECTS/Mol_Feturizer/New_Systems/rnas/2EET

>  <Rbt.Executable>
rbdock ($Id: //depot/dev/client3/rdock/2013.1/src/exe/rbdock.cxx#4 $)

>  <Rbt.Library>
libRbt.so (2013.1, Build901 2013/11/27)

>  <Rbt.Parameter_File>
/export/apps/rDock/src/rDock_2013.1_src/data/scripts/dock_solv.prm

>  <Rbt.Receptor>
prm/blind_docking_60.prm

>  <SCORE>
-18.0495

>  <SCORE.INTER>
-18.0495

>  <SCORE.INTER.CONST>
1

>  <SCORE.INTER.POLAR>
0

>  <SCORE.INTER.ROT>
0

>  <SCORE.INTER.SOLV>
4.13601

>  <SCORE.INTER.VDW>
-17.0117

>  <SCORE.INTER.norm>
-1.80495

>  <SCORE.INTRA>
0

>  <SCORE.INTRA.DIHEDRAL>
0

>  <SCORE.INTRA.DIHEDRAL.0>
0

>  <SCORE.INTRA.POLAR>
0

>  <SCORE.INTRA.POLAR.0>
0

>  <SCORE.INTRA.REPUL>
0

>  <SCORE.INTRA.REPUL.0>
0

>  <SCORE.INTRA.SOLV>
0

>  <SCORE.INTRA.SOLV.lig_0>
-4.28464

>  <SCORE.INTRA.VDW>
0

>  <SCORE.INTRA.VDW.0>
0

>  <SCORE.INTRA.norm>
0

>  <SCORE.RESTR>
0

>  <SCORE.RESTR.CAVITY>
0

>  <SCORE.RESTR.norm>
0

>  <SCORE.SYSTEM>
0

>  <SCORE.SYSTEM.CONST>
0

>  <SCORE.SYSTEM.DIHEDRAL>
0

>  <SCORE.SYSTEM.SOLV>
0

>  <SCORE.SYSTEM.norm>
0

>  <SCORE.heavy>
10

>  <SCORE.norm>
-1.80495

>  <RMSD>
0.719

$$$$
ligand
 OpenBabel11021811423D
libRbt.so/2013.1/901 2013/11/27
 10 11  0  0  0  0  0  0  0  0999 V2000
   11.5076    9.5043   29.5050 N   0  0  0  0  0  0  0  0  0  0  0  0
   11.3711   10.8641   29.2859 C   0  0  0  0  0  0  0  0  0  0  0  0
   11.1368   11.3638   28.0665 N   0  0  0  0  0  0  0  0  0  0  0  0
   11.0519   10.3972   27.0959 C   0  0  0  0  0  0  0  0  0  0  0  0
   11.1786    9.0362   27.2537 C   0  0  0  0  0  0  0  0  0  0  0  0
   11.4275    8.4946   28.5452 C   0  0  0  0  0  0  0  0  0  0  0  0
   11.5728    7.3187   28.9025 O   0  0  0  0  0  0  0  0  0  0  0  0
   11.0242    8.4398   26.0294 N   0  0  0  0  0  0  0  0  0  0  0  0
   10.8049    9.4289   25.1422 C   0  0  0  0  0  0  0  0  0  0  0  0
   10.8175   10.6501   25.7677 N   0  0  0  0  0  0  0  0  0  0  0  0
  1  2  1  0  0  0  0
  1  6  1  0  0  0  0
  2  3  2  0  0  0  0
  3  4  1  0  0  0  0
  4  5  2  0  0  0  0
  4 10  1  0  0  0  0
  5  6  1  0  0  0  0
  5  8  1  0  0  0  0
  6  7  2  0  0  0  0
  8  9  1  0  0  0  0
  9 10  2  0  0  0  0
M  END
>  <CHROM.1>
11.19677992,9.50898064,27.58683026,0.13938495,-1.39433685,0.42978831

>  <Name>
ligand

>  <RI>
0

>  <Rbt.Current_Directory>
/home/itssahil/PROJECTS/Mol_Feturizer/New_Systems/rnas/2EET

>  <Rbt.Executable>
rbdock ($Id: //depot/dev/client3/rdock/2013.1/src/exe/rbdock.cxx#4 $)

>  <Rbt.Library>
libRbt.so (2013.1, Build901 2013/11/27)

>  <Rbt.Parameter_File>
/export/apps/rDock/src/rDock_2013.1_src/data/scripts/dock_solv.prm

>  <Rbt.Receptor>
prm/blind_docking_80.prm

>  <SCORE>
-18.0821

>  <SCORE.INTER>
-18.0821

>  <SCORE.INTER.CONST>
1

>  <SCORE.INTER.POLAR>
0

>  <SCORE.INTER.ROT>
0

>  <SCORE.INTER.SOLV>
4.19929

>  <SCORE.INTER.VDW>
-17.0545

>  <SCORE.INTER.norm>
-1.80821

>  <SCORE.INTRA>
0

>  <SCORE.INTRA.DIHEDRAL>
0

>  <SCORE.INTRA.DIHEDRAL.0>
0

>  <SCORE.INTRA.POLAR>
0

>  <SCORE.INTRA.POLAR.0>
0

>  <SCORE.INTRA.REPUL>
0

>  <SCORE.INTRA.REPUL.0>
0

>  <SCORE.INTRA.SOLV>
0

>  <SCORE.INTRA.SOLV.lig_0>
-4.28464

>  <SCORE.INTRA.VDW>
0

>  <SCORE.INTRA.VDW.0>
0

>  <SCORE.INTRA.norm>
0

>  <SCORE.RESTR>
0

>  <SCORE.RESTR.CAVITY>
0

>  <SCORE.RESTR.norm>
0

>  <SCORE.SYSTEM>
0

>  <SCORE.SYSTEM.CONST>
0

>  <SCORE.SYSTEM.DIHEDRAL>
0

>  <SCORE.SYSTEM.SOLV>
0

>  <SCORE.SYSTEM.norm>
0

>  <SCORE.heavy>
10

>  <SCORE.norm>
-1.80821

>  <RMSD>
0.719

$$$$
ligand
 OpenBabel11021811423D
libRbt.so/2013.1/901 2013/11/27
 10 11  0  0  0  0  0  0  0  0999 V2000
   11.4933    9.4944   29.5052 N   0  0  0  0  0  0  0  0  0  0  0  0
   11.3632   10.8556   29.2911 C   0  0  0  0  0  0  0  0  0  0  0  0
   11.1377   11.3613   28.0724 N   0  0  0  0  0  0  0  0  0  0  0  0
   11.0546   10.3991   27.0974 C   0  0  0  0  0  0  0  0  0  0  0  0
   11.1752    9.0370   27.2501 C   0  0  0  0  0  0  0  0  0  0  0  0
   11.4147    8.4890   28.5408 C   0  0  0  0  0  0  0  0  0  0  0  0
   11.5535    7.3110   28.8939 O   0  0  0  0  0  0  0  0  0  0  0  0
   11.0254    8.4462   26.0225 N   0  0  0  0  0  0  0  0  0  0  0  0
   10.8149    9.4399   25.1383 C   0  0  0  0  0  0  0  0  0  0  0  0
   10.8287   10.6584   25.7689 N   0  0  0  0  0  0  0  0  0  0  0  0
  1  2  1  0  0  0  0
  1  6  1  0  0  0  0
  2  3  2  0  0  0  0
  3  4  1  0  0  0  0
  4  5  2  0  0  0  0
  4 10  1  0  0  0  0
  5  6  1  0  0  0  0
  5  8  1  0  0  0  0
  6  7  2  0  0  0  0
  8  9  1  0  0  0  0
  9 10  2  0  0  0  0
M  END
>  <CHROM.1>
11.19331063,9.50824331,27.58534762,0.13265504,-1.40105335,0.42733715

>  <Name>
ligand

>  <RI>
0

>  <Rbt.Current_Directory>
/home/itssahil/PROJECTS/Mol_Feturizer/New_Systems/rnas/2EET

>  <Rbt.Executable>
rbdock ($Id: //depot/dev/client3/rdock/2013.1/src/exe/rbdock.cxx#4 $)

>  <Rbt.Library>
libRbt.so (2013.1, Build901 2013/11/27)

>  <Rbt.Parameter_File>
/export/apps/rDock/src/rDock_2013.1_src/data/scripts/dock_solv.prm

>  <Rbt.Receptor>
prm/pocket_docking_3.prm

>  <SCORE>
-18.0565

>  <SCORE.INTER>
-18.0565

>  <SCORE.INTER.CONST>
1

>  <SCORE.INTER.POLAR>
0

>  <SCORE.INTER.ROT>
0

>  <SCORE.INTER.SOLV>
4.22298

>  <SCORE.INTER.VDW>
-17.0453

>  <SCORE.INTER.norm>
-1.80565

>  <SCORE.INTRA>
0

>  <SCORE.INTRA.DIHEDRAL>
0

>  <SCORE.INTRA.DIHEDRAL.0>
0

>  <SCORE.INTRA.POLAR>
0

>  <SCORE.INTRA.POLAR.0>
0

>  <SCORE.INTRA.REPUL>
0

>  <SCORE.INTRA.REPUL.0>
0

>  <SCORE.INTRA.SOLV>
0

>  <SCORE.INTRA.SOLV.lig_0>
-4.28464

>  <SCORE.INTRA.VDW>
0

>  <SCORE.INTRA.VDW.0>
0

>  <SCORE.INTRA.norm>
0

>  <SCORE.RESTR>
0

>  <SCORE.RESTR.CAVITY>
0

>  <SCORE.RESTR.norm>
0

>  <SCORE.SYSTEM>
0

>  <SCORE.SYSTEM.CONST>
0

>  <SCORE.SYSTEM.DIHEDRAL>
0

>  <SCORE.SYSTEM.SOLV>
0

>  <SCORE.SYSTEM.norm>
0

>  <SCORE.heavy>
10

>  <SCORE.norm>
-1.80565

>  <RMSD>
0.719

$$$$
ligand
 OpenBabel11021811423D
libRbt.so/2013.1/901 2013/11/27
 10 11  0  0  0  0  0  0  0  0999 V2000
   11.4974    9.5121   29.5163 N   0  0  0  0  0  0  0  0  0  0  0  0
   11.3618   10.8720   29.2970 C   0  0  0  0  0  0  0  0  0  0  0  0
   11.1342   11.3721   28.0765 N   0  0  0  0  0  0  0  0  0  0  0  0
   11.0548   10.4059   27.1051 C   0  0  0  0  0  0  0  0  0  0  0  0
   11.1808    9.0449   27.2630 C   0  0  0  0  0  0  0  0  0  0  0  0
   11.4227    8.5027   28.5557 C   0  0  0  0  0  0  0  0  0  0  0  0
   11.5662    7.3267   28.9133 O   0  0  0  0  0  0  0  0  0  0  0  0
   11.0333    8.4489   26.0377 N   0  0  0  0  0  0  0  0  0  0  0  0
   10.8187    9.4383   25.1497 C   0  0  0  0  0  0  0  0  0  0  0  0
   10.8277   10.6593   25.7757 N   0  0  0  0  0  0  0  0  0  0  0  0
  1  2  1  0  0  0  0
  1  6  1  0  0  0  0
  2  3  2  0  0  0  0
  3  4  1  0  0  0  0
  4  5  2  0  0  0  0
  4 10  1  0  0  0  0
  5  6  1  0  0  0  0
  5  8  1  0  0  0  0
  6  7  2  0  0  0  0
  8  9  1  0  0  0  0
  9 10  2  0  0  0  0
M  END
>  <CHROM.1>
11.19710538,9.51748009,27.59646383,0.15373790,-1.39925996,0.44431823

>  <Name>
ligand

>  <RI>
0

>  <Rbt.Current_Directory>
/home/itssahil/PROJECTS/Mol_Feturizer/New_Systems/rnas/2EET

>  <Rbt.Executable>
rbdock ($Id: //depot/dev/client3/rdock/2013.1/src/exe/rbdock.cxx#4 $)

>  <Rbt.Library>
libRbt.so (2013.1, Build901 2013/11/27)

>  <Rbt.Parameter_File>
/export/apps/rDock/src/rDock_2013.1_src/data/scripts/dock_solv.prm

>  <Rbt.Receptor>
prm/pocket_docking_4.prm

>  <SCORE>
-18.0827

>  <SCORE.INTER>
-18.0827

>  <SCORE.INTER.CONST>
1

>  <SCORE.INTER.POLAR>
0

>  <SCORE.INTER.ROT>
0

>  <SCORE.INTER.SOLV>
4.21597

>  <SCORE.INTER.VDW>
-17.0605

>  <SCORE.INTER.norm>
-1.80827

>  <SCORE.INTRA>
0

>  <SCORE.INTRA.DIHEDRAL>
0

>  <SCORE.INTRA.DIHEDRAL.0>
0

>  <SCORE.INTRA.POLAR>
0

>  <SCORE.INTRA.POLAR.0>
0

>  <SCORE.INTRA.REPUL>
0

>  <SCORE.INTRA.REPUL.0>
0

>  <SCORE.INTRA.SOLV>
0

>  <SCORE.INTRA.SOLV.lig_0>
-4.28464

>  <SCORE.INTRA.VDW>
0

>  <SCORE.INTRA.VDW.0>
0

>  <SCORE.INTRA.norm>
0

>  <SCORE.RESTR>
0

>  <SCORE.RESTR.CAVITY>
0

>  <SCORE.RESTR.norm>
0

>  <SCORE.SYSTEM>
0

>  <SCORE.SYSTEM.CONST>
0

>  <SCORE.SYSTEM.DIHEDRAL>
0

>  <SCORE.SYSTEM.SOLV>
0

>  <SCORE.SYSTEM.norm>
0

>  <SCORE.heavy>
10

>  <SCORE.norm>
-1.80827

>  <RMSD>
0.719

$$$$
ligand
 OpenBabel11021811423D
libRbt.so/2013.1/901 2013/11/27
 10 11  0  0  0  0  0  0  0  0999 V2000
   11.5024    9.5018   29.4836 N   0  0  0  0  0  0  0  0  0  0  0  0
   11.3646   10.8646   29.2850 C   0  0  0  0  0  0  0  0  0  0  0  0
   11.1302   11.3823   28.0731 N   0  0  0  0  0  0  0  0  0  0  0  0
   11.0467   10.4303   27.0881 C   0  0  0  0  0  0  0  0  0  0  0  0
   11.1748    9.0673   27.2254 C   0  0  0  0  0  0  0  0  0  0  0  0
   11.4238    8.5065   28.5088 C   0  0  0  0  0  0  0  0  0  0  0  0
   11.5701    7.3255   28.8484 O   0  0  0  0  0  0  0  0  0  0  0  0
   11.0215    8.4891   25.9923 N   0  0  0  0  0  0  0  0  0  0  0  0
   10.8015    9.4912   25.1200 C   0  0  0  0  0  0  0  0  0  0  0  0
   10.8126   10.7029   25.7637 N   0  0  0  0  0  0  0  0  0  0  0  0
  1  2  1  0  0  0  0
  1  6  1  0  0  0  0
  2  3  2  0  0  0  0
  3  4  1  0  0  0  0
  4  5  2  0  0  0  0
  4 10  1  0  0  0  0
  5  6  1  0  0  0  0
  5  8  1  0  0  0  0
  6  7  2  0  0  0  0
  8  9  1  0  0  0  0
  9 10  2  0  0  0  0
M  END
>  <CHROM.1>
11.19234470,9.53496416,27.56566507,0.14574430,-1.39426225,0.45107862

>  <Name>
ligand

>  <RI>
0

>  <Rbt.Current_Directory>
/home/itssahil/PROJECTS/Mol_Feturizer/New_Systems/rnas/2EET

>  <Rbt.Executable>
rbdock ($Id: //depot/dev/client3/rdock/2013.1/src/exe/rbdock.cxx#4 $)

>  <Rbt.Library>
libRbt.so (2013.1, Build901 2013/11/27)

>  <Rbt.Parameter_File>
/export/apps/rDock/src/rDock_2013.1_src/data/scripts/dock_solv.prm

>  <Rbt.Receptor>
prm/pocket_docking_6.prm

>  <SCORE>
-18.0698

>  <SCORE.INTER>
-18.0698

>  <SCORE.INTER.CONST>
1

>  <SCORE.INTER.POLAR>
0

>  <SCORE.INTER.ROT>
0

>  <SCORE.INTER.SOLV>
4.17271

>  <SCORE.INTER.VDW>
-17.0374

>  <SCORE.INTER.norm>
-1.80698

>  <SCORE.INTRA>
0

>  <SCORE.INTRA.DIHEDRAL>
0

>  <SCORE.INTRA.DIHEDRAL.0>
0

>  <SCORE.INTRA.POLAR>
0

>  <SCORE.INTRA.POLAR.0>
0

>  <SCORE.INTRA.REPUL>
0

>  <SCORE.INTRA.REPUL.0>
0

>  <SCORE.INTRA.SOLV>
0

>  <SCORE.INTRA.SOLV.lig_0>
-4.28464

>  <SCORE.INTRA.VDW>
0

>  <SCORE.INTRA.VDW.0>
0

>  <SCORE.INTRA.norm>
0

>  <SCORE.RESTR>
0

>  <SCORE.RESTR.CAVITY>
0

>  <SCORE.RESTR.norm>
0

>  <SCORE.SYSTEM>
0

>  <SCORE.SYSTEM.CONST>
0

>  <SCORE.SYSTEM.DIHEDRAL>
0

>  <SCORE.SYSTEM.SOLV>
0

>  <SCORE.SYSTEM.norm>
0

>  <SCORE.heavy>
10

>  <SCORE.norm>
-1.80698

>  <RMSD>
0.719

$$$$
ligand
 OpenBabel11021811423D
libRbt.so/2013.1/901 2013/11/27
 10 11  0  0  0  0  0  0  0  0999 V2000
   11.4815    9.4959   29.5111 N   0  0  0  0  0  0  0  0  0  0  0  0
   11.3541   10.8577   29.2989 C   0  0  0  0  0  0  0  0  0  0  0  0
   11.1369   11.3660   28.0798 N   0  0  0  0  0  0  0  0  0  0  0  0
   11.0591   10.4058   27.1023 C   0  0  0  0  0  0  0  0  0  0  0  0
   11.1775    9.0433   27.2531 C   0  0  0  0  0  0  0  0  0  0  0  0
   11.4082    8.4925   28.5442 C   0  0  0  0  0  0  0  0  0  0  0  0
   11.5436    7.3137   28.8958 O   0  0  0  0  0  0  0  0  0  0  0  0
   11.0351    8.4552   26.0234 N   0  0  0  0  0  0  0  0  0  0  0  0
   10.8312    9.4508   25.1398 C   0  0  0  0  0  0  0  0  0  0  0  0
   10.8420   10.6681   25.7729 N   0  0  0  0  0  0  0  0  0  0  0  0
  1  2  1  0  0  0  0
  1  6  1  0  0  0  0
  2  3  2  0  0  0  0
  3  4  1  0  0  0  0
  4  5  2  0  0  0  0
  4 10  1  0  0  0  0
  5  6  1  0  0  0  0
  5  8  1  0  0  0  0
  6  7  2  0  0  0  0
  8  9  1  0  0  0  0
  9 10  2  0  0  0  0
M  END
>  <CHROM.1>
11.19387183,9.51390628,27.58940308,0.14388652,-1.40727724,0.44042718

>  <Name>
ligand

>  <RI>
0

>  <Rbt.Current_Directory>
/home/itssahil/PROJECTS/Mol_Feturizer/New_Systems/rnas/2EET

>  <Rbt.Executable>
rbdock ($Id: //depot/dev/client3/rdock/2013.1/src/exe/rbdock.cxx#4 $)

>  <Rbt.Library>
libRbt.so (2013.1, Build901 2013/11/27)

>  <Rbt.Parameter_File>
/export/apps/rDock/src/rDock_2013.1_src/data/scripts/dock_solv.prm

>  <Rbt.Receptor>
prm/pocket_docking_6.prm

>  <SCORE>
-18.0523

>  <SCORE.INTER>
-18.0525

>  <SCORE.INTER.CONST>
1

>  <SCORE.INTER.POLAR>
0

>  <SCORE.INTER.ROT>
0

>  <SCORE.INTER.SOLV>
4.24099

>  <SCORE.INTER.VDW>
-17.0487

>  <SCORE.INTER.norm>
-1.80525

>  <SCORE.INTRA>
0

>  <SCORE.INTRA.DIHEDRAL>
0

>  <SCORE.INTRA.DIHEDRAL.0>
0

>  <SCORE.INTRA.POLAR>
0

>  <SCORE.INTRA.POLAR.0>
0

>  <SCORE.INTRA.REPUL>
0

>  <SCORE.INTRA.REPUL.0>
0

>  <SCORE.INTRA.SOLV>
0

>  <SCORE.INTRA.SOLV.lig_0>
-4.28464

>  <SCORE.INTRA.VDW>
0

>  <SCORE.INTRA.VDW.0>
0

>  <SCORE.INTRA.norm>
0

>  <SCORE.RESTR>
0.000208728

>  <SCORE.RESTR.CAVITY>
0.000208728

>  <SCORE.RESTR.norm>
2.08728e-05

>  <SCORE.SYSTEM>
0

>  <SCORE.SYSTEM.CONST>
0

>  <SCORE.SYSTEM.DIHEDRAL>
0

>  <SCORE.SYSTEM.SOLV>
0

>  <SCORE.SYSTEM.norm>
0

>  <SCORE.heavy>
10

>  <SCORE.norm>
-1.80523

>  <RMSD>
0.719

$$$$
ligand
 OpenBabel11021811423D
libRbt.so/2013.1/901 2013/11/27
 10 11  0  0  0  0  0  0  0  0999 V2000
   11.4921    9.4943   29.5057 N   0  0  0  0  0  0  0  0  0  0  0  0
   11.3626   10.8556   29.2918 C   0  0  0  0  0  0  0  0  0  0  0  0
   11.1384   11.3616   28.0730 N   0  0  0  0  0  0  0  0  0  0  0  0
   11.0559   10.3996   27.0977 C   0  0  0  0  0  0  0  0  0  0  0  0
   11.1759    9.0374   27.2502 C   0  0  0  0  0  0  0  0  0  0  0  0
   11.4141    8.4891   28.5410 C   0  0  0  0  0  0  0  0  0  0  0  0
   11.5521    7.3111   28.8941 O   0  0  0  0  0  0  0  0  0  0  0  0
   11.0272    8.4470   26.0224 N   0  0  0  0  0  0  0  0  0  0  0  0
   10.8178    9.4409   25.1382 C   0  0  0  0  0  0  0  0  0  0  0  0
   10.8313   10.6593   25.7690 N   0  0  0  0  0  0  0  0  0  0  0  0
  1  2  1  0  0  0  0
  1  6  1  0  0  0  0
  2  3  2  0  0  0  0
  3  4  1  0  0  0  0
  4  5  2  0  0  0  0
  4 10  1  0  0  0  0
  5  6  1  0  0  0  0
  5  8  1  0  0  0  0
  6  7  2  0  0  0  0
  8  9  1  0  0  0  0
  9 10  2  0  0  0  0
M  END
>  <CHROM.1>
11.19386824,9.50863363,27.58560784,0.13341003,-1.40204836,0.42827909

>  <Name>
ligand

>  <RI>
0

>  <Rbt.Current_Directory>
/home/itssahil/PROJECTS/Mol_Feturizer/New_Systems/rnas/2EET

>  <Rbt.Executable>
rbdock ($Id: //depot/dev/client3/rdock/2013.1/src/exe/rbdock.cxx#4 $)

>  <Rbt.Library>
libRbt.so (2013.1, Build901 2013/11/27)

>  <Rbt.Parameter_File>
/export/apps/rDock/src/rDock_2013.1_src/data/scripts/dock_solv.prm

>  <Rbt.Receptor>
prm/pocket_docking_7.prm

>  <SCORE>
-18.0566

>  <SCORE.INTER>
-18.0567

>  <SCORE.INTER.CONST>
1

>  <SCORE.INTER.POLAR>
0

>  <SCORE.INTER.ROT>
0

>  <SCORE.INTER.SOLV>
4.2256

>  <SCORE.INTER.VDW>
-17.0463

>  <SCORE.INTER.norm>
-1.80567

>  <SCORE.INTRA>
0

>  <SCORE.INTRA.DIHEDRAL>
0

>  <SCORE.INTRA.DIHEDRAL.0>
0

>  <SCORE.INTRA.POLAR>
0

>  <SCORE.INTRA.POLAR.0>
0

>  <SCORE.INTRA.REPUL>
0

>  <SCORE.INTRA.REPUL.0>
0

>  <SCORE.INTRA.SOLV>
0

>  <SCORE.INTRA.SOLV.lig_0>
-4.28464

>  <SCORE.INTRA.VDW>
0

>  <SCORE.INTRA.VDW.0>
0

>  <SCORE.INTRA.norm>
0

>  <SCORE.RESTR>
8.86168e-05

>  <SCORE.RESTR.CAVITY>
8.86168e-05

>  <SCORE.RESTR.norm>
8.86168e-06

>  <SCORE.SYSTEM>
0

>  <SCORE.SYSTEM.CONST>
0

>  <SCORE.SYSTEM.DIHEDRAL>
0

>  <SCORE.SYSTEM.SOLV>
0

>  <SCORE.SYSTEM.norm>
0

>  <SCORE.heavy>
10

>  <SCORE.norm>
-1.80566

>  <RMSD>
0.719

$$$$
ligand
 OpenBabel11021811423D
libRbt.so/2013.1/901 2013/11/27
 10 11  0  0  0  0  0  0  0  0999 V2000
   11.4941    9.5145   29.5193 N   0  0  0  0  0  0  0  0  0  0  0  0
   11.3559   10.8741   29.2998 C   0  0  0  0  0  0  0  0  0  0  0  0
   11.1322   11.3740   28.0785 N   0  0  0  0  0  0  0  0  0  0  0  0
   11.0596   10.4078   27.1065 C   0  0  0  0  0  0  0  0  0  0  0  0
   11.1886    9.0471   27.2645 C   0  0  0  0  0  0  0  0  0  0  0  0
   11.4264    8.5052   28.5581 C   0  0  0  0  0  0  0  0  0  0  0  0
   11.5714    7.3295   28.9160 O   0  0  0  0  0  0  0  0  0  0  0  0
   11.0481    8.4511   26.0384 N   0  0  0  0  0  0  0  0  0  0  0  0
   10.8347    9.4402   25.1498 C   0  0  0  0  0  0  0  0  0  0  0  0
   10.8376   10.6610   25.7761 N   0  0  0  0  0  0  0  0  0  0  0  0
  1  2  1  0  0  0  0
  1  6  1  0  0  0  0
  2  3  2  0  0  0  0
  3  4  1  0  0  0  0
  4  5  2  0  0  0  0
  4 10  1  0  0  0  0
  5  6  1  0  0  0  0
  5  8  1  0  0  0  0
  6  7  2  0  0  0  0
  8  9  1  0  0  0  0
  9 10  2  0  0  0  0
M  END
>  <CHROM.1>
11.20219358,9.51966076,27.59816961,0.17930316,-1.40198610,0.46980455

>  <Name>
ligand

>  <RI>
0

>  <Rbt.Current_Directory>
/home/itssahil/PROJECTS/Mol_Feturizer/New_Systems/rnas/2EET

>  <Rbt.Executable>
rbdock ($Id: //depot/dev/client3/rdock/2013.1/src/exe/rbdock.cxx#4 $)

>  <Rbt.Library>
libRbt.so (2013.1, Build901 2013/11/27)

>  <Rbt.Parameter_File>
/export/apps/rDock/src/rDock_2013.1_src/data/scripts/dock_solv.prm

>  <Rbt.Receptor>
prm/pocket_docking_8.prm

>  <SCORE>
-18.0736

>  <SCORE.INTER>
-18.0736

>  <SCORE.INTER.CONST>
1

>  <SCORE.INTER.POLAR>
0

>  <SCORE.INTER.ROT>
0

>  <SCORE.INTER.SOLV>
4.21348

>  <SCORE.INTER.VDW>
-17.0536

>  <SCORE.INTER.norm>
-1.80736

>  <SCORE.INTRA>
0

>  <SCORE.INTRA.DIHEDRAL>
0

>  <SCORE.INTRA.DIHEDRAL.0>
0

>  <SCORE.INTRA.POLAR>
0

>  <SCORE.INTRA.POLAR.0>
0

>  <SCORE.INTRA.REPUL>
0

>  <SCORE.INTRA.REPUL.0>
0

>  <SCORE.INTRA.SOLV>
0

>  <SCORE.INTRA.SOLV.lig_0>
-4.28464

>  <SCORE.INTRA.VDW>
0

>  <SCORE.INTRA.VDW.0>
0

>  <SCORE.INTRA.norm>
0

>  <SCORE.RESTR>
0

>  <SCORE.RESTR.CAVITY>
0

>  <SCORE.RESTR.norm>
0

>  <SCORE.SYSTEM>
0

>  <SCORE.SYSTEM.CONST>
0

>  <SCORE.SYSTEM.DIHEDRAL>
0

>  <SCORE.SYSTEM.SOLV>
0

>  <SCORE.SYSTEM.norm>
0

>  <SCORE.heavy>
10

>  <SCORE.norm>
-1.80736

>  <RMSD>
0.719

$$$$
ligand
 OpenBabel11021811423D
libRbt.so/2013.1/901 2013/11/27
 10 11  0  0  0  0  0  0  0  0999 V2000
   11.4900    9.5031   29.4922 N   0  0  0  0  0  0  0  0  0  0  0  0
   11.3590   10.8669   29.2958 C   0  0  0  0  0  0  0  0  0  0  0  0
   11.1292   11.3880   28.0844 N   0  0  0  0  0  0  0  0  0  0  0  0
   11.0428   10.4382   27.0976 C   0  0  0  0  0  0  0  0  0  0  0  0
   11.1641    9.0743   27.2326 C   0  0  0  0  0  0  0  0  0  0  0  0
   11.4083    8.5100   28.5154 C   0  0  0  0  0  0  0  0  0  0  0  0
   11.5484    7.3277   28.8531 O   0  0  0  0  0  0  0  0  0  0  0  0
   11.0102    8.4991   25.9982 N   0  0  0  0  0  0  0  0  0  0  0  0
   10.7965    9.5038   25.1273 C   0  0  0  0  0  0  0  0  0  0  0  0
   10.8123   10.7143   25.7732 N   0  0  0  0  0  0  0  0  0  0  0  0
  1  2  1  0  0  0  0
  1  6  1  0  0  0  0
  2  3  2  0  0  0  0
  3  4  1  0  0  0  0
  4  5  2  0  0  0  0
  4 10  1  0  0  0  0
  5  6  1  0  0  0  0
  5  8  1  0  0  0  0
  6  7  2  0  0  0  0
  8  9  1  0  0  0  0
  9 10  2  0  0  0  0
M  END
>  <CHROM.1>
11.18336459,9.54127619,27.57373699,0.12510496,-1.39784189,0.43256863

>  <Name>
ligand

>  <RI>
0

>  <Rbt.Current_Directory>
/home/itssahil/PROJECTS/Mol_Feturizer/New_Systems/rnas/2EET

>  <Rbt.Executable>
rbdock ($Id: //depot/dev/client3/rdock/2013.1/src/exe/rbdock.cxx#4 $)

>  <Rbt.Library>
libRbt.so (2013.1, Build901 2013/11/27)

>  <Rbt.Parameter_File>
/export/apps/rDock/src/rDock_2013.1_src/data/scripts/dock_solv.prm

>  <Rbt.Receptor>
prm/blind_docking_60.prm

>  <SCORE>
-18.0925

>  <SCORE.INTER>
-18.0928

>  <SCORE.INTER.CONST>
1

>  <SCORE.INTER.POLAR>
0

>  <SCORE.INTER.ROT>
0

>  <SCORE.INTER.SOLV>
4.20339

>  <SCORE.INTER.VDW>
-17.063

>  <SCORE.INTER.norm>
-1.80928

>  <SCORE.INTRA>
0

>  <SCORE.INTRA.DIHEDRAL>
0

>  <SCORE.INTRA.DIHEDRAL.0>
0

>  <SCORE.INTRA.POLAR>
0

>  <SCORE.INTRA.POLAR.0>
0

>  <SCORE.INTRA.REPUL>
0

>  <SCORE.INTRA.REPUL.0>
0

>  <SCORE.INTRA.SOLV>
0

>  <SCORE.INTRA.SOLV.lig_0>
-4.28464

>  <SCORE.INTRA.VDW>
0

>  <SCORE.INTRA.VDW.0>
0

>  <SCORE.INTRA.norm>
0

>  <SCORE.RESTR>
0.000273335

>  <SCORE.RESTR.CAVITY>
0.000273335

>  <SCORE.RESTR.norm>
2.73335e-05

>  <SCORE.SYSTEM>
0

>  <SCORE.SYSTEM.CONST>
0

>  <SCORE.SYSTEM.DIHEDRAL>
0

>  <SCORE.SYSTEM.SOLV>
0

>  <SCORE.SYSTEM.norm>
0

>  <SCORE.heavy>
10

>  <SCORE.norm>
-1.80925

>  <RMSD>
0.720

$$$$
ligand
 OpenBabel11021811423D
libRbt.so/2013.1/901 2013/11/27
 10 11  0  0  0  0  0  0  0  0999 V2000
   11.4949    9.5132   29.5177 N   0  0  0  0  0  0  0  0  0  0  0  0
   11.3613   10.8730   29.2972 C   0  0  0  0  0  0  0  0  0  0  0  0
   11.1343   11.3725   28.0763 N   0  0  0  0  0  0  0  0  0  0  0  0
   11.0535   10.4055   27.1057 C   0  0  0  0  0  0  0  0  0  0  0  0
   11.1775    9.0444   27.2648 C   0  0  0  0  0  0  0  0  0  0  0  0
   11.4187    8.5031   28.5580 C   0  0  0  0  0  0  0  0  0  0  0  0
   11.5605    7.3272   28.9166 O   0  0  0  0  0  0  0  0  0  0  0  0
   11.0291    8.4476   26.0400 N   0  0  0  0  0  0  0  0  0  0  0  0
   10.8160    9.4365   25.1512 C   0  0  0  0  0  0  0  0  0  0  0  0
   10.8267   10.6581   25.7761 N   0  0  0  0  0  0  0  0  0  0  0  0
  1  2  1  0  0  0  0
  1  6  1  0  0  0  0
  2  3  2  0  0  0  0
  3  4  1  0  0  0  0
  4  5  2  0  0  0  0
  4 10  1  0  0  0  0
  5  6  1  0  0  0  0
  5  8  1  0  0  0  0
  6  7  2  0  0  0  0
  8  9  1  0  0  0  0
  9 10  2  0  0  0  0
M  END
>  <CHROM.1>
11.19453242,9.51730562,27.59784198,0.14586196,-1.39985808,0.43567859

>  <Name>
ligand

>  <RI>
0

>  <Rbt.Current_Directory>
/home/itssahil/PROJECTS/Mol_Feturizer/New_Systems/rnas/2EET

>  <Rbt.Executable>
rbdock ($Id: //depot/dev/client3/rdock/2013.1/src/exe/rbdock.cxx#4 $)

>  <Rbt.Library>
libRbt.so (2013.1, Build901 2013/11/27)

>  <Rbt.Parameter_File>
/export/apps/rDock/src/rDock_2013.1_src/data/scripts/dock_solv.prm

>  <Rbt.Receptor>
prm/blind_docking_60.prm

>  <SCORE>
-18.0837

>  <SCORE.INTER>
-18.0838

>  <SCORE.INTER.CONST>
1

>  <SCORE.INTER.POLAR>
0

>  <SCORE.INTER.ROT>
0

>  <SCORE.INTER.SOLV>
4.22528

>  <SCORE.INTER.VDW>
-17.0643

>  <SCORE.INTER.norm>
-1.80838

>  <SCORE.INTRA>
0

>  <SCORE.INTRA.DIHEDRAL>
0

>  <SCORE.INTRA.DIHEDRAL.0>
0

>  <SCORE.INTRA.POLAR>
0

>  <SCORE.INTRA.POLAR.0>
0

>  <SCORE.INTRA.REPUL>
0

>  <SCORE.INTRA.REPUL.0>
0

>  <SCORE.INTRA.SOLV>
0

>  <SCORE.INTRA.SOLV.lig_0>
-4.28464

>  <SCORE.INTRA.VDW>
0

>  <SCORE.INTRA.VDW.0>
0

>  <SCORE.INTRA.norm>
0

>  <SCORE.RESTR>
8.16484e-05

>  <SCORE.RESTR.CAVITY>
8.16484e-05

>  <SCORE.RESTR.norm>
8.16484e-06

>  <SCORE.SYSTEM>
0

>  <SCORE.SYSTEM.CONST>
0

>  <SCORE.SYSTEM.DIHEDRAL>
0

>  <SCORE.SYSTEM.SOLV>
0

>  <SCORE.SYSTEM.norm>
0

>  <SCORE.heavy>
10

>  <SCORE.norm>
-1.80837

>  <RMSD>
0.720

$$$$
ligand
 OpenBabel11021811423D
libRbt.so/2013.1/901 2013/11/27
 10 11  0  0  0  0  0  0  0  0999 V2000
   11.5026    9.5052   29.5049 N   0  0  0  0  0  0  0  0  0  0  0  0
   11.3647   10.8651   29.2874 C   0  0  0  0  0  0  0  0  0  0  0  0
   11.1331   11.3662   28.0680 N   0  0  0  0  0  0  0  0  0  0  0  0
   11.0522   10.4009   27.0959 C   0  0  0  0  0  0  0  0  0  0  0  0
   11.1804    9.0399   27.2520 C   0  0  0  0  0  0  0  0  0  0  0  0
   11.4265    8.4967   28.5435 C   0  0  0  0  0  0  0  0  0  0  0  0
   11.5725    7.3205   28.8995 O   0  0  0  0  0  0  0  0  0  0  0  0
   11.0303    8.4449   26.0265 N   0  0  0  0  0  0  0  0  0  0  0  0
   10.8120    9.4350   25.1401 C   0  0  0  0  0  0  0  0  0  0  0  0
   10.8212   10.6554   25.7673 N   0  0  0  0  0  0  0  0  0  0  0  0
  1  2  1  0  0  0  0
  1  6  1  0  0  0  0
  2  3  2  0  0  0  0
  3  4  1  0  0  0  0
  4  5  2  0  0  0  0
  4 10  1  0  0  0  0
  5  6  1  0  0  0  0
  5  8  1  0  0  0  0
  6  7  2  0  0  0  0
  8  9  1  0  0  0  0
  9 10  2  0  0  0  0
M  END
>  <CHROM.1>
11.19701727,9.51214823,27.58591635,0.15343046,-1.39625547,0.44503008

>  <Name>
ligand

>  <RI>
0

>  <Rbt.Current_Directory>
/home/itssahil/PROJECTS/Mol_Feturizer/New_Systems/rnas/2EET

>  <Rbt.Executable>
rbdock ($Id: //depot/dev/client3/rdock/2013.1/src/exe/rbdock.cxx#4 $)

>  <Rbt.Library>
libRbt.so (2013.1, Build901 2013/11/27)

>  <Rbt.Parameter_File>
/export/apps/rDock/src/rDock_2013.1_src/data/scripts/dock_solv.prm

>  <Rbt.Receptor>
prm/pocket_docking_3.prm

>  <SCORE>
-18.078

>  <SCORE.INTER>
-18.078

>  <SCORE.INTER.CONST>
1

>  <SCORE.INTER.POLAR>
0

>  <SCORE.INTER.ROT>
0

>  <SCORE.INTER.SOLV>
4.19889

>  <SCORE.INTER.VDW>
-17.0516

>  <SCORE.INTER.norm>
-1.8078

>  <SCORE.INTRA>
0

>  <SCORE.INTRA.DIHEDRAL>
0

>  <SCORE.INTRA.DIHEDRAL.0>
0

>  <SCORE.INTRA.POLAR>
0

>  <SCORE.INTRA.POLAR.0>
0

>  <SCORE.INTRA.REPUL>
0

>  <SCORE.INTRA.REPUL.0>
0

>  <SCORE.INTRA.SOLV>
0

>  <SCORE.INTRA.SOLV.lig_0>
-4.28464

>  <SCORE.INTRA.VDW>
0

>  <SCORE.INTRA.VDW.0>
0

>  <SCORE.INTRA.norm>
0

>  <SCORE.RESTR>
0

>  <SCORE.RESTR.CAVITY>
0

>  <SCORE.RESTR.norm>
0

>  <SCORE.SYSTEM>
0

>  <SCORE.SYSTEM.CONST>
0

>  <SCORE.SYSTEM.DIHEDRAL>
0

>  <SCORE.SYSTEM.SOLV>
0

>  <SCORE.SYSTEM.norm>
0

>  <SCORE.heavy>
10

>  <SCORE.norm>
-1.8078

>  <RMSD>
0.720

$$$$
ligand
 OpenBabel11021811423D
libRbt.so/2013.1/901 2013/11/27
 10 11  0  0  0  0  0  0  0  0999 V2000
   11.5104    9.5183   29.5151 N   0  0  0  0  0  0  0  0  0  0  0  0
   11.3742   10.8774   29.2915 C   0  0  0  0  0  0  0  0  0  0  0  0
   11.1393   11.3730   28.0705 N   0  0  0  0  0  0  0  0  0  0  0  0
   11.0532   10.4031   27.1034 C   0  0  0  0  0  0  0  0  0  0  0  0
   11.1795    9.0426   27.2657 C   0  0  0  0  0  0  0  0  0  0  0  0
   11.4291    8.5053   28.5589 C   0  0  0  0  0  0  0  0  0  0  0  0
   11.5741    7.3306   28.9201 O   0  0  0  0  0  0  0  0  0  0  0  0
   11.0240    8.4420   26.0436 N   0  0  0  0  0  0  0  0  0  0  0  0
   10.8045    9.4282   25.1532 C   0  0  0  0  0  0  0  0  0  0  0  0
   10.8181   10.6516   25.7744 N   0  0  0  0  0  0  0  0  0  0  0  0
  1  2  1  0  0  0  0
  1  6  1  0  0  0  0
  2  3  2  0  0  0  0
  3  4  1  0  0  0  0
  4  5  2  0  0  0  0
  4 10  1  0  0  0  0
  5  6  1  0  0  0  0
  5  8  1  0  0  0  0
  6  7  2  0  0  0  0
  8  9  1  0  0  0  0
  9 10  2  0  0  0  0
M  END
>  <CHROM.1>
11.19811757,9.51651089,27.59720788,0.13540892,-1.39386723,0.42243711

>  <Name>
ligand

>  <RI>
0

>  <Rbt.Current_Directory>
/home/itssahil/PROJECTS/Mol_Feturizer/New_Systems/rnas/2EET

>  <Rbt.Executable>
rbdock ($Id: //depot/dev/client3/rdock/2013.1/src/exe/rbdock.cxx#4 $)

>  <Rbt.Library>
libRbt.so (2013.1, Build901 2013/11/27)

>  <Rbt.Parameter_File>
/export/apps/rDock/src/rDock_2013.1_src/data/scripts/dock_solv.prm

>  <Rbt.Receptor>
prm/pocket_docking_4.prm

>  <SCORE>
-18.0797

>  <SCORE.INTER>
-18.0836

>  <SCORE.INTER.CONST>
1

>  <SCORE.INTER.POLAR>
0

>  <SCORE.INTER.ROT>
0

>  <SCORE.INTER.SOLV>
4.20909

>  <SCORE.INTER.VDW>
-17.0588

>  <SCORE.INTER.norm>
-1.80836

>  <SCORE.INTRA>
0

>  <SCORE.INTRA.DIHEDRAL>
0

>  <SCORE.INTRA.DIHEDRAL.0>
0

>  <SCORE.INTRA.POLAR>
0

>  <SCORE.INTRA.POLAR.0>
0

>  <SCORE.INTRA.REPUL>
0

>  <SCORE.INTRA.REPUL.0>
0

>  <SCORE.INTRA.SOLV>
0

>  <SCORE.INTRA.SOLV.lig_0>
-4.28464

>  <SCORE.INTRA.VDW>
0

>  <SCORE.INTRA.VDW.0>
0

>  <SCORE.INTRA.norm>
0

>  <SCORE.RESTR>
0.00393431

>  <SCORE.RESTR.CAVITY>
0.00393431

>  <SCORE.RESTR.norm>
0.000393431

>  <SCORE.SYSTEM>
0

>  <SCORE.SYSTEM.CONST>
0

>  <SCORE.SYSTEM.DIHEDRAL>
0

>  <SCORE.SYSTEM.SOLV>
0

>  <SCORE.SYSTEM.norm>
0

>  <SCORE.heavy>
10

>  <SCORE.norm>
-1.80797

>  <RMSD>
0.720

$$$$
ligand
 OpenBabel11021811423D
libRbt.so/2013.1/901 2013/11/27
 10 11  0  0  0  0  0  0  0  0999 V2000
   11.4858    9.5033   29.4962 N   0  0  0  0  0  0  0  0  0  0  0  0
   11.3570   10.8672   29.2987 C   0  0  0  0  0  0  0  0  0  0  0  0
   11.1286   11.3877   28.0869 N   0  0  0  0  0  0  0  0  0  0  0  0
   11.0410   10.4373   27.1007 C   0  0  0  0  0  0  0  0  0  0  0  0
   11.1600    9.0733   27.2368 C   0  0  0  0  0  0  0  0  0  0  0  0
   11.4027    8.5096   28.5201 C   0  0  0  0  0  0  0  0  0  0  0  0
   11.5408    7.3274   28.8588 O   0  0  0  0  0  0  0  0  0  0  0  0
   11.0057    8.4974   26.0028 N   0  0  0  0  0  0  0  0  0  0  0  0
   10.7939    9.5018   25.1311 C   0  0  0  0  0  0  0  0  0  0  0  0
   10.8114   10.7128   25.7761 N   0  0  0  0  0  0  0  0  0  0  0  0
  1  2  1  0  0  0  0
  1  6  1  0  0  0  0
  2  3  2  0  0  0  0
  3  4  1  0  0  0  0
  4  5  2  0  0  0  0
  4 10  1  0  0  0  0
  5  6  1  0  0  0  0
  5  8  1  0  0  0  0
  6  7  2  0  0  0  0
  8  9  1  0  0  0  0
  9 10  2  0  0  0  0
M  END
>  <CHROM.1>
11.17989254,9.54050235,27.57761420,0.11735907,-1.39887617,0.42416371

>  <Name>
ligand

>  <RI>
0

>  <Rbt.Current_Directory>
/home/itssahil/PROJECTS/Mol_Feturizer/New_Systems/rnas/2EET

>  <Rbt.Executable>
rbdock ($Id: //depot/dev/client3/rdock/2013.1/src/exe/rbdock.cxx#4 $)

>  <Rbt.Library>
libRbt.so (2013.1, Build901 2013/11/27)

>  <Rbt.Parameter_File>
/export/apps/rDock/src/rDock_2013.1_src/data/scripts/dock_solv.prm

>  <Rbt.Receptor>
prm/pocket_docking_4.prm

>  <SCORE>
-18.0925

>  <SCORE.INTER>
-18.0925

>  <SCORE.INTER.CONST>
1

>  <SCORE.INTER.POLAR>
0

>  <SCORE.INTER.ROT>
0

>  <SCORE.INTER.SOLV>
4.21607

>  <SCORE.INTER.VDW>
-17.067

>  <SCORE.INTER.norm>
-1.80925

>  <SCORE.INTRA>
0

>  <SCORE.INTRA.DIHEDRAL>
0

>  <SCORE.INTRA.DIHEDRAL.0>
0

>  <SCORE.INTRA.POLAR>
0

>  <SCORE.INTRA.POLAR.0>
0

>  <SCORE.INTRA.REPUL>
0

>  <SCORE.INTRA.REPUL.0>
0

>  <SCORE.INTRA.SOLV>
0

>  <SCORE.INTRA.SOLV.lig_0>
-4.28464

>  <SCORE.INTRA.VDW>
0

>  <SCORE.INTRA.VDW.0>
0

>  <SCORE.INTRA.norm>
0

>  <SCORE.RESTR>
0

>  <SCORE.RESTR.CAVITY>
0

>  <SCORE.RESTR.norm>
0

>  <SCORE.SYSTEM>
0

>  <SCORE.SYSTEM.CONST>
0

>  <SCORE.SYSTEM.DIHEDRAL>
0

>  <SCORE.SYSTEM.SOLV>
0

>  <SCORE.SYSTEM.norm>
0

>  <SCORE.heavy>
10

>  <SCORE.norm>
-1.80925

>  <RMSD>
0.720

$$$$
ligand
 OpenBabel11021811423D
libRbt.so/2013.1/901 2013/11/27
 10 11  0  0  0  0  0  0  0  0999 V2000
   11.4917    9.5071   29.4889 N   0  0  0  0  0  0  0  0  0  0  0  0
   11.3495   10.8698   29.2925 C   0  0  0  0  0  0  0  0  0  0  0  0
   11.1150   11.3889   28.0812 N   0  0  0  0  0  0  0  0  0  0  0  0
   11.0358   10.4383   27.0944 C   0  0  0  0  0  0  0  0  0  0  0  0
   11.1683    9.0755   27.2295 C   0  0  0  0  0  0  0  0  0  0  0  0
   11.4175    8.5133   28.5122 C   0  0  0  0  0  0  0  0  0  0  0  0
   11.5673    7.3322   28.8499 O   0  0  0  0  0  0  0  0  0  0  0  0
   11.0185    8.4990   25.9952 N   0  0  0  0  0  0  0  0  0  0  0  0
   10.7962    9.5019   25.1243 C   0  0  0  0  0  0  0  0  0  0  0  0
   10.8025   10.7125   25.7702 N   0  0  0  0  0  0  0  0  0  0  0  0
  1  2  1  0  0  0  0
  1  6  1  0  0  0  0
  2  3  2  0  0  0  0
  3  4  1  0  0  0  0
  4  5  2  0  0  0  0
  4 10  1  0  0  0  0
  5  6  1  0  0  0  0
  5  8  1  0  0  0  0
  6  7  2  0  0  0  0
  8  9  1  0  0  0  0
  9 10  2  0  0  0  0
M  END
>  <CHROM.1>
11.18384266,9.54262264,27.57058236,0.16583092,-1.39390038,0.47261807

>  <Name>
ligand

>  <RI>
0

>  <Rbt.Current_Directory>
/home/itssahil/PROJECTS/Mol_Feturizer/New_Systems/rnas/2EET

>  <Rbt.Executable>
rbdock ($Id: //depot/dev/client3/rdock/2013.1/src/exe/rbdock.cxx#4 $)

>  <Rbt.Library>
libRbt.so (2013.1, Build901 2013/11/27)

>  <Rbt.Parameter_File>
/export/apps/rDock/src/rDock_2013.1_src/data/scripts/dock_solv.prm

>  <Rbt.Receptor>
prm/pocket_docking_5.prm

>  <SCORE>
-18.0705

>  <SCORE.INTER>
-18.0705

>  <SCORE.INTER.CONST>
1

>  <SCORE.INTER.POLAR>
0

>  <SCORE.INTER.ROT>
0

>  <SCORE.INTER.SOLV>
4.17487

>  <SCORE.INTER.VDW>
-17.0386

>  <SCORE.INTER.norm>
-1.80705

>  <SCORE.INTRA>
0

>  <SCORE.INTRA.DIHEDRAL>
0

>  <SCORE.INTRA.DIHEDRAL.0>
0

>  <SCORE.INTRA.POLAR>
0

>  <SCORE.INTRA.POLAR.0>
0

>  <SCORE.INTRA.REPUL>
0

>  <SCORE.INTRA.REPUL.0>
0

>  <SCORE.INTRA.SOLV>
0

>  <SCORE.INTRA.SOLV.lig_0>
-4.28464

>  <SCORE.INTRA.VDW>
0

>  <SCORE.INTRA.VDW.0>
0

>  <SCORE.INTRA.norm>
0

>  <SCORE.RESTR>
0

>  <SCORE.RESTR.CAVITY>
0

>  <SCORE.RESTR.norm>
0

>  <SCORE.SYSTEM>
0

>  <SCORE.SYSTEM.CONST>
0

>  <SCORE.SYSTEM.DIHEDRAL>
0

>  <SCORE.SYSTEM.SOLV>
0

>  <SCORE.SYSTEM.norm>
0

>  <SCORE.heavy>
10

>  <SCORE.norm>
-1.80705

>  <RMSD>
0.720

$$$$
ligand
 OpenBabel11021811423D
libRbt.so/2013.1/901 2013/11/27
 10 11  0  0  0  0  0  0  0  0999 V2000
   11.4920    9.5036   29.4878 N   0  0  0  0  0  0  0  0  0  0  0  0
   11.3580   10.8673   29.2926 C   0  0  0  0  0  0  0  0  0  0  0  0
   11.1277   11.3891   28.0817 N   0  0  0  0  0  0  0  0  0  0  0  0
   11.0439   10.4400   27.0938 C   0  0  0  0  0  0  0  0  0  0  0  0
   11.1682    9.0762   27.2276 C   0  0  0  0  0  0  0  0  0  0  0  0
   11.4129    8.5113   28.5100 C   0  0  0  0  0  0  0  0  0  0  0  0
   11.5555    7.3290   28.8466 O   0  0  0  0  0  0  0  0  0  0  0  0
   11.0162    8.5019   25.9926 N   0  0  0  0  0  0  0  0  0  0  0  0
   10.8007    9.5070   25.1226 C   0  0  0  0  0  0  0  0  0  0  0  0
   10.8134   10.7169   25.7697 N   0  0  0  0  0  0  0  0  0  0  0  0
  1  2  1  0  0  0  0
  1  6  1  0  0  0  0
  2  3  2  0  0  0  0
  3  4  1  0  0  0  0
  4  5  2  0  0  0  0
  4 10  1  0  0  0  0
  5  6  1  0  0  0  0
  5  8  1  0  0  0  0
  6  7  2  0  0  0  0
  8  9  1  0  0  0  0
  9 10  2  0  0  0  0
M  END
>  <CHROM.1>
11.18619809,9.54293629,27.56920700,0.13796108,-1.39735419,0.44620551

>  <Name>
ligand

>  <RI>
0

>  <Rbt.Current_Directory>
/home/itssahil/PROJECTS/Mol_Feturizer/New_Systems/rnas/2EET

>  <Rbt.Executable>
rbdock ($Id: //depot/dev/client3/rdock/2013.1/src/exe/rbdock.cxx#4 $)

>  <Rbt.Library>
libRbt.so (2013.1, Build901 2013/11/27)

>  <Rbt.Parameter_File>
/export/apps/rDock/src/rDock_2013.1_src/data/scripts/dock_solv.prm

>  <Rbt.Receptor>
prm/pocket_docking_5.prm

>  <SCORE>
-18.0879

>  <SCORE.INTER>
-18.0879

>  <SCORE.INTER.CONST>
1

>  <SCORE.INTER.POLAR>
0

>  <SCORE.INTER.ROT>
0

>  <SCORE.INTER.SOLV>
4.19069

>  <SCORE.INTER.VDW>
-17.0555

>  <SCORE.INTER.norm>
-1.80879

>  <SCORE.INTRA>
0

>  <SCORE.INTRA.DIHEDRAL>
0

>  <SCORE.INTRA.DIHEDRAL.0>
0

>  <SCORE.INTRA.POLAR>
0

>  <SCORE.INTRA.POLAR.0>
0

>  <SCORE.INTRA.REPUL>
0

>  <SCORE.INTRA.REPUL.0>
0

>  <SCORE.INTRA.SOLV>
0

>  <SCORE.INTRA.SOLV.lig_0>
-4.28464

>  <SCORE.INTRA.VDW>
0

>  <SCORE.INTRA.VDW.0>
0

>  <SCORE.INTRA.norm>
0

>  <SCORE.RESTR>
0

>  <SCORE.RESTR.CAVITY>
0

>  <SCORE.RESTR.norm>
0

>  <SCORE.SYSTEM>
0

>  <SCORE.SYSTEM.CONST>
0

>  <SCORE.SYSTEM.DIHEDRAL>
0

>  <SCORE.SYSTEM.SOLV>
0

>  <SCORE.SYSTEM.norm>
0

>  <SCORE.heavy>
10

>  <SCORE.norm>
-1.80879

>  <RMSD>
0.720

$$$$
ligand
 OpenBabel11021811423D
libRbt.so/2013.1/901 2013/11/27
 10 11  0  0  0  0  0  0  0  0999 V2000
   11.5188    9.5058   29.4910 N   0  0  0  0  0  0  0  0  0  0  0  0
   11.3703   10.8646   29.2733 C   0  0  0  0  0  0  0  0  0  0  0  0
   11.1357   11.3638   28.0537 N   0  0  0  0  0  0  0  0  0  0  0  0
   11.0633   10.3978   27.0816 C   0  0  0  0  0  0  0  0  0  0  0  0
   11.2023    9.0378   27.2379 C   0  0  0  0  0  0  0  0  0  0  0  0
   11.4516    8.4967   28.5296 C   0  0  0  0  0  0  0  0  0  0  0  0
   11.6066    7.3218   28.8858 O   0  0  0  0  0  0  0  0  0  0  0  0
   11.0579    8.4417   26.0123 N   0  0  0  0  0  0  0  0  0  0  0  0
   10.8325    9.4299   25.1257 C   0  0  0  0  0  0  0  0  0  0  0  0
   10.8314   10.6503   25.7528 N   0  0  0  0  0  0  0  0  0  0  0  0
  1  2  1  0  0  0  0
  1  6  1  0  0  0  0
  2  3  2  0  0  0  0
  3  4  1  0  0  0  0
  4  5  2  0  0  0  0
  4 10  1  0  0  0  0
  5  6  1  0  0  0  0
  5  8  1  0  0  0  0
  6  7  2  0  0  0  0
  8  9  1  0  0  0  0
  9 10  2  0  0  0  0
M  END
>  <CHROM.1>
11.21481845,9.51025756,27.57176964,0.19630696,-1.39342174,0.48719432

>  <Name>
ligand

>  <RI>
0

>  <Rbt.Current_Directory>
/home/itssahil/PROJECTS/Mol_Feturizer/New_Systems/rnas/2EET

>  <Rbt.Executable>
rbdock ($Id: //depot/dev/client3/rdock/2013.1/src/exe/rbdock.cxx#4 $)

>  <Rbt.Library>
libRbt.so (2013.1, Build901 2013/11/27)

>  <Rbt.Parameter_File>
/export/apps/rDock/src/rDock_2013.1_src/data/scripts/dock_solv.prm

>  <Rbt.Receptor>
prm/pocket_docking_6.prm

>  <SCORE>
-18.0464

>  <SCORE.INTER>
-18.0464

>  <SCORE.INTER.CONST>
1

>  <SCORE.INTER.POLAR>
0

>  <SCORE.INTER.ROT>
0

>  <SCORE.INTER.SOLV>
4.14956

>  <SCORE.INTER.VDW>
-17.0141

>  <SCORE.INTER.norm>
-1.80464

>  <SCORE.INTRA>
0

>  <SCORE.INTRA.DIHEDRAL>
0

>  <SCORE.INTRA.DIHEDRAL.0>
0

>  <SCORE.INTRA.POLAR>
0

>  <SCORE.INTRA.POLAR.0>
0

>  <SCORE.INTRA.REPUL>
0

>  <SCORE.INTRA.REPUL.0>
0

>  <SCORE.INTRA.SOLV>
0

>  <SCORE.INTRA.SOLV.lig_0>
-4.28464

>  <SCORE.INTRA.VDW>
0

>  <SCORE.INTRA.VDW.0>
0

>  <SCORE.INTRA.norm>
0

>  <SCORE.RESTR>
0

>  <SCORE.RESTR.CAVITY>
0

>  <SCORE.RESTR.norm>
0

>  <SCORE.SYSTEM>
0

>  <SCORE.SYSTEM.CONST>
0

>  <SCORE.SYSTEM.DIHEDRAL>
0

>  <SCORE.SYSTEM.SOLV>
0

>  <SCORE.SYSTEM.norm>
0

>  <SCORE.heavy>
10

>  <SCORE.norm>
-1.80464

>  <RMSD>
0.720

$$$$
ligand
 OpenBabel11021811423D
libRbt.so/2013.1/901 2013/11/27
 10 11  0  0  0  0  0  0  0  0999 V2000
   11.5016    9.5023   29.4784 N   0  0  0  0  0  0  0  0  0  0  0  0
   11.3613   10.8655   29.2838 C   0  0  0  0  0  0  0  0  0  0  0  0
   11.1293   11.3867   28.0730 N   0  0  0  0  0  0  0  0  0  0  0  0
   11.0506   10.4377   27.0846 C   0  0  0  0  0  0  0  0  0  0  0  0
   11.1813    9.0745   27.2178 C   0  0  0  0  0  0  0  0  0  0  0  0
   11.4278    8.5101   28.5000 C   0  0  0  0  0  0  0  0  0  0  0  0
   11.5758    7.3283   28.8362 O   0  0  0  0  0  0  0  0  0  0  0  0
   11.0328    8.5001   25.9824 N   0  0  0  0  0  0  0  0  0  0  0  0
   10.8131    9.5046   25.1127 C   0  0  0  0  0  0  0  0  0  0  0  0
   10.8197   10.7142   25.7604 N   0  0  0  0  0  0  0  0  0  0  0  0
  1  2  1  0  0  0  0
  1  6  1  0  0  0  0
  2  3  2  0  0  0  0
  3  4  1  0  0  0  0
  4  5  2  0  0  0  0
  4 10  1  0  0  0  0
  5  6  1  0  0  0  0
  5  8  1  0  0  0  0
  6  7  2  0  0  0  0
  8  9  1  0  0  0  0
  9 10  2  0  0  0  0
M  END
>  <CHROM.1>
11.19687145,9.54113210,27.55963570,0.16413815,-1.39584875,0.47247317

>  <Name>
ligand

>  <RI>
0

>  <Rbt.Current_Directory>
/home/itssahil/PROJECTS/Mol_Feturizer/New_Systems/rnas/2EET

>  <Rbt.Executable>
rbdock ($Id: //depot/dev/client3/rdock/2013.1/src/exe/rbdock.cxx#4 $)

>  <Rbt.Library>
libRbt.so (2013.1, Build901 2013/11/27)

>  <Rbt.Parameter_File>
/export/apps/rDock/src/rDock_2013.1_src/data/scripts/dock_solv.prm

>  <Rbt.Receptor>
prm/pocket_docking_8.prm

>  <SCORE>
-18.0576

>  <SCORE.INTER>
-18.0576

>  <SCORE.INTER.CONST>
1

>  <SCORE.INTER.POLAR>
0

>  <SCORE.INTER.ROT>
0

>  <SCORE.INTER.SOLV>
4.15967

>  <SCORE.INTER.VDW>
-17.0249

>  <SCORE.INTER.norm>
-1.80576

>  <SCORE.INTRA>
0

>  <SCORE.INTRA.DIHEDRAL>
0

>  <SCORE.INTRA.DIHEDRAL.0>
0

>  <SCORE.INTRA.POLAR>
0

>  <SCORE.INTRA.POLAR.0>
0

>  <SCORE.INTRA.REPUL>
0

>  <SCORE.INTRA.REPUL.0>
0

>  <SCORE.INTRA.SOLV>
0

>  <SCORE.INTRA.SOLV.lig_0>
-4.28464

>  <SCORE.INTRA.VDW>
0

>  <SCORE.INTRA.VDW.0>
0

>  <SCORE.INTRA.norm>
0

>  <SCORE.RESTR>
1.36687e-06

>  <SCORE.RESTR.CAVITY>
1.36687e-06

>  <SCORE.RESTR.norm>
1.36687e-07

>  <SCORE.SYSTEM>
0

>  <SCORE.SYSTEM.CONST>
0

>  <SCORE.SYSTEM.DIHEDRAL>
0

>  <SCORE.SYSTEM.SOLV>
0

>  <SCORE.SYSTEM.norm>
0

>  <SCORE.heavy>
10

>  <SCORE.norm>
-1.80576

>  <RMSD>
0.720

$$$$
ligand
 OpenBabel11021811423D
libRbt.so/2013.1/901 2013/11/27
 10 11  0  0  0  0  0  0  0  0999 V2000
   11.4948    9.5040   29.4856 N   0  0  0  0  0  0  0  0  0  0  0  0
   11.3592   10.8675   29.2902 C   0  0  0  0  0  0  0  0  0  0  0  0
   11.1271   11.3886   28.0793 N   0  0  0  0  0  0  0  0  0  0  0  0
   11.0433   10.4392   27.0919 C   0  0  0  0  0  0  0  0  0  0  0  0
   11.1691    9.0756   27.2259 C   0  0  0  0  0  0  0  0  0  0  0  0
   11.4157    8.5112   28.5082 C   0  0  0  0  0  0  0  0  0  0  0  0
   11.5599    7.3292   28.8451 O   0  0  0  0  0  0  0  0  0  0  0  0
   11.0164    8.5007   25.9912 N   0  0  0  0  0  0  0  0  0  0  0  0
   10.7990    9.5053   25.1211 C   0  0  0  0  0  0  0  0  0  0  0  0
   10.8112   10.7154   25.7679 N   0  0  0  0  0  0  0  0  0  0  0  0
  1  2  1  0  0  0  0
  1  6  1  0  0  0  0
  2  3  2  0  0  0  0
  3  4  1  0  0  0  0
  4  5  2  0  0  0  0
  4 10  1  0  0  0  0
  5  6  1  0  0  0  0
  5  8  1  0  0  0  0
  6  7  2  0  0  0  0
  8  9  1  0  0  0  0
  9 10  2  0  0  0  0
M  END
>  <CHROM.1>
11.18700093,9.54239724,27.56736639,0.14075837,-1.39597780,0.44865793

>  <Name>
ligand

>  <RI>
0

>  <Rbt.Current_Directory>
/home/itssahil/PROJECTS/Mol_Feturizer/New_Systems/rnas/2EET

>  <Rbt.Executable>
rbdock ($Id: //depot/dev/client3/rdock/2013.1/src/exe/rbdock.cxx#4 $)

>  <Rbt.Library>
libRbt.so (2013.1, Build901 2013/11/27)

>  <Rbt.Parameter_File>
/export/apps/rDock/src/rDock_2013.1_src/data/scripts/dock_solv.prm

>  <Rbt.Receptor>
prm/pocket_docking_8.prm

>  <SCORE>
-18.0867

>  <SCORE.INTER>
-18.0867

>  <SCORE.INTER.CONST>
1

>  <SCORE.INTER.POLAR>
0

>  <SCORE.INTER.ROT>
0

>  <SCORE.INTER.SOLV>
4.18357

>  <SCORE.INTER.VDW>
-17.0523

>  <SCORE.INTER.norm>
-1.80867

>  <SCORE.INTRA>
0

>  <SCORE.INTRA.DIHEDRAL>
0

>  <SCORE.INTRA.DIHEDRAL.0>
0

>  <SCORE.INTRA.POLAR>
0

>  <SCORE.INTRA.POLAR.0>
0

>  <SCORE.INTRA.REPUL>
0

>  <SCORE.INTRA.REPUL.0>
0

>  <SCORE.INTRA.SOLV>
0

>  <SCORE.INTRA.SOLV.lig_0>
-4.28464

>  <SCORE.INTRA.VDW>
0

>  <SCORE.INTRA.VDW.0>
0

>  <SCORE.INTRA.norm>
0

>  <SCORE.RESTR>
0

>  <SCORE.RESTR.CAVITY>
0

>  <SCORE.RESTR.norm>
0

>  <SCORE.SYSTEM>
0

>  <SCORE.SYSTEM.CONST>
0

>  <SCORE.SYSTEM.DIHEDRAL>
0

>  <SCORE.SYSTEM.SOLV>
0

>  <SCORE.SYSTEM.norm>
0

>  <SCORE.heavy>
10

>  <SCORE.norm>
-1.80867

>  <RMSD>
0.720

$$$$
ligand
 OpenBabel11021811423D
libRbt.so/2013.1/901 2013/11/27
 10 11  0  0  0  0  0  0  0  0999 V2000
   11.4854    9.5041   29.4927 N   0  0  0  0  0  0  0  0  0  0  0  0
   11.3547   10.8678   29.2959 C   0  0  0  0  0  0  0  0  0  0  0  0
   11.1280   11.3888   28.0840 N   0  0  0  0  0  0  0  0  0  0  0  0
   11.0441   10.4390   27.0969 C   0  0  0  0  0  0  0  0  0  0  0  0
   11.1652    9.0751   27.2324 C   0  0  0  0  0  0  0  0  0  0  0  0
   11.4061    8.5109   28.5158 C   0  0  0  0  0  0  0  0  0  0  0  0
   11.5454    7.3286   28.8539 O   0  0  0  0  0  0  0  0  0  0  0  0
   11.0144    8.4998   25.9976 N   0  0  0  0  0  0  0  0  0  0  0  0
   10.8028    9.5045   25.1261 C   0  0  0  0  0  0  0  0  0  0  0  0
   10.8169   10.7150   25.7720 N   0  0  0  0  0  0  0  0  0  0  0  0
  1  2  1  0  0  0  0
  1  6  1  0  0  0  0
  2  3  2  0  0  0  0
  3  4  1  0  0  0  0
  4  5  2  0  0  0  0
  4 10  1  0  0  0  0
  5  6  1  0  0  0  0
  5  8  1  0  0  0  0
  6  7  2  0  0  0  0
  8  9  1  0  0  0  0
  9 10  2  0  0  0  0
M  END
>  <CHROM.1>
11.18349779,9.54208891,27.57350615,0.13160105,-1.40008986,0.43892219

>  <Name>
ligand

>  <RI>
0

>  <Rbt.Current_Directory>
/home/itssahil/PROJECTS/Mol_Feturizer/New_Systems/rnas/2EET

>  <Rbt.Executable>
rbdock ($Id: //depot/dev/client3/rdock/2013.1/src/exe/rbdock.cxx#4 $)

>  <Rbt.Library>
libRbt.so (2013.1, Build901 2013/11/27)

>  <Rbt.Parameter_File>
/export/apps/rDock/src/rDock_2013.1_src/data/scripts/dock_solv.prm

>  <Rbt.Receptor>
prm/blind_docking_40.prm

>  <SCORE>
-18.0904

>  <SCORE.INTER>
-18.0904

>  <SCORE.INTER.CONST>
1

>  <SCORE.INTER.POLAR>
0

>  <SCORE.INTER.ROT>
0

>  <SCORE.INTER.SOLV>
4.20826

>  <SCORE.INTER.VDW>
-17.063

>  <SCORE.INTER.norm>
-1.80904

>  <SCORE.INTRA>
0

>  <SCORE.INTRA.DIHEDRAL>
0

>  <SCORE.INTRA.DIHEDRAL.0>
0

>  <SCORE.INTRA.POLAR>
0

>  <SCORE.INTRA.POLAR.0>
0

>  <SCORE.INTRA.REPUL>
0

>  <SCORE.INTRA.REPUL.0>
0

>  <SCORE.INTRA.SOLV>
0

>  <SCORE.INTRA.SOLV.lig_0>
-4.28464

>  <SCORE.INTRA.VDW>
0

>  <SCORE.INTRA.VDW.0>
0

>  <SCORE.INTRA.norm>
0

>  <SCORE.RESTR>
0

>  <SCORE.RESTR.CAVITY>
0

>  <SCORE.RESTR.norm>
0

>  <SCORE.SYSTEM>
0

>  <SCORE.SYSTEM.CONST>
0

>  <SCORE.SYSTEM.DIHEDRAL>
0

>  <SCORE.SYSTEM.SOLV>
0

>  <SCORE.SYSTEM.norm>
0

>  <SCORE.heavy>
10

>  <SCORE.norm>
-1.80904

>  <RMSD>
0.721

$$$$
ligand
 OpenBabel11021811423D
libRbt.so/2013.1/901 2013/11/27
 10 11  0  0  0  0  0  0  0  0999 V2000
   11.5004    9.5044   29.4761 N   0  0  0  0  0  0  0  0  0  0  0  0
   11.3553   10.8672   29.2830 C   0  0  0  0  0  0  0  0  0  0  0  0
   11.1188   11.3887   28.0731 N   0  0  0  0  0  0  0  0  0  0  0  0
   11.0408   10.4403   27.0842 C   0  0  0  0  0  0  0  0  0  0  0  0
   11.1761    9.0774   27.2159 C   0  0  0  0  0  0  0  0  0  0  0  0
   11.4275    8.5127   28.4971 C   0  0  0  0  0  0  0  0  0  0  0  0
   11.5800    7.3311   28.8320 O   0  0  0  0  0  0  0  0  0  0  0  0
   11.0265    8.5035   25.9804 N   0  0  0  0  0  0  0  0  0  0  0  0
   10.8016    9.5080   25.1121 C   0  0  0  0  0  0  0  0  0  0  0  0
   10.8059   10.7171   25.7607 N   0  0  0  0  0  0  0  0  0  0  0  0
  1  2  1  0  0  0  0
  1  6  1  0  0  0  0
  2  3  2  0  0  0  0
  3  4  1  0  0  0  0
  4  5  2  0  0  0  0
  4 10  1  0  0  0  0
  5  6  1  0  0  0  0
  5  8  1  0  0  0  0
  6  7  2  0  0  0  0
  8  9  1  0  0  0  0
  9 10  2  0  0  0  0
M  END
>  <CHROM.1>
11.19098528,9.54374241,27.55809772,0.17404361,-1.39227751,0.48303490

>  <Name>
ligand

>  <RI>
0

>  <Rbt.Current_Directory>
/home/itssahil/PROJECTS/Mol_Feturizer/New_Systems/rnas/2EET

>  <Rbt.Executable>
rbdock ($Id: //depot/dev/client3/rdock/2013.1/src/exe/rbdock.cxx#4 $)

>  <Rbt.Library>
libRbt.so (2013.1, Build901 2013/11/27)

>  <Rbt.Parameter_File>
/export/apps/rDock/src/rDock_2013.1_src/data/scripts/dock_solv.prm

>  <Rbt.Receptor>
prm/blind_docking_60.prm

>  <SCORE>
-18.0676

>  <SCORE.INTER>
-18.0676

>  <SCORE.INTER.CONST>
1

>  <SCORE.INTER.POLAR>
0

>  <SCORE.INTER.ROT>
0

>  <SCORE.INTER.SOLV>
4.14855

>  <SCORE.INTER.VDW>
-17.0279

>  <SCORE.INTER.norm>
-1.80676

>  <SCORE.INTRA>
0

>  <SCORE.INTRA.DIHEDRAL>
0

>  <SCORE.INTRA.DIHEDRAL.0>
0

>  <SCORE.INTRA.POLAR>
0

>  <SCORE.INTRA.POLAR.0>
0

>  <SCORE.INTRA.REPUL>
0

>  <SCORE.INTRA.REPUL.0>
0

>  <SCORE.INTRA.SOLV>
0

>  <SCORE.INTRA.SOLV.lig_0>
-4.28464

>  <SCORE.INTRA.VDW>
0

>  <SCORE.INTRA.VDW.0>
0

>  <SCORE.INTRA.norm>
0

>  <SCORE.RESTR>
0

>  <SCORE.RESTR.CAVITY>
0

>  <SCORE.RESTR.norm>
0

>  <SCORE.SYSTEM>
0

>  <SCORE.SYSTEM.CONST>
0

>  <SCORE.SYSTEM.DIHEDRAL>
0

>  <SCORE.SYSTEM.SOLV>
0

>  <SCORE.SYSTEM.norm>
0

>  <SCORE.heavy>
10

>  <SCORE.norm>
-1.80676

>  <RMSD>
0.721

$$$$
ligand
 OpenBabel11021811423D
libRbt.so/2013.1/901 2013/11/27
 10 11  0  0  0  0  0  0  0  0999 V2000
   11.4950    9.5034   29.4831 N   0  0  0  0  0  0  0  0  0  0  0  0
   11.3582   10.8670   29.2890 C   0  0  0  0  0  0  0  0  0  0  0  0
   11.1272   11.3892   28.0783 N   0  0  0  0  0  0  0  0  0  0  0  0
   11.0458   10.4407   27.0897 C   0  0  0  0  0  0  0  0  0  0  0  0
   11.1729    9.0771   27.2225 C   0  0  0  0  0  0  0  0  0  0  0  0
   11.4184    8.5117   28.5045 C   0  0  0  0  0  0  0  0  0  0  0  0
   11.5633    7.3294   28.8403 O   0  0  0  0  0  0  0  0  0  0  0  0
   11.0225    8.5034   25.9870 N   0  0  0  0  0  0  0  0  0  0  0  0
   10.8052    9.5087   25.1177 C   0  0  0  0  0  0  0  0  0  0  0  0
   10.8152   10.7181   25.7657 N   0  0  0  0  0  0  0  0  0  0  0  0
  1  2  1  0  0  0  0
  1  6  1  0  0  0  0
  2  3  2  0  0  0  0
  3  4  1  0  0  0  0
  4  5  2  0  0  0  0
  4 10  1  0  0  0  0
  5  6  1  0  0  0  0
  5  8  1  0  0  0  0
  6  7  2  0  0  0  0
  8  9  1  0  0  0  0
  9 10  2  0  0  0  0
M  END
>  <CHROM.1>
11.18980579,9.54356479,27.56447952,0.14983405,-1.39675012,0.45866518

>  <Name>
ligand

>  <RI>
0

>  <Rbt.Current_Directory>
/home/itssahil/PROJECTS/Mol_Feturizer/New_Systems/rnas/2EET

>  <Rbt.Executable>
rbdock ($Id: //depot/dev/client3/rdock/2013.1/src/exe/rbdock.cxx#4 $)

>  <Rbt.Library>
libRbt.so (2013.1, Build901 2013/11/27)

>  <Rbt.Parameter_File>
/export/apps/rDock/src/rDock_2013.1_src/data/scripts/dock_solv.prm

>  <Rbt.Receptor>
prm/pocket_docking_5.prm

>  <SCORE>
-18.0844

>  <SCORE.INTER>
-18.0844

>  <SCORE.INTER.CONST>
1

>  <SCORE.INTER.POLAR>
0

>  <SCORE.INTER.ROT>
0

>  <SCORE.INTER.SOLV>
4.17726

>  <SCORE.INTER.VDW>
-17.0487

>  <SCORE.INTER.norm>
-1.80844

>  <SCORE.INTRA>
0

>  <SCORE.INTRA.DIHEDRAL>
0

>  <SCORE.INTRA.DIHEDRAL.0>
0

>  <SCORE.INTRA.POLAR>
0

>  <SCORE.INTRA.POLAR.0>
0

>  <SCORE.INTRA.REPUL>
0

>  <SCORE.INTRA.REPUL.0>
0

>  <SCORE.INTRA.SOLV>
0

>  <SCORE.INTRA.SOLV.lig_0>
-4.28464

>  <SCORE.INTRA.VDW>
0

>  <SCORE.INTRA.VDW.0>
0

>  <SCORE.INTRA.norm>
0

>  <SCORE.RESTR>
0

>  <SCORE.RESTR.CAVITY>
0

>  <SCORE.RESTR.norm>
0

>  <SCORE.SYSTEM>
0

>  <SCORE.SYSTEM.CONST>
0

>  <SCORE.SYSTEM.DIHEDRAL>
0

>  <SCORE.SYSTEM.SOLV>
0

>  <SCORE.SYSTEM.norm>
0

>  <SCORE.heavy>
10

>  <SCORE.norm>
-1.80844

>  <RMSD>
0.721

$$$$
ligand
 OpenBabel11021811423D
libRbt.so/2013.1/901 2013/11/27
 10 11  0  0  0  0  0  0  0  0999 V2000
   11.5032    9.5073   29.4740 N   0  0  0  0  0  0  0  0  0  0  0  0
   11.3491   10.8688   29.2791 C   0  0  0  0  0  0  0  0  0  0  0  0
   11.1113   11.3873   28.0681 N   0  0  0  0  0  0  0  0  0  0  0  0
   11.0418   10.4372   27.0801 C   0  0  0  0  0  0  0  0  0  0  0  0
   11.1862    9.0755   27.2137 C   0  0  0  0  0  0  0  0  0  0  0  0
   11.4390    8.5140   28.4961 C   0  0  0  0  0  0  0  0  0  0  0  0
   11.5990    7.3339   28.8326 O   0  0  0  0  0  0  0  0  0  0  0  0
   11.0430    8.4991   25.9786 N   0  0  0  0  0  0  0  0  0  0  0  0
   10.8128    9.5010   25.1087 C   0  0  0  0  0  0  0  0  0  0  0  0
   10.8075   10.7109   25.7559 N   0  0  0  0  0  0  0  0  0  0  0  0
  1  2  1  0  0  0  0
  1  6  1  0  0  0  0
  2  3  2  0  0  0  0
  3  4  1  0  0  0  0
  4  5  2  0  0  0  0
  4 10  1  0  0  0  0
  5  6  1  0  0  0  0
  5  8  1  0  0  0  0
  6  7  2  0  0  0  0
  8  9  1  0  0  0  0
  9 10  2  0  0  0  0
M  END
>  <CHROM.1>
11.19726294,9.54231823,27.55539951,0.21317153,-1.39065644,0.52038239

>  <Name>
ligand

>  <RI>
0

>  <Rbt.Current_Directory>
/home/itssahil/PROJECTS/Mol_Feturizer/New_Systems/rnas/2EET

>  <Rbt.Executable>
rbdock ($Id: //depot/dev/client3/rdock/2013.1/src/exe/rbdock.cxx#4 $)

>  <Rbt.Library>
libRbt.so (2013.1, Build901 2013/11/27)

>  <Rbt.Parameter_File>
/export/apps/rDock/src/rDock_2013.1_src/data/scripts/dock_solv.prm

>  <Rbt.Receptor>
prm/pocket_docking_7.prm

>  <SCORE>
-18.0236

>  <SCORE.INTER>
-18.0236

>  <SCORE.INTER.CONST>
1

>  <SCORE.INTER.POLAR>
0

>  <SCORE.INTER.ROT>
0

>  <SCORE.INTER.SOLV>
4.12387

>  <SCORE.INTER.VDW>
-16.9904

>  <SCORE.INTER.norm>
-1.80236

>  <SCORE.INTRA>
0

>  <SCORE.INTRA.DIHEDRAL>
0

>  <SCORE.INTRA.DIHEDRAL.0>
0

>  <SCORE.INTRA.POLAR>
0

>  <SCORE.INTRA.POLAR.0>
0

>  <SCORE.INTRA.REPUL>
0

>  <SCORE.INTRA.REPUL.0>
0

>  <SCORE.INTRA.SOLV>
0

>  <SCORE.INTRA.SOLV.lig_0>
-4.28464

>  <SCORE.INTRA.VDW>
0

>  <SCORE.INTRA.VDW.0>
0

>  <SCORE.INTRA.norm>
0

>  <SCORE.RESTR>
0

>  <SCORE.RESTR.CAVITY>
0

>  <SCORE.RESTR.norm>
0

>  <SCORE.SYSTEM>
0

>  <SCORE.SYSTEM.CONST>
0

>  <SCORE.SYSTEM.DIHEDRAL>
0

>  <SCORE.SYSTEM.SOLV>
0

>  <SCORE.SYSTEM.norm>
0

>  <SCORE.heavy>
10

>  <SCORE.norm>
-1.80236

>  <RMSD>
0.721

$$$$
ligand
 OpenBabel11021811423D
libRbt.so/2013.1/901 2013/11/27
 10 11  0  0  0  0  0  0  0  0999 V2000
   11.4849    9.5159   29.5231 N   0  0  0  0  0  0  0  0  0  0  0  0
   11.3498   10.8756   29.3023 C   0  0  0  0  0  0  0  0  0  0  0  0
   11.1265   11.3748   28.0806 N   0  0  0  0  0  0  0  0  0  0  0  0
   11.0507   10.4078   27.1097 C   0  0  0  0  0  0  0  0  0  0  0  0
   11.1765    9.0469   27.2691 C   0  0  0  0  0  0  0  0  0  0  0  0
   11.4139    8.5058   28.5631 C   0  0  0  0  0  0  0  0  0  0  0  0
   11.5563    7.3301   28.9221 O   0  0  0  0  0  0  0  0  0  0  0  0
   11.0335    8.4499   26.0438 N   0  0  0  0  0  0  0  0  0  0  0  0
   10.8219    9.4386   25.1542 C   0  0  0  0  0  0  0  0  0  0  0  0
   10.8284   10.6601   25.7792 N   0  0  0  0  0  0  0  0  0  0  0  0
  1  2  1  0  0  0  0
  1  6  1  0  0  0  0
  2  3  2  0  0  0  0
  3  4  1  0  0  0  0
  4  5  2  0  0  0  0
  4 10  1  0  0  0  0
  5  6  1  0  0  0  0
  5  8  1  0  0  0  0
  6  7  2  0  0  0  0
  8  9  1  0  0  0  0
  9 10  2  0  0  0  0
M  END
>  <CHROM.1>
11.19147617,9.51976688,27.60224497,0.16401225,-1.40240394,0.45366341

>  <Name>
ligand

>  <RI>
0

>  <Rbt.Current_Directory>
/home/itssahil/PROJECTS/Mol_Feturizer/New_Systems/rnas/2EET

>  <Rbt.Executable>
rbdock ($Id: //depot/dev/client3/rdock/2013.1/src/exe/rbdock.cxx#4 $)

>  <Rbt.Library>
libRbt.so (2013.1, Build901 2013/11/27)

>  <Rbt.Parameter_File>
/export/apps/rDock/src/rDock_2013.1_src/data/scripts/dock_solv.prm

>  <Rbt.Receptor>
prm/blind_docking_40.prm

>  <SCORE>
-18.0746

>  <SCORE.INTER>
-18.0746

>  <SCORE.INTER.CONST>
1

>  <SCORE.INTER.POLAR>
0

>  <SCORE.INTER.ROT>
0

>  <SCORE.INTER.SOLV>
4.23508

>  <SCORE.INTER.VDW>
-17.0614

>  <SCORE.INTER.norm>
-1.80746

>  <SCORE.INTRA>
0

>  <SCORE.INTRA.DIHEDRAL>
0

>  <SCORE.INTRA.DIHEDRAL.0>
0

>  <SCORE.INTRA.POLAR>
0

>  <SCORE.INTRA.POLAR.0>
0

>  <SCORE.INTRA.REPUL>
0

>  <SCORE.INTRA.REPUL.0>
0

>  <SCORE.INTRA.SOLV>
0

>  <SCORE.INTRA.SOLV.lig_0>
-4.28464

>  <SCORE.INTRA.VDW>
0

>  <SCORE.INTRA.VDW.0>
0

>  <SCORE.INTRA.norm>
0

>  <SCORE.RESTR>
0

>  <SCORE.RESTR.CAVITY>
0

>  <SCORE.RESTR.norm>
0

>  <SCORE.SYSTEM>
0

>  <SCORE.SYSTEM.CONST>
0

>  <SCORE.SYSTEM.DIHEDRAL>
0

>  <SCORE.SYSTEM.SOLV>
0

>  <SCORE.SYSTEM.norm>
0

>  <SCORE.heavy>
10

>  <SCORE.norm>
-1.80746

>  <RMSD>
0.722

$$$$
ligand
 OpenBabel11021811423D
libRbt.so/2013.1/901 2013/11/27
 10 11  0  0  0  0  0  0  0  0999 V2000
   11.4937    9.5031   29.4810 N   0  0  0  0  0  0  0  0  0  0  0  0
   11.3576   10.8667   29.2867 C   0  0  0  0  0  0  0  0  0  0  0  0
   11.1283   11.3890   28.0758 N   0  0  0  0  0  0  0  0  0  0  0  0
   11.0477   10.4406   27.0871 C   0  0  0  0  0  0  0  0  0  0  0  0
   11.1742    9.0769   27.2200 C   0  0  0  0  0  0  0  0  0  0  0  0
   11.4179    8.5114   28.5023 C   0  0  0  0  0  0  0  0  0  0  0  0
   11.5620    7.3291   28.8383 O   0  0  0  0  0  0  0  0  0  0  0  0
   11.0251    8.5033   25.9843 N   0  0  0  0  0  0  0  0  0  0  0  0
   10.8092    9.5087   25.1147 C   0  0  0  0  0  0  0  0  0  0  0  0
   10.8188   10.7181   25.7628 N   0  0  0  0  0  0  0  0  0  0  0  0
  1  2  1  0  0  0  0
  1  6  1  0  0  0  0
  2  3  2  0  0  0  0
  3  4  1  0  0  0  0
  4  5  2  0  0  0  0
  4 10  1  0  0  0  0
  5  6  1  0  0  0  0
  5  8  1  0  0  0  0
  6  7  2  0  0  0  0
  8  9  1  0  0  0  0
  9 10  2  0  0  0  0
M  END
>  <CHROM.1>
11.19082848,9.54339347,27.56198974,0.15114459,-1.39799302,0.45996862

>  <Name>
ligand

>  <RI>
0

>  <Rbt.Current_Directory>
/home/itssahil/PROJECTS/Mol_Feturizer/New_Systems/rnas/2EET

>  <Rbt.Executable>
rbdock ($Id: //depot/dev/client3/rdock/2013.1/src/exe/rbdock.cxx#4 $)

>  <Rbt.Library>
libRbt.so (2013.1, Build901 2013/11/27)

>  <Rbt.Parameter_File>
/export/apps/rDock/src/rDock_2013.1_src/data/scripts/dock_solv.prm

>  <Rbt.Receptor>
prm/blind_docking_80.prm

>  <SCORE>
-18.0837

>  <SCORE.INTER>
-18.0837

>  <SCORE.INTER.CONST>
1

>  <SCORE.INTER.POLAR>
0

>  <SCORE.INTER.ROT>
0

>  <SCORE.INTER.SOLV>
4.17821

>  <SCORE.INTER.VDW>
-17.0485

>  <SCORE.INTER.norm>
-1.80837

>  <SCORE.INTRA>
0

>  <SCORE.INTRA.DIHEDRAL>
0

>  <SCORE.INTRA.DIHEDRAL.0>
0

>  <SCORE.INTRA.POLAR>
0

>  <SCORE.INTRA.POLAR.0>
0

>  <SCORE.INTRA.REPUL>
0

>  <SCORE.INTRA.REPUL.0>
0

>  <SCORE.INTRA.SOLV>
0

>  <SCORE.INTRA.SOLV.lig_0>
-4.28464

>  <SCORE.INTRA.VDW>
0

>  <SCORE.INTRA.VDW.0>
0

>  <SCORE.INTRA.norm>
0

>  <SCORE.RESTR>
0

>  <SCORE.RESTR.CAVITY>
0

>  <SCORE.RESTR.norm>
0

>  <SCORE.SYSTEM>
0

>  <SCORE.SYSTEM.CONST>
0

>  <SCORE.SYSTEM.DIHEDRAL>
0

>  <SCORE.SYSTEM.SOLV>
0

>  <SCORE.SYSTEM.norm>
0

>  <SCORE.heavy>
10

>  <SCORE.norm>
-1.80837

>  <RMSD>
0.722

$$$$
ligand
 OpenBabel11021811423D
libRbt.so/2013.1/901 2013/11/27
 10 11  0  0  0  0  0  0  0  0999 V2000
   11.4298    9.4461   29.5092 N   0  0  0  0  0  0  0  0  0  0  0  0
   11.3032   10.8088   29.3025 C   0  0  0  0  0  0  0  0  0  0  0  0
   11.1135   11.3242   28.0819 N   0  0  0  0  0  0  0  0  0  0  0  0
   11.0619   10.3700   27.0968 C   0  0  0  0  0  0  0  0  0  0  0  0
   11.1808    9.0069   27.2418 C   0  0  0  0  0  0  0  0  0  0  0  0
   11.3825    8.4486   28.5345 C   0  0  0  0  0  0  0  0  0  0  0  0
   11.5131    7.2680   28.8819 O   0  0  0  0  0  0  0  0  0  0  0  0
   11.0695    8.4261   26.0054 N   0  0  0  0  0  0  0  0  0  0  0  0
   10.8836    9.4267   25.1235 C   0  0  0  0  0  0  0  0  0  0  0  0
   10.8757   10.6400   25.7643 N   0  0  0  0  0  0  0  0  0  0  0  0
  1  2  1  0  0  0  0
  1  6  1  0  0  0  0
  2  3  2  0  0  0  0
  3  4  1  0  0  0  0
  4  5  2  0  0  0  0
  4 10  1  0  0  0  0
  5  6  1  0  0  0  0
  5  8  1  0  0  0  0
  6  7  2  0  0  0  0
  8  9  1  0  0  0  0
  9 10  2  0  0  0  0
M  END
>  <CHROM.1>
11.18780539,9.47539364,27.58133795,0.23400289,-1.42689860,0.53577971

>  <Name>
ligand

>  <RI>
0

>  <Rbt.Current_Directory>
/home/itssahil/PROJECTS/Mol_Feturizer/New_Systems/rnas/2EET

>  <Rbt.Executable>
rbdock ($Id: //depot/dev/client3/rdock/2013.1/src/exe/rbdock.cxx#4 $)

>  <Rbt.Library>
libRbt.so (2013.1, Build901 2013/11/27)

>  <Rbt.Parameter_File>
/export/apps/rDock/src/rDock_2013.1_src/data/scripts/dock_solv.prm

>  <Rbt.Receptor>
prm/pocket_docking_3.prm

>  <SCORE>
-17.9282

>  <SCORE.INTER>
-17.9282

>  <SCORE.INTER.CONST>
1

>  <SCORE.INTER.POLAR>
0

>  <SCORE.INTER.ROT>
0

>  <SCORE.INTER.SOLV>
4.28888

>  <SCORE.INTER.VDW>
-16.9818

>  <SCORE.INTER.norm>
-1.79282

>  <SCORE.INTRA>
0

>  <SCORE.INTRA.DIHEDRAL>
0

>  <SCORE.INTRA.DIHEDRAL.0>
0

>  <SCORE.INTRA.POLAR>
0

>  <SCORE.INTRA.POLAR.0>
0

>  <SCORE.INTRA.REPUL>
0

>  <SCORE.INTRA.REPUL.0>
0

>  <SCORE.INTRA.SOLV>
0

>  <SCORE.INTRA.SOLV.lig_0>
-4.28464

>  <SCORE.INTRA.VDW>
0

>  <SCORE.INTRA.VDW.0>
0

>  <SCORE.INTRA.norm>
0

>  <SCORE.RESTR>
0

>  <SCORE.RESTR.CAVITY>
0

>  <SCORE.RESTR.norm>
0

>  <SCORE.SYSTEM>
0

>  <SCORE.SYSTEM.CONST>
0

>  <SCORE.SYSTEM.DIHEDRAL>
0

>  <SCORE.SYSTEM.SOLV>
0

>  <SCORE.SYSTEM.norm>
0

>  <SCORE.heavy>
10

>  <SCORE.norm>
-1.79282

>  <RMSD>
0.722

$$$$
ligand
 OpenBabel11021811423D
libRbt.so/2013.1/901 2013/11/27
 10 11  0  0  0  0  0  0  0  0999 V2000
   11.4818    9.5049   29.4974 N   0  0  0  0  0  0  0  0  0  0  0  0
   11.3549   10.8687   29.2983 C   0  0  0  0  0  0  0  0  0  0  0  0
   11.1289   11.3883   28.0856 N   0  0  0  0  0  0  0  0  0  0  0  0
   11.0418   10.4369   27.1002 C   0  0  0  0  0  0  0  0  0  0  0  0
   11.1591    9.0730   27.2379 C   0  0  0  0  0  0  0  0  0  0  0  0
   11.3992    8.5103   28.5222 C   0  0  0  0  0  0  0  0  0  0  0  0
   11.5355    7.3282   28.8622 O   0  0  0  0  0  0  0  0  0  0  0  0
   11.0060    8.4960   26.0042 N   0  0  0  0  0  0  0  0  0  0  0  0
   10.7967    9.4998   25.1312 C   0  0  0  0  0  0  0  0  0  0  0  0
   10.8145   10.7114   25.7750 N   0  0  0  0  0  0  0  0  0  0  0  0
  1  2  1  0  0  0  0
  1  6  1  0  0  0  0
  2  3  2  0  0  0  0
  3  4  1  0  0  0  0
  4  5  2  0  0  0  0
  4 10  1  0  0  0  0
  5  6  1  0  0  0  0
  5  8  1  0  0  0  0
  6  7  2  0  0  0  0
  8  9  1  0  0  0  0
  9 10  2  0  0  0  0
M  END
>  <CHROM.1>
11.17895258,9.54049731,27.57826476,0.11521090,-1.40071364,0.42105663

>  <Name>
ligand

>  <RI>
0

>  <Rbt.Current_Directory>
/home/itssahil/PROJECTS/Mol_Feturizer/New_Systems/rnas/2EET

>  <Rbt.Executable>
rbdock ($Id: //depot/dev/client3/rdock/2013.1/src/exe/rbdock.cxx#4 $)

>  <Rbt.Library>
libRbt.so (2013.1, Build901 2013/11/27)

>  <Rbt.Parameter_File>
/export/apps/rDock/src/rDock_2013.1_src/data/scripts/dock_solv.prm

>  <Rbt.Receptor>
prm/pocket_docking_4.prm

>  <SCORE>
-18.0922

>  <SCORE.INTER>
-18.0923

>  <SCORE.INTER.CONST>
1

>  <SCORE.INTER.POLAR>
0

>  <SCORE.INTER.ROT>
0

>  <SCORE.INTER.SOLV>
4.22498

>  <SCORE.INTER.VDW>
-17.0698

>  <SCORE.INTER.norm>
-1.80923

>  <SCORE.INTRA>
0

>  <SCORE.INTRA.DIHEDRAL>
0

>  <SCORE.INTRA.DIHEDRAL.0>
0

>  <SCORE.INTRA.POLAR>
0

>  <SCORE.INTRA.POLAR.0>
0

>  <SCORE.INTRA.REPUL>
0

>  <SCORE.INTRA.REPUL.0>
0

>  <SCORE.INTRA.SOLV>
0

>  <SCORE.INTRA.SOLV.lig_0>
-4.28464

>  <SCORE.INTRA.VDW>
0

>  <SCORE.INTRA.VDW.0>
0

>  <SCORE.INTRA.norm>
0

>  <SCORE.RESTR>
6.80138e-05

>  <SCORE.RESTR.CAVITY>
6.80138e-05

>  <SCORE.RESTR.norm>
6.80138e-06

>  <SCORE.SYSTEM>
0

>  <SCORE.SYSTEM.CONST>
0

>  <SCORE.SYSTEM.DIHEDRAL>
0

>  <SCORE.SYSTEM.SOLV>
0

>  <SCORE.SYSTEM.norm>
0

>  <SCORE.heavy>
10

>  <SCORE.norm>
-1.80922

>  <RMSD>
0.722

$$$$
ligand
 OpenBabel11021811423D
libRbt.so/2013.1/901 2013/11/27
 10 11  0  0  0  0  0  0  0  0999 V2000
   11.4888    9.5388   29.5243 N   0  0  0  0  0  0  0  0  0  0  0  0
   11.3502   10.8992   29.3102 C   0  0  0  0  0  0  0  0  0  0  0  0
   11.1212   11.4035   28.0916 N   0  0  0  0  0  0  0  0  0  0  0  0
   11.0438   10.4408   27.1166 C   0  0  0  0  0  0  0  0  0  0  0  0
   11.1729    9.0795   27.2693 C   0  0  0  0  0  0  0  0  0  0  0  0
   11.4162    8.5330   28.5599 C   0  0  0  0  0  0  0  0  0  0  0  0
   11.5624    7.3559   28.9130 O   0  0  0  0  0  0  0  0  0  0  0  0
   11.0265    8.4878   26.0418 N   0  0  0  0  0  0  0  0  0  0  0  0
   10.8095    9.4801   25.1576 C   0  0  0  0  0  0  0  0  0  0  0  0
   10.8159   10.6988   25.7882 N   0  0  0  0  0  0  0  0  0  0  0  0
  1  2  1  0  0  0  0
  1  6  1  0  0  0  0
  2  3  2  0  0  0  0
  3  4  1  0  0  0  0
  4  5  2  0  0  0  0
  4 10  1  0  0  0  0
  5  6  1  0  0  0  0
  5  8  1  0  0  0  0
  6  7  2  0  0  0  0
  8  9  1  0  0  0  0
  9 10  2  0  0  0  0
M  END
>  <CHROM.1>
11.18816895,9.55084841,27.60452869,0.16492974,-1.39813910,0.45914890

>  <Name>
ligand

>  <RI>
0

>  <Rbt.Current_Directory>
/home/itssahil/PROJECTS/Mol_Feturizer/New_Systems/rnas/2EET

>  <Rbt.Executable>
rbdock ($Id: //depot/dev/client3/rdock/2013.1/src/exe/rbdock.cxx#4 $)

>  <Rbt.Library>
libRbt.so (2013.1, Build901 2013/11/27)

>  <Rbt.Parameter_File>
/export/apps/rDock/src/rDock_2013.1_src/data/scripts/dock_solv.prm

>  <Rbt.Receptor>
prm/pocket_docking_4.prm

>  <SCORE>
-18.0241

>  <SCORE.INTER>
-18.0241

>  <SCORE.INTER.CONST>
1

>  <SCORE.INTER.POLAR>
0

>  <SCORE.INTER.ROT>
0

>  <SCORE.INTER.SOLV>
4.21782

>  <SCORE.INTER.VDW>
-17.022

>  <SCORE.INTER.norm>
-1.80241

>  <SCORE.INTRA>
0

>  <SCORE.INTRA.DIHEDRAL>
0

>  <SCORE.INTRA.DIHEDRAL.0>
0

>  <SCORE.INTRA.POLAR>
0

>  <SCORE.INTRA.POLAR.0>
0

>  <SCORE.INTRA.REPUL>
0

>  <SCORE.INTRA.REPUL.0>
0

>  <SCORE.INTRA.SOLV>
0

>  <SCORE.INTRA.SOLV.lig_0>
-4.28464

>  <SCORE.INTRA.VDW>
0

>  <SCORE.INTRA.VDW.0>
0

>  <SCORE.INTRA.norm>
0

>  <SCORE.RESTR>
0

>  <SCORE.RESTR.CAVITY>
0

>  <SCORE.RESTR.norm>
0

>  <SCORE.SYSTEM>
0

>  <SCORE.SYSTEM.CONST>
0

>  <SCORE.SYSTEM.DIHEDRAL>
0

>  <SCORE.SYSTEM.SOLV>
0

>  <SCORE.SYSTEM.norm>
0

>  <SCORE.heavy>
10

>  <SCORE.norm>
-1.80241

>  <RMSD>
0.722

$$$$
ligand
 OpenBabel11021811423D
libRbt.so/2013.1/901 2013/11/27
 10 11  0  0  0  0  0  0  0  0999 V2000
   11.4898    9.5039   29.4885 N   0  0  0  0  0  0  0  0  0  0  0  0
   11.3578   10.8676   29.2918 C   0  0  0  0  0  0  0  0  0  0  0  0
   11.1277   11.3882   28.0803 N   0  0  0  0  0  0  0  0  0  0  0  0
   11.0420   10.4381   27.0937 C   0  0  0  0  0  0  0  0  0  0  0  0
   11.1643    9.0743   27.2290 C   0  0  0  0  0  0  0  0  0  0  0  0
   11.4088    8.5105   28.5120 C   0  0  0  0  0  0  0  0  0  0  0  0
   11.5497    7.3284   28.8500 O   0  0  0  0  0  0  0  0  0  0  0  0
   11.0108    8.4987   25.9948 N   0  0  0  0  0  0  0  0  0  0  0  0
   10.7964    9.5031   25.1236 C   0  0  0  0  0  0  0  0  0  0  0  0
   10.8113   10.7137   25.7693 N   0  0  0  0  0  0  0  0  0  0  0  0
  1  2  1  0  0  0  0
  1  6  1  0  0  0  0
  2  3  2  0  0  0  0
  3  4  1  0  0  0  0
  4  5  2  0  0  0  0
  4 10  1  0  0  0  0
  5  6  1  0  0  0  0
  5  8  1  0  0  0  0
  6  7  2  0  0  0  0
  8  9  1  0  0  0  0
  9 10  2  0  0  0  0
M  END
>  <CHROM.1>
11.18314927,9.54137391,27.57006310,0.12889833,-1.39756352,0.43606541

>  <Name>
ligand

>  <RI>
0

>  <Rbt.Current_Directory>
/home/itssahil/PROJECTS/Mol_Feturizer/New_Systems/rnas/2EET

>  <Rbt.Executable>
rbdock ($Id: //depot/dev/client3/rdock/2013.1/src/exe/rbdock.cxx#4 $)

>  <Rbt.Library>
libRbt.so (2013.1, Build901 2013/11/27)

>  <Rbt.Parameter_File>
/export/apps/rDock/src/rDock_2013.1_src/data/scripts/dock_solv.prm

>  <Rbt.Receptor>
prm/pocket_docking_6.prm

>  <SCORE>
-18.0883

>  <SCORE.INTER>
-18.0883

>  <SCORE.INTER.CONST>
1

>  <SCORE.INTER.POLAR>
0

>  <SCORE.INTER.ROT>
0

>  <SCORE.INTER.SOLV>
4.19925

>  <SCORE.INTER.VDW>
-17.0586

>  <SCORE.INTER.norm>
-1.80883

>  <SCORE.INTRA>
0

>  <SCORE.INTRA.DIHEDRAL>
0

>  <SCORE.INTRA.DIHEDRAL.0>
0

>  <SCORE.INTRA.POLAR>
0

>  <SCORE.INTRA.POLAR.0>
0

>  <SCORE.INTRA.REPUL>
0

>  <SCORE.INTRA.REPUL.0>
0

>  <SCORE.INTRA.SOLV>
0

>  <SCORE.INTRA.SOLV.lig_0>
-4.28464

>  <SCORE.INTRA.VDW>
0

>  <SCORE.INTRA.VDW.0>
0

>  <SCORE.INTRA.norm>
0

>  <SCORE.RESTR>
0

>  <SCORE.RESTR.CAVITY>
0

>  <SCORE.RESTR.norm>
0

>  <SCORE.SYSTEM>
0

>  <SCORE.SYSTEM.CONST>
0

>  <SCORE.SYSTEM.DIHEDRAL>
0

>  <SCORE.SYSTEM.SOLV>
0

>  <SCORE.SYSTEM.norm>
0

>  <SCORE.heavy>
10

>  <SCORE.norm>
-1.80883

>  <RMSD>
0.722

$$$$
ligand
 OpenBabel11021811423D
libRbt.so/2013.1/901 2013/11/27
 10 11  0  0  0  0  0  0  0  0999 V2000
   11.4959    9.5020   29.4795 N   0  0  0  0  0  0  0  0  0  0  0  0
   11.3607   10.8657   29.2857 C   0  0  0  0  0  0  0  0  0  0  0  0
   11.1288   11.3883   28.0754 N   0  0  0  0  0  0  0  0  0  0  0  0
   11.0448   10.4399   27.0868 C   0  0  0  0  0  0  0  0  0  0  0  0
   11.1702    9.0762   27.2194 C   0  0  0  0  0  0  0  0  0  0  0  0
   11.4166    8.5103   28.5010 C   0  0  0  0  0  0  0  0  0  0  0  0
   11.5604    7.3279   28.8366 O   0  0  0  0  0  0  0  0  0  0  0  0
   11.0174    8.5027   25.9840 N   0  0  0  0  0  0  0  0  0  0  0  0
   10.8003    9.5084   25.1150 C   0  0  0  0  0  0  0  0  0  0  0  0
   10.8128   10.7178   25.7631 N   0  0  0  0  0  0  0  0  0  0  0  0
  1  2  1  0  0  0  0
  1  6  1  0  0  0  0
  2  3  2  0  0  0  0
  3  4  1  0  0  0  0
  4  5  2  0  0  0  0
  4 10  1  0  0  0  0
  5  6  1  0  0  0  0
  5  8  1  0  0  0  0
  6  7  2  0  0  0  0
  8  9  1  0  0  0  0
  9 10  2  0  0  0  0
M  END
>  <CHROM.1>
11.18820162,9.54260822,27.56132477,0.13948637,-1.39615186,0.44851731

>  <Name>
ligand

>  <RI>
0

>  <Rbt.Current_Directory>
/home/itssahil/PROJECTS/Mol_Feturizer/New_Systems/rnas/2EET

>  <Rbt.Executable>
rbdock ($Id: //depot/dev/client3/rdock/2013.1/src/exe/rbdock.cxx#4 $)

>  <Rbt.Library>
libRbt.so (2013.1, Build901 2013/11/27)

>  <Rbt.Parameter_File>
/export/apps/rDock/src/rDock_2013.1_src/data/scripts/dock_solv.prm

>  <Rbt.Receptor>
prm/pocket_docking_7.prm

>  <SCORE>
-18.0849

>  <SCORE.INTER>
-18.0849

>  <SCORE.INTER.CONST>
1

>  <SCORE.INTER.POLAR>
0

>  <SCORE.INTER.ROT>
0

>  <SCORE.INTER.SOLV>
4.17812

>  <SCORE.INTER.VDW>
-17.0493

>  <SCORE.INTER.norm>
-1.80849

>  <SCORE.INTRA>
0

>  <SCORE.INTRA.DIHEDRAL>
0

>  <SCORE.INTRA.DIHEDRAL.0>
0

>  <SCORE.INTRA.POLAR>
0

>  <SCORE.INTRA.POLAR.0>
0

>  <SCORE.INTRA.REPUL>
0

>  <SCORE.INTRA.REPUL.0>
0

>  <SCORE.INTRA.SOLV>
0

>  <SCORE.INTRA.SOLV.lig_0>
-4.28464

>  <SCORE.INTRA.VDW>
0

>  <SCORE.INTRA.VDW.0>
0

>  <SCORE.INTRA.norm>
0

>  <SCORE.RESTR>
2.21108e-05

>  <SCORE.RESTR.CAVITY>
2.21108e-05

>  <SCORE.RESTR.norm>
2.21108e-06

>  <SCORE.SYSTEM>
0

>  <SCORE.SYSTEM.CONST>
0

>  <SCORE.SYSTEM.DIHEDRAL>
0

>  <SCORE.SYSTEM.SOLV>
0

>  <SCORE.SYSTEM.norm>
0

>  <SCORE.heavy>
10

>  <SCORE.norm>
-1.80849

>  <RMSD>
0.722

$$$$
ligand
 OpenBabel11021811423D
libRbt.so/2013.1/901 2013/11/27
 10 11  0  0  0  0  0  0  0  0999 V2000
   11.4954    9.5087   29.5100 N   0  0  0  0  0  0  0  0  0  0  0  0
   11.3549   10.8677   29.2888 C   0  0  0  0  0  0  0  0  0  0  0  0
   11.1256   11.3654   28.0675 N   0  0  0  0  0  0  0  0  0  0  0  0
   11.0498   10.3974   27.0975 C   0  0  0  0  0  0  0  0  0  0  0  0
   11.1808    9.0371   27.2573 C   0  0  0  0  0  0  0  0  0  0  0  0
   11.4245    8.4977   28.5508 C   0  0  0  0  0  0  0  0  0  0  0  0
   11.5722    7.3227   28.9101 O   0  0  0  0  0  0  0  0  0  0  0  0
   11.0356    8.4388   26.0329 N   0  0  0  0  0  0  0  0  0  0  0  0
   10.8175    9.4262   25.1434 C   0  0  0  0  0  0  0  0  0  0  0  0
   10.8220   10.6481   25.7677 N   0  0  0  0  0  0  0  0  0  0  0  0
  1  2  1  0  0  0  0
  1  6  1  0  0  0  0
  2  3  2  0  0  0  0
  3  4  1  0  0  0  0
  4  5  2  0  0  0  0
  4 10  1  0  0  0  0
  5  6  1  0  0  0  0
  5  8  1  0  0  0  0
  6  7  2  0  0  0  0
  8  9  1  0  0  0  0
  9 10  2  0  0  0  0
M  END
>  <CHROM.1>
11.19532285,9.51026035,27.59011346,0.17299113,-1.39777812,0.46186249

>  <Name>
ligand

>  <RI>
0

>  <Rbt.Current_Directory>
/home/itssahil/PROJECTS/Mol_Feturizer/New_Systems/rnas/2EET

>  <Rbt.Executable>
rbdock ($Id: //depot/dev/client3/rdock/2013.1/src/exe/rbdock.cxx#4 $)

>  <Rbt.Library>
libRbt.so (2013.1, Build901 2013/11/27)

>  <Rbt.Parameter_File>
/export/apps/rDock/src/rDock_2013.1_src/data/scripts/dock_solv.prm

>  <Rbt.Receptor>
prm/pocket_docking_8.prm

>  <SCORE>
-18.0706

>  <SCORE.INTER>
-18.0706

>  <SCORE.INTER.CONST>
1

>  <SCORE.INTER.POLAR>
0

>  <SCORE.INTER.ROT>
0

>  <SCORE.INTER.SOLV>
4.20425

>  <SCORE.INTER.VDW>
-17.0485

>  <SCORE.INTER.norm>
-1.80706

>  <SCORE.INTRA>
0

>  <SCORE.INTRA.DIHEDRAL>
0

>  <SCORE.INTRA.DIHEDRAL.0>
0

>  <SCORE.INTRA.POLAR>
0

>  <SCORE.INTRA.POLAR.0>
0

>  <SCORE.INTRA.REPUL>
0

>  <SCORE.INTRA.REPUL.0>
0

>  <SCORE.INTRA.SOLV>
0

>  <SCORE.INTRA.SOLV.lig_0>
-4.28464

>  <SCORE.INTRA.VDW>
0

>  <SCORE.INTRA.VDW.0>
0

>  <SCORE.INTRA.norm>
0

>  <SCORE.RESTR>
0

>  <SCORE.RESTR.CAVITY>
0

>  <SCORE.RESTR.norm>
0

>  <SCORE.SYSTEM>
0

>  <SCORE.SYSTEM.CONST>
0

>  <SCORE.SYSTEM.DIHEDRAL>
0

>  <SCORE.SYSTEM.SOLV>
0

>  <SCORE.SYSTEM.norm>
0

>  <SCORE.heavy>
10

>  <SCORE.norm>
-1.80706

>  <RMSD>
0.722

$$$$
ligand
 OpenBabel11021811423D
libRbt.so/2013.1/901 2013/11/27
 10 11  0  0  0  0  0  0  0  0999 V2000
   11.4951    9.5031   29.4952 N   0  0  0  0  0  0  0  0  0  0  0  0
   11.3627   10.8652   29.2881 C   0  0  0  0  0  0  0  0  0  0  0  0
   11.1325   11.3765   28.0726 N   0  0  0  0  0  0  0  0  0  0  0  0
   11.0471   10.4188   27.0933 C   0  0  0  0  0  0  0  0  0  0  0  0
   11.1698    9.0561   27.2391 C   0  0  0  0  0  0  0  0  0  0  0  0
   11.4144    8.5023   28.5263 C   0  0  0  0  0  0  0  0  0  0  0  0
   11.5557    7.3228   28.8734 O   0  0  0  0  0  0  0  0  0  0  0  0
   11.0166    8.4710   26.0093 N   0  0  0  0  0  0  0  0  0  0  0  0
   10.8019    9.4686   25.1305 C   0  0  0  0  0  0  0  0  0  0  0  0
   10.8164   10.6842   25.7668 N   0  0  0  0  0  0  0  0  0  0  0  0
  1  2  1  0  0  0  0
  1  6  1  0  0  0  0
  2  3  2  0  0  0  0
  3  4  1  0  0  0  0
  4  5  2  0  0  0  0
  4 10  1  0  0  0  0
  5  6  1  0  0  0  0
  5  8  1  0  0  0  0
  6  7  2  0  0  0  0
  8  9  1  0  0  0  0
  9 10  2  0  0  0  0
M  END
>  <CHROM.1>
11.18855650,9.52580507,27.57653809,0.13062718,-1.39747237,0.43010254

>  <Name>
ligand

>  <RI>
0

>  <Rbt.Current_Directory>
/home/itssahil/PROJECTS/Mol_Feturizer/New_Systems/rnas/2EET

>  <Rbt.Executable>
rbdock ($Id: //depot/dev/client3/rdock/2013.1/src/exe/rbdock.cxx#4 $)

>  <Rbt.Library>
libRbt.so (2013.1, Build901 2013/11/27)

>  <Rbt.Parameter_File>
/export/apps/rDock/src/rDock_2013.1_src/data/scripts/dock_solv.prm

>  <Rbt.Receptor>
prm/pocket_docking_8.prm

>  <SCORE>
-18.0472

>  <SCORE.INTER>
-18.0472

>  <SCORE.INTER.CONST>
1

>  <SCORE.INTER.POLAR>
0

>  <SCORE.INTER.ROT>
0

>  <SCORE.INTER.SOLV>
4.20542

>  <SCORE.INTER.VDW>
-17.0333

>  <SCORE.INTER.norm>
-1.80472

>  <SCORE.INTRA>
0

>  <SCORE.INTRA.DIHEDRAL>
0

>  <SCORE.INTRA.DIHEDRAL.0>
0

>  <SCORE.INTRA.POLAR>
0

>  <SCORE.INTRA.POLAR.0>
0

>  <SCORE.INTRA.REPUL>
0

>  <SCORE.INTRA.REPUL.0>
0

>  <SCORE.INTRA.SOLV>
0

>  <SCORE.INTRA.SOLV.lig_0>
-4.28464

>  <SCORE.INTRA.VDW>
0

>  <SCORE.INTRA.VDW.0>
0

>  <SCORE.INTRA.norm>
0

>  <SCORE.RESTR>
0

>  <SCORE.RESTR.CAVITY>
0

>  <SCORE.RESTR.norm>
0

>  <SCORE.SYSTEM>
0

>  <SCORE.SYSTEM.CONST>
0

>  <SCORE.SYSTEM.DIHEDRAL>
0

>  <SCORE.SYSTEM.SOLV>
0

>  <SCORE.SYSTEM.norm>
0

>  <SCORE.heavy>
10

>  <SCORE.norm>
-1.80472

>  <RMSD>
0.722

$$$$
ligand
 OpenBabel11021811423D
libRbt.so/2013.1/901 2013/11/27
 10 11  0  0  0  0  0  0  0  0999 V2000
   11.4897    9.5036   29.4926 N   0  0  0  0  0  0  0  0  0  0  0  0
   11.3622   10.8674   29.2938 C   0  0  0  0  0  0  0  0  0  0  0  0
   11.1290   11.3865   28.0822 N   0  0  0  0  0  0  0  0  0  0  0  0
   11.0355   10.4348   27.0978 C   0  0  0  0  0  0  0  0  0  0  0  0
   11.1531    9.0708   27.2354 C   0  0  0  0  0  0  0  0  0  0  0  0
   11.4008    8.5086   28.5184 C   0  0  0  0  0  0  0  0  0  0  0  0
   11.5386    7.3266   28.8582 O   0  0  0  0  0  0  0  0  0  0  0  0
   10.9923    8.4934   26.0029 N   0  0  0  0  0  0  0  0  0  0  0  0
   10.7781    9.4969   25.1307 C   0  0  0  0  0  0  0  0  0  0  0  0
   10.8004   10.7087   25.7739 N   0  0  0  0  0  0  0  0  0  0  0  0
  1  2  1  0  0  0  0
  1  6  1  0  0  0  0
  2  3  2  0  0  0  0
  3  4  1  0  0  0  0
  4  5  2  0  0  0  0
  4 10  1  0  0  0  0
  5  6  1  0  0  0  0
  5  8  1  0  0  0  0
  6  7  2  0  0  0  0
  8  9  1  0  0  0  0
  9 10  2  0  0  0  0
M  END
>  <CHROM.1>
11.17523428,9.53849525,27.57540583,0.09874075,-1.39533184,0.40439141

>  <Name>
ligand

>  <RI>
0

>  <Rbt.Current_Directory>
/home/itssahil/PROJECTS/Mol_Feturizer/New_Systems/rnas/2EET

>  <Rbt.Executable>
rbdock ($Id: //depot/dev/client3/rdock/2013.1/src/exe/rbdock.cxx#4 $)

>  <Rbt.Library>
libRbt.so (2013.1, Build901 2013/11/27)

>  <Rbt.Parameter_File>
/export/apps/rDock/src/rDock_2013.1_src/data/scripts/dock_solv.prm

>  <Rbt.Receptor>
prm/pocket_docking_8.prm

>  <SCORE>
-18.085

>  <SCORE.INTER>
-18.085

>  <SCORE.INTER.CONST>
1

>  <SCORE.INTER.POLAR>
0

>  <SCORE.INTER.ROT>
0

>  <SCORE.INTER.SOLV>
4.21579

>  <SCORE.INTER.VDW>
-17.0619

>  <SCORE.INTER.norm>
-1.8085

>  <SCORE.INTRA>
0

>  <SCORE.INTRA.DIHEDRAL>
0

>  <SCORE.INTRA.DIHEDRAL.0>
0

>  <SCORE.INTRA.POLAR>
0

>  <SCORE.INTRA.POLAR.0>
0

>  <SCORE.INTRA.REPUL>
0

>  <SCORE.INTRA.REPUL.0>
0

>  <SCORE.INTRA.SOLV>
0

>  <SCORE.INTRA.SOLV.lig_0>
-4.28464

>  <SCORE.INTRA.VDW>
0

>  <SCORE.INTRA.VDW.0>
0

>  <SCORE.INTRA.norm>
0

>  <SCORE.RESTR>
0

>  <SCORE.RESTR.CAVITY>
0

>  <SCORE.RESTR.norm>
0

>  <SCORE.SYSTEM>
0

>  <SCORE.SYSTEM.CONST>
0

>  <SCORE.SYSTEM.DIHEDRAL>
0

>  <SCORE.SYSTEM.SOLV>
0

>  <SCORE.SYSTEM.norm>
0

>  <SCORE.heavy>
10

>  <SCORE.norm>
-1.8085

>  <RMSD>
0.722

$$$$
ligand
 OpenBabel11021811423D
libRbt.so/2013.1/901 2013/11/27
 10 11  0  0  0  0  0  0  0  0999 V2000
   11.4812    9.5011   29.5132 N   0  0  0  0  0  0  0  0  0  0  0  0
   11.3538   10.8622   29.2966 C   0  0  0  0  0  0  0  0  0  0  0  0
   11.1344   11.3665   28.0763 N   0  0  0  0  0  0  0  0  0  0  0  0
   11.0542   10.4030   27.1022 C   0  0  0  0  0  0  0  0  0  0  0  0
   11.1723    9.0410   27.2573 C   0  0  0  0  0  0  0  0  0  0  0  0
   11.4055    8.4945   28.5498 C   0  0  0  0  0  0  0  0  0  0  0  0
   11.5411    7.3168   28.9052 O   0  0  0  0  0  0  0  0  0  0  0  0
   11.0272    8.4487   26.0300 N   0  0  0  0  0  0  0  0  0  0  0  0
   10.8219    9.4414   25.1434 C   0  0  0  0  0  0  0  0  0  0  0  0
   10.8345   10.6608   25.7723 N   0  0  0  0  0  0  0  0  0  0  0  0
  1  2  1  0  0  0  0
  1  6  1  0  0  0  0
  2  3  2  0  0  0  0
  3  4  1  0  0  0  0
  4  5  2  0  0  0  0
  4 10  1  0  0  0  0
  5  6  1  0  0  0  0
  5  8  1  0  0  0  0
  6  7  2  0  0  0  0
  8  9  1  0  0  0  0
  9 10  2  0  0  0  0
M  END
>  <CHROM.1>
11.18959182,9.51268431,27.59201937,0.13630059,-1.40560270,0.42953474

>  <Name>
ligand

>  <RI>
0

>  <Rbt.Current_Directory>
/home/itssahil/PROJECTS/Mol_Feturizer/New_Systems/rnas/2EET

>  <Rbt.Executable>
rbdock ($Id: //depot/dev/client3/rdock/2013.1/src/exe/rbdock.cxx#4 $)

>  <Rbt.Library>
libRbt.so (2013.1, Build901 2013/11/27)

>  <Rbt.Parameter_File>
/export/apps/rDock/src/rDock_2013.1_src/data/scripts/dock_solv.prm

>  <Rbt.Receptor>
prm/blind_docking_100.prm

>  <SCORE>
-18.0538

>  <SCORE.INTER>
-18.0538

>  <SCORE.INTER.CONST>
1

>  <SCORE.INTER.POLAR>
0

>  <SCORE.INTER.ROT>
0

>  <SCORE.INTER.SOLV>
4.24593

>  <SCORE.INTER.VDW>
-17.0512

>  <SCORE.INTER.norm>
-1.80538

>  <SCORE.INTRA>
0

>  <SCORE.INTRA.DIHEDRAL>
0

>  <SCORE.INTRA.DIHEDRAL.0>
0

>  <SCORE.INTRA.POLAR>
0

>  <SCORE.INTRA.POLAR.0>
0

>  <SCORE.INTRA.REPUL>
0

>  <SCORE.INTRA.REPUL.0>
0

>  <SCORE.INTRA.SOLV>
0

>  <SCORE.INTRA.SOLV.lig_0>
-4.28464

>  <SCORE.INTRA.VDW>
0

>  <SCORE.INTRA.VDW.0>
0

>  <SCORE.INTRA.norm>
0

>  <SCORE.RESTR>
0

>  <SCORE.RESTR.CAVITY>
0

>  <SCORE.RESTR.norm>
0

>  <SCORE.SYSTEM>
0

>  <SCORE.SYSTEM.CONST>
0

>  <SCORE.SYSTEM.DIHEDRAL>
0

>  <SCORE.SYSTEM.SOLV>
0

>  <SCORE.SYSTEM.norm>
0

>  <SCORE.heavy>
10

>  <SCORE.norm>
-1.80538

>  <RMSD>
0.723

$$$$
ligand
 OpenBabel11021811423D
libRbt.so/2013.1/901 2013/11/27
 10 11  0  0  0  0  0  0  0  0999 V2000
   11.5008    9.5066   29.4779 N   0  0  0  0  0  0  0  0  0  0  0  0
   11.3636   10.8698   29.2817 C   0  0  0  0  0  0  0  0  0  0  0  0
   11.1281   11.3897   28.0710 N   0  0  0  0  0  0  0  0  0  0  0  0
   11.0426   10.4394   27.0845 C   0  0  0  0  0  0  0  0  0  0  0  0
   11.1699    9.0760   27.2194 C   0  0  0  0  0  0  0  0  0  0  0  0
   11.4201    8.5130   28.5015 C   0  0  0  0  0  0  0  0  0  0  0  0
   11.5661    7.3313   28.8390 O   0  0  0  0  0  0  0  0  0  0  0  0
   11.0146    8.5000   25.9855 N   0  0  0  0  0  0  0  0  0  0  0  0
   10.7942    9.5037   25.1152 C   0  0  0  0  0  0  0  0  0  0  0  0
   10.8070   10.7144   25.7609 N   0  0  0  0  0  0  0  0  0  0  0  0
  1  2  1  0  0  0  0
  1  6  1  0  0  0  0
  2  3  2  0  0  0  0
  3  4  1  0  0  0  0
  4  5  2  0  0  0  0
  4 10  1  0  0  0  0
  5  6  1  0  0  0  0
  5  8  1  0  0  0  0
  6  7  2  0  0  0  0
  8  9  1  0  0  0  0
  9 10  2  0  0  0  0
M  END
>  <CHROM.1>
11.18821525,9.54314940,27.56039799,0.13884153,-1.39339057,0.44593854

>  <Name>
ligand

>  <RI>
0

>  <Rbt.Current_Directory>
/home/itssahil/PROJECTS/Mol_Feturizer/New_Systems/rnas/2EET

>  <Rbt.Executable>
rbdock ($Id: //depot/dev/client3/rdock/2013.1/src/exe/rbdock.cxx#4 $)

>  <Rbt.Library>
libRbt.so (2013.1, Build901 2013/11/27)

>  <Rbt.Parameter_File>
/export/apps/rDock/src/rDock_2013.1_src/data/scripts/dock_solv.prm

>  <Rbt.Receptor>
prm/blind_docking_40.prm

>  <SCORE>
-18.0809

>  <SCORE.INTER>
-18.0809

>  <SCORE.INTER.CONST>
1

>  <SCORE.INTER.POLAR>
0

>  <SCORE.INTER.ROT>
0

>  <SCORE.INTER.SOLV>
4.1704

>  <SCORE.INTER.VDW>
-17.0441

>  <SCORE.INTER.norm>
-1.80809

>  <SCORE.INTRA>
0

>  <SCORE.INTRA.DIHEDRAL>
0

>  <SCORE.INTRA.DIHEDRAL.0>
0

>  <SCORE.INTRA.POLAR>
0

>  <SCORE.INTRA.POLAR.0>
0

>  <SCORE.INTRA.REPUL>
0

>  <SCORE.INTRA.REPUL.0>
0

>  <SCORE.INTRA.SOLV>
0

>  <SCORE.INTRA.SOLV.lig_0>
-4.28464

>  <SCORE.INTRA.VDW>
0

>  <SCORE.INTRA.VDW.0>
0

>  <SCORE.INTRA.norm>
0

>  <SCORE.RESTR>
0

>  <SCORE.RESTR.CAVITY>
0

>  <SCORE.RESTR.norm>
0

>  <SCORE.SYSTEM>
0

>  <SCORE.SYSTEM.CONST>
0

>  <SCORE.SYSTEM.DIHEDRAL>
0

>  <SCORE.SYSTEM.SOLV>
0

>  <SCORE.SYSTEM.norm>
0

>  <SCORE.heavy>
10

>  <SCORE.norm>
-1.80809

>  <RMSD>
0.723

$$$$
ligand
 OpenBabel11021811423D
libRbt.so/2013.1/901 2013/11/27
 10 11  0  0  0  0  0  0  0  0999 V2000
   11.4981    9.5093   29.5088 N   0  0  0  0  0  0  0  0  0  0  0  0
   11.3633   10.8687   29.2867 C   0  0  0  0  0  0  0  0  0  0  0  0
   11.1353   11.3664   28.0652 N   0  0  0  0  0  0  0  0  0  0  0  0
   11.0546   10.3981   27.0960 C   0  0  0  0  0  0  0  0  0  0  0  0
   11.1799    9.0374   27.2567 C   0  0  0  0  0  0  0  0  0  0  0  0
   11.4222    8.4979   28.5504 C   0  0  0  0  0  0  0  0  0  0  0  0
   11.5651    7.3225   28.9105 O   0  0  0  0  0  0  0  0  0  0  0  0
   11.0312    8.4388   26.0328 N   0  0  0  0  0  0  0  0  0  0  0  0
   10.8168    9.4265   25.1428 C   0  0  0  0  0  0  0  0  0  0  0  0
   10.8269   10.6488   25.7661 N   0  0  0  0  0  0  0  0  0  0  0  0
  1  2  1  0  0  0  0
  1  6  1  0  0  0  0
  2  3  2  0  0  0  0
  3  4  1  0  0  0  0
  4  5  2  0  0  0  0
  4 10  1  0  0  0  0
  5  6  1  0  0  0  0
  5  8  1  0  0  0  0
  6  7  2  0  0  0  0
  8  9  1  0  0  0  0
  9 10  2  0  0  0  0
M  END
>  <CHROM.1>
11.19667752,9.51069307,27.58912589,0.14870014,-1.39900969,0.43719608

>  <Name>
ligand

>  <RI>
0

>  <Rbt.Current_Directory>
/home/itssahil/PROJECTS/Mol_Feturizer/New_Systems/rnas/2EET

>  <Rbt.Executable>
rbdock ($Id: //depot/dev/client3/rdock/2013.1/src/exe/rbdock.cxx#4 $)

>  <Rbt.Library>
libRbt.so (2013.1, Build901 2013/11/27)

>  <Rbt.Parameter_File>
/export/apps/rDock/src/rDock_2013.1_src/data/scripts/dock_solv.prm

>  <Rbt.Receptor>
prm/blind_docking_40.prm

>  <SCORE>
-18.08

>  <SCORE.INTER>
-18.08

>  <SCORE.INTER.CONST>
1

>  <SCORE.INTER.POLAR>
0

>  <SCORE.INTER.ROT>
0

>  <SCORE.INTER.SOLV>
4.2146

>  <SCORE.INTER.VDW>
-17.0582

>  <SCORE.INTER.norm>
-1.808

>  <SCORE.INTRA>
0

>  <SCORE.INTRA.DIHEDRAL>
0

>  <SCORE.INTRA.DIHEDRAL.0>
0

>  <SCORE.INTRA.POLAR>
0

>  <SCORE.INTRA.POLAR.0>
0

>  <SCORE.INTRA.REPUL>
0

>  <SCORE.INTRA.REPUL.0>
0

>  <SCORE.INTRA.SOLV>
0

>  <SCORE.INTRA.SOLV.lig_0>
-4.28464

>  <SCORE.INTRA.VDW>
0

>  <SCORE.INTRA.VDW.0>
0

>  <SCORE.INTRA.norm>
0

>  <SCORE.RESTR>
0

>  <SCORE.RESTR.CAVITY>
0

>  <SCORE.RESTR.norm>
0

>  <SCORE.SYSTEM>
0

>  <SCORE.SYSTEM.CONST>
0

>  <SCORE.SYSTEM.DIHEDRAL>
0

>  <SCORE.SYSTEM.SOLV>
0

>  <SCORE.SYSTEM.norm>
0

>  <SCORE.heavy>
10

>  <SCORE.norm>
-1.808

>  <RMSD>
0.723

$$$$
ligand
 OpenBabel11021811423D
libRbt.so/2013.1/901 2013/11/27
 10 11  0  0  0  0  0  0  0  0999 V2000
   11.4924    9.5040   29.4806 N   0  0  0  0  0  0  0  0  0  0  0  0
   11.3561   10.8676   29.2867 C   0  0  0  0  0  0  0  0  0  0  0  0
   11.1278   11.3902   28.0757 N   0  0  0  0  0  0  0  0  0  0  0  0
   11.0485   10.4421   27.0866 C   0  0  0  0  0  0  0  0  0  0  0  0
   11.1753    9.0785   27.2192 C   0  0  0  0  0  0  0  0  0  0  0  0
   11.4178    8.5126   28.5015 C   0  0  0  0  0  0  0  0  0  0  0  0
   11.5620    7.3302   28.8372 O   0  0  0  0  0  0  0  0  0  0  0  0
   11.0276    8.5052   25.9831 N   0  0  0  0  0  0  0  0  0  0  0  0
   10.8123    9.5109   25.1137 C   0  0  0  0  0  0  0  0  0  0  0  0
   10.8209   10.7201   25.7622 N   0  0  0  0  0  0  0  0  0  0  0  0
  1  2  1  0  0  0  0
  1  6  1  0  0  0  0
  2  3  2  0  0  0  0
  3  4  1  0  0  0  0
  4  5  2  0  0  0  0
  4 10  1  0  0  0  0
  5  6  1  0  0  0  0
  5  8  1  0  0  0  0
  6  7  2  0  0  0  0
  8  9  1  0  0  0  0
  9 10  2  0  0  0  0
M  END
>  <CHROM.1>
11.19142493,9.54481781,27.56134215,0.15532021,-1.39876464,0.46443349

>  <Name>
ligand

>  <RI>
0

>  <Rbt.Current_Directory>
/home/itssahil/PROJECTS/Mol_Feturizer/New_Systems/rnas/2EET

>  <Rbt.Executable>
rbdock ($Id: //depot/dev/client3/rdock/2013.1/src/exe/rbdock.cxx#4 $)

>  <Rbt.Library>
libRbt.so (2013.1, Build901 2013/11/27)

>  <Rbt.Parameter_File>
/export/apps/rDock/src/rDock_2013.1_src/data/scripts/dock_solv.prm

>  <Rbt.Receptor>
prm/blind_docking_60.prm

>  <SCORE>
-18.0804

>  <SCORE.INTER>
-18.0804

>  <SCORE.INTER.CONST>
1

>  <SCORE.INTER.POLAR>
0

>  <SCORE.INTER.ROT>
0

>  <SCORE.INTER.SOLV>
4.17793

>  <SCORE.INTER.VDW>
-17.0462

>  <SCORE.INTER.norm>
-1.80804

>  <SCORE.INTRA>
0

>  <SCORE.INTRA.DIHEDRAL>
0

>  <SCORE.INTRA.DIHEDRAL.0>
0

>  <SCORE.INTRA.POLAR>
0

>  <SCORE.INTRA.POLAR.0>
0

>  <SCORE.INTRA.REPUL>
0

>  <SCORE.INTRA.REPUL.0>
0

>  <SCORE.INTRA.SOLV>
0

>  <SCORE.INTRA.SOLV.lig_0>
-4.28464

>  <SCORE.INTRA.VDW>
0

>  <SCORE.INTRA.VDW.0>
0

>  <SCORE.INTRA.norm>
0

>  <SCORE.RESTR>
0

>  <SCORE.RESTR.CAVITY>
0

>  <SCORE.RESTR.norm>
0

>  <SCORE.SYSTEM>
0

>  <SCORE.SYSTEM.CONST>
0

>  <SCORE.SYSTEM.DIHEDRAL>
0

>  <SCORE.SYSTEM.SOLV>
0

>  <SCORE.SYSTEM.norm>
0

>  <SCORE.heavy>
10

>  <SCORE.norm>
-1.80804

>  <RMSD>
0.723

$$$$
ligand
 OpenBabel11021811423D
libRbt.so/2013.1/901 2013/11/27
 10 11  0  0  0  0  0  0  0  0999 V2000
   11.4813    9.5046   29.4971 N   0  0  0  0  0  0  0  0  0  0  0  0
   11.3552   10.8684   29.2979 C   0  0  0  0  0  0  0  0  0  0  0  0
   11.1291   11.3880   28.0852 N   0  0  0  0  0  0  0  0  0  0  0  0
   11.0410   10.4366   27.1000 C   0  0  0  0  0  0  0  0  0  0  0  0
   11.1575    9.0725   27.2378 C   0  0  0  0  0  0  0  0  0  0  0  0
   11.3976    8.5099   28.5221 C   0  0  0  0  0  0  0  0  0  0  0  0
   11.5332    7.3278   28.8623 O   0  0  0  0  0  0  0  0  0  0  0  0
   11.0035    8.4955   26.0043 N   0  0  0  0  0  0  0  0  0  0  0  0
   10.7946    9.4993   25.1312 C   0  0  0  0  0  0  0  0  0  0  0  0
   10.8135   10.7110   25.7748 N   0  0  0  0  0  0  0  0  0  0  0  0
  1  2  1  0  0  0  0
  1  6  1  0  0  0  0
  2  3  2  0  0  0  0
  3  4  1  0  0  0  0
  4  5  2  0  0  0  0
  4 10  1  0  0  0  0
  5  6  1  0  0  0  0
  5  8  1  0  0  0  0
  6  7  2  0  0  0  0
  8  9  1  0  0  0  0
  9 10  2  0  0  0  0
M  END
>  <CHROM.1>
11.17773764,9.54008786,27.57809903,0.11064386,-1.40067248,0.41641365

>  <Name>
ligand

>  <RI>
0

>  <Rbt.Current_Directory>
/home/itssahil/PROJECTS/Mol_Feturizer/New_Systems/rnas/2EET

>  <Rbt.Executable>
rbdock ($Id: //depot/dev/client3/rdock/2013.1/src/exe/rbdock.cxx#4 $)

>  <Rbt.Library>
libRbt.so (2013.1, Build901 2013/11/27)

>  <Rbt.Parameter_File>
/export/apps/rDock/src/rDock_2013.1_src/data/scripts/dock_solv.prm

>  <Rbt.Receptor>
prm/blind_docking_60.prm

>  <SCORE>
-18.0914

>  <SCORE.INTER>
-18.0915

>  <SCORE.INTER.CONST>
1

>  <SCORE.INTER.POLAR>
0

>  <SCORE.INTER.ROT>
0

>  <SCORE.INTER.SOLV>
4.22768

>  <SCORE.INTER.VDW>
-17.0703

>  <SCORE.INTER.norm>
-1.80915

>  <SCORE.INTRA>
0

>  <SCORE.INTRA.DIHEDRAL>
0

>  <SCORE.INTRA.DIHEDRAL.0>
0

>  <SCORE.INTRA.POLAR>
0

>  <SCORE.INTRA.POLAR.0>
0

>  <SCORE.INTRA.REPUL>
0

>  <SCORE.INTRA.REPUL.0>
0

>  <SCORE.INTRA.SOLV>
0

>  <SCORE.INTRA.SOLV.lig_0>
-4.28464

>  <SCORE.INTRA.VDW>
0

>  <SCORE.INTRA.VDW.0>
0

>  <SCORE.INTRA.norm>
0

>  <SCORE.RESTR>
0.000174355

>  <SCORE.RESTR.CAVITY>
0.000174355

>  <SCORE.RESTR.norm>
1.74355e-05

>  <SCORE.SYSTEM>
0

>  <SCORE.SYSTEM.CONST>
0

>  <SCORE.SYSTEM.DIHEDRAL>
0

>  <SCORE.SYSTEM.SOLV>
0

>  <SCORE.SYSTEM.norm>
0

>  <SCORE.heavy>
10

>  <SCORE.norm>
-1.80914

>  <RMSD>
0.723

$$$$
ligand
 OpenBabel11021811423D
libRbt.so/2013.1/901 2013/11/27
 10 11  0  0  0  0  0  0  0  0999 V2000
   11.4981    9.4905   29.4956 N   0  0  0  0  0  0  0  0  0  0  0  0
   11.3675   10.8514   29.2793 C   0  0  0  0  0  0  0  0  0  0  0  0
   11.1402   11.3549   28.0601 N   0  0  0  0  0  0  0  0  0  0  0  0
   11.0558   10.3909   27.0868 C   0  0  0  0  0  0  0  0  0  0  0  0
   11.1768    9.0291   27.2418 C   0  0  0  0  0  0  0  0  0  0  0  0
   11.4183    8.4834   28.5331 C   0  0  0  0  0  0  0  0  0  0  0  0
   11.5577    7.3061   28.8882 O   0  0  0  0  0  0  0  0  0  0  0  0
   11.0255    8.4362   26.0155 N   0  0  0  0  0  0  0  0  0  0  0  0
   10.8136    9.4282   25.1298 C   0  0  0  0  0  0  0  0  0  0  0  0
   10.8281   10.6479   25.7582 N   0  0  0  0  0  0  0  0  0  0  0  0
  1  2  1  0  0  0  0
  1  6  1  0  0  0  0
  2  3  2  0  0  0  0
  3  4  1  0  0  0  0
  4  5  2  0  0  0  0
  4 10  1  0  0  0  0
  5  6  1  0  0  0  0
  5  8  1  0  0  0  0
  6  7  2  0  0  0  0
  8  9  1  0  0  0  0
  9 10  2  0  0  0  0
M  END
>  <CHROM.1>
11.19537913,9.50096465,27.57619511,0.13001799,-1.39973999,0.42296781

>  <Name>
ligand

>  <RI>
0

>  <Rbt.Current_Directory>
/home/itssahil/PROJECTS/Mol_Feturizer/New_Systems/rnas/2EET

>  <Rbt.Executable>
rbdock ($Id: //depot/dev/client3/rdock/2013.1/src/exe/rbdock.cxx#4 $)

>  <Rbt.Library>
libRbt.so (2013.1, Build901 2013/11/27)

>  <Rbt.Parameter_File>
/export/apps/rDock/src/rDock_2013.1_src/data/scripts/dock_solv.prm

>  <Rbt.Receptor>
prm/pocket_docking_3.prm

>  <SCORE>
-18.0485

>  <SCORE.INTER>
-18.0485

>  <SCORE.INTER.CONST>
1

>  <SCORE.INTER.POLAR>
0

>  <SCORE.INTER.ROT>
0

>  <SCORE.INTER.SOLV>
4.21334

>  <SCORE.INTER.VDW>
-17.0367

>  <SCORE.INTER.norm>
-1.80485

>  <SCORE.INTRA>
0

>  <SCORE.INTRA.DIHEDRAL>
0

>  <SCORE.INTRA.DIHEDRAL.0>
0

>  <SCORE.INTRA.POLAR>
0

>  <SCORE.INTRA.POLAR.0>
0

>  <SCORE.INTRA.REPUL>
0

>  <SCORE.INTRA.REPUL.0>
0

>  <SCORE.INTRA.SOLV>
0

>  <SCORE.INTRA.SOLV.lig_0>
-4.28464

>  <SCORE.INTRA.VDW>
0

>  <SCORE.INTRA.VDW.0>
0

>  <SCORE.INTRA.norm>
0

>  <SCORE.RESTR>
0

>  <SCORE.RESTR.CAVITY>
0

>  <SCORE.RESTR.norm>
0

>  <SCORE.SYSTEM>
0

>  <SCORE.SYSTEM.CONST>
0

>  <SCORE.SYSTEM.DIHEDRAL>
0

>  <SCORE.SYSTEM.SOLV>
0

>  <SCORE.SYSTEM.norm>
0

>  <SCORE.heavy>
10

>  <SCORE.norm>
-1.80485

>  <RMSD>
0.723

$$$$
ligand
 OpenBabel11021811423D
libRbt.so/2013.1/901 2013/11/27
 10 11  0  0  0  0  0  0  0  0999 V2000
   11.4927    9.5079   29.4786 N   0  0  0  0  0  0  0  0  0  0  0  0
   11.3460   10.8703   29.2835 C   0  0  0  0  0  0  0  0  0  0  0  0
   11.1130   11.3901   28.0722 N   0  0  0  0  0  0  0  0  0  0  0  0
   11.0402   10.4405   27.0840 C   0  0  0  0  0  0  0  0  0  0  0  0
   11.1774    9.0780   27.2177 C   0  0  0  0  0  0  0  0  0  0  0  0
   11.4250    8.5151   28.5004 C   0  0  0  0  0  0  0  0  0  0  0  0
   11.5783    7.3341   28.8371 O   0  0  0  0  0  0  0  0  0  0  0  0
   11.0333    8.5025   25.9822 N   0  0  0  0  0  0  0  0  0  0  0  0
   10.8098    9.5057   25.1121 C   0  0  0  0  0  0  0  0  0  0  0  0
   10.8097   10.7155   25.7595 N   0  0  0  0  0  0  0  0  0  0  0  0
  1  2  1  0  0  0  0
  1  6  1  0  0  0  0
  2  3  2  0  0  0  0
  3  4  1  0  0  0  0
  4  5  2  0  0  0  0
  4 10  1  0  0  0  0
  5  6  1  0  0  0  0
  5  8  1  0  0  0  0
  6  7  2  0  0  0  0
  8  9  1  0  0  0  0
  9 10  2  0  0  0  0
M  END
>  <CHROM.1>
11.19023791,9.54473051,27.55945792,0.19224666,-1.39469821,0.49990070

>  <Name>
ligand

>  <RI>
0

>  <Rbt.Current_Directory>
/home/itssahil/PROJECTS/Mol_Feturizer/New_Systems/rnas/2EET

>  <Rbt.Executable>
rbdock ($Id: //depot/dev/client3/rdock/2013.1/src/exe/rbdock.cxx#4 $)

>  <Rbt.Library>
libRbt.so (2013.1, Build901 2013/11/27)

>  <Rbt.Parameter_File>
/export/apps/rDock/src/rDock_2013.1_src/data/scripts/dock_solv.prm

>  <Rbt.Receptor>
prm/pocket_docking_5.prm

>  <SCORE>
-18.0573

>  <SCORE.INTER>
-18.0573

>  <SCORE.INTER.CONST>
1

>  <SCORE.INTER.POLAR>
0

>  <SCORE.INTER.ROT>
0

>  <SCORE.INTER.SOLV>
4.15386

>  <SCORE.INTER.VDW>
-17.0228

>  <SCORE.INTER.norm>
-1.80573

>  <SCORE.INTRA>
0

>  <SCORE.INTRA.DIHEDRAL>
0

>  <SCORE.INTRA.DIHEDRAL.0>
0

>  <SCORE.INTRA.POLAR>
0

>  <SCORE.INTRA.POLAR.0>
0

>  <SCORE.INTRA.REPUL>
0

>  <SCORE.INTRA.REPUL.0>
0

>  <SCORE.INTRA.SOLV>
0

>  <SCORE.INTRA.SOLV.lig_0>
-4.28464

>  <SCORE.INTRA.VDW>
0

>  <SCORE.INTRA.VDW.0>
0

>  <SCORE.INTRA.norm>
0

>  <SCORE.RESTR>
0

>  <SCORE.RESTR.CAVITY>
0

>  <SCORE.RESTR.norm>
0

>  <SCORE.SYSTEM>
0

>  <SCORE.SYSTEM.CONST>
0

>  <SCORE.SYSTEM.DIHEDRAL>
0

>  <SCORE.SYSTEM.SOLV>
0

>  <SCORE.SYSTEM.norm>
0

>  <SCORE.heavy>
10

>  <SCORE.norm>
-1.80573

>  <RMSD>
0.723

$$$$
ligand
 OpenBabel11021811423D
libRbt.so/2013.1/901 2013/11/27
 10 11  0  0  0  0  0  0  0  0999 V2000
   11.4940    9.5005   29.4841 N   0  0  0  0  0  0  0  0  0  0  0  0
   11.3653   10.8644   29.2873 C   0  0  0  0  0  0  0  0  0  0  0  0
   11.1299   11.3851   28.0769 N   0  0  0  0  0  0  0  0  0  0  0  0
   11.0354   10.4347   27.0913 C   0  0  0  0  0  0  0  0  0  0  0  0
   11.1540    9.0706   27.2268 C   0  0  0  0  0  0  0  0  0  0  0  0
   11.4040    8.5068   28.5086 C   0  0  0  0  0  0  0  0  0  0  0  0
   11.5431    7.3244   28.8465 O   0  0  0  0  0  0  0  0  0  0  0  0
   10.9915    8.4948   25.9937 N   0  0  0  0  0  0  0  0  0  0  0  0
   10.7753    9.4994   25.1233 C   0  0  0  0  0  0  0  0  0  0  0  0
   10.7980   10.7104   25.7681 N   0  0  0  0  0  0  0  0  0  0  0  0
  1  2  1  0  0  0  0
  1  6  1  0  0  0  0
  2  3  2  0  0  0  0
  3  4  1  0  0  0  0
  4  5  2  0  0  0  0
  4 10  1  0  0  0  0
  5  6  1  0  0  0  0
  5  8  1  0  0  0  0
  6  7  2  0  0  0  0
  8  9  1  0  0  0  0
  9 10  2  0  0  0  0
M  END
>  <CHROM.1>
11.17637538,9.53783658,27.56739157,0.09810152,-1.39362662,0.40515842

>  <Name>
ligand

>  <RI>
0

>  <Rbt.Current_Directory>
/home/itssahil/PROJECTS/Mol_Feturizer/New_Systems/rnas/2EET

>  <Rbt.Executable>
rbdock ($Id: //depot/dev/client3/rdock/2013.1/src/exe/rbdock.cxx#4 $)

>  <Rbt.Library>
libRbt.so (2013.1, Build901 2013/11/27)

>  <Rbt.Parameter_File>
/export/apps/rDock/src/rDock_2013.1_src/data/scripts/dock_solv.prm

>  <Rbt.Receptor>
prm/pocket_docking_6.prm

>  <SCORE>
-18.0817

>  <SCORE.INTER>
-18.0818

>  <SCORE.INTER.CONST>
1

>  <SCORE.INTER.POLAR>
0

>  <SCORE.INTER.ROT>
0

>  <SCORE.INTER.SOLV>
4.20306

>  <SCORE.INTER.VDW>
-17.0556

>  <SCORE.INTER.norm>
-1.80818

>  <SCORE.INTRA>
0

>  <SCORE.INTRA.DIHEDRAL>
0

>  <SCORE.INTRA.DIHEDRAL.0>
0

>  <SCORE.INTRA.POLAR>
0

>  <SCORE.INTRA.POLAR.0>
0

>  <SCORE.INTRA.REPUL>
0

>  <SCORE.INTRA.REPUL.0>
0

>  <SCORE.INTRA.SOLV>
0

>  <SCORE.INTRA.SOLV.lig_0>
-4.28464

>  <SCORE.INTRA.VDW>
0

>  <SCORE.INTRA.VDW.0>
0

>  <SCORE.INTRA.norm>
0

>  <SCORE.RESTR>
8.05782e-05

>  <SCORE.RESTR.CAVITY>
8.05782e-05

>  <SCORE.RESTR.norm>
8.05782e-06

>  <SCORE.SYSTEM>
0

>  <SCORE.SYSTEM.CONST>
0

>  <SCORE.SYSTEM.DIHEDRAL>
0

>  <SCORE.SYSTEM.SOLV>
0

>  <SCORE.SYSTEM.norm>
0

>  <SCORE.heavy>
10

>  <SCORE.norm>
-1.80817

>  <RMSD>
0.723

$$$$
ligand
 OpenBabel11021811423D
libRbt.so/2013.1/901 2013/11/27
 10 11  0  0  0  0  0  0  0  0999 V2000
   11.4948    9.5070   29.5068 N   0  0  0  0  0  0  0  0  0  0  0  0
   11.3585   10.8665   29.2858 C   0  0  0  0  0  0  0  0  0  0  0  0
   11.1318   11.3650   28.0644 N   0  0  0  0  0  0  0  0  0  0  0  0
   11.0541   10.3975   27.0941 C   0  0  0  0  0  0  0  0  0  0  0  0
   11.1809    9.0368   27.2538 C   0  0  0  0  0  0  0  0  0  0  0  0
   11.4218    8.4964   28.5474 C   0  0  0  0  0  0  0  0  0  0  0  0
   11.5658    7.3209   28.9066 O   0  0  0  0  0  0  0  0  0  0  0  0
   11.0351    8.4392   26.0291 N   0  0  0  0  0  0  0  0  0  0  0  0
   10.8208    9.4274   25.1396 C   0  0  0  0  0  0  0  0  0  0  0  0
   10.8282   10.6491   25.7641 N   0  0  0  0  0  0  0  0  0  0  0  0
  1  2  1  0  0  0  0
  1  6  1  0  0  0  0
  2  3  2  0  0  0  0
  3  4  1  0  0  0  0
  4  5  2  0  0  0  0
  4 10  1  0  0  0  0
  5  6  1  0  0  0  0
  5  8  1  0  0  0  0
  6  7  2  0  0  0  0
  8  9  1  0  0  0  0
  9 10  2  0  0  0  0
M  END
>  <CHROM.1>
11.19652069,9.50980354,27.58669081,0.16014056,-1.39990937,0.44940726

>  <Name>
ligand

>  <RI>
0

>  <Rbt.Current_Directory>
/home/itssahil/PROJECTS/Mol_Feturizer/New_Systems/rnas/2EET

>  <Rbt.Executable>
rbdock ($Id: //depot/dev/client3/rdock/2013.1/src/exe/rbdock.cxx#4 $)

>  <Rbt.Library>
libRbt.so (2013.1, Build901 2013/11/27)

>  <Rbt.Parameter_File>
/export/apps/rDock/src/rDock_2013.1_src/data/scripts/dock_solv.prm

>  <Rbt.Receptor>
prm/blind_docking_100.prm

>  <SCORE>
-18.0742

>  <SCORE.INTER>
-18.0742

>  <SCORE.INTER.CONST>
1

>  <SCORE.INTER.POLAR>
0

>  <SCORE.INTER.ROT>
0

>  <SCORE.INTER.SOLV>
4.21198

>  <SCORE.INTER.VDW>
-17.0535

>  <SCORE.INTER.norm>
-1.80742

>  <SCORE.INTRA>
0

>  <SCORE.INTRA.DIHEDRAL>
0

>  <SCORE.INTRA.DIHEDRAL.0>
0

>  <SCORE.INTRA.POLAR>
0

>  <SCORE.INTRA.POLAR.0>
0

>  <SCORE.INTRA.REPUL>
0

>  <SCORE.INTRA.REPUL.0>
0

>  <SCORE.INTRA.SOLV>
0

>  <SCORE.INTRA.SOLV.lig_0>
-4.28464

>  <SCORE.INTRA.VDW>
0

>  <SCORE.INTRA.VDW.0>
0

>  <SCORE.INTRA.norm>
0

>  <SCORE.RESTR>
0

>  <SCORE.RESTR.CAVITY>
0

>  <SCORE.RESTR.norm>
0

>  <SCORE.SYSTEM>
0

>  <SCORE.SYSTEM.CONST>
0

>  <SCORE.SYSTEM.DIHEDRAL>
0

>  <SCORE.SYSTEM.SOLV>
0

>  <SCORE.SYSTEM.norm>
0

>  <SCORE.heavy>
10

>  <SCORE.norm>
-1.80742

>  <RMSD>
0.724

$$$$
ligand
 OpenBabel11021811423D
libRbt.so/2013.1/901 2013/11/27
 10 11  0  0  0  0  0  0  0  0999 V2000
   11.4993    9.5038   29.4657 N   0  0  0  0  0  0  0  0  0  0  0  0
   11.3540   10.8674   29.2778 C   0  0  0  0  0  0  0  0  0  0  0  0
   11.1219   11.3938   28.0692 N   0  0  0  0  0  0  0  0  0  0  0  0
   11.0486   10.4495   27.0759 C   0  0  0  0  0  0  0  0  0  0  0  0
   11.1844    9.0862   27.2025 C   0  0  0  0  0  0  0  0  0  0  0  0
   11.4310    8.5163   28.4823 C   0  0  0  0  0  0  0  0  0  0  0  0
   11.5831    7.3334   28.8127 O   0  0  0  0  0  0  0  0  0  0  0  0
   11.0402    8.5174   25.9639 N   0  0  0  0  0  0  0  0  0  0  0  0
   10.8180    9.5254   25.0990 C   0  0  0  0  0  0  0  0  0  0  0  0
   10.8188   10.7318   25.7528 N   0  0  0  0  0  0  0  0  0  0  0  0
  1  2  1  0  0  0  0
  1  6  1  0  0  0  0
  2  3  2  0  0  0  0
  3  4  1  0  0  0  0
  4  5  2  0  0  0  0
  4 10  1  0  0  0  0
  5  6  1  0  0  0  0
  5  8  1  0  0  0  0
  6  7  2  0  0  0  0
  8  9  1  0  0  0  0
  9 10  2  0  0  0  0
M  END
>  <CHROM.1>
11.19759075,9.55112207,27.54668079,0.18849779,-1.39547944,0.50149291

>  <Name>
ligand

>  <RI>
0

>  <Rbt.Current_Directory>
/home/itssahil/PROJECTS/Mol_Feturizer/New_Systems/rnas/2EET

>  <Rbt.Executable>
rbdock ($Id: //depot/dev/client3/rdock/2013.1/src/exe/rbdock.cxx#4 $)

>  <Rbt.Library>
libRbt.so (2013.1, Build901 2013/11/27)

>  <Rbt.Parameter_File>
/export/apps/rDock/src/rDock_2013.1_src/data/scripts/dock_solv.prm

>  <Rbt.Receptor>
prm/pocket_docking_3.prm

>  <SCORE>
-18.0504

>  <SCORE.INTER>
-18.0504

>  <SCORE.INTER.CONST>
1

>  <SCORE.INTER.POLAR>
0

>  <SCORE.INTER.ROT>
0

>  <SCORE.INTER.SOLV>
4.13507

>  <SCORE.INTER.VDW>
-17.0119

>  <SCORE.INTER.norm>
-1.80504

>  <SCORE.INTRA>
0

>  <SCORE.INTRA.DIHEDRAL>
0

>  <SCORE.INTRA.DIHEDRAL.0>
0

>  <SCORE.INTRA.POLAR>
0

>  <SCORE.INTRA.POLAR.0>
0

>  <SCORE.INTRA.REPUL>
0

>  <SCORE.INTRA.REPUL.0>
0

>  <SCORE.INTRA.SOLV>
0

>  <SCORE.INTRA.SOLV.lig_0>
-4.28464

>  <SCORE.INTRA.VDW>
0

>  <SCORE.INTRA.VDW.0>
0

>  <SCORE.INTRA.norm>
0

>  <SCORE.RESTR>
0

>  <SCORE.RESTR.CAVITY>
0

>  <SCORE.RESTR.norm>
0

>  <SCORE.SYSTEM>
0

>  <SCORE.SYSTEM.CONST>
0

>  <SCORE.SYSTEM.DIHEDRAL>
0

>  <SCORE.SYSTEM.SOLV>
0

>  <SCORE.SYSTEM.norm>
0

>  <SCORE.heavy>
10

>  <SCORE.norm>
-1.80504

>  <RMSD>
0.724

$$$$
ligand
 OpenBabel11021811423D
libRbt.so/2013.1/901 2013/11/27
 10 11  0  0  0  0  0  0  0  0999 V2000
   11.4856    9.5070   29.4895 N   0  0  0  0  0  0  0  0  0  0  0  0
   11.3503   10.8701   29.2912 C   0  0  0  0  0  0  0  0  0  0  0  0
   11.1205   11.3889   28.0789 N   0  0  0  0  0  0  0  0  0  0  0  0
   11.0386   10.4375   27.0931 C   0  0  0  0  0  0  0  0  0  0  0  0
   11.1644    9.0742   27.2300 C   0  0  0  0  0  0  0  0  0  0  0  0
   11.4085    8.5124   28.5138 C   0  0  0  0  0  0  0  0  0  0  0  0
   11.5521    7.3310   28.8532 O   0  0  0  0  0  0  0  0  0  0  0  0
   11.0141    8.4970   25.9961 N   0  0  0  0  0  0  0  0  0  0  0  0
   10.7983    9.4999   25.1237 C   0  0  0  0  0  0  0  0  0  0  0  0
   10.8091   10.7112   25.7681 N   0  0  0  0  0  0  0  0  0  0  0  0
  1  2  1  0  0  0  0
  1  6  1  0  0  0  0
  2  3  2  0  0  0  0
  3  4  1  0  0  0  0
  4  5  2  0  0  0  0
  4 10  1  0  0  0  0
  5  6  1  0  0  0  0
  5  8  1  0  0  0  0
  6  7  2  0  0  0  0
  8  9  1  0  0  0  0
  9 10  2  0  0  0  0
M  END
>  <CHROM.1>
11.18152413,9.54167847,27.57057018,0.14620297,-1.39769229,0.45210575

>  <Name>
ligand

>  <RI>
0

>  <Rbt.Current_Directory>
/home/itssahil/PROJECTS/Mol_Feturizer/New_Systems/rnas/2EET

>  <Rbt.Executable>
rbdock ($Id: //depot/dev/client3/rdock/2013.1/src/exe/rbdock.cxx#4 $)

>  <Rbt.Library>
libRbt.so (2013.1, Build901 2013/11/27)

>  <Rbt.Parameter_File>
/export/apps/rDock/src/rDock_2013.1_src/data/scripts/dock_solv.prm

>  <Rbt.Receptor>
prm/pocket_docking_4.prm

>  <SCORE>
-18.0784

>  <SCORE.INTER>
-18.0784

>  <SCORE.INTER.CONST>
1

>  <SCORE.INTER.POLAR>
0

>  <SCORE.INTER.ROT>
0

>  <SCORE.INTER.SOLV>
4.19707

>  <SCORE.INTER.VDW>
-17.0513

>  <SCORE.INTER.norm>
-1.80784

>  <SCORE.INTRA>
0

>  <SCORE.INTRA.DIHEDRAL>
0

>  <SCORE.INTRA.DIHEDRAL.0>
0

>  <SCORE.INTRA.POLAR>
0

>  <SCORE.INTRA.POLAR.0>
0

>  <SCORE.INTRA.REPUL>
0

>  <SCORE.INTRA.REPUL.0>
0

>  <SCORE.INTRA.SOLV>
0

>  <SCORE.INTRA.SOLV.lig_0>
-4.28464

>  <SCORE.INTRA.VDW>
0

>  <SCORE.INTRA.VDW.0>
0

>  <SCORE.INTRA.norm>
0

>  <SCORE.RESTR>
0

>  <SCORE.RESTR.CAVITY>
0

>  <SCORE.RESTR.norm>
0

>  <SCORE.SYSTEM>
0

>  <SCORE.SYSTEM.CONST>
0

>  <SCORE.SYSTEM.DIHEDRAL>
0

>  <SCORE.SYSTEM.SOLV>
0

>  <SCORE.SYSTEM.norm>
0

>  <SCORE.heavy>
10

>  <SCORE.norm>
-1.80784

>  <RMSD>
0.724

$$$$
ligand
 OpenBabel11021811423D
libRbt.so/2013.1/901 2013/11/27
 10 11  0  0  0  0  0  0  0  0999 V2000
   11.4790    9.4982   29.5091 N   0  0  0  0  0  0  0  0  0  0  0  0
   11.3448   10.8585   29.2917 C   0  0  0  0  0  0  0  0  0  0  0  0
   11.1208   11.3608   28.0714 N   0  0  0  0  0  0  0  0  0  0  0  0
   11.0433   10.3962   27.0982 C   0  0  0  0  0  0  0  0  0  0  0  0
   11.1681    9.0349   27.2542 C   0  0  0  0  0  0  0  0  0  0  0  0
   11.4062    8.4905   28.5467 C   0  0  0  0  0  0  0  0  0  0  0  0
   11.5480    7.3138   28.9028 O   0  0  0  0  0  0  0  0  0  0  0  0
   11.0235    8.4409   26.0276 N   0  0  0  0  0  0  0  0  0  0  0  0
   10.8119    9.4319   25.1406 C   0  0  0  0  0  0  0  0  0  0  0  0
   10.8199   10.6519   25.7686 N   0  0  0  0  0  0  0  0  0  0  0  0
  1  2  1  0  0  0  0
  1  6  1  0  0  0  0
  2  3  2  0  0  0  0
  3  4  1  0  0  0  0
  4  5  2  0  0  0  0
  4 10  1  0  0  0  0
  5  6  1  0  0  0  0
  5  8  1  0  0  0  0
  6  7  2  0  0  0  0
  8  9  1  0  0  0  0
  9 10  2  0  0  0  0
M  END
>  <CHROM.1>
11.18378934,9.50691596,27.58849898,0.15714017,-1.40192998,0.44929278

>  <Name>
ligand

>  <RI>
0

>  <Rbt.Current_Directory>
/home/itssahil/PROJECTS/Mol_Feturizer/New_Systems/rnas/2EET

>  <Rbt.Executable>
rbdock ($Id: //depot/dev/client3/rdock/2013.1/src/exe/rbdock.cxx#4 $)

>  <Rbt.Library>
libRbt.so (2013.1, Build901 2013/11/27)

>  <Rbt.Parameter_File>
/export/apps/rDock/src/rDock_2013.1_src/data/scripts/dock_solv.prm

>  <Rbt.Receptor>
prm/pocket_docking_5.prm

>  <SCORE>
-18.0391

>  <SCORE.INTER>
-18.0391

>  <SCORE.INTER.CONST>
1

>  <SCORE.INTER.POLAR>
0

>  <SCORE.INTER.ROT>
0

>  <SCORE.INTER.SOLV>
4.23213

>  <SCORE.INTER.VDW>
-17.0368

>  <SCORE.INTER.norm>
-1.80391

>  <SCORE.INTRA>
0

>  <SCORE.INTRA.DIHEDRAL>
0

>  <SCORE.INTRA.DIHEDRAL.0>
0

>  <SCORE.INTRA.POLAR>
0

>  <SCORE.INTRA.POLAR.0>
0

>  <SCORE.INTRA.REPUL>
0

>  <SCORE.INTRA.REPUL.0>
0

>  <SCORE.INTRA.SOLV>
0

>  <SCORE.INTRA.SOLV.lig_0>
-4.28464

>  <SCORE.INTRA.VDW>
0

>  <SCORE.INTRA.VDW.0>
0

>  <SCORE.INTRA.norm>
0

>  <SCORE.RESTR>
0

>  <SCORE.RESTR.CAVITY>
0

>  <SCORE.RESTR.norm>
0

>  <SCORE.SYSTEM>
0

>  <SCORE.SYSTEM.CONST>
0

>  <SCORE.SYSTEM.DIHEDRAL>
0

>  <SCORE.SYSTEM.SOLV>
0

>  <SCORE.SYSTEM.norm>
0

>  <SCORE.heavy>
10

>  <SCORE.norm>
-1.80391

>  <RMSD>
0.724

$$$$
ligand
 OpenBabel11021811423D
libRbt.so/2013.1/901 2013/11/27
 10 11  0  0  0  0  0  0  0  0999 V2000
   11.5015    9.5006   29.4739 N   0  0  0  0  0  0  0  0  0  0  0  0
   11.3678   10.8644   29.2790 C   0  0  0  0  0  0  0  0  0  0  0  0
   11.1296   11.3858   28.0694 N   0  0  0  0  0  0  0  0  0  0  0  0
   11.0377   10.4363   27.0827 C   0  0  0  0  0  0  0  0  0  0  0  0
   11.1613    9.0724   27.2164 C   0  0  0  0  0  0  0  0  0  0  0  0
   11.4144    8.5079   28.4973 C   0  0  0  0  0  0  0  0  0  0  0  0
   11.5579    7.3256   28.8336 O   0  0  0  0  0  0  0  0  0  0  0  0
   10.9999    8.4976   25.9827 N   0  0  0  0  0  0  0  0  0  0  0  0
   10.7795    9.5025   25.1137 C   0  0  0  0  0  0  0  0  0  0  0  0
   10.7982   10.7127   25.7601 N   0  0  0  0  0  0  0  0  0  0  0  0
  1  2  1  0  0  0  0
  1  6  1  0  0  0  0
  2  3  2  0  0  0  0
  3  4  1  0  0  0  0
  4  5  2  0  0  0  0
  4 10  1  0  0  0  0
  5  6  1  0  0  0  0
  5  8  1  0  0  0  0
  6  7  2  0  0  0  0
  8  9  1  0  0  0  0
  9 10  2  0  0  0  0
M  END
>  <CHROM.1>
11.18226653,9.53929162,27.55757155,0.11489625,-1.39146077,0.42295321

>  <Name>
ligand

>  <RI>
0

>  <Rbt.Current_Directory>
/home/itssahil/PROJECTS/Mol_Feturizer/New_Systems/rnas/2EET

>  <Rbt.Executable>
rbdock ($Id: //depot/dev/client3/rdock/2013.1/src/exe/rbdock.cxx#4 $)

>  <Rbt.Library>
libRbt.so (2013.1, Build901 2013/11/27)

>  <Rbt.Parameter_File>
/export/apps/rDock/src/rDock_2013.1_src/data/scripts/dock_solv.prm

>  <Rbt.Receptor>
prm/pocket_docking_5.prm

>  <SCORE>
-18.0791

>  <SCORE.INTER>
-18.0791

>  <SCORE.INTER.CONST>
1

>  <SCORE.INTER.POLAR>
0

>  <SCORE.INTER.ROT>
0

>  <SCORE.INTER.SOLV>
4.17638

>  <SCORE.INTER.VDW>
-17.0448

>  <SCORE.INTER.norm>
-1.80791

>  <SCORE.INTRA>
0

>  <SCORE.INTRA.DIHEDRAL>
0

>  <SCORE.INTRA.DIHEDRAL.0>
0

>  <SCORE.INTRA.POLAR>
0

>  <SCORE.INTRA.POLAR.0>
0

>  <SCORE.INTRA.REPUL>
0

>  <SCORE.INTRA.REPUL.0>
0

>  <SCORE.INTRA.SOLV>
0

>  <SCORE.INTRA.SOLV.lig_0>
-4.28464

>  <SCORE.INTRA.VDW>
0

>  <SCORE.INTRA.VDW.0>
0

>  <SCORE.INTRA.norm>
0

>  <SCORE.RESTR>
0

>  <SCORE.RESTR.CAVITY>
0

>  <SCORE.RESTR.norm>
0

>  <SCORE.SYSTEM>
0

>  <SCORE.SYSTEM.CONST>
0

>  <SCORE.SYSTEM.DIHEDRAL>
0

>  <SCORE.SYSTEM.SOLV>
0

>  <SCORE.SYSTEM.norm>
0

>  <SCORE.heavy>
10

>  <SCORE.norm>
-1.80791

>  <RMSD>
0.724

$$$$
ligand
 OpenBabel11021811423D
libRbt.so/2013.1/901 2013/11/27
 10 11  0  0  0  0  0  0  0  0999 V2000
   11.4913    9.5047   29.4810 N   0  0  0  0  0  0  0  0  0  0  0  0
   11.3567   10.8683   29.2854 C   0  0  0  0  0  0  0  0  0  0  0  0
   11.1280   11.3896   28.0740 N   0  0  0  0  0  0  0  0  0  0  0  0
   11.0464   10.4404   27.0862 C   0  0  0  0  0  0  0  0  0  0  0  0
   11.1715    9.0767   27.2204 C   0  0  0  0  0  0  0  0  0  0  0  0
   11.4145    8.5121   28.5032 C   0  0  0  0  0  0  0  0  0  0  0  0
   11.5574    7.3300   28.8403 O   0  0  0  0  0  0  0  0  0  0  0  0
   11.0219    8.5021   25.9852 N   0  0  0  0  0  0  0  0  0  0  0  0
   10.8071    9.5069   25.1147 C   0  0  0  0  0  0  0  0  0  0  0  0
   10.8179   10.7169   25.7616 N   0  0  0  0  0  0  0  0  0  0  0  0
  1  2  1  0  0  0  0
  1  6  1  0  0  0  0
  2  3  2  0  0  0  0
  3  4  1  0  0  0  0
  4  5  2  0  0  0  0
  4 10  1  0  0  0  0
  5  6  1  0  0  0  0
  5  8  1  0  0  0  0
  6  7  2  0  0  0  0
  8  9  1  0  0  0  0
  9 10  2  0  0  0  0
M  END
>  <CHROM.1>
11.18860093,9.54348846,27.56194136,0.14579109,-1.39850624,0.45375691

>  <Name>
ligand

>  <RI>
0

>  <Rbt.Current_Directory>
/home/itssahil/PROJECTS/Mol_Feturizer/New_Systems/rnas/2EET

>  <Rbt.Executable>
rbdock ($Id: //depot/dev/client3/rdock/2013.1/src/exe/rbdock.cxx#4 $)

>  <Rbt.Library>
libRbt.so (2013.1, Build901 2013/11/27)

>  <Rbt.Parameter_File>
/export/apps/rDock/src/rDock_2013.1_src/data/scripts/dock_solv.prm

>  <Rbt.Receptor>
prm/pocket_docking_6.prm

>  <SCORE>
-18.0825

>  <SCORE.INTER>
-18.0825

>  <SCORE.INTER.CONST>
1

>  <SCORE.INTER.POLAR>
0

>  <SCORE.INTER.ROT>
0

>  <SCORE.INTER.SOLV>
4.18472

>  <SCORE.INTER.VDW>
-17.0499

>  <SCORE.INTER.norm>
-1.80825

>  <SCORE.INTRA>
0

>  <SCORE.INTRA.DIHEDRAL>
0

>  <SCORE.INTRA.DIHEDRAL.0>
0

>  <SCORE.INTRA.POLAR>
0

>  <SCORE.INTRA.POLAR.0>
0

>  <SCORE.INTRA.REPUL>
0

>  <SCORE.INTRA.REPUL.0>
0

>  <SCORE.INTRA.SOLV>
0

>  <SCORE.INTRA.SOLV.lig_0>
-4.28464

>  <SCORE.INTRA.VDW>
0

>  <SCORE.INTRA.VDW.0>
0

>  <SCORE.INTRA.norm>
0

>  <SCORE.RESTR>
0

>  <SCORE.RESTR.CAVITY>
0

>  <SCORE.RESTR.norm>
0

>  <SCORE.SYSTEM>
0

>  <SCORE.SYSTEM.CONST>
0

>  <SCORE.SYSTEM.DIHEDRAL>
0

>  <SCORE.SYSTEM.SOLV>
0

>  <SCORE.SYSTEM.norm>
0

>  <SCORE.heavy>
10

>  <SCORE.norm>
-1.80825

>  <RMSD>
0.724

$$$$
ligand
 OpenBabel11021811423D
libRbt.so/2013.1/901 2013/11/27
 10 11  0  0  0  0  0  0  0  0999 V2000
   11.4824    9.5080   29.5416 N   0  0  0  0  0  0  0  0  0  0  0  0
   11.3611   10.8664   29.3055 C   0  0  0  0  0  0  0  0  0  0  0  0
   11.1386   11.3537   28.0788 N   0  0  0  0  0  0  0  0  0  0  0  0
   11.0489   10.3764   27.1195 C   0  0  0  0  0  0  0  0  0  0  0  0
   11.1606    9.0162   27.2943 C   0  0  0  0  0  0  0  0  0  0  0  0
   11.3969    8.4876   28.5937 C   0  0  0  0  0  0  0  0  0  0  0  0
   11.5281    7.3147   28.9659 O   0  0  0  0  0  0  0  0  0  0  0  0
   11.0067    8.4066   26.0765 N   0  0  0  0  0  0  0  0  0  0  0  0
   10.8024    9.3871   25.1763 C   0  0  0  0  0  0  0  0  0  0  0  0
   10.8243   10.6156   25.7870 N   0  0  0  0  0  0  0  0  0  0  0  0
  1  2  1  0  0  0  0
  1  6  1  0  0  0  0
  2  3  2  0  0  0  0
  3  4  1  0  0  0  0
  4  5  2  0  0  0  0
  4 10  1  0  0  0  0
  5  6  1  0  0  0  0
  5  8  1  0  0  0  0
  6  7  2  0  0  0  0
  8  9  1  0  0  0  0
  9 10  2  0  0  0  0
M  END
>  <CHROM.1>
11.18192172,9.49269728,27.62187938,0.09625155,-1.40341464,0.37523105

>  <Name>
ligand

>  <RI>
0

>  <Rbt.Current_Directory>
/home/itssahil/PROJECTS/Mol_Feturizer/New_Systems/rnas/2EET

>  <Rbt.Executable>
rbdock ($Id: //depot/dev/client3/rdock/2013.1/src/exe/rbdock.cxx#4 $)

>  <Rbt.Library>
libRbt.so (2013.1, Build901 2013/11/27)

>  <Rbt.Parameter_File>
/export/apps/rDock/src/rDock_2013.1_src/data/scripts/dock_solv.prm

>  <Rbt.Receptor>
prm/blind_docking_100.prm

>  <SCORE>
-17.9967

>  <SCORE.INTER>
-17.9967

>  <SCORE.INTER.CONST>
1

>  <SCORE.INTER.POLAR>
0

>  <SCORE.INTER.ROT>
0

>  <SCORE.INTER.SOLV>
4.30335

>  <SCORE.INTER.VDW>
-17.0323

>  <SCORE.INTER.norm>
-1.79967

>  <SCORE.INTRA>
0

>  <SCORE.INTRA.DIHEDRAL>
0

>  <SCORE.INTRA.DIHEDRAL.0>
0

>  <SCORE.INTRA.POLAR>
0

>  <SCORE.INTRA.POLAR.0>
0

>  <SCORE.INTRA.REPUL>
0

>  <SCORE.INTRA.REPUL.0>
0

>  <SCORE.INTRA.SOLV>
0

>  <SCORE.INTRA.SOLV.lig_0>
-4.28464

>  <SCORE.INTRA.VDW>
0

>  <SCORE.INTRA.VDW.0>
0

>  <SCORE.INTRA.norm>
0

>  <SCORE.RESTR>
0

>  <SCORE.RESTR.CAVITY>
0

>  <SCORE.RESTR.norm>
0

>  <SCORE.SYSTEM>
0

>  <SCORE.SYSTEM.CONST>
0

>  <SCORE.SYSTEM.DIHEDRAL>
0

>  <SCORE.SYSTEM.SOLV>
0

>  <SCORE.SYSTEM.norm>
0

>  <SCORE.heavy>
10

>  <SCORE.norm>
-1.79967

>  <RMSD>
0.725

$$$$
ligand
 OpenBabel11021811423D
libRbt.so/2013.1/901 2013/11/27
 10 11  0  0  0  0  0  0  0  0999 V2000
   11.4812    9.5058   29.4955 N   0  0  0  0  0  0  0  0  0  0  0  0
   11.3555   10.8695   29.2951 C   0  0  0  0  0  0  0  0  0  0  0  0
   11.1286   11.3879   28.0821 N   0  0  0  0  0  0  0  0  0  0  0  0
   11.0393   10.4356   27.0979 C   0  0  0  0  0  0  0  0  0  0  0  0
   11.1554    9.0716   27.2370 C   0  0  0  0  0  0  0  0  0  0  0  0
   11.3964    8.5102   28.5215 C   0  0  0  0  0  0  0  0  0  0  0  0
   11.5318    7.3284   28.8628 O   0  0  0  0  0  0  0  0  0  0  0  0
   11.0002    8.4935   26.0041 N   0  0  0  0  0  0  0  0  0  0  0  0
   10.7909    9.4965   25.1302 C   0  0  0  0  0  0  0  0  0  0  0  0
   10.8108   10.7088   25.7726 N   0  0  0  0  0  0  0  0  0  0  0  0
  1  2  1  0  0  0  0
  1  6  1  0  0  0  0
  2  3  2  0  0  0  0
  3  4  1  0  0  0  0
  4  5  2  0  0  0  0
  4 10  1  0  0  0  0
  5  6  1  0  0  0  0
  5  8  1  0  0  0  0
  6  7  2  0  0  0  0
  8  9  1  0  0  0  0
  9 10  2  0  0  0  0
M  END
>  <CHROM.1>
11.17611145,9.53954559,27.57675070,0.10671245,-1.40005651,0.41155394

>  <Name>
ligand

>  <RI>
0

>  <Rbt.Current_Directory>
/home/itssahil/PROJECTS/Mol_Feturizer/New_Systems/rnas/2EET

>  <Rbt.Executable>
rbdock ($Id: //depot/dev/client3/rdock/2013.1/src/exe/rbdock.cxx#4 $)

>  <Rbt.Library>
libRbt.so (2013.1, Build901 2013/11/27)

>  <Rbt.Parameter_File>
/export/apps/rDock/src/rDock_2013.1_src/data/scripts/dock_solv.prm

>  <Rbt.Receptor>
prm/blind_docking_40.prm

>  <SCORE>
-18.0885

>  <SCORE.INTER>
-18.0885

>  <SCORE.INTER.CONST>
1

>  <SCORE.INTER.POLAR>
0

>  <SCORE.INTER.ROT>
0

>  <SCORE.INTER.SOLV>
4.22858

>  <SCORE.INTER.VDW>
-17.0685

>  <SCORE.INTER.norm>
-1.80885

>  <SCORE.INTRA>
0

>  <SCORE.INTRA.DIHEDRAL>
0

>  <SCORE.INTRA.DIHEDRAL.0>
0

>  <SCORE.INTRA.POLAR>
0

>  <SCORE.INTRA.POLAR.0>
0

>  <SCORE.INTRA.REPUL>
0

>  <SCORE.INTRA.REPUL.0>
0

>  <SCORE.INTRA.SOLV>
0

>  <SCORE.INTRA.SOLV.lig_0>
-4.28464

>  <SCORE.INTRA.VDW>
0

>  <SCORE.INTRA.VDW.0>
0

>  <SCORE.INTRA.norm>
0

>  <SCORE.RESTR>
0

>  <SCORE.RESTR.CAVITY>
0

>  <SCORE.RESTR.norm>
0

>  <SCORE.SYSTEM>
0

>  <SCORE.SYSTEM.CONST>
0

>  <SCORE.SYSTEM.DIHEDRAL>
0

>  <SCORE.SYSTEM.SOLV>
0

>  <SCORE.SYSTEM.norm>
0

>  <SCORE.heavy>
10

>  <SCORE.norm>
-1.80885

>  <RMSD>
0.725

$$$$
ligand
 OpenBabel11021811423D
libRbt.so/2013.1/901 2013/11/27
 10 11  0  0  0  0  0  0  0  0999 V2000
   11.5134    9.5103   29.4842 N   0  0  0  0  0  0  0  0  0  0  0  0
   11.3574   10.8682   29.2661 C   0  0  0  0  0  0  0  0  0  0  0  0
   11.1234   11.3661   28.0459 N   0  0  0  0  0  0  0  0  0  0  0  0
   11.0597   10.3997   27.0734 C   0  0  0  0  0  0  0  0  0  0  0  0
   11.2063    9.0406   27.2301 C   0  0  0  0  0  0  0  0  0  0  0  0
   11.4551    8.5009   28.5225 C   0  0  0  0  0  0  0  0  0  0  0  0
   11.6161    7.3269   28.8791 O   0  0  0  0  0  0  0  0  0  0  0  0
   11.0691    8.4437   26.0041 N   0  0  0  0  0  0  0  0  0  0  0  0
   10.8404    9.4306   25.1168 C   0  0  0  0  0  0  0  0  0  0  0  0
   10.8301   10.6510   25.7440 N   0  0  0  0  0  0  0  0  0  0  0  0
  1  2  1  0  0  0  0
  1  6  1  0  0  0  0
  2  3  2  0  0  0  0
  3  4  1  0  0  0  0
  4  5  2  0  0  0  0
  4 10  1  0  0  0  0
  5  6  1  0  0  0  0
  5  8  1  0  0  0  0
  6  7  2  0  0  0  0
  8  9  1  0  0  0  0
  9 10  2  0  0  0  0
M  END
>  <CHROM.1>
11.21501659,9.51307665,27.56404150,0.23400476,-1.39306965,0.52437456

>  <Name>
ligand

>  <RI>
0

>  <Rbt.Current_Directory>
/home/itssahil/PROJECTS/Mol_Feturizer/New_Systems/rnas/2EET

>  <Rbt.Executable>
rbdock ($Id: //depot/dev/client3/rdock/2013.1/src/exe/rbdock.cxx#4 $)

>  <Rbt.Library>
libRbt.so (2013.1, Build901 2013/11/27)

>  <Rbt.Parameter_File>
/export/apps/rDock/src/rDock_2013.1_src/data/scripts/dock_solv.prm

>  <Rbt.Receptor>
prm/pocket_docking_3.prm

>  <SCORE>
-18.0135

>  <SCORE.INTER>
-18.0135

>  <SCORE.INTER.CONST>
1

>  <SCORE.INTER.POLAR>
0

>  <SCORE.INTER.ROT>
0

>  <SCORE.INTER.SOLV>
4.13059

>  <SCORE.INTER.VDW>
-16.9859

>  <SCORE.INTER.norm>
-1.80135

>  <SCORE.INTRA>
0

>  <SCORE.INTRA.DIHEDRAL>
0

>  <SCORE.INTRA.DIHEDRAL.0>
0

>  <SCORE.INTRA.POLAR>
0

>  <SCORE.INTRA.POLAR.0>
0

>  <SCORE.INTRA.REPUL>
0

>  <SCORE.INTRA.REPUL.0>
0

>  <SCORE.INTRA.SOLV>
0

>  <SCORE.INTRA.SOLV.lig_0>
-4.28464

>  <SCORE.INTRA.VDW>
0

>  <SCORE.INTRA.VDW.0>
0

>  <SCORE.INTRA.norm>
0

>  <SCORE.RESTR>
0

>  <SCORE.RESTR.CAVITY>
0

>  <SCORE.RESTR.norm>
0

>  <SCORE.SYSTEM>
0

>  <SCORE.SYSTEM.CONST>
0

>  <SCORE.SYSTEM.DIHEDRAL>
0

>  <SCORE.SYSTEM.SOLV>
0

>  <SCORE.SYSTEM.norm>
0

>  <SCORE.heavy>
10

>  <SCORE.norm>
-1.80135

>  <RMSD>
0.725

$$$$
ligand
 OpenBabel11021811423D
libRbt.so/2013.1/901 2013/11/27
 10 11  0  0  0  0  0  0  0  0999 V2000
   11.4744    9.4984   29.5137 N   0  0  0  0  0  0  0  0  0  0  0  0
   11.3548   10.8602   29.2977 C   0  0  0  0  0  0  0  0  0  0  0  0
   11.1442   11.3667   28.0767 N   0  0  0  0  0  0  0  0  0  0  0  0
   11.0645   10.4044   27.1013 C   0  0  0  0  0  0  0  0  0  0  0  0
   11.1751    9.0417   27.2559 C   0  0  0  0  0  0  0  0  0  0  0  0
   11.3989    8.4929   28.5490 C   0  0  0  0  0  0  0  0  0  0  0  0
   11.5269    7.3144   28.9041 O   0  0  0  0  0  0  0  0  0  0  0  0
   11.0335    8.4512   26.0272 N   0  0  0  0  0  0  0  0  0  0  0  0
   10.8377    9.4457   25.1405 C   0  0  0  0  0  0  0  0  0  0  0  0
   10.8530   10.6645   25.7706 N   0  0  0  0  0  0  0  0  0  0  0  0
  1  2  1  0  0  0  0
  1  6  1  0  0  0  0
  2  3  2  0  0  0  0
  3  4  1  0  0  0  0
  4  5  2  0  0  0  0
  4 10  1  0  0  0  0
  5  6  1  0  0  0  0
  5  8  1  0  0  0  0
  6  7  2  0  0  0  0
  8  9  1  0  0  0  0
  9 10  2  0  0  0  0
M  END
>  <CHROM.1>
11.19295765,9.51303670,27.59105809,0.12205071,-1.41237756,0.41635609

>  <Name>
ligand

>  <RI>
0

>  <Rbt.Current_Directory>
/home/itssahil/PROJECTS/Mol_Feturizer/New_Systems/rnas/2EET

>  <Rbt.Executable>
rbdock ($Id: //depot/dev/client3/rdock/2013.1/src/exe/rbdock.cxx#4 $)

>  <Rbt.Library>
libRbt.so (2013.1, Build901 2013/11/27)

>  <Rbt.Parameter_File>
/export/apps/rDock/src/rDock_2013.1_src/data/scripts/dock_solv.prm

>  <Rbt.Receptor>
prm/pocket_docking_5.prm

>  <SCORE>
-18.0839

>  <SCORE.INTER>
-18.0897

>  <SCORE.INTER.CONST>
1

>  <SCORE.INTER.POLAR>
0

>  <SCORE.INTER.ROT>
0

>  <SCORE.INTER.SOLV>
4.26858

>  <SCORE.INTER.VDW>
-17.0827

>  <SCORE.INTER.norm>
-1.80897

>  <SCORE.INTRA>
0

>  <SCORE.INTRA.DIHEDRAL>
0

>  <SCORE.INTRA.DIHEDRAL.0>
0

>  <SCORE.INTRA.POLAR>
0

>  <SCORE.INTRA.POLAR.0>
0

>  <SCORE.INTRA.REPUL>
0

>  <SCORE.INTRA.REPUL.0>
0

>  <SCORE.INTRA.SOLV>
0

>  <SCORE.INTRA.SOLV.lig_0>
-4.28464

>  <SCORE.INTRA.VDW>
0

>  <SCORE.INTRA.VDW.0>
0

>  <SCORE.INTRA.norm>
0

>  <SCORE.RESTR>
0.00577785

>  <SCORE.RESTR.CAVITY>
0.00577785

>  <SCORE.RESTR.norm>
0.000577785

>  <SCORE.SYSTEM>
0

>  <SCORE.SYSTEM.CONST>
0

>  <SCORE.SYSTEM.DIHEDRAL>
0

>  <SCORE.SYSTEM.SOLV>
0

>  <SCORE.SYSTEM.norm>
0

>  <SCORE.heavy>
10

>  <SCORE.norm>
-1.80839

>  <RMSD>
0.725

$$$$
ligand
 OpenBabel11021811423D
libRbt.so/2013.1/901 2013/11/27
 10 11  0  0  0  0  0  0  0  0999 V2000
   11.4959    9.5012   29.4797 N   0  0  0  0  0  0  0  0  0  0  0  0
   11.3644   10.8644   29.2797 C   0  0  0  0  0  0  0  0  0  0  0  0
   11.1373   11.3824   28.0665 N   0  0  0  0  0  0  0  0  0  0  0  0
   11.0540   10.4301   27.0818 C   0  0  0  0  0  0  0  0  0  0  0  0
   11.1760    9.0666   27.2204 C   0  0  0  0  0  0  0  0  0  0  0  0
   11.4173    8.5057   28.5052 C   0  0  0  0  0  0  0  0  0  0  0  0
   11.5575    7.3243   28.8461 O   0  0  0  0  0  0  0  0  0  0  0  0
   11.0256    8.4883   25.9870 N   0  0  0  0  0  0  0  0  0  0  0  0
   10.8133    9.4908   25.1132 C   0  0  0  0  0  0  0  0  0  0  0  0
   10.8266   10.7028   25.7562 N   0  0  0  0  0  0  0  0  0  0  0  0
  1  2  1  0  0  0  0
  1  6  1  0  0  0  0
  2  3  2  0  0  0  0
  3  4  1  0  0  0  0
  4  5  2  0  0  0  0
  4 10  1  0  0  0  0
  5  6  1  0  0  0  0
  5  8  1  0  0  0  0
  6  7  2  0  0  0  0
  8  9  1  0  0  0  0
  9 10  2  0  0  0  0
M  END
>  <CHROM.1>
11.19402509,9.53444928,27.56045807,0.13511187,-1.39979114,0.43999171

>  <Name>
ligand

>  <RI>
0

>  <Rbt.Current_Directory>
/home/itssahil/PROJECTS/Mol_Feturizer/New_Systems/rnas/2EET

>  <Rbt.Executable>
rbdock ($Id: //depot/dev/client3/rdock/2013.1/src/exe/rbdock.cxx#4 $)

>  <Rbt.Library>
libRbt.so (2013.1, Build901 2013/11/27)

>  <Rbt.Parameter_File>
/export/apps/rDock/src/rDock_2013.1_src/data/scripts/dock_solv.prm

>  <Rbt.Receptor>
prm/pocket_docking_7.prm

>  <SCORE>
-18.0672

>  <SCORE.INTER>
-18.0721

>  <SCORE.INTER.CONST>
1

>  <SCORE.INTER.POLAR>
0

>  <SCORE.INTER.ROT>
0

>  <SCORE.INTER.SOLV>
4.18959

>  <SCORE.INTER.VDW>
-17.0446

>  <SCORE.INTER.norm>
-1.80721

>  <SCORE.INTRA>
0

>  <SCORE.INTRA.DIHEDRAL>
0

>  <SCORE.INTRA.DIHEDRAL.0>
0

>  <SCORE.INTRA.POLAR>
0

>  <SCORE.INTRA.POLAR.0>
0

>  <SCORE.INTRA.REPUL>
0

>  <SCORE.INTRA.REPUL.0>
0

>  <SCORE.INTRA.SOLV>
0

>  <SCORE.INTRA.SOLV.lig_0>
-4.28464

>  <SCORE.INTRA.VDW>
0

>  <SCORE.INTRA.VDW.0>
0

>  <SCORE.INTRA.norm>
0

>  <SCORE.RESTR>
0.0049742

>  <SCORE.RESTR.CAVITY>
0.0049742

>  <SCORE.RESTR.norm>
0.00049742

>  <SCORE.SYSTEM>
0

>  <SCORE.SYSTEM.CONST>
0

>  <SCORE.SYSTEM.DIHEDRAL>
0

>  <SCORE.SYSTEM.SOLV>
0

>  <SCORE.SYSTEM.norm>
0

>  <SCORE.heavy>
10

>  <SCORE.norm>
-1.80672

>  <RMSD>
0.725

$$$$
ligand
 OpenBabel11021811423D
libRbt.so/2013.1/901 2013/11/27
 10 11  0  0  0  0  0  0  0  0999 V2000
   11.4752    9.5062   29.4916 N   0  0  0  0  0  0  0  0  0  0  0  0
   11.3464   10.8702   29.2949 C   0  0  0  0  0  0  0  0  0  0  0  0
   11.1251   11.3918   28.0822 N   0  0  0  0  0  0  0  0  0  0  0  0
   11.0447   10.4424   27.0944 C   0  0  0  0  0  0  0  0  0  0  0  0
   11.1642    9.0784   27.2298 C   0  0  0  0  0  0  0  0  0  0  0  0
   11.3993    8.5135   28.5140 C   0  0  0  0  0  0  0  0  0  0  0  0
   11.5364    7.3310   28.8522 O   0  0  0  0  0  0  0  0  0  0  0  0
   11.0182    8.5037   25.9942 N   0  0  0  0  0  0  0  0  0  0  0  0
   10.8110    9.5089   25.1222 C   0  0  0  0  0  0  0  0  0  0  0  0
   10.8232   10.7191   25.7687 N   0  0  0  0  0  0  0  0  0  0  0  0
  1  2  1  0  0  0  0
  1  6  1  0  0  0  0
  2  3  2  0  0  0  0
  3  4  1  0  0  0  0
  4  5  2  0  0  0  0
  4 10  1  0  0  0  0
  5  6  1  0  0  0  0
  5  8  1  0  0  0  0
  6  7  2  0  0  0  0
  8  9  1  0  0  0  0
  9 10  2  0  0  0  0
M  END
>  <CHROM.1>
11.18145329,9.54522106,27.57120952,0.13828803,-1.40419390,0.44590601

>  <Name>
ligand

>  <RI>
0

>  <Rbt.Current_Directory>
/home/itssahil/PROJECTS/Mol_Feturizer/New_Systems/rnas/2EET

>  <Rbt.Executable>
rbdock ($Id: //depot/dev/client3/rdock/2013.1/src/exe/rbdock.cxx#4 $)

>  <Rbt.Library>
libRbt.so (2013.1, Build901 2013/11/27)

>  <Rbt.Parameter_File>
/export/apps/rDock/src/rDock_2013.1_src/data/scripts/dock_solv.prm

>  <Rbt.Receptor>
prm/blind_docking_100.prm

>  <SCORE>
-18.0785

>  <SCORE.INTER>
-18.0785

>  <SCORE.INTER.CONST>
1

>  <SCORE.INTER.POLAR>
0

>  <SCORE.INTER.ROT>
0

>  <SCORE.INTER.SOLV>
4.21983

>  <SCORE.INTER.VDW>
-17.0589

>  <SCORE.INTER.norm>
-1.80785

>  <SCORE.INTRA>
0

>  <SCORE.INTRA.DIHEDRAL>
0

>  <SCORE.INTRA.DIHEDRAL.0>
0

>  <SCORE.INTRA.POLAR>
0

>  <SCORE.INTRA.POLAR.0>
0

>  <SCORE.INTRA.REPUL>
0

>  <SCORE.INTRA.REPUL.0>
0

>  <SCORE.INTRA.SOLV>
0

>  <SCORE.INTRA.SOLV.lig_0>
-4.28464

>  <SCORE.INTRA.VDW>
0

>  <SCORE.INTRA.VDW.0>
0

>  <SCORE.INTRA.norm>
0

>  <SCORE.RESTR>
0

>  <SCORE.RESTR.CAVITY>
0

>  <SCORE.RESTR.norm>
0

>  <SCORE.SYSTEM>
0

>  <SCORE.SYSTEM.CONST>
0

>  <SCORE.SYSTEM.DIHEDRAL>
0

>  <SCORE.SYSTEM.SOLV>
0

>  <SCORE.SYSTEM.norm>
0

>  <SCORE.heavy>
10

>  <SCORE.norm>
-1.80785

>  <RMSD>
0.726

$$$$
ligand
 OpenBabel11021811423D
libRbt.so/2013.1/901 2013/11/27
 10 11  0  0  0  0  0  0  0  0999 V2000
   11.4866    9.5102   29.5161 N   0  0  0  0  0  0  0  0  0  0  0  0
   11.3641   10.8708   29.2939 C   0  0  0  0  0  0  0  0  0  0  0  0
   11.1418   11.3704   28.0722 N   0  0  0  0  0  0  0  0  0  0  0  0
   11.0535   10.4029   27.1029 C   0  0  0  0  0  0  0  0  0  0  0  0
   11.1665    9.0411   27.2638 C   0  0  0  0  0  0  0  0  0  0  0  0
   11.4026    8.4995   28.5577 C   0  0  0  0  0  0  0  0  0  0  0  0
   11.5347    7.3229   28.9180 O   0  0  0  0  0  0  0  0  0  0  0  0
   11.0138    8.4438   26.0397 N   0  0  0  0  0  0  0  0  0  0  0  0
   10.8090    9.4333   25.1495 C   0  0  0  0  0  0  0  0  0  0  0  0
   10.8294   10.6556   25.7728 N   0  0  0  0  0  0  0  0  0  0  0  0
  1  2  1  0  0  0  0
  1  6  1  0  0  0  0
  2  3  2  0  0  0  0
  3  4  1  0  0  0  0
  4  5  2  0  0  0  0
  4 10  1  0  0  0  0
  5  6  1  0  0  0  0
  5  8  1  0  0  0  0
  6  7  2  0  0  0  0
  8  9  1  0  0  0  0
  9 10  2  0  0  0  0
M  END
>  <CHROM.1>
11.18715046,9.51422311,27.59618827,0.10285707,-1.40353443,0.39198557

>  <Name>
ligand

>  <RI>
0

>  <Rbt.Current_Directory>
/home/itssahil/PROJECTS/Mol_Feturizer/New_Systems/rnas/2EET

>  <Rbt.Executable>
rbdock ($Id: //depot/dev/client3/rdock/2013.1/src/exe/rbdock.cxx#4 $)

>  <Rbt.Library>
libRbt.so (2013.1, Build901 2013/11/27)

>  <Rbt.Parameter_File>
/export/apps/rDock/src/rDock_2013.1_src/data/scripts/dock_solv.prm

>  <Rbt.Receptor>
prm/pocket_docking_3.prm

>  <SCORE>
-18.0928

>  <SCORE.INTER>
-18.0978

>  <SCORE.INTER.CONST>
1

>  <SCORE.INTER.POLAR>
0

>  <SCORE.INTER.ROT>
0

>  <SCORE.INTER.SOLV>
4.25935

>  <SCORE.INTER.VDW>
-17.085

>  <SCORE.INTER.norm>
-1.80978

>  <SCORE.INTRA>
0

>  <SCORE.INTRA.DIHEDRAL>
0

>  <SCORE.INTRA.DIHEDRAL.0>
0

>  <SCORE.INTRA.POLAR>
0

>  <SCORE.INTRA.POLAR.0>
0

>  <SCORE.INTRA.REPUL>
0

>  <SCORE.INTRA.REPUL.0>
0

>  <SCORE.INTRA.SOLV>
0

>  <SCORE.INTRA.SOLV.lig_0>
-4.28464

>  <SCORE.INTRA.VDW>
0

>  <SCORE.INTRA.VDW.0>
0

>  <SCORE.INTRA.norm>
0

>  <SCORE.RESTR>
0.00504724

>  <SCORE.RESTR.CAVITY>
0.00504724

>  <SCORE.RESTR.norm>
0.000504724

>  <SCORE.SYSTEM>
0

>  <SCORE.SYSTEM.CONST>
0

>  <SCORE.SYSTEM.DIHEDRAL>
0

>  <SCORE.SYSTEM.SOLV>
0

>  <SCORE.SYSTEM.norm>
0

>  <SCORE.heavy>
10

>  <SCORE.norm>
-1.80928

>  <RMSD>
0.726

$$$$
ligand
 OpenBabel11021811423D
libRbt.so/2013.1/901 2013/11/27
 10 11  0  0  0  0  0  0  0  0999 V2000
   11.4988    9.5054   29.4846 N   0  0  0  0  0  0  0  0  0  0  0  0
   11.3577   10.8662   29.2749 C   0  0  0  0  0  0  0  0  0  0  0  0
   11.1289   11.3741   28.0578 N   0  0  0  0  0  0  0  0  0  0  0  0
   11.0542   10.4145   27.0795 C   0  0  0  0  0  0  0  0  0  0  0  0
   11.1859    9.0529   27.2278 C   0  0  0  0  0  0  0  0  0  0  0  0
   11.4291    8.5026   28.5168 C   0  0  0  0  0  0  0  0  0  0  0  0
   11.5772    7.3247   28.8662 O   0  0  0  0  0  0  0  0  0  0  0  0
   11.0418    8.4650   25.9982 N   0  0  0  0  0  0  0  0  0  0  0  0
   10.8237    9.4599   25.1171 C   0  0  0  0  0  0  0  0  0  0  0  0
   10.8271   10.6764   25.7517 N   0  0  0  0  0  0  0  0  0  0  0  0
  1  2  1  0  0  0  0
  1  6  1  0  0  0  0
  2  3  2  0  0  0  0
  3  4  1  0  0  0  0
  4  5  2  0  0  0  0
  4 10  1  0  0  0  0
  5  6  1  0  0  0  0
  5  8  1  0  0  0  0
  6  7  2  0  0  0  0
  8  9  1  0  0  0  0
  9 10  2  0  0  0  0
M  END
>  <CHROM.1>
11.19993910,9.52321041,27.56463184,0.17764529,-1.39808545,0.47498886

>  <Name>
ligand

>  <RI>
0

>  <Rbt.Current_Directory>
/home/itssahil/PROJECTS/Mol_Feturizer/New_Systems/rnas/2EET

>  <Rbt.Executable>
rbdock ($Id: //depot/dev/client3/rdock/2013.1/src/exe/rbdock.cxx#4 $)

>  <Rbt.Library>
libRbt.so (2013.1, Build901 2013/11/27)

>  <Rbt.Parameter_File>
/export/apps/rDock/src/rDock_2013.1_src/data/scripts/dock_solv.prm

>  <Rbt.Receptor>
prm/pocket_docking_4.prm

>  <SCORE>
-18.0297

>  <SCORE.INTER>
-18.0297

>  <SCORE.INTER.CONST>
1

>  <SCORE.INTER.POLAR>
0

>  <SCORE.INTER.ROT>
0

>  <SCORE.INTER.SOLV>
4.17492

>  <SCORE.INTER.VDW>
-17.0114

>  <SCORE.INTER.norm>
-1.80297

>  <SCORE.INTRA>
0

>  <SCORE.INTRA.DIHEDRAL>
0

>  <SCORE.INTRA.DIHEDRAL.0>
0

>  <SCORE.INTRA.POLAR>
0

>  <SCORE.INTRA.POLAR.0>
0

>  <SCORE.INTRA.REPUL>
0

>  <SCORE.INTRA.REPUL.0>
0

>  <SCORE.INTRA.SOLV>
0

>  <SCORE.INTRA.SOLV.lig_0>
-4.28464

>  <SCORE.INTRA.VDW>
0

>  <SCORE.INTRA.VDW.0>
0

>  <SCORE.INTRA.norm>
0

>  <SCORE.RESTR>
0

>  <SCORE.RESTR.CAVITY>
0

>  <SCORE.RESTR.norm>
0

>  <SCORE.SYSTEM>
0

>  <SCORE.SYSTEM.CONST>
0

>  <SCORE.SYSTEM.DIHEDRAL>
0

>  <SCORE.SYSTEM.SOLV>
0

>  <SCORE.SYSTEM.norm>
0

>  <SCORE.heavy>
10

>  <SCORE.norm>
-1.80297

>  <RMSD>
0.726

$$$$
ligand
 OpenBabel11021811423D
libRbt.so/2013.1/901 2013/11/27
 10 11  0  0  0  0  0  0  0  0999 V2000
   11.4668    9.5164   29.5461 N   0  0  0  0  0  0  0  0  0  0  0  0
   11.3489   10.8762   29.3167 C   0  0  0  0  0  0  0  0  0  0  0  0
   11.1348   11.3705   28.0913 N   0  0  0  0  0  0  0  0  0  0  0  0
   11.0500   10.3985   27.1261 C   0  0  0  0  0  0  0  0  0  0  0  0
   11.1588    9.0372   27.2942 C   0  0  0  0  0  0  0  0  0  0  0  0
   11.3861    8.5013   28.5921 C   0  0  0  0  0  0  0  0  0  0  0  0
   11.5133    7.3262   28.9588 O   0  0  0  0  0  0  0  0  0  0  0  0
   11.0118    8.4344   26.0721 N   0  0  0  0  0  0  0  0  0  0  0  0
   10.8146    9.4201   25.1760 C   0  0  0  0  0  0  0  0  0  0  0  0
   10.8342   10.6453   25.7935 N   0  0  0  0  0  0  0  0  0  0  0  0
  1  2  1  0  0  0  0
  1  6  1  0  0  0  0
  2  3  2  0  0  0  0
  3  4  1  0  0  0  0
  4  5  2  0  0  0  0
  4 10  1  0  0  0  0
  5  6  1  0  0  0  0
  5  8  1  0  0  0  0
  6  7  2  0  0  0  0
  8  9  1  0  0  0  0
  9 10  2  0  0  0  0
M  END
>  <CHROM.1>
11.17863050,9.51189242,27.62447768,0.10324997,-1.40982979,0.38757713

>  <Name>
ligand

>  <RI>
0

>  <Rbt.Current_Directory>
/home/itssahil/PROJECTS/Mol_Feturizer/New_Systems/rnas/2EET

>  <Rbt.Executable>
rbdock ($Id: //depot/dev/client3/rdock/2013.1/src/exe/rbdock.cxx#4 $)

>  <Rbt.Library>
libRbt.so (2013.1, Build901 2013/11/27)

>  <Rbt.Parameter_File>
/export/apps/rDock/src/rDock_2013.1_src/data/scripts/dock_solv.prm

>  <Rbt.Receptor>
prm/pocket_docking_5.prm

>  <SCORE>
-18.031

>  <SCORE.INTER>
-18.031

>  <SCORE.INTER.CONST>
1

>  <SCORE.INTER.POLAR>
0

>  <SCORE.INTER.ROT>
0

>  <SCORE.INTER.SOLV>
4.31888

>  <SCORE.INTER.VDW>
-17.0603

>  <SCORE.INTER.norm>
-1.8031

>  <SCORE.INTRA>
0

>  <SCORE.INTRA.DIHEDRAL>
0

>  <SCORE.INTRA.DIHEDRAL.0>
0

>  <SCORE.INTRA.POLAR>
0

>  <SCORE.INTRA.POLAR.0>
0

>  <SCORE.INTRA.REPUL>
0

>  <SCORE.INTRA.REPUL.0>
0

>  <SCORE.INTRA.SOLV>
0

>  <SCORE.INTRA.SOLV.lig_0>
-4.28464

>  <SCORE.INTRA.VDW>
0

>  <SCORE.INTRA.VDW.0>
0

>  <SCORE.INTRA.norm>
0

>  <SCORE.RESTR>
0

>  <SCORE.RESTR.CAVITY>
0

>  <SCORE.RESTR.norm>
0

>  <SCORE.SYSTEM>
0

>  <SCORE.SYSTEM.CONST>
0

>  <SCORE.SYSTEM.DIHEDRAL>
0

>  <SCORE.SYSTEM.SOLV>
0

>  <SCORE.SYSTEM.norm>
0

>  <SCORE.heavy>
10

>  <SCORE.norm>
-1.8031

>  <RMSD>
0.726

$$$$
ligand
 OpenBabel11021811423D
libRbt.so/2013.1/901 2013/11/27
 10 11  0  0  0  0  0  0  0  0999 V2000
   11.4739    9.5063   29.5148 N   0  0  0  0  0  0  0  0  0  0  0  0
   11.3538   10.8682   29.2995 C   0  0  0  0  0  0  0  0  0  0  0  0
   11.1353   11.3747   28.0799 N   0  0  0  0  0  0  0  0  0  0  0  0
   11.0482   10.4125   27.1052 C   0  0  0  0  0  0  0  0  0  0  0  0
   11.1590    9.0497   27.2591 C   0  0  0  0  0  0  0  0  0  0  0  0
   11.3911    8.5008   28.5507 C   0  0  0  0  0  0  0  0  0  0  0  0
   11.5207    7.3222   28.9050 O   0  0  0  0  0  0  0  0  0  0  0  0
   11.0086    8.4592   26.0315 N   0  0  0  0  0  0  0  0  0  0  0  0
   10.8075    9.4537   25.1460 C   0  0  0  0  0  0  0  0  0  0  0  0
   10.8279   10.6726   25.7759 N   0  0  0  0  0  0  0  0  0  0  0  0
  1  2  1  0  0  0  0
  1  6  1  0  0  0  0
  2  3  2  0  0  0  0
  3  4  1  0  0  0  0
  4  5  2  0  0  0  0
  4 10  1  0  0  0  0
  5  6  1  0  0  0  0
  5  8  1  0  0  0  0
  6  7  2  0  0  0  0
  8  9  1  0  0  0  0
  9 10  2  0  0  0  0
M  END
>  <CHROM.1>
11.17943142,9.52100021,27.59410351,0.10141544,-1.40640455,0.39592161

>  <Name>
ligand

>  <RI>
0

>  <Rbt.Current_Directory>
/home/itssahil/PROJECTS/Mol_Feturizer/New_Systems/rnas/2EET

>  <Rbt.Executable>
rbdock ($Id: //depot/dev/client3/rdock/2013.1/src/exe/rbdock.cxx#4 $)

>  <Rbt.Library>
libRbt.so (2013.1, Build901 2013/11/27)

>  <Rbt.Parameter_File>
/export/apps/rDock/src/rDock_2013.1_src/data/scripts/dock_solv.prm

>  <Rbt.Receptor>
prm/pocket_docking_6.prm

>  <SCORE>
-18.0831

>  <SCORE.INTER>
-18.0845

>  <SCORE.INTER.CONST>
1

>  <SCORE.INTER.POLAR>
0

>  <SCORE.INTER.ROT>
0

>  <SCORE.INTER.SOLV>
4.26931

>  <SCORE.INTER.VDW>
-17.0794

>  <SCORE.INTER.norm>
-1.80845

>  <SCORE.INTRA>
0

>  <SCORE.INTRA.DIHEDRAL>
0

>  <SCORE.INTRA.DIHEDRAL.0>
0

>  <SCORE.INTRA.POLAR>
0

>  <SCORE.INTRA.POLAR.0>
0

>  <SCORE.INTRA.REPUL>
0

>  <SCORE.INTRA.REPUL.0>
0

>  <SCORE.INTRA.SOLV>
0

>  <SCORE.INTRA.SOLV.lig_0>
-4.28464

>  <SCORE.INTRA.VDW>
0

>  <SCORE.INTRA.VDW.0>
0

>  <SCORE.INTRA.norm>
0

>  <SCORE.RESTR>
0.00138511

>  <SCORE.RESTR.CAVITY>
0.00138511

>  <SCORE.RESTR.norm>
0.000138511

>  <SCORE.SYSTEM>
0

>  <SCORE.SYSTEM.CONST>
0

>  <SCORE.SYSTEM.DIHEDRAL>
0

>  <SCORE.SYSTEM.SOLV>
0

>  <SCORE.SYSTEM.norm>
0

>  <SCORE.heavy>
10

>  <SCORE.norm>
-1.80831

>  <RMSD>
0.726

$$$$
ligand
 OpenBabel11021811423D
libRbt.so/2013.1/901 2013/11/27
 10 11  0  0  0  0  0  0  0  0999 V2000
   11.4879    9.5085   29.4804 N   0  0  0  0  0  0  0  0  0  0  0  0
   11.3513   10.8716   29.2831 C   0  0  0  0  0  0  0  0  0  0  0  0
   11.1257   11.3914   28.0704 N   0  0  0  0  0  0  0  0  0  0  0  0
   11.0494   10.4410   27.0832 C   0  0  0  0  0  0  0  0  0  0  0  0
   11.1766    9.0778   27.2191 C   0  0  0  0  0  0  0  0  0  0  0  0
   11.4164    8.5149   28.5033 C   0  0  0  0  0  0  0  0  0  0  0  0
   11.5604    7.3333   28.8420 O   0  0  0  0  0  0  0  0  0  0  0  0
   11.0324    8.5017   25.9840 N   0  0  0  0  0  0  0  0  0  0  0  0
   10.8186    9.5052   25.1118 C   0  0  0  0  0  0  0  0  0  0  0  0
   10.8249   10.7159   25.7576 N   0  0  0  0  0  0  0  0  0  0  0  0
  1  2  1  0  0  0  0
  1  6  1  0  0  0  0
  2  3  2  0  0  0  0
  3  4  1  0  0  0  0
  4  5  2  0  0  0  0
  4 10  1  0  0  0  0
  5  6  1  0  0  0  0
  5  8  1  0  0  0  0
  6  7  2  0  0  0  0
  8  9  1  0  0  0  0
  9 10  2  0  0  0  0
M  END
>  <CHROM.1>
11.19168228,9.54489481,27.56029755,0.16493490,-1.40071146,0.47166479

>  <Name>
ligand

>  <RI>
0

>  <Rbt.Current_Directory>
/home/itssahil/PROJECTS/Mol_Feturizer/New_Systems/rnas/2EET

>  <Rbt.Executable>
rbdock ($Id: //depot/dev/client3/rdock/2013.1/src/exe/rbdock.cxx#4 $)

>  <Rbt.Library>
libRbt.so (2013.1, Build901 2013/11/27)

>  <Rbt.Parameter_File>
/export/apps/rDock/src/rDock_2013.1_src/data/scripts/dock_solv.prm

>  <Rbt.Receptor>
prm/blind_docking_100.prm

>  <SCORE>
-18.0736

>  <SCORE.INTER>
-18.0736

>  <SCORE.INTER.CONST>
1

>  <SCORE.INTER.POLAR>
0

>  <SCORE.INTER.ROT>
0

>  <SCORE.INTER.SOLV>
4.1826

>  <SCORE.INTER.VDW>
-17.0433

>  <SCORE.INTER.norm>
-1.80736

>  <SCORE.INTRA>
0

>  <SCORE.INTRA.DIHEDRAL>
0

>  <SCORE.INTRA.DIHEDRAL.0>
0

>  <SCORE.INTRA.POLAR>
0

>  <SCORE.INTRA.POLAR.0>
0

>  <SCORE.INTRA.REPUL>
0

>  <SCORE.INTRA.REPUL.0>
0

>  <SCORE.INTRA.SOLV>
0

>  <SCORE.INTRA.SOLV.lig_0>
-4.28464

>  <SCORE.INTRA.VDW>
0

>  <SCORE.INTRA.VDW.0>
0

>  <SCORE.INTRA.norm>
0

>  <SCORE.RESTR>
0

>  <SCORE.RESTR.CAVITY>
0

>  <SCORE.RESTR.norm>
0

>  <SCORE.SYSTEM>
0

>  <SCORE.SYSTEM.CONST>
0

>  <SCORE.SYSTEM.DIHEDRAL>
0

>  <SCORE.SYSTEM.SOLV>
0

>  <SCORE.SYSTEM.norm>
0

>  <SCORE.heavy>
10

>  <SCORE.norm>
-1.80736

>  <RMSD>
0.727

$$$$
ligand
 OpenBabel11021811423D
libRbt.so/2013.1/901 2013/11/27
 10 11  0  0  0  0  0  0  0  0999 V2000
   11.4752    9.5068   29.5101 N   0  0  0  0  0  0  0  0  0  0  0  0
   11.3518   10.8686   29.2954 C   0  0  0  0  0  0  0  0  0  0  0  0
   11.1335   11.3752   28.0758 N   0  0  0  0  0  0  0  0  0  0  0  0
   11.0502   10.4132   27.1004 C   0  0  0  0  0  0  0  0  0  0  0  0
   11.1644    9.0506   27.2538 C   0  0  0  0  0  0  0  0  0  0  0  0
   11.3963    8.5017   28.5454 C   0  0  0  0  0  0  0  0  0  0  0  0
   11.5285    7.3232   28.8992 O   0  0  0  0  0  0  0  0  0  0  0  0
   11.0171    8.4604   26.0256 N   0  0  0  0  0  0  0  0  0  0  0  0
   10.8145    9.4549   25.1404 C   0  0  0  0  0  0  0  0  0  0  0  0
   10.8309   10.6734   25.7710 N   0  0  0  0  0  0  0  0  0  0  0  0
  1  2  1  0  0  0  0
  1  6  1  0  0  0  0
  2  3  2  0  0  0  0
  3  4  1  0  0  0  0
  4  5  2  0  0  0  0
  4 10  1  0  0  0  0
  5  6  1  0  0  0  0
  5  8  1  0  0  0  0
  6  7  2  0  0  0  0
  8  9  1  0  0  0  0
  9 10  2  0  0  0  0
M  END
>  <CHROM.1>
11.18313207,9.52184369,27.58904303,0.11920032,-1.40655786,0.41399526

>  <Name>
ligand

>  <RI>
0

>  <Rbt.Current_Directory>
/home/itssahil/PROJECTS/Mol_Feturizer/New_Systems/rnas/2EET

>  <Rbt.Executable>
rbdock ($Id: //depot/dev/client3/rdock/2013.1/src/exe/rbdock.cxx#4 $)

>  <Rbt.Library>
libRbt.so (2013.1, Build901 2013/11/27)

>  <Rbt.Parameter_File>
/export/apps/rDock/src/rDock_2013.1_src/data/scripts/dock_solv.prm

>  <Rbt.Receptor>
prm/blind_docking_40.prm

>  <SCORE>
-18.0809

>  <SCORE.INTER>
-18.0811

>  <SCORE.INTER.CONST>
1

>  <SCORE.INTER.POLAR>
0

>  <SCORE.INTER.ROT>
0

>  <SCORE.INTER.SOLV>
4.25667

>  <SCORE.INTER.VDW>
-17.073

>  <SCORE.INTER.norm>
-1.80811

>  <SCORE.INTRA>
0

>  <SCORE.INTRA.DIHEDRAL>
0

>  <SCORE.INTRA.DIHEDRAL.0>
0

>  <SCORE.INTRA.POLAR>
0

>  <SCORE.INTRA.POLAR.0>
0

>  <SCORE.INTRA.REPUL>
0

>  <SCORE.INTRA.REPUL.0>
0

>  <SCORE.INTRA.SOLV>
0

>  <SCORE.INTRA.SOLV.lig_0>
-4.28464

>  <SCORE.INTRA.VDW>
0

>  <SCORE.INTRA.VDW.0>
0

>  <SCORE.INTRA.norm>
0

>  <SCORE.RESTR>
0.000183085

>  <SCORE.RESTR.CAVITY>
0.000183085

>  <SCORE.RESTR.norm>
1.83085e-05

>  <SCORE.SYSTEM>
0

>  <SCORE.SYSTEM.CONST>
0

>  <SCORE.SYSTEM.DIHEDRAL>
0

>  <SCORE.SYSTEM.SOLV>
0

>  <SCORE.SYSTEM.norm>
0

>  <SCORE.heavy>
10

>  <SCORE.norm>
-1.80809

>  <RMSD>
0.727

$$$$
ligand
 OpenBabel11021811423D
libRbt.so/2013.1/901 2013/11/27
 10 11  0  0  0  0  0  0  0  0999 V2000
   11.4918    9.5241   29.5193 N   0  0  0  0  0  0  0  0  0  0  0  0
   11.3592   10.8830   29.2924 C   0  0  0  0  0  0  0  0  0  0  0  0
   11.1321   11.3768   28.0692 N   0  0  0  0  0  0  0  0  0  0  0  0
   11.0499   10.4053   27.1034 C   0  0  0  0  0  0  0  0  0  0  0  0
   11.1730    9.0449   27.2689 C   0  0  0  0  0  0  0  0  0  0  0  0
   11.4143    8.5095   28.5645 C   0  0  0  0  0  0  0  0  0  0  0  0
   11.5553    7.3352   28.9287 O   0  0  0  0  0  0  0  0  0  0  0  0
   11.0234    8.4423   26.0470 N   0  0  0  0  0  0  0  0  0  0  0  0
   10.8107    9.4272   25.1536 C   0  0  0  0  0  0  0  0  0  0  0  0
   10.8227   10.6517   25.7726 N   0  0  0  0  0  0  0  0  0  0  0  0
  1  2  1  0  0  0  0
  1  6  1  0  0  0  0
  2  3  2  0  0  0  0
  3  4  1  0  0  0  0
  4  5  2  0  0  0  0
  4 10  1  0  0  0  0
  5  6  1  0  0  0  0
  5  8  1  0  0  0  0
  6  7  2  0  0  0  0
  8  9  1  0  0  0  0
  9 10  2  0  0  0  0
M  END
>  <CHROM.1>
11.19050736,9.51932278,27.59963153,0.14028620,-1.39974954,0.42540881

>  <Name>
ligand

>  <RI>
0

>  <Rbt.Current_Directory>
/home/itssahil/PROJECTS/Mol_Feturizer/New_Systems/rnas/2EET

>  <Rbt.Executable>
rbdock ($Id: //depot/dev/client3/rdock/2013.1/src/exe/rbdock.cxx#4 $)

>  <Rbt.Library>
libRbt.so (2013.1, Build901 2013/11/27)

>  <Rbt.Parameter_File>
/export/apps/rDock/src/rDock_2013.1_src/data/scripts/dock_solv.prm

>  <Rbt.Receptor>
prm/blind_docking_40.prm

>  <SCORE>
-18.0761

>  <SCORE.INTER>
-18.0761

>  <SCORE.INTER.CONST>
1

>  <SCORE.INTER.POLAR>
0

>  <SCORE.INTER.ROT>
0

>  <SCORE.INTER.SOLV>
4.23844

>  <SCORE.INTER.VDW>
-17.0636

>  <SCORE.INTER.norm>
-1.80761

>  <SCORE.INTRA>
0

>  <SCORE.INTRA.DIHEDRAL>
0

>  <SCORE.INTRA.DIHEDRAL.0>
0

>  <SCORE.INTRA.POLAR>
0

>  <SCORE.INTRA.POLAR.0>
0

>  <SCORE.INTRA.REPUL>
0

>  <SCORE.INTRA.REPUL.0>
0

>  <SCORE.INTRA.SOLV>
0

>  <SCORE.INTRA.SOLV.lig_0>
-4.28464

>  <SCORE.INTRA.VDW>
0

>  <SCORE.INTRA.VDW.0>
0

>  <SCORE.INTRA.norm>
0

>  <SCORE.RESTR>
0

>  <SCORE.RESTR.CAVITY>
0

>  <SCORE.RESTR.norm>
0

>  <SCORE.SYSTEM>
0

>  <SCORE.SYSTEM.CONST>
0

>  <SCORE.SYSTEM.DIHEDRAL>
0

>  <SCORE.SYSTEM.SOLV>
0

>  <SCORE.SYSTEM.norm>
0

>  <SCORE.heavy>
10

>  <SCORE.norm>
-1.80761

>  <RMSD>
0.727

$$$$
ligand
 OpenBabel11021811423D
libRbt.so/2013.1/901 2013/11/27
 10 11  0  0  0  0  0  0  0  0999 V2000
   11.4893    9.5061   29.4758 N   0  0  0  0  0  0  0  0  0  0  0  0
   11.3497   10.8692   29.2804 C   0  0  0  0  0  0  0  0  0  0  0  0
   11.1212   11.3900   28.0687 N   0  0  0  0  0  0  0  0  0  0  0  0
   11.0452   10.4407   27.0805 C   0  0  0  0  0  0  0  0  0  0  0  0
   11.1753    9.0775   27.2145 C   0  0  0  0  0  0  0  0  0  0  0  0
   11.4182    8.5135   28.4977 C   0  0  0  0  0  0  0  0  0  0  0  0
   11.5651    7.3318   28.8347 O   0  0  0  0  0  0  0  0  0  0  0  0
   11.0303    8.5026   25.9789 N   0  0  0  0  0  0  0  0  0  0  0  0
   10.8132    9.5068   25.1083 C   0  0  0  0  0  0  0  0  0  0  0  0
   10.8181   10.7167   25.7555 N   0  0  0  0  0  0  0  0  0  0  0  0
  1  2  1  0  0  0  0
  1  6  1  0  0  0  0
  2  3  2  0  0  0  0
  3  4  1  0  0  0  0
  4  5  2  0  0  0  0
  4 10  1  0  0  0  0
  5  6  1  0  0  0  0
  5  8  1  0  0  0  0
  6  7  2  0  0  0  0
  8  9  1  0  0  0  0
  9 10  2  0  0  0  0
M  END
>  <CHROM.1>
11.19000793,9.54421773,27.55623278,0.17105250,-1.39840280,0.47892032

>  <Name>
ligand

>  <RI>
0

>  <Rbt.Current_Directory>
/home/itssahil/PROJECTS/Mol_Feturizer/New_Systems/rnas/2EET

>  <Rbt.Executable>
rbdock ($Id: //depot/dev/client3/rdock/2013.1/src/exe/rbdock.cxx#4 $)

>  <Rbt.Library>
libRbt.so (2013.1, Build901 2013/11/27)

>  <Rbt.Parameter_File>
/export/apps/rDock/src/rDock_2013.1_src/data/scripts/dock_solv.prm

>  <Rbt.Receptor>
prm/pocket_docking_3.prm

>  <SCORE>
-18.067

>  <SCORE.INTER>
-18.067

>  <SCORE.INTER.CONST>
1

>  <SCORE.INTER.POLAR>
0

>  <SCORE.INTER.ROT>
0

>  <SCORE.INTER.SOLV>
4.1709

>  <SCORE.INTER.VDW>
-17.035

>  <SCORE.INTER.norm>
-1.8067

>  <SCORE.INTRA>
0

>  <SCORE.INTRA.DIHEDRAL>
0

>  <SCORE.INTRA.DIHEDRAL.0>
0

>  <SCORE.INTRA.POLAR>
0

>  <SCORE.INTRA.POLAR.0>
0

>  <SCORE.INTRA.REPUL>
0

>  <SCORE.INTRA.REPUL.0>
0

>  <SCORE.INTRA.SOLV>
0

>  <SCORE.INTRA.SOLV.lig_0>
-4.28464

>  <SCORE.INTRA.VDW>
0

>  <SCORE.INTRA.VDW.0>
0

>  <SCORE.INTRA.norm>
0

>  <SCORE.RESTR>
0

>  <SCORE.RESTR.CAVITY>
0

>  <SCORE.RESTR.norm>
0

>  <SCORE.SYSTEM>
0

>  <SCORE.SYSTEM.CONST>
0

>  <SCORE.SYSTEM.DIHEDRAL>
0

>  <SCORE.SYSTEM.SOLV>
0

>  <SCORE.SYSTEM.norm>
0

>  <SCORE.heavy>
10

>  <SCORE.norm>
-1.8067

>  <RMSD>
0.727

$$$$
ligand
 OpenBabel11021811423D
libRbt.so/2013.1/901 2013/11/27
 10 11  0  0  0  0  0  0  0  0999 V2000
   11.4677    9.5075   29.5193 N   0  0  0  0  0  0  0  0  0  0  0  0
   11.3499   10.8697   29.3044 C   0  0  0  0  0  0  0  0  0  0  0  0
   11.1326   11.3770   28.0850 N   0  0  0  0  0  0  0  0  0  0  0  0
   11.0444   10.4152   27.1099 C   0  0  0  0  0  0  0  0  0  0  0  0
   11.1529    9.0522   27.2633 C   0  0  0  0  0  0  0  0  0  0  0  0
   11.3836    8.5025   28.5548 C   0  0  0  0  0  0  0  0  0  0  0  0
   11.5112    7.3235   28.9087 O   0  0  0  0  0  0  0  0  0  0  0  0
   11.0020    8.4624   26.0354 N   0  0  0  0  0  0  0  0  0  0  0  0
   10.8028    9.4576   25.1502 C   0  0  0  0  0  0  0  0  0  0  0  0
   10.8249   10.6762   25.7806 N   0  0  0  0  0  0  0  0  0  0  0  0
  1  2  1  0  0  0  0
  1  6  1  0  0  0  0
  2  3  2  0  0  0  0
  3  4  1  0  0  0  0
  4  5  2  0  0  0  0
  4 10  1  0  0  0  0
  5  6  1  0  0  0  0
  5  8  1  0  0  0  0
  6  7  2  0  0  0  0
  8  9  1  0  0  0  0
  9 10  2  0  0  0  0
M  END
>  <CHROM.1>
11.17393621,9.52337723,27.59849726,0.09311785,-1.40737058,0.38809575

>  <Name>
ligand

>  <RI>
0

>  <Rbt.Current_Directory>
/home/itssahil/PROJECTS/Mol_Feturizer/New_Systems/rnas/2EET

>  <Rbt.Executable>
rbdock ($Id: //depot/dev/client3/rdock/2013.1/src/exe/rbdock.cxx#4 $)

>  <Rbt.Library>
libRbt.so (2013.1, Build901 2013/11/27)

>  <Rbt.Parameter_File>
/export/apps/rDock/src/rDock_2013.1_src/data/scripts/dock_solv.prm

>  <Rbt.Receptor>
prm/pocket_docking_5.prm

>  <SCORE>
-18.0773

>  <SCORE.INTER>
-18.0773

>  <SCORE.INTER.CONST>
1

>  <SCORE.INTER.POLAR>
0

>  <SCORE.INTER.ROT>
0

>  <SCORE.INTER.SOLV>
4.28402

>  <SCORE.INTER.VDW>
-17.0795

>  <SCORE.INTER.norm>
-1.80773

>  <SCORE.INTRA>
0

>  <SCORE.INTRA.DIHEDRAL>
0

>  <SCORE.INTRA.DIHEDRAL.0>
0

>  <SCORE.INTRA.POLAR>
0

>  <SCORE.INTRA.POLAR.0>
0

>  <SCORE.INTRA.REPUL>
0

>  <SCORE.INTRA.REPUL.0>
0

>  <SCORE.INTRA.SOLV>
0

>  <SCORE.INTRA.SOLV.lig_0>
-4.28464

>  <SCORE.INTRA.VDW>
0

>  <SCORE.INTRA.VDW.0>
0

>  <SCORE.INTRA.norm>
0

>  <SCORE.RESTR>
0

>  <SCORE.RESTR.CAVITY>
0

>  <SCORE.RESTR.norm>
0

>  <SCORE.SYSTEM>
0

>  <SCORE.SYSTEM.CONST>
0

>  <SCORE.SYSTEM.DIHEDRAL>
0

>  <SCORE.SYSTEM.SOLV>
0

>  <SCORE.SYSTEM.norm>
0

>  <SCORE.heavy>
10

>  <SCORE.norm>
-1.80773

>  <RMSD>
0.727

$$$$
ligand
 OpenBabel11021811423D
libRbt.so/2013.1/901 2013/11/27
 10 11  0  0  0  0  0  0  0  0999 V2000
   11.4851    9.5070   29.4817 N   0  0  0  0  0  0  0  0  0  0  0  0
   11.3496   10.8704   29.2852 C   0  0  0  0  0  0  0  0  0  0  0  0
   11.1256   11.3911   28.0726 N   0  0  0  0  0  0  0  0  0  0  0  0
   11.0496   10.4415   27.0847 C   0  0  0  0  0  0  0  0  0  0  0  0
   11.1758    9.0781   27.2198 C   0  0  0  0  0  0  0  0  0  0  0  0
   11.4139    8.5141   28.5038 C   0  0  0  0  0  0  0  0  0  0  0  0
   11.5568    7.3322   28.8418 O   0  0  0  0  0  0  0  0  0  0  0  0
   11.0324    8.5029   25.9841 N   0  0  0  0  0  0  0  0  0  0  0  0
   10.8202    9.5072   25.1124 C   0  0  0  0  0  0  0  0  0  0  0  0
   10.8266   10.7174   25.7590 N   0  0  0  0  0  0  0  0  0  0  0  0
  1  2  1  0  0  0  0
  1  6  1  0  0  0  0
  2  3  2  0  0  0  0
  3  4  1  0  0  0  0
  4  5  2  0  0  0  0
  4 10  1  0  0  0  0
  5  6  1  0  0  0  0
  5  8  1  0  0  0  0
  6  7  2  0  0  0  0
  8  9  1  0  0  0  0
  9 10  2  0  0  0  0
M  END
>  <CHROM.1>
11.19086285,9.54493228,27.56128840,0.16417571,-1.40188439,0.47161746

>  <Name>
ligand

>  <RI>
0

>  <Rbt.Current_Directory>
/home/itssahil/PROJECTS/Mol_Feturizer/New_Systems/rnas/2EET

>  <Rbt.Executable>
rbdock ($Id: //depot/dev/client3/rdock/2013.1/src/exe/rbdock.cxx#4 $)

>  <Rbt.Library>
libRbt.so (2013.1, Build901 2013/11/27)

>  <Rbt.Parameter_File>
/export/apps/rDock/src/rDock_2013.1_src/data/scripts/dock_solv.prm

>  <Rbt.Receptor>
prm/pocket_docking_6.prm

>  <SCORE>
-18.0739

>  <SCORE.INTER>
-18.0739

>  <SCORE.INTER.CONST>
1

>  <SCORE.INTER.POLAR>
0

>  <SCORE.INTER.ROT>
0

>  <SCORE.INTER.SOLV>
4.18756

>  <SCORE.INTER.VDW>
-17.0451

>  <SCORE.INTER.norm>
-1.80739

>  <SCORE.INTRA>
0

>  <SCORE.INTRA.DIHEDRAL>
0

>  <SCORE.INTRA.DIHEDRAL.0>
0

>  <SCORE.INTRA.POLAR>
0

>  <SCORE.INTRA.POLAR.0>
0

>  <SCORE.INTRA.REPUL>
0

>  <SCORE.INTRA.REPUL.0>
0

>  <SCORE.INTRA.SOLV>
0

>  <SCORE.INTRA.SOLV.lig_0>
-4.28464

>  <SCORE.INTRA.VDW>
0

>  <SCORE.INTRA.VDW.0>
0

>  <SCORE.INTRA.norm>
0

>  <SCORE.RESTR>
0

>  <SCORE.RESTR.CAVITY>
0

>  <SCORE.RESTR.norm>
0

>  <SCORE.SYSTEM>
0

>  <SCORE.SYSTEM.CONST>
0

>  <SCORE.SYSTEM.DIHEDRAL>
0

>  <SCORE.SYSTEM.SOLV>
0

>  <SCORE.SYSTEM.norm>
0

>  <SCORE.heavy>
10

>  <SCORE.norm>
-1.80739

>  <RMSD>
0.727

$$$$
ligand
 OpenBabel11021811423D
libRbt.so/2013.1/901 2013/11/27
 10 11  0  0  0  0  0  0  0  0999 V2000
   11.4984    9.5567   29.5255 N   0  0  0  0  0  0  0  0  0  0  0  0
   11.3452   10.9134   29.2984 C   0  0  0  0  0  0  0  0  0  0  0  0
   11.1208   11.4043   28.0735 N   0  0  0  0  0  0  0  0  0  0  0  0
   11.0636   10.4323   27.1063 C   0  0  0  0  0  0  0  0  0  0  0  0
   11.2079    9.0741   27.2719 C   0  0  0  0  0  0  0  0  0  0  0  0
   11.4465    8.5417   28.5693 C   0  0  0  0  0  0  0  0  0  0  0  0
   11.6038    7.3696   28.9340 O   0  0  0  0  0  0  0  0  0  0  0  0
   11.0794    8.4701   26.0484 N   0  0  0  0  0  0  0  0  0  0  0  0
   10.8582    9.4520   25.1537 C   0  0  0  0  0  0  0  0  0  0  0  0
   10.8443   10.6760   25.7737 N   0  0  0  0  0  0  0  0  0  0  0  0
  1  2  1  0  0  0  0
  1  6  1  0  0  0  0
  2  3  2  0  0  0  0
  3  4  1  0  0  0  0
  4  5  2  0  0  0  0
  4 10  1  0  0  0  0
  5  6  1  0  0  0  0
  5  8  1  0  0  0  0
  6  7  2  0  0  0  0
  8  9  1  0  0  0  0
  9 10  2  0  0  0  0
M  END
>  <CHROM.1>
11.21448934,9.54846765,27.60317892,0.25187136,-1.39998662,0.53612711

>  <Name>
ligand

>  <RI>
0

>  <Rbt.Current_Directory>
/home/itssahil/PROJECTS/Mol_Feturizer/New_Systems/rnas/2EET

>  <Rbt.Executable>
rbdock ($Id: //depot/dev/client3/rdock/2013.1/src/exe/rbdock.cxx#4 $)

>  <Rbt.Library>
libRbt.so (2013.1, Build901 2013/11/27)

>  <Rbt.Parameter_File>
/export/apps/rDock/src/rDock_2013.1_src/data/scripts/dock_solv.prm

>  <Rbt.Receptor>
prm/blind_docking_60.prm

>  <SCORE>
-18.0327

>  <SCORE.INTER>
-18.0327

>  <SCORE.INTER.CONST>
1

>  <SCORE.INTER.POLAR>
0

>  <SCORE.INTER.ROT>
0

>  <SCORE.INTER.SOLV>
4.18475

>  <SCORE.INTER.VDW>
-17.0167

>  <SCORE.INTER.norm>
-1.80327

>  <SCORE.INTRA>
0

>  <SCORE.INTRA.DIHEDRAL>
0

>  <SCORE.INTRA.DIHEDRAL.0>
0

>  <SCORE.INTRA.POLAR>
0

>  <SCORE.INTRA.POLAR.0>
0

>  <SCORE.INTRA.REPUL>
0

>  <SCORE.INTRA.REPUL.0>
0

>  <SCORE.INTRA.SOLV>
0

>  <SCORE.INTRA.SOLV.lig_0>
-4.28464

>  <SCORE.INTRA.VDW>
0

>  <SCORE.INTRA.VDW.0>
0

>  <SCORE.INTRA.norm>
0

>  <SCORE.RESTR>
0

>  <SCORE.RESTR.CAVITY>
0

>  <SCORE.RESTR.norm>
0

>  <SCORE.SYSTEM>
0

>  <SCORE.SYSTEM.CONST>
0

>  <SCORE.SYSTEM.DIHEDRAL>
0

>  <SCORE.SYSTEM.SOLV>
0

>  <SCORE.SYSTEM.norm>
0

>  <SCORE.heavy>
10

>  <SCORE.norm>
-1.80327

>  <RMSD>
0.728

$$$$
ligand
 OpenBabel11021811423D
libRbt.so/2013.1/901 2013/11/27
 10 11  0  0  0  0  0  0  0  0999 V2000
   11.5085    9.5591   29.5133 N   0  0  0  0  0  0  0  0  0  0  0  0
   11.3537   10.9168   29.2929 C   0  0  0  0  0  0  0  0  0  0  0  0
   11.1131   11.4121   28.0729 N   0  0  0  0  0  0  0  0  0  0  0  0
   11.0415   10.4434   27.1033 C   0  0  0  0  0  0  0  0  0  0  0  0
   11.1864    9.0845   27.2624 C   0  0  0  0  0  0  0  0  0  0  0  0
   11.4422    8.5475   28.5546 C   0  0  0  0  0  0  0  0  0  0  0  0
   11.6032    7.3740   28.9131 O   0  0  0  0  0  0  0  0  0  0  0  0
   11.0405    8.4848   26.0387 N   0  0  0  0  0  0  0  0  0  0  0  0
   10.8081    9.4700   25.1505 C   0  0  0  0  0  0  0  0  0  0  0  0
   10.8041   10.6919   25.7747 N   0  0  0  0  0  0  0  0  0  0  0  0
  1  2  1  0  0  0  0
  1  6  1  0  0  0  0
  2  3  2  0  0  0  0
  3  4  1  0  0  0  0
  4  5  2  0  0  0  0
  4 10  1  0  0  0  0
  5  6  1  0  0  0  0
  5  8  1  0  0  0  0
  6  7  2  0  0  0  0
  8  9  1  0  0  0  0
  9 10  2  0  0  0  0
M  END
>  <CHROM.1>
11.19815697,9.55772256,27.59509367,0.20762618,-1.38859312,0.49593995

>  <Name>
ligand

>  <RI>
0

>  <Rbt.Current_Directory>
/home/itssahil/PROJECTS/Mol_Feturizer/New_Systems/rnas/2EET

>  <Rbt.Executable>
rbdock ($Id: //depot/dev/client3/rdock/2013.1/src/exe/rbdock.cxx#4 $)

>  <Rbt.Library>
libRbt.so (2013.1, Build901 2013/11/27)

>  <Rbt.Parameter_File>
/export/apps/rDock/src/rDock_2013.1_src/data/scripts/dock_solv.prm

>  <Rbt.Receptor>
prm/pocket_docking_4.prm

>  <SCORE>
-18.0207

>  <SCORE.INTER>
-18.0207

>  <SCORE.INTER.CONST>
1

>  <SCORE.INTER.POLAR>
0

>  <SCORE.INTER.ROT>
0

>  <SCORE.INTER.SOLV>
4.16143

>  <SCORE.INTER.VDW>
-17.0009

>  <SCORE.INTER.norm>
-1.80207

>  <SCORE.INTRA>
0

>  <SCORE.INTRA.DIHEDRAL>
0

>  <SCORE.INTRA.DIHEDRAL.0>
0

>  <SCORE.INTRA.POLAR>
0

>  <SCORE.INTRA.POLAR.0>
0

>  <SCORE.INTRA.REPUL>
0

>  <SCORE.INTRA.REPUL.0>
0

>  <SCORE.INTRA.SOLV>
0

>  <SCORE.INTRA.SOLV.lig_0>
-4.28464

>  <SCORE.INTRA.VDW>
0

>  <SCORE.INTRA.VDW.0>
0

>  <SCORE.INTRA.norm>
0

>  <SCORE.RESTR>
0

>  <SCORE.RESTR.CAVITY>
0

>  <SCORE.RESTR.norm>
0

>  <SCORE.SYSTEM>
0

>  <SCORE.SYSTEM.CONST>
0

>  <SCORE.SYSTEM.DIHEDRAL>
0

>  <SCORE.SYSTEM.SOLV>
0

>  <SCORE.SYSTEM.norm>
0

>  <SCORE.heavy>
10

>  <SCORE.norm>
-1.80207

>  <RMSD>
0.728

$$$$
ligand
 OpenBabel11021811423D
libRbt.so/2013.1/901 2013/11/27
 10 11  0  0  0  0  0  0  0  0999 V2000
   11.4828    9.5084   29.4835 N   0  0  0  0  0  0  0  0  0  0  0  0
   11.3461   10.8714   29.2851 C   0  0  0  0  0  0  0  0  0  0  0  0
   11.1201   11.3903   28.0721 N   0  0  0  0  0  0  0  0  0  0  0  0
   11.0435   10.4391   27.0857 C   0  0  0  0  0  0  0  0  0  0  0  0
   11.1708    9.0760   27.2226 C   0  0  0  0  0  0  0  0  0  0  0  0
   11.4109    8.5140   28.5072 C   0  0  0  0  0  0  0  0  0  0  0  0
   11.5551    7.3328   28.8467 O   0  0  0  0  0  0  0  0  0  0  0  0
   11.0261    8.4989   25.9879 N   0  0  0  0  0  0  0  0  0  0  0  0
   10.8121    9.5018   25.1150 C   0  0  0  0  0  0  0  0  0  0  0  0
   10.8185   10.7129   25.7599 N   0  0  0  0  0  0  0  0  0  0  0  0
  1  2  1  0  0  0  0
  1  6  1  0  0  0  0
  2  3  2  0  0  0  0
  3  4  1  0  0  0  0
  4  5  2  0  0  0  0
  4 10  1  0  0  0  0
  5  6  1  0  0  0  0
  5  8  1  0  0  0  0
  6  7  2  0  0  0  0
  8  9  1  0  0  0  0
  9 10  2  0  0  0  0
M  END
>  <CHROM.1>
11.18592825,9.54334475,27.56341355,0.16415282,-1.40040881,0.47013298

>  <Name>
ligand

>  <RI>
0

>  <Rbt.Current_Directory>
/home/itssahil/PROJECTS/Mol_Feturizer/New_Systems/rnas/2EET

>  <Rbt.Executable>
rbdock ($Id: //depot/dev/client3/rdock/2013.1/src/exe/rbdock.cxx#4 $)

>  <Rbt.Library>
libRbt.so (2013.1, Build901 2013/11/27)

>  <Rbt.Parameter_File>
/export/apps/rDock/src/rDock_2013.1_src/data/scripts/dock_solv.prm

>  <Rbt.Receptor>
prm/pocket_docking_5.prm

>  <SCORE>
-18.071

>  <SCORE.INTER>
-18.071

>  <SCORE.INTER.CONST>
1

>  <SCORE.INTER.POLAR>
0

>  <SCORE.INTER.ROT>
0

>  <SCORE.INTER.SOLV>
4.19073

>  <SCORE.INTER.VDW>
-17.0443

>  <SCORE.INTER.norm>
-1.8071

>  <SCORE.INTRA>
0

>  <SCORE.INTRA.DIHEDRAL>
0

>  <SCORE.INTRA.DIHEDRAL.0>
0

>  <SCORE.INTRA.POLAR>
0

>  <SCORE.INTRA.POLAR.0>
0

>  <SCORE.INTRA.REPUL>
0

>  <SCORE.INTRA.REPUL.0>
0

>  <SCORE.INTRA.SOLV>
0

>  <SCORE.INTRA.SOLV.lig_0>
-4.28464

>  <SCORE.INTRA.VDW>
0

>  <SCORE.INTRA.VDW.0>
0

>  <SCORE.INTRA.norm>
0

>  <SCORE.RESTR>
0

>  <SCORE.RESTR.CAVITY>
0

>  <SCORE.RESTR.norm>
0

>  <SCORE.SYSTEM>
0

>  <SCORE.SYSTEM.CONST>
0

>  <SCORE.SYSTEM.DIHEDRAL>
0

>  <SCORE.SYSTEM.SOLV>
0

>  <SCORE.SYSTEM.norm>
0

>  <SCORE.heavy>
10

>  <SCORE.norm>
-1.8071

>  <RMSD>
0.728

$$$$
ligand
 OpenBabel11021811423D
libRbt.so/2013.1/901 2013/11/27
 10 11  0  0  0  0  0  0  0  0999 V2000
   11.4771    9.5048   29.4935 N   0  0  0  0  0  0  0  0  0  0  0  0
   11.3569   10.8687   29.2910 C   0  0  0  0  0  0  0  0  0  0  0  0
   11.1302   11.3862   28.0775 N   0  0  0  0  0  0  0  0  0  0  0  0
   11.0351   10.4326   27.0950 C   0  0  0  0  0  0  0  0  0  0  0  0
   11.1455    9.0684   27.2362 C   0  0  0  0  0  0  0  0  0  0  0  0
   11.3863    8.5080   28.5213 C   0  0  0  0  0  0  0  0  0  0  0  0
   11.5172    7.3261   28.8642 O   0  0  0  0  0  0  0  0  0  0  0  0
   10.9858    8.4889   26.0045 N   0  0  0  0  0  0  0  0  0  0  0  0
   10.7794    9.4913   25.1293 C   0  0  0  0  0  0  0  0  0  0  0  0
   10.8056   10.7046   25.7697 N   0  0  0  0  0  0  0  0  0  0  0  0
  1  2  1  0  0  0  0
  1  6  1  0  0  0  0
  2  3  2  0  0  0  0
  3  4  1  0  0  0  0
  4  5  2  0  0  0  0
  4 10  1  0  0  0  0
  5  6  1  0  0  0  0
  5  8  1  0  0  0  0
  6  7  2  0  0  0  0
  8  9  1  0  0  0  0
  9 10  2  0  0  0  0
M  END
>  <CHROM.1>
11.16887809,9.53673910,27.57515349,0.07926502,-1.40018041,0.38286002

>  <Name>
ligand

>  <RI>
0

>  <Rbt.Current_Directory>
/home/itssahil/PROJECTS/Mol_Feturizer/New_Systems/rnas/2EET

>  <Rbt.Executable>
rbdock ($Id: //depot/dev/client3/rdock/2013.1/src/exe/rbdock.cxx#4 $)

>  <Rbt.Library>
libRbt.so (2013.1, Build901 2013/11/27)

>  <Rbt.Parameter_File>
/export/apps/rDock/src/rDock_2013.1_src/data/scripts/dock_solv.prm

>  <Rbt.Receptor>
prm/pocket_docking_6.prm

>  <SCORE>
-18.0786

>  <SCORE.INTER>
-18.0792

>  <SCORE.INTER.CONST>
1

>  <SCORE.INTER.POLAR>
0

>  <SCORE.INTER.ROT>
0

>  <SCORE.INTER.SOLV>
4.24637

>  <SCORE.INTER.VDW>
-17.0683

>  <SCORE.INTER.norm>
-1.80792

>  <SCORE.INTRA>
0

>  <SCORE.INTRA.DIHEDRAL>
0

>  <SCORE.INTRA.DIHEDRAL.0>
0

>  <SCORE.INTRA.POLAR>
0

>  <SCORE.INTRA.POLAR.0>
0

>  <SCORE.INTRA.REPUL>
0

>  <SCORE.INTRA.REPUL.0>
0

>  <SCORE.INTRA.SOLV>
0

>  <SCORE.INTRA.SOLV.lig_0>
-4.28464

>  <SCORE.INTRA.VDW>
0

>  <SCORE.INTRA.VDW.0>
0

>  <SCORE.INTRA.norm>
0

>  <SCORE.RESTR>
0.000570304

>  <SCORE.RESTR.CAVITY>
0.000570304

>  <SCORE.RESTR.norm>
5.70304e-05

>  <SCORE.SYSTEM>
0

>  <SCORE.SYSTEM.CONST>
0

>  <SCORE.SYSTEM.DIHEDRAL>
0

>  <SCORE.SYSTEM.SOLV>
0

>  <SCORE.SYSTEM.norm>
0

>  <SCORE.heavy>
10

>  <SCORE.norm>
-1.80786

>  <RMSD>
0.729

$$$$
ligand
 OpenBabel11021811423D
libRbt.so/2013.1/901 2013/11/27
 10 11  0  0  0  0  0  0  0  0999 V2000
   11.4675    9.5090   29.5125 N   0  0  0  0  0  0  0  0  0  0  0  0
   11.3449   10.8706   29.2965 C   0  0  0  0  0  0  0  0  0  0  0  0
   11.1271   11.3762   28.0764 N   0  0  0  0  0  0  0  0  0  0  0  0
   11.0434   10.4134   27.1020 C   0  0  0  0  0  0  0  0  0  0  0  0
   11.1568    9.0509   27.2566 C   0  0  0  0  0  0  0  0  0  0  0  0
   11.3881    8.5030   28.5488 C   0  0  0  0  0  0  0  0  0  0  0  0
   11.5196    7.3248   28.9037 O   0  0  0  0  0  0  0  0  0  0  0  0
   11.0094    8.4596   26.0290 N   0  0  0  0  0  0  0  0  0  0  0  0
   10.8075    9.4534   25.1428 C   0  0  0  0  0  0  0  0  0  0  0  0
   10.8245   10.6725   25.7723 N   0  0  0  0  0  0  0  0  0  0  0  0
  1  2  1  0  0  0  0
  1  6  1  0  0  0  0
  2  3  2  0  0  0  0
  3  4  1  0  0  0  0
  4  5  2  0  0  0  0
  4 10  1  0  0  0  0
  5  6  1  0  0  0  0
  5  8  1  0  0  0  0
  6  7  2  0  0  0  0
  8  9  1  0  0  0  0
  9 10  2  0  0  0  0
M  END
>  <CHROM.1>
11.17576086,9.52240088,27.59143337,0.11641692,-1.40694481,0.41032114

>  <Name>
ligand

>  <RI>
0

>  <Rbt.Current_Directory>
/home/itssahil/PROJECTS/Mol_Feturizer/New_Systems/rnas/2EET

>  <Rbt.Executable>
rbdock ($Id: //depot/dev/client3/rdock/2013.1/src/exe/rbdock.cxx#4 $)

>  <Rbt.Library>
libRbt.so (2013.1, Build901 2013/11/27)

>  <Rbt.Parameter_File>
/export/apps/rDock/src/rDock_2013.1_src/data/scripts/dock_solv.prm

>  <Rbt.Receptor>
prm/blind_docking_100.prm

>  <SCORE>
-18.071

>  <SCORE.INTER>
-18.071

>  <SCORE.INTER.CONST>
1

>  <SCORE.INTER.POLAR>
0

>  <SCORE.INTER.ROT>
0

>  <SCORE.INTER.SOLV>
4.26852

>  <SCORE.INTER.VDW>
-17.0702

>  <SCORE.INTER.norm>
-1.8071

>  <SCORE.INTRA>
0

>  <SCORE.INTRA.DIHEDRAL>
0

>  <SCORE.INTRA.DIHEDRAL.0>
0

>  <SCORE.INTRA.POLAR>
0

>  <SCORE.INTRA.POLAR.0>
0

>  <SCORE.INTRA.REPUL>
0

>  <SCORE.INTRA.REPUL.0>
0

>  <SCORE.INTRA.SOLV>
0

>  <SCORE.INTRA.SOLV.lig_0>
-4.28464

>  <SCORE.INTRA.VDW>
0

>  <SCORE.INTRA.VDW.0>
0

>  <SCORE.INTRA.norm>
0

>  <SCORE.RESTR>
0

>  <SCORE.RESTR.CAVITY>
0

>  <SCORE.RESTR.norm>
0

>  <SCORE.SYSTEM>
0

>  <SCORE.SYSTEM.CONST>
0

>  <SCORE.SYSTEM.DIHEDRAL>
0

>  <SCORE.SYSTEM.SOLV>
0

>  <SCORE.SYSTEM.norm>
0

>  <SCORE.heavy>
10

>  <SCORE.norm>
-1.8071

>  <RMSD>
0.730

$$$$
ligand
 OpenBabel11021811423D
libRbt.so/2013.1/901 2013/11/27
 10 11  0  0  0  0  0  0  0  0999 V2000
   11.4886    9.5466   29.5156 N   0  0  0  0  0  0  0  0  0  0  0  0
   11.3288   10.9029   29.2905 C   0  0  0  0  0  0  0  0  0  0  0  0
   11.1053   11.3949   28.0659 N   0  0  0  0  0  0  0  0  0  0  0  0
   11.0560   10.4244   27.0967 C   0  0  0  0  0  0  0  0  0  0  0  0
   11.2070    9.0666   27.2603 C   0  0  0  0  0  0  0  0  0  0  0  0
   11.4447    8.5331   28.5574 C   0  0  0  0  0  0  0  0  0  0  0  0
   11.6073    7.3612   28.9203 O   0  0  0  0  0  0  0  0  0  0  0  0
   11.0852    8.4642   26.0353 N   0  0  0  0  0  0  0  0  0  0  0  0
   10.8613    9.4466   25.1418 C   0  0  0  0  0  0  0  0  0  0  0  0
   10.8391   10.6694   25.7640 N   0  0  0  0  0  0  0  0  0  0  0  0
  1  2  1  0  0  0  0
  1  6  1  0  0  0  0
  2  3  2  0  0  0  0
  3  4  1  0  0  0  0
  4  5  2  0  0  0  0
  4 10  1  0  0  0  0
  5  6  1  0  0  0  0
  5  8  1  0  0  0  0
  6  7  2  0  0  0  0
  8  9  1  0  0  0  0
  9 10  2  0  0  0  0
M  END
>  <CHROM.1>
11.21016232,9.54042665,27.59246268,0.28715033,-1.39960814,0.57273256

>  <Name>
ligand

>  <RI>
0

>  <Rbt.Current_Directory>
/home/itssahil/PROJECTS/Mol_Feturizer/New_Systems/rnas/2EET

>  <Rbt.Executable>
rbdock ($Id: //depot/dev/client3/rdock/2013.1/src/exe/rbdock.cxx#4 $)

>  <Rbt.Library>
libRbt.so (2013.1, Build901 2013/11/27)

>  <Rbt.Parameter_File>
/export/apps/rDock/src/rDock_2013.1_src/data/scripts/dock_solv.prm

>  <Rbt.Receptor>
prm/blind_docking_40.prm

>  <SCORE>
-18.0112

>  <SCORE.INTER>
-18.0112

>  <SCORE.INTER.CONST>
1

>  <SCORE.INTER.POLAR>
0

>  <SCORE.INTER.ROT>
0

>  <SCORE.INTER.SOLV>
4.16629

>  <SCORE.INTER.VDW>
-16.9963

>  <SCORE.INTER.norm>
-1.80112

>  <SCORE.INTRA>
0

>  <SCORE.INTRA.DIHEDRAL>
0

>  <SCORE.INTRA.DIHEDRAL.0>
0

>  <SCORE.INTRA.POLAR>
0

>  <SCORE.INTRA.POLAR.0>
0

>  <SCORE.INTRA.REPUL>
0

>  <SCORE.INTRA.REPUL.0>
0

>  <SCORE.INTRA.SOLV>
0

>  <SCORE.INTRA.SOLV.lig_0>
-4.28464

>  <SCORE.INTRA.VDW>
0

>  <SCORE.INTRA.VDW.0>
0

>  <SCORE.INTRA.norm>
0

>  <SCORE.RESTR>
0

>  <SCORE.RESTR.CAVITY>
0

>  <SCORE.RESTR.norm>
0

>  <SCORE.SYSTEM>
0

>  <SCORE.SYSTEM.CONST>
0

>  <SCORE.SYSTEM.DIHEDRAL>
0

>  <SCORE.SYSTEM.SOLV>
0

>  <SCORE.SYSTEM.norm>
0

>  <SCORE.heavy>
10

>  <SCORE.norm>
-1.80112

>  <RMSD>
0.730

$$$$
ligand
 OpenBabel11021811423D
libRbt.so/2013.1/901 2013/11/27
 10 11  0  0  0  0  0  0  0  0999 V2000
   11.4635    9.5070   29.5256 N   0  0  0  0  0  0  0  0  0  0  0  0
   11.3532   10.8691   29.3062 C   0  0  0  0  0  0  0  0  0  0  0  0
   11.1342   11.3732   28.0857 N   0  0  0  0  0  0  0  0  0  0  0  0
   11.0362   10.4085   27.1145 C   0  0  0  0  0  0  0  0  0  0  0  0
   11.1370    9.0454   27.2725 C   0  0  0  0  0  0  0  0  0  0  0  0
   11.3695    8.4990   28.5652 C   0  0  0  0  0  0  0  0  0  0  0  0
   11.4912    7.3206   28.9230 O   0  0  0  0  0  0  0  0  0  0  0  0
   10.9777    8.4520   26.0474 N   0  0  0  0  0  0  0  0  0  0  0  0
   10.7811    9.4451   25.1594 C   0  0  0  0  0  0  0  0  0  0  0  0
   10.8132   10.6659   25.7851 N   0  0  0  0  0  0  0  0  0  0  0  0
  1  2  1  0  0  0  0
  1  6  1  0  0  0  0
  2  3  2  0  0  0  0
  3  4  1  0  0  0  0
  4  5  2  0  0  0  0
  4 10  1  0  0  0  0
  5  6  1  0  0  0  0
  5  8  1  0  0  0  0
  6  7  2  0  0  0  0
  8  9  1  0  0  0  0
  9 10  2  0  0  0  0
M  END
>  <CHROM.1>
11.16227468,9.51764827,27.60591163,0.04959444,-1.40588375,0.34146920

>  <Name>
ligand

>  <RI>
0

>  <Rbt.Current_Directory>
/home/itssahil/PROJECTS/Mol_Feturizer/New_Systems/rnas/2EET

>  <Rbt.Executable>
rbdock ($Id: //depot/dev/client3/rdock/2013.1/src/exe/rbdock.cxx#4 $)

>  <Rbt.Library>
libRbt.so (2013.1, Build901 2013/11/27)

>  <Rbt.Parameter_File>
/export/apps/rDock/src/rDock_2013.1_src/data/scripts/dock_solv.prm

>  <Rbt.Receptor>
prm/blind_docking_40.prm

>  <SCORE>
-18.0593

>  <SCORE.INTER>
-18.0595

>  <SCORE.INTER.CONST>
1

>  <SCORE.INTER.POLAR>
0

>  <SCORE.INTER.ROT>
0

>  <SCORE.INTER.SOLV>
4.31619

>  <SCORE.INTER.VDW>
-17.0784

>  <SCORE.INTER.norm>
-1.80595

>  <SCORE.INTRA>
0

>  <SCORE.INTRA.DIHEDRAL>
0

>  <SCORE.INTRA.DIHEDRAL.0>
0

>  <SCORE.INTRA.POLAR>
0

>  <SCORE.INTRA.POLAR.0>
0

>  <SCORE.INTRA.REPUL>
0

>  <SCORE.INTRA.REPUL.0>
0

>  <SCORE.INTRA.SOLV>
0

>  <SCORE.INTRA.SOLV.lig_0>
-4.28464

>  <SCORE.INTRA.VDW>
0

>  <SCORE.INTRA.VDW.0>
0

>  <SCORE.INTRA.norm>
0

>  <SCORE.RESTR>
0.000168329

>  <SCORE.RESTR.CAVITY>
0.000168329

>  <SCORE.RESTR.norm>
1.68329e-05

>  <SCORE.SYSTEM>
0

>  <SCORE.SYSTEM.CONST>
0

>  <SCORE.SYSTEM.DIHEDRAL>
0

>  <SCORE.SYSTEM.SOLV>
0

>  <SCORE.SYSTEM.norm>
0

>  <SCORE.heavy>
10

>  <SCORE.norm>
-1.80593

>  <RMSD>
0.730

$$$$
ligand
 OpenBabel11021811423D
libRbt.so/2013.1/901 2013/11/27
 10 11  0  0  0  0  0  0  0  0999 V2000
   11.4926    9.5503   29.5161 N   0  0  0  0  0  0  0  0  0  0  0  0
   11.3361   10.9071   29.2918 C   0  0  0  0  0  0  0  0  0  0  0  0
   11.1082   11.3999   28.0683 N   0  0  0  0  0  0  0  0  0  0  0  0
   11.0509   10.4296   27.0994 C   0  0  0  0  0  0  0  0  0  0  0  0
   11.1983    9.0713   27.2622 C   0  0  0  0  0  0  0  0  0  0  0  0
   11.4407    8.5370   28.5581 C   0  0  0  0  0  0  0  0  0  0  0  0
   11.6012    7.3646   28.9202 O   0  0  0  0  0  0  0  0  0  0  0  0
   11.0685    8.4693   26.0378 N   0  0  0  0  0  0  0  0  0  0  0  0
   10.8434    9.4525   25.1455 C   0  0  0  0  0  0  0  0  0  0  0  0
   10.8283   10.6753   25.7677 N   0  0  0  0  0  0  0  0  0  0  0  0
  1  2  1  0  0  0  0
  1  6  1  0  0  0  0
  2  3  2  0  0  0  0
  3  4  1  0  0  0  0
  4  5  2  0  0  0  0
  4 10  1  0  0  0  0
  5  6  1  0  0  0  0
  5  8  1  0  0  0  0
  6  7  2  0  0  0  0
  8  9  1  0  0  0  0
  9 10  2  0  0  0  0
M  END
>  <CHROM.1>
11.20464703,9.54509535,27.59434140,0.25576314,-1.39714743,0.54182442

>  <Name>
ligand

>  <RI>
0

>  <Rbt.Current_Directory>
/home/itssahil/PROJECTS/Mol_Feturizer/New_Systems/rnas/2EET

>  <Rbt.Executable>
rbdock ($Id: //depot/dev/client3/rdock/2013.1/src/exe/rbdock.cxx#4 $)

>  <Rbt.Library>
libRbt.so (2013.1, Build901 2013/11/27)

>  <Rbt.Parameter_File>
/export/apps/rDock/src/rDock_2013.1_src/data/scripts/dock_solv.prm

>  <Rbt.Receptor>
prm/pocket_docking_3.prm

>  <SCORE>
-18.032

>  <SCORE.INTER>
-18.032

>  <SCORE.INTER.CONST>
1

>  <SCORE.INTER.POLAR>
0

>  <SCORE.INTER.ROT>
0

>  <SCORE.INTER.SOLV>
4.17187

>  <SCORE.INTER.VDW>
-17.012

>  <SCORE.INTER.norm>
-1.8032

>  <SCORE.INTRA>
0

>  <SCORE.INTRA.DIHEDRAL>
0

>  <SCORE.INTRA.DIHEDRAL.0>
0

>  <SCORE.INTRA.POLAR>
0

>  <SCORE.INTRA.POLAR.0>
0

>  <SCORE.INTRA.REPUL>
0

>  <SCORE.INTRA.REPUL.0>
0

>  <SCORE.INTRA.SOLV>
0

>  <SCORE.INTRA.SOLV.lig_0>
-4.28464

>  <SCORE.INTRA.VDW>
0

>  <SCORE.INTRA.VDW.0>
0

>  <SCORE.INTRA.norm>
0

>  <SCORE.RESTR>
0

>  <SCORE.RESTR.CAVITY>
0

>  <SCORE.RESTR.norm>
0

>  <SCORE.SYSTEM>
0

>  <SCORE.SYSTEM.CONST>
0

>  <SCORE.SYSTEM.DIHEDRAL>
0

>  <SCORE.SYSTEM.SOLV>
0

>  <SCORE.SYSTEM.norm>
0

>  <SCORE.heavy>
10

>  <SCORE.norm>
-1.8032

>  <RMSD>
0.730

$$$$
ligand
 OpenBabel11021811423D
libRbt.so/2013.1/901 2013/11/27
 10 11  0  0  0  0  0  0  0  0999 V2000
   11.4835    9.5068   29.4998 N   0  0  0  0  0  0  0  0  0  0  0  0
   11.3542   10.8674   29.2815 C   0  0  0  0  0  0  0  0  0  0  0  0
   11.1322   11.3697   28.0608 N   0  0  0  0  0  0  0  0  0  0  0  0
   11.0516   10.4047   27.0882 C   0  0  0  0  0  0  0  0  0  0  0  0
   11.1716    9.0430   27.2452 C   0  0  0  0  0  0  0  0  0  0  0  0
   11.4074    8.4987   28.5381 C   0  0  0  0  0  0  0  0  0  0  0  0
   11.5450    7.3217   28.8950 O   0  0  0  0  0  0  0  0  0  0  0  0
   11.0251    8.4488   26.0189 N   0  0  0  0  0  0  0  0  0  0  0  0
   10.8173    9.4400   25.1312 C   0  0  0  0  0  0  0  0  0  0  0  0
   10.8295   10.6603   25.7584 N   0  0  0  0  0  0  0  0  0  0  0  0
  1  2  1  0  0  0  0
  1  6  1  0  0  0  0
  2  3  2  0  0  0  0
  3  4  1  0  0  0  0
  4  5  2  0  0  0  0
  4 10  1  0  0  0  0
  5  6  1  0  0  0  0
  5  8  1  0  0  0  0
  6  7  2  0  0  0  0
  8  9  1  0  0  0  0
  9 10  2  0  0  0  0
M  END
>  <CHROM.1>
11.18882568,9.51525537,27.57915007,0.13868299,-1.40366590,0.43042795

>  <Name>
ligand

>  <RI>
0

>  <Rbt.Current_Directory>
/home/itssahil/PROJECTS/Mol_Feturizer/New_Systems/rnas/2EET

>  <Rbt.Executable>
rbdock ($Id: //depot/dev/client3/rdock/2013.1/src/exe/rbdock.cxx#4 $)

>  <Rbt.Library>
libRbt.so (2013.1, Build901 2013/11/27)

>  <Rbt.Parameter_File>
/export/apps/rDock/src/rDock_2013.1_src/data/scripts/dock_solv.prm

>  <Rbt.Receptor>
prm/pocket_docking_4.prm

>  <SCORE>
-18.0778

>  <SCORE.INTER>
-18.0778

>  <SCORE.INTER.CONST>
1

>  <SCORE.INTER.POLAR>
0

>  <SCORE.INTER.ROT>
0

>  <SCORE.INTER.SOLV>
4.23156

>  <SCORE.INTER.VDW>
-17.0624

>  <SCORE.INTER.norm>
-1.80778

>  <SCORE.INTRA>
0

>  <SCORE.INTRA.DIHEDRAL>
0

>  <SCORE.INTRA.DIHEDRAL.0>
0

>  <SCORE.INTRA.POLAR>
0

>  <SCORE.INTRA.POLAR.0>
0

>  <SCORE.INTRA.REPUL>
0

>  <SCORE.INTRA.REPUL.0>
0

>  <SCORE.INTRA.SOLV>
0

>  <SCORE.INTRA.SOLV.lig_0>
-4.28464

>  <SCORE.INTRA.VDW>
0

>  <SCORE.INTRA.VDW.0>
0

>  <SCORE.INTRA.norm>
0

>  <SCORE.RESTR>
0

>  <SCORE.RESTR.CAVITY>
0

>  <SCORE.RESTR.norm>
0

>  <SCORE.SYSTEM>
0

>  <SCORE.SYSTEM.CONST>
0

>  <SCORE.SYSTEM.DIHEDRAL>
0

>  <SCORE.SYSTEM.SOLV>
0

>  <SCORE.SYSTEM.norm>
0

>  <SCORE.heavy>
10

>  <SCORE.norm>
-1.80778

>  <RMSD>
0.730

$$$$
ligand
 OpenBabel11021811423D
libRbt.so/2013.1/901 2013/11/27
 10 11  0  0  0  0  0  0  0  0999 V2000
   11.4784    9.5070   29.5056 N   0  0  0  0  0  0  0  0  0  0  0  0
   11.3535   10.8679   29.2865 C   0  0  0  0  0  0  0  0  0  0  0  0
   11.1351   11.3703   28.0652 N   0  0  0  0  0  0  0  0  0  0  0  0
   11.0534   10.4051   27.0929 C   0  0  0  0  0  0  0  0  0  0  0  0
   11.1691    9.0431   27.2506 C   0  0  0  0  0  0  0  0  0  0  0  0
   11.4011    8.4986   28.5442 C   0  0  0  0  0  0  0  0  0  0  0  0
   11.5346    7.3215   28.9018 O   0  0  0  0  0  0  0  0  0  0  0  0
   11.0231    8.4488   26.0244 N   0  0  0  0  0  0  0  0  0  0  0  0
   10.8197    9.4401   25.1359 C   0  0  0  0  0  0  0  0  0  0  0  0
   10.8343   10.6607   25.7625 N   0  0  0  0  0  0  0  0  0  0  0  0
  1  2  1  0  0  0  0
  1  6  1  0  0  0  0
  2  3  2  0  0  0  0
  3  4  1  0  0  0  0
  4  5  2  0  0  0  0
  4 10  1  0  0  0  0
  5  6  1  0  0  0  0
  5  8  1  0  0  0  0
  6  7  2  0  0  0  0
  8  9  1  0  0  0  0
  9 10  2  0  0  0  0
M  END
>  <CHROM.1>
11.18716213,9.51542586,27.58442147,0.12708454,-1.40646694,0.41855382

>  <Name>
ligand

>  <RI>
0

>  <Rbt.Current_Directory>
/home/itssahil/PROJECTS/Mol_Feturizer/New_Systems/rnas/2EET

>  <Rbt.Executable>
rbdock ($Id: //depot/dev/client3/rdock/2013.1/src/exe/rbdock.cxx#4 $)

>  <Rbt.Library>
libRbt.so (2013.1, Build901 2013/11/27)

>  <Rbt.Parameter_File>
/export/apps/rDock/src/rDock_2013.1_src/data/scripts/dock_solv.prm

>  <Rbt.Receptor>
prm/pocket_docking_4.prm

>  <SCORE>
-18.0832

>  <SCORE.INTER>
-18.0832

>  <SCORE.INTER.CONST>
1

>  <SCORE.INTER.POLAR>
0

>  <SCORE.INTER.ROT>
0

>  <SCORE.INTER.SOLV>
4.2499

>  <SCORE.INTER.VDW>
-17.0721

>  <SCORE.INTER.norm>
-1.80832

>  <SCORE.INTRA>
0

>  <SCORE.INTRA.DIHEDRAL>
0

>  <SCORE.INTRA.DIHEDRAL.0>
0

>  <SCORE.INTRA.POLAR>
0

>  <SCORE.INTRA.POLAR.0>
0

>  <SCORE.INTRA.REPUL>
0

>  <SCORE.INTRA.REPUL.0>
0

>  <SCORE.INTRA.SOLV>
0

>  <SCORE.INTRA.SOLV.lig_0>
-4.28464

>  <SCORE.INTRA.VDW>
0

>  <SCORE.INTRA.VDW.0>
0

>  <SCORE.INTRA.norm>
0

>  <SCORE.RESTR>
2.63549e-05

>  <SCORE.RESTR.CAVITY>
2.63549e-05

>  <SCORE.RESTR.norm>
2.63549e-06

>  <SCORE.SYSTEM>
0

>  <SCORE.SYSTEM.CONST>
0

>  <SCORE.SYSTEM.DIHEDRAL>
0

>  <SCORE.SYSTEM.SOLV>
0

>  <SCORE.SYSTEM.norm>
0

>  <SCORE.heavy>
10

>  <SCORE.norm>
-1.80832

>  <RMSD>
0.730

$$$$
ligand
 OpenBabel11021811423D
libRbt.so/2013.1/901 2013/11/27
 10 11  0  0  0  0  0  0  0  0999 V2000
   11.4671    9.5071   29.5190 N   0  0  0  0  0  0  0  0  0  0  0  0
   11.3517   10.8688   29.2995 C   0  0  0  0  0  0  0  0  0  0  0  0
   11.1402   11.3726   28.0776 N   0  0  0  0  0  0  0  0  0  0  0  0
   11.0549   10.4080   27.1051 C   0  0  0  0  0  0  0  0  0  0  0  0
   11.1611    9.0453   27.2631 C   0  0  0  0  0  0  0  0  0  0  0  0
   11.3858    8.4993   28.5573 C   0  0  0  0  0  0  0  0  0  0  0  0
   11.5105    7.3212   28.9153 O   0  0  0  0  0  0  0  0  0  0  0  0
   11.0147    8.4519   26.0364 N   0  0  0  0  0  0  0  0  0  0  0  0
   10.8204    9.4446   25.1474 C   0  0  0  0  0  0  0  0  0  0  0  0
   10.8413   10.6651   25.7741 N   0  0  0  0  0  0  0  0  0  0  0  0
  1  2  1  0  0  0  0
  1  6  1  0  0  0  0
  2  3  2  0  0  0  0
  3  4  1  0  0  0  0
  4  5  2  0  0  0  0
  4 10  1  0  0  0  0
  5  6  1  0  0  0  0
  5  8  1  0  0  0  0
  6  7  2  0  0  0  0
  8  9  1  0  0  0  0
  9 10  2  0  0  0  0
M  END
>  <CHROM.1>
11.18134226,9.51746701,27.59698257,0.09619613,-1.41168635,0.38808530

>  <Name>
ligand

>  <RI>
0

>  <Rbt.Current_Directory>
/home/itssahil/PROJECTS/Mol_Feturizer/New_Systems/rnas/2EET

>  <Rbt.Executable>
rbdock ($Id: //depot/dev/client3/rdock/2013.1/src/exe/rbdock.cxx#4 $)

>  <Rbt.Library>
libRbt.so (2013.1, Build901 2013/11/27)

>  <Rbt.Parameter_File>
/export/apps/rDock/src/rDock_2013.1_src/data/scripts/dock_solv.prm

>  <Rbt.Receptor>
prm/pocket_docking_5.prm

>  <SCORE>
-18.0828

>  <SCORE.INTER>
-18.0872

>  <SCORE.INTER.CONST>
1

>  <SCORE.INTER.POLAR>
0

>  <SCORE.INTER.ROT>
0

>  <SCORE.INTER.SOLV>
4.29253

>  <SCORE.INTER.VDW>
-17.089

>  <SCORE.INTER.norm>
-1.80872

>  <SCORE.INTRA>
0

>  <SCORE.INTRA.DIHEDRAL>
0

>  <SCORE.INTRA.DIHEDRAL.0>
0

>  <SCORE.INTRA.POLAR>
0

>  <SCORE.INTRA.POLAR.0>
0

>  <SCORE.INTRA.REPUL>
0

>  <SCORE.INTRA.REPUL.0>
0

>  <SCORE.INTRA.SOLV>
0

>  <SCORE.INTRA.SOLV.lig_0>
-4.28464

>  <SCORE.INTRA.VDW>
0

>  <SCORE.INTRA.VDW.0>
0

>  <SCORE.INTRA.norm>
0

>  <SCORE.RESTR>
0.00445626

>  <SCORE.RESTR.CAVITY>
0.00445626

>  <SCORE.RESTR.norm>
0.000445626

>  <SCORE.SYSTEM>
0

>  <SCORE.SYSTEM.CONST>
0

>  <SCORE.SYSTEM.DIHEDRAL>
0

>  <SCORE.SYSTEM.SOLV>
0

>  <SCORE.SYSTEM.norm>
0

>  <SCORE.heavy>
10

>  <SCORE.norm>
-1.80828

>  <RMSD>
0.730

$$$$
ligand
 OpenBabel11021811423D
libRbt.so/2013.1/901 2013/11/27
 10 11  0  0  0  0  0  0  0  0999 V2000
   11.5051    9.5582   29.5201 N   0  0  0  0  0  0  0  0  0  0  0  0
   11.3502   10.9141   29.2894 C   0  0  0  0  0  0  0  0  0  0  0  0
   11.1226   11.4013   28.0636 N   0  0  0  0  0  0  0  0  0  0  0  0
   11.0641   10.4265   27.0993 C   0  0  0  0  0  0  0  0  0  0  0  0
   11.2099    9.0688   27.2686 C   0  0  0  0  0  0  0  0  0  0  0  0
   11.4519    8.5404   28.5670 C   0  0  0  0  0  0  0  0  0  0  0  0
   11.6111    7.3695   28.9346 O   0  0  0  0  0  0  0  0  0  0  0  0
   11.0793    8.4612   26.0471 N   0  0  0  0  0  0  0  0  0  0  0  0
   10.8552    9.4404   25.1501 C   0  0  0  0  0  0  0  0  0  0  0  0
   10.8415   10.6661   25.7666 N   0  0  0  0  0  0  0  0  0  0  0  0
  1  2  1  0  0  0  0
  1  6  1  0  0  0  0
  2  3  2  0  0  0  0
  3  4  1  0  0  0  0
  4  5  2  0  0  0  0
  4 10  1  0  0  0  0
  5  6  1  0  0  0  0
  5  8  1  0  0  0  0
  6  7  2  0  0  0  0
  8  9  1  0  0  0  0
  9 10  2  0  0  0  0
M  END
>  <CHROM.1>
11.21688958,9.54417763,27.59845824,0.24966739,-1.39760215,0.53107721

>  <Name>
ligand

>  <RI>
0

>  <Rbt.Current_Directory>
/home/itssahil/PROJECTS/Mol_Feturizer/New_Systems/rnas/2EET

>  <Rbt.Executable>
rbdock ($Id: //depot/dev/client3/rdock/2013.1/src/exe/rbdock.cxx#4 $)

>  <Rbt.Library>
libRbt.so (2013.1, Build901 2013/11/27)

>  <Rbt.Parameter_File>
/export/apps/rDock/src/rDock_2013.1_src/data/scripts/dock_solv.prm

>  <Rbt.Receptor>
prm/pocket_docking_7.prm

>  <SCORE>
-18.0345

>  <SCORE.INTER>
-18.0345

>  <SCORE.INTER.CONST>
1

>  <SCORE.INTER.POLAR>
0

>  <SCORE.INTER.ROT>
0

>  <SCORE.INTER.SOLV>
4.17465

>  <SCORE.INTER.VDW>
-17.0145

>  <SCORE.INTER.norm>
-1.80345

>  <SCORE.INTRA>
0

>  <SCORE.INTRA.DIHEDRAL>
0

>  <SCORE.INTRA.DIHEDRAL.0>
0

>  <SCORE.INTRA.POLAR>
0

>  <SCORE.INTRA.POLAR.0>
0

>  <SCORE.INTRA.REPUL>
0

>  <SCORE.INTRA.REPUL.0>
0

>  <SCORE.INTRA.SOLV>
0

>  <SCORE.INTRA.SOLV.lig_0>
-4.28464

>  <SCORE.INTRA.VDW>
0

>  <SCORE.INTRA.VDW.0>
0

>  <SCORE.INTRA.norm>
0

>  <SCORE.RESTR>
0

>  <SCORE.RESTR.CAVITY>
0

>  <SCORE.RESTR.norm>
0

>  <SCORE.SYSTEM>
0

>  <SCORE.SYSTEM.CONST>
0

>  <SCORE.SYSTEM.DIHEDRAL>
0

>  <SCORE.SYSTEM.SOLV>
0

>  <SCORE.SYSTEM.norm>
0

>  <SCORE.heavy>
10

>  <SCORE.norm>
-1.80345

>  <RMSD>
0.730

$$$$
ligand
 OpenBabel11021811423D
libRbt.so/2013.1/901 2013/11/27
 10 11  0  0  0  0  0  0  0  0999 V2000
   11.4692    9.5091   29.5113 N   0  0  0  0  0  0  0  0  0  0  0  0
   11.3457   10.8703   29.2936 C   0  0  0  0  0  0  0  0  0  0  0  0
   11.1332   11.3746   28.0721 N   0  0  0  0  0  0  0  0  0  0  0  0
   11.0559   10.4109   27.0980 C   0  0  0  0  0  0  0  0  0  0  0  0
   11.1706    9.0487   27.2542 C   0  0  0  0  0  0  0  0  0  0  0  0
   11.3963    8.5022   28.5480 C   0  0  0  0  0  0  0  0  0  0  0  0
   11.5278    7.3245   28.9045 O   0  0  0  0  0  0  0  0  0  0  0  0
   11.0303    8.4562   26.0263 N   0  0  0  0  0  0  0  0  0  0  0  0
   10.8314    9.4490   25.1384 C   0  0  0  0  0  0  0  0  0  0  0  0
   10.8433   10.6686   25.7669 N   0  0  0  0  0  0  0  0  0  0  0  0
  1  2  1  0  0  0  0
  1  6  1  0  0  0  0
  2  3  2  0  0  0  0
  3  4  1  0  0  0  0
  4  5  2  0  0  0  0
  4 10  1  0  0  0  0
  5  6  1  0  0  0  0
  5  8  1  0  0  0  0
  6  7  2  0  0  0  0
  8  9  1  0  0  0  0
  9 10  2  0  0  0  0
M  END
>  <CHROM.1>
11.18715991,9.52049107,27.58877836,0.13788483,-1.41091428,0.43071851

>  <Name>
ligand

>  <RI>
0

>  <Rbt.Current_Directory>
/home/itssahil/PROJECTS/Mol_Feturizer/New_Systems/rnas/2EET

>  <Rbt.Executable>
rbdock ($Id: //depot/dev/client3/rdock/2013.1/src/exe/rbdock.cxx#4 $)

>  <Rbt.Library>
libRbt.so (2013.1, Build901 2013/11/27)

>  <Rbt.Parameter_File>
/export/apps/rDock/src/rDock_2013.1_src/data/scripts/dock_solv.prm

>  <Rbt.Receptor>
prm/pocket_docking_7.prm

>  <SCORE>
-18.1141

>  <SCORE.INTER>
-18.1141

>  <SCORE.INTER.CONST>
1

>  <SCORE.INTER.POLAR>
0

>  <SCORE.INTER.ROT>
0

>  <SCORE.INTER.SOLV>
4.26293

>  <SCORE.INTER.VDW>
-17.0971

>  <SCORE.INTER.norm>
-1.81141

>  <SCORE.INTRA>
0

>  <SCORE.INTRA.DIHEDRAL>
0

>  <SCORE.INTRA.DIHEDRAL.0>
0

>  <SCORE.INTRA.POLAR>
0

>  <SCORE.INTRA.POLAR.0>
0

>  <SCORE.INTRA.REPUL>
0

>  <SCORE.INTRA.REPUL.0>
0

>  <SCORE.INTRA.SOLV>
0

>  <SCORE.INTRA.SOLV.lig_0>
-4.28464

>  <SCORE.INTRA.VDW>
0

>  <SCORE.INTRA.VDW.0>
0

>  <SCORE.INTRA.norm>
0

>  <SCORE.RESTR>
0

>  <SCORE.RESTR.CAVITY>
0

>  <SCORE.RESTR.norm>
0

>  <SCORE.SYSTEM>
0

>  <SCORE.SYSTEM.CONST>
0

>  <SCORE.SYSTEM.DIHEDRAL>
0

>  <SCORE.SYSTEM.SOLV>
0

>  <SCORE.SYSTEM.norm>
0

>  <SCORE.heavy>
10

>  <SCORE.norm>
-1.81141

>  <RMSD>
0.730

$$$$
ligand
 OpenBabel11021811423D
libRbt.so/2013.1/901 2013/11/27
 10 11  0  0  0  0  0  0  0  0999 V2000
   11.5075    9.5591   29.5186 N   0  0  0  0  0  0  0  0  0  0  0  0
   11.3518   10.9151   29.2890 C   0  0  0  0  0  0  0  0  0  0  0  0
   11.1197   11.4028   28.0643 N   0  0  0  0  0  0  0  0  0  0  0  0
   11.0575   10.4283   27.0998 C   0  0  0  0  0  0  0  0  0  0  0  0
   11.2039    9.0706   27.2680 C   0  0  0  0  0  0  0  0  0  0  0  0
   11.4507    8.5417   28.5653 C   0  0  0  0  0  0  0  0  0  0  0  0
   11.6112    7.3706   28.9319 O   0  0  0  0  0  0  0  0  0  0  0  0
   11.0687    8.4634   26.0468 N   0  0  0  0  0  0  0  0  0  0  0  0
   10.8413    9.4429   25.1510 C   0  0  0  0  0  0  0  0  0  0  0  0
   10.8300   10.6685   25.7680 N   0  0  0  0  0  0  0  0  0  0  0  0
  1  2  1  0  0  0  0
  1  6  1  0  0  0  0
  2  3  2  0  0  0  0
  3  4  1  0  0  0  0
  4  5  2  0  0  0  0
  4 10  1  0  0  0  0
  5  6  1  0  0  0  0
  5  8  1  0  0  0  0
  6  7  2  0  0  0  0
  8  9  1  0  0  0  0
  9 10  2  0  0  0  0
M  END
>  <CHROM.1>
11.21212912,9.54579953,27.59804794,0.23859716,-1.39440499,0.52055514

>  <Name>
ligand

>  <RI>
0

>  <Rbt.Current_Directory>
/home/itssahil/PROJECTS/Mol_Feturizer/New_Systems/rnas/2EET

>  <Rbt.Executable>
rbdock ($Id: //depot/dev/client3/rdock/2013.1/src/exe/rbdock.cxx#4 $)

>  <Rbt.Library>
libRbt.so (2013.1, Build901 2013/11/27)

>  <Rbt.Parameter_File>
/export/apps/rDock/src/rDock_2013.1_src/data/scripts/dock_solv.prm

>  <Rbt.Receptor>
prm/pocket_docking_8.prm

>  <SCORE>
-18.0412

>  <SCORE.INTER>
-18.0412

>  <SCORE.INTER.CONST>
1

>  <SCORE.INTER.POLAR>
0

>  <SCORE.INTER.ROT>
0

>  <SCORE.INTER.SOLV>
4.16993

>  <SCORE.INTER.VDW>
-17.0174

>  <SCORE.INTER.norm>
-1.80412

>  <SCORE.INTRA>
0

>  <SCORE.INTRA.DIHEDRAL>
0

>  <SCORE.INTRA.DIHEDRAL.0>
0

>  <SCORE.INTRA.POLAR>
0

>  <SCORE.INTRA.POLAR.0>
0

>  <SCORE.INTRA.REPUL>
0

>  <SCORE.INTRA.REPUL.0>
0

>  <SCORE.INTRA.SOLV>
0

>  <SCORE.INTRA.SOLV.lig_0>
-4.28464

>  <SCORE.INTRA.VDW>
0

>  <SCORE.INTRA.VDW.0>
0

>  <SCORE.INTRA.norm>
0

>  <SCORE.RESTR>
0

>  <SCORE.RESTR.CAVITY>
0

>  <SCORE.RESTR.norm>
0

>  <SCORE.SYSTEM>
0

>  <SCORE.SYSTEM.CONST>
0

>  <SCORE.SYSTEM.DIHEDRAL>
0

>  <SCORE.SYSTEM.SOLV>
0

>  <SCORE.SYSTEM.norm>
0

>  <SCORE.heavy>
10

>  <SCORE.norm>
-1.80412

>  <RMSD>
0.730

$$$$
ligand
 OpenBabel11021811423D
libRbt.so/2013.1/901 2013/11/27
 10 11  0  0  0  0  0  0  0  0999 V2000
   11.4763    9.5075   29.5089 N   0  0  0  0  0  0  0  0  0  0  0  0
   11.3523   10.8682   29.2881 C   0  0  0  0  0  0  0  0  0  0  0  0
   11.1358   11.3694   28.0660 N   0  0  0  0  0  0  0  0  0  0  0  0
   11.0548   10.4031   27.0947 C   0  0  0  0  0  0  0  0  0  0  0  0
   11.1697    9.0413   27.2541 C   0  0  0  0  0  0  0  0  0  0  0  0
   11.3997    8.4981   28.5485 C   0  0  0  0  0  0  0  0  0  0  0  0
   11.5322    7.3213   28.9076 O   0  0  0  0  0  0  0  0  0  0  0  0
   11.0250    8.4457   26.0282 N   0  0  0  0  0  0  0  0  0  0  0  0
   10.8232    9.4362   25.1384 C   0  0  0  0  0  0  0  0  0  0  0  0
   10.8376   10.6575   25.7637 N   0  0  0  0  0  0  0  0  0  0  0  0
  1  2  1  0  0  0  0
  1  6  1  0  0  0  0
  2  3  2  0  0  0  0
  3  4  1  0  0  0  0
  4  5  2  0  0  0  0
  4 10  1  0  0  0  0
  5  6  1  0  0  0  0
  5  8  1  0  0  0  0
  6  7  2  0  0  0  0
  8  9  1  0  0  0  0
  9 10  2  0  0  0  0
M  END
>  <CHROM.1>
11.18753017,9.51398077,27.58734517,0.12743762,-1.40783756,0.41780354

>  <Name>
ligand

>  <RI>
0

>  <Rbt.Current_Directory>
/home/itssahil/PROJECTS/Mol_Feturizer/New_Systems/rnas/2EET

>  <Rbt.Executable>
rbdock ($Id: //depot/dev/client3/rdock/2013.1/src/exe/rbdock.cxx#4 $)

>  <Rbt.Library>
libRbt.so (2013.1, Build901 2013/11/27)

>  <Rbt.Parameter_File>
/export/apps/rDock/src/rDock_2013.1_src/data/scripts/dock_solv.prm

>  <Rbt.Receptor>
prm/blind_docking_80.prm

>  <SCORE>
-18.0845

>  <SCORE.INTER>
-18.0848

>  <SCORE.INTER.CONST>
1

>  <SCORE.INTER.POLAR>
0

>  <SCORE.INTER.ROT>
0

>  <SCORE.INTER.SOLV>
4.25689

>  <SCORE.INTER.VDW>
-17.0755

>  <SCORE.INTER.norm>
-1.80848

>  <SCORE.INTRA>
0

>  <SCORE.INTRA.DIHEDRAL>
0

>  <SCORE.INTRA.DIHEDRAL.0>
0

>  <SCORE.INTRA.POLAR>
0

>  <SCORE.INTRA.POLAR.0>
0

>  <SCORE.INTRA.REPUL>
0

>  <SCORE.INTRA.REPUL.0>
0

>  <SCORE.INTRA.SOLV>
0

>  <SCORE.INTRA.SOLV.lig_0>
-4.28464

>  <SCORE.INTRA.VDW>
0

>  <SCORE.INTRA.VDW.0>
0

>  <SCORE.INTRA.norm>
0

>  <SCORE.RESTR>
0.000295896

>  <SCORE.RESTR.CAVITY>
0.000295896

>  <SCORE.RESTR.norm>
2.95896e-05

>  <SCORE.SYSTEM>
0

>  <SCORE.SYSTEM.CONST>
0

>  <SCORE.SYSTEM.DIHEDRAL>
0

>  <SCORE.SYSTEM.SOLV>
0

>  <SCORE.SYSTEM.norm>
0

>  <SCORE.heavy>
10

>  <SCORE.norm>
-1.80845

>  <RMSD>
0.731

$$$$
ligand
 OpenBabel11021811423D
libRbt.so/2013.1/901 2013/11/27
 10 11  0  0  0  0  0  0  0  0999 V2000
   11.4801    9.5080   29.5024 N   0  0  0  0  0  0  0  0  0  0  0  0
   11.3509   10.8685   29.2833 C   0  0  0  0  0  0  0  0  0  0  0  0
   11.1327   11.3704   28.0617 N   0  0  0  0  0  0  0  0  0  0  0  0
   11.0558   10.4051   27.0892 C   0  0  0  0  0  0  0  0  0  0  0  0
   11.1759    9.0435   27.2469 C   0  0  0  0  0  0  0  0  0  0  0  0
   11.4077    8.4996   28.5407 C   0  0  0  0  0  0  0  0  0  0  0  0
   11.5447    7.3228   28.8984 O   0  0  0  0  0  0  0  0  0  0  0  0
   11.0338    8.4489   26.0203 N   0  0  0  0  0  0  0  0  0  0  0  0
   10.8284    9.4397   25.1317 C   0  0  0  0  0  0  0  0  0  0  0  0
   10.8380   10.6602   25.7585 N   0  0  0  0  0  0  0  0  0  0  0  0
  1  2  1  0  0  0  0
  1  6  1  0  0  0  0
  2  3  2  0  0  0  0
  3  4  1  0  0  0  0
  4  5  2  0  0  0  0
  4 10  1  0  0  0  0
  5  6  1  0  0  0  0
  5  8  1  0  0  0  0
  6  7  2  0  0  0  0
  8  9  1  0  0  0  0
  9 10  2  0  0  0  0
M  END
>  <CHROM.1>
11.19182786,9.51582957,27.58078470,0.14989178,-1.40647066,0.44122291

>  <Name>
ligand

>  <RI>
0

>  <Rbt.Current_Directory>
/home/itssahil/PROJECTS/Mol_Feturizer/New_Systems/rnas/2EET

>  <Rbt.Executable>
rbdock ($Id: //depot/dev/client3/rdock/2013.1/src/exe/rbdock.cxx#4 $)

>  <Rbt.Library>
libRbt.so (2013.1, Build901 2013/11/27)

>  <Rbt.Parameter_File>
/export/apps/rDock/src/rDock_2013.1_src/data/scripts/dock_solv.prm

>  <Rbt.Receptor>
prm/pocket_docking_4.prm

>  <SCORE>
-18.0753

>  <SCORE.INTER>
-18.0753

>  <SCORE.INTER.CONST>
1

>  <SCORE.INTER.POLAR>
0

>  <SCORE.INTER.ROT>
0

>  <SCORE.INTER.SOLV>
4.23575

>  <SCORE.INTER.VDW>
-17.0621

>  <SCORE.INTER.norm>
-1.80753

>  <SCORE.INTRA>
0

>  <SCORE.INTRA.DIHEDRAL>
0

>  <SCORE.INTRA.DIHEDRAL.0>
0

>  <SCORE.INTRA.POLAR>
0

>  <SCORE.INTRA.POLAR.0>
0

>  <SCORE.INTRA.REPUL>
0

>  <SCORE.INTRA.REPUL.0>
0

>  <SCORE.INTRA.SOLV>
0

>  <SCORE.INTRA.SOLV.lig_0>
-4.28464

>  <SCORE.INTRA.VDW>
0

>  <SCORE.INTRA.VDW.0>
0

>  <SCORE.INTRA.norm>
0

>  <SCORE.RESTR>
0

>  <SCORE.RESTR.CAVITY>
0

>  <SCORE.RESTR.norm>
0

>  <SCORE.SYSTEM>
0

>  <SCORE.SYSTEM.CONST>
0

>  <SCORE.SYSTEM.DIHEDRAL>
0

>  <SCORE.SYSTEM.SOLV>
0

>  <SCORE.SYSTEM.norm>
0

>  <SCORE.heavy>
10

>  <SCORE.norm>
-1.80753

>  <RMSD>
0.731

$$$$
ligand
 OpenBabel11021811423D
libRbt.so/2013.1/901 2013/11/27
 10 11  0  0  0  0  0  0  0  0999 V2000
   11.4743    9.5089   29.5085 N   0  0  0  0  0  0  0  0  0  0  0  0
   11.3479   10.8695   29.2889 C   0  0  0  0  0  0  0  0  0  0  0  0
   11.1313   11.3714   28.0670 N   0  0  0  0  0  0  0  0  0  0  0  0
   11.0529   10.4059   27.0948 C   0  0  0  0  0  0  0  0  0  0  0  0
   11.1702    9.0441   27.2530 C   0  0  0  0  0  0  0  0  0  0  0  0
   11.4003    8.5002   28.5471 C   0  0  0  0  0  0  0  0  0  0  0  0
   11.5348    7.3233   28.9053 O   0  0  0  0  0  0  0  0  0  0  0  0
   11.0275    8.4494   26.0266 N   0  0  0  0  0  0  0  0  0  0  0  0
   10.8245    9.4403   25.1375 C   0  0  0  0  0  0  0  0  0  0  0  0
   10.8362   10.6610   25.7639 N   0  0  0  0  0  0  0  0  0  0  0  0
  1  2  1  0  0  0  0
  1  6  1  0  0  0  0
  2  3  2  0  0  0  0
  3  4  1  0  0  0  0
  4  5  2  0  0  0  0
  4 10  1  0  0  0  0
  5  6  1  0  0  0  0
  5  8  1  0  0  0  0
  6  7  2  0  0  0  0
  8  9  1  0  0  0  0
  9 10  2  0  0  0  0
M  END
>  <CHROM.1>
11.18691114,9.51653362,27.58673924,0.13989771,-1.40772350,0.43100043

>  <Name>
ligand

>  <RI>
0

>  <Rbt.Current_Directory>
/home/itssahil/PROJECTS/Mol_Feturizer/New_Systems/rnas/2EET

>  <Rbt.Executable>
rbdock ($Id: //depot/dev/client3/rdock/2013.1/src/exe/rbdock.cxx#4 $)

>  <Rbt.Library>
libRbt.so (2013.1, Build901 2013/11/27)

>  <Rbt.Parameter_File>
/export/apps/rDock/src/rDock_2013.1_src/data/scripts/dock_solv.prm

>  <Rbt.Receptor>
prm/pocket_docking_5.prm

>  <SCORE>
-18.0791

>  <SCORE.INTER>
-18.0791

>  <SCORE.INTER.CONST>
1

>  <SCORE.INTER.POLAR>
0

>  <SCORE.INTER.ROT>
0

>  <SCORE.INTER.SOLV>
4.25206

>  <SCORE.INTER.VDW>
-17.0701

>  <SCORE.INTER.norm>
-1.80791

>  <SCORE.INTRA>
0

>  <SCORE.INTRA.DIHEDRAL>
0

>  <SCORE.INTRA.DIHEDRAL.0>
0

>  <SCORE.INTRA.POLAR>
0

>  <SCORE.INTRA.POLAR.0>
0

>  <SCORE.INTRA.REPUL>
0

>  <SCORE.INTRA.REPUL.0>
0

>  <SCORE.INTRA.SOLV>
0

>  <SCORE.INTRA.SOLV.lig_0>
-4.28464

>  <SCORE.INTRA.VDW>
0

>  <SCORE.INTRA.VDW.0>
0

>  <SCORE.INTRA.norm>
0

>  <SCORE.RESTR>
0

>  <SCORE.RESTR.CAVITY>
0

>  <SCORE.RESTR.norm>
0

>  <SCORE.SYSTEM>
0

>  <SCORE.SYSTEM.CONST>
0

>  <SCORE.SYSTEM.DIHEDRAL>
0

>  <SCORE.SYSTEM.SOLV>
0

>  <SCORE.SYSTEM.norm>
0

>  <SCORE.heavy>
10

>  <SCORE.norm>
-1.80791

>  <RMSD>
0.731

$$$$
ligand
 OpenBabel11021811423D
libRbt.so/2013.1/901 2013/11/27
 10 11  0  0  0  0  0  0  0  0999 V2000
   11.4675    9.5088   29.5170 N   0  0  0  0  0  0  0  0  0  0  0  0
   11.3485   10.8700   29.2966 C   0  0  0  0  0  0  0  0  0  0  0  0
   11.1359   11.3725   28.0743 N   0  0  0  0  0  0  0  0  0  0  0  0
   11.0535   10.4070   27.1024 C   0  0  0  0  0  0  0  0  0  0  0  0
   11.1634    9.0447   27.2613 C   0  0  0  0  0  0  0  0  0  0  0  0
   11.3893    8.5001   28.5559 C   0  0  0  0  0  0  0  0  0  0  0  0
   11.5171    7.3227   28.9147 O   0  0  0  0  0  0  0  0  0  0  0  0
   11.0190    8.4502   26.0349 N   0  0  0  0  0  0  0  0  0  0  0  0
   10.8222    9.4418   25.1452 C   0  0  0  0  0  0  0  0  0  0  0  0
   10.8396   10.6627   25.7712 N   0  0  0  0  0  0  0  0  0  0  0  0
  1  2  1  0  0  0  0
  1  6  1  0  0  0  0
  2  3  2  0  0  0  0
  3  4  1  0  0  0  0
  4  5  2  0  0  0  0
  4 10  1  0  0  0  0
  5  6  1  0  0  0  0
  5  8  1  0  0  0  0
  6  7  2  0  0  0  0
  8  9  1  0  0  0  0
  9 10  2  0  0  0  0
M  END
>  <CHROM.1>
11.18229433,9.51716038,27.59486114,0.11271456,-1.41089440,0.40375525

>  <Name>
ligand

>  <RI>
0

>  <Rbt.Current_Directory>
/home/itssahil/PROJECTS/Mol_Feturizer/New_Systems/rnas/2EET

>  <Rbt.Executable>
rbdock ($Id: //depot/dev/client3/rdock/2013.1/src/exe/rbdock.cxx#4 $)

>  <Rbt.Library>
libRbt.so (2013.1, Build901 2013/11/27)

>  <Rbt.Parameter_File>
/export/apps/rDock/src/rDock_2013.1_src/data/scripts/dock_solv.prm

>  <Rbt.Receptor>
prm/pocket_docking_6.prm

>  <SCORE>
-18.1206

>  <SCORE.INTER>
-18.1219

>  <SCORE.INTER.CONST>
1

>  <SCORE.INTER.POLAR>
0

>  <SCORE.INTER.ROT>
0

>  <SCORE.INTER.SOLV>
4.28272

>  <SCORE.INTER.VDW>
-17.1088

>  <SCORE.INTER.norm>
-1.81219

>  <SCORE.INTRA>
0

>  <SCORE.INTRA.DIHEDRAL>
0

>  <SCORE.INTRA.DIHEDRAL.0>
0

>  <SCORE.INTRA.POLAR>
0

>  <SCORE.INTRA.POLAR.0>
0

>  <SCORE.INTRA.REPUL>
0

>  <SCORE.INTRA.REPUL.0>
0

>  <SCORE.INTRA.SOLV>
0

>  <SCORE.INTRA.SOLV.lig_0>
-4.28464

>  <SCORE.INTRA.VDW>
0

>  <SCORE.INTRA.VDW.0>
0

>  <SCORE.INTRA.norm>
0

>  <SCORE.RESTR>
0.00126401

>  <SCORE.RESTR.CAVITY>
0.00126401

>  <SCORE.RESTR.norm>
0.000126401

>  <SCORE.SYSTEM>
0

>  <SCORE.SYSTEM.CONST>
0

>  <SCORE.SYSTEM.DIHEDRAL>
0

>  <SCORE.SYSTEM.SOLV>
0

>  <SCORE.SYSTEM.norm>
0

>  <SCORE.heavy>
10

>  <SCORE.norm>
-1.81206

>  <RMSD>
0.731

$$$$
ligand
 OpenBabel11021811423D
libRbt.so/2013.1/901 2013/11/27
 10 11  0  0  0  0  0  0  0  0999 V2000
   11.4641    9.5078   29.5223 N   0  0  0  0  0  0  0  0  0  0  0  0
   11.3496   10.8695   29.3020 C   0  0  0  0  0  0  0  0  0  0  0  0
   11.1341   11.3725   28.0805 N   0  0  0  0  0  0  0  0  0  0  0  0
   11.0438   10.4071   27.1092 C   0  0  0  0  0  0  0  0  0  0  0  0
   11.1490    9.0444   27.2680 C   0  0  0  0  0  0  0  0  0  0  0  0
   11.3779    8.4993   28.5618 C   0  0  0  0  0  0  0  0  0  0  0  0
   11.5025    7.3214   28.9204 O   0  0  0  0  0  0  0  0  0  0  0  0
   10.9971    8.4502   26.0424 N   0  0  0  0  0  0  0  0  0  0  0  0
   10.8007    9.4424   25.1532 C   0  0  0  0  0  0  0  0  0  0  0  0
   10.8256   10.6634   25.7788 N   0  0  0  0  0  0  0  0  0  0  0  0
  1  2  1  0  0  0  0
  1  6  1  0  0  0  0
  2  3  2  0  0  0  0
  3  4  1  0  0  0  0
  4  5  2  0  0  0  0
  4 10  1  0  0  0  0
  5  6  1  0  0  0  0
  5  8  1  0  0  0  0
  6  7  2  0  0  0  0
  8  9  1  0  0  0  0
  9 10  2  0  0  0  0
M  END
>  <CHROM.1>
11.17105535,9.51689801,27.60133915,0.08003660,-1.40862805,0.37124806

>  <Name>
ligand

>  <RI>
0

>  <Rbt.Current_Directory>
/home/itssahil/PROJECTS/Mol_Feturizer/New_Systems/rnas/2EET

>  <Rbt.Executable>
rbdock ($Id: //depot/dev/client3/rdock/2013.1/src/exe/rbdock.cxx#4 $)

>  <Rbt.Library>
libRbt.so (2013.1, Build901 2013/11/27)

>  <Rbt.Parameter_File>
/export/apps/rDock/src/rDock_2013.1_src/data/scripts/dock_solv.prm

>  <Rbt.Receptor>
prm/pocket_docking_6.prm

>  <SCORE>
-18.0766

>  <SCORE.INTER>
-18.0766

>  <SCORE.INTER.CONST>
1

>  <SCORE.INTER.POLAR>
0

>  <SCORE.INTER.ROT>
0

>  <SCORE.INTER.SOLV>
4.30247

>  <SCORE.INTER.VDW>
-17.0852

>  <SCORE.INTER.norm>
-1.80766

>  <SCORE.INTRA>
0

>  <SCORE.INTRA.DIHEDRAL>
0

>  <SCORE.INTRA.DIHEDRAL.0>
0

>  <SCORE.INTRA.POLAR>
0

>  <SCORE.INTRA.POLAR.0>
0

>  <SCORE.INTRA.REPUL>
0

>  <SCORE.INTRA.REPUL.0>
0

>  <SCORE.INTRA.SOLV>
0

>  <SCORE.INTRA.SOLV.lig_0>
-4.28464

>  <SCORE.INTRA.VDW>
0

>  <SCORE.INTRA.VDW.0>
0

>  <SCORE.INTRA.norm>
0

>  <SCORE.RESTR>
0

>  <SCORE.RESTR.CAVITY>
0

>  <SCORE.RESTR.norm>
0

>  <SCORE.SYSTEM>
0

>  <SCORE.SYSTEM.CONST>
0

>  <SCORE.SYSTEM.DIHEDRAL>
0

>  <SCORE.SYSTEM.SOLV>
0

>  <SCORE.SYSTEM.norm>
0

>  <SCORE.heavy>
10

>  <SCORE.norm>
-1.80766

>  <RMSD>
0.731

$$$$
ligand
 OpenBabel11021811423D
libRbt.so/2013.1/901 2013/11/27
 10 11  0  0  0  0  0  0  0  0999 V2000
   11.4708    9.5091   29.5125 N   0  0  0  0  0  0  0  0  0  0  0  0
   11.3492   10.8703   29.2936 C   0  0  0  0  0  0  0  0  0  0  0  0
   11.1345   11.3737   28.0720 N   0  0  0  0  0  0  0  0  0  0  0  0
   11.0529   10.4090   27.0992 C   0  0  0  0  0  0  0  0  0  0  0  0
   11.1654    9.0468   27.2566 C   0  0  0  0  0  0  0  0  0  0  0  0
   11.3934    8.5013   28.5504 C   0  0  0  0  0  0  0  0  0  0  0  0
   11.5237    7.3237   28.9079 O   0  0  0  0  0  0  0  0  0  0  0  0
   11.0208    8.4533   26.0298 N   0  0  0  0  0  0  0  0  0  0  0  0
   10.8214    9.4454   25.1413 C   0  0  0  0  0  0  0  0  0  0  0  0
   10.8373   10.6657   25.7685 N   0  0  0  0  0  0  0  0  0  0  0  0
  1  2  1  0  0  0  0
  1  6  1  0  0  0  0
  2  3  2  0  0  0  0
  3  4  1  0  0  0  0
  4  5  2  0  0  0  0
  4 10  1  0  0  0  0
  5  6  1  0  0  0  0
  5  8  1  0  0  0  0
  6  7  2  0  0  0  0
  8  9  1  0  0  0  0
  9 10  2  0  0  0  0
M  END
>  <CHROM.1>
11.18371217,9.51893038,27.59063473,0.12041930,-1.40929353,0.41239246

>  <Name>
ligand

>  <RI>
0

>  <Rbt.Current_Directory>
/home/itssahil/PROJECTS/Mol_Feturizer/New_Systems/rnas/2EET

>  <Rbt.Executable>
rbdock ($Id: //depot/dev/client3/rdock/2013.1/src/exe/rbdock.cxx#4 $)

>  <Rbt.Library>
libRbt.so (2013.1, Build901 2013/11/27)

>  <Rbt.Parameter_File>
/export/apps/rDock/src/rDock_2013.1_src/data/scripts/dock_solv.prm

>  <Rbt.Receptor>
prm/pocket_docking_7.prm

>  <SCORE>
-18.1192

>  <SCORE.INTER>
-18.1197

>  <SCORE.INTER.CONST>
1

>  <SCORE.INTER.POLAR>
0

>  <SCORE.INTER.ROT>
0

>  <SCORE.INTER.SOLV>
4.26855

>  <SCORE.INTER.VDW>
-17.1027

>  <SCORE.INTER.norm>
-1.81197

>  <SCORE.INTRA>
0

>  <SCORE.INTRA.DIHEDRAL>
0

>  <SCORE.INTRA.DIHEDRAL.0>
0

>  <SCORE.INTRA.POLAR>
0

>  <SCORE.INTRA.POLAR.0>
0

>  <SCORE.INTRA.REPUL>
0

>  <SCORE.INTRA.REPUL.0>
0

>  <SCORE.INTRA.SOLV>
0

>  <SCORE.INTRA.SOLV.lig_0>
-4.28464

>  <SCORE.INTRA.VDW>
0

>  <SCORE.INTRA.VDW.0>
0

>  <SCORE.INTRA.norm>
0

>  <SCORE.RESTR>
0.000549546

>  <SCORE.RESTR.CAVITY>
0.000549546

>  <SCORE.RESTR.norm>
5.49546e-05

>  <SCORE.SYSTEM>
0

>  <SCORE.SYSTEM.CONST>
0

>  <SCORE.SYSTEM.DIHEDRAL>
0

>  <SCORE.SYSTEM.SOLV>
0

>  <SCORE.SYSTEM.norm>
0

>  <SCORE.heavy>
10

>  <SCORE.norm>
-1.81192

>  <RMSD>
0.731

$$$$
ligand
 OpenBabel11021811423D
libRbt.so/2013.1/901 2013/11/27
 10 11  0  0  0  0  0  0  0  0999 V2000
   11.4614    9.4992   29.5169 N   0  0  0  0  0  0  0  0  0  0  0  0
   11.3507   10.8615   29.2988 C   0  0  0  0  0  0  0  0  0  0  0  0
   11.1425   11.3674   28.0771 N   0  0  0  0  0  0  0  0  0  0  0  0
   11.0556   10.4042   27.1034 C   0  0  0  0  0  0  0  0  0  0  0  0
   11.1574    9.0410   27.2600 C   0  0  0  0  0  0  0  0  0  0  0  0
   11.3785    8.4928   28.5539 C   0  0  0  0  0  0  0  0  0  0  0  0
   11.4990    7.3140   28.9107 O   0  0  0  0  0  0  0  0  0  0  0  0
   11.0110    8.4495   26.0324 N   0  0  0  0  0  0  0  0  0  0  0  0
   10.8211    9.4438   25.1442 C   0  0  0  0  0  0  0  0  0  0  0  0
   10.8449   10.6635   25.7724 N   0  0  0  0  0  0  0  0  0  0  0  0
  1  2  1  0  0  0  0
  1  6  1  0  0  0  0
  2  3  2  0  0  0  0
  3  4  1  0  0  0  0
  4  5  2  0  0  0  0
  4 10  1  0  0  0  0
  5  6  1  0  0  0  0
  5  8  1  0  0  0  0
  6  7  2  0  0  0  0
  8  9  1  0  0  0  0
  9 10  2  0  0  0  0
M  END
>  <CHROM.1>
11.17861486,9.51271911,27.59442982,0.08131503,-1.41423424,0.37453486

>  <Name>
ligand

>  <RI>
0

>  <Rbt.Current_Directory>
/home/itssahil/PROJECTS/Mol_Feturizer/New_Systems/rnas/2EET

>  <Rbt.Executable>
rbdock ($Id: //depot/dev/client3/rdock/2013.1/src/exe/rbdock.cxx#4 $)

>  <Rbt.Library>
libRbt.so (2013.1, Build901 2013/11/27)

>  <Rbt.Parameter_File>
/export/apps/rDock/src/rDock_2013.1_src/data/scripts/dock_solv.prm

>  <Rbt.Receptor>
prm/pocket_docking_8.prm

>  <SCORE>
-18.0805

>  <SCORE.INTER>
-18.0852

>  <SCORE.INTER.CONST>
1

>  <SCORE.INTER.POLAR>
0

>  <SCORE.INTER.ROT>
0

>  <SCORE.INTER.SOLV>
4.3061

>  <SCORE.INTER.VDW>
-17.0922

>  <SCORE.INTER.norm>
-1.80852

>  <SCORE.INTRA>
0

>  <SCORE.INTRA.DIHEDRAL>
0

>  <SCORE.INTRA.DIHEDRAL.0>
0

>  <SCORE.INTRA.POLAR>
0

>  <SCORE.INTRA.POLAR.0>
0

>  <SCORE.INTRA.REPUL>
0

>  <SCORE.INTRA.REPUL.0>
0

>  <SCORE.INTRA.SOLV>
0

>  <SCORE.INTRA.SOLV.lig_0>
-4.28464

>  <SCORE.INTRA.VDW>
0

>  <SCORE.INTRA.VDW.0>
0

>  <SCORE.INTRA.norm>
0

>  <SCORE.RESTR>
0.00472268

>  <SCORE.RESTR.CAVITY>
0.00472268

>  <SCORE.RESTR.norm>
0.000472268

>  <SCORE.SYSTEM>
0

>  <SCORE.SYSTEM.CONST>
0

>  <SCORE.SYSTEM.DIHEDRAL>
0

>  <SCORE.SYSTEM.SOLV>
0

>  <SCORE.SYSTEM.norm>
0

>  <SCORE.heavy>
10

>  <SCORE.norm>
-1.80805

>  <RMSD>
0.731

$$$$
ligand
 OpenBabel11021811423D
libRbt.so/2013.1/901 2013/11/27
 10 11  0  0  0  0  0  0  0  0999 V2000
   11.4762    9.5088   29.5047 N   0  0  0  0  0  0  0  0  0  0  0  0
   11.3501   10.8697   29.2858 C   0  0  0  0  0  0  0  0  0  0  0  0
   11.1327   11.3722   28.0643 N   0  0  0  0  0  0  0  0  0  0  0  0
   11.0532   10.4072   27.0917 C   0  0  0  0  0  0  0  0  0  0  0  0
   11.1701    9.0454   27.2492 C   0  0  0  0  0  0  0  0  0  0  0  0
   11.4011    8.5007   28.5428 C   0  0  0  0  0  0  0  0  0  0  0  0
   11.5354    7.3236   28.9003 O   0  0  0  0  0  0  0  0  0  0  0  0
   11.0263    8.4512   26.0225 N   0  0  0  0  0  0  0  0  0  0  0  0
   10.8229    9.4427   25.1341 C   0  0  0  0  0  0  0  0  0  0  0  0
   10.8355   10.6631   25.7611 N   0  0  0  0  0  0  0  0  0  0  0  0
  1  2  1  0  0  0  0
  1  6  1  0  0  0  0
  2  3  2  0  0  0  0
  3  4  1  0  0  0  0
  4  5  2  0  0  0  0
  4 10  1  0  0  0  0
  5  6  1  0  0  0  0
  5  8  1  0  0  0  0
  6  7  2  0  0  0  0
  8  9  1  0  0  0  0
  9 10  2  0  0  0  0
M  END
>  <CHROM.1>
11.18728775,9.51758447,27.58312035,0.13597034,-1.40715717,0.42762213

>  <Name>
ligand

>  <RI>
0

>  <Rbt.Current_Directory>
/home/itssahil/PROJECTS/Mol_Feturizer/New_Systems/rnas/2EET

>  <Rbt.Executable>
rbdock ($Id: //depot/dev/client3/rdock/2013.1/src/exe/rbdock.cxx#4 $)

>  <Rbt.Library>
libRbt.so (2013.1, Build901 2013/11/27)

>  <Rbt.Parameter_File>
/export/apps/rDock/src/rDock_2013.1_src/data/scripts/dock_solv.prm

>  <Rbt.Receptor>
prm/blind_docking_40.prm

>  <SCORE>
-18.0781

>  <SCORE.INTER>
-18.0781

>  <SCORE.INTER.CONST>
1

>  <SCORE.INTER.POLAR>
0

>  <SCORE.INTER.ROT>
0

>  <SCORE.INTER.SOLV>
4.24805

>  <SCORE.INTER.VDW>
-17.0681

>  <SCORE.INTER.norm>
-1.80781

>  <SCORE.INTRA>
0

>  <SCORE.INTRA.DIHEDRAL>
0

>  <SCORE.INTRA.DIHEDRAL.0>
0

>  <SCORE.INTRA.POLAR>
0

>  <SCORE.INTRA.POLAR.0>
0

>  <SCORE.INTRA.REPUL>
0

>  <SCORE.INTRA.REPUL.0>
0

>  <SCORE.INTRA.SOLV>
0

>  <SCORE.INTRA.SOLV.lig_0>
-4.28464

>  <SCORE.INTRA.VDW>
0

>  <SCORE.INTRA.VDW.0>
0

>  <SCORE.INTRA.norm>
0

>  <SCORE.RESTR>
0

>  <SCORE.RESTR.CAVITY>
0

>  <SCORE.RESTR.norm>
0

>  <SCORE.SYSTEM>
0

>  <SCORE.SYSTEM.CONST>
0

>  <SCORE.SYSTEM.DIHEDRAL>
0

>  <SCORE.SYSTEM.SOLV>
0

>  <SCORE.SYSTEM.norm>
0

>  <SCORE.heavy>
10

>  <SCORE.norm>
-1.80781

>  <RMSD>
0.732

$$$$
ligand
 OpenBabel11021811423D
libRbt.so/2013.1/901 2013/11/27
 10 11  0  0  0  0  0  0  0  0999 V2000
   11.4697    9.5085   29.5056 N   0  0  0  0  0  0  0  0  0  0  0  0
   11.3468   10.8700   29.2895 C   0  0  0  0  0  0  0  0  0  0  0  0
   11.1339   11.3758   28.0687 N   0  0  0  0  0  0  0  0  0  0  0  0
   11.0555   10.4133   27.0935 C   0  0  0  0  0  0  0  0  0  0  0  0
   11.1695    9.0508   27.2482 C   0  0  0  0  0  0  0  0  0  0  0  0
   11.3956    8.5027   28.5412 C   0  0  0  0  0  0  0  0  0  0  0  0
   11.5266    7.3245   28.8963 O   0  0  0  0  0  0  0  0  0  0  0  0
   11.0282    8.4598   26.0197 N   0  0  0  0  0  0  0  0  0  0  0  0
   10.8293    9.4537   25.1330 C   0  0  0  0  0  0  0  0  0  0  0  0
   10.8423   10.6726   25.7629 N   0  0  0  0  0  0  0  0  0  0  0  0
  1  2  1  0  0  0  0
  1  6  1  0  0  0  0
  2  3  2  0  0  0  0
  3  4  1  0  0  0  0
  4  5  2  0  0  0  0
  4 10  1  0  0  0  0
  5  6  1  0  0  0  0
  5  8  1  0  0  0  0
  6  7  2  0  0  0  0
  8  9  1  0  0  0  0
  9 10  2  0  0  0  0
M  END
>  <CHROM.1>
11.18650882,9.52222261,27.58326212,0.13305964,-1.41063704,0.42708223

>  <Name>
ligand

>  <RI>
0

>  <Rbt.Current_Directory>
/home/itssahil/PROJECTS/Mol_Feturizer/New_Systems/rnas/2EET

>  <Rbt.Executable>
rbdock ($Id: //depot/dev/client3/rdock/2013.1/src/exe/rbdock.cxx#4 $)

>  <Rbt.Library>
libRbt.so (2013.1, Build901 2013/11/27)

>  <Rbt.Parameter_File>
/export/apps/rDock/src/rDock_2013.1_src/data/scripts/dock_solv.prm

>  <Rbt.Receptor>
prm/blind_docking_80.prm

>  <SCORE>
-18.1099

>  <SCORE.INTER>
-18.1105

>  <SCORE.INTER.CONST>
1

>  <SCORE.INTER.POLAR>
0

>  <SCORE.INTER.ROT>
0

>  <SCORE.INTER.SOLV>
4.25947

>  <SCORE.INTER.VDW>
-17.0935

>  <SCORE.INTER.norm>
-1.81105

>  <SCORE.INTRA>
0

>  <SCORE.INTRA.DIHEDRAL>
0

>  <SCORE.INTRA.DIHEDRAL.0>
0

>  <SCORE.INTRA.POLAR>
0

>  <SCORE.INTRA.POLAR.0>
0

>  <SCORE.INTRA.REPUL>
0

>  <SCORE.INTRA.REPUL.0>
0

>  <SCORE.INTRA.SOLV>
0

>  <SCORE.INTRA.SOLV.lig_0>
-4.28464

>  <SCORE.INTRA.VDW>
0

>  <SCORE.INTRA.VDW.0>
0

>  <SCORE.INTRA.norm>
0

>  <SCORE.RESTR>
0.000673294

>  <SCORE.RESTR.CAVITY>
0.000673294

>  <SCORE.RESTR.norm>
6.73294e-05

>  <SCORE.SYSTEM>
0

>  <SCORE.SYSTEM.CONST>
0

>  <SCORE.SYSTEM.DIHEDRAL>
0

>  <SCORE.SYSTEM.SOLV>
0

>  <SCORE.SYSTEM.norm>
0

>  <SCORE.heavy>
10

>  <SCORE.norm>
-1.81099

>  <RMSD>
0.732

$$$$
ligand
 OpenBabel11021811423D
libRbt.so/2013.1/901 2013/11/27
 10 11  0  0  0  0  0  0  0  0999 V2000
   11.4770    9.5071   29.5059 N   0  0  0  0  0  0  0  0  0  0  0  0
   11.3532   10.8678   29.2848 C   0  0  0  0  0  0  0  0  0  0  0  0
   11.1336   11.3686   28.0630 N   0  0  0  0  0  0  0  0  0  0  0  0
   11.0494   10.4019   27.0924 C   0  0  0  0  0  0  0  0  0  0  0  0
   11.1639    9.0401   27.2521 C   0  0  0  0  0  0  0  0  0  0  0  0
   11.3972    8.4974   28.5461 C   0  0  0  0  0  0  0  0  0  0  0  0
   11.5300    7.3206   28.9054 O   0  0  0  0  0  0  0  0  0  0  0  0
   11.0155    8.4440   26.0269 N   0  0  0  0  0  0  0  0  0  0  0  0
   10.8118    9.4343   25.1372 C   0  0  0  0  0  0  0  0  0  0  0  0
   10.8287   10.6558   25.7619 N   0  0  0  0  0  0  0  0  0  0  0  0
  1  2  1  0  0  0  0
  1  6  1  0  0  0  0
  2  3  2  0  0  0  0
  3  4  1  0  0  0  0
  4  5  2  0  0  0  0
  4 10  1  0  0  0  0
  5  6  1  0  0  0  0
  5  8  1  0  0  0  0
  6  7  2  0  0  0  0
  8  9  1  0  0  0  0
  9 10  2  0  0  0  0
M  END
>  <CHROM.1>
11.18295870,9.51293635,27.58507676,0.11752289,-1.40556357,0.40757265

>  <Name>
ligand

>  <RI>
0

>  <Rbt.Current_Directory>
/home/itssahil/PROJECTS/Mol_Feturizer/New_Systems/rnas/2EET

>  <Rbt.Executable>
rbdock ($Id: //depot/dev/client3/rdock/2013.1/src/exe/rbdock.cxx#4 $)

>  <Rbt.Library>
libRbt.so (2013.1, Build901 2013/11/27)

>  <Rbt.Parameter_File>
/export/apps/rDock/src/rDock_2013.1_src/data/scripts/dock_solv.prm

>  <Rbt.Receptor>
prm/pocket_docking_4.prm

>  <SCORE>
-18.082

>  <SCORE.INTER>
-18.082

>  <SCORE.INTER.CONST>
1

>  <SCORE.INTER.POLAR>
0

>  <SCORE.INTER.ROT>
0

>  <SCORE.INTER.SOLV>
4.25586

>  <SCORE.INTER.VDW>
-17.0733

>  <SCORE.INTER.norm>
-1.8082

>  <SCORE.INTRA>
0

>  <SCORE.INTRA.DIHEDRAL>
0

>  <SCORE.INTRA.DIHEDRAL.0>
0

>  <SCORE.INTRA.POLAR>
0

>  <SCORE.INTRA.POLAR.0>
0

>  <SCORE.INTRA.REPUL>
0

>  <SCORE.INTRA.REPUL.0>
0

>  <SCORE.INTRA.SOLV>
0

>  <SCORE.INTRA.SOLV.lig_0>
-4.28464

>  <SCORE.INTRA.VDW>
0

>  <SCORE.INTRA.VDW.0>
0

>  <SCORE.INTRA.norm>
0

>  <SCORE.RESTR>
0

>  <SCORE.RESTR.CAVITY>
0

>  <SCORE.RESTR.norm>
0

>  <SCORE.SYSTEM>
0

>  <SCORE.SYSTEM.CONST>
0

>  <SCORE.SYSTEM.DIHEDRAL>
0

>  <SCORE.SYSTEM.SOLV>
0

>  <SCORE.SYSTEM.norm>
0

>  <SCORE.heavy>
10

>  <SCORE.norm>
-1.8082

>  <RMSD>
0.732

$$$$
ligand
 OpenBabel11021811423D
libRbt.so/2013.1/901 2013/11/27
 10 11  0  0  0  0  0  0  0  0999 V2000
   11.4760    9.5101   29.5010 N   0  0  0  0  0  0  0  0  0  0  0  0
   11.3437   10.8706   29.2834 C   0  0  0  0  0  0  0  0  0  0  0  0
   11.1266   11.3734   28.0620 N   0  0  0  0  0  0  0  0  0  0  0  0
   11.0541   10.4091   27.0881 C   0  0  0  0  0  0  0  0  0  0  0  0
   11.1774    9.0477   27.2443 C   0  0  0  0  0  0  0  0  0  0  0  0
   11.4081    8.5027   28.5379 C   0  0  0  0  0  0  0  0  0  0  0  0
   11.5474    7.3259   28.8944 O   0  0  0  0  0  0  0  0  0  0  0  0
   11.0393    8.4542   26.0167 N   0  0  0  0  0  0  0  0  0  0  0  0
   10.8331    9.4456   25.1289 C   0  0  0  0  0  0  0  0  0  0  0  0
   10.8383   10.6654   25.7573 N   0  0  0  0  0  0  0  0  0  0  0  0
  1  2  1  0  0  0  0
  1  6  1  0  0  0  0
  2  3  2  0  0  0  0
  3  4  1  0  0  0  0
  4  5  2  0  0  0  0
  4 10  1  0  0  0  0
  5  6  1  0  0  0  0
  5  8  1  0  0  0  0
  6  7  2  0  0  0  0
  8  9  1  0  0  0  0
  9 10  2  0  0  0  0
M  END
>  <CHROM.1>
11.19147313,9.51959433,27.57884133,0.16935635,-1.40712000,0.46168204

>  <Name>
ligand

>  <RI>
0

>  <Rbt.Current_Directory>
/home/itssahil/PROJECTS/Mol_Feturizer/New_Systems/rnas/2EET

>  <Rbt.Executable>
rbdock ($Id: //depot/dev/client3/rdock/2013.1/src/exe/rbdock.cxx#4 $)

>  <Rbt.Library>
libRbt.so (2013.1, Build901 2013/11/27)

>  <Rbt.Parameter_File>
/export/apps/rDock/src/rDock_2013.1_src/data/scripts/dock_solv.prm

>  <Rbt.Receptor>
prm/pocket_docking_4.prm

>  <SCORE>
-18.0634

>  <SCORE.INTER>
-18.0634

>  <SCORE.INTER.CONST>
1

>  <SCORE.INTER.POLAR>
0

>  <SCORE.INTER.ROT>
0

>  <SCORE.INTER.SOLV>
4.23

>  <SCORE.INTER.VDW>
-17.0523

>  <SCORE.INTER.norm>
-1.80634

>  <SCORE.INTRA>
0

>  <SCORE.INTRA.DIHEDRAL>
0

>  <SCORE.INTRA.DIHEDRAL.0>
0

>  <SCORE.INTRA.POLAR>
0

>  <SCORE.INTRA.POLAR.0>
0

>  <SCORE.INTRA.REPUL>
0

>  <SCORE.INTRA.REPUL.0>
0

>  <SCORE.INTRA.SOLV>
0

>  <SCORE.INTRA.SOLV.lig_0>
-4.28464

>  <SCORE.INTRA.VDW>
0

>  <SCORE.INTRA.VDW.0>
0

>  <SCORE.INTRA.norm>
0

>  <SCORE.RESTR>
0

>  <SCORE.RESTR.CAVITY>
0

>  <SCORE.RESTR.norm>
0

>  <SCORE.SYSTEM>
0

>  <SCORE.SYSTEM.CONST>
0

>  <SCORE.SYSTEM.DIHEDRAL>
0

>  <SCORE.SYSTEM.SOLV>
0

>  <SCORE.SYSTEM.norm>
0

>  <SCORE.heavy>
10

>  <SCORE.norm>
-1.80634

>  <RMSD>
0.732

$$$$
ligand
 OpenBabel11021811423D
libRbt.so/2013.1/901 2013/11/27
 10 11  0  0  0  0  0  0  0  0999 V2000
   11.4735    9.5079   29.5117 N   0  0  0  0  0  0  0  0  0  0  0  0
   11.3520   10.8684   29.2884 C   0  0  0  0  0  0  0  0  0  0  0  0
   11.1354   11.3676   28.0654 N   0  0  0  0  0  0  0  0  0  0  0  0
   11.0518   10.3997   27.0960 C   0  0  0  0  0  0  0  0  0  0  0  0
   11.1642    9.0380   27.2579 C   0  0  0  0  0  0  0  0  0  0  0  0
   11.3943    8.4968   28.5532 C   0  0  0  0  0  0  0  0  0  0  0  0
   11.5249    7.3204   28.9144 O   0  0  0  0  0  0  0  0  0  0  0  0
   11.0175    8.4403   26.0333 N   0  0  0  0  0  0  0  0  0  0  0  0
   10.8168    9.4295   25.1418 C   0  0  0  0  0  0  0  0  0  0  0  0
   10.8341   10.6519   25.7648 N   0  0  0  0  0  0  0  0  0  0  0  0
  1  2  1  0  0  0  0
  1  6  1  0  0  0  0
  2  3  2  0  0  0  0
  3  4  1  0  0  0  0
  4  5  2  0  0  0  0
  4 10  1  0  0  0  0
  5  6  1  0  0  0  0
  5  8  1  0  0  0  0
  6  7  2  0  0  0  0
  8  9  1  0  0  0  0
  9 10  2  0  0  0  0
M  END
>  <CHROM.1>
11.18326184,9.51126003,27.59029693,0.11489733,-1.40786920,0.40353473

>  <Name>
ligand

>  <RI>
0

>  <Rbt.Current_Directory>
/home/itssahil/PROJECTS/Mol_Feturizer/New_Systems/rnas/2EET

>  <Rbt.Executable>
rbdock ($Id: //depot/dev/client3/rdock/2013.1/src/exe/rbdock.cxx#4 $)

>  <Rbt.Library>
libRbt.so (2013.1, Build901 2013/11/27)

>  <Rbt.Parameter_File>
/export/apps/rDock/src/rDock_2013.1_src/data/scripts/dock_solv.prm

>  <Rbt.Receptor>
prm/pocket_docking_6.prm

>  <SCORE>
-18.0852

>  <SCORE.INTER>
-18.0852

>  <SCORE.INTER.CONST>
1

>  <SCORE.INTER.POLAR>
0

>  <SCORE.INTER.ROT>
0

>  <SCORE.INTER.SOLV>
4.26997

>  <SCORE.INTER.VDW>
-17.0802

>  <SCORE.INTER.norm>
-1.80852

>  <SCORE.INTRA>
0

>  <SCORE.INTRA.DIHEDRAL>
0

>  <SCORE.INTRA.DIHEDRAL.0>
0

>  <SCORE.INTRA.POLAR>
0

>  <SCORE.INTRA.POLAR.0>
0

>  <SCORE.INTRA.REPUL>
0

>  <SCORE.INTRA.REPUL.0>
0

>  <SCORE.INTRA.SOLV>
0

>  <SCORE.INTRA.SOLV.lig_0>
-4.28464

>  <SCORE.INTRA.VDW>
0

>  <SCORE.INTRA.VDW.0>
0

>  <SCORE.INTRA.norm>
0

>  <SCORE.RESTR>
0

>  <SCORE.RESTR.CAVITY>
0

>  <SCORE.RESTR.norm>
0

>  <SCORE.SYSTEM>
0

>  <SCORE.SYSTEM.CONST>
0

>  <SCORE.SYSTEM.DIHEDRAL>
0

>  <SCORE.SYSTEM.SOLV>
0

>  <SCORE.SYSTEM.norm>
0

>  <SCORE.heavy>
10

>  <SCORE.norm>
-1.80852

>  <RMSD>
0.732

$$$$
ligand
 OpenBabel11021811423D
libRbt.so/2013.1/901 2013/11/27
 10 11  0  0  0  0  0  0  0  0999 V2000
   11.4992    9.5520   29.5118 N   0  0  0  0  0  0  0  0  0  0  0  0
   11.3410   10.9079   29.2832 C   0  0  0  0  0  0  0  0  0  0  0  0
   11.1153   11.3967   28.0577 N   0  0  0  0  0  0  0  0  0  0  0  0
   11.0620   10.4234   27.0915 C   0  0  0  0  0  0  0  0  0  0  0  0
   11.2113    9.0659   27.2587 C   0  0  0  0  0  0  0  0  0  0  0  0
   11.4514    8.5358   28.5567 C   0  0  0  0  0  0  0  0  0  0  0  0
   11.6130    7.3647   28.9227 O   0  0  0  0  0  0  0  0  0  0  0  0
   11.0855    8.4601   26.0358 N   0  0  0  0  0  0  0  0  0  0  0  0
   10.8610    9.4403   25.1400 C   0  0  0  0  0  0  0  0  0  0  0  0
   10.8423   10.6649   25.7586 N   0  0  0  0  0  0  0  0  0  0  0  0
  1  2  1  0  0  0  0
  1  6  1  0  0  0  0
  2  3  2  0  0  0  0
  3  4  1  0  0  0  0
  4  5  2  0  0  0  0
  4 10  1  0  0  0  0
  5  6  1  0  0  0  0
  5  8  1  0  0  0  0
  6  7  2  0  0  0  0
  8  9  1  0  0  0  0
  9 10  2  0  0  0  0
M  END
>  <CHROM.1>
11.21605669,9.54065072,27.58944667,0.27162074,-1.39836428,0.55451574

>  <Name>
ligand

>  <RI>
0

>  <Rbt.Current_Directory>
/home/itssahil/PROJECTS/Mol_Feturizer/New_Systems/rnas/2EET

>  <Rbt.Executable>
rbdock ($Id: //depot/dev/client3/rdock/2013.1/src/exe/rbdock.cxx#4 $)

>  <Rbt.Library>
libRbt.so (2013.1, Build901 2013/11/27)

>  <Rbt.Parameter_File>
/export/apps/rDock/src/rDock_2013.1_src/data/scripts/dock_solv.prm

>  <Rbt.Receptor>
prm/pocket_docking_6.prm

>  <SCORE>
-18.0179

>  <SCORE.INTER>
-18.0179

>  <SCORE.INTER.CONST>
1

>  <SCORE.INTER.POLAR>
0

>  <SCORE.INTER.ROT>
0

>  <SCORE.INTER.SOLV>
4.16108

>  <SCORE.INTER.VDW>
-16.9989

>  <SCORE.INTER.norm>
-1.80179

>  <SCORE.INTRA>
0

>  <SCORE.INTRA.DIHEDRAL>
0

>  <SCORE.INTRA.DIHEDRAL.0>
0

>  <SCORE.INTRA.POLAR>
0

>  <SCORE.INTRA.POLAR.0>
0

>  <SCORE.INTRA.REPUL>
0

>  <SCORE.INTRA.REPUL.0>
0

>  <SCORE.INTRA.SOLV>
0

>  <SCORE.INTRA.SOLV.lig_0>
-4.28464

>  <SCORE.INTRA.VDW>
0

>  <SCORE.INTRA.VDW.0>
0

>  <SCORE.INTRA.norm>
0

>  <SCORE.RESTR>
0

>  <SCORE.RESTR.CAVITY>
0

>  <SCORE.RESTR.norm>
0

>  <SCORE.SYSTEM>
0

>  <SCORE.SYSTEM.CONST>
0

>  <SCORE.SYSTEM.DIHEDRAL>
0

>  <SCORE.SYSTEM.SOLV>
0

>  <SCORE.SYSTEM.norm>
0

>  <SCORE.heavy>
10

>  <SCORE.norm>
-1.80179

>  <RMSD>
0.732

$$$$
ligand
 OpenBabel11021811423D
libRbt.so/2013.1/901 2013/11/27
 10 11  0  0  0  0  0  0  0  0999 V2000
   11.4884    9.5542   29.5224 N   0  0  0  0  0  0  0  0  0  0  0  0
   11.3438   10.9116   29.2940 C   0  0  0  0  0  0  0  0  0  0  0  0
   11.1206   11.4026   28.0689 N   0  0  0  0  0  0  0  0  0  0  0  0
   11.0554   10.4299   27.1029 C   0  0  0  0  0  0  0  0  0  0  0  0
   11.1910    9.0709   27.2699 C   0  0  0  0  0  0  0  0  0  0  0  0
   11.4282    8.5385   28.5675 C   0  0  0  0  0  0  0  0  0  0  0  0
   11.5784    7.3658   28.9332 O   0  0  0  0  0  0  0  0  0  0  0  0
   11.0566    8.4664   26.0473 N   0  0  0  0  0  0  0  0  0  0  0  0
   10.8404    9.4488   25.1519 C   0  0  0  0  0  0  0  0  0  0  0  0
   10.8355   10.6736   25.7704 N   0  0  0  0  0  0  0  0  0  0  0  0
  1  2  1  0  0  0  0
  1  6  1  0  0  0  0
  2  3  2  0  0  0  0
  3  4  1  0  0  0  0
  4  5  2  0  0  0  0
  4 10  1  0  0  0  0
  5  6  1  0  0  0  0
  5  8  1  0  0  0  0
  6  7  2  0  0  0  0
  8  9  1  0  0  0  0
  9 10  2  0  0  0  0
M  END
>  <CHROM.1>
11.20131358,9.54565876,27.60059438,0.21322415,-1.40181951,0.49689267

>  <Name>
ligand

>  <RI>
0

>  <Rbt.Current_Directory>
/home/itssahil/PROJECTS/Mol_Feturizer/New_Systems/rnas/2EET

>  <Rbt.Executable>
rbdock ($Id: //depot/dev/client3/rdock/2013.1/src/exe/rbdock.cxx#4 $)

>  <Rbt.Library>
libRbt.so (2013.1, Build901 2013/11/27)

>  <Rbt.Parameter_File>
/export/apps/rDock/src/rDock_2013.1_src/data/scripts/dock_solv.prm

>  <Rbt.Receptor>
prm/blind_docking_100.prm

>  <SCORE>
-18.0599

>  <SCORE.INTER>
-18.0599

>  <SCORE.INTER.CONST>
1

>  <SCORE.INTER.POLAR>
0

>  <SCORE.INTER.ROT>
0

>  <SCORE.INTER.SOLV>
4.21318

>  <SCORE.INTER.VDW>
-17.0443

>  <SCORE.INTER.norm>
-1.80599

>  <SCORE.INTRA>
0

>  <SCORE.INTRA.DIHEDRAL>
0

>  <SCORE.INTRA.DIHEDRAL.0>
0

>  <SCORE.INTRA.POLAR>
0

>  <SCORE.INTRA.POLAR.0>
0

>  <SCORE.INTRA.REPUL>
0

>  <SCORE.INTRA.REPUL.0>
0

>  <SCORE.INTRA.SOLV>
0

>  <SCORE.INTRA.SOLV.lig_0>
-4.28464

>  <SCORE.INTRA.VDW>
0

>  <SCORE.INTRA.VDW.0>
0

>  <SCORE.INTRA.norm>
0

>  <SCORE.RESTR>
0

>  <SCORE.RESTR.CAVITY>
0

>  <SCORE.RESTR.norm>
0

>  <SCORE.SYSTEM>
0

>  <SCORE.SYSTEM.CONST>
0

>  <SCORE.SYSTEM.DIHEDRAL>
0

>  <SCORE.SYSTEM.SOLV>
0

>  <SCORE.SYSTEM.norm>
0

>  <SCORE.heavy>
10

>  <SCORE.norm>
-1.80599

>  <RMSD>
0.733

$$$$
ligand
 OpenBabel11021811423D
libRbt.so/2013.1/901 2013/11/27
 10 11  0  0  0  0  0  0  0  0999 V2000
   11.4759    9.5090   29.5043 N   0  0  0  0  0  0  0  0  0  0  0  0
   11.3481   10.8693   29.2829 C   0  0  0  0  0  0  0  0  0  0  0  0
   11.1324   11.3694   28.0601 N   0  0  0  0  0  0  0  0  0  0  0  0
   11.0564   10.4026   27.0890 C   0  0  0  0  0  0  0  0  0  0  0  0
   11.1752    9.0412   27.2490 C   0  0  0  0  0  0  0  0  0  0  0  0
   11.4044    8.4991   28.5440 C   0  0  0  0  0  0  0  0  0  0  0  0
   11.5398    7.3228   28.9038 O   0  0  0  0  0  0  0  0  0  0  0  0
   11.0348    8.4448   26.0231 N   0  0  0  0  0  0  0  0  0  0  0  0
   10.8316    9.4344   25.1326 C   0  0  0  0  0  0  0  0  0  0  0  0
   10.8410   10.6559   25.7575 N   0  0  0  0  0  0  0  0  0  0  0  0
  1  2  1  0  0  0  0
  1  6  1  0  0  0  0
  2  3  2  0  0  0  0
  3  4  1  0  0  0  0
  4  5  2  0  0  0  0
  4 10  1  0  0  0  0
  5  6  1  0  0  0  0
  5  8  1  0  0  0  0
  6  7  2  0  0  0  0
  8  9  1  0  0  0  0
  9 10  2  0  0  0  0
M  END
>  <CHROM.1>
11.19091982,9.51403301,27.58217712,0.15002422,-1.40833587,0.43979210

>  <Name>
ligand

>  <RI>
0

>  <Rbt.Current_Directory>
/home/itssahil/PROJECTS/Mol_Feturizer/New_Systems/rnas/2EET

>  <Rbt.Executable>
rbdock ($Id: //depot/dev/client3/rdock/2013.1/src/exe/rbdock.cxx#4 $)

>  <Rbt.Library>
libRbt.so (2013.1, Build901 2013/11/27)

>  <Rbt.Parameter_File>
/export/apps/rDock/src/rDock_2013.1_src/data/scripts/dock_solv.prm

>  <Rbt.Receptor>
prm/pocket_docking_5.prm

>  <SCORE>
-18.0735

>  <SCORE.INTER>
-18.0735

>  <SCORE.INTER.CONST>
1

>  <SCORE.INTER.POLAR>
0

>  <SCORE.INTER.ROT>
0

>  <SCORE.INTER.SOLV>
4.24521

>  <SCORE.INTER.VDW>
-17.0641

>  <SCORE.INTER.norm>
-1.80735

>  <SCORE.INTRA>
0

>  <SCORE.INTRA.DIHEDRAL>
0

>  <SCORE.INTRA.DIHEDRAL.0>
0

>  <SCORE.INTRA.POLAR>
0

>  <SCORE.INTRA.POLAR.0>
0

>  <SCORE.INTRA.REPUL>
0

>  <SCORE.INTRA.REPUL.0>
0

>  <SCORE.INTRA.SOLV>
0

>  <SCORE.INTRA.SOLV.lig_0>
-4.28464

>  <SCORE.INTRA.VDW>
0

>  <SCORE.INTRA.VDW.0>
0

>  <SCORE.INTRA.norm>
0

>  <SCORE.RESTR>
0

>  <SCORE.RESTR.CAVITY>
0

>  <SCORE.RESTR.norm>
0

>  <SCORE.SYSTEM>
0

>  <SCORE.SYSTEM.CONST>
0

>  <SCORE.SYSTEM.DIHEDRAL>
0

>  <SCORE.SYSTEM.SOLV>
0

>  <SCORE.SYSTEM.norm>
0

>  <SCORE.heavy>
10

>  <SCORE.norm>
-1.80735

>  <RMSD>
0.733

$$$$
ligand
 OpenBabel11021811423D
libRbt.so/2013.1/901 2013/11/27
 10 11  0  0  0  0  0  0  0  0999 V2000
   11.4951    9.5547   29.5146 N   0  0  0  0  0  0  0  0  0  0  0  0
   11.3464   10.9121   29.2882 C   0  0  0  0  0  0  0  0  0  0  0  0
   11.1193   11.4041   28.0643 N   0  0  0  0  0  0  0  0  0  0  0  0
   11.0545   10.4325   27.0972 C   0  0  0  0  0  0  0  0  0  0  0  0
   11.1940    9.0736   27.2621 C   0  0  0  0  0  0  0  0  0  0  0  0
   11.4354    8.5401   28.5585 C   0  0  0  0  0  0  0  0  0  0  0  0
   11.5894    7.3674   28.9224 O   0  0  0  0  0  0  0  0  0  0  0  0
   11.0585    8.4703   26.0390 N   0  0  0  0  0  0  0  0  0  0  0  0
   10.8378    9.4533   25.1453 C   0  0  0  0  0  0  0  0  0  0  0  0
   10.8311   10.6772   25.7655 N   0  0  0  0  0  0  0  0  0  0  0  0
  1  2  1  0  0  0  0
  1  6  1  0  0  0  0
  2  3  2  0  0  0  0
  3  4  1  0  0  0  0
  4  5  2  0  0  0  0
  4 10  1  0  0  0  0
  5  6  1  0  0  0  0
  5  8  1  0  0  0  0
  6  7  2  0  0  0  0
  8  9  1  0  0  0  0
  9 10  2  0  0  0  0
M  END
>  <CHROM.1>
11.20379387,9.54792885,27.59338208,0.22039881,-1.39868392,0.50525776

>  <Name>
ligand

>  <RI>
0

>  <Rbt.Current_Directory>
/home/itssahil/PROJECTS/Mol_Feturizer/New_Systems/rnas/2EET

>  <Rbt.Executable>
rbdock ($Id: //depot/dev/client3/rdock/2013.1/src/exe/rbdock.cxx#4 $)

>  <Rbt.Library>
libRbt.so (2013.1, Build901 2013/11/27)

>  <Rbt.Parameter_File>
/export/apps/rDock/src/rDock_2013.1_src/data/scripts/dock_solv.prm

>  <Rbt.Receptor>
prm/pocket_docking_6.prm

>  <SCORE>
-18.0509

>  <SCORE.INTER>
-18.0509

>  <SCORE.INTER.CONST>
1

>  <SCORE.INTER.POLAR>
0

>  <SCORE.INTER.ROT>
0

>  <SCORE.INTER.SOLV>
4.18935

>  <SCORE.INTER.VDW>
-17.0304

>  <SCORE.INTER.norm>
-1.80509

>  <SCORE.INTRA>
0

>  <SCORE.INTRA.DIHEDRAL>
0

>  <SCORE.INTRA.DIHEDRAL.0>
0

>  <SCORE.INTRA.POLAR>
0

>  <SCORE.INTRA.POLAR.0>
0

>  <SCORE.INTRA.REPUL>
0

>  <SCORE.INTRA.REPUL.0>
0

>  <SCORE.INTRA.SOLV>
0

>  <SCORE.INTRA.SOLV.lig_0>
-4.28464

>  <SCORE.INTRA.VDW>
0

>  <SCORE.INTRA.VDW.0>
0

>  <SCORE.INTRA.norm>
0

>  <SCORE.RESTR>
0

>  <SCORE.RESTR.CAVITY>
0

>  <SCORE.RESTR.norm>
0

>  <SCORE.SYSTEM>
0

>  <SCORE.SYSTEM.CONST>
0

>  <SCORE.SYSTEM.DIHEDRAL>
0

>  <SCORE.SYSTEM.SOLV>
0

>  <SCORE.SYSTEM.norm>
0

>  <SCORE.heavy>
10

>  <SCORE.norm>
-1.80509

>  <RMSD>
0.733

$$$$
ligand
 OpenBabel11021811423D
libRbt.so/2013.1/901 2013/11/27
 10 11  0  0  0  0  0  0  0  0999 V2000
   11.4805    9.5077   29.5028 N   0  0  0  0  0  0  0  0  0  0  0  0
   11.3533   10.8676   29.2785 C   0  0  0  0  0  0  0  0  0  0  0  0
   11.1385   11.3653   28.0547 N   0  0  0  0  0  0  0  0  0  0  0  0
   11.0626   10.3966   27.0854 C   0  0  0  0  0  0  0  0  0  0  0  0
   11.1809    9.0355   27.2482 C   0  0  0  0  0  0  0  0  0  0  0  0
   11.4092    8.4960   28.5445 C   0  0  0  0  0  0  0  0  0  0  0  0
   11.5440    7.3203   28.9066 O   0  0  0  0  0  0  0  0  0  0  0  0
   11.0409    8.4367   26.0234 N   0  0  0  0  0  0  0  0  0  0  0  0
   10.8386    9.4246   25.1308 C   0  0  0  0  0  0  0  0  0  0  0  0
   10.8481   10.6473   25.7533 N   0  0  0  0  0  0  0  0  0  0  0  0
  1  2  1  0  0  0  0
  1  6  1  0  0  0  0
  2  3  2  0  0  0  0
  3  4  1  0  0  0  0
  4  5  2  0  0  0  0
  4 10  1  0  0  0  0
  5  6  1  0  0  0  0
  5  8  1  0  0  0  0
  6  7  2  0  0  0  0
  8  9  1  0  0  0  0
  9 10  2  0  0  0  0
M  END
>  <CHROM.1>
11.19656759,9.50899239,27.58045732,0.14952027,-1.40896856,0.43729061

>  <Name>
ligand

>  <RI>
0

>  <Rbt.Current_Directory>
/home/itssahil/PROJECTS/Mol_Feturizer/New_Systems/rnas/2EET

>  <Rbt.Executable>
rbdock ($Id: //depot/dev/client3/rdock/2013.1/src/exe/rbdock.cxx#4 $)

>  <Rbt.Library>
libRbt.so (2013.1, Build901 2013/11/27)

>  <Rbt.Parameter_File>
/export/apps/rDock/src/rDock_2013.1_src/data/scripts/dock_solv.prm

>  <Rbt.Receptor>
prm/blind_docking_40.prm

>  <SCORE>
-18.0711

>  <SCORE.INTER>
-18.0723

>  <SCORE.INTER.CONST>
1

>  <SCORE.INTER.POLAR>
0

>  <SCORE.INTER.ROT>
0

>  <SCORE.INTER.SOLV>
4.24256

>  <SCORE.INTER.VDW>
-17.0624

>  <SCORE.INTER.norm>
-1.80723

>  <SCORE.INTRA>
0

>  <SCORE.INTRA.DIHEDRAL>
0

>  <SCORE.INTRA.DIHEDRAL.0>
0

>  <SCORE.INTRA.POLAR>
0

>  <SCORE.INTRA.POLAR.0>
0

>  <SCORE.INTRA.REPUL>
0

>  <SCORE.INTRA.REPUL.0>
0

>  <SCORE.INTRA.SOLV>
0

>  <SCORE.INTRA.SOLV.lig_0>
-4.28464

>  <SCORE.INTRA.VDW>
0

>  <SCORE.INTRA.VDW.0>
0

>  <SCORE.INTRA.norm>
0

>  <SCORE.RESTR>
0.0011581

>  <SCORE.RESTR.CAVITY>
0.0011581

>  <SCORE.RESTR.norm>
0.00011581

>  <SCORE.SYSTEM>
0

>  <SCORE.SYSTEM.CONST>
0

>  <SCORE.SYSTEM.DIHEDRAL>
0

>  <SCORE.SYSTEM.SOLV>
0

>  <SCORE.SYSTEM.norm>
0

>  <SCORE.heavy>
10

>  <SCORE.norm>
-1.80711

>  <RMSD>
0.734

$$$$
ligand
 OpenBabel11021811423D
libRbt.so/2013.1/901 2013/11/27
 10 11  0  0  0  0  0  0  0  0999 V2000
   11.4732    9.5115   29.5003 N   0  0  0  0  0  0  0  0  0  0  0  0
   11.3406   10.8717   29.2813 C   0  0  0  0  0  0  0  0  0  0  0  0
   11.1228   11.3733   28.0595 N   0  0  0  0  0  0  0  0  0  0  0  0
   11.0499   10.4080   27.0866 C   0  0  0  0  0  0  0  0  0  0  0  0
   11.1734    9.0467   27.2442 C   0  0  0  0  0  0  0  0  0  0  0  0
   11.4049    8.5031   28.5382 C   0  0  0  0  0  0  0  0  0  0  0  0
   11.5446    7.3266   28.8958 O   0  0  0  0  0  0  0  0  0  0  0  0
   11.0347    8.4520   26.0172 N   0  0  0  0  0  0  0  0  0  0  0  0
   10.8279    9.4425   25.1286 C   0  0  0  0  0  0  0  0  0  0  0  0
   10.8332   10.6629   25.7557 N   0  0  0  0  0  0  0  0  0  0  0  0
  1  2  1  0  0  0  0
  1  6  1  0  0  0  0
  2  3  2  0  0  0  0
  3  4  1  0  0  0  0
  4  5  2  0  0  0  0
  4 10  1  0  0  0  0
  5  6  1  0  0  0  0
  5  8  1  0  0  0  0
  6  7  2  0  0  0  0
  8  9  1  0  0  0  0
  9 10  2  0  0  0  0
M  END
>  <CHROM.1>
11.18763175,9.51898529,27.57820892,0.16855027,-1.40655020,0.45986858

>  <Name>
ligand

>  <RI>
0

>  <Rbt.Current_Directory>
/home/itssahil/PROJECTS/Mol_Feturizer/New_Systems/rnas/2EET

>  <Rbt.Executable>
rbdock ($Id: //depot/dev/client3/rdock/2013.1/src/exe/rbdock.cxx#4 $)

>  <Rbt.Library>
libRbt.so (2013.1, Build901 2013/11/27)

>  <Rbt.Parameter_File>
/export/apps/rDock/src/rDock_2013.1_src/data/scripts/dock_solv.prm

>  <Rbt.Receptor>
prm/pocket_docking_4.prm

>  <SCORE>
-18.0603

>  <SCORE.INTER>
-18.0603

>  <SCORE.INTER.CONST>
1

>  <SCORE.INTER.POLAR>
0

>  <SCORE.INTER.ROT>
0

>  <SCORE.INTER.SOLV>
4.23266

>  <SCORE.INTER.VDW>
-17.0511

>  <SCORE.INTER.norm>
-1.80603

>  <SCORE.INTRA>
0

>  <SCORE.INTRA.DIHEDRAL>
0

>  <SCORE.INTRA.DIHEDRAL.0>
0

>  <SCORE.INTRA.POLAR>
0

>  <SCORE.INTRA.POLAR.0>
0

>  <SCORE.INTRA.REPUL>
0

>  <SCORE.INTRA.REPUL.0>
0

>  <SCORE.INTRA.SOLV>
0

>  <SCORE.INTRA.SOLV.lig_0>
-4.28464

>  <SCORE.INTRA.VDW>
0

>  <SCORE.INTRA.VDW.0>
0

>  <SCORE.INTRA.norm>
0

>  <SCORE.RESTR>
0

>  <SCORE.RESTR.CAVITY>
0

>  <SCORE.RESTR.norm>
0

>  <SCORE.SYSTEM>
0

>  <SCORE.SYSTEM.CONST>
0

>  <SCORE.SYSTEM.DIHEDRAL>
0

>  <SCORE.SYSTEM.SOLV>
0

>  <SCORE.SYSTEM.norm>
0

>  <SCORE.heavy>
10

>  <SCORE.norm>
-1.80603

>  <RMSD>
0.734

$$$$
ligand
 OpenBabel11021811423D
libRbt.so/2013.1/901 2013/11/27
 10 11  0  0  0  0  0  0  0  0999 V2000
   11.4922    9.5526   29.5195 N   0  0  0  0  0  0  0  0  0  0  0  0
   11.3405   10.9087   29.2879 C   0  0  0  0  0  0  0  0  0  0  0  0
   11.1143   11.3957   28.0618 N   0  0  0  0  0  0  0  0  0  0  0  0
   11.0537   10.4204   27.0981 C   0  0  0  0  0  0  0  0  0  0  0  0
   11.1963    9.0625   27.2683 C   0  0  0  0  0  0  0  0  0  0  0  0
   11.4368    8.5343   28.5670 C   0  0  0  0  0  0  0  0  0  0  0  0
   11.5932    7.3633   28.9354 O   0  0  0  0  0  0  0  0  0  0  0  0
   11.0644    8.4544   26.0471 N   0  0  0  0  0  0  0  0  0  0  0  0
   10.8428    9.4335   25.1495 C   0  0  0  0  0  0  0  0  0  0  0  0
   10.8320   10.6597   25.7652 N   0  0  0  0  0  0  0  0  0  0  0  0
  1  2  1  0  0  0  0
  1  6  1  0  0  0  0
  2  3  2  0  0  0  0
  3  4  1  0  0  0  0
  4  5  2  0  0  0  0
  4 10  1  0  0  0  0
  5  6  1  0  0  0  0
  5  8  1  0  0  0  0
  6  7  2  0  0  0  0
  8  9  1  0  0  0  0
  9 10  2  0  0  0  0
M  END
>  <CHROM.1>
11.20432267,9.53803586,27.59782212,0.23836061,-1.39893893,0.51931232

>  <Name>
ligand

>  <RI>
0

>  <Rbt.Current_Directory>
/home/itssahil/PROJECTS/Mol_Feturizer/New_Systems/rnas/2EET

>  <Rbt.Executable>
rbdock ($Id: //depot/dev/client3/rdock/2013.1/src/exe/rbdock.cxx#4 $)

>  <Rbt.Library>
libRbt.so (2013.1, Build901 2013/11/27)

>  <Rbt.Parameter_File>
/export/apps/rDock/src/rDock_2013.1_src/data/scripts/dock_solv.prm

>  <Rbt.Receptor>
prm/pocket_docking_6.prm

>  <SCORE>
-18.0497

>  <SCORE.INTER>
-18.0497

>  <SCORE.INTER.CONST>
1

>  <SCORE.INTER.POLAR>
0

>  <SCORE.INTER.ROT>
0

>  <SCORE.INTER.SOLV>
4.19423

>  <SCORE.INTER.VDW>
-17.0312

>  <SCORE.INTER.norm>
-1.80497

>  <SCORE.INTRA>
0

>  <SCORE.INTRA.DIHEDRAL>
0

>  <SCORE.INTRA.DIHEDRAL.0>
0

>  <SCORE.INTRA.POLAR>
0

>  <SCORE.INTRA.POLAR.0>
0

>  <SCORE.INTRA.REPUL>
0

>  <SCORE.INTRA.REPUL.0>
0

>  <SCORE.INTRA.SOLV>
0

>  <SCORE.INTRA.SOLV.lig_0>
-4.28464

>  <SCORE.INTRA.VDW>
0

>  <SCORE.INTRA.VDW.0>
0

>  <SCORE.INTRA.norm>
0

>  <SCORE.RESTR>
0

>  <SCORE.RESTR.CAVITY>
0

>  <SCORE.RESTR.norm>
0

>  <SCORE.SYSTEM>
0

>  <SCORE.SYSTEM.CONST>
0

>  <SCORE.SYSTEM.DIHEDRAL>
0

>  <SCORE.SYSTEM.SOLV>
0

>  <SCORE.SYSTEM.norm>
0

>  <SCORE.heavy>
10

>  <SCORE.norm>
-1.80497

>  <RMSD>
0.734

$$$$
ligand
 OpenBabel11021811423D
libRbt.so/2013.1/901 2013/11/27
 10 11  0  0  0  0  0  0  0  0999 V2000
   11.4921    9.5537   29.5179 N   0  0  0  0  0  0  0  0  0  0  0  0
   11.3439   10.9107   29.2894 C   0  0  0  0  0  0  0  0  0  0  0  0
   11.1189   11.4010   28.0644 N   0  0  0  0  0  0  0  0  0  0  0  0
   11.0557   10.4280   27.0985 C   0  0  0  0  0  0  0  0  0  0  0  0
   11.1948    9.0694   27.2656 C   0  0  0  0  0  0  0  0  0  0  0  0
   11.4340    8.5377   28.5632 C   0  0  0  0  0  0  0  0  0  0  0  0
   11.5874    7.3655   28.9290 O   0  0  0  0  0  0  0  0  0  0  0  0
   11.0613    8.4644   26.0431 N   0  0  0  0  0  0  0  0  0  0  0  0
   10.8421    9.4461   25.1477 C   0  0  0  0  0  0  0  0  0  0  0  0
   10.8345   10.6709   25.7661 N   0  0  0  0  0  0  0  0  0  0  0  0
  1  2  1  0  0  0  0
  1  6  1  0  0  0  0
  2  3  2  0  0  0  0
  3  4  1  0  0  0  0
  4  5  2  0  0  0  0
  4 10  1  0  0  0  0
  5  6  1  0  0  0  0
  5  8  1  0  0  0  0
  6  7  2  0  0  0  0
  8  9  1  0  0  0  0
  9 10  2  0  0  0  0
M  END
>  <CHROM.1>
11.20405036,9.54418038,27.59624165,0.22498576,-1.40015007,0.50835297

>  <Name>
ligand

>  <RI>
0

>  <Rbt.Current_Directory>
/home/itssahil/PROJECTS/Mol_Feturizer/New_Systems/rnas/2EET

>  <Rbt.Executable>
rbdock ($Id: //depot/dev/client3/rdock/2013.1/src/exe/rbdock.cxx#4 $)

>  <Rbt.Library>
libRbt.so (2013.1, Build901 2013/11/27)

>  <Rbt.Parameter_File>
/export/apps/rDock/src/rDock_2013.1_src/data/scripts/dock_solv.prm

>  <Rbt.Receptor>
prm/pocket_docking_6.prm

>  <SCORE>
-18.0532

>  <SCORE.INTER>
-18.0532

>  <SCORE.INTER.CONST>
1

>  <SCORE.INTER.POLAR>
0

>  <SCORE.INTER.ROT>
0

>  <SCORE.INTER.SOLV>
4.19764

>  <SCORE.INTER.VDW>
-17.0347

>  <SCORE.INTER.norm>
-1.80532

>  <SCORE.INTRA>
0

>  <SCORE.INTRA.DIHEDRAL>
0

>  <SCORE.INTRA.DIHEDRAL.0>
0

>  <SCORE.INTRA.POLAR>
0

>  <SCORE.INTRA.POLAR.0>
0

>  <SCORE.INTRA.REPUL>
0

>  <SCORE.INTRA.REPUL.0>
0

>  <SCORE.INTRA.SOLV>
0

>  <SCORE.INTRA.SOLV.lig_0>
-4.28464

>  <SCORE.INTRA.VDW>
0

>  <SCORE.INTRA.VDW.0>
0

>  <SCORE.INTRA.norm>
0

>  <SCORE.RESTR>
0

>  <SCORE.RESTR.CAVITY>
0

>  <SCORE.RESTR.norm>
0

>  <SCORE.SYSTEM>
0

>  <SCORE.SYSTEM.CONST>
0

>  <SCORE.SYSTEM.DIHEDRAL>
0

>  <SCORE.SYSTEM.SOLV>
0

>  <SCORE.SYSTEM.norm>
0

>  <SCORE.heavy>
10

>  <SCORE.norm>
-1.80532

>  <RMSD>
0.734

$$$$
ligand
 OpenBabel11021811423D
libRbt.so/2013.1/901 2013/11/27
 10 11  0  0  0  0  0  0  0  0999 V2000
   11.4728    9.5093   29.5027 N   0  0  0  0  0  0  0  0  0  0  0  0
   11.3459   10.8699   29.2831 C   0  0  0  0  0  0  0  0  0  0  0  0
   11.1323   11.3719   28.0608 N   0  0  0  0  0  0  0  0  0  0  0  0
   11.0574   10.4066   27.0881 C   0  0  0  0  0  0  0  0  0  0  0  0
   11.1754    9.0449   27.2463 C   0  0  0  0  0  0  0  0  0  0  0  0
   11.4024    8.5009   28.5408 C   0  0  0  0  0  0  0  0  0  0  0  0
   11.5368    7.3239   28.8990 O   0  0  0  0  0  0  0  0  0  0  0  0
   11.0367    8.4504   26.0192 N   0  0  0  0  0  0  0  0  0  0  0  0
   10.8353    9.4414   25.1299 C   0  0  0  0  0  0  0  0  0  0  0  0
   10.8442   10.6620   25.7567 N   0  0  0  0  0  0  0  0  0  0  0  0
  1  2  1  0  0  0  0
  1  6  1  0  0  0  0
  2  3  2  0  0  0  0
  3  4  1  0  0  0  0
  4  5  2  0  0  0  0
  4 10  1  0  0  0  0
  5  6  1  0  0  0  0
  5  8  1  0  0  0  0
  6  7  2  0  0  0  0
  8  9  1  0  0  0  0
  9 10  2  0  0  0  0
M  END
>  <CHROM.1>
11.19080972,9.51726782,27.58017133,0.15192082,-1.40991545,0.44315773

>  <Name>
ligand

>  <RI>
0

>  <Rbt.Current_Directory>
/home/itssahil/PROJECTS/Mol_Feturizer/New_Systems/rnas/2EET

>  <Rbt.Executable>
rbdock ($Id: //depot/dev/client3/rdock/2013.1/src/exe/rbdock.cxx#4 $)

>  <Rbt.Library>
libRbt.so (2013.1, Build901 2013/11/27)

>  <Rbt.Parameter_File>
/export/apps/rDock/src/rDock_2013.1_src/data/scripts/dock_solv.prm

>  <Rbt.Receptor>
prm/pocket_docking_7.prm

>  <SCORE>
-18.0689

>  <SCORE.INTER>
-18.0689

>  <SCORE.INTER.CONST>
1

>  <SCORE.INTER.POLAR>
0

>  <SCORE.INTER.ROT>
0

>  <SCORE.INTER.SOLV>
4.24749

>  <SCORE.INTER.VDW>
-17.0618

>  <SCORE.INTER.norm>
-1.80689

>  <SCORE.INTRA>
0

>  <SCORE.INTRA.DIHEDRAL>
0

>  <SCORE.INTRA.DIHEDRAL.0>
0

>  <SCORE.INTRA.POLAR>
0

>  <SCORE.INTRA.POLAR.0>
0

>  <SCORE.INTRA.REPUL>
0

>  <SCORE.INTRA.REPUL.0>
0

>  <SCORE.INTRA.SOLV>
0

>  <SCORE.INTRA.SOLV.lig_0>
-4.28464

>  <SCORE.INTRA.VDW>
0

>  <SCORE.INTRA.VDW.0>
0

>  <SCORE.INTRA.norm>
0

>  <SCORE.RESTR>
0

>  <SCORE.RESTR.CAVITY>
0

>  <SCORE.RESTR.norm>
0

>  <SCORE.SYSTEM>
0

>  <SCORE.SYSTEM.CONST>
0

>  <SCORE.SYSTEM.DIHEDRAL>
0

>  <SCORE.SYSTEM.SOLV>
0

>  <SCORE.SYSTEM.norm>
0

>  <SCORE.heavy>
10

>  <SCORE.norm>
-1.80689

>  <RMSD>
0.734

$$$$
ligand
 OpenBabel11021811423D
libRbt.so/2013.1/901 2013/11/27
 10 11  0  0  0  0  0  0  0  0999 V2000
   11.4926    9.5496   29.5151 N   0  0  0  0  0  0  0  0  0  0  0  0
   11.3354   10.9051   29.2838 C   0  0  0  0  0  0  0  0  0  0  0  0
   11.1152   11.3922   28.0567 N   0  0  0  0  0  0  0  0  0  0  0  0
   11.0663   10.4176   27.0916 C   0  0  0  0  0  0  0  0  0  0  0  0
   11.2148    9.0603   27.2614 C   0  0  0  0  0  0  0  0  0  0  0  0
   11.4490    8.5321   28.5613 C   0  0  0  0  0  0  0  0  0  0  0  0
   11.6089    7.3615   28.9296 O   0  0  0  0  0  0  0  0  0  0  0  0
   11.0945    8.4528   26.0388 N   0  0  0  0  0  0  0  0  0  0  0  0
   10.8741    9.4316   25.1406 C   0  0  0  0  0  0  0  0  0  0  0  0
   10.8526   10.6571   25.7574 N   0  0  0  0  0  0  0  0  0  0  0  0
  1  2  1  0  0  0  0
  1  6  1  0  0  0  0
  2  3  2  0  0  0  0
  3  4  1  0  0  0  0
  4  5  2  0  0  0  0
  4 10  1  0  0  0  0
  5  6  1  0  0  0  0
  5  8  1  0  0  0  0
  6  7  2  0  0  0  0
  8  9  1  0  0  0  0
  9 10  2  0  0  0  0
M  END
>  <CHROM.1>
11.21805036,9.53551743,27.59149243,0.28556689,-1.40221028,0.56682872

>  <Name>
ligand

>  <RI>
0

>  <Rbt.Current_Directory>
/home/itssahil/PROJECTS/Mol_Feturizer/New_Systems/rnas/2EET

>  <Rbt.Executable>
rbdock ($Id: //depot/dev/client3/rdock/2013.1/src/exe/rbdock.cxx#4 $)

>  <Rbt.Library>
libRbt.so (2013.1, Build901 2013/11/27)

>  <Rbt.Parameter_File>
/export/apps/rDock/src/rDock_2013.1_src/data/scripts/dock_solv.prm

>  <Rbt.Receptor>
prm/pocket_docking_7.prm

>  <SCORE>
-18.006

>  <SCORE.INTER>
-18.006

>  <SCORE.INTER.CONST>
1

>  <SCORE.INTER.POLAR>
0

>  <SCORE.INTER.ROT>
0

>  <SCORE.INTER.SOLV>
4.17358

>  <SCORE.INTER.VDW>
-16.9952

>  <SCORE.INTER.norm>
-1.8006

>  <SCORE.INTRA>
0

>  <SCORE.INTRA.DIHEDRAL>
0

>  <SCORE.INTRA.DIHEDRAL.0>
0

>  <SCORE.INTRA.POLAR>
0

>  <SCORE.INTRA.POLAR.0>
0

>  <SCORE.INTRA.REPUL>
0

>  <SCORE.INTRA.REPUL.0>
0

>  <SCORE.INTRA.SOLV>
0

>  <SCORE.INTRA.SOLV.lig_0>
-4.28464

>  <SCORE.INTRA.VDW>
0

>  <SCORE.INTRA.VDW.0>
0

>  <SCORE.INTRA.norm>
0

>  <SCORE.RESTR>
0

>  <SCORE.RESTR.CAVITY>
0

>  <SCORE.RESTR.norm>
0

>  <SCORE.SYSTEM>
0

>  <SCORE.SYSTEM.CONST>
0

>  <SCORE.SYSTEM.DIHEDRAL>
0

>  <SCORE.SYSTEM.SOLV>
0

>  <SCORE.SYSTEM.norm>
0

>  <SCORE.heavy>
10

>  <SCORE.norm>
-1.8006

>  <RMSD>
0.734

$$$$
ligand
 OpenBabel11021811423D
libRbt.so/2013.1/901 2013/11/27
 10 11  0  0  0  0  0  0  0  0999 V2000
   11.4710    9.5084   29.5127 N   0  0  0  0  0  0  0  0  0  0  0  0
   11.3510   10.8688   29.2877 C   0  0  0  0  0  0  0  0  0  0  0  0
   11.1363   11.3669   28.0640 N   0  0  0  0  0  0  0  0  0  0  0  0
   11.0528   10.3980   27.0956 C   0  0  0  0  0  0  0  0  0  0  0  0
   11.1637    9.0363   27.2592 C   0  0  0  0  0  0  0  0  0  0  0  0
   11.3918    8.4964   28.5553 C   0  0  0  0  0  0  0  0  0  0  0  0
   11.5207    7.3203   28.9180 O   0  0  0  0  0  0  0  0  0  0  0  0
   11.0176    8.4374   26.0351 N   0  0  0  0  0  0  0  0  0  0  0  0
   10.8190    9.4258   25.1422 C   0  0  0  0  0  0  0  0  0  0  0  0
   10.8368   10.6489   25.7638 N   0  0  0  0  0  0  0  0  0  0  0  0
  1  2  1  0  0  0  0
  1  6  1  0  0  0  0
  2  3  2  0  0  0  0
  3  4  1  0  0  0  0
  4  5  2  0  0  0  0
  4 10  1  0  0  0  0
  5  6  1  0  0  0  0
  5  8  1  0  0  0  0
  6  7  2  0  0  0  0
  8  9  1  0  0  0  0
  9 10  2  0  0  0  0
M  END
>  <CHROM.1>
11.18280683,9.50992725,27.59102299,0.11172869,-1.40927772,0.39926640

>  <Name>
ligand

>  <RI>
0

>  <Rbt.Current_Directory>
/home/itssahil/PROJECTS/Mol_Feturizer/New_Systems/rnas/2EET

>  <Rbt.Executable>
rbdock ($Id: //depot/dev/client3/rdock/2013.1/src/exe/rbdock.cxx#4 $)

>  <Rbt.Library>
libRbt.so (2013.1, Build901 2013/11/27)

>  <Rbt.Parameter_File>
/export/apps/rDock/src/rDock_2013.1_src/data/scripts/dock_solv.prm

>  <Rbt.Receptor>
prm/pocket_docking_7.prm

>  <SCORE>
-18.0844

>  <SCORE.INTER>
-18.0844

>  <SCORE.INTER.CONST>
1

>  <SCORE.INTER.POLAR>
0

>  <SCORE.INTER.ROT>
0

>  <SCORE.INTER.SOLV>
4.27824

>  <SCORE.INTER.VDW>
-17.0823

>  <SCORE.INTER.norm>
-1.80844

>  <SCORE.INTRA>
0

>  <SCORE.INTRA.DIHEDRAL>
0

>  <SCORE.INTRA.DIHEDRAL.0>
0

>  <SCORE.INTRA.POLAR>
0

>  <SCORE.INTRA.POLAR.0>
0

>  <SCORE.INTRA.REPUL>
0

>  <SCORE.INTRA.REPUL.0>
0

>  <SCORE.INTRA.SOLV>
0

>  <SCORE.INTRA.SOLV.lig_0>
-4.28464

>  <SCORE.INTRA.VDW>
0

>  <SCORE.INTRA.VDW.0>
0

>  <SCORE.INTRA.norm>
0

>  <SCORE.RESTR>
1.40136e-06

>  <SCORE.RESTR.CAVITY>
1.40136e-06

>  <SCORE.RESTR.norm>
1.40136e-07

>  <SCORE.SYSTEM>
0

>  <SCORE.SYSTEM.CONST>
0

>  <SCORE.SYSTEM.DIHEDRAL>
0

>  <SCORE.SYSTEM.SOLV>
0

>  <SCORE.SYSTEM.norm>
0

>  <SCORE.heavy>
10

>  <SCORE.norm>
-1.80844

>  <RMSD>
0.734

$$$$
ligand
 OpenBabel11021811423D
libRbt.so/2013.1/901 2013/11/27
 10 11  0  0  0  0  0  0  0  0999 V2000
   11.4613    9.5094   29.5213 N   0  0  0  0  0  0  0  0  0  0  0  0
   11.3479   10.8707   29.2984 C   0  0  0  0  0  0  0  0  0  0  0  0
   11.1372   11.3718   28.0752 N   0  0  0  0  0  0  0  0  0  0  0  0
   11.0507   10.4049   27.1051 C   0  0  0  0  0  0  0  0  0  0  0  0
   11.1550    9.0425   27.2666 C   0  0  0  0  0  0  0  0  0  0  0  0
   11.3788    8.4994   28.5621 C   0  0  0  0  0  0  0  0  0  0  0  0
   11.5019    7.3221   28.9231 O   0  0  0  0  0  0  0  0  0  0  0  0
   11.0079    8.4463   26.0413 N   0  0  0  0  0  0  0  0  0  0  0  0
   10.8151    9.4370   25.1498 C   0  0  0  0  0  0  0  0  0  0  0  0
   10.8376   10.6590   25.7735 N   0  0  0  0  0  0  0  0  0  0  0  0
  1  2  1  0  0  0  0
  1  6  1  0  0  0  0
  2  3  2  0  0  0  0
  3  4  1  0  0  0  0
  4  5  2  0  0  0  0
  4 10  1  0  0  0  0
  5  6  1  0  0  0  0
  5  8  1  0  0  0  0
  6  7  2  0  0  0  0
  8  9  1  0  0  0  0
  9 10  2  0  0  0  0
M  END
>  <CHROM.1>
11.17586188,9.51546411,27.59922627,0.08837106,-1.41230932,0.37787521

>  <Name>
ligand

>  <RI>
0

>  <Rbt.Current_Directory>
/home/itssahil/PROJECTS/Mol_Feturizer/New_Systems/rnas/2EET

>  <Rbt.Executable>
rbdock ($Id: //depot/dev/client3/rdock/2013.1/src/exe/rbdock.cxx#4 $)

>  <Rbt.Library>
libRbt.so (2013.1, Build901 2013/11/27)

>  <Rbt.Parameter_File>
/export/apps/rDock/src/rDock_2013.1_src/data/scripts/dock_solv.prm

>  <Rbt.Receptor>
prm/pocket_docking_8.prm

>  <SCORE>
-18.1176

>  <SCORE.INTER>
-18.1197

>  <SCORE.INTER.CONST>
1

>  <SCORE.INTER.POLAR>
0

>  <SCORE.INTER.ROT>
0

>  <SCORE.INTER.SOLV>
4.30737

>  <SCORE.INTER.VDW>
-17.1156

>  <SCORE.INTER.norm>
-1.81197

>  <SCORE.INTRA>
0

>  <SCORE.INTRA.DIHEDRAL>
0

>  <SCORE.INTRA.DIHEDRAL.0>
0

>  <SCORE.INTRA.POLAR>
0

>  <SCORE.INTRA.POLAR.0>
0

>  <SCORE.INTRA.REPUL>
0

>  <SCORE.INTRA.REPUL.0>
0

>  <SCORE.INTRA.SOLV>
0

>  <SCORE.INTRA.SOLV.lig_0>
-4.28464

>  <SCORE.INTRA.VDW>
0

>  <SCORE.INTRA.VDW.0>
0

>  <SCORE.INTRA.norm>
0

>  <SCORE.RESTR>
0.00203182

>  <SCORE.RESTR.CAVITY>
0.00203182

>  <SCORE.RESTR.norm>
0.000203182

>  <SCORE.SYSTEM>
0

>  <SCORE.SYSTEM.CONST>
0

>  <SCORE.SYSTEM.DIHEDRAL>
0

>  <SCORE.SYSTEM.SOLV>
0

>  <SCORE.SYSTEM.norm>
0

>  <SCORE.heavy>
10

>  <SCORE.norm>
-1.81176

>  <RMSD>
0.734

$$$$
ligand
 OpenBabel11021811423D
libRbt.so/2013.1/901 2013/11/27
 10 11  0  0  0  0  0  0  0  0999 V2000
   11.4707    9.5086   29.4852 N   0  0  0  0  0  0  0  0  0  0  0  0
   11.3470   10.8722   29.2825 C   0  0  0  0  0  0  0  0  0  0  0  0
   11.1281   11.3894   28.0675 N   0  0  0  0  0  0  0  0  0  0  0  0
   11.0447   10.4361   27.0838 C   0  0  0  0  0  0  0  0  0  0  0  0
   11.1591    9.0722   27.2250 C   0  0  0  0  0  0  0  0  0  0  0  0
   11.3915    8.5120   28.5117 C   0  0  0  0  0  0  0  0  0  0  0  0
   11.5241    7.3305   28.8551 O   0  0  0  0  0  0  0  0  0  0  0  0
   11.0115    8.4928   25.9918 N   0  0  0  0  0  0  0  0  0  0  0  0
   10.8084    9.4950   25.1155 C   0  0  0  0  0  0  0  0  0  0  0  0
   10.8248   10.7080   25.7568 N   0  0  0  0  0  0  0  0  0  0  0  0
  1  2  1  0  0  0  0
  1  6  1  0  0  0  0
  2  3  2  0  0  0  0
  3  4  1  0  0  0  0
  4  5  2  0  0  0  0
  4 10  1  0  0  0  0
  5  6  1  0  0  0  0
  5  8  1  0  0  0  0
  6  7  2  0  0  0  0
  8  9  1  0  0  0  0
  9 10  2  0  0  0  0
M  END
>  <CHROM.1>
11.17789627,9.54047540,27.56444881,0.11927445,-1.40616352,0.42288396

>  <Name>
ligand

>  <RI>
0

>  <Rbt.Current_Directory>
/home/itssahil/PROJECTS/Mol_Feturizer/New_Systems/rnas/2EET

>  <Rbt.Executable>
rbdock ($Id: //depot/dev/client3/rdock/2013.1/src/exe/rbdock.cxx#4 $)

>  <Rbt.Library>
libRbt.so (2013.1, Build901 2013/11/27)

>  <Rbt.Parameter_File>
/export/apps/rDock/src/rDock_2013.1_src/data/scripts/dock_solv.prm

>  <Rbt.Receptor>
prm/pocket_docking_4.prm

>  <SCORE>
-18.078

>  <SCORE.INTER>
-18.078

>  <SCORE.INTER.CONST>
1

>  <SCORE.INTER.POLAR>
0

>  <SCORE.INTER.ROT>
0

>  <SCORE.INTER.SOLV>
4.23556

>  <SCORE.INTER.VDW>
-17.0638

>  <SCORE.INTER.norm>
-1.8078

>  <SCORE.INTRA>
0

>  <SCORE.INTRA.DIHEDRAL>
0

>  <SCORE.INTRA.DIHEDRAL.0>
0

>  <SCORE.INTRA.POLAR>
0

>  <SCORE.INTRA.POLAR.0>
0

>  <SCORE.INTRA.REPUL>
0

>  <SCORE.INTRA.REPUL.0>
0

>  <SCORE.INTRA.SOLV>
0

>  <SCORE.INTRA.SOLV.lig_0>
-4.28464

>  <SCORE.INTRA.VDW>
0

>  <SCORE.INTRA.VDW.0>
0

>  <SCORE.INTRA.norm>
0

>  <SCORE.RESTR>
0

>  <SCORE.RESTR.CAVITY>
0

>  <SCORE.RESTR.norm>
0

>  <SCORE.SYSTEM>
0

>  <SCORE.SYSTEM.CONST>
0

>  <SCORE.SYSTEM.DIHEDRAL>
0

>  <SCORE.SYSTEM.SOLV>
0

>  <SCORE.SYSTEM.norm>
0

>  <SCORE.heavy>
10

>  <SCORE.norm>
-1.8078

>  <RMSD>
0.735

$$$$
ligand
 OpenBabel11021811423D
libRbt.so/2013.1/901 2013/11/27
 10 11  0  0  0  0  0  0  0  0999 V2000
   11.4605    9.5095   29.5206 N   0  0  0  0  0  0  0  0  0  0  0  0
   11.3499   10.8708   29.2964 C   0  0  0  0  0  0  0  0  0  0  0  0
   11.1394   11.3710   28.0728 N   0  0  0  0  0  0  0  0  0  0  0  0
   11.0501   10.4032   27.1038 C   0  0  0  0  0  0  0  0  0  0  0  0
   11.1516    9.0407   27.2666 C   0  0  0  0  0  0  0  0  0  0  0  0
   11.3752    8.4986   28.5626 C   0  0  0  0  0  0  0  0  0  0  0  0
   11.4959    7.3214   28.9248 O   0  0  0  0  0  0  0  0  0  0  0  0
   11.0024    8.4435   26.0421 N   0  0  0  0  0  0  0  0  0  0  0  0
   10.8111    9.4337   25.1497 C   0  0  0  0  0  0  0  0  0  0  0  0
   10.8367   10.6563   25.7720 N   0  0  0  0  0  0  0  0  0  0  0  0
  1  2  1  0  0  0  0
  1  6  1  0  0  0  0
  2  3  2  0  0  0  0
  3  4  1  0  0  0  0
  4  5  2  0  0  0  0
  4 10  1  0  0  0  0
  5  6  1  0  0  0  0
  5  8  1  0  0  0  0
  6  7  2  0  0  0  0
  8  9  1  0  0  0  0
  9 10  2  0  0  0  0
M  END
>  <CHROM.1>
11.17373029,9.51403449,27.59875969,0.07407158,-1.41245247,0.36265717

>  <Name>
ligand

>  <RI>
0

>  <Rbt.Current_Directory>
/home/itssahil/PROJECTS/Mol_Feturizer/New_Systems/rnas/2EET

>  <Rbt.Executable>
rbdock ($Id: //depot/dev/client3/rdock/2013.1/src/exe/rbdock.cxx#4 $)

>  <Rbt.Library>
libRbt.so (2013.1, Build901 2013/11/27)

>  <Rbt.Parameter_File>
/export/apps/rDock/src/rDock_2013.1_src/data/scripts/dock_solv.prm

>  <Rbt.Receptor>
prm/blind_docking_40.prm

>  <SCORE>
-18.1146

>  <SCORE.INTER>
-18.118

>  <SCORE.INTER.CONST>
1

>  <SCORE.INTER.POLAR>
0

>  <SCORE.INTER.ROT>
0

>  <SCORE.INTER.SOLV>
4.31544

>  <SCORE.INTER.VDW>
-17.1172

>  <SCORE.INTER.norm>
-1.8118

>  <SCORE.INTRA>
0

>  <SCORE.INTRA.DIHEDRAL>
0

>  <SCORE.INTRA.DIHEDRAL.0>
0

>  <SCORE.INTRA.POLAR>
0

>  <SCORE.INTRA.POLAR.0>
0

>  <SCORE.INTRA.REPUL>
0

>  <SCORE.INTRA.REPUL.0>
0

>  <SCORE.INTRA.SOLV>
0

>  <SCORE.INTRA.SOLV.lig_0>
-4.28464

>  <SCORE.INTRA.VDW>
0

>  <SCORE.INTRA.VDW.0>
0

>  <SCORE.INTRA.norm>
0

>  <SCORE.RESTR>
0.00343164

>  <SCORE.RESTR.CAVITY>
0.00343164

>  <SCORE.RESTR.norm>
0.000343164

>  <SCORE.SYSTEM>
0

>  <SCORE.SYSTEM.CONST>
0

>  <SCORE.SYSTEM.DIHEDRAL>
0

>  <SCORE.SYSTEM.SOLV>
0

>  <SCORE.SYSTEM.norm>
0

>  <SCORE.heavy>
10

>  <SCORE.norm>
-1.81146

>  <RMSD>
0.736

$$$$
ligand
 OpenBabel11021811423D
libRbt.so/2013.1/901 2013/11/27
 10 11  0  0  0  0  0  0  0  0999 V2000
   11.4494    9.5107   29.5280 N   0  0  0  0  0  0  0  0  0  0  0  0
   11.3415   10.8723   29.3045 C   0  0  0  0  0  0  0  0  0  0  0  0
   11.1335   11.3737   28.0809 N   0  0  0  0  0  0  0  0  0  0  0  0
   11.0437   10.4067   27.1112 C   0  0  0  0  0  0  0  0  0  0  0  0
   11.1426    9.0440   27.2732 C   0  0  0  0  0  0  0  0  0  0  0  0
   11.3635    8.5005   28.5691 C   0  0  0  0  0  0  0  0  0  0  0  0
   11.4817    7.3229   28.9306 O   0  0  0  0  0  0  0  0  0  0  0  0
   10.9939    8.4479   26.0481 N   0  0  0  0  0  0  0  0  0  0  0  0
   10.8055    9.4390   25.1561 C   0  0  0  0  0  0  0  0  0  0  0  0
   10.8325   10.6611   25.7793 N   0  0  0  0  0  0  0  0  0  0  0  0
  1  2  1  0  0  0  0
  1  6  1  0  0  0  0
  2  3  2  0  0  0  0
  3  4  1  0  0  0  0
  4  5  2  0  0  0  0
  4 10  1  0  0  0  0
  5  6  1  0  0  0  0
  5  8  1  0  0  0  0
  6  7  2  0  0  0  0
  8  9  1  0  0  0  0
  9 10  2  0  0  0  0
M  END
>  <CHROM.1>
11.16511578,9.51701054,27.60570842,0.06634700,-1.41429635,0.35570806

>  <Name>
ligand

>  <RI>
0

>  <Rbt.Current_Directory>
/home/itssahil/PROJECTS/Mol_Feturizer/New_Systems/rnas/2EET

>  <Rbt.Executable>
rbdock ($Id: //depot/dev/client3/rdock/2013.1/src/exe/rbdock.cxx#4 $)

>  <Rbt.Library>
libRbt.so (2013.1, Build901 2013/11/27)

>  <Rbt.Parameter_File>
/export/apps/rDock/src/rDock_2013.1_src/data/scripts/dock_solv.prm

>  <Rbt.Receptor>
prm/pocket_docking_7.prm

>  <SCORE>
-18.0675

>  <SCORE.INTER>
-18.0675

>  <SCORE.INTER.CONST>
1

>  <SCORE.INTER.POLAR>
0

>  <SCORE.INTER.ROT>
0

>  <SCORE.INTER.SOLV>
4.33732

>  <SCORE.INTER.VDW>
-17.0908

>  <SCORE.INTER.norm>
-1.80675

>  <SCORE.INTRA>
0

>  <SCORE.INTRA.DIHEDRAL>
0

>  <SCORE.INTRA.DIHEDRAL.0>
0

>  <SCORE.INTRA.POLAR>
0

>  <SCORE.INTRA.POLAR.0>
0

>  <SCORE.INTRA.REPUL>
0

>  <SCORE.INTRA.REPUL.0>
0

>  <SCORE.INTRA.SOLV>
0

>  <SCORE.INTRA.SOLV.lig_0>
-4.28464

>  <SCORE.INTRA.VDW>
0

>  <SCORE.INTRA.VDW.0>
0

>  <SCORE.INTRA.norm>
0

>  <SCORE.RESTR>
0

>  <SCORE.RESTR.CAVITY>
0

>  <SCORE.RESTR.norm>
0

>  <SCORE.SYSTEM>
0

>  <SCORE.SYSTEM.CONST>
0

>  <SCORE.SYSTEM.DIHEDRAL>
0

>  <SCORE.SYSTEM.SOLV>
0

>  <SCORE.SYSTEM.norm>
0

>  <SCORE.heavy>
10

>  <SCORE.norm>
-1.80675

>  <RMSD>
0.737

$$$$
ligand
 OpenBabel11021811423D
libRbt.so/2013.1/901 2013/11/27
 10 11  0  0  0  0  0  0  0  0999 V2000
   11.4409    9.5101   29.5336 N   0  0  0  0  0  0  0  0  0  0  0  0
   11.3511   10.8731   29.3104 C   0  0  0  0  0  0  0  0  0  0  0  0
   11.1474   11.3774   28.0873 N   0  0  0  0  0  0  0  0  0  0  0  0
   11.0426   10.4118   27.1177 C   0  0  0  0  0  0  0  0  0  0  0  0
   11.1232    9.0478   27.2795 C   0  0  0  0  0  0  0  0  0  0  0  0
   11.3393    8.5013   28.5749 C   0  0  0  0  0  0  0  0  0  0  0  0
   11.4422    7.3221   28.9361 O   0  0  0  0  0  0  0  0  0  0  0  0
   10.9640    8.4538   26.0547 N   0  0  0  0  0  0  0  0  0  0  0  0
   10.7872    9.4475   25.1631 C   0  0  0  0  0  0  0  0  0  0  0  0
   10.8321   10.6691   25.7862 N   0  0  0  0  0  0  0  0  0  0  0  0
  1  2  1  0  0  0  0
  1  6  1  0  0  0  0
  2  3  2  0  0  0  0
  3  4  1  0  0  0  0
  4  5  2  0  0  0  0
  4 10  1  0  0  0  0
  5  6  1  0  0  0  0
  5  8  1  0  0  0  0
  6  7  2  0  0  0  0
  8  9  1  0  0  0  0
  9 10  2  0  0  0  0
M  END
>  <CHROM.1>
11.15284161,9.52043394,27.61194499,-0.02130417,-1.41654184,0.26916777

>  <Name>
ligand

>  <RI>
0

>  <Rbt.Current_Directory>
/home/itssahil/PROJECTS/Mol_Feturizer/New_Systems/rnas/2EET

>  <Rbt.Executable>
rbdock ($Id: //depot/dev/client3/rdock/2013.1/src/exe/rbdock.cxx#4 $)

>  <Rbt.Library>
libRbt.so (2013.1, Build901 2013/11/27)

>  <Rbt.Parameter_File>
/export/apps/rDock/src/rDock_2013.1_src/data/scripts/dock_solv.prm

>  <Rbt.Receptor>
prm/pocket_docking_3.prm

>  <SCORE>
-17.9856

>  <SCORE.INTER>
-17.9968

>  <SCORE.INTER.CONST>
1

>  <SCORE.INTER.POLAR>
0

>  <SCORE.INTER.ROT>
0

>  <SCORE.INTER.SOLV>
4.39371

>  <SCORE.INTER.VDW>
-17.0625

>  <SCORE.INTER.norm>
-1.79968

>  <SCORE.INTRA>
0

>  <SCORE.INTRA.DIHEDRAL>
0

>  <SCORE.INTRA.DIHEDRAL.0>
0

>  <SCORE.INTRA.POLAR>
0

>  <SCORE.INTRA.POLAR.0>
0

>  <SCORE.INTRA.REPUL>
0

>  <SCORE.INTRA.REPUL.0>
0

>  <SCORE.INTRA.SOLV>
0

>  <SCORE.INTRA.SOLV.lig_0>
-4.28464

>  <SCORE.INTRA.VDW>
0

>  <SCORE.INTRA.VDW.0>
0

>  <SCORE.INTRA.norm>
0

>  <SCORE.RESTR>
0.0112499

>  <SCORE.RESTR.CAVITY>
0.0112499

>  <SCORE.RESTR.norm>
0.00112499

>  <SCORE.SYSTEM>
0

>  <SCORE.SYSTEM.CONST>
0

>  <SCORE.SYSTEM.DIHEDRAL>
0

>  <SCORE.SYSTEM.SOLV>
0

>  <SCORE.SYSTEM.norm>
0

>  <SCORE.heavy>
10

>  <SCORE.norm>
-1.79856

>  <RMSD>
0.741

$$$$
ligand
 OpenBabel11021811423D
libRbt.so/2013.1/901 2013/11/27
 10 11  0  0  0  0  0  0  0  0999 V2000
   11.4376    9.5146   29.5294 N   0  0  0  0  0  0  0  0  0  0  0  0
   11.3295   10.8758   29.3034 C   0  0  0  0  0  0  0  0  0  0  0  0
   11.1330   11.3756   28.0773 N   0  0  0  0  0  0  0  0  0  0  0  0
   11.0549   10.4074   27.1077 C   0  0  0  0  0  0  0  0  0  0  0  0
   11.1546    9.0450   27.2722 C   0  0  0  0  0  0  0  0  0  0  0  0
   11.3633    8.5033   28.5708 C   0  0  0  0  0  0  0  0  0  0  0  0
   11.4799    7.3263   28.9348 O   0  0  0  0  0  0  0  0  0  0  0  0
   11.0195    8.4473   26.0463 N   0  0  0  0  0  0  0  0  0  0  0  0
   10.8383    9.4372   25.1513 C   0  0  0  0  0  0  0  0  0  0  0  0
   10.8568   10.6600   25.7734 N   0  0  0  0  0  0  0  0  0  0  0  0
  1  2  1  0  0  0  0
  1  6  1  0  0  0  0
  2  3  2  0  0  0  0
  3  4  1  0  0  0  0
  4  5  2  0  0  0  0
  4 10  1  0  0  0  0
  5  6  1  0  0  0  0
  5  8  1  0  0  0  0
  6  7  2  0  0  0  0
  8  9  1  0  0  0  0
  9 10  2  0  0  0  0
M  END
>  <CHROM.1>
11.17286357,9.51841697,27.60436287,0.10189653,-1.42311140,0.38979083

>  <Name>
ligand

>  <RI>
0

>  <Rbt.Current_Directory>
/home/itssahil/PROJECTS/Mol_Feturizer/New_Systems/rnas/2EET

>  <Rbt.Executable>
rbdock ($Id: //depot/dev/client3/rdock/2013.1/src/exe/rbdock.cxx#4 $)

>  <Rbt.Library>
libRbt.so (2013.1, Build901 2013/11/27)

>  <Rbt.Parameter_File>
/export/apps/rDock/src/rDock_2013.1_src/data/scripts/dock_solv.prm

>  <Rbt.Receptor>
prm/pocket_docking_4.prm

>  <SCORE>
-18.1008

>  <SCORE.INTER>
-18.1008

>  <SCORE.INTER.CONST>
1

>  <SCORE.INTER.POLAR>
0

>  <SCORE.INTER.ROT>
0

>  <SCORE.INTER.SOLV>
4.34801

>  <SCORE.INTER.VDW>
-17.1166

>  <SCORE.INTER.norm>
-1.81008

>  <SCORE.INTRA>
0

>  <SCORE.INTRA.DIHEDRAL>
0

>  <SCORE.INTRA.DIHEDRAL.0>
0

>  <SCORE.INTRA.POLAR>
0

>  <SCORE.INTRA.POLAR.0>
0

>  <SCORE.INTRA.REPUL>
0

>  <SCORE.INTRA.REPUL.0>
0

>  <SCORE.INTRA.SOLV>
0

>  <SCORE.INTRA.SOLV.lig_0>
-4.28464

>  <SCORE.INTRA.VDW>
0

>  <SCORE.INTRA.VDW.0>
0

>  <SCORE.INTRA.norm>
0

>  <SCORE.RESTR>
0

>  <SCORE.RESTR.CAVITY>
0

>  <SCORE.RESTR.norm>
0

>  <SCORE.SYSTEM>
0

>  <SCORE.SYSTEM.CONST>
0

>  <SCORE.SYSTEM.DIHEDRAL>
0

>  <SCORE.SYSTEM.SOLV>
0

>  <SCORE.SYSTEM.norm>
0

>  <SCORE.heavy>
10

>  <SCORE.norm>
-1.81008

>  <RMSD>
0.741

$$$$
ligand
 OpenBabel11021811423D
libRbt.so/2013.1/901 2013/11/27
 10 11  0  0  0  0  0  0  0  0999 V2000
   11.4378    9.5178   29.5272 N   0  0  0  0  0  0  0  0  0  0  0  0
   11.3212   10.8778   29.2981 C   0  0  0  0  0  0  0  0  0  0  0  0
   11.1159   11.3732   28.0717 N   0  0  0  0  0  0  0  0  0  0  0  0
   11.0381   10.4021   27.1050 C   0  0  0  0  0  0  0  0  0  0  0  0
   11.1459    9.0407   27.2726 C   0  0  0  0  0  0  0  0  0  0  0  0
   11.3640    8.5036   28.5717 C   0  0  0  0  0  0  0  0  0  0  0  0
   11.4888    7.3282   28.9381 O   0  0  0  0  0  0  0  0  0  0  0  0
   11.0078    8.4390   26.0490 N   0  0  0  0  0  0  0  0  0  0  0  0
   10.8169    9.4255   25.1524 C   0  0  0  0  0  0  0  0  0  0  0  0
   10.8319   10.6501   25.7711 N   0  0  0  0  0  0  0  0  0  0  0  0
  1  2  1  0  0  0  0
  1  6  1  0  0  0  0
  2  3  2  0  0  0  0
  3  4  1  0  0  0  0
  4  5  2  0  0  0  0
  4 10  1  0  0  0  0
  5  6  1  0  0  0  0
  5  8  1  0  0  0  0
  6  7  2  0  0  0  0
  8  9  1  0  0  0  0
  9 10  2  0  0  0  0
M  END
>  <CHROM.1>
11.16333087,9.51506998,27.60347550,0.12181090,-1.41638005,0.40682277

>  <Name>
ligand

>  <RI>
0

>  <Rbt.Current_Directory>
/home/itssahil/PROJECTS/Mol_Feturizer/New_Systems/rnas/2EET

>  <Rbt.Executable>
rbdock ($Id: //depot/dev/client3/rdock/2013.1/src/exe/rbdock.cxx#4 $)

>  <Rbt.Library>
libRbt.so (2013.1, Build901 2013/11/27)

>  <Rbt.Parameter_File>
/export/apps/rDock/src/rDock_2013.1_src/data/scripts/dock_solv.prm

>  <Rbt.Receptor>
prm/pocket_docking_3.prm

>  <SCORE>
-18.0504

>  <SCORE.INTER>
-18.0504

>  <SCORE.INTER.CONST>
1

>  <SCORE.INTER.POLAR>
0

>  <SCORE.INTER.ROT>
0

>  <SCORE.INTER.SOLV>
4.33198

>  <SCORE.INTER.VDW>
-17.0776

>  <SCORE.INTER.norm>
-1.80504

>  <SCORE.INTRA>
0

>  <SCORE.INTRA.DIHEDRAL>
0

>  <SCORE.INTRA.DIHEDRAL.0>
0

>  <SCORE.INTRA.POLAR>
0

>  <SCORE.INTRA.POLAR.0>
0

>  <SCORE.INTRA.REPUL>
0

>  <SCORE.INTRA.REPUL.0>
0

>  <SCORE.INTRA.SOLV>
0

>  <SCORE.INTRA.SOLV.lig_0>
-4.28464

>  <SCORE.INTRA.VDW>
0

>  <SCORE.INTRA.VDW.0>
0

>  <SCORE.INTRA.norm>
0

>  <SCORE.RESTR>
0

>  <SCORE.RESTR.CAVITY>
0

>  <SCORE.RESTR.norm>
0

>  <SCORE.SYSTEM>
0

>  <SCORE.SYSTEM.CONST>
0

>  <SCORE.SYSTEM.DIHEDRAL>
0

>  <SCORE.SYSTEM.SOLV>
0

>  <SCORE.SYSTEM.norm>
0

>  <SCORE.heavy>
10

>  <SCORE.norm>
-1.80504

>  <RMSD>
0.743

$$$$
ligand
 OpenBabel11021811423D
libRbt.so/2013.1/901 2013/11/27
 10 11  0  0  0  0  0  0  0  0999 V2000
   11.4506    9.5446   29.5273 N   0  0  0  0  0  0  0  0  0  0  0  0
   11.3281   10.9040   29.2979 C   0  0  0  0  0  0  0  0  0  0  0  0
   11.1241   11.3985   28.0708 N   0  0  0  0  0  0  0  0  0  0  0  0
   11.0541   10.4270   27.1039 C   0  0  0  0  0  0  0  0  0  0  0  0
   11.1681    9.0662   27.2718 C   0  0  0  0  0  0  0  0  0  0  0  0
   11.3848    8.5301   28.5715 C   0  0  0  0  0  0  0  0  0  0  0  0
   11.5142    7.3553   28.9383 O   0  0  0  0  0  0  0  0  0  0  0  0
   11.0367    8.4639   26.0477 N   0  0  0  0  0  0  0  0  0  0  0  0
   10.8437    9.4495   25.1506 C   0  0  0  0  0  0  0  0  0  0  0  0
   10.8508   10.6741   25.7694 N   0  0  0  0  0  0  0  0  0  0  0  0
  1  2  1  0  0  0  0
  1  6  1  0  0  0  0
  2  3  2  0  0  0  0
  3  4  1  0  0  0  0
  4  5  2  0  0  0  0
  4 10  1  0  0  0  0
  5  6  1  0  0  0  0
  5  8  1  0  0  0  0
  6  7  2  0  0  0  0
  8  9  1  0  0  0  0
  9 10  2  0  0  0  0
M  END
>  <CHROM.1>
11.18213209,9.54061151,27.60273133,0.15926845,-1.41716360,0.44388170

>  <Name>
ligand

>  <RI>
0

>  <Rbt.Current_Directory>
/home/itssahil/PROJECTS/Mol_Feturizer/New_Systems/rnas/2EET

>  <Rbt.Executable>
rbdock ($Id: //depot/dev/client3/rdock/2013.1/src/exe/rbdock.cxx#4 $)

>  <Rbt.Library>
libRbt.so (2013.1, Build901 2013/11/27)

>  <Rbt.Parameter_File>
/export/apps/rDock/src/rDock_2013.1_src/data/scripts/dock_solv.prm

>  <Rbt.Receptor>
prm/blind_docking_60.prm

>  <SCORE>
-18.0118

>  <SCORE.INTER>
-18.0118

>  <SCORE.INTER.CONST>
1

>  <SCORE.INTER.POLAR>
0

>  <SCORE.INTER.ROT>
0

>  <SCORE.INTER.SOLV>
4.30155

>  <SCORE.INTER.VDW>
-17.0417

>  <SCORE.INTER.norm>
-1.80118

>  <SCORE.INTRA>
0

>  <SCORE.INTRA.DIHEDRAL>
0

>  <SCORE.INTRA.DIHEDRAL.0>
0

>  <SCORE.INTRA.POLAR>
0

>  <SCORE.INTRA.POLAR.0>
0

>  <SCORE.INTRA.REPUL>
0

>  <SCORE.INTRA.REPUL.0>
0

>  <SCORE.INTRA.SOLV>
0

>  <SCORE.INTRA.SOLV.lig_0>
-4.28464

>  <SCORE.INTRA.VDW>
0

>  <SCORE.INTRA.VDW.0>
0

>  <SCORE.INTRA.norm>
0

>  <SCORE.RESTR>
0

>  <SCORE.RESTR.CAVITY>
0

>  <SCORE.RESTR.norm>
0

>  <SCORE.SYSTEM>
0

>  <SCORE.SYSTEM.CONST>
0

>  <SCORE.SYSTEM.DIHEDRAL>
0

>  <SCORE.SYSTEM.SOLV>
0

>  <SCORE.SYSTEM.norm>
0

>  <SCORE.heavy>
10

>  <SCORE.norm>
-1.80118

>  <RMSD>
0.745

$$$$
ligand
 OpenBabel11021811423D
libRbt.so/2013.1/901 2013/11/27
 10 11  0  0  0  0  0  0  0  0999 V2000
   11.4456    9.5281   29.4844 N   0  0  0  0  0  0  0  0  0  0  0  0
   11.3094   10.8900   29.2789 C   0  0  0  0  0  0  0  0  0  0  0  0
   11.0978   11.4037   28.0611 N   0  0  0  0  0  0  0  0  0  0  0  0
   11.0351   10.4484   27.0776 C   0  0  0  0  0  0  0  0  0  0  0  0
   11.1627    9.0861   27.2216 C   0  0  0  0  0  0  0  0  0  0  0  0
   11.3876    8.5297   28.5114 C   0  0  0  0  0  0  0  0  0  0  0  0
   11.5292    7.3500   28.8575 O   0  0  0  0  0  0  0  0  0  0  0  0
   11.0345    8.5038   25.9876 N   0  0  0  0  0  0  0  0  0  0  0  0
   10.8299    9.5029   25.1080 C   0  0  0  0  0  0  0  0  0  0  0  0
   10.8264   10.7166   25.7480 N   0  0  0  0  0  0  0  0  0  0  0  0
  1  2  1  0  0  0  0
  1  6  1  0  0  0  0
  2  3  2  0  0  0  0
  3  4  1  0  0  0  0
  4  5  2  0  0  0  0
  4 10  1  0  0  0  0
  5  6  1  0  0  0  0
  5  8  1  0  0  0  0
  6  7  2  0  0  0  0
  8  9  1  0  0  0  0
  9 10  2  0  0  0  0
M  END
>  <CHROM.1>
11.17287328,9.55482546,27.56070224,0.20844545,-1.41076233,0.50978538

>  <Name>
ligand

>  <RI>
0

>  <Rbt.Current_Directory>
/home/itssahil/PROJECTS/Mol_Feturizer/New_Systems/rnas/2EET

>  <Rbt.Executable>
rbdock ($Id: //depot/dev/client3/rdock/2013.1/src/exe/rbdock.cxx#4 $)

>  <Rbt.Library>
libRbt.so (2013.1, Build901 2013/11/27)

>  <Rbt.Parameter_File>
/export/apps/rDock/src/rDock_2013.1_src/data/scripts/dock_solv.prm

>  <Rbt.Receptor>
prm/pocket_docking_4.prm

>  <SCORE>
-18.0053

>  <SCORE.INTER>
-18.0053

>  <SCORE.INTER.CONST>
1

>  <SCORE.INTER.POLAR>
0

>  <SCORE.INTER.ROT>
0

>  <SCORE.INTER.SOLV>
4.22748

>  <SCORE.INTER.VDW>
-17.0127

>  <SCORE.INTER.norm>
-1.80053

>  <SCORE.INTRA>
0

>  <SCORE.INTRA.DIHEDRAL>
0

>  <SCORE.INTRA.DIHEDRAL.0>
0

>  <SCORE.INTRA.POLAR>
0

>  <SCORE.INTRA.POLAR.0>
0

>  <SCORE.INTRA.REPUL>
0

>  <SCORE.INTRA.REPUL.0>
0

>  <SCORE.INTRA.SOLV>
0

>  <SCORE.INTRA.SOLV.lig_0>
-4.28464

>  <SCORE.INTRA.VDW>
0

>  <SCORE.INTRA.VDW.0>
0

>  <SCORE.INTRA.norm>
0

>  <SCORE.RESTR>
0

>  <SCORE.RESTR.CAVITY>
0

>  <SCORE.RESTR.norm>
0

>  <SCORE.SYSTEM>
0

>  <SCORE.SYSTEM.CONST>
0

>  <SCORE.SYSTEM.DIHEDRAL>
0

>  <SCORE.SYSTEM.SOLV>
0

>  <SCORE.SYSTEM.norm>
0

>  <SCORE.heavy>
10

>  <SCORE.norm>
-1.80053

>  <RMSD>
0.748

$$$$
ligand
 OpenBabel11021811423D
libRbt.so/2013.1/901 2013/11/27
 10 11  0  0  0  0  0  0  0  0999 V2000
   11.4139    9.5319   29.5300 N   0  0  0  0  0  0  0  0  0  0  0  0
   11.3046   10.8921   29.2986 C   0  0  0  0  0  0  0  0  0  0  0  0
   11.1104   11.3869   28.0701 N   0  0  0  0  0  0  0  0  0  0  0  0
   11.0359   10.4150   27.1040 C   0  0  0  0  0  0  0  0  0  0  0  0
   11.1370    9.0534   27.2739 C   0  0  0  0  0  0  0  0  0  0  0  0
   11.3432    8.5169   28.5751 C   0  0  0  0  0  0  0  0  0  0  0  0
   11.4605    7.3414   28.9437 O   0  0  0  0  0  0  0  0  0  0  0  0
   11.0056    8.4509   26.0499 N   0  0  0  0  0  0  0  0  0  0  0  0
   10.8253    9.4372   25.1508 C   0  0  0  0  0  0  0  0  0  0  0  0
   10.8406   10.6624   25.7684 N   0  0  0  0  0  0  0  0  0  0  0  0
  1  2  1  0  0  0  0
  1  6  1  0  0  0  0
  2  3  2  0  0  0  0
  3  4  1  0  0  0  0
  4  5  2  0  0  0  0
  4 10  1  0  0  0  0
  5  6  1  0  0  0  0
  5  8  1  0  0  0  0
  6  7  2  0  0  0  0
  8  9  1  0  0  0  0
  9 10  2  0  0  0  0
M  END
>  <CHROM.1>
11.15382483,9.52808492,27.60433354,0.11663076,-1.42481352,0.40060804

>  <Name>
ligand

>  <RI>
0

>  <Rbt.Current_Directory>
/home/itssahil/PROJECTS/Mol_Feturizer/New_Systems/rnas/2EET

>  <Rbt.Executable>
rbdock ($Id: //depot/dev/client3/rdock/2013.1/src/exe/rbdock.cxx#4 $)

>  <Rbt.Library>
libRbt.so (2013.1, Build901 2013/11/27)

>  <Rbt.Parameter_File>
/export/apps/rDock/src/rDock_2013.1_src/data/scripts/dock_solv.prm

>  <Rbt.Receptor>
prm/pocket_docking_4.prm

>  <SCORE>
-18.0847

>  <SCORE.INTER>
-18.0847

>  <SCORE.INTER.CONST>
1

>  <SCORE.INTER.POLAR>
0

>  <SCORE.INTER.ROT>
0

>  <SCORE.INTER.SOLV>
4.37539

>  <SCORE.INTER.VDW>
-17.1149

>  <SCORE.INTER.norm>
-1.80847

>  <SCORE.INTRA>
0

>  <SCORE.INTRA.DIHEDRAL>
0

>  <SCORE.INTRA.DIHEDRAL.0>
0

>  <SCORE.INTRA.POLAR>
0

>  <SCORE.INTRA.POLAR.0>
0

>  <SCORE.INTRA.REPUL>
0

>  <SCORE.INTRA.REPUL.0>
0

>  <SCORE.INTRA.SOLV>
0

>  <SCORE.INTRA.SOLV.lig_0>
-4.28464

>  <SCORE.INTRA.VDW>
0

>  <SCORE.INTRA.VDW.0>
0

>  <SCORE.INTRA.norm>
0

>  <SCORE.RESTR>
0

>  <SCORE.RESTR.CAVITY>
0

>  <SCORE.RESTR.norm>
0

>  <SCORE.SYSTEM>
0

>  <SCORE.SYSTEM.CONST>
0

>  <SCORE.SYSTEM.DIHEDRAL>
0

>  <SCORE.SYSTEM.SOLV>
0

>  <SCORE.SYSTEM.norm>
0

>  <SCORE.heavy>
10

>  <SCORE.norm>
-1.80847

>  <RMSD>
0.756

$$$$
ligand
 OpenBabel11021811423D
libRbt.so/2013.1/901 2013/11/27
 10 11  0  0  0  0  0  0  0  0999 V2000
   11.4121    9.5329   29.5283 N   0  0  0  0  0  0  0  0  0  0  0  0
   11.3089   10.8934   29.2957 C   0  0  0  0  0  0  0  0  0  0  0  0
   11.1198   11.3882   28.0665 N   0  0  0  0  0  0  0  0  0  0  0  0
   11.0436   10.4159   27.1008 C   0  0  0  0  0  0  0  0  0  0  0  0
   11.1387    9.0540   27.2719 C   0  0  0  0  0  0  0  0  0  0  0  0
   11.3396    8.5175   28.5739 C   0  0  0  0  0  0  0  0  0  0  0  0
   11.4512    7.3418   28.9437 O   0  0  0  0  0  0  0  0  0  0  0  0
   11.0078    8.4512   26.0480 N   0  0  0  0  0  0  0  0  0  0  0  0
   10.8337    9.4376   25.1478 C   0  0  0  0  0  0  0  0  0  0  0  0
   10.8526   10.6631   25.7645 N   0  0  0  0  0  0  0  0  0  0  0  0
  1  2  1  0  0  0  0
  1  6  1  0  0  0  0
  2  3  2  0  0  0  0
  3  4  1  0  0  0  0
  4  5  2  0  0  0  0
  4 10  1  0  0  0  0
  5  6  1  0  0  0  0
  5  8  1  0  0  0  0
  6  7  2  0  0  0  0
  8  9  1  0  0  0  0
  9 10  2  0  0  0  0
M  END
>  <CHROM.1>
11.15668212,9.52883709,27.60204704,0.09663585,-1.42860900,0.38012275

>  <Name>
ligand

>  <RI>
0

>  <Rbt.Current_Directory>
/home/itssahil/PROJECTS/Mol_Feturizer/New_Systems/rnas/2EET

>  <Rbt.Executable>
rbdock ($Id: //depot/dev/client3/rdock/2013.1/src/exe/rbdock.cxx#4 $)

>  <Rbt.Library>
libRbt.so (2013.1, Build901 2013/11/27)

>  <Rbt.Parameter_File>
/export/apps/rDock/src/rDock_2013.1_src/data/scripts/dock_solv.prm

>  <Rbt.Receptor>
prm/pocket_docking_6.prm

>  <SCORE>
-18.0882

>  <SCORE.INTER>
-18.0882

>  <SCORE.INTER.CONST>
1

>  <SCORE.INTER.POLAR>
0

>  <SCORE.INTER.ROT>
0

>  <SCORE.INTER.SOLV>
4.39024

>  <SCORE.INTER.VDW>
-17.1222

>  <SCORE.INTER.norm>
-1.80882

>  <SCORE.INTRA>
0

>  <SCORE.INTRA.DIHEDRAL>
0

>  <SCORE.INTRA.DIHEDRAL.0>
0

>  <SCORE.INTRA.POLAR>
0

>  <SCORE.INTRA.POLAR.0>
0

>  <SCORE.INTRA.REPUL>
0

>  <SCORE.INTRA.REPUL.0>
0

>  <SCORE.INTRA.SOLV>
0

>  <SCORE.INTRA.SOLV.lig_0>
-4.28464

>  <SCORE.INTRA.VDW>
0

>  <SCORE.INTRA.VDW.0>
0

>  <SCORE.INTRA.norm>
0

>  <SCORE.RESTR>
0

>  <SCORE.RESTR.CAVITY>
0

>  <SCORE.RESTR.norm>
0

>  <SCORE.SYSTEM>
0

>  <SCORE.SYSTEM.CONST>
0

>  <SCORE.SYSTEM.DIHEDRAL>
0

>  <SCORE.SYSTEM.SOLV>
0

>  <SCORE.SYSTEM.norm>
0

>  <SCORE.heavy>
10

>  <SCORE.norm>
-1.80882

>  <RMSD>
0.759

$$$$
ligand
 OpenBabel11021811423D
libRbt.so/2013.1/901 2013/11/27
 10 11  0  0  0  0  0  0  0  0999 V2000
   11.5053    8.7199   29.6663 N   0  0  0  0  0  0  0  0  0  0  0  0
   11.6489    7.5269   28.9793 C   0  0  0  0  0  0  0  0  0  0  0  0
   11.5227    7.4578   27.6485 N   0  0  0  0  0  0  0  0  0  0  0  0
   11.2437    8.6709   27.0706 C   0  0  0  0  0  0  0  0  0  0  0  0
   11.0904    9.8848   27.6999 C   0  0  0  0  0  0  0  0  0  0  0  0
   11.2225    9.9696   29.1137 C   0  0  0  0  0  0  0  0  0  0  0  0
   11.1247   10.9468   29.8668 O   0  0  0  0  0  0  0  0  0  0  0  0
   10.8208   10.8363   26.7510 N   0  0  0  0  0  0  0  0  0  0  0  0
   10.8131   10.2049   25.5616 C   0  0  0  0  0  0  0  0  0  0  0  0
   11.0689    8.8666   25.7236 N   0  0  0  0  0  0  0  0  0  0  0  0
  1  2  1  0  0  0  0
  1  6  1  0  0  0  0
  2  3  2  0  0  0  0
  3  4  1  0  0  0  0
  4  5  2  0  0  0  0
  4 10  1  0  0  0  0
  5  6  1  0  0  0  0
  5  8  1  0  0  0  0
  6  7  2  0  0  0  0
  8  9  1  0  0  0  0
  9 10  2  0  0  0  0
M  END
>  <CHROM.1>
11.20503793,9.33747368,27.84848148,-0.99213224,1.36586568,-2.09354563

>  <Name>
ligand

>  <RI>
0

>  <Rbt.Current_Directory>
/home/itssahil/PROJECTS/Mol_Feturizer/New_Systems/rnas/2EET

>  <Rbt.Executable>
rbdock ($Id: //depot/dev/client3/rdock/2013.1/src/exe/rbdock.cxx#4 $)

>  <Rbt.Library>
libRbt.so (2013.1, Build901 2013/11/27)

>  <Rbt.Parameter_File>
/export/apps/rDock/src/rDock_2013.1_src/data/scripts/dock_solv.prm

>  <Rbt.Receptor>
prm/blind_docking_80.prm

>  <SCORE>
-17.4249

>  <SCORE.INTER>
-17.4249

>  <SCORE.INTER.CONST>
1

>  <SCORE.INTER.POLAR>
0

>  <SCORE.INTER.ROT>
0

>  <SCORE.INTER.SOLV>
3.89785

>  <SCORE.INTER.VDW>
-16.5159

>  <SCORE.INTER.norm>
-1.74249

>  <SCORE.INTRA>
0

>  <SCORE.INTRA.DIHEDRAL>
0

>  <SCORE.INTRA.DIHEDRAL.0>
0

>  <SCORE.INTRA.POLAR>
0

>  <SCORE.INTRA.POLAR.0>
0

>  <SCORE.INTRA.REPUL>
0

>  <SCORE.INTRA.REPUL.0>
0

>  <SCORE.INTRA.SOLV>
0

>  <SCORE.INTRA.SOLV.lig_0>
-4.28464

>  <SCORE.INTRA.VDW>
0

>  <SCORE.INTRA.VDW.0>
0

>  <SCORE.INTRA.norm>
0

>  <SCORE.RESTR>
0

>  <SCORE.RESTR.CAVITY>
0

>  <SCORE.RESTR.norm>
0

>  <SCORE.SYSTEM>
0

>  <SCORE.SYSTEM.CONST>
0

>  <SCORE.SYSTEM.DIHEDRAL>
0

>  <SCORE.SYSTEM.SOLV>
0

>  <SCORE.SYSTEM.norm>
0

>  <SCORE.heavy>
10

>  <SCORE.norm>
-1.74249

>  <RMSD>
2.435

$$$$
ligand
 OpenBabel11021811423D
libRbt.so/2013.1/901 2013/11/27
 10 11  0  0  0  0  0  0  0  0999 V2000
   11.6336    8.6617   29.5466 N   0  0  0  0  0  0  0  0  0  0  0  0
   11.7676    7.4702   28.8553 C   0  0  0  0  0  0  0  0  0  0  0  0
   11.5998    7.3994   27.5292 N   0  0  0  0  0  0  0  0  0  0  0  0
   11.2899    8.6095   26.9606 C   0  0  0  0  0  0  0  0  0  0  0  0
   11.1441    9.8218   27.5947 C   0  0  0  0  0  0  0  0  0  0  0  0
   11.3203    9.9083   29.0035 C   0  0  0  0  0  0  0  0  0  0  0  0
   11.2363   10.8845   29.7594 O   0  0  0  0  0  0  0  0  0  0  0  0
   10.8345   10.7702   26.6549 N   0  0  0  0  0  0  0  0  0  0  0  0
   10.7955   10.1385   25.4663 C   0  0  0  0  0  0  0  0  0  0  0  0
   11.0703    8.8030   25.6199 N   0  0  0  0  0  0  0  0  0  0  0  0
  1  2  1  0  0  0  0
  1  6  1  0  0  0  0
  2  3  2  0  0  0  0
  3  4  1  0  0  0  0
  4  5  2  0  0  0  0
  4 10  1  0  0  0  0
  5  6  1  0  0  0  0
  5  8  1  0  0  0  0
  6  7  2  0  0  0  0
  8  9  1  0  0  0  0
  9 10  2  0  0  0  0
M  END
>  <CHROM.1>
11.26912343,9.27573660,27.73941102,-0.89413561,1.33985623,-2.18928194

>  <Name>
ligand

>  <RI>
0

>  <Rbt.Current_Directory>
/home/itssahil/PROJECTS/Mol_Feturizer/New_Systems/rnas/2EET

>  <Rbt.Executable>
rbdock ($Id: //depot/dev/client3/rdock/2013.1/src/exe/rbdock.cxx#4 $)

>  <Rbt.Library>
libRbt.so (2013.1, Build901 2013/11/27)

>  <Rbt.Parameter_File>
/export/apps/rDock/src/rDock_2013.1_src/data/scripts/dock_solv.prm

>  <Rbt.Receptor>
prm/pocket_docking_8.prm

>  <SCORE>
-17.4339

>  <SCORE.INTER>
-17.4339

>  <SCORE.INTER.CONST>
1

>  <SCORE.INTER.POLAR>
0

>  <SCORE.INTER.ROT>
0

>  <SCORE.INTER.SOLV>
3.78184

>  <SCORE.INTER.VDW>
-16.4832

>  <SCORE.INTER.norm>
-1.74339

>  <SCORE.INTRA>
0

>  <SCORE.INTRA.DIHEDRAL>
0

>  <SCORE.INTRA.DIHEDRAL.0>
0

>  <SCORE.INTRA.POLAR>
0

>  <SCORE.INTRA.POLAR.0>
0

>  <SCORE.INTRA.REPUL>
0

>  <SCORE.INTRA.REPUL.0>
0

>  <SCORE.INTRA.SOLV>
0

>  <SCORE.INTRA.SOLV.lig_0>
-4.28464

>  <SCORE.INTRA.VDW>
0

>  <SCORE.INTRA.VDW.0>
0

>  <SCORE.INTRA.norm>
0

>  <SCORE.RESTR>
0

>  <SCORE.RESTR.CAVITY>
0

>  <SCORE.RESTR.norm>
0

>  <SCORE.SYSTEM>
0

>  <SCORE.SYSTEM.CONST>
0

>  <SCORE.SYSTEM.DIHEDRAL>
0

>  <SCORE.SYSTEM.SOLV>
0

>  <SCORE.SYSTEM.norm>
0

>  <SCORE.heavy>
10

>  <SCORE.norm>
-1.74339

>  <RMSD>
2.435

$$$$
ligand
 OpenBabel11021811423D
libRbt.so/2013.1/901 2013/11/27
 10 11  0  0  0  0  0  0  0  0999 V2000
   11.5636    8.7206   29.5615 N   0  0  0  0  0  0  0  0  0  0  0  0
   11.7079    7.5223   28.8841 C   0  0  0  0  0  0  0  0  0  0  0  0
   11.5550    7.4374   27.5570 N   0  0  0  0  0  0  0  0  0  0  0  0
   11.2487    8.6408   26.9725 C   0  0  0  0  0  0  0  0  0  0  0  0
   11.0932    9.8593   27.5923 C   0  0  0  0  0  0  0  0  0  0  0  0
   11.2536    9.9608   29.0020 C   0  0  0  0  0  0  0  0  0  0  0  0
   11.1592   10.9447   29.7468 O   0  0  0  0  0  0  0  0  0  0  0  0
   10.7920   10.7972   26.6394 N   0  0  0  0  0  0  0  0  0  0  0  0
   10.7675   10.1531   25.4570 C   0  0  0  0  0  0  0  0  0  0  0  0
   11.0435    8.8199   25.6275 N   0  0  0  0  0  0  0  0  0  0  0  0
  1  2  1  0  0  0  0
  1  6  1  0  0  0  0
  2  3  2  0  0  0  0
  3  4  1  0  0  0  0
  4  5  2  0  0  0  0
  4 10  1  0  0  0  0
  5  6  1  0  0  0  0
  5  8  1  0  0  0  0
  6  7  2  0  0  0  0
  8  9  1  0  0  0  0
  9 10  2  0  0  0  0
M  END
>  <CHROM.1>
11.21785247,9.31504216,27.74408486,-0.93989349,1.34425391,-2.15512085

>  <Name>
ligand

>  <RI>
0

>  <Rbt.Current_Directory>
/home/itssahil/PROJECTS/Mol_Feturizer/New_Systems/rnas/2EET

>  <Rbt.Executable>
rbdock ($Id: //depot/dev/client3/rdock/2013.1/src/exe/rbdock.cxx#4 $)

>  <Rbt.Library>
libRbt.so (2013.1, Build901 2013/11/27)

>  <Rbt.Parameter_File>
/export/apps/rDock/src/rDock_2013.1_src/data/scripts/dock_solv.prm

>  <Rbt.Receptor>
prm/blind_docking_40.prm

>  <SCORE>
-17.4628

>  <SCORE.INTER>
-17.4628

>  <SCORE.INTER.CONST>
1

>  <SCORE.INTER.POLAR>
0

>  <SCORE.INTER.ROT>
0

>  <SCORE.INTER.SOLV>
3.84442

>  <SCORE.INTER.VDW>
-16.5233

>  <SCORE.INTER.norm>
-1.74628

>  <SCORE.INTRA>
0

>  <SCORE.INTRA.DIHEDRAL>
0

>  <SCORE.INTRA.DIHEDRAL.0>
0

>  <SCORE.INTRA.POLAR>
0

>  <SCORE.INTRA.POLAR.0>
0

>  <SCORE.INTRA.REPUL>
0

>  <SCORE.INTRA.REPUL.0>
0

>  <SCORE.INTRA.SOLV>
0

>  <SCORE.INTRA.SOLV.lig_0>
-4.28464

>  <SCORE.INTRA.VDW>
0

>  <SCORE.INTRA.VDW.0>
0

>  <SCORE.INTRA.norm>
0

>  <SCORE.RESTR>
0

>  <SCORE.RESTR.CAVITY>
0

>  <SCORE.RESTR.norm>
0

>  <SCORE.SYSTEM>
0

>  <SCORE.SYSTEM.CONST>
0

>  <SCORE.SYSTEM.DIHEDRAL>
0

>  <SCORE.SYSTEM.SOLV>
0

>  <SCORE.SYSTEM.norm>
0

>  <SCORE.heavy>
10

>  <SCORE.norm>
-1.74628

>  <RMSD>
2.439

$$$$
ligand
 OpenBabel11021811423D
libRbt.so/2013.1/901 2013/11/27
 10 11  0  0  0  0  0  0  0  0999 V2000
   11.5692    8.7139   29.5530 N   0  0  0  0  0  0  0  0  0  0  0  0
   11.7255    7.5179   28.8740 C   0  0  0  0  0  0  0  0  0  0  0  0
   11.5794    7.4345   27.5461 N   0  0  0  0  0  0  0  0  0  0  0  0
   11.2670    8.6366   26.9624 C   0  0  0  0  0  0  0  0  0  0  0  0
   11.0996    9.8528   27.5837 C   0  0  0  0  0  0  0  0  0  0  0  0
   11.2526    9.9528   28.9944 C   0  0  0  0  0  0  0  0  0  0  0  0
   11.1474   10.9345   29.7405 O   0  0  0  0  0  0  0  0  0  0  0  0
   10.7959   10.7903   26.6312 N   0  0  0  0  0  0  0  0  0  0  0  0
   10.7817   10.1483   25.4474 C   0  0  0  0  0  0  0  0  0  0  0  0
   11.0668    8.8168   25.6167 N   0  0  0  0  0  0  0  0  0  0  0  0
  1  2  1  0  0  0  0
  1  6  1  0  0  0  0
  2  3  2  0  0  0  0
  3  4  1  0  0  0  0
  4  5  2  0  0  0  0
  4 10  1  0  0  0  0
  5  6  1  0  0  0  0
  5  8  1  0  0  0  0
  6  7  2  0  0  0  0
  8  9  1  0  0  0  0
  9 10  2  0  0  0  0
M  END
>  <CHROM.1>
11.22753048,9.30919353,27.73504624,-0.97501134,1.34051784,-2.11900708

>  <Name>
ligand

>  <RI>
0

>  <Rbt.Current_Directory>
/home/itssahil/PROJECTS/Mol_Feturizer/New_Systems/rnas/2EET

>  <Rbt.Executable>
rbdock ($Id: //depot/dev/client3/rdock/2013.1/src/exe/rbdock.cxx#4 $)

>  <Rbt.Library>
libRbt.so (2013.1, Build901 2013/11/27)

>  <Rbt.Parameter_File>
/export/apps/rDock/src/rDock_2013.1_src/data/scripts/dock_solv.prm

>  <Rbt.Receptor>
prm/blind_docking_80.prm

>  <SCORE>
-17.4791

>  <SCORE.INTER>
-17.4791

>  <SCORE.INTER.CONST>
1

>  <SCORE.INTER.POLAR>
0

>  <SCORE.INTER.ROT>
0

>  <SCORE.INTER.SOLV>
3.83168

>  <SCORE.INTER.VDW>
-16.53

>  <SCORE.INTER.norm>
-1.74791

>  <SCORE.INTRA>
0

>  <SCORE.INTRA.DIHEDRAL>
0

>  <SCORE.INTRA.DIHEDRAL.0>
0

>  <SCORE.INTRA.POLAR>
0

>  <SCORE.INTRA.POLAR.0>
0

>  <SCORE.INTRA.REPUL>
0

>  <SCORE.INTRA.REPUL.0>
0

>  <SCORE.INTRA.SOLV>
0

>  <SCORE.INTRA.SOLV.lig_0>
-4.28464

>  <SCORE.INTRA.VDW>
0

>  <SCORE.INTRA.VDW.0>
0

>  <SCORE.INTRA.norm>
0

>  <SCORE.RESTR>
0

>  <SCORE.RESTR.CAVITY>
0

>  <SCORE.RESTR.norm>
0

>  <SCORE.SYSTEM>
0

>  <SCORE.SYSTEM.CONST>
0

>  <SCORE.SYSTEM.DIHEDRAL>
0

>  <SCORE.SYSTEM.SOLV>
0

>  <SCORE.SYSTEM.norm>
0

>  <SCORE.heavy>
10

>  <SCORE.norm>
-1.74791

>  <RMSD>
2.439

$$$$
ligand
 OpenBabel11021811423D
libRbt.so/2013.1/901 2013/11/27
 10 11  0  0  0  0  0  0  0  0999 V2000
   11.5422    8.6934   29.5626 N   0  0  0  0  0  0  0  0  0  0  0  0
   11.7177    7.5035   28.8778 C   0  0  0  0  0  0  0  0  0  0  0  0
   11.5861    7.4271   27.5479 N   0  0  0  0  0  0  0  0  0  0  0  0
   11.2674    8.6297   26.9686 C   0  0  0  0  0  0  0  0  0  0  0  0
   11.0811    9.8401   27.5958 C   0  0  0  0  0  0  0  0  0  0  0  0
   11.2187    9.9326   29.0087 C   0  0  0  0  0  0  0  0  0  0  0  0
   11.0958   10.9084   29.7598 O   0  0  0  0  0  0  0  0  0  0  0  0
   10.7776   10.7805   26.6462 N   0  0  0  0  0  0  0  0  0  0  0  0
   10.7822   10.1460   25.4583 C   0  0  0  0  0  0  0  0  0  0  0  0
   11.0791    8.8165   25.6222 N   0  0  0  0  0  0  0  0  0  0  0  0
  1  2  1  0  0  0  0
  1  6  1  0  0  0  0
  2  3  2  0  0  0  0
  3  4  1  0  0  0  0
  4  5  2  0  0  0  0
  4 10  1  0  0  0  0
  5  6  1  0  0  0  0
  5  8  1  0  0  0  0
  6  7  2  0  0  0  0
  8  9  1  0  0  0  0
  9 10  2  0  0  0  0
M  END
>  <CHROM.1>
11.21309955,9.29688538,27.74510216,-1.03572952,1.33669758,-2.05357069

>  <Name>
ligand

>  <RI>
0

>  <Rbt.Current_Directory>
/home/itssahil/PROJECTS/Mol_Feturizer/New_Systems/rnas/2EET

>  <Rbt.Executable>
rbdock ($Id: //depot/dev/client3/rdock/2013.1/src/exe/rbdock.cxx#4 $)

>  <Rbt.Library>
libRbt.so (2013.1, Build901 2013/11/27)

>  <Rbt.Parameter_File>
/export/apps/rDock/src/rDock_2013.1_src/data/scripts/dock_solv.prm

>  <Rbt.Receptor>
prm/blind_docking_40.prm

>  <SCORE>
-17.4842

>  <SCORE.INTER>
-17.4842

>  <SCORE.INTER.CONST>
1

>  <SCORE.INTER.POLAR>
0

>  <SCORE.INTER.ROT>
0

>  <SCORE.INTER.SOLV>
3.83253

>  <SCORE.INTER.VDW>
-16.5336

>  <SCORE.INTER.norm>
-1.74842

>  <SCORE.INTRA>
0

>  <SCORE.INTRA.DIHEDRAL>
0

>  <SCORE.INTRA.DIHEDRAL.0>
0

>  <SCORE.INTRA.POLAR>
0

>  <SCORE.INTRA.POLAR.0>
0

>  <SCORE.INTRA.REPUL>
0

>  <SCORE.INTRA.REPUL.0>
0

>  <SCORE.INTRA.SOLV>
0

>  <SCORE.INTRA.SOLV.lig_0>
-4.28464

>  <SCORE.INTRA.VDW>
0

>  <SCORE.INTRA.VDW.0>
0

>  <SCORE.INTRA.norm>
0

>  <SCORE.RESTR>
0

>  <SCORE.RESTR.CAVITY>
0

>  <SCORE.RESTR.norm>
0

>  <SCORE.SYSTEM>
0

>  <SCORE.SYSTEM.CONST>
0

>  <SCORE.SYSTEM.DIHEDRAL>
0

>  <SCORE.SYSTEM.SOLV>
0

>  <SCORE.SYSTEM.norm>
0

>  <SCORE.heavy>
10

>  <SCORE.norm>
-1.74842

>  <RMSD>
2.441

$$$$
ligand
 OpenBabel11021811423D
libRbt.so/2013.1/901 2013/11/27
 10 11  0  0  0  0  0  0  0  0999 V2000
   11.6062    8.7707   29.5635 N   0  0  0  0  0  0  0  0  0  0  0  0
   11.7690    7.5512   28.9295 C   0  0  0  0  0  0  0  0  0  0  0  0
   11.6133    7.4155   27.6070 N   0  0  0  0  0  0  0  0  0  0  0  0
   11.2844    8.5914   26.9804 C   0  0  0  0  0  0  0  0  0  0  0  0
   11.1099    9.8288   27.5561 C   0  0  0  0  0  0  0  0  0  0  0  0
   11.2730    9.9842   28.9607 C   0  0  0  0  0  0  0  0  0  0  0  0
   11.1640   10.9927   29.6695 O   0  0  0  0  0  0  0  0  0  0  0  0
   10.7895   10.7262   26.5710 N   0  0  0  0  0  0  0  0  0  0  0  0
   10.7723   10.0392   25.4128 C   0  0  0  0  0  0  0  0  0  0  0  0
   11.0719    8.7180   25.6305 N   0  0  0  0  0  0  0  0  0  0  0  0
  1  2  1  0  0  0  0
  1  6  1  0  0  0  0
  2  3  2  0  0  0  0
  3  4  1  0  0  0  0
  4  5  2  0  0  0  0
  4 10  1  0  0  0  0
  5  6  1  0  0  0  0
  5  8  1  0  0  0  0
  6  7  2  0  0  0  0
  8  9  1  0  0  0  0
  9 10  2  0  0  0  0
M  END
>  <CHROM.1>
11.24439037,9.29264101,27.72708274,-0.96842785,1.32799261,-2.16367620

>  <Name>
ligand

>  <RI>
0

>  <Rbt.Current_Directory>
/home/itssahil/PROJECTS/Mol_Feturizer/New_Systems/rnas/2EET

>  <Rbt.Executable>
rbdock ($Id: //depot/dev/client3/rdock/2013.1/src/exe/rbdock.cxx#4 $)

>  <Rbt.Library>
libRbt.so (2013.1, Build901 2013/11/27)

>  <Rbt.Parameter_File>
/export/apps/rDock/src/rDock_2013.1_src/data/scripts/dock_solv.prm

>  <Rbt.Receptor>
prm/blind_docking_80.prm

>  <SCORE>
-17.4802

>  <SCORE.INTER>
-17.4802

>  <SCORE.INTER.CONST>
1

>  <SCORE.INTER.POLAR>
0

>  <SCORE.INTER.ROT>
0

>  <SCORE.INTER.SOLV>
3.87668

>  <SCORE.INTER.VDW>
-16.5457

>  <SCORE.INTER.norm>
-1.74802

>  <SCORE.INTRA>
0

>  <SCORE.INTRA.DIHEDRAL>
0

>  <SCORE.INTRA.DIHEDRAL.0>
0

>  <SCORE.INTRA.POLAR>
0

>  <SCORE.INTRA.POLAR.0>
0

>  <SCORE.INTRA.REPUL>
0

>  <SCORE.INTRA.REPUL.0>
0

>  <SCORE.INTRA.SOLV>
0

>  <SCORE.INTRA.SOLV.lig_0>
-4.28464

>  <SCORE.INTRA.VDW>
0

>  <SCORE.INTRA.VDW.0>
0

>  <SCORE.INTRA.norm>
0

>  <SCORE.RESTR>
0

>  <SCORE.RESTR.CAVITY>
0

>  <SCORE.RESTR.norm>
0

>  <SCORE.SYSTEM>
0

>  <SCORE.SYSTEM.CONST>
0

>  <SCORE.SYSTEM.DIHEDRAL>
0

>  <SCORE.SYSTEM.SOLV>
0

>  <SCORE.SYSTEM.norm>
0

>  <SCORE.heavy>
10

>  <SCORE.norm>
-1.74802

>  <RMSD>
2.441

$$$$
ligand
 OpenBabel11021811423D
libRbt.so/2013.1/901 2013/11/27
 10 11  0  0  0  0  0  0  0  0999 V2000
   11.5891    8.7441   29.5631 N   0  0  0  0  0  0  0  0  0  0  0  0
   11.7423    7.5294   28.9176 C   0  0  0  0  0  0  0  0  0  0  0  0
   11.5810    7.4064   27.5946 N   0  0  0  0  0  0  0  0  0  0  0  0
   11.2570    8.5898   26.9796 C   0  0  0  0  0  0  0  0  0  0  0  0
   11.0920    9.8230   27.5669 C   0  0  0  0  0  0  0  0  0  0  0  0
   11.2612    9.9649   28.9722 C   0  0  0  0  0  0  0  0  0  0  0  0
   11.1608   10.9677   29.6904 O   0  0  0  0  0  0  0  0  0  0  0  0
   10.7735   10.7310   26.5910 N   0  0  0  0  0  0  0  0  0  0  0  0
   10.7480   10.0545   25.4268 C   0  0  0  0  0  0  0  0  0  0  0  0
   11.0404    8.7296   25.6317 N   0  0  0  0  0  0  0  0  0  0  0  0
  1  2  1  0  0  0  0
  1  6  1  0  0  0  0
  2  3  2  0  0  0  0
  3  4  1  0  0  0  0
  4  5  2  0  0  0  0
  4 10  1  0  0  0  0
  5  6  1  0  0  0  0
  5  8  1  0  0  0  0
  6  7  2  0  0  0  0
  8  9  1  0  0  0  0
  9 10  2  0  0  0  0
M  END
>  <CHROM.1>
11.22390310,9.28456096,27.73263519,-0.94165552,1.33090586,-2.18080072

>  <Name>
ligand

>  <RI>
0

>  <Rbt.Current_Directory>
/home/itssahil/PROJECTS/Mol_Feturizer/New_Systems/rnas/2EET

>  <Rbt.Executable>
rbdock ($Id: //depot/dev/client3/rdock/2013.1/src/exe/rbdock.cxx#4 $)

>  <Rbt.Library>
libRbt.so (2013.1, Build901 2013/11/27)

>  <Rbt.Parameter_File>
/export/apps/rDock/src/rDock_2013.1_src/data/scripts/dock_solv.prm

>  <Rbt.Receptor>
prm/pocket_docking_7.prm

>  <SCORE>
-17.487

>  <SCORE.INTER>
-17.487

>  <SCORE.INTER.CONST>
1

>  <SCORE.INTER.POLAR>
0

>  <SCORE.INTER.ROT>
0

>  <SCORE.INTER.SOLV>
3.87016

>  <SCORE.INTER.VDW>
-16.5481

>  <SCORE.INTER.norm>
-1.7487

>  <SCORE.INTRA>
0

>  <SCORE.INTRA.DIHEDRAL>
0

>  <SCORE.INTRA.DIHEDRAL.0>
0

>  <SCORE.INTRA.POLAR>
0

>  <SCORE.INTRA.POLAR.0>
0

>  <SCORE.INTRA.REPUL>
0

>  <SCORE.INTRA.REPUL.0>
0

>  <SCORE.INTRA.SOLV>
0

>  <SCORE.INTRA.SOLV.lig_0>
-4.28464

>  <SCORE.INTRA.VDW>
0

>  <SCORE.INTRA.VDW.0>
0

>  <SCORE.INTRA.norm>
0

>  <SCORE.RESTR>
0

>  <SCORE.RESTR.CAVITY>
0

>  <SCORE.RESTR.norm>
0

>  <SCORE.SYSTEM>
0

>  <SCORE.SYSTEM.CONST>
0

>  <SCORE.SYSTEM.DIHEDRAL>
0

>  <SCORE.SYSTEM.SOLV>
0

>  <SCORE.SYSTEM.norm>
0

>  <SCORE.heavy>
10

>  <SCORE.norm>
-1.7487

>  <RMSD>
2.441

$$$$
ligand
 OpenBabel11021811423D
libRbt.so/2013.1/901 2013/11/27
 10 11  0  0  0  0  0  0  0  0999 V2000
   11.5700    8.7413   29.5331 N   0  0  0  0  0  0  0  0  0  0  0  0
   11.7134    7.5329   28.8737 C   0  0  0  0  0  0  0  0  0  0  0  0
   11.5644    7.4290   27.5476 N   0  0  0  0  0  0  0  0  0  0  0  0
   11.2631    8.6244   26.9445 C   0  0  0  0  0  0  0  0  0  0  0  0
   11.1088    9.8523   27.5459 C   0  0  0  0  0  0  0  0  0  0  0  0
   11.2650    9.9740   28.9546 C   0  0  0  0  0  0  0  0  0  0  0  0
   11.1707   10.9689   29.6845 O   0  0  0  0  0  0  0  0  0  0  0  0
   10.8129   10.7769   26.5785 N   0  0  0  0  0  0  0  0  0  0  0  0
   10.7906   10.1156   25.4055 C   0  0  0  0  0  0  0  0  0  0  0  0
   11.0626    8.7843   25.5964 N   0  0  0  0  0  0  0  0  0  0  0  0
  1  2  1  0  0  0  0
  1  6  1  0  0  0  0
  2  3  2  0  0  0  0
  3  4  1  0  0  0  0
  4  5  2  0  0  0  0
  4 10  1  0  0  0  0
  5  6  1  0  0  0  0
  5  8  1  0  0  0  0
  6  7  2  0  0  0  0
  8  9  1  0  0  0  0
  9 10  2  0  0  0  0
M  END
>  <CHROM.1>
11.23151129,9.30997793,27.70606946,-0.94544900,1.34813484,-2.16432612

>  <Name>
ligand

>  <RI>
0

>  <Rbt.Current_Directory>
/home/itssahil/PROJECTS/Mol_Feturizer/New_Systems/rnas/2EET

>  <Rbt.Executable>
rbdock ($Id: //depot/dev/client3/rdock/2013.1/src/exe/rbdock.cxx#4 $)

>  <Rbt.Library>
libRbt.so (2013.1, Build901 2013/11/27)

>  <Rbt.Parameter_File>
/export/apps/rDock/src/rDock_2013.1_src/data/scripts/dock_solv.prm

>  <Rbt.Receptor>
prm/blind_docking_80.prm

>  <SCORE>
-17.4628

>  <SCORE.INTER>
-17.4628

>  <SCORE.INTER.CONST>
1

>  <SCORE.INTER.POLAR>
0

>  <SCORE.INTER.ROT>
0

>  <SCORE.INTER.SOLV>
3.86502

>  <SCORE.INTER.VDW>
-16.5302

>  <SCORE.INTER.norm>
-1.74628

>  <SCORE.INTRA>
0

>  <SCORE.INTRA.DIHEDRAL>
0

>  <SCORE.INTRA.DIHEDRAL.0>
0

>  <SCORE.INTRA.POLAR>
0

>  <SCORE.INTRA.POLAR.0>
0

>  <SCORE.INTRA.REPUL>
0

>  <SCORE.INTRA.REPUL.0>
0

>  <SCORE.INTRA.SOLV>
0

>  <SCORE.INTRA.SOLV.lig_0>
-4.28464

>  <SCORE.INTRA.VDW>
0

>  <SCORE.INTRA.VDW.0>
0

>  <SCORE.INTRA.norm>
0

>  <SCORE.RESTR>
0

>  <SCORE.RESTR.CAVITY>
0

>  <SCORE.RESTR.norm>
0

>  <SCORE.SYSTEM>
0

>  <SCORE.SYSTEM.CONST>
0

>  <SCORE.SYSTEM.DIHEDRAL>
0

>  <SCORE.SYSTEM.SOLV>
0

>  <SCORE.SYSTEM.norm>
0

>  <SCORE.heavy>
10

>  <SCORE.norm>
-1.74628

>  <RMSD>
2.442

$$$$
ligand
 OpenBabel11021811423D
libRbt.so/2013.1/901 2013/11/27
 10 11  0  0  0  0  0  0  0  0999 V2000
   11.5276    8.7197   29.5787 N   0  0  0  0  0  0  0  0  0  0  0  0
   11.7070    7.5220   28.9086 C   0  0  0  0  0  0  0  0  0  0  0  0
   11.5791    7.4294   27.5794 N   0  0  0  0  0  0  0  0  0  0  0  0
   11.2599    8.6245   26.9849 C   0  0  0  0  0  0  0  0  0  0  0  0
   11.0700    9.8420   27.5971 C   0  0  0  0  0  0  0  0  0  0  0  0
   11.2036    9.9516   29.0091 C   0  0  0  0  0  0  0  0  0  0  0  0
   11.0770   10.9361   29.7482 O   0  0  0  0  0  0  0  0  0  0  0  0
   10.7675   10.7705   26.6355 N   0  0  0  0  0  0  0  0  0  0  0  0
   10.7763   10.1218   25.4553 C   0  0  0  0  0  0  0  0  0  0  0  0
   11.0750    8.7948   25.6359 N   0  0  0  0  0  0  0  0  0  0  0  0
  1  2  1  0  0  0  0
  1  6  1  0  0  0  0
  2  3  2  0  0  0  0
  3  4  1  0  0  0  0
  4  5  2  0  0  0  0
  4 10  1  0  0  0  0
  5  6  1  0  0  0  0
  5  8  1  0  0  0  0
  6  7  2  0  0  0  0
  8  9  1  0  0  0  0
  9 10  2  0  0  0  0
M  END
>  <CHROM.1>
11.20244009,9.30080990,27.75323479,-1.04934686,1.33646721,-2.05226693

>  <Name>
ligand

>  <RI>
0

>  <Rbt.Current_Directory>
/home/itssahil/PROJECTS/Mol_Feturizer/New_Systems/rnas/2EET

>  <Rbt.Executable>
rbdock ($Id: //depot/dev/client3/rdock/2013.1/src/exe/rbdock.cxx#4 $)

>  <Rbt.Library>
libRbt.so (2013.1, Build901 2013/11/27)

>  <Rbt.Parameter_File>
/export/apps/rDock/src/rDock_2013.1_src/data/scripts/dock_solv.prm

>  <Rbt.Receptor>
prm/pocket_docking_3.prm

>  <SCORE>
-17.4741

>  <SCORE.INTER>
-17.4741

>  <SCORE.INTER.CONST>
1

>  <SCORE.INTER.POLAR>
0

>  <SCORE.INTER.ROT>
0

>  <SCORE.INTER.SOLV>
3.86677

>  <SCORE.INTER.VDW>
-16.5383

>  <SCORE.INTER.norm>
-1.74741

>  <SCORE.INTRA>
0

>  <SCORE.INTRA.DIHEDRAL>
0

>  <SCORE.INTRA.DIHEDRAL.0>
0

>  <SCORE.INTRA.POLAR>
0

>  <SCORE.INTRA.POLAR.0>
0

>  <SCORE.INTRA.REPUL>
0

>  <SCORE.INTRA.REPUL.0>
0

>  <SCORE.INTRA.SOLV>
0

>  <SCORE.INTRA.SOLV.lig_0>
-4.28464

>  <SCORE.INTRA.VDW>
0

>  <SCORE.INTRA.VDW.0>
0

>  <SCORE.INTRA.norm>
0

>  <SCORE.RESTR>
0

>  <SCORE.RESTR.CAVITY>
0

>  <SCORE.RESTR.norm>
0

>  <SCORE.SYSTEM>
0

>  <SCORE.SYSTEM.CONST>
0

>  <SCORE.SYSTEM.DIHEDRAL>
0

>  <SCORE.SYSTEM.SOLV>
0

>  <SCORE.SYSTEM.norm>
0

>  <SCORE.heavy>
10

>  <SCORE.norm>
-1.74741

>  <RMSD>
2.442

$$$$
ligand
 OpenBabel11021811423D
libRbt.so/2013.1/901 2013/11/27
 10 11  0  0  0  0  0  0  0  0999 V2000
   11.6288    8.6999   29.5502 N   0  0  0  0  0  0  0  0  0  0  0  0
   11.8126    7.4965   28.8916 C   0  0  0  0  0  0  0  0  0  0  0  0
   11.6363    7.3796   27.5699 N   0  0  0  0  0  0  0  0  0  0  0  0
   11.2646    8.5569   26.9704 C   0  0  0  0  0  0  0  0  0  0  0  0
   11.0675    9.7789   27.5712 C   0  0  0  0  0  0  0  0  0  0  0  0
   11.2522    9.9142   28.9751 C   0  0  0  0  0  0  0  0  0  0  0  0
   11.1292   10.9069   29.7038 O   0  0  0  0  0  0  0  0  0  0  0  0
   10.7051   10.6842   26.6081 N   0  0  0  0  0  0  0  0  0  0  0  0
   10.6851   10.0173   25.4384 C   0  0  0  0  0  0  0  0  0  0  0  0
   11.0240    8.7011   25.6270 N   0  0  0  0  0  0  0  0  0  0  0  0
  1  2  1  0  0  0  0
  1  6  1  0  0  0  0
  2  3  2  0  0  0  0
  3  4  1  0  0  0  0
  4  5  2  0  0  0  0
  4 10  1  0  0  0  0
  5  6  1  0  0  0  0
  5  8  1  0  0  0  0
  6  7  2  0  0  0  0
  8  9  1  0  0  0  0
  9 10  2  0  0  0  0
M  END
>  <CHROM.1>
11.21948291,9.24370997,27.73010407,-0.96754836,1.29546628,-2.14689431

>  <Name>
ligand

>  <RI>
0

>  <Rbt.Current_Directory>
/home/itssahil/PROJECTS/Mol_Feturizer/New_Systems/rnas/2EET

>  <Rbt.Executable>
rbdock ($Id: //depot/dev/client3/rdock/2013.1/src/exe/rbdock.cxx#4 $)

>  <Rbt.Library>
libRbt.so (2013.1, Build901 2013/11/27)

>  <Rbt.Parameter_File>
/export/apps/rDock/src/rDock_2013.1_src/data/scripts/dock_solv.prm

>  <Rbt.Receptor>
prm/pocket_docking_4.prm

>  <SCORE>
-17.4819

>  <SCORE.INTER>
-17.4819

>  <SCORE.INTER.CONST>
1

>  <SCORE.INTER.POLAR>
0

>  <SCORE.INTER.ROT>
0

>  <SCORE.INTER.SOLV>
3.80859

>  <SCORE.INTER.VDW>
-16.5242

>  <SCORE.INTER.norm>
-1.74819

>  <SCORE.INTRA>
0

>  <SCORE.INTRA.DIHEDRAL>
0

>  <SCORE.INTRA.DIHEDRAL.0>
0

>  <SCORE.INTRA.POLAR>
0

>  <SCORE.INTRA.POLAR.0>
0

>  <SCORE.INTRA.REPUL>
0

>  <SCORE.INTRA.REPUL.0>
0

>  <SCORE.INTRA.SOLV>
0

>  <SCORE.INTRA.SOLV.lig_0>
-4.28464

>  <SCORE.INTRA.VDW>
0

>  <SCORE.INTRA.VDW.0>
0

>  <SCORE.INTRA.norm>
0

>  <SCORE.RESTR>
0

>  <SCORE.RESTR.CAVITY>
0

>  <SCORE.RESTR.norm>
0

>  <SCORE.SYSTEM>
0

>  <SCORE.SYSTEM.CONST>
0

>  <SCORE.SYSTEM.DIHEDRAL>
0

>  <SCORE.SYSTEM.SOLV>
0

>  <SCORE.SYSTEM.norm>
0

>  <SCORE.heavy>
10

>  <SCORE.norm>
-1.74819

>  <RMSD>
2.442

$$$$
ligand
 OpenBabel11021811423D
libRbt.so/2013.1/901 2013/11/27
 10 11  0  0  0  0  0  0  0  0999 V2000
   11.5776    8.7388   29.5348 N   0  0  0  0  0  0  0  0  0  0  0  0
   11.7311    7.5329   28.8729 C   0  0  0  0  0  0  0  0  0  0  0  0
   11.5832    7.4306   27.5465 N   0  0  0  0  0  0  0  0  0  0  0  0
   11.2720    8.6247   26.9459 C   0  0  0  0  0  0  0  0  0  0  0  0
   11.1074    9.8500   27.5499 C   0  0  0  0  0  0  0  0  0  0  0  0
   11.2624    9.9700   28.9588 C   0  0  0  0  0  0  0  0  0  0  0  0
   11.1598   10.9626   29.6908 O   0  0  0  0  0  0  0  0  0  0  0  0
   10.8040   10.7741   26.5843 N   0  0  0  0  0  0  0  0  0  0  0  0
   10.7873   10.1152   25.4100 C   0  0  0  0  0  0  0  0  0  0  0  0
   11.0704    8.7858   25.5981 N   0  0  0  0  0  0  0  0  0  0  0  0
  1  2  1  0  0  0  0
  1  6  1  0  0  0  0
  2  3  2  0  0  0  0
  3  4  1  0  0  0  0
  4  5  2  0  0  0  0
  4 10  1  0  0  0  0
  5  6  1  0  0  0  0
  5  8  1  0  0  0  0
  6  7  2  0  0  0  0
  8  9  1  0  0  0  0
  9 10  2  0  0  0  0
M  END
>  <CHROM.1>
11.23464219,9.30841702,27.70891036,-0.96638006,1.34125335,-2.14183019

>  <Name>
ligand

>  <RI>
0

>  <Rbt.Current_Directory>
/home/itssahil/PROJECTS/Mol_Feturizer/New_Systems/rnas/2EET

>  <Rbt.Executable>
rbdock ($Id: //depot/dev/client3/rdock/2013.1/src/exe/rbdock.cxx#4 $)

>  <Rbt.Library>
libRbt.so (2013.1, Build901 2013/11/27)

>  <Rbt.Parameter_File>
/export/apps/rDock/src/rDock_2013.1_src/data/scripts/dock_solv.prm

>  <Rbt.Receptor>
prm/pocket_docking_5.prm

>  <SCORE>
-17.4641

>  <SCORE.INTER>
-17.4641

>  <SCORE.INTER.CONST>
1

>  <SCORE.INTER.POLAR>
0

>  <SCORE.INTER.ROT>
0

>  <SCORE.INTER.SOLV>
3.85435

>  <SCORE.INTER.VDW>
-16.5275

>  <SCORE.INTER.norm>
-1.74641

>  <SCORE.INTRA>
0

>  <SCORE.INTRA.DIHEDRAL>
0

>  <SCORE.INTRA.DIHEDRAL.0>
0

>  <SCORE.INTRA.POLAR>
0

>  <SCORE.INTRA.POLAR.0>
0

>  <SCORE.INTRA.REPUL>
0

>  <SCORE.INTRA.REPUL.0>
0

>  <SCORE.INTRA.SOLV>
0

>  <SCORE.INTRA.SOLV.lig_0>
-4.28464

>  <SCORE.INTRA.VDW>
0

>  <SCORE.INTRA.VDW.0>
0

>  <SCORE.INTRA.norm>
0

>  <SCORE.RESTR>
0

>  <SCORE.RESTR.CAVITY>
0

>  <SCORE.RESTR.norm>
0

>  <SCORE.SYSTEM>
0

>  <SCORE.SYSTEM.CONST>
0

>  <SCORE.SYSTEM.DIHEDRAL>
0

>  <SCORE.SYSTEM.SOLV>
0

>  <SCORE.SYSTEM.norm>
0

>  <SCORE.heavy>
10

>  <SCORE.norm>
-1.74641

>  <RMSD>
2.442

$$$$
ligand
 OpenBabel11021811423D
libRbt.so/2013.1/901 2013/11/27
 10 11  0  0  0  0  0  0  0  0999 V2000
   11.5452    8.7846   29.6050 N   0  0  0  0  0  0  0  0  0  0  0  0
   11.7144    7.5638   28.9752 C   0  0  0  0  0  0  0  0  0  0  0  0
   11.5722    7.4254   27.6514 N   0  0  0  0  0  0  0  0  0  0  0  0
   11.2499    8.6000   27.0190 C   0  0  0  0  0  0  0  0  0  0  0  0
   11.0696    9.8386   27.5904 C   0  0  0  0  0  0  0  0  0  0  0  0
   11.2184    9.9969   28.9962 C   0  0  0  0  0  0  0  0  0  0  0  0
   11.1022   11.0069   29.7018 O   0  0  0  0  0  0  0  0  0  0  0  0
   10.7594   10.7339   26.6002 N   0  0  0  0  0  0  0  0  0  0  0  0
   10.7540   10.0446   25.4433 C   0  0  0  0  0  0  0  0  0  0  0  0
   11.0512    8.7238   25.6668 N   0  0  0  0  0  0  0  0  0  0  0  0
  1  2  1  0  0  0  0
  1  6  1  0  0  0  0
  2  3  2  0  0  0  0
  3  4  1  0  0  0  0
  4  5  2  0  0  0  0
  4 10  1  0  0  0  0
  5  6  1  0  0  0  0
  5  8  1  0  0  0  0
  6  7  2  0  0  0  0
  8  9  1  0  0  0  0
  9 10  2  0  0  0  0
M  END
>  <CHROM.1>
11.20230045,9.30280750,27.76382511,-1.00433298,1.33363526,-2.13087654

>  <Name>
ligand

>  <RI>
0

>  <Rbt.Current_Directory>
/home/itssahil/PROJECTS/Mol_Feturizer/New_Systems/rnas/2EET

>  <Rbt.Executable>
rbdock ($Id: //depot/dev/client3/rdock/2013.1/src/exe/rbdock.cxx#4 $)

>  <Rbt.Library>
libRbt.so (2013.1, Build901 2013/11/27)

>  <Rbt.Parameter_File>
/export/apps/rDock/src/rDock_2013.1_src/data/scripts/dock_solv.prm

>  <Rbt.Receptor>
prm/pocket_docking_7.prm

>  <SCORE>
-17.5024

>  <SCORE.INTER>
-17.5024

>  <SCORE.INTER.CONST>
1

>  <SCORE.INTER.POLAR>
0

>  <SCORE.INTER.ROT>
0

>  <SCORE.INTER.SOLV>
3.92562

>  <SCORE.INTER.VDW>
-16.5768

>  <SCORE.INTER.norm>
-1.75024

>  <SCORE.INTRA>
0

>  <SCORE.INTRA.DIHEDRAL>
0

>  <SCORE.INTRA.DIHEDRAL.0>
0

>  <SCORE.INTRA.POLAR>
0

>  <SCORE.INTRA.POLAR.0>
0

>  <SCORE.INTRA.REPUL>
0

>  <SCORE.INTRA.REPUL.0>
0

>  <SCORE.INTRA.SOLV>
0

>  <SCORE.INTRA.SOLV.lig_0>
-4.28464

>  <SCORE.INTRA.VDW>
0

>  <SCORE.INTRA.VDW.0>
0

>  <SCORE.INTRA.norm>
0

>  <SCORE.RESTR>
0

>  <SCORE.RESTR.CAVITY>
0

>  <SCORE.RESTR.norm>
0

>  <SCORE.SYSTEM>
0

>  <SCORE.SYSTEM.CONST>
0

>  <SCORE.SYSTEM.DIHEDRAL>
0

>  <SCORE.SYSTEM.SOLV>
0

>  <SCORE.SYSTEM.norm>
0

>  <SCORE.heavy>
10

>  <SCORE.norm>
-1.75024

>  <RMSD>
2.442

$$$$
ligand
 OpenBabel11021811423D
libRbt.so/2013.1/901 2013/11/27
 10 11  0  0  0  0  0  0  0  0999 V2000
   11.5292    8.7764   29.5936 N   0  0  0  0  0  0  0  0  0  0  0  0
   11.6783    7.5597   28.9510 C   0  0  0  0  0  0  0  0  0  0  0  0
   11.5433    7.4393   27.6247 N   0  0  0  0  0  0  0  0  0  0  0  0
   11.2496    8.6274   27.0036 C   0  0  0  0  0  0  0  0  0  0  0  0
   11.0901    9.8628   27.5880 C   0  0  0  0  0  0  0  0  0  0  0  0
   11.2316   10.0020   28.9965 C   0  0  0  0  0  0  0  0  0  0  0  0
   11.1306   11.0060   29.7130 O   0  0  0  0  0  0  0  0  0  0  0  0
   10.8055   10.7755   26.6059 N   0  0  0  0  0  0  0  0  0  0  0  0
   10.7949   10.0996   25.4412 C   0  0  0  0  0  0  0  0  0  0  0  0
   11.0636    8.7706   25.6516 N   0  0  0  0  0  0  0  0  0  0  0  0
  1  2  1  0  0  0  0
  1  6  1  0  0  0  0
  2  3  2  0  0  0  0
  3  4  1  0  0  0  0
  4  5  2  0  0  0  0
  4 10  1  0  0  0  0
  5  6  1  0  0  0  0
  5  8  1  0  0  0  0
  6  7  2  0  0  0  0
  8  9  1  0  0  0  0
  9 10  2  0  0  0  0
M  END
>  <CHROM.1>
11.21066071,9.32244176,27.75616471,-0.98376238,1.35472656,-2.13943493

>  <Name>
ligand

>  <RI>
0

>  <Rbt.Current_Directory>
/home/itssahil/PROJECTS/Mol_Feturizer/New_Systems/rnas/2EET

>  <Rbt.Executable>
rbdock ($Id: //depot/dev/client3/rdock/2013.1/src/exe/rbdock.cxx#4 $)

>  <Rbt.Library>
libRbt.so (2013.1, Build901 2013/11/27)

>  <Rbt.Parameter_File>
/export/apps/rDock/src/rDock_2013.1_src/data/scripts/dock_solv.prm

>  <Rbt.Receptor>
prm/pocket_docking_8.prm

>  <SCORE>
-17.4723

>  <SCORE.INTER>
-17.4723

>  <SCORE.INTER.CONST>
1

>  <SCORE.INTER.POLAR>
0

>  <SCORE.INTER.ROT>
0

>  <SCORE.INTER.SOLV>
3.92042

>  <SCORE.INTER.VDW>
-16.555

>  <SCORE.INTER.norm>
-1.74723

>  <SCORE.INTRA>
0

>  <SCORE.INTRA.DIHEDRAL>
0

>  <SCORE.INTRA.DIHEDRAL.0>
0

>  <SCORE.INTRA.POLAR>
0

>  <SCORE.INTRA.POLAR.0>
0

>  <SCORE.INTRA.REPUL>
0

>  <SCORE.INTRA.REPUL.0>
0

>  <SCORE.INTRA.SOLV>
0

>  <SCORE.INTRA.SOLV.lig_0>
-4.28464

>  <SCORE.INTRA.VDW>
0

>  <SCORE.INTRA.VDW.0>
0

>  <SCORE.INTRA.norm>
0

>  <SCORE.RESTR>
0

>  <SCORE.RESTR.CAVITY>
0

>  <SCORE.RESTR.norm>
0

>  <SCORE.SYSTEM>
0

>  <SCORE.SYSTEM.CONST>
0

>  <SCORE.SYSTEM.DIHEDRAL>
0

>  <SCORE.SYSTEM.SOLV>
0

>  <SCORE.SYSTEM.norm>
0

>  <SCORE.heavy>
10

>  <SCORE.norm>
-1.74723

>  <RMSD>
2.442

$$$$
ligand
 OpenBabel11021811423D
libRbt.so/2013.1/901 2013/11/27
 10 11  0  0  0  0  0  0  0  0999 V2000
   11.5517    8.7748   29.6031 N   0  0  0  0  0  0  0  0  0  0  0  0
   11.7191    7.5523   28.9760 C   0  0  0  0  0  0  0  0  0  0  0  0
   11.5784    7.4115   27.6523 N   0  0  0  0  0  0  0  0  0  0  0  0
   11.2595    8.5855   27.0171 C   0  0  0  0  0  0  0  0  0  0  0  0
   11.0810    9.8257   27.5857 C   0  0  0  0  0  0  0  0  0  0  0  0
   11.2282    9.9865   28.9914 C   0  0  0  0  0  0  0  0  0  0  0  0
   11.1132   10.9982   29.6948 O   0  0  0  0  0  0  0  0  0  0  0  0
   10.7740   10.7196   26.5932 N   0  0  0  0  0  0  0  0  0  0  0  0
   10.7688   10.0279   25.4378 C   0  0  0  0  0  0  0  0  0  0  0  0
   11.0628    8.7069   25.6644 N   0  0  0  0  0  0  0  0  0  0  0  0
  1  2  1  0  0  0  0
  1  6  1  0  0  0  0
  2  3  2  0  0  0  0
  3  4  1  0  0  0  0
  4  5  2  0  0  0  0
  4 10  1  0  0  0  0
  5  6  1  0  0  0  0
  5  8  1  0  0  0  0
  6  7  2  0  0  0  0
  8  9  1  0  0  0  0
  9 10  2  0  0  0  0
M  END
>  <CHROM.1>
11.21231907,9.28990296,27.76043015,-1.00448095,1.33614668,-2.13277446

>  <Name>
ligand

>  <RI>
0

>  <Rbt.Current_Directory>
/home/itssahil/PROJECTS/Mol_Feturizer/New_Systems/rnas/2EET

>  <Rbt.Executable>
rbdock ($Id: //depot/dev/client3/rdock/2013.1/src/exe/rbdock.cxx#4 $)

>  <Rbt.Library>
libRbt.so (2013.1, Build901 2013/11/27)

>  <Rbt.Parameter_File>
/export/apps/rDock/src/rDock_2013.1_src/data/scripts/dock_solv.prm

>  <Rbt.Receptor>
prm/blind_docking_100.prm

>  <SCORE>
-17.5267

>  <SCORE.INTER>
-17.5267

>  <SCORE.INTER.CONST>
1

>  <SCORE.INTER.POLAR>
0

>  <SCORE.INTER.ROT>
0

>  <SCORE.INTER.SOLV>
3.91926

>  <SCORE.INTER.VDW>
-16.5909

>  <SCORE.INTER.norm>
-1.75267

>  <SCORE.INTRA>
0

>  <SCORE.INTRA.DIHEDRAL>
0

>  <SCORE.INTRA.DIHEDRAL.0>
0

>  <SCORE.INTRA.POLAR>
0

>  <SCORE.INTRA.POLAR.0>
0

>  <SCORE.INTRA.REPUL>
0

>  <SCORE.INTRA.REPUL.0>
0

>  <SCORE.INTRA.SOLV>
0

>  <SCORE.INTRA.SOLV.lig_0>
-4.28464

>  <SCORE.INTRA.VDW>
0

>  <SCORE.INTRA.VDW.0>
0

>  <SCORE.INTRA.norm>
0

>  <SCORE.RESTR>
0

>  <SCORE.RESTR.CAVITY>
0

>  <SCORE.RESTR.norm>
0

>  <SCORE.SYSTEM>
0

>  <SCORE.SYSTEM.CONST>
0

>  <SCORE.SYSTEM.DIHEDRAL>
0

>  <SCORE.SYSTEM.SOLV>
0

>  <SCORE.SYSTEM.norm>
0

>  <SCORE.heavy>
10

>  <SCORE.norm>
-1.75267

>  <RMSD>
2.443

$$$$
ligand
 OpenBabel11021811423D
libRbt.so/2013.1/901 2013/11/27
 10 11  0  0  0  0  0  0  0  0999 V2000
   11.5756    8.7620   29.5781 N   0  0  0  0  0  0  0  0  0  0  0  0
   11.7438    7.5429   28.9448 C   0  0  0  0  0  0  0  0  0  0  0  0
   11.6010    7.4084   27.6207 N   0  0  0  0  0  0  0  0  0  0  0  0
   11.2790    8.5850   26.9918 C   0  0  0  0  0  0  0  0  0  0  0  0
   11.0996    9.8221   27.5668 C   0  0  0  0  0  0  0  0  0  0  0  0
   11.2491    9.9763   28.9730 C   0  0  0  0  0  0  0  0  0  0  0  0
   11.1337   10.9843   29.6816 O   0  0  0  0  0  0  0  0  0  0  0  0
   10.7894   10.7204   26.5793 N   0  0  0  0  0  0  0  0  0  0  0  0
   10.7832   10.0344   25.4205 C   0  0  0  0  0  0  0  0  0  0  0  0
   11.0797    8.7128   25.6401 N   0  0  0  0  0  0  0  0  0  0  0  0
  1  2  1  0  0  0  0
  1  6  1  0  0  0  0
  2  3  2  0  0  0  0
  3  4  1  0  0  0  0
  4  5  2  0  0  0  0
  4 10  1  0  0  0  0
  5  6  1  0  0  0  0
  5  8  1  0  0  0  0
  6  7  2  0  0  0  0
  8  9  1  0  0  0  0
  9 10  2  0  0  0  0
M  END
>  <CHROM.1>
11.23207958,9.28569756,27.73865584,-1.00158707,1.33384392,-2.13067181

>  <Name>
ligand

>  <RI>
0

>  <Rbt.Current_Directory>
/home/itssahil/PROJECTS/Mol_Feturizer/New_Systems/rnas/2EET

>  <Rbt.Executable>
rbdock ($Id: //depot/dev/client3/rdock/2013.1/src/exe/rbdock.cxx#4 $)

>  <Rbt.Library>
libRbt.so (2013.1, Build901 2013/11/27)

>  <Rbt.Parameter_File>
/export/apps/rDock/src/rDock_2013.1_src/data/scripts/dock_solv.prm

>  <Rbt.Receptor>
prm/blind_docking_40.prm

>  <SCORE>
-17.4888

>  <SCORE.INTER>
-17.4888

>  <SCORE.INTER.CONST>
1

>  <SCORE.INTER.POLAR>
0

>  <SCORE.INTER.ROT>
0

>  <SCORE.INTER.SOLV>
3.88905

>  <SCORE.INTER.VDW>
-16.5556

>  <SCORE.INTER.norm>
-1.74888

>  <SCORE.INTRA>
0

>  <SCORE.INTRA.DIHEDRAL>
0

>  <SCORE.INTRA.DIHEDRAL.0>
0

>  <SCORE.INTRA.POLAR>
0

>  <SCORE.INTRA.POLAR.0>
0

>  <SCORE.INTRA.REPUL>
0

>  <SCORE.INTRA.REPUL.0>
0

>  <SCORE.INTRA.SOLV>
0

>  <SCORE.INTRA.SOLV.lig_0>
-4.28464

>  <SCORE.INTRA.VDW>
0

>  <SCORE.INTRA.VDW.0>
0

>  <SCORE.INTRA.norm>
0

>  <SCORE.RESTR>
0

>  <SCORE.RESTR.CAVITY>
0

>  <SCORE.RESTR.norm>
0

>  <SCORE.SYSTEM>
0

>  <SCORE.SYSTEM.CONST>
0

>  <SCORE.SYSTEM.DIHEDRAL>
0

>  <SCORE.SYSTEM.SOLV>
0

>  <SCORE.SYSTEM.norm>
0

>  <SCORE.heavy>
10

>  <SCORE.norm>
-1.74888

>  <RMSD>
2.443

$$$$
ligand
 OpenBabel11021811423D
libRbt.so/2013.1/901 2013/11/27
 10 11  0  0  0  0  0  0  0  0999 V2000
   11.5695    8.7417   29.5305 N   0  0  0  0  0  0  0  0  0  0  0  0
   11.7237    7.5357   28.8691 C   0  0  0  0  0  0  0  0  0  0  0  0
   11.5737    7.4323   27.5430 N   0  0  0  0  0  0  0  0  0  0  0  0
   11.2596    8.6257   26.9423 C   0  0  0  0  0  0  0  0  0  0  0  0
   11.0941    9.8511   27.5458 C   0  0  0  0  0  0  0  0  0  0  0  0
   11.2514    9.9721   28.9543 C   0  0  0  0  0  0  0  0  0  0  0  0
   11.1484   10.9649   29.6860 O   0  0  0  0  0  0  0  0  0  0  0  0
   10.7876   10.7741   26.5802 N   0  0  0  0  0  0  0  0  0  0  0  0
   10.7699   10.1145   25.4063 C   0  0  0  0  0  0  0  0  0  0  0  0
   11.0554    8.7857   25.5947 N   0  0  0  0  0  0  0  0  0  0  0  0
  1  2  1  0  0  0  0
  1  6  1  0  0  0  0
  2  3  2  0  0  0  0
  3  4  1  0  0  0  0
  4  5  2  0  0  0  0
  4 10  1  0  0  0  0
  5  6  1  0  0  0  0
  5  8  1  0  0  0  0
  6  7  2  0  0  0  0
  8  9  1  0  0  0  0
  9 10  2  0  0  0  0
M  END
>  <CHROM.1>
11.22248686,9.30974797,27.70488254,-0.96376159,1.33901371,-2.14496009

>  <Name>
ligand

>  <RI>
0

>  <Rbt.Current_Directory>
/home/itssahil/PROJECTS/Mol_Feturizer/New_Systems/rnas/2EET

>  <Rbt.Executable>
rbdock ($Id: //depot/dev/client3/rdock/2013.1/src/exe/rbdock.cxx#4 $)

>  <Rbt.Library>
libRbt.so (2013.1, Build901 2013/11/27)

>  <Rbt.Parameter_File>
/export/apps/rDock/src/rDock_2013.1_src/data/scripts/dock_solv.prm

>  <Rbt.Receptor>
prm/blind_docking_40.prm

>  <SCORE>
-17.4672

>  <SCORE.INTER>
-17.4672

>  <SCORE.INTER.CONST>
1

>  <SCORE.INTER.POLAR>
0

>  <SCORE.INTER.ROT>
0

>  <SCORE.INTER.SOLV>
3.86031

>  <SCORE.INTER.VDW>
-16.5316

>  <SCORE.INTER.norm>
-1.74672

>  <SCORE.INTRA>
0

>  <SCORE.INTRA.DIHEDRAL>
0

>  <SCORE.INTRA.DIHEDRAL.0>
0

>  <SCORE.INTRA.POLAR>
0

>  <SCORE.INTRA.POLAR.0>
0

>  <SCORE.INTRA.REPUL>
0

>  <SCORE.INTRA.REPUL.0>
0

>  <SCORE.INTRA.SOLV>
0

>  <SCORE.INTRA.SOLV.lig_0>
-4.28464

>  <SCORE.INTRA.VDW>
0

>  <SCORE.INTRA.VDW.0>
0

>  <SCORE.INTRA.norm>
0

>  <SCORE.RESTR>
0

>  <SCORE.RESTR.CAVITY>
0

>  <SCORE.RESTR.norm>
0

>  <SCORE.SYSTEM>
0

>  <SCORE.SYSTEM.CONST>
0

>  <SCORE.SYSTEM.DIHEDRAL>
0

>  <SCORE.SYSTEM.SOLV>
0

>  <SCORE.SYSTEM.norm>
0

>  <SCORE.heavy>
10

>  <SCORE.norm>
-1.74672

>  <RMSD>
2.443

$$$$
ligand
 OpenBabel11021811423D
libRbt.so/2013.1/901 2013/11/27
 10 11  0  0  0  0  0  0  0  0999 V2000
   11.5708    8.7382   29.5302 N   0  0  0  0  0  0  0  0  0  0  0  0
   11.7260    7.5327   28.8681 C   0  0  0  0  0  0  0  0  0  0  0  0
   11.5773    7.4302   27.5418 N   0  0  0  0  0  0  0  0  0  0  0  0
   11.2635    8.6239   26.9416 C   0  0  0  0  0  0  0  0  0  0  0  0
   11.0971    9.8488   27.5458 C   0  0  0  0  0  0  0  0  0  0  0  0
   11.2529    9.9690   28.9546 C   0  0  0  0  0  0  0  0  0  0  0  0
   11.1490   10.9612   29.6868 O   0  0  0  0  0  0  0  0  0  0  0  0
   10.7913   10.7725   26.5806 N   0  0  0  0  0  0  0  0  0  0  0  0
   10.7749   10.1136   25.4062 C   0  0  0  0  0  0  0  0  0  0  0  0
   11.0605    8.7848   25.5939 N   0  0  0  0  0  0  0  0  0  0  0  0
  1  2  1  0  0  0  0
  1  6  1  0  0  0  0
  2  3  2  0  0  0  0
  3  4  1  0  0  0  0
  4  5  2  0  0  0  0
  4 10  1  0  0  0  0
  5  6  1  0  0  0  0
  5  8  1  0  0  0  0
  6  7  2  0  0  0  0
  8  9  1  0  0  0  0
  9 10  2  0  0  0  0
M  END
>  <CHROM.1>
11.22544198,9.30741927,27.70464610,-0.96791173,1.33930794,-2.14022667

>  <Name>
ligand

>  <RI>
0

>  <Rbt.Current_Directory>
/home/itssahil/PROJECTS/Mol_Feturizer/New_Systems/rnas/2EET

>  <Rbt.Executable>
rbdock ($Id: //depot/dev/client3/rdock/2013.1/src/exe/rbdock.cxx#4 $)

>  <Rbt.Library>
libRbt.so (2013.1, Build901 2013/11/27)

>  <Rbt.Parameter_File>
/export/apps/rDock/src/rDock_2013.1_src/data/scripts/dock_solv.prm

>  <Rbt.Receptor>
prm/blind_docking_40.prm

>  <SCORE>
-17.4672

>  <SCORE.INTER>
-17.4672

>  <SCORE.INTER.CONST>
1

>  <SCORE.INTER.POLAR>
0

>  <SCORE.INTER.ROT>
0

>  <SCORE.INTER.SOLV>
3.8569

>  <SCORE.INTER.VDW>
-16.5304

>  <SCORE.INTER.norm>
-1.74672

>  <SCORE.INTRA>
0

>  <SCORE.INTRA.DIHEDRAL>
0

>  <SCORE.INTRA.DIHEDRAL.0>
0

>  <SCORE.INTRA.POLAR>
0

>  <SCORE.INTRA.POLAR.0>
0

>  <SCORE.INTRA.REPUL>
0

>  <SCORE.INTRA.REPUL.0>
0

>  <SCORE.INTRA.SOLV>
0

>  <SCORE.INTRA.SOLV.lig_0>
-4.28464

>  <SCORE.INTRA.VDW>
0

>  <SCORE.INTRA.VDW.0>
0

>  <SCORE.INTRA.norm>
0

>  <SCORE.RESTR>
0

>  <SCORE.RESTR.CAVITY>
0

>  <SCORE.RESTR.norm>
0

>  <SCORE.SYSTEM>
0

>  <SCORE.SYSTEM.CONST>
0

>  <SCORE.SYSTEM.DIHEDRAL>
0

>  <SCORE.SYSTEM.SOLV>
0

>  <SCORE.SYSTEM.norm>
0

>  <SCORE.heavy>
10

>  <SCORE.norm>
-1.74672

>  <RMSD>
2.443

$$$$
ligand
 OpenBabel11021811423D
libRbt.so/2013.1/901 2013/11/27
 10 11  0  0  0  0  0  0  0  0999 V2000
   11.5767    8.7344   29.5262 N   0  0  0  0  0  0  0  0  0  0  0  0
   11.7316    7.5280   28.8656 C   0  0  0  0  0  0  0  0  0  0  0  0
   11.5790    7.4232   27.5399 N   0  0  0  0  0  0  0  0  0  0  0  0
   11.2617    8.6155   26.9387 C   0  0  0  0  0  0  0  0  0  0  0  0
   11.0954    9.8411   27.5414 C   0  0  0  0  0  0  0  0  0  0  0  0
   11.2553    9.9637   28.9496 C   0  0  0  0  0  0  0  0  0  0  0  0
   11.1522   10.9570   29.6805 O   0  0  0  0  0  0  0  0  0  0  0  0
   10.7854   10.7628   26.5757 N   0  0  0  0  0  0  0  0  0  0  0  0
   10.7664   10.1020   25.4024 C   0  0  0  0  0  0  0  0  0  0  0  0
   11.0545    8.7739   25.5914 N   0  0  0  0  0  0  0  0  0  0  0  0
  1  2  1  0  0  0  0
  1  6  1  0  0  0  0
  2  3  2  0  0  0  0
  3  4  1  0  0  0  0
  4  5  2  0  0  0  0
  4 10  1  0  0  0  0
  5  6  1  0  0  0  0
  5  8  1  0  0  0  0
  6  7  2  0  0  0  0
  8  9  1  0  0  0  0
  9 10  2  0  0  0  0
M  END
>  <CHROM.1>
11.22497494,9.30014820,27.70079263,-0.96032042,1.33649002,-2.14921336

>  <Name>
ligand

>  <RI>
0

>  <Rbt.Current_Directory>
/home/itssahil/PROJECTS/Mol_Feturizer/New_Systems/rnas/2EET

>  <Rbt.Executable>
rbdock ($Id: //depot/dev/client3/rdock/2013.1/src/exe/rbdock.cxx#4 $)

>  <Rbt.Library>
libRbt.so (2013.1, Build901 2013/11/27)

>  <Rbt.Parameter_File>
/export/apps/rDock/src/rDock_2013.1_src/data/scripts/dock_solv.prm

>  <Rbt.Receptor>
prm/blind_docking_60.prm

>  <SCORE>
-17.4678

>  <SCORE.INTER>
-17.4678

>  <SCORE.INTER.CONST>
1

>  <SCORE.INTER.POLAR>
0

>  <SCORE.INTER.ROT>
0

>  <SCORE.INTER.SOLV>
3.85349

>  <SCORE.INTER.VDW>
-16.5297

>  <SCORE.INTER.norm>
-1.74678

>  <SCORE.INTRA>
0

>  <SCORE.INTRA.DIHEDRAL>
0

>  <SCORE.INTRA.DIHEDRAL.0>
0

>  <SCORE.INTRA.POLAR>
0

>  <SCORE.INTRA.POLAR.0>
0

>  <SCORE.INTRA.REPUL>
0

>  <SCORE.INTRA.REPUL.0>
0

>  <SCORE.INTRA.SOLV>
0

>  <SCORE.INTRA.SOLV.lig_0>
-4.28464

>  <SCORE.INTRA.VDW>
0

>  <SCORE.INTRA.VDW.0>
0

>  <SCORE.INTRA.norm>
0

>  <SCORE.RESTR>
0

>  <SCORE.RESTR.CAVITY>
0

>  <SCORE.RESTR.norm>
0

>  <SCORE.SYSTEM>
0

>  <SCORE.SYSTEM.CONST>
0

>  <SCORE.SYSTEM.DIHEDRAL>
0

>  <SCORE.SYSTEM.SOLV>
0

>  <SCORE.SYSTEM.norm>
0

>  <SCORE.heavy>
10

>  <SCORE.norm>
-1.74678

>  <RMSD>
2.443

$$$$
ligand
 OpenBabel11021811423D
libRbt.so/2013.1/901 2013/11/27
 10 11  0  0  0  0  0  0  0  0999 V2000
   11.6149    8.7146   29.5454 N   0  0  0  0  0  0  0  0  0  0  0  0
   11.8066    7.5107   28.8900 C   0  0  0  0  0  0  0  0  0  0  0  0
   11.6392    7.3912   27.5674 N   0  0  0  0  0  0  0  0  0  0  0  0
   11.2678    8.5663   26.9636 C   0  0  0  0  0  0  0  0  0  0  0  0
   11.0632    9.7887   27.5611 C   0  0  0  0  0  0  0  0  0  0  0  0
   11.2384    9.9268   28.9660 C   0  0  0  0  0  0  0  0  0  0  0  0
   11.1077   10.9203   29.6922 O   0  0  0  0  0  0  0  0  0  0  0  0
   10.7043   10.6914   26.5943 N   0  0  0  0  0  0  0  0  0  0  0  0
   10.6939   10.0225   25.4255 C   0  0  0  0  0  0  0  0  0  0  0  0
   11.0355    8.7077   25.6185 N   0  0  0  0  0  0  0  0  0  0  0  0
  1  2  1  0  0  0  0
  1  6  1  0  0  0  0
  2  3  2  0  0  0  0
  3  4  1  0  0  0  0
  4  5  2  0  0  0  0
  4 10  1  0  0  0  0
  5  6  1  0  0  0  0
  5  8  1  0  0  0  0
  6  7  2  0  0  0  0
  8  9  1  0  0  0  0
  9 10  2  0  0  0  0
M  END
>  <CHROM.1>
11.21573619,9.25421848,27.72186511,-0.99365901,1.29638680,-2.12337524

>  <Name>
ligand

>  <RI>
0

>  <Rbt.Current_Directory>
/home/itssahil/PROJECTS/Mol_Feturizer/New_Systems/rnas/2EET

>  <Rbt.Executable>
rbdock ($Id: //depot/dev/client3/rdock/2013.1/src/exe/rbdock.cxx#4 $)

>  <Rbt.Library>
libRbt.so (2013.1, Build901 2013/11/27)

>  <Rbt.Parameter_File>
/export/apps/rDock/src/rDock_2013.1_src/data/scripts/dock_solv.prm

>  <Rbt.Receptor>
prm/blind_docking_60.prm

>  <SCORE>
-17.5069

>  <SCORE.INTER>
-17.5069

>  <SCORE.INTER.CONST>
1

>  <SCORE.INTER.POLAR>
0

>  <SCORE.INTER.ROT>
0

>  <SCORE.INTER.SOLV>
3.81985

>  <SCORE.INTER.VDW>
-16.5445

>  <SCORE.INTER.norm>
-1.75069

>  <SCORE.INTRA>
0

>  <SCORE.INTRA.DIHEDRAL>
0

>  <SCORE.INTRA.DIHEDRAL.0>
0

>  <SCORE.INTRA.POLAR>
0

>  <SCORE.INTRA.POLAR.0>
0

>  <SCORE.INTRA.REPUL>
0

>  <SCORE.INTRA.REPUL.0>
0

>  <SCORE.INTRA.SOLV>
0

>  <SCORE.INTRA.SOLV.lig_0>
-4.28464

>  <SCORE.INTRA.VDW>
0

>  <SCORE.INTRA.VDW.0>
0

>  <SCORE.INTRA.norm>
0

>  <SCORE.RESTR>
0

>  <SCORE.RESTR.CAVITY>
0

>  <SCORE.RESTR.norm>
0

>  <SCORE.SYSTEM>
0

>  <SCORE.SYSTEM.CONST>
0

>  <SCORE.SYSTEM.DIHEDRAL>
0

>  <SCORE.SYSTEM.SOLV>
0

>  <SCORE.SYSTEM.norm>
0

>  <SCORE.heavy>
10

>  <SCORE.norm>
-1.75069

>  <RMSD>
2.443

$$$$
ligand
 OpenBabel11021811423D
libRbt.so/2013.1/901 2013/11/27
 10 11  0  0  0  0  0  0  0  0999 V2000
   11.5710    8.7401   29.5305 N   0  0  0  0  0  0  0  0  0  0  0  0
   11.7253    7.5338   28.8696 C   0  0  0  0  0  0  0  0  0  0  0  0
   11.5728    7.4294   27.5439 N   0  0  0  0  0  0  0  0  0  0  0  0
   11.2562    8.6220   26.9430 C   0  0  0  0  0  0  0  0  0  0  0  0
   11.0904    9.8476   27.5460 C   0  0  0  0  0  0  0  0  0  0  0  0
   11.2503    9.9698   28.9542 C   0  0  0  0  0  0  0  0  0  0  0  0
   11.1477   10.9629   29.6854 O   0  0  0  0  0  0  0  0  0  0  0  0
   10.7810   10.7696   26.5804 N   0  0  0  0  0  0  0  0  0  0  0  0
   10.7617   10.1092   25.4070 C   0  0  0  0  0  0  0  0  0  0  0  0
   11.0491    8.7808   25.5957 N   0  0  0  0  0  0  0  0  0  0  0  0
  1  2  1  0  0  0  0
  1  6  1  0  0  0  0
  2  3  2  0  0  0  0
  3  4  1  0  0  0  0
  4  5  2  0  0  0  0
  4 10  1  0  0  0  0
  5  6  1  0  0  0  0
  5  8  1  0  0  0  0
  6  7  2  0  0  0  0
  8  9  1  0  0  0  0
  9 10  2  0  0  0  0
M  END
>  <CHROM.1>
11.21973139,9.30651086,27.70524539,-0.95930929,1.33696278,-2.14995520

>  <Name>
ligand

>  <RI>
0

>  <Rbt.Current_Directory>
/home/itssahil/PROJECTS/Mol_Feturizer/New_Systems/rnas/2EET

>  <Rbt.Executable>
rbdock ($Id: //depot/dev/client3/rdock/2013.1/src/exe/rbdock.cxx#4 $)

>  <Rbt.Library>
libRbt.so (2013.1, Build901 2013/11/27)

>  <Rbt.Parameter_File>
/export/apps/rDock/src/rDock_2013.1_src/data/scripts/dock_solv.prm

>  <Rbt.Receptor>
prm/blind_docking_60.prm

>  <SCORE>
-17.4656

>  <SCORE.INTER>
-17.4656

>  <SCORE.INTER.CONST>
1

>  <SCORE.INTER.POLAR>
0

>  <SCORE.INTER.ROT>
0

>  <SCORE.INTER.SOLV>
3.85952

>  <SCORE.INTER.VDW>
-16.5302

>  <SCORE.INTER.norm>
-1.74656

>  <SCORE.INTRA>
0

>  <SCORE.INTRA.DIHEDRAL>
0

>  <SCORE.INTRA.DIHEDRAL.0>
0

>  <SCORE.INTRA.POLAR>
0

>  <SCORE.INTRA.POLAR.0>
0

>  <SCORE.INTRA.REPUL>
0

>  <SCORE.INTRA.REPUL.0>
0

>  <SCORE.INTRA.SOLV>
0

>  <SCORE.INTRA.SOLV.lig_0>
-4.28464

>  <SCORE.INTRA.VDW>
0

>  <SCORE.INTRA.VDW.0>
0

>  <SCORE.INTRA.norm>
0

>  <SCORE.RESTR>
0

>  <SCORE.RESTR.CAVITY>
0

>  <SCORE.RESTR.norm>
0

>  <SCORE.SYSTEM>
0

>  <SCORE.SYSTEM.CONST>
0

>  <SCORE.SYSTEM.DIHEDRAL>
0

>  <SCORE.SYSTEM.SOLV>
0

>  <SCORE.SYSTEM.norm>
0

>  <SCORE.heavy>
10

>  <SCORE.norm>
-1.74656

>  <RMSD>
2.443

$$$$
ligand
 OpenBabel11021811423D
libRbt.so/2013.1/901 2013/11/27
 10 11  0  0  0  0  0  0  0  0999 V2000
   11.6156    8.7141   29.5481 N   0  0  0  0  0  0  0  0  0  0  0  0
   11.8035    7.5082   28.8952 C   0  0  0  0  0  0  0  0  0  0  0  0
   11.6358    7.3865   27.5728 N   0  0  0  0  0  0  0  0  0  0  0  0
   11.2680    8.5616   26.9666 C   0  0  0  0  0  0  0  0  0  0  0  0
   11.0671    9.7858   27.5616 C   0  0  0  0  0  0  0  0  0  0  0  0
   11.2427    9.9263   28.9662 C   0  0  0  0  0  0  0  0  0  0  0  0
   11.1151   10.9217   29.6904 O   0  0  0  0  0  0  0  0  0  0  0  0
   10.7110   10.6875   26.5929 N   0  0  0  0  0  0  0  0  0  0  0  0
   10.6985   10.0163   25.4255 C   0  0  0  0  0  0  0  0  0  0  0  0
   11.0360    8.7008   25.6212 N   0  0  0  0  0  0  0  0  0  0  0  0
  1  2  1  0  0  0  0
  1  6  1  0  0  0  0
  2  3  2  0  0  0  0
  3  4  1  0  0  0  0
  4  5  2  0  0  0  0
  4 10  1  0  0  0  0
  5  6  1  0  0  0  0
  5  8  1  0  0  0  0
  6  7  2  0  0  0  0
  8  9  1  0  0  0  0
  9 10  2  0  0  0  0
M  END
>  <CHROM.1>
11.21800304,9.25117208,27.72346926,-0.98758119,1.29898118,-2.13129496

>  <Name>
ligand

>  <RI>
0

>  <Rbt.Current_Directory>
/home/itssahil/PROJECTS/Mol_Feturizer/New_Systems/rnas/2EET

>  <Rbt.Executable>
rbdock ($Id: //depot/dev/client3/rdock/2013.1/src/exe/rbdock.cxx#4 $)

>  <Rbt.Library>
libRbt.so (2013.1, Build901 2013/11/27)

>  <Rbt.Parameter_File>
/export/apps/rDock/src/rDock_2013.1_src/data/scripts/dock_solv.prm

>  <Rbt.Receptor>
prm/pocket_docking_4.prm

>  <SCORE>
-17.5016

>  <SCORE.INTER>
-17.5016

>  <SCORE.INTER.CONST>
1

>  <SCORE.INTER.POLAR>
0

>  <SCORE.INTER.ROT>
0

>  <SCORE.INTER.SOLV>
3.82383

>  <SCORE.INTER.VDW>
-16.5423

>  <SCORE.INTER.norm>
-1.75016

>  <SCORE.INTRA>
0

>  <SCORE.INTRA.DIHEDRAL>
0

>  <SCORE.INTRA.DIHEDRAL.0>
0

>  <SCORE.INTRA.POLAR>
0

>  <SCORE.INTRA.POLAR.0>
0

>  <SCORE.INTRA.REPUL>
0

>  <SCORE.INTRA.REPUL.0>
0

>  <SCORE.INTRA.SOLV>
0

>  <SCORE.INTRA.SOLV.lig_0>
-4.28464

>  <SCORE.INTRA.VDW>
0

>  <SCORE.INTRA.VDW.0>
0

>  <SCORE.INTRA.norm>
0

>  <SCORE.RESTR>
0

>  <SCORE.RESTR.CAVITY>
0

>  <SCORE.RESTR.norm>
0

>  <SCORE.SYSTEM>
0

>  <SCORE.SYSTEM.CONST>
0

>  <SCORE.SYSTEM.DIHEDRAL>
0

>  <SCORE.SYSTEM.SOLV>
0

>  <SCORE.SYSTEM.norm>
0

>  <SCORE.heavy>
10

>  <SCORE.norm>
-1.75016

>  <RMSD>
2.443

$$$$
ligand
 OpenBabel11021811423D
libRbt.so/2013.1/901 2013/11/27
 10 11  0  0  0  0  0  0  0  0999 V2000
   11.5815    8.7315   29.5272 N   0  0  0  0  0  0  0  0  0  0  0  0
   11.7281    7.5246   28.8657 C   0  0  0  0  0  0  0  0  0  0  0  0
   11.5682    7.4205   27.5408 N   0  0  0  0  0  0  0  0  0  0  0  0
   11.2524    8.6141   26.9414 C   0  0  0  0  0  0  0  0  0  0  0  0
   11.0942    9.8403   27.5451 C   0  0  0  0  0  0  0  0  0  0  0  0
   11.2620    9.9622   28.9524 C   0  0  0  0  0  0  0  0  0  0  0  0
   11.1667   10.9558   29.6840 O   0  0  0  0  0  0  0  0  0  0  0  0
   10.7827   10.7633   26.5811 N   0  0  0  0  0  0  0  0  0  0  0  0
   10.7549   10.1028   25.4079 C   0  0  0  0  0  0  0  0  0  0  0  0
   11.0387    8.7735   25.5953 N   0  0  0  0  0  0  0  0  0  0  0  0
  1  2  1  0  0  0  0
  1  6  1  0  0  0  0
  2  3  2  0  0  0  0
  3  4  1  0  0  0  0
  4  5  2  0  0  0  0
  4 10  1  0  0  0  0
  5  6  1  0  0  0  0
  5  8  1  0  0  0  0
  6  7  2  0  0  0  0
  8  9  1  0  0  0  0
  9 10  2  0  0  0  0
M  END
>  <CHROM.1>
11.22244915,9.29884304,27.70375968,-0.93184882,1.33684293,-2.17682161

>  <Name>
ligand

>  <RI>
0

>  <Rbt.Current_Directory>
/home/itssahil/PROJECTS/Mol_Feturizer/New_Systems/rnas/2EET

>  <Rbt.Executable>
rbdock ($Id: //depot/dev/client3/rdock/2013.1/src/exe/rbdock.cxx#4 $)

>  <Rbt.Library>
libRbt.so (2013.1, Build901 2013/11/27)

>  <Rbt.Parameter_File>
/export/apps/rDock/src/rDock_2013.1_src/data/scripts/dock_solv.prm

>  <Rbt.Receptor>
prm/pocket_docking_5.prm

>  <SCORE>
-17.4624

>  <SCORE.INTER>
-17.4624

>  <SCORE.INTER.CONST>
1

>  <SCORE.INTER.POLAR>
0

>  <SCORE.INTER.ROT>
0

>  <SCORE.INTER.SOLV>
3.85244

>  <SCORE.INTER.VDW>
-16.5257

>  <SCORE.INTER.norm>
-1.74624

>  <SCORE.INTRA>
0

>  <SCORE.INTRA.DIHEDRAL>
0

>  <SCORE.INTRA.DIHEDRAL.0>
0

>  <SCORE.INTRA.POLAR>
0

>  <SCORE.INTRA.POLAR.0>
0

>  <SCORE.INTRA.REPUL>
0

>  <SCORE.INTRA.REPUL.0>
0

>  <SCORE.INTRA.SOLV>
0

>  <SCORE.INTRA.SOLV.lig_0>
-4.28464

>  <SCORE.INTRA.VDW>
0

>  <SCORE.INTRA.VDW.0>
0

>  <SCORE.INTRA.norm>
0

>  <SCORE.RESTR>
0

>  <SCORE.RESTR.CAVITY>
0

>  <SCORE.RESTR.norm>
0

>  <SCORE.SYSTEM>
0

>  <SCORE.SYSTEM.CONST>
0

>  <SCORE.SYSTEM.DIHEDRAL>
0

>  <SCORE.SYSTEM.SOLV>
0

>  <SCORE.SYSTEM.norm>
0

>  <SCORE.heavy>
10

>  <SCORE.norm>
-1.74624

>  <RMSD>
2.443

$$$$
ligand
 OpenBabel11021811423D
libRbt.so/2013.1/901 2013/11/27
 10 11  0  0  0  0  0  0  0  0999 V2000
   11.5705    8.7374   29.5301 N   0  0  0  0  0  0  0  0  0  0  0  0
   11.7304    7.5324   28.8682 C   0  0  0  0  0  0  0  0  0  0  0  0
   11.5827    7.4292   27.5418 N   0  0  0  0  0  0  0  0  0  0  0  0
   11.2648    8.6216   26.9413 C   0  0  0  0  0  0  0  0  0  0  0  0
   11.0937    9.8460   27.5453 C   0  0  0  0  0  0  0  0  0  0  0  0
   11.2484    9.9669   28.9541 C   0  0  0  0  0  0  0  0  0  0  0  0
   11.1405   10.9588   29.6862 O   0  0  0  0  0  0  0  0  0  0  0  0
   10.7850   10.7684   26.5798 N   0  0  0  0  0  0  0  0  0  0  0  0
   10.7715   10.1094   25.4055 C   0  0  0  0  0  0  0  0  0  0  0  0
   11.0619    8.7816   25.5935 N   0  0  0  0  0  0  0  0  0  0  0  0
  1  2  1  0  0  0  0
  1  6  1  0  0  0  0
  2  3  2  0  0  0  0
  3  4  1  0  0  0  0
  4  5  2  0  0  0  0
  4 10  1  0  0  0  0
  5  6  1  0  0  0  0
  5  8  1  0  0  0  0
  6  7  2  0  0  0  0
  8  9  1  0  0  0  0
  9 10  2  0  0  0  0
M  END
>  <CHROM.1>
11.22390883,9.30508931,27.70426876,-0.97810338,1.33650803,-2.13043659

>  <Name>
ligand

>  <RI>
0

>  <Rbt.Current_Directory>
/home/itssahil/PROJECTS/Mol_Feturizer/New_Systems/rnas/2EET

>  <Rbt.Executable>
rbdock ($Id: //depot/dev/client3/rdock/2013.1/src/exe/rbdock.cxx#4 $)

>  <Rbt.Library>
libRbt.so (2013.1, Build901 2013/11/27)

>  <Rbt.Parameter_File>
/export/apps/rDock/src/rDock_2013.1_src/data/scripts/dock_solv.prm

>  <Rbt.Receptor>
prm/pocket_docking_5.prm

>  <SCORE>
-17.4667

>  <SCORE.INTER>
-17.4667

>  <SCORE.INTER.CONST>
1

>  <SCORE.INTER.POLAR>
0

>  <SCORE.INTER.ROT>
0

>  <SCORE.INTER.SOLV>
3.8552

>  <SCORE.INTER.VDW>
-16.5296

>  <SCORE.INTER.norm>
-1.74667

>  <SCORE.INTRA>
0

>  <SCORE.INTRA.DIHEDRAL>
0

>  <SCORE.INTRA.DIHEDRAL.0>
0

>  <SCORE.INTRA.POLAR>
0

>  <SCORE.INTRA.POLAR.0>
0

>  <SCORE.INTRA.REPUL>
0

>  <SCORE.INTRA.REPUL.0>
0

>  <SCORE.INTRA.SOLV>
0

>  <SCORE.INTRA.SOLV.lig_0>
-4.28464

>  <SCORE.INTRA.VDW>
0

>  <SCORE.INTRA.VDW.0>
0

>  <SCORE.INTRA.norm>
0

>  <SCORE.RESTR>
0

>  <SCORE.RESTR.CAVITY>
0

>  <SCORE.RESTR.norm>
0

>  <SCORE.SYSTEM>
0

>  <SCORE.SYSTEM.CONST>
0

>  <SCORE.SYSTEM.DIHEDRAL>
0

>  <SCORE.SYSTEM.SOLV>
0

>  <SCORE.SYSTEM.norm>
0

>  <SCORE.heavy>
10

>  <SCORE.norm>
-1.74667

>  <RMSD>
2.443

$$$$
ligand
 OpenBabel11021811423D
libRbt.so/2013.1/901 2013/11/27
 10 11  0  0  0  0  0  0  0  0999 V2000
   11.5763    8.7363   29.5300 N   0  0  0  0  0  0  0  0  0  0  0  0
   11.7265    7.5295   28.8691 C   0  0  0  0  0  0  0  0  0  0  0  0
   11.5748    7.4258   27.5432 N   0  0  0  0  0  0  0  0  0  0  0  0
   11.2635    8.6197   26.9421 C   0  0  0  0  0  0  0  0  0  0  0  0
   11.1021    9.8459   27.5451 C   0  0  0  0  0  0  0  0  0  0  0  0
   11.2611    9.9673   28.9535 C   0  0  0  0  0  0  0  0  0  0  0  0
   11.1617   10.9608   29.6846 O   0  0  0  0  0  0  0  0  0  0  0  0
   10.7973   10.7693   26.5793 N   0  0  0  0  0  0  0  0  0  0  0  0
   10.7765   10.1090   25.4058 C   0  0  0  0  0  0  0  0  0  0  0  0
   11.0584    8.7795   25.5947 N   0  0  0  0  0  0  0  0  0  0  0  0
  1  2  1  0  0  0  0
  1  6  1  0  0  0  0
  2  3  2  0  0  0  0
  3  4  1  0  0  0  0
  4  5  2  0  0  0  0
  4 10  1  0  0  0  0
  5  6  1  0  0  0  0
  5  8  1  0  0  0  0
  6  7  2  0  0  0  0
  8  9  1  0  0  0  0
  9 10  2  0  0  0  0
M  END
>  <CHROM.1>
11.22910465,9.30430984,27.70440660,-0.95334735,1.34083096,-2.15567164

>  <Name>
ligand

>  <RI>
0

>  <Rbt.Current_Directory>
/home/itssahil/PROJECTS/Mol_Feturizer/New_Systems/rnas/2EET

>  <Rbt.Executable>
rbdock ($Id: //depot/dev/client3/rdock/2013.1/src/exe/rbdock.cxx#4 $)

>  <Rbt.Library>
libRbt.so (2013.1, Build901 2013/11/27)

>  <Rbt.Parameter_File>
/export/apps/rDock/src/rDock_2013.1_src/data/scripts/dock_solv.prm

>  <Rbt.Receptor>
prm/pocket_docking_6.prm

>  <SCORE>
-17.4667

>  <SCORE.INTER>
-17.4667

>  <SCORE.INTER.CONST>
1

>  <SCORE.INTER.POLAR>
0

>  <SCORE.INTER.ROT>
0

>  <SCORE.INTER.SOLV>
3.8561

>  <SCORE.INTER.VDW>
-16.5299

>  <SCORE.INTER.norm>
-1.74667

>  <SCORE.INTRA>
0

>  <SCORE.INTRA.DIHEDRAL>
0

>  <SCORE.INTRA.DIHEDRAL.0>
0

>  <SCORE.INTRA.POLAR>
0

>  <SCORE.INTRA.POLAR.0>
0

>  <SCORE.INTRA.REPUL>
0

>  <SCORE.INTRA.REPUL.0>
0

>  <SCORE.INTRA.SOLV>
0

>  <SCORE.INTRA.SOLV.lig_0>
-4.28464

>  <SCORE.INTRA.VDW>
0

>  <SCORE.INTRA.VDW.0>
0

>  <SCORE.INTRA.norm>
0

>  <SCORE.RESTR>
0

>  <SCORE.RESTR.CAVITY>
0

>  <SCORE.RESTR.norm>
0

>  <SCORE.SYSTEM>
0

>  <SCORE.SYSTEM.CONST>
0

>  <SCORE.SYSTEM.DIHEDRAL>
0

>  <SCORE.SYSTEM.SOLV>
0

>  <SCORE.SYSTEM.norm>
0

>  <SCORE.heavy>
10

>  <SCORE.norm>
-1.74667

>  <RMSD>
2.443

$$$$
ligand
 OpenBabel11021811423D
libRbt.so/2013.1/901 2013/11/27
 10 11  0  0  0  0  0  0  0  0999 V2000
   11.5806    8.7312   29.5267 N   0  0  0  0  0  0  0  0  0  0  0  0
   11.7286    7.5247   28.8648 C   0  0  0  0  0  0  0  0  0  0  0  0
   11.5747    7.4220   27.5391 N   0  0  0  0  0  0  0  0  0  0  0  0
   11.2635    8.6165   26.9393 C   0  0  0  0  0  0  0  0  0  0  0  0
   11.1041    9.8425   27.5433 C   0  0  0  0  0  0  0  0  0  0  0  0
   11.2655    9.9628   28.9515 C   0  0  0  0  0  0  0  0  0  0  0  0
   11.1681   10.9559   29.6834 O   0  0  0  0  0  0  0  0  0  0  0  0
   10.7985   10.7667   26.5786 N   0  0  0  0  0  0  0  0  0  0  0  0
   10.7752   10.1072   25.4047 C   0  0  0  0  0  0  0  0  0  0  0  0
   11.0563    8.7774   25.5923 N   0  0  0  0  0  0  0  0  0  0  0  0
  1  2  1  0  0  0  0
  1  6  1  0  0  0  0
  2  3  2  0  0  0  0
  3  4  1  0  0  0  0
  4  5  2  0  0  0  0
  4 10  1  0  0  0  0
  5  6  1  0  0  0  0
  5  8  1  0  0  0  0
  6  7  2  0  0  0  0
  8  9  1  0  0  0  0
  9 10  2  0  0  0  0
M  END
>  <CHROM.1>
11.23085777,9.30065602,27.70204546,-0.94528208,1.34063825,-2.16286334

>  <Name>
ligand

>  <RI>
0

>  <Rbt.Current_Directory>
/home/itssahil/PROJECTS/Mol_Feturizer/New_Systems/rnas/2EET

>  <Rbt.Executable>
rbdock ($Id: //depot/dev/client3/rdock/2013.1/src/exe/rbdock.cxx#4 $)

>  <Rbt.Library>
libRbt.so (2013.1, Build901 2013/11/27)

>  <Rbt.Parameter_File>
/export/apps/rDock/src/rDock_2013.1_src/data/scripts/dock_solv.prm

>  <Rbt.Receptor>
prm/pocket_docking_7.prm

>  <SCORE>
-17.467

>  <SCORE.INTER>
-17.467

>  <SCORE.INTER.CONST>
1

>  <SCORE.INTER.POLAR>
0

>  <SCORE.INTER.ROT>
0

>  <SCORE.INTER.SOLV>
3.85116

>  <SCORE.INTER.VDW>
-16.5284

>  <SCORE.INTER.norm>
-1.7467

>  <SCORE.INTRA>
0

>  <SCORE.INTRA.DIHEDRAL>
0

>  <SCORE.INTRA.DIHEDRAL.0>
0

>  <SCORE.INTRA.POLAR>
0

>  <SCORE.INTRA.POLAR.0>
0

>  <SCORE.INTRA.REPUL>
0

>  <SCORE.INTRA.REPUL.0>
0

>  <SCORE.INTRA.SOLV>
0

>  <SCORE.INTRA.SOLV.lig_0>
-4.28464

>  <SCORE.INTRA.VDW>
0

>  <SCORE.INTRA.VDW.0>
0

>  <SCORE.INTRA.norm>
0

>  <SCORE.RESTR>
0

>  <SCORE.RESTR.CAVITY>
0

>  <SCORE.RESTR.norm>
0

>  <SCORE.SYSTEM>
0

>  <SCORE.SYSTEM.CONST>
0

>  <SCORE.SYSTEM.DIHEDRAL>
0

>  <SCORE.SYSTEM.SOLV>
0

>  <SCORE.SYSTEM.norm>
0

>  <SCORE.heavy>
10

>  <SCORE.norm>
-1.7467

>  <RMSD>
2.443

$$$$
ligand
 OpenBabel11021811423D
libRbt.so/2013.1/901 2013/11/27
 10 11  0  0  0  0  0  0  0  0999 V2000
   11.5773    8.7497   29.5585 N   0  0  0  0  0  0  0  0  0  0  0  0
   11.7293    7.5340   28.9145 C   0  0  0  0  0  0  0  0  0  0  0  0
   11.5697    7.4099   27.5913 N   0  0  0  0  0  0  0  0  0  0  0  0
   11.2485    8.5932   26.9747 C   0  0  0  0  0  0  0  0  0  0  0  0
   11.0847    9.8274   27.5606 C   0  0  0  0  0  0  0  0  0  0  0  0
   11.2521    9.9704   28.9659 C   0  0  0  0  0  0  0  0  0  0  0  0
   11.1523   10.9741   29.6829 O   0  0  0  0  0  0  0  0  0  0  0  0
   10.7690   10.7348   26.5832 N   0  0  0  0  0  0  0  0  0  0  0  0
   10.7441   10.0572   25.4197 C   0  0  0  0  0  0  0  0  0  0  0  0
   11.0340    8.7320   25.6264 N   0  0  0  0  0  0  0  0  0  0  0  0
  1  2  1  0  0  0  0
  1  6  1  0  0  0  0
  2  3  2  0  0  0  0
  3  4  1  0  0  0  0
  4  5  2  0  0  0  0
  4 10  1  0  0  0  0
  5  6  1  0  0  0  0
  5  8  1  0  0  0  0
  6  7  2  0  0  0  0
  8  9  1  0  0  0  0
  9 10  2  0  0  0  0
M  END
>  <CHROM.1>
11.21548374,9.28884520,27.72700822,-0.94266142,1.33304688,-2.18083717

>  <Name>
ligand

>  <RI>
0

>  <Rbt.Current_Directory>
/home/itssahil/PROJECTS/Mol_Feturizer/New_Systems/rnas/2EET

>  <Rbt.Executable>
rbdock ($Id: //depot/dev/client3/rdock/2013.1/src/exe/rbdock.cxx#4 $)

>  <Rbt.Library>
libRbt.so (2013.1, Build901 2013/11/27)

>  <Rbt.Parameter_File>
/export/apps/rDock/src/rDock_2013.1_src/data/scripts/dock_solv.prm

>  <Rbt.Receptor>
prm/pocket_docking_7.prm

>  <SCORE>
-17.4918

>  <SCORE.INTER>
-17.4918

>  <SCORE.INTER.CONST>
1

>  <SCORE.INTER.POLAR>
0

>  <SCORE.INTER.ROT>
0

>  <SCORE.INTER.SOLV>
3.8802

>  <SCORE.INTER.VDW>
-16.5546

>  <SCORE.INTER.norm>
-1.74918

>  <SCORE.INTRA>
0

>  <SCORE.INTRA.DIHEDRAL>
0

>  <SCORE.INTRA.DIHEDRAL.0>
0

>  <SCORE.INTRA.POLAR>
0

>  <SCORE.INTRA.POLAR.0>
0

>  <SCORE.INTRA.REPUL>
0

>  <SCORE.INTRA.REPUL.0>
0

>  <SCORE.INTRA.SOLV>
0

>  <SCORE.INTRA.SOLV.lig_0>
-4.28464

>  <SCORE.INTRA.VDW>
0

>  <SCORE.INTRA.VDW.0>
0

>  <SCORE.INTRA.norm>
0

>  <SCORE.RESTR>
0

>  <SCORE.RESTR.CAVITY>
0

>  <SCORE.RESTR.norm>
0

>  <SCORE.SYSTEM>
0

>  <SCORE.SYSTEM.CONST>
0

>  <SCORE.SYSTEM.DIHEDRAL>
0

>  <SCORE.SYSTEM.SOLV>
0

>  <SCORE.SYSTEM.norm>
0

>  <SCORE.heavy>
10

>  <SCORE.norm>
-1.74918

>  <RMSD>
2.443

$$$$
ligand
 OpenBabel11021811423D
libRbt.so/2013.1/901 2013/11/27
 10 11  0  0  0  0  0  0  0  0999 V2000
   11.5499    8.7163   29.5511 N   0  0  0  0  0  0  0  0  0  0  0  0
   11.7226    7.5180   28.8803 C   0  0  0  0  0  0  0  0  0  0  0  0
   11.5818    7.4242   27.5525 N   0  0  0  0  0  0  0  0  0  0  0  0
   11.2569    8.6188   26.9601 C   0  0  0  0  0  0  0  0  0  0  0  0
   11.0730    9.8369   27.5731 C   0  0  0  0  0  0  0  0  0  0  0  0
   11.2203    9.9477   28.9836 C   0  0  0  0  0  0  0  0  0  0  0  0
   11.1010   10.9328   29.7230 O   0  0  0  0  0  0  0  0  0  0  0  0
   10.7612   10.7645   26.6136 N   0  0  0  0  0  0  0  0  0  0  0  0
   10.7584   10.1148   25.4340 C   0  0  0  0  0  0  0  0  0  0  0  0
   11.0589    8.7880   25.6127 N   0  0  0  0  0  0  0  0  0  0  0  0
  1  2  1  0  0  0  0
  1  6  1  0  0  0  0
  2  3  2  0  0  0  0
  3  4  1  0  0  0  0
  4  5  2  0  0  0  0
  4 10  1  0  0  0  0
  5  6  1  0  0  0  0
  5  8  1  0  0  0  0
  6  7  2  0  0  0  0
  8  9  1  0  0  0  0
  9 10  2  0  0  0  0
M  END
>  <CHROM.1>
11.20693813,9.29580105,27.72832920,-1.01279207,1.33183289,-2.08868340

>  <Name>
ligand

>  <RI>
0

>  <Rbt.Current_Directory>
/home/itssahil/PROJECTS/Mol_Feturizer/New_Systems/rnas/2EET

>  <Rbt.Executable>
rbdock ($Id: //depot/dev/client3/rdock/2013.1/src/exe/rbdock.cxx#4 $)

>  <Rbt.Library>
libRbt.so (2013.1, Build901 2013/11/27)

>  <Rbt.Parameter_File>
/export/apps/rDock/src/rDock_2013.1_src/data/scripts/dock_solv.prm

>  <Rbt.Receptor>
prm/pocket_docking_8.prm

>  <SCORE>
-17.47

>  <SCORE.INTER>
-17.47

>  <SCORE.INTER.CONST>
1

>  <SCORE.INTER.POLAR>
0

>  <SCORE.INTER.ROT>
0

>  <SCORE.INTER.SOLV>
3.84603

>  <SCORE.INTER.VDW>
-16.5286

>  <SCORE.INTER.norm>
-1.747

>  <SCORE.INTRA>
0

>  <SCORE.INTRA.DIHEDRAL>
0

>  <SCORE.INTRA.DIHEDRAL.0>
0

>  <SCORE.INTRA.POLAR>
0

>  <SCORE.INTRA.POLAR.0>
0

>  <SCORE.INTRA.REPUL>
0

>  <SCORE.INTRA.REPUL.0>
0

>  <SCORE.INTRA.SOLV>
0

>  <SCORE.INTRA.SOLV.lig_0>
-4.28464

>  <SCORE.INTRA.VDW>
0

>  <SCORE.INTRA.VDW.0>
0

>  <SCORE.INTRA.norm>
0

>  <SCORE.RESTR>
0

>  <SCORE.RESTR.CAVITY>
0

>  <SCORE.RESTR.norm>
0

>  <SCORE.SYSTEM>
0

>  <SCORE.SYSTEM.CONST>
0

>  <SCORE.SYSTEM.DIHEDRAL>
0

>  <SCORE.SYSTEM.SOLV>
0

>  <SCORE.SYSTEM.norm>
0

>  <SCORE.heavy>
10

>  <SCORE.norm>
-1.747

>  <RMSD>
2.443

$$$$
ligand
 OpenBabel11021811423D
libRbt.so/2013.1/901 2013/11/27
 10 11  0  0  0  0  0  0  0  0999 V2000
   11.5437    8.7718   29.5984 N   0  0  0  0  0  0  0  0  0  0  0  0
   11.7142    7.5492   28.9724 C   0  0  0  0  0  0  0  0  0  0  0  0
   11.5818    7.4084   27.6479 N   0  0  0  0  0  0  0  0  0  0  0  0
   11.2676    8.5826   27.0107 C   0  0  0  0  0  0  0  0  0  0  0  0
   11.0864    9.8229   27.5781 C   0  0  0  0  0  0  0  0  0  0  0  0
   11.2249    9.9837   28.9847 C   0  0  0  0  0  0  0  0  0  0  0  0
   11.1062   10.9954   29.6874 O   0  0  0  0  0  0  0  0  0  0  0  0
   10.7862   10.7171   26.5837 N   0  0  0  0  0  0  0  0  0  0  0  0
   10.7877   10.0253   25.4283 C   0  0  0  0  0  0  0  0  0  0  0  0
   11.0795    8.7042   25.6567 N   0  0  0  0  0  0  0  0  0  0  0  0
  1  2  1  0  0  0  0
  1  6  1  0  0  0  0
  2  3  2  0  0  0  0
  3  4  1  0  0  0  0
  4  5  2  0  0  0  0
  4 10  1  0  0  0  0
  5  6  1  0  0  0  0
  5  8  1  0  0  0  0
  6  7  2  0  0  0  0
  8  9  1  0  0  0  0
  9 10  2  0  0  0  0
M  END
>  <CHROM.1>
11.21623703,9.28709716,27.75365540,-1.02604429,1.33999944,-2.11180962

>  <Name>
ligand

>  <RI>
0

>  <Rbt.Current_Directory>
/home/itssahil/PROJECTS/Mol_Feturizer/New_Systems/rnas/2EET

>  <Rbt.Executable>
rbdock ($Id: //depot/dev/client3/rdock/2013.1/src/exe/rbdock.cxx#4 $)

>  <Rbt.Library>
libRbt.so (2013.1, Build901 2013/11/27)

>  <Rbt.Parameter_File>
/export/apps/rDock/src/rDock_2013.1_src/data/scripts/dock_solv.prm

>  <Rbt.Receptor>
prm/blind_docking_100.prm

>  <SCORE>
-17.5241

>  <SCORE.INTER>
-17.5241

>  <SCORE.INTER.CONST>
1

>  <SCORE.INTER.POLAR>
0

>  <SCORE.INTER.ROT>
0

>  <SCORE.INTER.SOLV>
3.922

>  <SCORE.INTER.VDW>
-16.59

>  <SCORE.INTER.norm>
-1.75241

>  <SCORE.INTRA>
0

>  <SCORE.INTRA.DIHEDRAL>
0

>  <SCORE.INTRA.DIHEDRAL.0>
0

>  <SCORE.INTRA.POLAR>
0

>  <SCORE.INTRA.POLAR.0>
0

>  <SCORE.INTRA.REPUL>
0

>  <SCORE.INTRA.REPUL.0>
0

>  <SCORE.INTRA.SOLV>
0

>  <SCORE.INTRA.SOLV.lig_0>
-4.28464

>  <SCORE.INTRA.VDW>
0

>  <SCORE.INTRA.VDW.0>
0

>  <SCORE.INTRA.norm>
0

>  <SCORE.RESTR>
0

>  <SCORE.RESTR.CAVITY>
0

>  <SCORE.RESTR.norm>
0

>  <SCORE.SYSTEM>
0

>  <SCORE.SYSTEM.CONST>
0

>  <SCORE.SYSTEM.DIHEDRAL>
0

>  <SCORE.SYSTEM.SOLV>
0

>  <SCORE.SYSTEM.norm>
0

>  <SCORE.heavy>
10

>  <SCORE.norm>
-1.75241

>  <RMSD>
2.444

$$$$
ligand
 OpenBabel11021811423D
libRbt.so/2013.1/901 2013/11/27
 10 11  0  0  0  0  0  0  0  0999 V2000
   11.5627    8.7234   29.5325 N   0  0  0  0  0  0  0  0  0  0  0  0
   11.7349    7.5232   28.8651 C   0  0  0  0  0  0  0  0  0  0  0  0
   11.5908    7.4251   27.5379 N   0  0  0  0  0  0  0  0  0  0  0  0
   11.2632    8.6175   26.9426 C   0  0  0  0  0  0  0  0  0  0  0  0
   11.0797    9.8373   27.5522 C   0  0  0  0  0  0  0  0  0  0  0  0
   11.2305    9.9528   28.9619 C   0  0  0  0  0  0  0  0  0  0  0  0
   11.1122   10.9401   29.6986 O   0  0  0  0  0  0  0  0  0  0  0  0
   10.7645   10.7616   26.5906 N   0  0  0  0  0  0  0  0  0  0  0  0
   10.7593   10.1082   25.4130 C   0  0  0  0  0  0  0  0  0  0  0  0
   11.0615    8.7822   25.5952 N   0  0  0  0  0  0  0  0  0  0  0  0
  1  2  1  0  0  0  0
  1  6  1  0  0  0  0
  2  3  2  0  0  0  0
  3  4  1  0  0  0  0
  4  5  2  0  0  0  0
  4 10  1  0  0  0  0
  5  6  1  0  0  0  0
  5  8  1  0  0  0  0
  6  7  2  0  0  0  0
  8  9  1  0  0  0  0
  9 10  2  0  0  0  0
M  END
>  <CHROM.1>
11.21455648,9.29687896,27.70880026,-1.00540870,1.32970349,-2.09901954

>  <Name>
ligand

>  <RI>
0

>  <Rbt.Current_Directory>
/home/itssahil/PROJECTS/Mol_Feturizer/New_Systems/rnas/2EET

>  <Rbt.Executable>
rbdock ($Id: //depot/dev/client3/rdock/2013.1/src/exe/rbdock.cxx#4 $)

>  <Rbt.Library>
libRbt.so (2013.1, Build901 2013/11/27)

>  <Rbt.Parameter_File>
/export/apps/rDock/src/rDock_2013.1_src/data/scripts/dock_solv.prm

>  <Rbt.Receptor>
prm/blind_docking_80.prm

>  <SCORE>
-17.488

>  <SCORE.INTER>
-17.488

>  <SCORE.INTER.CONST>
1

>  <SCORE.INTER.POLAR>
0

>  <SCORE.INTER.ROT>
0

>  <SCORE.INTER.SOLV>
3.84349

>  <SCORE.INTER.VDW>
-16.5399

>  <SCORE.INTER.norm>
-1.7488

>  <SCORE.INTRA>
0

>  <SCORE.INTRA.DIHEDRAL>
0

>  <SCORE.INTRA.DIHEDRAL.0>
0

>  <SCORE.INTRA.POLAR>
0

>  <SCORE.INTRA.POLAR.0>
0

>  <SCORE.INTRA.REPUL>
0

>  <SCORE.INTRA.REPUL.0>
0

>  <SCORE.INTRA.SOLV>
0

>  <SCORE.INTRA.SOLV.lig_0>
-4.28464

>  <SCORE.INTRA.VDW>
0

>  <SCORE.INTRA.VDW.0>
0

>  <SCORE.INTRA.norm>
0

>  <SCORE.RESTR>
0

>  <SCORE.RESTR.CAVITY>
0

>  <SCORE.RESTR.norm>
0

>  <SCORE.SYSTEM>
0

>  <SCORE.SYSTEM.CONST>
0

>  <SCORE.SYSTEM.DIHEDRAL>
0

>  <SCORE.SYSTEM.SOLV>
0

>  <SCORE.SYSTEM.norm>
0

>  <SCORE.heavy>
10

>  <SCORE.norm>
-1.7488

>  <RMSD>
2.444

$$$$
ligand
 OpenBabel11021811423D
libRbt.so/2013.1/901 2013/11/27
 10 11  0  0  0  0  0  0  0  0999 V2000
   11.6060    8.6659   29.4556 N   0  0  0  0  0  0  0  0  0  0  0  0
   11.7674    7.4890   28.7452 C   0  0  0  0  0  0  0  0  0  0  0  0
   11.6077    7.4372   27.4172 N   0  0  0  0  0  0  0  0  0  0  0  0
   11.2764    8.6502   26.8672 C   0  0  0  0  0  0  0  0  0  0  0  0
   11.1030    9.8486   27.5206 C   0  0  0  0  0  0  0  0  0  0  0  0
   11.2704    9.9149   28.9317 C   0  0  0  0  0  0  0  0  0  0  0  0
   11.1630   10.8765   29.7033 O   0  0  0  0  0  0  0  0  0  0  0  0
   10.7791   10.8062   26.5952 N   0  0  0  0  0  0  0  0  0  0  0  0
   10.7588   10.1939   25.3959 C   0  0  0  0  0  0  0  0  0  0  0  0
   11.0596    8.8617   25.5287 N   0  0  0  0  0  0  0  0  0  0  0  0
  1  2  1  0  0  0  0
  1  6  1  0  0  0  0
  2  3  2  0  0  0  0
  3  4  1  0  0  0  0
  4  5  2  0  0  0  0
  4 10  1  0  0  0  0
  5  6  1  0  0  0  0
  5  8  1  0  0  0  0
  6  7  2  0  0  0  0
  8  9  1  0  0  0  0
  9 10  2  0  0  0  0
M  END
>  <CHROM.1>
11.23830671,9.30273965,27.65690857,-0.95907168,1.32586852,-2.10945662

>  <Name>
ligand

>  <RI>
0

>  <Rbt.Current_Directory>
/home/itssahil/PROJECTS/Mol_Feturizer/New_Systems/rnas/2EET

>  <Rbt.Executable>
rbdock ($Id: //depot/dev/client3/rdock/2013.1/src/exe/rbdock.cxx#4 $)

>  <Rbt.Library>
libRbt.so (2013.1, Build901 2013/11/27)

>  <Rbt.Parameter_File>
/export/apps/rDock/src/rDock_2013.1_src/data/scripts/dock_solv.prm

>  <Rbt.Receptor>
prm/pocket_docking_3.prm

>  <SCORE>
-17.4787

>  <SCORE.INTER>
-17.4787

>  <SCORE.INTER.CONST>
1

>  <SCORE.INTER.POLAR>
0

>  <SCORE.INTER.ROT>
0

>  <SCORE.INTER.SOLV>
3.74592

>  <SCORE.INTER.VDW>
-16.5011

>  <SCORE.INTER.norm>
-1.74787

>  <SCORE.INTRA>
0

>  <SCORE.INTRA.DIHEDRAL>
0

>  <SCORE.INTRA.DIHEDRAL.0>
0

>  <SCORE.INTRA.POLAR>
0

>  <SCORE.INTRA.POLAR.0>
0

>  <SCORE.INTRA.REPUL>
0

>  <SCORE.INTRA.REPUL.0>
0

>  <SCORE.INTRA.SOLV>
0

>  <SCORE.INTRA.SOLV.lig_0>
-4.28464

>  <SCORE.INTRA.VDW>
0

>  <SCORE.INTRA.VDW.0>
0

>  <SCORE.INTRA.norm>
0

>  <SCORE.RESTR>
0

>  <SCORE.RESTR.CAVITY>
0

>  <SCORE.RESTR.norm>
0

>  <SCORE.SYSTEM>
0

>  <SCORE.SYSTEM.CONST>
0

>  <SCORE.SYSTEM.DIHEDRAL>
0

>  <SCORE.SYSTEM.SOLV>
0

>  <SCORE.SYSTEM.norm>
0

>  <SCORE.heavy>
10

>  <SCORE.norm>
-1.74787

>  <RMSD>
2.444

$$$$
ligand
 OpenBabel11021811423D
libRbt.so/2013.1/901 2013/11/27
 10 11  0  0  0  0  0  0  0  0999 V2000
   11.5705    8.7387   29.5368 N   0  0  0  0  0  0  0  0  0  0  0  0
   11.7604    7.5372   28.8765 C   0  0  0  0  0  0  0  0  0  0  0  0
   11.6192    7.4295   27.5498 N   0  0  0  0  0  0  0  0  0  0  0  0
   11.2755    8.6137   26.9473 C   0  0  0  0  0  0  0  0  0  0  0  0
   11.0741    9.8343   27.5496 C   0  0  0  0  0  0  0  0  0  0  0  0
   11.2217    9.9599   28.9589 C   0  0  0  0  0  0  0  0  0  0  0  0
   11.0885   10.9497   29.6897 O   0  0  0  0  0  0  0  0  0  0  0  0
   10.7470   10.7485   26.5824 N   0  0  0  0  0  0  0  0  0  0  0  0
   10.7525   10.0884   25.4086 C   0  0  0  0  0  0  0  0  0  0  0  0
   11.0731    8.7678   25.5988 N   0  0  0  0  0  0  0  0  0  0  0  0
  1  2  1  0  0  0  0
  1  6  1  0  0  0  0
  2  3  2  0  0  0  0
  3  4  1  0  0  0  0
  4  5  2  0  0  0  0
  4 10  1  0  0  0  0
  5  6  1  0  0  0  0
  5  8  1  0  0  0  0
  6  7  2  0  0  0  0
  8  9  1  0  0  0  0
  9 10  2  0  0  0  0
M  END
>  <CHROM.1>
11.21639945,9.29668719,27.70951674,-1.03786853,1.31798717,-2.07327798

>  <Name>
ligand

>  <RI>
0

>  <Rbt.Current_Directory>
/home/itssahil/PROJECTS/Mol_Feturizer/New_Systems/rnas/2EET

>  <Rbt.Executable>
rbdock ($Id: //depot/dev/client3/rdock/2013.1/src/exe/rbdock.cxx#4 $)

>  <Rbt.Library>
libRbt.so (2013.1, Build901 2013/11/27)

>  <Rbt.Parameter_File>
/export/apps/rDock/src/rDock_2013.1_src/data/scripts/dock_solv.prm

>  <Rbt.Receptor>
prm/pocket_docking_3.prm

>  <SCORE>
-17.5099

>  <SCORE.INTER>
-17.5099

>  <SCORE.INTER.CONST>
1

>  <SCORE.INTER.POLAR>
0

>  <SCORE.INTER.ROT>
0

>  <SCORE.INTER.SOLV>
3.85055

>  <SCORE.INTER.VDW>
-16.5568

>  <SCORE.INTER.norm>
-1.75099

>  <SCORE.INTRA>
0

>  <SCORE.INTRA.DIHEDRAL>
0

>  <SCORE.INTRA.DIHEDRAL.0>
0

>  <SCORE.INTRA.POLAR>
0

>  <SCORE.INTRA.POLAR.0>
0

>  <SCORE.INTRA.REPUL>
0

>  <SCORE.INTRA.REPUL.0>
0

>  <SCORE.INTRA.SOLV>
0

>  <SCORE.INTRA.SOLV.lig_0>
-4.28464

>  <SCORE.INTRA.VDW>
0

>  <SCORE.INTRA.VDW.0>
0

>  <SCORE.INTRA.norm>
0

>  <SCORE.RESTR>
0

>  <SCORE.RESTR.CAVITY>
0

>  <SCORE.RESTR.norm>
0

>  <SCORE.SYSTEM>
0

>  <SCORE.SYSTEM.CONST>
0

>  <SCORE.SYSTEM.DIHEDRAL>
0

>  <SCORE.SYSTEM.SOLV>
0

>  <SCORE.SYSTEM.norm>
0

>  <SCORE.heavy>
10

>  <SCORE.norm>
-1.75099

>  <RMSD>
2.444

$$$$
ligand
 OpenBabel11021811423D
libRbt.so/2013.1/901 2013/11/27
 10 11  0  0  0  0  0  0  0  0999 V2000
   11.5600    8.7423   29.5545 N   0  0  0  0  0  0  0  0  0  0  0  0
   11.7549    7.5409   28.8955 C   0  0  0  0  0  0  0  0  0  0  0  0
   11.6182    7.4320   27.5684 N   0  0  0  0  0  0  0  0  0  0  0  0
   11.2736    8.6151   26.9641 C   0  0  0  0  0  0  0  0  0  0  0  0
   11.0673    9.8355   27.5651 C   0  0  0  0  0  0  0  0  0  0  0  0
   11.2101    9.9623   28.9747 C   0  0  0  0  0  0  0  0  0  0  0  0
   11.0722   10.9522   29.7045 O   0  0  0  0  0  0  0  0  0  0  0  0
   10.7411   10.7484   26.5962 N   0  0  0  0  0  0  0  0  0  0  0  0
   10.7519   10.0875   25.4229 C   0  0  0  0  0  0  0  0  0  0  0  0
   11.0752    8.7679   25.6148 N   0  0  0  0  0  0  0  0  0  0  0  0
  1  2  1  0  0  0  0
  1  6  1  0  0  0  0
  2  3  2  0  0  0  0
  3  4  1  0  0  0  0
  4  5  2  0  0  0  0
  4 10  1  0  0  0  0
  5  6  1  0  0  0  0
  5  8  1  0  0  0  0
  6  7  2  0  0  0  0
  8  9  1  0  0  0  0
  9 10  2  0  0  0  0
M  END
>  <CHROM.1>
11.21040560,9.29835777,27.72570025,-1.05376153,1.31736148,-2.05847711

>  <Name>
ligand

>  <RI>
0

>  <Rbt.Current_Directory>
/home/itssahil/PROJECTS/Mol_Feturizer/New_Systems/rnas/2EET

>  <Rbt.Executable>
rbdock ($Id: //depot/dev/client3/rdock/2013.1/src/exe/rbdock.cxx#4 $)

>  <Rbt.Library>
libRbt.so (2013.1, Build901 2013/11/27)

>  <Rbt.Parameter_File>
/export/apps/rDock/src/rDock_2013.1_src/data/scripts/dock_solv.prm

>  <Rbt.Receptor>
prm/pocket_docking_4.prm

>  <SCORE>
-17.4929

>  <SCORE.INTER>
-17.4929

>  <SCORE.INTER.CONST>
1

>  <SCORE.INTER.POLAR>
0

>  <SCORE.INTER.ROT>
0

>  <SCORE.INTER.SOLV>
3.86139

>  <SCORE.INTER.VDW>
-16.549

>  <SCORE.INTER.norm>
-1.74929

>  <SCORE.INTRA>
0

>  <SCORE.INTRA.DIHEDRAL>
0

>  <SCORE.INTRA.DIHEDRAL.0>
0

>  <SCORE.INTRA.POLAR>
0

>  <SCORE.INTRA.POLAR.0>
0

>  <SCORE.INTRA.REPUL>
0

>  <SCORE.INTRA.REPUL.0>
0

>  <SCORE.INTRA.SOLV>
0

>  <SCORE.INTRA.SOLV.lig_0>
-4.28464

>  <SCORE.INTRA.VDW>
0

>  <SCORE.INTRA.VDW.0>
0

>  <SCORE.INTRA.norm>
0

>  <SCORE.RESTR>
0

>  <SCORE.RESTR.CAVITY>
0

>  <SCORE.RESTR.norm>
0

>  <SCORE.SYSTEM>
0

>  <SCORE.SYSTEM.CONST>
0

>  <SCORE.SYSTEM.DIHEDRAL>
0

>  <SCORE.SYSTEM.SOLV>
0

>  <SCORE.SYSTEM.norm>
0

>  <SCORE.heavy>
10

>  <SCORE.norm>
-1.74929

>  <RMSD>
2.444

$$$$
ligand
 OpenBabel11021811423D
libRbt.so/2013.1/901 2013/11/27
 10 11  0  0  0  0  0  0  0  0999 V2000
   11.5900    8.7266   29.5570 N   0  0  0  0  0  0  0  0  0  0  0  0
   11.7848    7.5219   28.9040 C   0  0  0  0  0  0  0  0  0  0  0  0
   11.6312    7.4025   27.5797 N   0  0  0  0  0  0  0  0  0  0  0  0
   11.2702    8.5787   26.9716 C   0  0  0  0  0  0  0  0  0  0  0  0
   11.0631    9.8019   27.5665 C   0  0  0  0  0  0  0  0  0  0  0  0
   11.2237    9.9399   28.9732 C   0  0  0  0  0  0  0  0  0  0  0  0
   11.0884   10.9340   29.6977 O   0  0  0  0  0  0  0  0  0  0  0  0
   10.7175   10.7054   26.5957 N   0  0  0  0  0  0  0  0  0  0  0  0
   10.7175   10.0363   25.4270 C   0  0  0  0  0  0  0  0  0  0  0  0
   11.0527    8.7204   25.6240 N   0  0  0  0  0  0  0  0  0  0  0  0
  1  2  1  0  0  0  0
  1  6  1  0  0  0  0
  2  3  2  0  0  0  0
  3  4  1  0  0  0  0
  4  5  2  0  0  0  0
  4 10  1  0  0  0  0
  5  6  1  0  0  0  0
  5  8  1  0  0  0  0
  6  7  2  0  0  0  0
  8  9  1  0  0  0  0
  9 10  2  0  0  0  0
M  END
>  <CHROM.1>
11.21217720,9.26698215,27.72908851,-1.02183588,1.30468553,-2.09651505

>  <Name>
ligand

>  <RI>
0

>  <Rbt.Current_Directory>
/home/itssahil/PROJECTS/Mol_Feturizer/New_Systems/rnas/2EET

>  <Rbt.Executable>
rbdock ($Id: //depot/dev/client3/rdock/2013.1/src/exe/rbdock.cxx#4 $)

>  <Rbt.Library>
libRbt.so (2013.1, Build901 2013/11/27)

>  <Rbt.Parameter_File>
/export/apps/rDock/src/rDock_2013.1_src/data/scripts/dock_solv.prm

>  <Rbt.Receptor>
prm/pocket_docking_4.prm

>  <SCORE>
-17.4851

>  <SCORE.INTER>
-17.4851

>  <SCORE.INTER.CONST>
1

>  <SCORE.INTER.POLAR>
0

>  <SCORE.INTER.ROT>
0

>  <SCORE.INTER.SOLV>
3.84257

>  <SCORE.INTER.VDW>
-16.5376

>  <SCORE.INTER.norm>
-1.74851

>  <SCORE.INTRA>
0

>  <SCORE.INTRA.DIHEDRAL>
0

>  <SCORE.INTRA.DIHEDRAL.0>
0

>  <SCORE.INTRA.POLAR>
0

>  <SCORE.INTRA.POLAR.0>
0

>  <SCORE.INTRA.REPUL>
0

>  <SCORE.INTRA.REPUL.0>
0

>  <SCORE.INTRA.SOLV>
0

>  <SCORE.INTRA.SOLV.lig_0>
-4.28464

>  <SCORE.INTRA.VDW>
0

>  <SCORE.INTRA.VDW.0>
0

>  <SCORE.INTRA.norm>
0

>  <SCORE.RESTR>
0

>  <SCORE.RESTR.CAVITY>
0

>  <SCORE.RESTR.norm>
0

>  <SCORE.SYSTEM>
0

>  <SCORE.SYSTEM.CONST>
0

>  <SCORE.SYSTEM.DIHEDRAL>
0

>  <SCORE.SYSTEM.SOLV>
0

>  <SCORE.SYSTEM.norm>
0

>  <SCORE.heavy>
10

>  <SCORE.norm>
-1.74851

>  <RMSD>
2.444

$$$$
ligand
 OpenBabel11021811423D
libRbt.so/2013.1/901 2013/11/27
 10 11  0  0  0  0  0  0  0  0999 V2000
   11.5703    8.7378   29.5268 N   0  0  0  0  0  0  0  0  0  0  0  0
   11.7266    7.5311   28.8671 C   0  0  0  0  0  0  0  0  0  0  0  0
   11.5761    7.4256   27.5412 N   0  0  0  0  0  0  0  0  0  0  0  0
   11.2594    8.6174   26.9389 C   0  0  0  0  0  0  0  0  0  0  0  0
   11.0918    9.8433   27.5407 C   0  0  0  0  0  0  0  0  0  0  0  0
   11.2495    9.9668   28.9491 C   0  0  0  0  0  0  0  0  0  0  0  0
   11.1450   10.9604   29.6793 O   0  0  0  0  0  0  0  0  0  0  0  0
   10.7831   10.7644   26.5740 N   0  0  0  0  0  0  0  0  0  0  0  0
   10.7661   10.1030   25.4010 C   0  0  0  0  0  0  0  0  0  0  0  0
   11.0543    8.7751   25.5912 N   0  0  0  0  0  0  0  0  0  0  0  0
  1  2  1  0  0  0  0
  1  6  1  0  0  0  0
  2  3  2  0  0  0  0
  3  4  1  0  0  0  0
  4  5  2  0  0  0  0
  4 10  1  0  0  0  0
  5  6  1  0  0  0  0
  5  8  1  0  0  0  0
  6  7  2  0  0  0  0
  8  9  1  0  0  0  0
  9 10  2  0  0  0  0
M  END
>  <CHROM.1>
11.22131498,9.30251270,27.70058854,-0.96661144,1.33711832,-2.14362332

>  <Name>
ligand

>  <RI>
0

>  <Rbt.Current_Directory>
/home/itssahil/PROJECTS/Mol_Feturizer/New_Systems/rnas/2EET

>  <Rbt.Executable>
rbdock ($Id: //depot/dev/client3/rdock/2013.1/src/exe/rbdock.cxx#4 $)

>  <Rbt.Library>
libRbt.so (2013.1, Build901 2013/11/27)

>  <Rbt.Parameter_File>
/export/apps/rDock/src/rDock_2013.1_src/data/scripts/dock_solv.prm

>  <Rbt.Receptor>
prm/pocket_docking_6.prm

>  <SCORE>
-17.4675

>  <SCORE.INTER>
-17.4675

>  <SCORE.INTER.CONST>
1

>  <SCORE.INTER.POLAR>
0

>  <SCORE.INTER.ROT>
0

>  <SCORE.INTER.SOLV>
3.85863

>  <SCORE.INTER.VDW>
-16.5312

>  <SCORE.INTER.norm>
-1.74675

>  <SCORE.INTRA>
0

>  <SCORE.INTRA.DIHEDRAL>
0

>  <SCORE.INTRA.DIHEDRAL.0>
0

>  <SCORE.INTRA.POLAR>
0

>  <SCORE.INTRA.POLAR.0>
0

>  <SCORE.INTRA.REPUL>
0

>  <SCORE.INTRA.REPUL.0>
0

>  <SCORE.INTRA.SOLV>
0

>  <SCORE.INTRA.SOLV.lig_0>
-4.28464

>  <SCORE.INTRA.VDW>
0

>  <SCORE.INTRA.VDW.0>
0

>  <SCORE.INTRA.norm>
0

>  <SCORE.RESTR>
0

>  <SCORE.RESTR.CAVITY>
0

>  <SCORE.RESTR.norm>
0

>  <SCORE.SYSTEM>
0

>  <SCORE.SYSTEM.CONST>
0

>  <SCORE.SYSTEM.DIHEDRAL>
0

>  <SCORE.SYSTEM.SOLV>
0

>  <SCORE.SYSTEM.norm>
0

>  <SCORE.heavy>
10

>  <SCORE.norm>
-1.74675

>  <RMSD>
2.444

$$$$
ligand
 OpenBabel11021811423D
libRbt.so/2013.1/901 2013/11/27
 10 11  0  0  0  0  0  0  0  0999 V2000
   11.5471    8.7322   29.5319 N   0  0  0  0  0  0  0  0  0  0  0  0
   11.7215    7.5303   28.8680 C   0  0  0  0  0  0  0  0  0  0  0  0
   11.5851    7.4298   27.5402 N   0  0  0  0  0  0  0  0  0  0  0  0
   11.2629    8.6215   26.9405 C   0  0  0  0  0  0  0  0  0  0  0  0
   11.0776    9.8428   27.5465 C   0  0  0  0  0  0  0  0  0  0  0  0
   11.2203    9.9609   28.9569 C   0  0  0  0  0  0  0  0  0  0  0  0
   11.0990   10.9499   29.6908 O   0  0  0  0  0  0  0  0  0  0  0  0
   10.7696   10.7656   26.5811 N   0  0  0  0  0  0  0  0  0  0  0  0
   10.7705   10.1098   25.4049 C   0  0  0  0  0  0  0  0  0  0  0  0
   11.0695    8.7837   25.5916 N   0  0  0  0  0  0  0  0  0  0  0  0
  1  2  1  0  0  0  0
  1  6  1  0  0  0  0
  2  3  2  0  0  0  0
  3  4  1  0  0  0  0
  4  5  2  0  0  0  0
  4 10  1  0  0  0  0
  5  6  1  0  0  0  0
  5  8  1  0  0  0  0
  6  7  2  0  0  0  0
  8  9  1  0  0  0  0
  9 10  2  0  0  0  0
M  END
>  <CHROM.1>
11.21074453,9.30245511,27.70499104,-1.02405554,1.33401543,-2.08294122

>  <Name>
ligand

>  <RI>
0

>  <Rbt.Current_Directory>
/home/itssahil/PROJECTS/Mol_Feturizer/New_Systems/rnas/2EET

>  <Rbt.Executable>
rbdock ($Id: //depot/dev/client3/rdock/2013.1/src/exe/rbdock.cxx#4 $)

>  <Rbt.Library>
libRbt.so (2013.1, Build901 2013/11/27)

>  <Rbt.Parameter_File>
/export/apps/rDock/src/rDock_2013.1_src/data/scripts/dock_solv.prm

>  <Rbt.Receptor>
prm/blind_docking_100.prm

>  <SCORE>
-17.4868

>  <SCORE.INTER>
-17.4868

>  <SCORE.INTER.CONST>
1

>  <SCORE.INTER.POLAR>
0

>  <SCORE.INTER.ROT>
0

>  <SCORE.INTER.SOLV>
3.86055

>  <SCORE.INTER.VDW>
-16.5447

>  <SCORE.INTER.norm>
-1.74868

>  <SCORE.INTRA>
0

>  <SCORE.INTRA.DIHEDRAL>
0

>  <SCORE.INTRA.DIHEDRAL.0>
0

>  <SCORE.INTRA.POLAR>
0

>  <SCORE.INTRA.POLAR.0>
0

>  <SCORE.INTRA.REPUL>
0

>  <SCORE.INTRA.REPUL.0>
0

>  <SCORE.INTRA.SOLV>
0

>  <SCORE.INTRA.SOLV.lig_0>
-4.28464

>  <SCORE.INTRA.VDW>
0

>  <SCORE.INTRA.VDW.0>
0

>  <SCORE.INTRA.norm>
0

>  <SCORE.RESTR>
0

>  <SCORE.RESTR.CAVITY>
0

>  <SCORE.RESTR.norm>
0

>  <SCORE.SYSTEM>
0

>  <SCORE.SYSTEM.CONST>
0

>  <SCORE.SYSTEM.DIHEDRAL>
0

>  <SCORE.SYSTEM.SOLV>
0

>  <SCORE.SYSTEM.norm>
0

>  <SCORE.heavy>
10

>  <SCORE.norm>
-1.74868

>  <RMSD>
2.445

$$$$
ligand
 OpenBabel11021811423D
libRbt.so/2013.1/901 2013/11/27
 10 11  0  0  0  0  0  0  0  0999 V2000
   11.5607    8.7301   29.5281 N   0  0  0  0  0  0  0  0  0  0  0  0
   11.7308    7.5273   28.8648 C   0  0  0  0  0  0  0  0  0  0  0  0
   11.5866    7.4249   27.5380 N   0  0  0  0  0  0  0  0  0  0  0  0
   11.2612    8.6158   26.9386 C   0  0  0  0  0  0  0  0  0  0  0  0
   11.0799    9.8381   27.5439 C   0  0  0  0  0  0  0  0  0  0  0  0
   11.2308    9.9581   28.9533 C   0  0  0  0  0  0  0  0  0  0  0  0
   11.1142   10.9481   29.6865 O   0  0  0  0  0  0  0  0  0  0  0  0
   10.7665   10.7596   26.5791 N   0  0  0  0  0  0  0  0  0  0  0  0
   10.7603   10.1022   25.4038 C   0  0  0  0  0  0  0  0  0  0  0  0
   11.0600    8.7763   25.5906 N   0  0  0  0  0  0  0  0  0  0  0  0
  1  2  1  0  0  0  0
  1  6  1  0  0  0  0
  2  3  2  0  0  0  0
  3  4  1  0  0  0  0
  4  5  2  0  0  0  0
  4 10  1  0  0  0  0
  5  6  1  0  0  0  0
  5  8  1  0  0  0  0
  6  7  2  0  0  0  0
  8  9  1  0  0  0  0
  9 10  2  0  0  0  0
M  END
>  <CHROM.1>
11.21374610,9.29790590,27.70240955,-1.00188672,1.33133151,-2.10588291

>  <Name>
ligand

>  <RI>
0

>  <Rbt.Current_Directory>
/home/itssahil/PROJECTS/Mol_Feturizer/New_Systems/rnas/2EET

>  <Rbt.Executable>
rbdock ($Id: //depot/dev/client3/rdock/2013.1/src/exe/rbdock.cxx#4 $)

>  <Rbt.Library>
libRbt.so (2013.1, Build901 2013/11/27)

>  <Rbt.Parameter_File>
/export/apps/rDock/src/rDock_2013.1_src/data/scripts/dock_solv.prm

>  <Rbt.Receptor>
prm/blind_docking_100.prm

>  <SCORE>
-17.4917

>  <SCORE.INTER>
-17.4917

>  <SCORE.INTER.CONST>
1

>  <SCORE.INTER.POLAR>
0

>  <SCORE.INTER.ROT>
0

>  <SCORE.INTER.SOLV>
3.85172

>  <SCORE.INTER.VDW>
-16.545

>  <SCORE.INTER.norm>
-1.74917

>  <SCORE.INTRA>
0

>  <SCORE.INTRA.DIHEDRAL>
0

>  <SCORE.INTRA.DIHEDRAL.0>
0

>  <SCORE.INTRA.POLAR>
0

>  <SCORE.INTRA.POLAR.0>
0

>  <SCORE.INTRA.REPUL>
0

>  <SCORE.INTRA.REPUL.0>
0

>  <SCORE.INTRA.SOLV>
0

>  <SCORE.INTRA.SOLV.lig_0>
-4.28464

>  <SCORE.INTRA.VDW>
0

>  <SCORE.INTRA.VDW.0>
0

>  <SCORE.INTRA.norm>
0

>  <SCORE.RESTR>
0

>  <SCORE.RESTR.CAVITY>
0

>  <SCORE.RESTR.norm>
0

>  <SCORE.SYSTEM>
0

>  <SCORE.SYSTEM.CONST>
0

>  <SCORE.SYSTEM.DIHEDRAL>
0

>  <SCORE.SYSTEM.SOLV>
0

>  <SCORE.SYSTEM.norm>
0

>  <SCORE.heavy>
10

>  <SCORE.norm>
-1.74917

>  <RMSD>
2.445

$$$$
ligand
 OpenBabel11021811423D
libRbt.so/2013.1/901 2013/11/27
 10 11  0  0  0  0  0  0  0  0999 V2000
   11.5958    8.7114   29.5347 N   0  0  0  0  0  0  0  0  0  0  0  0
   11.7995    7.5104   28.8776 C   0  0  0  0  0  0  0  0  0  0  0  0
   11.6511    7.3957   27.5522 N   0  0  0  0  0  0  0  0  0  0  0  0
   11.2856    8.5723   26.9477 C   0  0  0  0  0  0  0  0  0  0  0  0
   11.0697    9.7919   27.5469 C   0  0  0  0  0  0  0  0  0  0  0  0
   11.2247    9.9250   28.9547 C   0  0  0  0  0  0  0  0  0  0  0  0
   11.0815   10.9154   29.6827 O   0  0  0  0  0  0  0  0  0  0  0  0
   10.7224   10.6975   26.5786 N   0  0  0  0  0  0  0  0  0  0  0  0
   10.7301   10.0331   25.4072 C   0  0  0  0  0  0  0  0  0  0  0  0
   11.0719    8.7183   25.6000 N   0  0  0  0  0  0  0  0  0  0  0  0
  1  2  1  0  0  0  0
  1  6  1  0  0  0  0
  2  3  2  0  0  0  0
  3  4  1  0  0  0  0
  4  5  2  0  0  0  0
  4 10  1  0  0  0  0
  5  6  1  0  0  0  0
  5  8  1  0  0  0  0
  6  7  2  0  0  0  0
  8  9  1  0  0  0  0
  9 10  2  0  0  0  0
M  END
>  <CHROM.1>
11.22120246,9.25715017,27.70780119,-1.04340920,1.30151785,-2.07162767

>  <Name>
ligand

>  <RI>
0

>  <Rbt.Current_Directory>
/home/itssahil/PROJECTS/Mol_Feturizer/New_Systems/rnas/2EET

>  <Rbt.Executable>
rbdock ($Id: //depot/dev/client3/rdock/2013.1/src/exe/rbdock.cxx#4 $)

>  <Rbt.Library>
libRbt.so (2013.1, Build901 2013/11/27)

>  <Rbt.Parameter_File>
/export/apps/rDock/src/rDock_2013.1_src/data/scripts/dock_solv.prm

>  <Rbt.Receptor>
prm/blind_docking_40.prm

>  <SCORE>
-17.489

>  <SCORE.INTER>
-17.489

>  <SCORE.INTER.CONST>
1

>  <SCORE.INTER.POLAR>
0

>  <SCORE.INTER.ROT>
0

>  <SCORE.INTER.SOLV>
3.82793

>  <SCORE.INTER.VDW>
-16.5353

>  <SCORE.INTER.norm>
-1.7489

>  <SCORE.INTRA>
0

>  <SCORE.INTRA.DIHEDRAL>
0

>  <SCORE.INTRA.DIHEDRAL.0>
0

>  <SCORE.INTRA.POLAR>
0

>  <SCORE.INTRA.POLAR.0>
0

>  <SCORE.INTRA.REPUL>
0

>  <SCORE.INTRA.REPUL.0>
0

>  <SCORE.INTRA.SOLV>
0

>  <SCORE.INTRA.SOLV.lig_0>
-4.28464

>  <SCORE.INTRA.VDW>
0

>  <SCORE.INTRA.VDW.0>
0

>  <SCORE.INTRA.norm>
0

>  <SCORE.RESTR>
0

>  <SCORE.RESTR.CAVITY>
0

>  <SCORE.RESTR.norm>
0

>  <SCORE.SYSTEM>
0

>  <SCORE.SYSTEM.CONST>
0

>  <SCORE.SYSTEM.DIHEDRAL>
0

>  <SCORE.SYSTEM.SOLV>
0

>  <SCORE.SYSTEM.norm>
0

>  <SCORE.heavy>
10

>  <SCORE.norm>
-1.7489

>  <RMSD>
2.445

$$$$
ligand
 OpenBabel11021811423D
libRbt.so/2013.1/901 2013/11/27
 10 11  0  0  0  0  0  0  0  0999 V2000
   11.6043    8.7201   29.5451 N   0  0  0  0  0  0  0  0  0  0  0  0
   11.8025    7.5157   28.8924 C   0  0  0  0  0  0  0  0  0  0  0  0
   11.6417    7.3937   27.5692 N   0  0  0  0  0  0  0  0  0  0  0  0
   11.2696    8.5668   26.9619 C   0  0  0  0  0  0  0  0  0  0  0  0
   11.0586    9.7895   27.5566 C   0  0  0  0  0  0  0  0  0  0  0  0
   11.2269    9.9303   28.9620 C   0  0  0  0  0  0  0  0  0  0  0  0
   11.0899   10.9245   29.6861 O   0  0  0  0  0  0  0  0  0  0  0  0
   10.7015   10.6896   26.5867 N   0  0  0  0  0  0  0  0  0  0  0  0
   10.6985   10.0190   25.4189 C   0  0  0  0  0  0  0  0  0  0  0  0
   11.0430    8.7054   25.6155 N   0  0  0  0  0  0  0  0  0  0  0  0
  1  2  1  0  0  0  0
  1  6  1  0  0  0  0
  2  3  2  0  0  0  0
  3  4  1  0  0  0  0
  4  5  2  0  0  0  0
  4 10  1  0  0  0  0
  5  6  1  0  0  0  0
  5  8  1  0  0  0  0
  6  7  2  0  0  0  0
  8  9  1  0  0  0  0
  9 10  2  0  0  0  0
M  END
>  <CHROM.1>
11.21197260,9.25573329,27.71887932,-1.01381009,1.29624604,-2.10551876

>  <Name>
ligand

>  <RI>
0

>  <Rbt.Current_Directory>
/home/itssahil/PROJECTS/Mol_Feturizer/New_Systems/rnas/2EET

>  <Rbt.Executable>
rbdock ($Id: //depot/dev/client3/rdock/2013.1/src/exe/rbdock.cxx#4 $)

>  <Rbt.Library>
libRbt.so (2013.1, Build901 2013/11/27)

>  <Rbt.Parameter_File>
/export/apps/rDock/src/rDock_2013.1_src/data/scripts/dock_solv.prm

>  <Rbt.Receptor>
prm/blind_docking_40.prm

>  <SCORE>
-17.5068

>  <SCORE.INTER>
-17.5068

>  <SCORE.INTER.CONST>
1

>  <SCORE.INTER.POLAR>
0

>  <SCORE.INTER.ROT>
0

>  <SCORE.INTER.SOLV>
3.83257

>  <SCORE.INTER.VDW>
-16.5487

>  <SCORE.INTER.norm>
-1.75068

>  <SCORE.INTRA>
0

>  <SCORE.INTRA.DIHEDRAL>
0

>  <SCORE.INTRA.DIHEDRAL.0>
0

>  <SCORE.INTRA.POLAR>
0

>  <SCORE.INTRA.POLAR.0>
0

>  <SCORE.INTRA.REPUL>
0

>  <SCORE.INTRA.REPUL.0>
0

>  <SCORE.INTRA.SOLV>
0

>  <SCORE.INTRA.SOLV.lig_0>
-4.28464

>  <SCORE.INTRA.VDW>
0

>  <SCORE.INTRA.VDW.0>
0

>  <SCORE.INTRA.norm>
0

>  <SCORE.RESTR>
0

>  <SCORE.RESTR.CAVITY>
0

>  <SCORE.RESTR.norm>
0

>  <SCORE.SYSTEM>
0

>  <SCORE.SYSTEM.CONST>
0

>  <SCORE.SYSTEM.DIHEDRAL>
0

>  <SCORE.SYSTEM.SOLV>
0

>  <SCORE.SYSTEM.norm>
0

>  <SCORE.heavy>
10

>  <SCORE.norm>
-1.75068

>  <RMSD>
2.445

$$$$
ligand
 OpenBabel11021811423D
libRbt.so/2013.1/901 2013/11/27
 10 11  0  0  0  0  0  0  0  0999 V2000
   11.5589    8.7319   29.5286 N   0  0  0  0  0  0  0  0  0  0  0  0
   11.7312    7.5295   28.8650 C   0  0  0  0  0  0  0  0  0  0  0  0
   11.5889    7.4275   27.5380 N   0  0  0  0  0  0  0  0  0  0  0  0
   11.2630    8.6184   26.9386 C   0  0  0  0  0  0  0  0  0  0  0  0
   11.0794    9.8401   27.5442 C   0  0  0  0  0  0  0  0  0  0  0  0
   11.2284    9.9597   28.9539 C   0  0  0  0  0  0  0  0  0  0  0  0
   11.1096   10.9493   29.6873 O   0  0  0  0  0  0  0  0  0  0  0  0
   10.7662   10.7617   26.5794 N   0  0  0  0  0  0  0  0  0  0  0  0
   10.7623   10.1048   25.4038 C   0  0  0  0  0  0  0  0  0  0  0  0
   11.0633    8.7791   25.5905 N   0  0  0  0  0  0  0  0  0  0  0  0
  1  2  1  0  0  0  0
  1  6  1  0  0  0  0
  2  3  2  0  0  0  0
  3  4  1  0  0  0  0
  4  5  2  0  0  0  0
  4 10  1  0  0  0  0
  5  6  1  0  0  0  0
  5  8  1  0  0  0  0
  6  7  2  0  0  0  0
  8  9  1  0  0  0  0
  9 10  2  0  0  0  0
M  END
>  <CHROM.1>
11.21370278,9.30004610,27.70268698,-1.00909177,1.33101068,-2.09845535

>  <Name>
ligand

>  <RI>
0

>  <Rbt.Current_Directory>
/home/itssahil/PROJECTS/Mol_Feturizer/New_Systems/rnas/2EET

>  <Rbt.Executable>
rbdock ($Id: //depot/dev/client3/rdock/2013.1/src/exe/rbdock.cxx#4 $)

>  <Rbt.Library>
libRbt.so (2013.1, Build901 2013/11/27)

>  <Rbt.Parameter_File>
/export/apps/rDock/src/rDock_2013.1_src/data/scripts/dock_solv.prm

>  <Rbt.Receptor>
prm/blind_docking_40.prm

>  <SCORE>
-17.4915

>  <SCORE.INTER>
-17.4915

>  <SCORE.INTER.CONST>
1

>  <SCORE.INTER.POLAR>
0

>  <SCORE.INTER.ROT>
0

>  <SCORE.INTER.SOLV>
3.85254

>  <SCORE.INTER.VDW>
-16.5452

>  <SCORE.INTER.norm>
-1.74915

>  <SCORE.INTRA>
0

>  <SCORE.INTRA.DIHEDRAL>
0

>  <SCORE.INTRA.DIHEDRAL.0>
0

>  <SCORE.INTRA.POLAR>
0

>  <SCORE.INTRA.POLAR.0>
0

>  <SCORE.INTRA.REPUL>
0

>  <SCORE.INTRA.REPUL.0>
0

>  <SCORE.INTRA.SOLV>
0

>  <SCORE.INTRA.SOLV.lig_0>
-4.28464

>  <SCORE.INTRA.VDW>
0

>  <SCORE.INTRA.VDW.0>
0

>  <SCORE.INTRA.norm>
0

>  <SCORE.RESTR>
0

>  <SCORE.RESTR.CAVITY>
0

>  <SCORE.RESTR.norm>
0

>  <SCORE.SYSTEM>
0

>  <SCORE.SYSTEM.CONST>
0

>  <SCORE.SYSTEM.DIHEDRAL>
0

>  <SCORE.SYSTEM.SOLV>
0

>  <SCORE.SYSTEM.norm>
0

>  <SCORE.heavy>
10

>  <SCORE.norm>
-1.74915

>  <RMSD>
2.445

$$$$
ligand
 OpenBabel11021811423D
libRbt.so/2013.1/901 2013/11/27
 10 11  0  0  0  0  0  0  0  0999 V2000
   11.5382    8.7288   29.5359 N   0  0  0  0  0  0  0  0  0  0  0  0
   11.7088    7.5278   28.8695 C   0  0  0  0  0  0  0  0  0  0  0  0
   11.5743    7.4308   27.5413 N   0  0  0  0  0  0  0  0  0  0  0  0
   11.2580    8.6252   26.9438 C   0  0  0  0  0  0  0  0  0  0  0  0
   11.0767    9.8459   27.5523 C   0  0  0  0  0  0  0  0  0  0  0  0
   11.2174    9.9601   28.9632 C   0  0  0  0  0  0  0  0  0  0  0  0
   11.0990   10.9479   29.6992 O   0  0  0  0  0  0  0  0  0  0  0  0
   10.7742   10.7721   26.5885 N   0  0  0  0  0  0  0  0  0  0  0  0
   10.7744   10.1191   25.4108 C   0  0  0  0  0  0  0  0  0  0  0  0
   11.0676    8.7913   25.5949 N   0  0  0  0  0  0  0  0  0  0  0  0
  1  2  1  0  0  0  0
  1  6  1  0  0  0  0
  2  3  2  0  0  0  0
  3  4  1  0  0  0  0
  4  5  2  0  0  0  0
  4 10  1  0  0  0  0
  5  6  1  0  0  0  0
  5  8  1  0  0  0  0
  6  7  2  0  0  0  0
  8  9  1  0  0  0  0
  9 10  2  0  0  0  0
M  END
>  <CHROM.1>
11.20733156,9.30462462,27.70977353,-1.02186219,1.33843402,-2.08276537

>  <Name>
ligand

>  <RI>
0

>  <Rbt.Current_Directory>
/home/itssahil/PROJECTS/Mol_Feturizer/New_Systems/rnas/2EET

>  <Rbt.Executable>
rbdock ($Id: //depot/dev/client3/rdock/2013.1/src/exe/rbdock.cxx#4 $)

>  <Rbt.Library>
libRbt.so (2013.1, Build901 2013/11/27)

>  <Rbt.Parameter_File>
/export/apps/rDock/src/rDock_2013.1_src/data/scripts/dock_solv.prm

>  <Rbt.Receptor>
prm/blind_docking_60.prm

>  <SCORE>
-17.4815

>  <SCORE.INTER>
-17.4815

>  <SCORE.INTER.CONST>
1

>  <SCORE.INTER.POLAR>
0

>  <SCORE.INTER.ROT>
0

>  <SCORE.INTER.SOLV>
3.864

>  <SCORE.INTER.VDW>
-16.5424

>  <SCORE.INTER.norm>
-1.74815

>  <SCORE.INTRA>
0

>  <SCORE.INTRA.DIHEDRAL>
0

>  <SCORE.INTRA.DIHEDRAL.0>
0

>  <SCORE.INTRA.POLAR>
0

>  <SCORE.INTRA.POLAR.0>
0

>  <SCORE.INTRA.REPUL>
0

>  <SCORE.INTRA.REPUL.0>
0

>  <SCORE.INTRA.SOLV>
0

>  <SCORE.INTRA.SOLV.lig_0>
-4.28464

>  <SCORE.INTRA.VDW>
0

>  <SCORE.INTRA.VDW.0>
0

>  <SCORE.INTRA.norm>
0

>  <SCORE.RESTR>
0

>  <SCORE.RESTR.CAVITY>
0

>  <SCORE.RESTR.norm>
0

>  <SCORE.SYSTEM>
0

>  <SCORE.SYSTEM.CONST>
0

>  <SCORE.SYSTEM.DIHEDRAL>
0

>  <SCORE.SYSTEM.SOLV>
0

>  <SCORE.SYSTEM.norm>
0

>  <SCORE.heavy>
10

>  <SCORE.norm>
-1.74815

>  <RMSD>
2.445

$$$$
ligand
 OpenBabel11021811423D
libRbt.so/2013.1/901 2013/11/27
 10 11  0  0  0  0  0  0  0  0999 V2000
   11.5700    8.7359   29.5327 N   0  0  0  0  0  0  0  0  0  0  0  0
   11.7432    7.5305   28.8750 C   0  0  0  0  0  0  0  0  0  0  0  0
   11.5937    7.4204   27.5494 N   0  0  0  0  0  0  0  0  0  0  0  0
   11.2598    8.6066   26.9451 C   0  0  0  0  0  0  0  0  0  0  0  0
   11.0749    9.8311   27.5449 C   0  0  0  0  0  0  0  0  0  0  0  0
   11.2315    9.9592   28.9529 C   0  0  0  0  0  0  0  0  0  0  0  0
   11.1131   10.9525   29.6815 O   0  0  0  0  0  0  0  0  0  0  0  0
   10.7526   10.7459   26.5767 N   0  0  0  0  0  0  0  0  0  0  0  0
   10.7446   10.0823   25.4049 C   0  0  0  0  0  0  0  0  0  0  0  0
   11.0518    8.7589   25.5973 N   0  0  0  0  0  0  0  0  0  0  0  0
  1  2  1  0  0  0  0
  1  6  1  0  0  0  0
  2  3  2  0  0  0  0
  3  4  1  0  0  0  0
  4  5  2  0  0  0  0
  4 10  1  0  0  0  0
  5  6  1  0  0  0  0
  5  8  1  0  0  0  0
  6  7  2  0  0  0  0
  8  9  1  0  0  0  0
  9 10  2  0  0  0  0
M  END
>  <CHROM.1>
11.21220915,9.29240706,27.70562522,-0.99687870,1.32475949,-2.11597880

>  <Name>
ligand

>  <RI>
0

>  <Rbt.Current_Directory>
/home/itssahil/PROJECTS/Mol_Feturizer/New_Systems/rnas/2EET

>  <Rbt.Executable>
rbdock ($Id: //depot/dev/client3/rdock/2013.1/src/exe/rbdock.cxx#4 $)

>  <Rbt.Library>
libRbt.so (2013.1, Build901 2013/11/27)

>  <Rbt.Parameter_File>
/export/apps/rDock/src/rDock_2013.1_src/data/scripts/dock_solv.prm

>  <Rbt.Receptor>
prm/pocket_docking_3.prm

>  <SCORE>
-17.4807

>  <SCORE.INTER>
-17.4807

>  <SCORE.INTER.CONST>
1

>  <SCORE.INTER.POLAR>
0

>  <SCORE.INTER.ROT>
0

>  <SCORE.INTER.SOLV>
3.85375

>  <SCORE.INTER.VDW>
-16.5384

>  <SCORE.INTER.norm>
-1.74807

>  <SCORE.INTRA>
0

>  <SCORE.INTRA.DIHEDRAL>
0

>  <SCORE.INTRA.DIHEDRAL.0>
0

>  <SCORE.INTRA.POLAR>
0

>  <SCORE.INTRA.POLAR.0>
0

>  <SCORE.INTRA.REPUL>
0

>  <SCORE.INTRA.REPUL.0>
0

>  <SCORE.INTRA.SOLV>
0

>  <SCORE.INTRA.SOLV.lig_0>
-4.28464

>  <SCORE.INTRA.VDW>
0

>  <SCORE.INTRA.VDW.0>
0

>  <SCORE.INTRA.norm>
0

>  <SCORE.RESTR>
0

>  <SCORE.RESTR.CAVITY>
0

>  <SCORE.RESTR.norm>
0

>  <SCORE.SYSTEM>
0

>  <SCORE.SYSTEM.CONST>
0

>  <SCORE.SYSTEM.DIHEDRAL>
0

>  <SCORE.SYSTEM.SOLV>
0

>  <SCORE.SYSTEM.norm>
0

>  <SCORE.heavy>
10

>  <SCORE.norm>
-1.74807

>  <RMSD>
2.445

$$$$
ligand
 OpenBabel11021811423D
libRbt.so/2013.1/901 2013/11/27
 10 11  0  0  0  0  0  0  0  0999 V2000
   11.5612    8.7340   29.5256 N   0  0  0  0  0  0  0  0  0  0  0  0
   11.7315    7.5296   28.8652 C   0  0  0  0  0  0  0  0  0  0  0  0
   11.5877    7.4240   27.5386 N   0  0  0  0  0  0  0  0  0  0  0  0
   11.2625    8.6136   26.9362 C   0  0  0  0  0  0  0  0  0  0  0  0
   11.0810    9.8372   27.5386 C   0  0  0  0  0  0  0  0  0  0  0  0
   11.2315    9.9606   28.9478 C   0  0  0  0  0  0  0  0  0  0  0  0
   11.1147   10.9524   29.6786 O   0  0  0  0  0  0  0  0  0  0  0  0
   10.7679   10.7565   26.5715 N   0  0  0  0  0  0  0  0  0  0  0  0
   10.7620   10.0963   25.3978 C   0  0  0  0  0  0  0  0  0  0  0  0
   11.0617    8.7708   25.5878 N   0  0  0  0  0  0  0  0  0  0  0  0
  1  2  1  0  0  0  0
  1  6  1  0  0  0  0
  2  3  2  0  0  0  0
  3  4  1  0  0  0  0
  4  5  2  0  0  0  0
  4 10  1  0  0  0  0
  5  6  1  0  0  0  0
  5  8  1  0  0  0  0
  6  7  2  0  0  0  0
  8  9  1  0  0  0  0
  9 10  2  0  0  0  0
M  END
>  <CHROM.1>
11.21483100,9.29745005,27.69844769,-1.00292770,1.33149617,-2.10723536

>  <Name>
ligand

>  <RI>
0

>  <Rbt.Current_Directory>
/home/itssahil/PROJECTS/Mol_Feturizer/New_Systems/rnas/2EET

>  <Rbt.Executable>
rbdock ($Id: //depot/dev/client3/rdock/2013.1/src/exe/rbdock.cxx#4 $)

>  <Rbt.Library>
libRbt.so (2013.1, Build901 2013/11/27)

>  <Rbt.Parameter_File>
/export/apps/rDock/src/rDock_2013.1_src/data/scripts/dock_solv.prm

>  <Rbt.Receptor>
prm/pocket_docking_3.prm

>  <SCORE>
-17.4932

>  <SCORE.INTER>
-17.4932

>  <SCORE.INTER.CONST>
1

>  <SCORE.INTER.POLAR>
0

>  <SCORE.INTER.ROT>
0

>  <SCORE.INTER.SOLV>
3.85527

>  <SCORE.INTER.VDW>
-16.5472

>  <SCORE.INTER.norm>
-1.74932

>  <SCORE.INTRA>
0

>  <SCORE.INTRA.DIHEDRAL>
0

>  <SCORE.INTRA.DIHEDRAL.0>
0

>  <SCORE.INTRA.POLAR>
0

>  <SCORE.INTRA.POLAR.0>
0

>  <SCORE.INTRA.REPUL>
0

>  <SCORE.INTRA.REPUL.0>
0

>  <SCORE.INTRA.SOLV>
0

>  <SCORE.INTRA.SOLV.lig_0>
-4.28464

>  <SCORE.INTRA.VDW>
0

>  <SCORE.INTRA.VDW.0>
0

>  <SCORE.INTRA.norm>
0

>  <SCORE.RESTR>
0

>  <SCORE.RESTR.CAVITY>
0

>  <SCORE.RESTR.norm>
0

>  <SCORE.SYSTEM>
0

>  <SCORE.SYSTEM.CONST>
0

>  <SCORE.SYSTEM.DIHEDRAL>
0

>  <SCORE.SYSTEM.SOLV>
0

>  <SCORE.SYSTEM.norm>
0

>  <SCORE.heavy>
10

>  <SCORE.norm>
-1.74932

>  <RMSD>
2.445

$$$$
ligand
 OpenBabel11021811423D
libRbt.so/2013.1/901 2013/11/27
 10 11  0  0  0  0  0  0  0  0999 V2000
   11.5553    8.7323   29.5283 N   0  0  0  0  0  0  0  0  0  0  0  0
   11.7249    7.5289   28.8660 C   0  0  0  0  0  0  0  0  0  0  0  0
   11.5842    7.4263   27.5388 N   0  0  0  0  0  0  0  0  0  0  0  0
   11.2629    8.6177   26.9380 C   0  0  0  0  0  0  0  0  0  0  0  0
   11.0822    9.8405   27.5424 C   0  0  0  0  0  0  0  0  0  0  0  0
   11.2294    9.9607   28.9521 C   0  0  0  0  0  0  0  0  0  0  0  0
   11.1126   10.9513   29.6847 O   0  0  0  0  0  0  0  0  0  0  0  0
   10.7733   10.7623   26.5764 N   0  0  0  0  0  0  0  0  0  0  0  0
   10.7692   10.1044   25.4013 C   0  0  0  0  0  0  0  0  0  0  0  0
   11.0658    8.7780   25.5894 N   0  0  0  0  0  0  0  0  0  0  0  0
  1  2  1  0  0  0  0
  1  6  1  0  0  0  0
  2  3  2  0  0  0  0
  3  4  1  0  0  0  0
  4  5  2  0  0  0  0
  4 10  1  0  0  0  0
  5  6  1  0  0  0  0
  5  8  1  0  0  0  0
  6  7  2  0  0  0  0
  8  9  1  0  0  0  0
  9 10  2  0  0  0  0
M  END
>  <CHROM.1>
11.21459118,9.30011715,27.70147098,-1.00800741,1.33445569,-2.10029914

>  <Name>
ligand

>  <RI>
0

>  <Rbt.Current_Directory>
/home/itssahil/PROJECTS/Mol_Feturizer/New_Systems/rnas/2EET

>  <Rbt.Executable>
rbdock ($Id: //depot/dev/client3/rdock/2013.1/src/exe/rbdock.cxx#4 $)

>  <Rbt.Library>
libRbt.so (2013.1, Build901 2013/11/27)

>  <Rbt.Parameter_File>
/export/apps/rDock/src/rDock_2013.1_src/data/scripts/dock_solv.prm

>  <Rbt.Receptor>
prm/pocket_docking_4.prm

>  <SCORE>
-17.4918

>  <SCORE.INTER>
-17.4918

>  <SCORE.INTER.CONST>
1

>  <SCORE.INTER.POLAR>
0

>  <SCORE.INTER.ROT>
0

>  <SCORE.INTER.SOLV>
3.85622

>  <SCORE.INTER.VDW>
-16.5466

>  <SCORE.INTER.norm>
-1.74918

>  <SCORE.INTRA>
0

>  <SCORE.INTRA.DIHEDRAL>
0

>  <SCORE.INTRA.DIHEDRAL.0>
0

>  <SCORE.INTRA.POLAR>
0

>  <SCORE.INTRA.POLAR.0>
0

>  <SCORE.INTRA.REPUL>
0

>  <SCORE.INTRA.REPUL.0>
0

>  <SCORE.INTRA.SOLV>
0

>  <SCORE.INTRA.SOLV.lig_0>
-4.28464

>  <SCORE.INTRA.VDW>
0

>  <SCORE.INTRA.VDW.0>
0

>  <SCORE.INTRA.norm>
0

>  <SCORE.RESTR>
0

>  <SCORE.RESTR.CAVITY>
0

>  <SCORE.RESTR.norm>
0

>  <SCORE.SYSTEM>
0

>  <SCORE.SYSTEM.CONST>
0

>  <SCORE.SYSTEM.DIHEDRAL>
0

>  <SCORE.SYSTEM.SOLV>
0

>  <SCORE.SYSTEM.norm>
0

>  <SCORE.heavy>
10

>  <SCORE.norm>
-1.74918

>  <RMSD>
2.445

$$$$
ligand
 OpenBabel11021811423D
libRbt.so/2013.1/901 2013/11/27
 10 11  0  0  0  0  0  0  0  0999 V2000
   11.5451    8.7320   29.5348 N   0  0  0  0  0  0  0  0  0  0  0  0
   11.7153    7.5303   28.8696 C   0  0  0  0  0  0  0  0  0  0  0  0
   11.5774    7.4313   27.5418 N   0  0  0  0  0  0  0  0  0  0  0  0
   11.2581    8.6245   26.9435 C   0  0  0  0  0  0  0  0  0  0  0  0
   11.0769    9.8458   27.5508 C   0  0  0  0  0  0  0  0  0  0  0  0
   11.2212    9.9621   28.9612 C   0  0  0  0  0  0  0  0  0  0  0  0
   11.1036   10.9508   29.6961 O   0  0  0  0  0  0  0  0  0  0  0  0
   10.7706   10.7704   26.5866 N   0  0  0  0  0  0  0  0  0  0  0  0
   10.7685   10.1157   25.4098 C   0  0  0  0  0  0  0  0  0  0  0  0
   11.0639    8.7886   25.5950 N   0  0  0  0  0  0  0  0  0  0  0  0
  1  2  1  0  0  0  0
  1  6  1  0  0  0  0
  2  3  2  0  0  0  0
  3  4  1  0  0  0  0
  4  5  2  0  0  0  0
  4 10  1  0  0  0  0
  5  6  1  0  0  0  0
  5  8  1  0  0  0  0
  6  7  2  0  0  0  0
  8  9  1  0  0  0  0
  9 10  2  0  0  0  0
M  END
>  <CHROM.1>
11.20861069,9.30493755,27.70872617,-1.01435438,1.33605782,-2.09144561

>  <Name>
ligand

>  <RI>
0

>  <Rbt.Current_Directory>
/home/itssahil/PROJECTS/Mol_Feturizer/New_Systems/rnas/2EET

>  <Rbt.Executable>
rbdock ($Id: //depot/dev/client3/rdock/2013.1/src/exe/rbdock.cxx#4 $)

>  <Rbt.Library>
libRbt.so (2013.1, Build901 2013/11/27)

>  <Rbt.Parameter_File>
/export/apps/rDock/src/rDock_2013.1_src/data/scripts/dock_solv.prm

>  <Rbt.Receptor>
prm/pocket_docking_4.prm

>  <SCORE>
-17.4856

>  <SCORE.INTER>
-17.4856

>  <SCORE.INTER.CONST>
1

>  <SCORE.INTER.POLAR>
0

>  <SCORE.INTER.ROT>
0

>  <SCORE.INTER.SOLV>
3.86116

>  <SCORE.INTER.VDW>
-16.5441

>  <SCORE.INTER.norm>
-1.74856

>  <SCORE.INTRA>
0

>  <SCORE.INTRA.DIHEDRAL>
0

>  <SCORE.INTRA.DIHEDRAL.0>
0

>  <SCORE.INTRA.POLAR>
0

>  <SCORE.INTRA.POLAR.0>
0

>  <SCORE.INTRA.REPUL>
0

>  <SCORE.INTRA.REPUL.0>
0

>  <SCORE.INTRA.SOLV>
0

>  <SCORE.INTRA.SOLV.lig_0>
-4.28464

>  <SCORE.INTRA.VDW>
0

>  <SCORE.INTRA.VDW.0>
0

>  <SCORE.INTRA.norm>
0

>  <SCORE.RESTR>
0

>  <SCORE.RESTR.CAVITY>
0

>  <SCORE.RESTR.norm>
0

>  <SCORE.SYSTEM>
0

>  <SCORE.SYSTEM.CONST>
0

>  <SCORE.SYSTEM.DIHEDRAL>
0

>  <SCORE.SYSTEM.SOLV>
0

>  <SCORE.SYSTEM.norm>
0

>  <SCORE.heavy>
10

>  <SCORE.norm>
-1.74856

>  <RMSD>
2.445

$$$$
ligand
 OpenBabel11021811423D
libRbt.so/2013.1/901 2013/11/27
 10 11  0  0  0  0  0  0  0  0999 V2000
   11.5552    8.7290   29.5283 N   0  0  0  0  0  0  0  0  0  0  0  0
   11.7253    7.5257   28.8658 C   0  0  0  0  0  0  0  0  0  0  0  0
   11.5848    7.4233   27.5386 N   0  0  0  0  0  0  0  0  0  0  0  0
   11.2629    8.6146   26.9379 C   0  0  0  0  0  0  0  0  0  0  0  0
   11.0817    9.8372   27.5425 C   0  0  0  0  0  0  0  0  0  0  0  0
   11.2288    9.9573   28.9523 C   0  0  0  0  0  0  0  0  0  0  0  0
   11.1116   10.9477   29.6849 O   0  0  0  0  0  0  0  0  0  0  0  0
   10.7724   10.7590   26.5766 N   0  0  0  0  0  0  0  0  0  0  0  0
   10.7686   10.1013   25.4014 C   0  0  0  0  0  0  0  0  0  0  0  0
   11.0658    8.7750   25.5894 N   0  0  0  0  0  0  0  0  0  0  0  0
  1  2  1  0  0  0  0
  1  6  1  0  0  0  0
  2  3  2  0  0  0  0
  3  4  1  0  0  0  0
  4  5  2  0  0  0  0
  4 10  1  0  0  0  0
  5  6  1  0  0  0  0
  5  8  1  0  0  0  0
  6  7  2  0  0  0  0
  8  9  1  0  0  0  0
  9 10  2  0  0  0  0
M  END
>  <CHROM.1>
11.21431186,9.29689160,27.70149806,-1.00903123,1.33407962,-2.09916704

>  <Name>
ligand

>  <RI>
0

>  <Rbt.Current_Directory>
/home/itssahil/PROJECTS/Mol_Feturizer/New_Systems/rnas/2EET

>  <Rbt.Executable>
rbdock ($Id: //depot/dev/client3/rdock/2013.1/src/exe/rbdock.cxx#4 $)

>  <Rbt.Library>
libRbt.so (2013.1, Build901 2013/11/27)

>  <Rbt.Parameter_File>
/export/apps/rDock/src/rDock_2013.1_src/data/scripts/dock_solv.prm

>  <Rbt.Receptor>
prm/pocket_docking_4.prm

>  <SCORE>
-17.4908

>  <SCORE.INTER>
-17.4908

>  <SCORE.INTER.CONST>
1

>  <SCORE.INTER.POLAR>
0

>  <SCORE.INTER.ROT>
0

>  <SCORE.INTER.SOLV>
3.8544

>  <SCORE.INTER.VDW>
-16.5453

>  <SCORE.INTER.norm>
-1.74908

>  <SCORE.INTRA>
0

>  <SCORE.INTRA.DIHEDRAL>
0

>  <SCORE.INTRA.DIHEDRAL.0>
0

>  <SCORE.INTRA.POLAR>
0

>  <SCORE.INTRA.POLAR.0>
0

>  <SCORE.INTRA.REPUL>
0

>  <SCORE.INTRA.REPUL.0>
0

>  <SCORE.INTRA.SOLV>
0

>  <SCORE.INTRA.SOLV.lig_0>
-4.28464

>  <SCORE.INTRA.VDW>
0

>  <SCORE.INTRA.VDW.0>
0

>  <SCORE.INTRA.norm>
0

>  <SCORE.RESTR>
0

>  <SCORE.RESTR.CAVITY>
0

>  <SCORE.RESTR.norm>
0

>  <SCORE.SYSTEM>
0

>  <SCORE.SYSTEM.CONST>
0

>  <SCORE.SYSTEM.DIHEDRAL>
0

>  <SCORE.SYSTEM.SOLV>
0

>  <SCORE.SYSTEM.norm>
0

>  <SCORE.heavy>
10

>  <SCORE.norm>
-1.74908

>  <RMSD>
2.445

$$$$
ligand
 OpenBabel11021811423D
libRbt.so/2013.1/901 2013/11/27
 10 11  0  0  0  0  0  0  0  0999 V2000
   11.5293    8.7693   29.5909 N   0  0  0  0  0  0  0  0  0  0  0  0
   11.6945    7.5488   28.9595 C   0  0  0  0  0  0  0  0  0  0  0  0
   11.5607    7.4144   27.6344 N   0  0  0  0  0  0  0  0  0  0  0  0
   11.2509    8.5927   27.0025 C   0  0  0  0  0  0  0  0  0  0  0  0
   11.0750    9.8312   27.5755 C   0  0  0  0  0  0  0  0  0  0  0  0
   11.2150    9.9852   28.9827 C   0  0  0  0  0  0  0  0  0  0  0  0
   11.1008   10.9943   29.6899 O   0  0  0  0  0  0  0  0  0  0  0  0
   10.7779   10.7309   26.5853 N   0  0  0  0  0  0  0  0  0  0  0  0
   10.7759   10.0442   25.4268 C   0  0  0  0  0  0  0  0  0  0  0  0
   11.0625    8.7209   25.6493 N   0  0  0  0  0  0  0  0  0  0  0  0
  1  2  1  0  0  0  0
  1  6  1  0  0  0  0
  2  3  2  0  0  0  0
  3  4  1  0  0  0  0
  4  5  2  0  0  0  0
  4 10  1  0  0  0  0
  5  6  1  0  0  0  0
  5  8  1  0  0  0  0
  6  7  2  0  0  0  0
  8  9  1  0  0  0  0
  9 10  2  0  0  0  0
M  END
>  <CHROM.1>
11.20284581,9.29404181,27.74865723,-1.01454171,1.34315588,-2.11861930

>  <Name>
ligand

>  <RI>
0

>  <Rbt.Current_Directory>
/home/itssahil/PROJECTS/Mol_Feturizer/New_Systems/rnas/2EET

>  <Rbt.Executable>
rbdock ($Id: //depot/dev/client3/rdock/2013.1/src/exe/rbdock.cxx#4 $)

>  <Rbt.Library>
libRbt.so (2013.1, Build901 2013/11/27)

>  <Rbt.Parameter_File>
/export/apps/rDock/src/rDock_2013.1_src/data/scripts/dock_solv.prm

>  <Rbt.Receptor>
prm/pocket_docking_5.prm

>  <SCORE>
-17.5141

>  <SCORE.INTER>
-17.5141

>  <SCORE.INTER.CONST>
1

>  <SCORE.INTER.POLAR>
0

>  <SCORE.INTER.ROT>
0

>  <SCORE.INTER.SOLV>
3.92641

>  <SCORE.INTER.VDW>
-16.5848

>  <SCORE.INTER.norm>
-1.75141

>  <SCORE.INTRA>
0

>  <SCORE.INTRA.DIHEDRAL>
0

>  <SCORE.INTRA.DIHEDRAL.0>
0

>  <SCORE.INTRA.POLAR>
0

>  <SCORE.INTRA.POLAR.0>
0

>  <SCORE.INTRA.REPUL>
0

>  <SCORE.INTRA.REPUL.0>
0

>  <SCORE.INTRA.SOLV>
0

>  <SCORE.INTRA.SOLV.lig_0>
-4.28464

>  <SCORE.INTRA.VDW>
0

>  <SCORE.INTRA.VDW.0>
0

>  <SCORE.INTRA.norm>
0

>  <SCORE.RESTR>
0

>  <SCORE.RESTR.CAVITY>
0

>  <SCORE.RESTR.norm>
0

>  <SCORE.SYSTEM>
0

>  <SCORE.SYSTEM.CONST>
0

>  <SCORE.SYSTEM.DIHEDRAL>
0

>  <SCORE.SYSTEM.SOLV>
0

>  <SCORE.SYSTEM.norm>
0

>  <SCORE.heavy>
10

>  <SCORE.norm>
-1.75141

>  <RMSD>
2.445

$$$$
ligand
 OpenBabel11021811423D
libRbt.so/2013.1/901 2013/11/27
 10 11  0  0  0  0  0  0  0  0999 V2000
   11.5914    8.7247   29.5433 N   0  0  0  0  0  0  0  0  0  0  0  0
   11.7872    7.5192   28.8920 C   0  0  0  0  0  0  0  0  0  0  0  0
   11.6401    7.3994   27.5670 N   0  0  0  0  0  0  0  0  0  0  0  0
   11.2841    8.5758   26.9565 C   0  0  0  0  0  0  0  0  0  0  0  0
   11.0762    9.7998   27.5497 C   0  0  0  0  0  0  0  0  0  0  0  0
   11.2300    9.9383   28.9571 C   0  0  0  0  0  0  0  0  0  0  0  0
   11.0929   10.9330   29.6803 O   0  0  0  0  0  0  0  0  0  0  0  0
   10.7371   10.7033   26.5766 N   0  0  0  0  0  0  0  0  0  0  0  0
   10.7417   10.0334   25.4084 C   0  0  0  0  0  0  0  0  0  0  0  0
   11.0736    8.7171   25.6078 N   0  0  0  0  0  0  0  0  0  0  0  0
  1  2  1  0  0  0  0
  1  6  1  0  0  0  0
  2  3  2  0  0  0  0
  3  4  1  0  0  0  0
  4  5  2  0  0  0  0
  4 10  1  0  0  0  0
  5  6  1  0  0  0  0
  5  8  1  0  0  0  0
  6  7  2  0  0  0  0
  8  9  1  0  0  0  0
  9 10  2  0  0  0  0
M  END
>  <CHROM.1>
11.22354310,9.26463864,27.71329178,-1.03505501,1.30866399,-2.08432266

>  <Name>
ligand

>  <RI>
0

>  <Rbt.Current_Directory>
/home/itssahil/PROJECTS/Mol_Feturizer/New_Systems/rnas/2EET

>  <Rbt.Executable>
rbdock ($Id: //depot/dev/client3/rdock/2013.1/src/exe/rbdock.cxx#4 $)

>  <Rbt.Library>
libRbt.so (2013.1, Build901 2013/11/27)

>  <Rbt.Parameter_File>
/export/apps/rDock/src/rDock_2013.1_src/data/scripts/dock_solv.prm

>  <Rbt.Receptor>
prm/pocket_docking_5.prm

>  <SCORE>
-17.4963

>  <SCORE.INTER>
-17.4963

>  <SCORE.INTER.CONST>
1

>  <SCORE.INTER.POLAR>
0

>  <SCORE.INTER.ROT>
0

>  <SCORE.INTER.SOLV>
3.83793

>  <SCORE.INTER.VDW>
-16.5435

>  <SCORE.INTER.norm>
-1.74963

>  <SCORE.INTRA>
0

>  <SCORE.INTRA.DIHEDRAL>
0

>  <SCORE.INTRA.DIHEDRAL.0>
0

>  <SCORE.INTRA.POLAR>
0

>  <SCORE.INTRA.POLAR.0>
0

>  <SCORE.INTRA.REPUL>
0

>  <SCORE.INTRA.REPUL.0>
0

>  <SCORE.INTRA.SOLV>
0

>  <SCORE.INTRA.SOLV.lig_0>
-4.28464

>  <SCORE.INTRA.VDW>
0

>  <SCORE.INTRA.VDW.0>
0

>  <SCORE.INTRA.norm>
0

>  <SCORE.RESTR>
0

>  <SCORE.RESTR.CAVITY>
0

>  <SCORE.RESTR.norm>
0

>  <SCORE.SYSTEM>
0

>  <SCORE.SYSTEM.CONST>
0

>  <SCORE.SYSTEM.DIHEDRAL>
0

>  <SCORE.SYSTEM.SOLV>
0

>  <SCORE.SYSTEM.norm>
0

>  <SCORE.heavy>
10

>  <SCORE.norm>
-1.74963

>  <RMSD>
2.445

$$$$
ligand
 OpenBabel11021811423D
libRbt.so/2013.1/901 2013/11/27
 10 11  0  0  0  0  0  0  0  0999 V2000
   11.5400    8.7396   29.5375 N   0  0  0  0  0  0  0  0  0  0  0  0
   11.7235    7.5409   28.8703 C   0  0  0  0  0  0  0  0  0  0  0  0
   11.5899    7.4433   27.5421 N   0  0  0  0  0  0  0  0  0  0  0  0
   11.2606    8.6346   26.9454 C   0  0  0  0  0  0  0  0  0  0  0  0
   11.0661    9.8528   27.5547 C   0  0  0  0  0  0  0  0  0  0  0  0
   11.2057    9.9677   28.9656 C   0  0  0  0  0  0  0  0  0  0  0  0
   11.0766   10.9537   29.7023 O   0  0  0  0  0  0  0  0  0  0  0  0
   10.7533   10.7764   26.5916 N   0  0  0  0  0  0  0  0  0  0  0  0
   10.7605   10.1241   25.4134 C   0  0  0  0  0  0  0  0  0  0  0  0
   11.0682    8.7995   25.5967 N   0  0  0  0  0  0  0  0  0  0  0  0
  1  2  1  0  0  0  0
  1  6  1  0  0  0  0
  2  3  2  0  0  0  0
  3  4  1  0  0  0  0
  4  5  2  0  0  0  0
  4 10  1  0  0  0  0
  5  6  1  0  0  0  0
  5  8  1  0  0  0  0
  6  7  2  0  0  0  0
  8  9  1  0  0  0  0
  9 10  2  0  0  0  0
M  END
>  <CHROM.1>
11.20259874,9.31294016,27.71180721,-1.04361942,1.32882109,-2.06097449

>  <Name>
ligand

>  <RI>
0

>  <Rbt.Current_Directory>
/home/itssahil/PROJECTS/Mol_Feturizer/New_Systems/rnas/2EET

>  <Rbt.Executable>
rbdock ($Id: //depot/dev/client3/rdock/2013.1/src/exe/rbdock.cxx#4 $)

>  <Rbt.Library>
libRbt.so (2013.1, Build901 2013/11/27)

>  <Rbt.Parameter_File>
/export/apps/rDock/src/rDock_2013.1_src/data/scripts/dock_solv.prm

>  <Rbt.Receptor>
prm/pocket_docking_5.prm

>  <SCORE>
-17.4761

>  <SCORE.INTER>
-17.4761

>  <SCORE.INTER.CONST>
1

>  <SCORE.INTER.POLAR>
0

>  <SCORE.INTER.ROT>
0

>  <SCORE.INTER.SOLV>
3.86683

>  <SCORE.INTER.VDW>
-16.5397

>  <SCORE.INTER.norm>
-1.74761

>  <SCORE.INTRA>
0

>  <SCORE.INTRA.DIHEDRAL>
0

>  <SCORE.INTRA.DIHEDRAL.0>
0

>  <SCORE.INTRA.POLAR>
0

>  <SCORE.INTRA.POLAR.0>
0

>  <SCORE.INTRA.REPUL>
0

>  <SCORE.INTRA.REPUL.0>
0

>  <SCORE.INTRA.SOLV>
0

>  <SCORE.INTRA.SOLV.lig_0>
-4.28464

>  <SCORE.INTRA.VDW>
0

>  <SCORE.INTRA.VDW.0>
0

>  <SCORE.INTRA.norm>
0

>  <SCORE.RESTR>
0

>  <SCORE.RESTR.CAVITY>
0

>  <SCORE.RESTR.norm>
0

>  <SCORE.SYSTEM>
0

>  <SCORE.SYSTEM.CONST>
0

>  <SCORE.SYSTEM.DIHEDRAL>
0

>  <SCORE.SYSTEM.SOLV>
0

>  <SCORE.SYSTEM.norm>
0

>  <SCORE.heavy>
10

>  <SCORE.norm>
-1.74761

>  <RMSD>
2.445

$$$$
ligand
 OpenBabel11021811423D
libRbt.so/2013.1/901 2013/11/27
 10 11  0  0  0  0  0  0  0  0999 V2000
   11.5416    8.7339   29.5918 N   0  0  0  0  0  0  0  0  0  0  0  0
   11.7560    7.5289   28.9455 C   0  0  0  0  0  0  0  0  0  0  0  0
   11.6252    7.4050   27.6191 N   0  0  0  0  0  0  0  0  0  0  0  0
   11.2656    8.5769   27.0019 C   0  0  0  0  0  0  0  0  0  0  0  0
   11.0398    9.8001   27.5901 C   0  0  0  0  0  0  0  0  0  0  0  0
   11.1760    9.9429   28.9988 C   0  0  0  0  0  0  0  0  0  0  0  0
   11.0215   10.9379   29.7182 O   0  0  0  0  0  0  0  0  0  0  0  0
   10.7036   10.6985   26.6111 N   0  0  0  0  0  0  0  0  0  0  0  0
   10.7278   10.0262   25.4445 C   0  0  0  0  0  0  0  0  0  0  0  0
   11.0694    8.7134   25.6506 N   0  0  0  0  0  0  0  0  0  0  0  0
  1  2  1  0  0  0  0
  1  6  1  0  0  0  0
  2  3  2  0  0  0  0
  3  4  1  0  0  0  0
  4  5  2  0  0  0  0
  4 10  1  0  0  0  0
  5  6  1  0  0  0  0
  5  8  1  0  0  0  0
  6  7  2  0  0  0  0
  8  9  1  0  0  0  0
  9 10  2  0  0  0  0
M  END
>  <CHROM.1>
11.19004806,9.26667436,27.75651232,-1.09061307,1.30601222,-2.03282662

>  <Name>
ligand

>  <RI>
0

>  <Rbt.Current_Directory>
/home/itssahil/PROJECTS/Mol_Feturizer/New_Systems/rnas/2EET

>  <Rbt.Executable>
rbdock ($Id: //depot/dev/client3/rdock/2013.1/src/exe/rbdock.cxx#4 $)

>  <Rbt.Library>
libRbt.so (2013.1, Build901 2013/11/27)

>  <Rbt.Parameter_File>
/export/apps/rDock/src/rDock_2013.1_src/data/scripts/dock_solv.prm

>  <Rbt.Receptor>
prm/pocket_docking_6.prm

>  <SCORE>
-17.4865

>  <SCORE.INTER>
-17.4865

>  <SCORE.INTER.CONST>
1

>  <SCORE.INTER.POLAR>
0

>  <SCORE.INTER.ROT>
0

>  <SCORE.INTER.SOLV>
3.90372

>  <SCORE.INTER.VDW>
-16.5589

>  <SCORE.INTER.norm>
-1.74865

>  <SCORE.INTRA>
0

>  <SCORE.INTRA.DIHEDRAL>
0

>  <SCORE.INTRA.DIHEDRAL.0>
0

>  <SCORE.INTRA.POLAR>
0

>  <SCORE.INTRA.POLAR.0>
0

>  <SCORE.INTRA.REPUL>
0

>  <SCORE.INTRA.REPUL.0>
0

>  <SCORE.INTRA.SOLV>
0

>  <SCORE.INTRA.SOLV.lig_0>
-4.28464

>  <SCORE.INTRA.VDW>
0

>  <SCORE.INTRA.VDW.0>
0

>  <SCORE.INTRA.norm>
0

>  <SCORE.RESTR>
0

>  <SCORE.RESTR.CAVITY>
0

>  <SCORE.RESTR.norm>
0

>  <SCORE.SYSTEM>
0

>  <SCORE.SYSTEM.CONST>
0

>  <SCORE.SYSTEM.DIHEDRAL>
0

>  <SCORE.SYSTEM.SOLV>
0

>  <SCORE.SYSTEM.norm>
0

>  <SCORE.heavy>
10

>  <SCORE.norm>
-1.74865

>  <RMSD>
2.445

$$$$
ligand
 OpenBabel11021811423D
libRbt.so/2013.1/901 2013/11/27
 10 11  0  0  0  0  0  0  0  0999 V2000
   11.5628    8.7338   29.5295 N   0  0  0  0  0  0  0  0  0  0  0  0
   11.7380    7.5311   28.8672 C   0  0  0  0  0  0  0  0  0  0  0  0
   11.5961    7.4274   27.5403 N   0  0  0  0  0  0  0  0  0  0  0  0
   11.2676    8.6169   26.9396 C   0  0  0  0  0  0  0  0  0  0  0  0
   11.0812    9.8388   27.5438 C   0  0  0  0  0  0  0  0  0  0  0  0
   11.2297    9.9603   28.9533 C   0  0  0  0  0  0  0  0  0  0  0  0
   11.1086   10.9504   29.6857 O   0  0  0  0  0  0  0  0  0  0  0  0
   10.7662   10.7587   26.5779 N   0  0  0  0  0  0  0  0  0  0  0  0
   10.7639   10.1005   25.4031 C   0  0  0  0  0  0  0  0  0  0  0  0
   11.0679    8.7757   25.5912 N   0  0  0  0  0  0  0  0  0  0  0  0
  1  2  1  0  0  0  0
  1  6  1  0  0  0  0
  2  3  2  0  0  0  0
  3  4  1  0  0  0  0
  4  5  2  0  0  0  0
  4 10  1  0  0  0  0
  5  6  1  0  0  0  0
  5  8  1  0  0  0  0
  6  7  2  0  0  0  0
  8  9  1  0  0  0  0
  9 10  2  0  0  0  0
M  END
>  <CHROM.1>
11.21670534,9.29924908,27.70287962,-1.01445160,1.32917600,-2.09433772

>  <Name>
ligand

>  <RI>
0

>  <Rbt.Current_Directory>
/home/itssahil/PROJECTS/Mol_Feturizer/New_Systems/rnas/2EET

>  <Rbt.Executable>
rbdock ($Id: //depot/dev/client3/rdock/2013.1/src/exe/rbdock.cxx#4 $)

>  <Rbt.Library>
libRbt.so (2013.1, Build901 2013/11/27)

>  <Rbt.Parameter_File>
/export/apps/rDock/src/rDock_2013.1_src/data/scripts/dock_solv.prm

>  <Rbt.Receptor>
prm/pocket_docking_6.prm

>  <SCORE>
-17.4903

>  <SCORE.INTER>
-17.4903

>  <SCORE.INTER.CONST>
1

>  <SCORE.INTER.POLAR>
0

>  <SCORE.INTER.ROT>
0

>  <SCORE.INTER.SOLV>
3.8518

>  <SCORE.INTER.VDW>
-16.5441

>  <SCORE.INTER.norm>
-1.74903

>  <SCORE.INTRA>
0

>  <SCORE.INTRA.DIHEDRAL>
0

>  <SCORE.INTRA.DIHEDRAL.0>
0

>  <SCORE.INTRA.POLAR>
0

>  <SCORE.INTRA.POLAR.0>
0

>  <SCORE.INTRA.REPUL>
0

>  <SCORE.INTRA.REPUL.0>
0

>  <SCORE.INTRA.SOLV>
0

>  <SCORE.INTRA.SOLV.lig_0>
-4.28464

>  <SCORE.INTRA.VDW>
0

>  <SCORE.INTRA.VDW.0>
0

>  <SCORE.INTRA.norm>
0

>  <SCORE.RESTR>
0

>  <SCORE.RESTR.CAVITY>
0

>  <SCORE.RESTR.norm>
0

>  <SCORE.SYSTEM>
0

>  <SCORE.SYSTEM.CONST>
0

>  <SCORE.SYSTEM.DIHEDRAL>
0

>  <SCORE.SYSTEM.SOLV>
0

>  <SCORE.SYSTEM.norm>
0

>  <SCORE.heavy>
10

>  <SCORE.norm>
-1.74903

>  <RMSD>
2.445

$$$$
ligand
 OpenBabel11021811423D
libRbt.so/2013.1/901 2013/11/27
 10 11  0  0  0  0  0  0  0  0999 V2000
   11.5847    8.7004   29.5432 N   0  0  0  0  0  0  0  0  0  0  0  0
   11.7831    7.5035   28.8770 C   0  0  0  0  0  0  0  0  0  0  0  0
   11.6239    7.3969   27.5522 N   0  0  0  0  0  0  0  0  0  0  0  0
   11.2534    8.5771   26.9579 C   0  0  0  0  0  0  0  0  0  0  0  0
   11.0424    9.7931   27.5663 C   0  0  0  0  0  0  0  0  0  0  0  0
   11.2089    9.9176   28.9736 C   0  0  0  0  0  0  0  0  0  0  0  0
   11.0715   10.9035   29.7088 O   0  0  0  0  0  0  0  0  0  0  0  0
   10.6872   10.7045   26.6064 N   0  0  0  0  0  0  0  0  0  0  0  0
   10.6853   10.0473   25.4310 C   0  0  0  0  0  0  0  0  0  0  0  0
   11.0287    8.7313   25.6129 N   0  0  0  0  0  0  0  0  0  0  0  0
  1  2  1  0  0  0  0
  1  6  1  0  0  0  0
  2  3  2  0  0  0  0
  3  4  1  0  0  0  0
  4  5  2  0  0  0  0
  4 10  1  0  0  0  0
  5  6  1  0  0  0  0
  5  8  1  0  0  0  0
  6  7  2  0  0  0  0
  8  9  1  0  0  0  0
  9 10  2  0  0  0  0
M  END
>  <CHROM.1>
11.19518714,9.25732561,27.72270451,-1.01694277,1.29748367,-2.09100862

>  <Name>
ligand

>  <RI>
0

>  <Rbt.Current_Directory>
/home/itssahil/PROJECTS/Mol_Feturizer/New_Systems/rnas/2EET

>  <Rbt.Executable>
rbdock ($Id: //depot/dev/client3/rdock/2013.1/src/exe/rbdock.cxx#4 $)

>  <Rbt.Library>
libRbt.so (2013.1, Build901 2013/11/27)

>  <Rbt.Parameter_File>
/export/apps/rDock/src/rDock_2013.1_src/data/scripts/dock_solv.prm

>  <Rbt.Receptor>
prm/pocket_docking_7.prm

>  <SCORE>
-17.4754

>  <SCORE.INTER>
-17.4754

>  <SCORE.INTER.CONST>
1

>  <SCORE.INTER.POLAR>
0

>  <SCORE.INTER.ROT>
0

>  <SCORE.INTER.SOLV>
3.83707

>  <SCORE.INTER.VDW>
-16.5293

>  <SCORE.INTER.norm>
-1.74754

>  <SCORE.INTRA>
0

>  <SCORE.INTRA.DIHEDRAL>
0

>  <SCORE.INTRA.DIHEDRAL.0>
0

>  <SCORE.INTRA.POLAR>
0

>  <SCORE.INTRA.POLAR.0>
0

>  <SCORE.INTRA.REPUL>
0

>  <SCORE.INTRA.REPUL.0>
0

>  <SCORE.INTRA.SOLV>
0

>  <SCORE.INTRA.SOLV.lig_0>
-4.28464

>  <SCORE.INTRA.VDW>
0

>  <SCORE.INTRA.VDW.0>
0

>  <SCORE.INTRA.norm>
0

>  <SCORE.RESTR>
0

>  <SCORE.RESTR.CAVITY>
0

>  <SCORE.RESTR.norm>
0

>  <SCORE.SYSTEM>
0

>  <SCORE.SYSTEM.CONST>
0

>  <SCORE.SYSTEM.DIHEDRAL>
0

>  <SCORE.SYSTEM.SOLV>
0

>  <SCORE.SYSTEM.norm>
0

>  <SCORE.heavy>
10

>  <SCORE.norm>
-1.74754

>  <RMSD>
2.445

$$$$
ligand
 OpenBabel11021811423D
libRbt.so/2013.1/901 2013/11/27
 10 11  0  0  0  0  0  0  0  0999 V2000
   11.5534    8.7350   29.5296 N   0  0  0  0  0  0  0  0  0  0  0  0
   11.7249    7.5321   28.8669 C   0  0  0  0  0  0  0  0  0  0  0  0
   11.5859    7.4301   27.5395 N   0  0  0  0  0  0  0  0  0  0  0  0
   11.2641    8.6214   26.9389 C   0  0  0  0  0  0  0  0  0  0  0  0
   11.0816    9.8437   27.5437 C   0  0  0  0  0  0  0  0  0  0  0  0
   11.2270    9.9634   28.9537 C   0  0  0  0  0  0  0  0  0  0  0  0
   11.1085   10.9535   29.6866 O   0  0  0  0  0  0  0  0  0  0  0  0
   10.7729   10.7657   26.5778 N   0  0  0  0  0  0  0  0  0  0  0  0
   10.7707   10.1084   25.4024 C   0  0  0  0  0  0  0  0  0  0  0  0
   11.0684    8.7822   25.5902 N   0  0  0  0  0  0  0  0  0  0  0  0
  1  2  1  0  0  0  0
  1  6  1  0  0  0  0
  2  3  2  0  0  0  0
  3  4  1  0  0  0  0
  4  5  2  0  0  0  0
  4 10  1  0  0  0  0
  5  6  1  0  0  0  0
  5  8  1  0  0  0  0
  6  7  2  0  0  0  0
  8  9  1  0  0  0  0
  9 10  2  0  0  0  0
M  END
>  <CHROM.1>
11.21428457,9.30342524,27.70267022,-1.01431863,1.33419181,-2.09366879

>  <Name>
ligand

>  <RI>
0

>  <Rbt.Current_Directory>
/home/itssahil/PROJECTS/Mol_Feturizer/New_Systems/rnas/2EET

>  <Rbt.Executable>
rbdock ($Id: //depot/dev/client3/rdock/2013.1/src/exe/rbdock.cxx#4 $)

>  <Rbt.Library>
libRbt.so (2013.1, Build901 2013/11/27)

>  <Rbt.Parameter_File>
/export/apps/rDock/src/rDock_2013.1_src/data/scripts/dock_solv.prm

>  <Rbt.Receptor>
prm/pocket_docking_7.prm

>  <SCORE>
-17.4909

>  <SCORE.INTER>
-17.4909

>  <SCORE.INTER.CONST>
1

>  <SCORE.INTER.POLAR>
0

>  <SCORE.INTER.ROT>
0

>  <SCORE.INTER.SOLV>
3.85823

>  <SCORE.INTER.VDW>
-16.5467

>  <SCORE.INTER.norm>
-1.74909

>  <SCORE.INTRA>
0

>  <SCORE.INTRA.DIHEDRAL>
0

>  <SCORE.INTRA.DIHEDRAL.0>
0

>  <SCORE.INTRA.POLAR>
0

>  <SCORE.INTRA.POLAR.0>
0

>  <SCORE.INTRA.REPUL>
0

>  <SCORE.INTRA.REPUL.0>
0

>  <SCORE.INTRA.SOLV>
0

>  <SCORE.INTRA.SOLV.lig_0>
-4.28464

>  <SCORE.INTRA.VDW>
0

>  <SCORE.INTRA.VDW.0>
0

>  <SCORE.INTRA.norm>
0

>  <SCORE.RESTR>
0

>  <SCORE.RESTR.CAVITY>
0

>  <SCORE.RESTR.norm>
0

>  <SCORE.SYSTEM>
0

>  <SCORE.SYSTEM.CONST>
0

>  <SCORE.SYSTEM.DIHEDRAL>
0

>  <SCORE.SYSTEM.SOLV>
0

>  <SCORE.SYSTEM.norm>
0

>  <SCORE.heavy>
10

>  <SCORE.norm>
-1.74909

>  <RMSD>
2.445

$$$$
ligand
 OpenBabel11021811423D
libRbt.so/2013.1/901 2013/11/27
 10 11  0  0  0  0  0  0  0  0999 V2000
   11.5745    8.7259   29.5196 N   0  0  0  0  0  0  0  0  0  0  0  0
   11.7417    7.5207   28.8598 C   0  0  0  0  0  0  0  0  0  0  0  0
   11.5902    7.4134   27.5342 N   0  0  0  0  0  0  0  0  0  0  0  0
   11.2607    8.6019   26.9322 C   0  0  0  0  0  0  0  0  0  0  0  0
   11.0819    9.8262   27.5340 C   0  0  0  0  0  0  0  0  0  0  0  0
   11.2406    9.9515   28.9421 C   0  0  0  0  0  0  0  0  0  0  0  0
   11.1274   10.9442   29.6723 O   0  0  0  0  0  0  0  0  0  0  0  0
   10.7625   10.7440   26.5676 N   0  0  0  0  0  0  0  0  0  0  0  0
   10.7502   10.0822   25.3948 C   0  0  0  0  0  0  0  0  0  0  0  0
   11.0519    8.7572   25.5848 N   0  0  0  0  0  0  0  0  0  0  0  0
  1  2  1  0  0  0  0
  1  6  1  0  0  0  0
  2  3  2  0  0  0  0
  3  4  1  0  0  0  0
  4  5  2  0  0  0  0
  4 10  1  0  0  0  0
  5  6  1  0  0  0  0
  5  8  1  0  0  0  0
  6  7  2  0  0  0  0
  8  9  1  0  0  0  0
  9 10  2  0  0  0  0
M  END
>  <CHROM.1>
11.21702574,9.28673271,27.69377232,-0.98344187,1.32786878,-2.12748481

>  <Name>
ligand

>  <RI>
0

>  <Rbt.Current_Directory>
/home/itssahil/PROJECTS/Mol_Feturizer/New_Systems/rnas/2EET

>  <Rbt.Executable>
rbdock ($Id: //depot/dev/client3/rdock/2013.1/src/exe/rbdock.cxx#4 $)

>  <Rbt.Library>
libRbt.so (2013.1, Build901 2013/11/27)

>  <Rbt.Parameter_File>
/export/apps/rDock/src/rDock_2013.1_src/data/scripts/dock_solv.prm

>  <Rbt.Receptor>
prm/pocket_docking_7.prm

>  <SCORE>
-17.4883

>  <SCORE.INTER>
-17.4883

>  <SCORE.INTER.CONST>
1

>  <SCORE.INTER.POLAR>
0

>  <SCORE.INTER.ROT>
0

>  <SCORE.INTER.SOLV>
3.84625

>  <SCORE.INTER.VDW>
-16.541

>  <SCORE.INTER.norm>
-1.74883

>  <SCORE.INTRA>
0

>  <SCORE.INTRA.DIHEDRAL>
0

>  <SCORE.INTRA.DIHEDRAL.0>
0

>  <SCORE.INTRA.POLAR>
0

>  <SCORE.INTRA.POLAR.0>
0

>  <SCORE.INTRA.REPUL>
0

>  <SCORE.INTRA.REPUL.0>
0

>  <SCORE.INTRA.SOLV>
0

>  <SCORE.INTRA.SOLV.lig_0>
-4.28464

>  <SCORE.INTRA.VDW>
0

>  <SCORE.INTRA.VDW.0>
0

>  <SCORE.INTRA.norm>
0

>  <SCORE.RESTR>
0

>  <SCORE.RESTR.CAVITY>
0

>  <SCORE.RESTR.norm>
0

>  <SCORE.SYSTEM>
0

>  <SCORE.SYSTEM.CONST>
0

>  <SCORE.SYSTEM.DIHEDRAL>
0

>  <SCORE.SYSTEM.SOLV>
0

>  <SCORE.SYSTEM.norm>
0

>  <SCORE.heavy>
10

>  <SCORE.norm>
-1.74883

>  <RMSD>
2.445

$$$$
ligand
 OpenBabel11021811423D
libRbt.so/2013.1/901 2013/11/27
 10 11  0  0  0  0  0  0  0  0999 V2000
   11.5516    8.7271   29.5318 N   0  0  0  0  0  0  0  0  0  0  0  0
   11.7284    7.5268   28.8657 C   0  0  0  0  0  0  0  0  0  0  0  0
   11.5907    7.4280   27.5379 N   0  0  0  0  0  0  0  0  0  0  0  0
   11.2647    8.6198   26.9405 C   0  0  0  0  0  0  0  0  0  0  0  0
   11.0768    9.8397   27.5487 C   0  0  0  0  0  0  0  0  0  0  0  0
   11.2207    9.9558   28.9591 C   0  0  0  0  0  0  0  0  0  0  0  0
   11.0977   10.9433   29.6948 O   0  0  0  0  0  0  0  0  0  0  0  0
   10.7652   10.7632   26.5852 N   0  0  0  0  0  0  0  0  0  0  0  0
   10.7665   10.1093   25.4080 C   0  0  0  0  0  0  0  0  0  0  0  0
   11.0693    8.7837   25.5921 N   0  0  0  0  0  0  0  0  0  0  0  0
  1  2  1  0  0  0  0
  1  6  1  0  0  0  0
  2  3  2  0  0  0  0
  3  4  1  0  0  0  0
  4  5  2  0  0  0  0
  4 10  1  0  0  0  0
  5  6  1  0  0  0  0
  5  8  1  0  0  0  0
  6  7  2  0  0  0  0
  8  9  1  0  0  0  0
  9 10  2  0  0  0  0
M  END
>  <CHROM.1>
11.21153931,9.29941595,27.70621848,-1.02534698,1.33109188,-2.08006437

>  <Name>
ligand

>  <RI>
0

>  <Rbt.Current_Directory>
/home/itssahil/PROJECTS/Mol_Feturizer/New_Systems/rnas/2EET

>  <Rbt.Executable>
rbdock ($Id: //depot/dev/client3/rdock/2013.1/src/exe/rbdock.cxx#4 $)

>  <Rbt.Library>
libRbt.so (2013.1, Build901 2013/11/27)

>  <Rbt.Parameter_File>
/export/apps/rDock/src/rDock_2013.1_src/data/scripts/dock_solv.prm

>  <Rbt.Receptor>
prm/pocket_docking_8.prm

>  <SCORE>
-17.4867

>  <SCORE.INTER>
-17.4867

>  <SCORE.INTER.CONST>
1

>  <SCORE.INTER.POLAR>
0

>  <SCORE.INTER.ROT>
0

>  <SCORE.INTER.SOLV>
3.8523

>  <SCORE.INTER.VDW>
-16.5419

>  <SCORE.INTER.norm>
-1.74867

>  <SCORE.INTRA>
0

>  <SCORE.INTRA.DIHEDRAL>
0

>  <SCORE.INTRA.DIHEDRAL.0>
0

>  <SCORE.INTRA.POLAR>
0

>  <SCORE.INTRA.POLAR.0>
0

>  <SCORE.INTRA.REPUL>
0

>  <SCORE.INTRA.REPUL.0>
0

>  <SCORE.INTRA.SOLV>
0

>  <SCORE.INTRA.SOLV.lig_0>
-4.28464

>  <SCORE.INTRA.VDW>
0

>  <SCORE.INTRA.VDW.0>
0

>  <SCORE.INTRA.norm>
0

>  <SCORE.RESTR>
0

>  <SCORE.RESTR.CAVITY>
0

>  <SCORE.RESTR.norm>
0

>  <SCORE.SYSTEM>
0

>  <SCORE.SYSTEM.CONST>
0

>  <SCORE.SYSTEM.DIHEDRAL>
0

>  <SCORE.SYSTEM.SOLV>
0

>  <SCORE.SYSTEM.norm>
0

>  <SCORE.heavy>
10

>  <SCORE.norm>
-1.74867

>  <RMSD>
2.445

$$$$
ligand
 OpenBabel11021811423D
libRbt.so/2013.1/901 2013/11/27
 10 11  0  0  0  0  0  0  0  0999 V2000
   11.5839    8.7299   29.5278 N   0  0  0  0  0  0  0  0  0  0  0  0
   11.7528    7.5214   28.8747 C   0  0  0  0  0  0  0  0  0  0  0  0
   11.5924    7.4045   27.5510 N   0  0  0  0  0  0  0  0  0  0  0  0
   11.2522    8.5873   26.9436 C   0  0  0  0  0  0  0  0  0  0  0  0
   11.0711    9.8146   27.5387 C   0  0  0  0  0  0  0  0  0  0  0  0
   11.2392    9.9499   28.9447 C   0  0  0  0  0  0  0  0  0  0  0  0
   11.1259   10.9468   29.6692 O   0  0  0  0  0  0  0  0  0  0  0  0
   10.7399   10.7242   26.5686 N   0  0  0  0  0  0  0  0  0  0  0  0
   10.7228   10.0547   25.4003 C   0  0  0  0  0  0  0  0  0  0  0  0
   11.0329    8.7326   25.5967 N   0  0  0  0  0  0  0  0  0  0  0  0
  1  2  1  0  0  0  0
  1  6  1  0  0  0  0
  2  3  2  0  0  0  0
  3  4  1  0  0  0  0
  4  5  2  0  0  0  0
  4 10  1  0  0  0  0
  5  6  1  0  0  0  0
  5  8  1  0  0  0  0
  6  7  2  0  0  0  0
  8  9  1  0  0  0  0
  9 10  2  0  0  0  0
M  END
>  <CHROM.1>
11.21029751,9.27685990,27.70098352,-0.97044198,1.31949432,-2.14663035

>  <Name>
ligand

>  <RI>
0

>  <Rbt.Current_Directory>
/home/itssahil/PROJECTS/Mol_Feturizer/New_Systems/rnas/2EET

>  <Rbt.Executable>
rbdock ($Id: //depot/dev/client3/rdock/2013.1/src/exe/rbdock.cxx#4 $)

>  <Rbt.Library>
libRbt.so (2013.1, Build901 2013/11/27)

>  <Rbt.Parameter_File>
/export/apps/rDock/src/rDock_2013.1_src/data/scripts/dock_solv.prm

>  <Rbt.Receptor>
prm/pocket_docking_8.prm

>  <SCORE>
-17.5026

>  <SCORE.INTER>
-17.5026

>  <SCORE.INTER.CONST>
1

>  <SCORE.INTER.POLAR>
0

>  <SCORE.INTER.ROT>
0

>  <SCORE.INTER.SOLV>
3.84922

>  <SCORE.INTER.VDW>
-16.5515

>  <SCORE.INTER.norm>
-1.75026

>  <SCORE.INTRA>
0

>  <SCORE.INTRA.DIHEDRAL>
0

>  <SCORE.INTRA.DIHEDRAL.0>
0

>  <SCORE.INTRA.POLAR>
0

>  <SCORE.INTRA.POLAR.0>
0

>  <SCORE.INTRA.REPUL>
0

>  <SCORE.INTRA.REPUL.0>
0

>  <SCORE.INTRA.SOLV>
0

>  <SCORE.INTRA.SOLV.lig_0>
-4.28464

>  <SCORE.INTRA.VDW>
0

>  <SCORE.INTRA.VDW.0>
0

>  <SCORE.INTRA.norm>
0

>  <SCORE.RESTR>
0

>  <SCORE.RESTR.CAVITY>
0

>  <SCORE.RESTR.norm>
0

>  <SCORE.SYSTEM>
0

>  <SCORE.SYSTEM.CONST>
0

>  <SCORE.SYSTEM.DIHEDRAL>
0

>  <SCORE.SYSTEM.SOLV>
0

>  <SCORE.SYSTEM.norm>
0

>  <SCORE.heavy>
10

>  <SCORE.norm>
-1.75026

>  <RMSD>
2.445

$$$$
ligand
 OpenBabel11021811423D
libRbt.so/2013.1/901 2013/11/27
 10 11  0  0  0  0  0  0  0  0999 V2000
   11.5549    8.7297   29.5288 N   0  0  0  0  0  0  0  0  0  0  0  0
   11.7232    7.5254   28.8677 C   0  0  0  0  0  0  0  0  0  0  0  0
   11.5812    7.4214   27.5408 N   0  0  0  0  0  0  0  0  0  0  0  0
   11.2601    8.6122   26.9389 C   0  0  0  0  0  0  0  0  0  0  0  0
   11.0807    9.8358   27.5420 C   0  0  0  0  0  0  0  0  0  0  0  0
   11.2292    9.9576   28.9515 C   0  0  0  0  0  0  0  0  0  0  0  0
   11.1137   10.9492   29.6829 O   0  0  0  0  0  0  0  0  0  0  0  0
   10.7714   10.7567   26.5752 N   0  0  0  0  0  0  0  0  0  0  0  0
   10.7658   10.0974   25.4009 C   0  0  0  0  0  0  0  0  0  0  0  0
   11.0618    8.7711   25.5903 N   0  0  0  0  0  0  0  0  0  0  0  0
  1  2  1  0  0  0  0
  1  6  1  0  0  0  0
  2  3  2  0  0  0  0
  3  4  1  0  0  0  0
  4  5  2  0  0  0  0
  4 10  1  0  0  0  0
  5  6  1  0  0  0  0
  5  8  1  0  0  0  0
  6  7  2  0  0  0  0
  8  9  1  0  0  0  0
  9 10  2  0  0  0  0
M  END
>  <CHROM.1>
11.21286287,9.29558679,27.70159876,-1.00333482,1.33448833,-2.10602468

>  <Name>
ligand

>  <RI>
0

>  <Rbt.Current_Directory>
/home/itssahil/PROJECTS/Mol_Feturizer/New_Systems/rnas/2EET

>  <Rbt.Executable>
rbdock ($Id: //depot/dev/client3/rdock/2013.1/src/exe/rbdock.cxx#4 $)

>  <Rbt.Library>
libRbt.so (2013.1, Build901 2013/11/27)

>  <Rbt.Parameter_File>
/export/apps/rDock/src/rDock_2013.1_src/data/scripts/dock_solv.prm

>  <Rbt.Receptor>
prm/blind_docking_100.prm

>  <SCORE>
-17.4899

>  <SCORE.INTER>
-17.4899

>  <SCORE.INTER.CONST>
1

>  <SCORE.INTER.POLAR>
0

>  <SCORE.INTER.ROT>
0

>  <SCORE.INTER.SOLV>
3.85706

>  <SCORE.INTER.VDW>
-16.5456

>  <SCORE.INTER.norm>
-1.74899

>  <SCORE.INTRA>
0

>  <SCORE.INTRA.DIHEDRAL>
0

>  <SCORE.INTRA.DIHEDRAL.0>
0

>  <SCORE.INTRA.POLAR>
0

>  <SCORE.INTRA.POLAR.0>
0

>  <SCORE.INTRA.REPUL>
0

>  <SCORE.INTRA.REPUL.0>
0

>  <SCORE.INTRA.SOLV>
0

>  <SCORE.INTRA.SOLV.lig_0>
-4.28464

>  <SCORE.INTRA.VDW>
0

>  <SCORE.INTRA.VDW.0>
0

>  <SCORE.INTRA.norm>
0

>  <SCORE.RESTR>
0

>  <SCORE.RESTR.CAVITY>
0

>  <SCORE.RESTR.norm>
0

>  <SCORE.SYSTEM>
0

>  <SCORE.SYSTEM.CONST>
0

>  <SCORE.SYSTEM.DIHEDRAL>
0

>  <SCORE.SYSTEM.SOLV>
0

>  <SCORE.SYSTEM.norm>
0

>  <SCORE.heavy>
10

>  <SCORE.norm>
-1.74899

>  <RMSD>
2.446

$$$$
ligand
 OpenBabel11021811423D
libRbt.so/2013.1/901 2013/11/27
 10 11  0  0  0  0  0  0  0  0999 V2000
   11.6057    8.6949   29.5109 N   0  0  0  0  0  0  0  0  0  0  0  0
   11.7912    7.4953   28.8459 C   0  0  0  0  0  0  0  0  0  0  0  0
   11.6257    7.3878   27.5220 N   0  0  0  0  0  0  0  0  0  0  0  0
   11.2627    8.5702   26.9272 C   0  0  0  0  0  0  0  0  0  0  0  0
   11.0644    9.7888   27.5345 C   0  0  0  0  0  0  0  0  0  0  0  0
   11.2377    9.9142   28.9408 C   0  0  0  0  0  0  0  0  0  0  0  0
   11.1117   10.9024   29.6750 O   0  0  0  0  0  0  0  0  0  0  0  0
   10.7130   10.7017   26.5745 N   0  0  0  0  0  0  0  0  0  0  0  0
   10.7007   10.0426   25.4002 C   0  0  0  0  0  0  0  0  0  0  0  0
   11.0338    8.7241   25.5829 N   0  0  0  0  0  0  0  0  0  0  0  0
  1  2  1  0  0  0  0
  1  6  1  0  0  0  0
  2  3  2  0  0  0  0
  3  4  1  0  0  0  0
  4  5  2  0  0  0  0
  4 10  1  0  0  0  0
  5  6  1  0  0  0  0
  5  8  1  0  0  0  0
  6  7  2  0  0  0  0
  8  9  1  0  0  0  0
  9 10  2  0  0  0  0
M  END
>  <CHROM.1>
11.21336018,9.25207533,27.69113540,-0.98772632,1.30263830,-2.12078476

>  <Name>
ligand

>  <RI>
0

>  <Rbt.Current_Directory>
/home/itssahil/PROJECTS/Mol_Feturizer/New_Systems/rnas/2EET

>  <Rbt.Executable>
rbdock ($Id: //depot/dev/client3/rdock/2013.1/src/exe/rbdock.cxx#4 $)

>  <Rbt.Library>
libRbt.so (2013.1, Build901 2013/11/27)

>  <Rbt.Parameter_File>
/export/apps/rDock/src/rDock_2013.1_src/data/scripts/dock_solv.prm

>  <Rbt.Receptor>
prm/blind_docking_100.prm

>  <SCORE>
-17.4478

>  <SCORE.INTER>
-17.4478

>  <SCORE.INTER.CONST>
1

>  <SCORE.INTER.POLAR>
0

>  <SCORE.INTER.ROT>
0

>  <SCORE.INTER.SOLV>
3.80583

>  <SCORE.INTER.VDW>
-16.5005

>  <SCORE.INTER.norm>
-1.74478

>  <SCORE.INTRA>
0

>  <SCORE.INTRA.DIHEDRAL>
0

>  <SCORE.INTRA.DIHEDRAL.0>
0

>  <SCORE.INTRA.POLAR>
0

>  <SCORE.INTRA.POLAR.0>
0

>  <SCORE.INTRA.REPUL>
0

>  <SCORE.INTRA.REPUL.0>
0

>  <SCORE.INTRA.SOLV>
0

>  <SCORE.INTRA.SOLV.lig_0>
-4.28464

>  <SCORE.INTRA.VDW>
0

>  <SCORE.INTRA.VDW.0>
0

>  <SCORE.INTRA.norm>
0

>  <SCORE.RESTR>
0

>  <SCORE.RESTR.CAVITY>
0

>  <SCORE.RESTR.norm>
0

>  <SCORE.SYSTEM>
0

>  <SCORE.SYSTEM.CONST>
0

>  <SCORE.SYSTEM.DIHEDRAL>
0

>  <SCORE.SYSTEM.SOLV>
0

>  <SCORE.SYSTEM.norm>
0

>  <SCORE.heavy>
10

>  <SCORE.norm>
-1.74478

>  <RMSD>
2.446

$$$$
ligand
 OpenBabel11021811423D
libRbt.so/2013.1/901 2013/11/27
 10 11  0  0  0  0  0  0  0  0999 V2000
   11.5683    8.7264   29.5236 N   0  0  0  0  0  0  0  0  0  0  0  0
   11.7350    7.5207   28.8645 C   0  0  0  0  0  0  0  0  0  0  0  0
   11.5843    7.4129   27.5389 N   0  0  0  0  0  0  0  0  0  0  0  0
   11.2563    8.6014   26.9361 C   0  0  0  0  0  0  0  0  0  0  0  0
   11.0780    9.8261   27.5372 C   0  0  0  0  0  0  0  0  0  0  0  0
   11.2359    9.9520   28.9453 C   0  0  0  0  0  0  0  0  0  0  0  0
   11.1230   10.9451   29.6749 O   0  0  0  0  0  0  0  0  0  0  0  0
   10.7601   10.7437   26.5701 N   0  0  0  0  0  0  0  0  0  0  0  0
   10.7481   10.0814   25.3976 C   0  0  0  0  0  0  0  0  0  0  0  0
   11.0485    8.7562   25.5884 N   0  0  0  0  0  0  0  0  0  0  0  0
  1  2  1  0  0  0  0
  1  6  1  0  0  0  0
  2  3  2  0  0  0  0
  3  4  1  0  0  0  0
  4  5  2  0  0  0  0
  4 10  1  0  0  0  0
  5  6  1  0  0  0  0
  5  8  1  0  0  0  0
  6  7  2  0  0  0  0
  8  9  1  0  0  0  0
  9 10  2  0  0  0  0
M  END
>  <CHROM.1>
11.21259711,9.28661073,27.69728833,-0.98405249,1.32895344,-2.12736813

>  <Name>
ligand

>  <RI>
0

>  <Rbt.Current_Directory>
/home/itssahil/PROJECTS/Mol_Feturizer/New_Systems/rnas/2EET

>  <Rbt.Executable>
rbdock ($Id: //depot/dev/client3/rdock/2013.1/src/exe/rbdock.cxx#4 $)

>  <Rbt.Library>
libRbt.so (2013.1, Build901 2013/11/27)

>  <Rbt.Parameter_File>
/export/apps/rDock/src/rDock_2013.1_src/data/scripts/dock_solv.prm

>  <Rbt.Receptor>
prm/blind_docking_100.prm

>  <SCORE>
-17.4848

>  <SCORE.INTER>
-17.4848

>  <SCORE.INTER.CONST>
1

>  <SCORE.INTER.POLAR>
0

>  <SCORE.INTER.ROT>
0

>  <SCORE.INTER.SOLV>
3.85096

>  <SCORE.INTER.VDW>
-16.5402

>  <SCORE.INTER.norm>
-1.74848

>  <SCORE.INTRA>
0

>  <SCORE.INTRA.DIHEDRAL>
0

>  <SCORE.INTRA.DIHEDRAL.0>
0

>  <SCORE.INTRA.POLAR>
0

>  <SCORE.INTRA.POLAR.0>
0

>  <SCORE.INTRA.REPUL>
0

>  <SCORE.INTRA.REPUL.0>
0

>  <SCORE.INTRA.SOLV>
0

>  <SCORE.INTRA.SOLV.lig_0>
-4.28464

>  <SCORE.INTRA.VDW>
0

>  <SCORE.INTRA.VDW.0>
0

>  <SCORE.INTRA.norm>
0

>  <SCORE.RESTR>
0

>  <SCORE.RESTR.CAVITY>
0

>  <SCORE.RESTR.norm>
0

>  <SCORE.SYSTEM>
0

>  <SCORE.SYSTEM.CONST>
0

>  <SCORE.SYSTEM.DIHEDRAL>
0

>  <SCORE.SYSTEM.SOLV>
0

>  <SCORE.SYSTEM.norm>
0

>  <SCORE.heavy>
10

>  <SCORE.norm>
-1.74848

>  <RMSD>
2.446

$$$$
ligand
 OpenBabel11021811423D
libRbt.so/2013.1/901 2013/11/27
 10 11  0  0  0  0  0  0  0  0999 V2000
   11.5900    8.7089   29.5230 N   0  0  0  0  0  0  0  0  0  0  0  0
   11.7660    7.5051   28.8631 C   0  0  0  0  0  0  0  0  0  0  0  0
   11.6066    7.3949   27.5387 N   0  0  0  0  0  0  0  0  0  0  0  0
   11.2598    8.5791   26.9380 C   0  0  0  0  0  0  0  0  0  0  0  0
   11.0715    9.8019   27.5400 C   0  0  0  0  0  0  0  0  0  0  0  0
   11.2385    9.9302   28.9468 C   0  0  0  0  0  0  0  0  0  0  0  0
   11.1192   10.9222   29.6770 O   0  0  0  0  0  0  0  0  0  0  0  0
   10.7352   10.7152   26.5751 N   0  0  0  0  0  0  0  0  0  0  0  0
   10.7222   10.0523   25.4029 C   0  0  0  0  0  0  0  0  0  0  0  0
   11.0399    8.7309   25.5919 N   0  0  0  0  0  0  0  0  0  0  0  0
  1  2  1  0  0  0  0
  1  6  1  0  0  0  0
  2  3  2  0  0  0  0
  3  4  1  0  0  0  0
  4  5  2  0  0  0  0
  4 10  1  0  0  0  0
  5  6  1  0  0  0  0
  5  8  1  0  0  0  0
  6  7  2  0  0  0  0
  8  9  1  0  0  0  0
  9 10  2  0  0  0  0
M  END
>  <CHROM.1>
11.21369558,9.26408813,27.69927343,-0.98354190,1.31477048,-2.12823874

>  <Name>
ligand

>  <RI>
0

>  <Rbt.Current_Directory>
/home/itssahil/PROJECTS/Mol_Feturizer/New_Systems/rnas/2EET

>  <Rbt.Executable>
rbdock ($Id: //depot/dev/client3/rdock/2013.1/src/exe/rbdock.cxx#4 $)

>  <Rbt.Library>
libRbt.so (2013.1, Build901 2013/11/27)

>  <Rbt.Parameter_File>
/export/apps/rDock/src/rDock_2013.1_src/data/scripts/dock_solv.prm

>  <Rbt.Receptor>
prm/blind_docking_40.prm

>  <SCORE>
-17.4985

>  <SCORE.INTER>
-17.4985

>  <SCORE.INTER.CONST>
1

>  <SCORE.INTER.POLAR>
0

>  <SCORE.INTER.ROT>
0

>  <SCORE.INTER.SOLV>
3.82714

>  <SCORE.INTER.VDW>
-16.5414

>  <SCORE.INTER.norm>
-1.74985

>  <SCORE.INTRA>
0

>  <SCORE.INTRA.DIHEDRAL>
0

>  <SCORE.INTRA.DIHEDRAL.0>
0

>  <SCORE.INTRA.POLAR>
0

>  <SCORE.INTRA.POLAR.0>
0

>  <SCORE.INTRA.REPUL>
0

>  <SCORE.INTRA.REPUL.0>
0

>  <SCORE.INTRA.SOLV>
0

>  <SCORE.INTRA.SOLV.lig_0>
-4.28464

>  <SCORE.INTRA.VDW>
0

>  <SCORE.INTRA.VDW.0>
0

>  <SCORE.INTRA.norm>
0

>  <SCORE.RESTR>
0

>  <SCORE.RESTR.CAVITY>
0

>  <SCORE.RESTR.norm>
0

>  <SCORE.SYSTEM>
0

>  <SCORE.SYSTEM.CONST>
0

>  <SCORE.SYSTEM.DIHEDRAL>
0

>  <SCORE.SYSTEM.SOLV>
0

>  <SCORE.SYSTEM.norm>
0

>  <SCORE.heavy>
10

>  <SCORE.norm>
-1.74985

>  <RMSD>
2.446

$$$$
ligand
 OpenBabel11021811423D
libRbt.so/2013.1/901 2013/11/27
 10 11  0  0  0  0  0  0  0  0999 V2000
   11.5848    8.6724   29.5297 N   0  0  0  0  0  0  0  0  0  0  0  0
   11.7698    7.4753   28.8601 C   0  0  0  0  0  0  0  0  0  0  0  0
   11.6077    7.3738   27.5353 N   0  0  0  0  0  0  0  0  0  0  0  0
   11.2488    8.5595   26.9446 C   0  0  0  0  0  0  0  0  0  0  0  0
   11.0512    9.7759   27.5565 C   0  0  0  0  0  0  0  0  0  0  0  0
   11.2209    9.8949   28.9638 C   0  0  0  0  0  0  0  0  0  0  0  0
   11.0948   10.8802   29.7019 O   0  0  0  0  0  0  0  0  0  0  0  0
   10.7043   10.6935   26.5995 N   0  0  0  0  0  0  0  0  0  0  0  0
   10.6940   10.0395   25.4223 C   0  0  0  0  0  0  0  0  0  0  0  0
   11.0240    8.7196   25.6003 N   0  0  0  0  0  0  0  0  0  0  0  0
  1  2  1  0  0  0  0
  1  6  1  0  0  0  0
  2  3  2  0  0  0  0
  3  4  1  0  0  0  0
  4  5  2  0  0  0  0
  4 10  1  0  0  0  0
  5  6  1  0  0  0  0
  5  8  1  0  0  0  0
  6  7  2  0  0  0  0
  8  9  1  0  0  0  0
  9 10  2  0  0  0  0
M  END
>  <CHROM.1>
11.19866183,9.23819643,27.71125604,-0.99280903,1.30578580,-2.11161300

>  <Name>
ligand

>  <RI>
0

>  <Rbt.Current_Directory>
/home/itssahil/PROJECTS/Mol_Feturizer/New_Systems/rnas/2EET

>  <Rbt.Executable>
rbdock ($Id: //depot/dev/client3/rdock/2013.1/src/exe/rbdock.cxx#4 $)

>  <Rbt.Library>
libRbt.so (2013.1, Build901 2013/11/27)

>  <Rbt.Parameter_File>
/export/apps/rDock/src/rDock_2013.1_src/data/scripts/dock_solv.prm

>  <Rbt.Receptor>
prm/blind_docking_60.prm

>  <SCORE>
-17.4795

>  <SCORE.INTER>
-17.4795

>  <SCORE.INTER.CONST>
1

>  <SCORE.INTER.POLAR>
0

>  <SCORE.INTER.ROT>
0

>  <SCORE.INTER.SOLV>
3.82186

>  <SCORE.INTER.VDW>
-16.527

>  <SCORE.INTER.norm>
-1.74795

>  <SCORE.INTRA>
0

>  <SCORE.INTRA.DIHEDRAL>
0

>  <SCORE.INTRA.DIHEDRAL.0>
0

>  <SCORE.INTRA.POLAR>
0

>  <SCORE.INTRA.POLAR.0>
0

>  <SCORE.INTRA.REPUL>
0

>  <SCORE.INTRA.REPUL.0>
0

>  <SCORE.INTRA.SOLV>
0

>  <SCORE.INTRA.SOLV.lig_0>
-4.28464

>  <SCORE.INTRA.VDW>
0

>  <SCORE.INTRA.VDW.0>
0

>  <SCORE.INTRA.norm>
0

>  <SCORE.RESTR>
0

>  <SCORE.RESTR.CAVITY>
0

>  <SCORE.RESTR.norm>
0

>  <SCORE.SYSTEM>
0

>  <SCORE.SYSTEM.CONST>
0

>  <SCORE.SYSTEM.DIHEDRAL>
0

>  <SCORE.SYSTEM.SOLV>
0

>  <SCORE.SYSTEM.norm>
0

>  <SCORE.heavy>
10

>  <SCORE.norm>
-1.74795

>  <RMSD>
2.446

$$$$
ligand
 OpenBabel11021811423D
libRbt.so/2013.1/901 2013/11/27
 10 11  0  0  0  0  0  0  0  0999 V2000
   11.5965    8.6856   29.5376 N   0  0  0  0  0  0  0  0  0  0  0  0
   11.8038    7.4885   28.8746 C   0  0  0  0  0  0  0  0  0  0  0  0
   11.6519    7.3787   27.5493 N   0  0  0  0  0  0  0  0  0  0  0  0
   11.2791    8.5562   26.9509 C   0  0  0  0  0  0  0  0  0  0  0  0
   11.0593    9.7722   27.5560 C   0  0  0  0  0  0  0  0  0  0  0  0
   11.2180    9.9000   28.9639 C   0  0  0  0  0  0  0  0  0  0  0  0
   11.0723   10.8866   29.6966 O   0  0  0  0  0  0  0  0  0  0  0  0
   10.7049   10.6802   26.5926 N   0  0  0  0  0  0  0  0  0  0  0  0
   10.7121   10.0209   25.4184 C   0  0  0  0  0  0  0  0  0  0  0  0
   11.0606    8.7069   25.6045 N   0  0  0  0  0  0  0  0  0  0  0  0
  1  2  1  0  0  0  0
  1  6  1  0  0  0  0
  2  3  2  0  0  0  0
  3  4  1  0  0  0  0
  4  5  2  0  0  0  0
  4 10  1  0  0  0  0
  5  6  1  0  0  0  0
  5  8  1  0  0  0  0
  6  7  2  0  0  0  0
  8  9  1  0  0  0  0
  9 10  2  0  0  0  0
M  END
>  <CHROM.1>
11.21379317,9.23744722,27.71415932,-1.04184754,1.29597636,-2.06884146

>  <Name>
ligand

>  <RI>
0

>  <Rbt.Current_Directory>
/home/itssahil/PROJECTS/Mol_Feturizer/New_Systems/rnas/2EET

>  <Rbt.Executable>
rbdock ($Id: //depot/dev/client3/rdock/2013.1/src/exe/rbdock.cxx#4 $)

>  <Rbt.Library>
libRbt.so (2013.1, Build901 2013/11/27)

>  <Rbt.Parameter_File>
/export/apps/rDock/src/rDock_2013.1_src/data/scripts/dock_solv.prm

>  <Rbt.Receptor>
prm/blind_docking_60.prm

>  <SCORE>
-17.4936

>  <SCORE.INTER>
-17.4936

>  <SCORE.INTER.CONST>
1

>  <SCORE.INTER.POLAR>
0

>  <SCORE.INTER.ROT>
0

>  <SCORE.INTER.SOLV>
3.82413

>  <SCORE.INTER.VDW>
-16.5371

>  <SCORE.INTER.norm>
-1.74936

>  <SCORE.INTRA>
0

>  <SCORE.INTRA.DIHEDRAL>
0

>  <SCORE.INTRA.DIHEDRAL.0>
0

>  <SCORE.INTRA.POLAR>
0

>  <SCORE.INTRA.POLAR.0>
0

>  <SCORE.INTRA.REPUL>
0

>  <SCORE.INTRA.REPUL.0>
0

>  <SCORE.INTRA.SOLV>
0

>  <SCORE.INTRA.SOLV.lig_0>
-4.28464

>  <SCORE.INTRA.VDW>
0

>  <SCORE.INTRA.VDW.0>
0

>  <SCORE.INTRA.norm>
0

>  <SCORE.RESTR>
0

>  <SCORE.RESTR.CAVITY>
0

>  <SCORE.RESTR.norm>
0

>  <SCORE.SYSTEM>
0

>  <SCORE.SYSTEM.CONST>
0

>  <SCORE.SYSTEM.DIHEDRAL>
0

>  <SCORE.SYSTEM.SOLV>
0

>  <SCORE.SYSTEM.norm>
0

>  <SCORE.heavy>
10

>  <SCORE.norm>
-1.74936

>  <RMSD>
2.446

$$$$
ligand
 OpenBabel11021811423D
libRbt.so/2013.1/901 2013/11/27
 10 11  0  0  0  0  0  0  0  0999 V2000
   11.5354    8.7266   29.5340 N   0  0  0  0  0  0  0  0  0  0  0  0
   11.6999    7.5237   28.8696 C   0  0  0  0  0  0  0  0  0  0  0  0
   11.5639    7.4250   27.5416 N   0  0  0  0  0  0  0  0  0  0  0  0
   11.2527    8.6197   26.9422 C   0  0  0  0  0  0  0  0  0  0  0  0
   11.0774    9.8423   27.5487 C   0  0  0  0  0  0  0  0  0  0  0  0
   11.2197    9.9584   28.9593 C   0  0  0  0  0  0  0  0  0  0  0  0
   11.1063   10.9480   29.6936 O   0  0  0  0  0  0  0  0  0  0  0  0
   10.7783   10.7682   26.5835 N   0  0  0  0  0  0  0  0  0  0  0  0
   10.7746   10.1130   25.4070 C   0  0  0  0  0  0  0  0  0  0  0  0
   11.0620    8.7843   25.5932 N   0  0  0  0  0  0  0  0  0  0  0  0
  1  2  1  0  0  0  0
  1  6  1  0  0  0  0
  2  3  2  0  0  0  0
  3  4  1  0  0  0  0
  4  5  2  0  0  0  0
  4 10  1  0  0  0  0
  5  6  1  0  0  0  0
  5  8  1  0  0  0  0
  6  7  2  0  0  0  0
  8  9  1  0  0  0  0
  9 10  2  0  0  0  0
M  END
>  <CHROM.1>
11.20564749,9.30072239,27.70705804,-1.00905248,1.34198910,-2.09701926

>  <Name>
ligand

>  <RI>
0

>  <Rbt.Current_Directory>
/home/itssahil/PROJECTS/Mol_Feturizer/New_Systems/rnas/2EET

>  <Rbt.Executable>
rbdock ($Id: //depot/dev/client3/rdock/2013.1/src/exe/rbdock.cxx#4 $)

>  <Rbt.Library>
libRbt.so (2013.1, Build901 2013/11/27)

>  <Rbt.Parameter_File>
/export/apps/rDock/src/rDock_2013.1_src/data/scripts/dock_solv.prm

>  <Rbt.Receptor>
prm/blind_docking_60.prm

>  <SCORE>
-17.4788

>  <SCORE.INTER>
-17.4788

>  <SCORE.INTER.CONST>
1

>  <SCORE.INTER.POLAR>
0

>  <SCORE.INTER.ROT>
0

>  <SCORE.INTER.SOLV>
3.86882

>  <SCORE.INTER.VDW>
-16.5421

>  <SCORE.INTER.norm>
-1.74788

>  <SCORE.INTRA>
0

>  <SCORE.INTRA.DIHEDRAL>
0

>  <SCORE.INTRA.DIHEDRAL.0>
0

>  <SCORE.INTRA.POLAR>
0

>  <SCORE.INTRA.POLAR.0>
0

>  <SCORE.INTRA.REPUL>
0

>  <SCORE.INTRA.REPUL.0>
0

>  <SCORE.INTRA.SOLV>
0

>  <SCORE.INTRA.SOLV.lig_0>
-4.28464

>  <SCORE.INTRA.VDW>
0

>  <SCORE.INTRA.VDW.0>
0

>  <SCORE.INTRA.norm>
0

>  <SCORE.RESTR>
0

>  <SCORE.RESTR.CAVITY>
0

>  <SCORE.RESTR.norm>
0

>  <SCORE.SYSTEM>
0

>  <SCORE.SYSTEM.CONST>
0

>  <SCORE.SYSTEM.DIHEDRAL>
0

>  <SCORE.SYSTEM.SOLV>
0

>  <SCORE.SYSTEM.norm>
0

>  <SCORE.heavy>
10

>  <SCORE.norm>
-1.74788

>  <RMSD>
2.446

$$$$
ligand
 OpenBabel11021811423D
libRbt.so/2013.1/901 2013/11/27
 10 11  0  0  0  0  0  0  0  0999 V2000
   11.5872    8.7090   29.5389 N   0  0  0  0  0  0  0  0  0  0  0  0
   11.8002    7.5113   28.8788 C   0  0  0  0  0  0  0  0  0  0  0  0
   11.6509    7.3981   27.5535 N   0  0  0  0  0  0  0  0  0  0  0  0
   11.2743    8.5728   26.9520 C   0  0  0  0  0  0  0  0  0  0  0  0
   11.0488    9.7893   27.5542 C   0  0  0  0  0  0  0  0  0  0  0  0
   11.2048    9.9207   28.9620 C   0  0  0  0  0  0  0  0  0  0  0  0
   11.0541   10.9082   29.6925 O   0  0  0  0  0  0  0  0  0  0  0  0
   10.6922   10.6938   26.5884 N   0  0  0  0  0  0  0  0  0  0  0  0
   10.7039   10.0321   25.4155 C   0  0  0  0  0  0  0  0  0  0  0  0
   11.0573    8.7199   25.6050 N   0  0  0  0  0  0  0  0  0  0  0  0
  1  2  1  0  0  0  0
  1  6  1  0  0  0  0
  2  3  2  0  0  0  0
  3  4  1  0  0  0  0
  4  5  2  0  0  0  0
  4 10  1  0  0  0  0
  5  6  1  0  0  0  0
  5  8  1  0  0  0  0
  6  7  2  0  0  0  0
  8  9  1  0  0  0  0
  9 10  2  0  0  0  0
M  END
>  <CHROM.1>
11.20511593,9.25546407,27.71372325,-1.05371059,1.29320932,-2.05954831

>  <Name>
ligand

>  <RI>
0

>  <Rbt.Current_Directory>
/home/itssahil/PROJECTS/Mol_Feturizer/New_Systems/rnas/2EET

>  <Rbt.Executable>
rbdock ($Id: //depot/dev/client3/rdock/2013.1/src/exe/rbdock.cxx#4 $)

>  <Rbt.Library>
libRbt.so (2013.1, Build901 2013/11/27)

>  <Rbt.Parameter_File>
/export/apps/rDock/src/rDock_2013.1_src/data/scripts/dock_solv.prm

>  <Rbt.Receptor>
prm/pocket_docking_3.prm

>  <SCORE>
-17.5061

>  <SCORE.INTER>
-17.5061

>  <SCORE.INTER.CONST>
1

>  <SCORE.INTER.POLAR>
0

>  <SCORE.INTER.ROT>
0

>  <SCORE.INTER.SOLV>
3.84166

>  <SCORE.INTER.VDW>
-16.5513

>  <SCORE.INTER.norm>
-1.75061

>  <SCORE.INTRA>
0

>  <SCORE.INTRA.DIHEDRAL>
0

>  <SCORE.INTRA.DIHEDRAL.0>
0

>  <SCORE.INTRA.POLAR>
0

>  <SCORE.INTRA.POLAR.0>
0

>  <SCORE.INTRA.REPUL>
0

>  <SCORE.INTRA.REPUL.0>
0

>  <SCORE.INTRA.SOLV>
0

>  <SCORE.INTRA.SOLV.lig_0>
-4.28464

>  <SCORE.INTRA.VDW>
0

>  <SCORE.INTRA.VDW.0>
0

>  <SCORE.INTRA.norm>
0

>  <SCORE.RESTR>
0

>  <SCORE.RESTR.CAVITY>
0

>  <SCORE.RESTR.norm>
0

>  <SCORE.SYSTEM>
0

>  <SCORE.SYSTEM.CONST>
0

>  <SCORE.SYSTEM.DIHEDRAL>
0

>  <SCORE.SYSTEM.SOLV>
0

>  <SCORE.SYSTEM.norm>
0

>  <SCORE.heavy>
10

>  <SCORE.norm>
-1.75061

>  <RMSD>
2.446

$$$$
ligand
 OpenBabel11021811423D
libRbt.so/2013.1/901 2013/11/27
 10 11  0  0  0  0  0  0  0  0999 V2000
   11.5720    8.7280   29.5199 N   0  0  0  0  0  0  0  0  0  0  0  0
   11.7416    7.5232   28.8601 C   0  0  0  0  0  0  0  0  0  0  0  0
   11.5908    7.4157   27.5345 N   0  0  0  0  0  0  0  0  0  0  0  0
   11.2595    8.6037   26.9324 C   0  0  0  0  0  0  0  0  0  0  0  0
   11.0784    9.8276   27.5342 C   0  0  0  0  0  0  0  0  0  0  0  0
   11.2362    9.9531   28.9424 C   0  0  0  0  0  0  0  0  0  0  0  0
   11.1210   10.9455   29.6726 O   0  0  0  0  0  0  0  0  0  0  0  0
   10.7578   10.7449   26.5677 N   0  0  0  0  0  0  0  0  0  0  0  0
   10.7471   10.0832   25.3949 C   0  0  0  0  0  0  0  0  0  0  0  0
   11.0510    8.7587   25.5849 N   0  0  0  0  0  0  0  0  0  0  0  0
  1  2  1  0  0  0  0
  1  6  1  0  0  0  0
  2  3  2  0  0  0  0
  3  4  1  0  0  0  0
  4  5  2  0  0  0  0
  4 10  1  0  0  0  0
  5  6  1  0  0  0  0
  5  8  1  0  0  0  0
  6  7  2  0  0  0  0
  8  9  1  0  0  0  0
  9 10  2  0  0  0  0
M  END
>  <CHROM.1>
11.21433900,9.28837077,27.69399256,-0.98867648,1.32661629,-2.12232604

>  <Name>
ligand

>  <RI>
0

>  <Rbt.Current_Directory>
/home/itssahil/PROJECTS/Mol_Feturizer/New_Systems/rnas/2EET

>  <Rbt.Executable>
rbdock ($Id: //depot/dev/client3/rdock/2013.1/src/exe/rbdock.cxx#4 $)

>  <Rbt.Library>
libRbt.so (2013.1, Build901 2013/11/27)

>  <Rbt.Parameter_File>
/export/apps/rDock/src/rDock_2013.1_src/data/scripts/dock_solv.prm

>  <Rbt.Receptor>
prm/pocket_docking_4.prm

>  <SCORE>
-17.4883

>  <SCORE.INTER>
-17.4883

>  <SCORE.INTER.CONST>
1

>  <SCORE.INTER.POLAR>
0

>  <SCORE.INTER.ROT>
0

>  <SCORE.INTER.SOLV>
3.84758

>  <SCORE.INTER.VDW>
-16.5414

>  <SCORE.INTER.norm>
-1.74883

>  <SCORE.INTRA>
0

>  <SCORE.INTRA.DIHEDRAL>
0

>  <SCORE.INTRA.DIHEDRAL.0>
0

>  <SCORE.INTRA.POLAR>
0

>  <SCORE.INTRA.POLAR.0>
0

>  <SCORE.INTRA.REPUL>
0

>  <SCORE.INTRA.REPUL.0>
0

>  <SCORE.INTRA.SOLV>
0

>  <SCORE.INTRA.SOLV.lig_0>
-4.28464

>  <SCORE.INTRA.VDW>
0

>  <SCORE.INTRA.VDW.0>
0

>  <SCORE.INTRA.norm>
0

>  <SCORE.RESTR>
0

>  <SCORE.RESTR.CAVITY>
0

>  <SCORE.RESTR.norm>
0

>  <SCORE.SYSTEM>
0

>  <SCORE.SYSTEM.CONST>
0

>  <SCORE.SYSTEM.DIHEDRAL>
0

>  <SCORE.SYSTEM.SOLV>
0

>  <SCORE.SYSTEM.norm>
0

>  <SCORE.heavy>
10

>  <SCORE.norm>
-1.74883

>  <RMSD>
2.446

$$$$
ligand
 OpenBabel11021811423D
libRbt.so/2013.1/901 2013/11/27
 10 11  0  0  0  0  0  0  0  0999 V2000
   11.5732    8.7203   29.5158 N   0  0  0  0  0  0  0  0  0  0  0  0
   11.7356    7.5106   28.8631 C   0  0  0  0  0  0  0  0  0  0  0  0
   11.5802    7.3954   27.5386 N   0  0  0  0  0  0  0  0  0  0  0  0
   11.2521    8.5810   26.9301 C   0  0  0  0  0  0  0  0  0  0  0  0
   11.0780    9.8095   27.5248 C   0  0  0  0  0  0  0  0  0  0  0  0
   11.2408    9.9431   28.9316 C   0  0  0  0  0  0  0  0  0  0  0  0
   11.1321   10.9406   29.6559 O   0  0  0  0  0  0  0  0  0  0  0  0
   10.7583   10.7220   26.5535 N   0  0  0  0  0  0  0  0  0  0  0  0
   10.7411   10.0530   25.3849 C   0  0  0  0  0  0  0  0  0  0  0  0
   11.0400    8.7284   25.5823 N   0  0  0  0  0  0  0  0  0  0  0  0
  1  2  1  0  0  0  0
  1  6  1  0  0  0  0
  2  3  2  0  0  0  0
  3  4  1  0  0  0  0
  4  5  2  0  0  0  0
  4 10  1  0  0  0  0
  5  6  1  0  0  0  0
  5  8  1  0  0  0  0
  6  7  2  0  0  0  0
  8  9  1  0  0  0  0
  9 10  2  0  0  0  0
M  END
>  <CHROM.1>
11.21218340,9.27065144,27.68753707,-0.96827643,1.32854610,-2.14842343

>  <Name>
ligand

>  <RI>
0

>  <Rbt.Current_Directory>
/home/itssahil/PROJECTS/Mol_Feturizer/New_Systems/rnas/2EET

>  <Rbt.Executable>
rbdock ($Id: //depot/dev/client3/rdock/2013.1/src/exe/rbdock.cxx#4 $)

>  <Rbt.Library>
libRbt.so (2013.1, Build901 2013/11/27)

>  <Rbt.Parameter_File>
/export/apps/rDock/src/rDock_2013.1_src/data/scripts/dock_solv.prm

>  <Rbt.Receptor>
prm/blind_docking_100.prm

>  <SCORE>
-17.5092

>  <SCORE.INTER>
-17.5092

>  <SCORE.INTER.CONST>
1

>  <SCORE.INTER.POLAR>
0

>  <SCORE.INTER.ROT>
0

>  <SCORE.INTER.SOLV>
3.85147

>  <SCORE.INTER.VDW>
-16.5566

>  <SCORE.INTER.norm>
-1.75092

>  <SCORE.INTRA>
0

>  <SCORE.INTRA.DIHEDRAL>
0

>  <SCORE.INTRA.DIHEDRAL.0>
0

>  <SCORE.INTRA.POLAR>
0

>  <SCORE.INTRA.POLAR.0>
0

>  <SCORE.INTRA.REPUL>
0

>  <SCORE.INTRA.REPUL.0>
0

>  <SCORE.INTRA.SOLV>
0

>  <SCORE.INTRA.SOLV.lig_0>
-4.28464

>  <SCORE.INTRA.VDW>
0

>  <SCORE.INTRA.VDW.0>
0

>  <SCORE.INTRA.norm>
0

>  <SCORE.RESTR>
0

>  <SCORE.RESTR.CAVITY>
0

>  <SCORE.RESTR.norm>
0

>  <SCORE.SYSTEM>
0

>  <SCORE.SYSTEM.CONST>
0

>  <SCORE.SYSTEM.DIHEDRAL>
0

>  <SCORE.SYSTEM.SOLV>
0

>  <SCORE.SYSTEM.norm>
0

>  <SCORE.heavy>
10

>  <SCORE.norm>
-1.75092

>  <RMSD>
2.447

$$$$
ligand
 OpenBabel11021811423D
libRbt.so/2013.1/901 2013/11/27
 10 11  0  0  0  0  0  0  0  0999 V2000
   11.5747    8.7228   29.5166 N   0  0  0  0  0  0  0  0  0  0  0  0
   11.7365    7.5138   28.8626 C   0  0  0  0  0  0  0  0  0  0  0  0
   11.5781    7.3994   27.5384 N   0  0  0  0  0  0  0  0  0  0  0  0
   11.2475    8.5851   26.9315 C   0  0  0  0  0  0  0  0  0  0  0  0
   11.0738    9.8130   27.5275 C   0  0  0  0  0  0  0  0  0  0  0  0
   11.2399    9.9458   28.9340 C   0  0  0  0  0  0  0  0  0  0  0  0
   11.1320   10.9427   29.6593 O   0  0  0  0  0  0  0  0  0  0  0  0
   10.7510   10.7260   26.5577 N   0  0  0  0  0  0  0  0  0  0  0  0
   10.7317   10.0578   25.3886 C   0  0  0  0  0  0  0  0  0  0  0  0
   11.0321    8.7334   25.5844 N   0  0  0  0  0  0  0  0  0  0  0  0
  1  2  1  0  0  0  0
  1  6  1  0  0  0  0
  2  3  2  0  0  0  0
  3  4  1  0  0  0  0
  4  5  2  0  0  0  0
  4 10  1  0  0  0  0
  5  6  1  0  0  0  0
  5  8  1  0  0  0  0
  6  7  2  0  0  0  0
  8  9  1  0  0  0  0
  9 10  2  0  0  0  0
M  END
>  <CHROM.1>
11.20884900,9.27421717,27.68954652,-0.96198750,1.32654521,-2.15380456

>  <Name>
ligand

>  <RI>
0

>  <Rbt.Current_Directory>
/home/itssahil/PROJECTS/Mol_Feturizer/New_Systems/rnas/2EET

>  <Rbt.Executable>
rbdock ($Id: //depot/dev/client3/rdock/2013.1/src/exe/rbdock.cxx#4 $)

>  <Rbt.Library>
libRbt.so (2013.1, Build901 2013/11/27)

>  <Rbt.Parameter_File>
/export/apps/rDock/src/rDock_2013.1_src/data/scripts/dock_solv.prm

>  <Rbt.Receptor>
prm/blind_docking_100.prm

>  <SCORE>
-17.5095

>  <SCORE.INTER>
-17.5095

>  <SCORE.INTER.CONST>
1

>  <SCORE.INTER.POLAR>
0

>  <SCORE.INTER.ROT>
0

>  <SCORE.INTER.SOLV>
3.85154

>  <SCORE.INTER.VDW>
-16.5568

>  <SCORE.INTER.norm>
-1.75095

>  <SCORE.INTRA>
0

>  <SCORE.INTRA.DIHEDRAL>
0

>  <SCORE.INTRA.DIHEDRAL.0>
0

>  <SCORE.INTRA.POLAR>
0

>  <SCORE.INTRA.POLAR.0>
0

>  <SCORE.INTRA.REPUL>
0

>  <SCORE.INTRA.REPUL.0>
0

>  <SCORE.INTRA.SOLV>
0

>  <SCORE.INTRA.SOLV.lig_0>
-4.28464

>  <SCORE.INTRA.VDW>
0

>  <SCORE.INTRA.VDW.0>
0

>  <SCORE.INTRA.norm>
0

>  <SCORE.RESTR>
0

>  <SCORE.RESTR.CAVITY>
0

>  <SCORE.RESTR.norm>
0

>  <SCORE.SYSTEM>
0

>  <SCORE.SYSTEM.CONST>
0

>  <SCORE.SYSTEM.DIHEDRAL>
0

>  <SCORE.SYSTEM.SOLV>
0

>  <SCORE.SYSTEM.norm>
0

>  <SCORE.heavy>
10

>  <SCORE.norm>
-1.75095

>  <RMSD>
2.447

$$$$
ligand
 OpenBabel11021811423D
libRbt.so/2013.1/901 2013/11/27
 10 11  0  0  0  0  0  0  0  0999 V2000
   11.5709    8.7257   29.5279 N   0  0  0  0  0  0  0  0  0  0  0  0
   11.7437    7.5151   28.8795 C   0  0  0  0  0  0  0  0  0  0  0  0
   11.5969    7.3955   27.5544 N   0  0  0  0  0  0  0  0  0  0  0  0
   11.2660    8.5776   26.9407 C   0  0  0  0  0  0  0  0  0  0  0  0
   11.0816    9.8067   27.5310 C   0  0  0  0  0  0  0  0  0  0  0  0
   11.2353    9.9451   28.9384 C   0  0  0  0  0  0  0  0  0  0  0  0
   11.1168   10.9439   29.6593 O   0  0  0  0  0  0  0  0  0  0  0  0
   10.7627   10.7149   26.5553 N   0  0  0  0  0  0  0  0  0  0  0  0
   10.7562   10.0426   25.3885 C   0  0  0  0  0  0  0  0  0  0  0  0
   11.0611    8.7203   25.5913 N   0  0  0  0  0  0  0  0  0  0  0  0
  1  2  1  0  0  0  0
  1  6  1  0  0  0  0
  2  3  2  0  0  0  0
  3  4  1  0  0  0  0
  4  5  2  0  0  0  0
  4 10  1  0  0  0  0
  5  6  1  0  0  0  0
  5  8  1  0  0  0  0
  6  7  2  0  0  0  0
  8  9  1  0  0  0  0
  9 10  2  0  0  0  0
M  END
>  <CHROM.1>
11.21777034,9.26910588,27.69597737,-1.00140784,1.32710935,-2.11897711

>  <Name>
ligand

>  <RI>
0

>  <Rbt.Current_Directory>
/home/itssahil/PROJECTS/Mol_Feturizer/New_Systems/rnas/2EET

>  <Rbt.Executable>
rbdock ($Id: //depot/dev/client3/rdock/2013.1/src/exe/rbdock.cxx#4 $)

>  <Rbt.Library>
libRbt.so (2013.1, Build901 2013/11/27)

>  <Rbt.Parameter_File>
/export/apps/rDock/src/rDock_2013.1_src/data/scripts/dock_solv.prm

>  <Rbt.Receptor>
prm/blind_docking_100.prm

>  <SCORE>
-17.4974

>  <SCORE.INTER>
-17.4974

>  <SCORE.INTER.CONST>
1

>  <SCORE.INTER.POLAR>
0

>  <SCORE.INTER.ROT>
0

>  <SCORE.INTER.SOLV>
3.85597

>  <SCORE.INTER.VDW>
-16.5502

>  <SCORE.INTER.norm>
-1.74974

>  <SCORE.INTRA>
0

>  <SCORE.INTRA.DIHEDRAL>
0

>  <SCORE.INTRA.DIHEDRAL.0>
0

>  <SCORE.INTRA.POLAR>
0

>  <SCORE.INTRA.POLAR.0>
0

>  <SCORE.INTRA.REPUL>
0

>  <SCORE.INTRA.REPUL.0>
0

>  <SCORE.INTRA.SOLV>
0

>  <SCORE.INTRA.SOLV.lig_0>
-4.28464

>  <SCORE.INTRA.VDW>
0

>  <SCORE.INTRA.VDW.0>
0

>  <SCORE.INTRA.norm>
0

>  <SCORE.RESTR>
0

>  <SCORE.RESTR.CAVITY>
0

>  <SCORE.RESTR.norm>
0

>  <SCORE.SYSTEM>
0

>  <SCORE.SYSTEM.CONST>
0

>  <SCORE.SYSTEM.DIHEDRAL>
0

>  <SCORE.SYSTEM.SOLV>
0

>  <SCORE.SYSTEM.norm>
0

>  <SCORE.heavy>
10

>  <SCORE.norm>
-1.74974

>  <RMSD>
2.447

$$$$
ligand
 OpenBabel11021811423D
libRbt.so/2013.1/901 2013/11/27
 10 11  0  0  0  0  0  0  0  0999 V2000
   11.5736    8.7191   29.5143 N   0  0  0  0  0  0  0  0  0  0  0  0
   11.7352    7.5098   28.8608 C   0  0  0  0  0  0  0  0  0  0  0  0
   11.5798    7.3956   27.5362 N   0  0  0  0  0  0  0  0  0  0  0  0
   11.2523    8.5818   26.9285 C   0  0  0  0  0  0  0  0  0  0  0  0
   11.0789    9.8100   27.5241 C   0  0  0  0  0  0  0  0  0  0  0  0
   11.2419    9.9426   28.9310 C   0  0  0  0  0  0  0  0  0  0  0  0
   11.1337   10.9396   29.6560 O   0  0  0  0  0  0  0  0  0  0  0  0
   10.7597   10.7234   26.5535 N   0  0  0  0  0  0  0  0  0  0  0  0
   10.7422   10.0552   25.3844 C   0  0  0  0  0  0  0  0  0  0  0  0
   11.0402    8.7303   25.5808 N   0  0  0  0  0  0  0  0  0  0  0  0
  1  2  1  0  0  0  0
  1  6  1  0  0  0  0
  2  3  2  0  0  0  0
  3  4  1  0  0  0  0
  4  5  2  0  0  0  0
  4 10  1  0  0  0  0
  5  6  1  0  0  0  0
  5  8  1  0  0  0  0
  6  7  2  0  0  0  0
  8  9  1  0  0  0  0
  9 10  2  0  0  0  0
M  END
>  <CHROM.1>
11.21283019,9.27098566,27.68642091,-0.96687840,1.32901523,-2.14907632

>  <Name>
ligand

>  <RI>
0

>  <Rbt.Current_Directory>
/home/itssahil/PROJECTS/Mol_Feturizer/New_Systems/rnas/2EET

>  <Rbt.Executable>
rbdock ($Id: //depot/dev/client3/rdock/2013.1/src/exe/rbdock.cxx#4 $)

>  <Rbt.Library>
libRbt.so (2013.1, Build901 2013/11/27)

>  <Rbt.Parameter_File>
/export/apps/rDock/src/rDock_2013.1_src/data/scripts/dock_solv.prm

>  <Rbt.Receptor>
prm/blind_docking_100.prm

>  <SCORE>
-17.5108

>  <SCORE.INTER>
-17.5108

>  <SCORE.INTER.CONST>
1

>  <SCORE.INTER.POLAR>
0

>  <SCORE.INTER.ROT>
0

>  <SCORE.INTER.SOLV>
3.85017

>  <SCORE.INTER.VDW>
-16.5573

>  <SCORE.INTER.norm>
-1.75108

>  <SCORE.INTRA>
0

>  <SCORE.INTRA.DIHEDRAL>
0

>  <SCORE.INTRA.DIHEDRAL.0>
0

>  <SCORE.INTRA.POLAR>
0

>  <SCORE.INTRA.POLAR.0>
0

>  <SCORE.INTRA.REPUL>
0

>  <SCORE.INTRA.REPUL.0>
0

>  <SCORE.INTRA.SOLV>
0

>  <SCORE.INTRA.SOLV.lig_0>
-4.28464

>  <SCORE.INTRA.VDW>
0

>  <SCORE.INTRA.VDW.0>
0

>  <SCORE.INTRA.norm>
0

>  <SCORE.RESTR>
0

>  <SCORE.RESTR.CAVITY>
0

>  <SCORE.RESTR.norm>
0

>  <SCORE.SYSTEM>
0

>  <SCORE.SYSTEM.CONST>
0

>  <SCORE.SYSTEM.DIHEDRAL>
0

>  <SCORE.SYSTEM.SOLV>
0

>  <SCORE.SYSTEM.norm>
0

>  <SCORE.heavy>
10

>  <SCORE.norm>
-1.75108

>  <RMSD>
2.447

$$$$
ligand
 OpenBabel11021811423D
libRbt.so/2013.1/901 2013/11/27
 10 11  0  0  0  0  0  0  0  0999 V2000
   11.5754    8.7169   29.5195 N   0  0  0  0  0  0  0  0  0  0  0  0
   11.7487    7.5102   28.8642 C   0  0  0  0  0  0  0  0  0  0  0  0
   11.5949    7.3966   27.5394 N   0  0  0  0  0  0  0  0  0  0  0  0
   11.2567    8.5806   26.9334 C   0  0  0  0  0  0  0  0  0  0  0  0
   11.0716    9.8062   27.5307 C   0  0  0  0  0  0  0  0  0  0  0  0
   11.2326    9.9381   28.9379 C   0  0  0  0  0  0  0  0  0  0  0  0
   11.1148   10.9330   29.6644 O   0  0  0  0  0  0  0  0  0  0  0  0
   10.7443   10.7181   26.5613 N   0  0  0  0  0  0  0  0  0  0  0  0
   10.7336   10.0515   25.3912 C   0  0  0  0  0  0  0  0  0  0  0  0
   11.0439    8.7292   25.5858 N   0  0  0  0  0  0  0  0  0  0  0  0
  1  2  1  0  0  0  0
  1  6  1  0  0  0  0
  2  3  2  0  0  0  0
  3  4  1  0  0  0  0
  4  5  2  0  0  0  0
  4 10  1  0  0  0  0
  5  6  1  0  0  0  0
  5  8  1  0  0  0  0
  6  7  2  0  0  0  0
  8  9  1  0  0  0  0
  9 10  2  0  0  0  0
M  END
>  <CHROM.1>
11.21041394,9.26819295,27.69230556,-0.98916107,1.32140738,-2.12592914

>  <Name>
ligand

>  <RI>
0

>  <Rbt.Current_Directory>
/home/itssahil/PROJECTS/Mol_Feturizer/New_Systems/rnas/2EET

>  <Rbt.Executable>
rbdock ($Id: //depot/dev/client3/rdock/2013.1/src/exe/rbdock.cxx#4 $)

>  <Rbt.Library>
libRbt.so (2013.1, Build901 2013/11/27)

>  <Rbt.Parameter_File>
/export/apps/rDock/src/rDock_2013.1_src/data/scripts/dock_solv.prm

>  <Rbt.Receptor>
prm/blind_docking_40.prm

>  <SCORE>
-17.5068

>  <SCORE.INTER>
-17.5068

>  <SCORE.INTER.CONST>
1

>  <SCORE.INTER.POLAR>
0

>  <SCORE.INTER.ROT>
0

>  <SCORE.INTER.SOLV>
3.84252

>  <SCORE.INTER.VDW>
-16.552

>  <SCORE.INTER.norm>
-1.75068

>  <SCORE.INTRA>
0

>  <SCORE.INTRA.DIHEDRAL>
0

>  <SCORE.INTRA.DIHEDRAL.0>
0

>  <SCORE.INTRA.POLAR>
0

>  <SCORE.INTRA.POLAR.0>
0

>  <SCORE.INTRA.REPUL>
0

>  <SCORE.INTRA.REPUL.0>
0

>  <SCORE.INTRA.SOLV>
0

>  <SCORE.INTRA.SOLV.lig_0>
-4.28464

>  <SCORE.INTRA.VDW>
0

>  <SCORE.INTRA.VDW.0>
0

>  <SCORE.INTRA.norm>
0

>  <SCORE.RESTR>
0

>  <SCORE.RESTR.CAVITY>
0

>  <SCORE.RESTR.norm>
0

>  <SCORE.SYSTEM>
0

>  <SCORE.SYSTEM.CONST>
0

>  <SCORE.SYSTEM.DIHEDRAL>
0

>  <SCORE.SYSTEM.SOLV>
0

>  <SCORE.SYSTEM.norm>
0

>  <SCORE.heavy>
10

>  <SCORE.norm>
-1.75068

>  <RMSD>
2.447

$$$$
ligand
 OpenBabel11021811423D
libRbt.so/2013.1/901 2013/11/27
 10 11  0  0  0  0  0  0  0  0999 V2000
   11.5423    8.7341   29.5570 N   0  0  0  0  0  0  0  0  0  0  0  0
   11.7231    7.5229   28.9119 C   0  0  0  0  0  0  0  0  0  0  0  0
   11.5871    7.4008   27.5859 N   0  0  0  0  0  0  0  0  0  0  0  0
   11.2584    8.5811   26.9677 C   0  0  0  0  0  0  0  0  0  0  0  0
   11.0665    9.8108   27.5544 C   0  0  0  0  0  0  0  0  0  0  0  0
   11.2086    9.9518   28.9628 C   0  0  0  0  0  0  0  0  0  0  0  0
   11.0820   10.9515   29.6811 O   0  0  0  0  0  0  0  0  0  0  0  0
   10.7533   10.7166   26.5748 N   0  0  0  0  0  0  0  0  0  0  0  0
   10.7576   10.0424   25.4090 C   0  0  0  0  0  0  0  0  0  0  0  0
   11.0639    8.7211   25.6164 N   0  0  0  0  0  0  0  0  0  0  0  0
  1  2  1  0  0  0  0
  1  6  1  0  0  0  0
  2  3  2  0  0  0  0
  3  4  1  0  0  0  0
  4  5  2  0  0  0  0
  4 10  1  0  0  0  0
  5  6  1  0  0  0  0
  5  8  1  0  0  0  0
  6  7  2  0  0  0  0
  8  9  1  0  0  0  0
  9 10  2  0  0  0  0
M  END
>  <CHROM.1>
11.20255600,9.27373769,27.72139767,-1.03487970,1.32916001,-2.08812689

>  <Name>
ligand

>  <RI>
0

>  <Rbt.Current_Directory>
/home/itssahil/PROJECTS/Mol_Feturizer/New_Systems/rnas/2EET

>  <Rbt.Executable>
rbdock ($Id: //depot/dev/client3/rdock/2013.1/src/exe/rbdock.cxx#4 $)

>  <Rbt.Library>
libRbt.so (2013.1, Build901 2013/11/27)

>  <Rbt.Parameter_File>
/export/apps/rDock/src/rDock_2013.1_src/data/scripts/dock_solv.prm

>  <Rbt.Receptor>
prm/blind_docking_60.prm

>  <SCORE>
-17.4666

>  <SCORE.INTER>
-17.4666

>  <SCORE.INTER.CONST>
1

>  <SCORE.INTER.POLAR>
0

>  <SCORE.INTER.ROT>
0

>  <SCORE.INTER.SOLV>
3.8849

>  <SCORE.INTER.VDW>
-16.5394

>  <SCORE.INTER.norm>
-1.74666

>  <SCORE.INTRA>
0

>  <SCORE.INTRA.DIHEDRAL>
0

>  <SCORE.INTRA.DIHEDRAL.0>
0

>  <SCORE.INTRA.POLAR>
0

>  <SCORE.INTRA.POLAR.0>
0

>  <SCORE.INTRA.REPUL>
0

>  <SCORE.INTRA.REPUL.0>
0

>  <SCORE.INTRA.SOLV>
0

>  <SCORE.INTRA.SOLV.lig_0>
-4.28464

>  <SCORE.INTRA.VDW>
0

>  <SCORE.INTRA.VDW.0>
0

>  <SCORE.INTRA.norm>
0

>  <SCORE.RESTR>
0

>  <SCORE.RESTR.CAVITY>
0

>  <SCORE.RESTR.norm>
0

>  <SCORE.SYSTEM>
0

>  <SCORE.SYSTEM.CONST>
0

>  <SCORE.SYSTEM.DIHEDRAL>
0

>  <SCORE.SYSTEM.SOLV>
0

>  <SCORE.SYSTEM.norm>
0

>  <SCORE.heavy>
10

>  <SCORE.norm>
-1.74666

>  <RMSD>
2.447

$$$$
ligand
 OpenBabel11021811423D
libRbt.so/2013.1/901 2013/11/27
 10 11  0  0  0  0  0  0  0  0999 V2000
   11.5714    8.7212   29.5141 N   0  0  0  0  0  0  0  0  0  0  0  0
   11.7252    7.5117   28.8590 C   0  0  0  0  0  0  0  0  0  0  0  0
   11.5610    7.3986   27.5354 N   0  0  0  0  0  0  0  0  0  0  0  0
   11.2334    8.5860   26.9303 C   0  0  0  0  0  0  0  0  0  0  0  0
   11.0676    9.8145   27.5275 C   0  0  0  0  0  0  0  0  0  0  0  0
   11.2398    9.9459   28.9334 C   0  0  0  0  0  0  0  0  0  0  0  0
   11.1393   10.9430   29.6595 O   0  0  0  0  0  0  0  0  0  0  0  0
   10.7451   10.7293   26.5593 N   0  0  0  0  0  0  0  0  0  0  0  0
   10.7181   10.0617   25.3900 C   0  0  0  0  0  0  0  0  0  0  0  0
   11.0133    8.7358   25.5840 N   0  0  0  0  0  0  0  0  0  0  0  0
  1  2  1  0  0  0  0
  1  6  1  0  0  0  0
  2  3  2  0  0  0  0
  3  4  1  0  0  0  0
  4  5  2  0  0  0  0
  4 10  1  0  0  0  0
  5  6  1  0  0  0  0
  5  8  1  0  0  0  0
  6  7  2  0  0  0  0
  8  9  1  0  0  0  0
  9 10  2  0  0  0  0
M  END
>  <CHROM.1>
11.20083450,9.27497663,27.68871817,-0.93782378,1.32805990,-2.17683837

>  <Name>
ligand

>  <RI>
0

>  <Rbt.Current_Directory>
/home/itssahil/PROJECTS/Mol_Feturizer/New_Systems/rnas/2EET

>  <Rbt.Executable>
rbdock ($Id: //depot/dev/client3/rdock/2013.1/src/exe/rbdock.cxx#4 $)

>  <Rbt.Library>
libRbt.so (2013.1, Build901 2013/11/27)

>  <Rbt.Parameter_File>
/export/apps/rDock/src/rDock_2013.1_src/data/scripts/dock_solv.prm

>  <Rbt.Receptor>
prm/blind_docking_60.prm

>  <SCORE>
-17.4964

>  <SCORE.INTER>
-17.4964

>  <SCORE.INTER.CONST>
1

>  <SCORE.INTER.POLAR>
0

>  <SCORE.INTER.ROT>
0

>  <SCORE.INTER.SOLV>
3.85485

>  <SCORE.INTER.VDW>
-16.5492

>  <SCORE.INTER.norm>
-1.74964

>  <SCORE.INTRA>
0

>  <SCORE.INTRA.DIHEDRAL>
0

>  <SCORE.INTRA.DIHEDRAL.0>
0

>  <SCORE.INTRA.POLAR>
0

>  <SCORE.INTRA.POLAR.0>
0

>  <SCORE.INTRA.REPUL>
0

>  <SCORE.INTRA.REPUL.0>
0

>  <SCORE.INTRA.SOLV>
0

>  <SCORE.INTRA.SOLV.lig_0>
-4.28464

>  <SCORE.INTRA.VDW>
0

>  <SCORE.INTRA.VDW.0>
0

>  <SCORE.INTRA.norm>
0

>  <SCORE.RESTR>
0

>  <SCORE.RESTR.CAVITY>
0

>  <SCORE.RESTR.norm>
0

>  <SCORE.SYSTEM>
0

>  <SCORE.SYSTEM.CONST>
0

>  <SCORE.SYSTEM.DIHEDRAL>
0

>  <SCORE.SYSTEM.SOLV>
0

>  <SCORE.SYSTEM.norm>
0

>  <SCORE.heavy>
10

>  <SCORE.norm>
-1.74964

>  <RMSD>
2.447

$$$$
ligand
 OpenBabel11021811423D
libRbt.so/2013.1/901 2013/11/27
 10 11  0  0  0  0  0  0  0  0999 V2000
   11.5726    8.7272   29.5183 N   0  0  0  0  0  0  0  0  0  0  0  0
   11.7394    7.5181   28.8656 C   0  0  0  0  0  0  0  0  0  0  0  0
   11.5831    7.4021   27.5413 N   0  0  0  0  0  0  0  0  0  0  0  0
   11.2493    8.5862   26.9330 C   0  0  0  0  0  0  0  0  0  0  0  0
   11.0706    9.8140   27.5277 C   0  0  0  0  0  0  0  0  0  0  0  0
   11.2343    9.9485   28.9343 C   0  0  0  0  0  0  0  0  0  0  0  0
   11.1221   10.9457   29.6586 O   0  0  0  0  0  0  0  0  0  0  0  0
   10.7460   10.7250   26.5566 N   0  0  0  0  0  0  0  0  0  0  0  0
   10.7305   10.0558   25.3881 C   0  0  0  0  0  0  0  0  0  0  0  0
   11.0352    8.7325   25.5854 N   0  0  0  0  0  0  0  0  0  0  0  0
  1  2  1  0  0  0  0
  1  6  1  0  0  0  0
  2  3  2  0  0  0  0
  3  4  1  0  0  0  0
  4  5  2  0  0  0  0
  4 10  1  0  0  0  0
  5  6  1  0  0  0  0
  5  8  1  0  0  0  0
  6  7  2  0  0  0  0
  8  9  1  0  0  0  0
  9 10  2  0  0  0  0
M  END
>  <CHROM.1>
11.20726490,9.27577498,27.69034100,-0.97424098,1.32439205,-2.14276761

>  <Name>
ligand

>  <RI>
0

>  <Rbt.Current_Directory>
/home/itssahil/PROJECTS/Mol_Feturizer/New_Systems/rnas/2EET

>  <Rbt.Executable>
rbdock ($Id: //depot/dev/client3/rdock/2013.1/src/exe/rbdock.cxx#4 $)

>  <Rbt.Library>
libRbt.so (2013.1, Build901 2013/11/27)

>  <Rbt.Parameter_File>
/export/apps/rDock/src/rDock_2013.1_src/data/scripts/dock_solv.prm

>  <Rbt.Receptor>
prm/blind_docking_60.prm

>  <SCORE>
-17.5102

>  <SCORE.INTER>
-17.5102

>  <SCORE.INTER.CONST>
1

>  <SCORE.INTER.POLAR>
0

>  <SCORE.INTER.ROT>
0

>  <SCORE.INTER.SOLV>
3.85372

>  <SCORE.INTER.VDW>
-16.558

>  <SCORE.INTER.norm>
-1.75102

>  <SCORE.INTRA>
0

>  <SCORE.INTRA.DIHEDRAL>
0

>  <SCORE.INTRA.DIHEDRAL.0>
0

>  <SCORE.INTRA.POLAR>
0

>  <SCORE.INTRA.POLAR.0>
0

>  <SCORE.INTRA.REPUL>
0

>  <SCORE.INTRA.REPUL.0>
0

>  <SCORE.INTRA.SOLV>
0

>  <SCORE.INTRA.SOLV.lig_0>
-4.28464

>  <SCORE.INTRA.VDW>
0

>  <SCORE.INTRA.VDW.0>
0

>  <SCORE.INTRA.norm>
0

>  <SCORE.RESTR>
0

>  <SCORE.RESTR.CAVITY>
0

>  <SCORE.RESTR.norm>
0

>  <SCORE.SYSTEM>
0

>  <SCORE.SYSTEM.CONST>
0

>  <SCORE.SYSTEM.DIHEDRAL>
0

>  <SCORE.SYSTEM.SOLV>
0

>  <SCORE.SYSTEM.norm>
0

>  <SCORE.heavy>
10

>  <SCORE.norm>
-1.75102

>  <RMSD>
2.447

$$$$
ligand
 OpenBabel11021811423D
libRbt.so/2013.1/901 2013/11/27
 10 11  0  0  0  0  0  0  0  0999 V2000
   11.5604    8.7310   29.5357 N   0  0  0  0  0  0  0  0  0  0  0  0
   11.7370    7.5207   28.8879 C   0  0  0  0  0  0  0  0  0  0  0  0
   11.5932    7.4005   27.5625 N   0  0  0  0  0  0  0  0  0  0  0  0
   11.2614    8.5818   26.9479 C   0  0  0  0  0  0  0  0  0  0  0  0
   11.0734    9.8107   27.5375 C   0  0  0  0  0  0  0  0  0  0  0  0
   11.2238    9.9496   28.9452 C   0  0  0  0  0  0  0  0  0  0  0  0
   11.1019   10.9484   29.6656 O   0  0  0  0  0  0  0  0  0  0  0  0
   10.7549   10.7181   26.5610 N   0  0  0  0  0  0  0  0  0  0  0  0
   10.7522   10.0455   25.3942 C   0  0  0  0  0  0  0  0  0  0  0  0
   11.0591    8.7238   25.5980 N   0  0  0  0  0  0  0  0  0  0  0  0
  1  2  1  0  0  0  0
  1  6  1  0  0  0  0
  2  3  2  0  0  0  0
  3  4  1  0  0  0  0
  4  5  2  0  0  0  0
  4 10  1  0  0  0  0
  5  6  1  0  0  0  0
  5  8  1  0  0  0  0
  6  7  2  0  0  0  0
  8  9  1  0  0  0  0
  9 10  2  0  0  0  0
M  END
>  <CHROM.1>
11.21023711,9.27338644,27.70288554,-1.01304375,1.32658851,-2.10790342

>  <Name>
ligand

>  <RI>
0

>  <Rbt.Current_Directory>
/home/itssahil/PROJECTS/Mol_Feturizer/New_Systems/rnas/2EET

>  <Rbt.Executable>
rbdock ($Id: //depot/dev/client3/rdock/2013.1/src/exe/rbdock.cxx#4 $)

>  <Rbt.Library>
libRbt.so (2013.1, Build901 2013/11/27)

>  <Rbt.Parameter_File>
/export/apps/rDock/src/rDock_2013.1_src/data/scripts/dock_solv.prm

>  <Rbt.Receptor>
prm/blind_docking_60.prm

>  <SCORE>
-17.4935

>  <SCORE.INTER>
-17.4935

>  <SCORE.INTER.CONST>
1

>  <SCORE.INTER.POLAR>
0

>  <SCORE.INTER.ROT>
0

>  <SCORE.INTER.SOLV>
3.86688

>  <SCORE.INTER.VDW>
-16.5513

>  <SCORE.INTER.norm>
-1.74935

>  <SCORE.INTRA>
0

>  <SCORE.INTRA.DIHEDRAL>
0

>  <SCORE.INTRA.DIHEDRAL.0>
0

>  <SCORE.INTRA.POLAR>
0

>  <SCORE.INTRA.POLAR.0>
0

>  <SCORE.INTRA.REPUL>
0

>  <SCORE.INTRA.REPUL.0>
0

>  <SCORE.INTRA.SOLV>
0

>  <SCORE.INTRA.SOLV.lig_0>
-4.28464

>  <SCORE.INTRA.VDW>
0

>  <SCORE.INTRA.VDW.0>
0

>  <SCORE.INTRA.norm>
0

>  <SCORE.RESTR>
0

>  <SCORE.RESTR.CAVITY>
0

>  <SCORE.RESTR.norm>
0

>  <SCORE.SYSTEM>
0

>  <SCORE.SYSTEM.CONST>
0

>  <SCORE.SYSTEM.DIHEDRAL>
0

>  <SCORE.SYSTEM.SOLV>
0

>  <SCORE.SYSTEM.norm>
0

>  <SCORE.heavy>
10

>  <SCORE.norm>
-1.74935

>  <RMSD>
2.447

$$$$
ligand
 OpenBabel11021811423D
libRbt.so/2013.1/901 2013/11/27
 10 11  0  0  0  0  0  0  0  0999 V2000
   11.5329    8.7127   29.5817 N   0  0  0  0  0  0  0  0  0  0  0  0
   11.7449    7.5115   28.9276 C   0  0  0  0  0  0  0  0  0  0  0  0
   11.6155    7.3966   27.6003 N   0  0  0  0  0  0  0  0  0  0  0  0
   11.2598    8.5735   26.9904 C   0  0  0  0  0  0  0  0  0  0  0  0
   11.0365    9.7934   27.5863 C   0  0  0  0  0  0  0  0  0  0  0  0
   11.1714    9.9266   28.9961 C   0  0  0  0  0  0  0  0  0  0  0  0
   11.0185   10.9172   29.7219 O   0  0  0  0  0  0  0  0  0  0  0  0
   10.7040   10.6991   26.6130 N   0  0  0  0  0  0  0  0  0  0  0  0
   10.7279   10.0346   25.4419 C   0  0  0  0  0  0  0  0  0  0  0  0
   11.0657    8.7195   25.6398 N   0  0  0  0  0  0  0  0  0  0  0  0
  1  2  1  0  0  0  0
  1  6  1  0  0  0  0
  2  3  2  0  0  0  0
  3  4  1  0  0  0  0
  4  5  2  0  0  0  0
  4 10  1  0  0  0  0
  5  6  1  0  0  0  0
  5  8  1  0  0  0  0
  6  7  2  0  0  0  0
  8  9  1  0  0  0  0
  9 10  2  0  0  0  0
M  END
>  <CHROM.1>
11.18514922,9.25852981,27.74944719,-1.09047609,1.30896391,-2.02635246

>  <Name>
ligand

>  <RI>
0

>  <Rbt.Current_Directory>
/home/itssahil/PROJECTS/Mol_Feturizer/New_Systems/rnas/2EET

>  <Rbt.Executable>
rbdock ($Id: //depot/dev/client3/rdock/2013.1/src/exe/rbdock.cxx#4 $)

>  <Rbt.Library>
libRbt.so (2013.1, Build901 2013/11/27)

>  <Rbt.Parameter_File>
/export/apps/rDock/src/rDock_2013.1_src/data/scripts/dock_solv.prm

>  <Rbt.Receptor>
prm/blind_docking_80.prm

>  <SCORE>
-17.499

>  <SCORE.INTER>
-17.499

>  <SCORE.INTER.CONST>
1

>  <SCORE.INTER.POLAR>
0

>  <SCORE.INTER.ROT>
0

>  <SCORE.INTER.SOLV>
3.89934

>  <SCORE.INTER.VDW>
-16.5658

>  <SCORE.INTER.norm>
-1.7499

>  <SCORE.INTRA>
0

>  <SCORE.INTRA.DIHEDRAL>
0

>  <SCORE.INTRA.DIHEDRAL.0>
0

>  <SCORE.INTRA.POLAR>
0

>  <SCORE.INTRA.POLAR.0>
0

>  <SCORE.INTRA.REPUL>
0

>  <SCORE.INTRA.REPUL.0>
0

>  <SCORE.INTRA.SOLV>
0

>  <SCORE.INTRA.SOLV.lig_0>
-4.28464

>  <SCORE.INTRA.VDW>
0

>  <SCORE.INTRA.VDW.0>
0

>  <SCORE.INTRA.norm>
0

>  <SCORE.RESTR>
0

>  <SCORE.RESTR.CAVITY>
0

>  <SCORE.RESTR.norm>
0

>  <SCORE.SYSTEM>
0

>  <SCORE.SYSTEM.CONST>
0

>  <SCORE.SYSTEM.DIHEDRAL>
0

>  <SCORE.SYSTEM.SOLV>
0

>  <SCORE.SYSTEM.norm>
0

>  <SCORE.heavy>
10

>  <SCORE.norm>
-1.7499

>  <RMSD>
2.447

$$$$
ligand
 OpenBabel11021811423D
libRbt.so/2013.1/901 2013/11/27
 10 11  0  0  0  0  0  0  0  0999 V2000
   11.5761    8.7140   29.5133 N   0  0  0  0  0  0  0  0  0  0  0  0
   11.7308    7.5048   28.8579 C   0  0  0  0  0  0  0  0  0  0  0  0
   11.5713    7.3928   27.5336 N   0  0  0  0  0  0  0  0  0  0  0  0
   11.2474    8.5812   26.9282 C   0  0  0  0  0  0  0  0  0  0  0  0
   11.0809    9.8094   27.5257 C   0  0  0  0  0  0  0  0  0  0  0  0
   11.2481    9.9395   28.9323 C   0  0  0  0  0  0  0  0  0  0  0  0
   11.1461   10.9362   29.6588 O   0  0  0  0  0  0  0  0  0  0  0  0
   10.7630   10.7253   26.5570 N   0  0  0  0  0  0  0  0  0  0  0  0
   10.7395   10.0586   25.3871 C   0  0  0  0  0  0  0  0  0  0  0  0
   11.0324    8.7322   25.5813 N   0  0  0  0  0  0  0  0  0  0  0  0
  1  2  1  0  0  0  0
  1  6  1  0  0  0  0
  2  3  2  0  0  0  0
  3  4  1  0  0  0  0
  4  5  2  0  0  0  0
  4 10  1  0  0  0  0
  5  6  1  0  0  0  0
  5  8  1  0  0  0  0
  6  7  2  0  0  0  0
  8  9  1  0  0  0  0
  9 10  2  0  0  0  0
M  END
>  <CHROM.1>
11.21286886,9.26958602,27.68701881,-0.94766775,1.33114470,-2.16653703

>  <Name>
ligand

>  <RI>
0

>  <Rbt.Current_Directory>
/home/itssahil/PROJECTS/Mol_Feturizer/New_Systems/rnas/2EET

>  <Rbt.Executable>
rbdock ($Id: //depot/dev/client3/rdock/2013.1/src/exe/rbdock.cxx#4 $)

>  <Rbt.Library>
libRbt.so (2013.1, Build901 2013/11/27)

>  <Rbt.Parameter_File>
/export/apps/rDock/src/rDock_2013.1_src/data/scripts/dock_solv.prm

>  <Rbt.Receptor>
prm/blind_docking_80.prm

>  <SCORE>
-17.5069

>  <SCORE.INTER>
-17.5069

>  <SCORE.INTER.CONST>
1

>  <SCORE.INTER.POLAR>
0

>  <SCORE.INTER.ROT>
0

>  <SCORE.INTER.SOLV>
3.84777

>  <SCORE.INTER.VDW>
-16.5538

>  <SCORE.INTER.norm>
-1.75069

>  <SCORE.INTRA>
0

>  <SCORE.INTRA.DIHEDRAL>
0

>  <SCORE.INTRA.DIHEDRAL.0>
0

>  <SCORE.INTRA.POLAR>
0

>  <SCORE.INTRA.POLAR.0>
0

>  <SCORE.INTRA.REPUL>
0

>  <SCORE.INTRA.REPUL.0>
0

>  <SCORE.INTRA.SOLV>
0

>  <SCORE.INTRA.SOLV.lig_0>
-4.28464

>  <SCORE.INTRA.VDW>
0

>  <SCORE.INTRA.VDW.0>
0

>  <SCORE.INTRA.norm>
0

>  <SCORE.RESTR>
0

>  <SCORE.RESTR.CAVITY>
0

>  <SCORE.RESTR.norm>
0

>  <SCORE.SYSTEM>
0

>  <SCORE.SYSTEM.CONST>
0

>  <SCORE.SYSTEM.DIHEDRAL>
0

>  <SCORE.SYSTEM.SOLV>
0

>  <SCORE.SYSTEM.norm>
0

>  <SCORE.heavy>
10

>  <SCORE.norm>
-1.75069

>  <RMSD>
2.447

$$$$
ligand
 OpenBabel11021811423D
libRbt.so/2013.1/901 2013/11/27
 10 11  0  0  0  0  0  0  0  0999 V2000
   11.5712    8.7174   29.5157 N   0  0  0  0  0  0  0  0  0  0  0  0
   11.7274    7.5080   28.8609 C   0  0  0  0  0  0  0  0  0  0  0  0
   11.5697    7.3955   27.5365 N   0  0  0  0  0  0  0  0  0  0  0  0
   11.2459    8.5834   26.9302 C   0  0  0  0  0  0  0  0  0  0  0  0
   11.0779    9.8117   27.5270 C   0  0  0  0  0  0  0  0  0  0  0  0
   11.2433    9.9425   28.9338 C   0  0  0  0  0  0  0  0  0  0  0  0
   11.1398   10.9394   29.6597 O   0  0  0  0  0  0  0  0  0  0  0  0
   10.7608   10.7271   26.5575 N   0  0  0  0  0  0  0  0  0  0  0  0
   10.7392   10.0599   25.3879 C   0  0  0  0  0  0  0  0  0  0  0  0
   11.0325    8.7338   25.5830 N   0  0  0  0  0  0  0  0  0  0  0  0
  1  2  1  0  0  0  0
  1  6  1  0  0  0  0
  2  3  2  0  0  0  0
  3  4  1  0  0  0  0
  4  5  2  0  0  0  0
  4 10  1  0  0  0  0
  5  6  1  0  0  0  0
  5  8  1  0  0  0  0
  6  7  2  0  0  0  0
  8  9  1  0  0  0  0
  9 10  2  0  0  0  0
M  END
>  <CHROM.1>
11.20999906,9.27205831,27.68872520,-0.95342966,1.33140427,-2.16133135

>  <Name>
ligand

>  <RI>
0

>  <Rbt.Current_Directory>
/home/itssahil/PROJECTS/Mol_Feturizer/New_Systems/rnas/2EET

>  <Rbt.Executable>
rbdock ($Id: //depot/dev/client3/rdock/2013.1/src/exe/rbdock.cxx#4 $)

>  <Rbt.Library>
libRbt.so (2013.1, Build901 2013/11/27)

>  <Rbt.Parameter_File>
/export/apps/rDock/src/rDock_2013.1_src/data/scripts/dock_solv.prm

>  <Rbt.Receptor>
prm/pocket_docking_3.prm

>  <SCORE>
-17.5067

>  <SCORE.INTER>
-17.5067

>  <SCORE.INTER.CONST>
1

>  <SCORE.INTER.POLAR>
0

>  <SCORE.INTER.ROT>
0

>  <SCORE.INTER.SOLV>
3.85219

>  <SCORE.INTER.VDW>
-16.5552

>  <SCORE.INTER.norm>
-1.75067

>  <SCORE.INTRA>
0

>  <SCORE.INTRA.DIHEDRAL>
0

>  <SCORE.INTRA.DIHEDRAL.0>
0

>  <SCORE.INTRA.POLAR>
0

>  <SCORE.INTRA.POLAR.0>
0

>  <SCORE.INTRA.REPUL>
0

>  <SCORE.INTRA.REPUL.0>
0

>  <SCORE.INTRA.SOLV>
0

>  <SCORE.INTRA.SOLV.lig_0>
-4.28464

>  <SCORE.INTRA.VDW>
0

>  <SCORE.INTRA.VDW.0>
0

>  <SCORE.INTRA.norm>
0

>  <SCORE.RESTR>
0

>  <SCORE.RESTR.CAVITY>
0

>  <SCORE.RESTR.norm>
0

>  <SCORE.SYSTEM>
0

>  <SCORE.SYSTEM.CONST>
0

>  <SCORE.SYSTEM.DIHEDRAL>
0

>  <SCORE.SYSTEM.SOLV>
0

>  <SCORE.SYSTEM.norm>
0

>  <SCORE.heavy>
10

>  <SCORE.norm>
-1.75067

>  <RMSD>
2.447

$$$$
ligand
 OpenBabel11021811423D
libRbt.so/2013.1/901 2013/11/27
 10 11  0  0  0  0  0  0  0  0999 V2000
   11.5864    8.6901   29.5182 N   0  0  0  0  0  0  0  0  0  0  0  0
   11.7832    7.4938   28.8504 C   0  0  0  0  0  0  0  0  0  0  0  0
   11.6214    7.3886   27.5258 N   0  0  0  0  0  0  0  0  0  0  0  0
   11.2500    8.5697   26.9335 C   0  0  0  0  0  0  0  0  0  0  0  0
   11.0404    9.7850   27.5437 C   0  0  0  0  0  0  0  0  0  0  0  0
   11.2097    9.9079   28.9507 C   0  0  0  0  0  0  0  0  0  0  0  0
   11.0740   10.8930   29.6873 O   0  0  0  0  0  0  0  0  0  0  0  0
   10.6835   10.6975   26.5854 N   0  0  0  0  0  0  0  0  0  0  0  0
   10.6792   10.0416   25.4093 C   0  0  0  0  0  0  0  0  0  0  0  0
   11.0227    8.7254   25.5891 N   0  0  0  0  0  0  0  0  0  0  0  0
  1  2  1  0  0  0  0
  1  6  1  0  0  0  0
  2  3  2  0  0  0  0
  3  4  1  0  0  0  0
  4  5  2  0  0  0  0
  4 10  1  0  0  0  0
  5  6  1  0  0  0  0
  5  8  1  0  0  0  0
  6  7  2  0  0  0  0
  8  9  1  0  0  0  0
  9 10  2  0  0  0  0
M  END
>  <CHROM.1>
11.19342183,9.24901988,27.69916161,-1.01021501,1.29669730,-2.09639417

>  <Name>
ligand

>  <RI>
0

>  <Rbt.Current_Directory>
/home/itssahil/PROJECTS/Mol_Feturizer/New_Systems/rnas/2EET

>  <Rbt.Executable>
rbdock ($Id: //depot/dev/client3/rdock/2013.1/src/exe/rbdock.cxx#4 $)

>  <Rbt.Library>
libRbt.so (2013.1, Build901 2013/11/27)

>  <Rbt.Parameter_File>
/export/apps/rDock/src/rDock_2013.1_src/data/scripts/dock_solv.prm

>  <Rbt.Receptor>
prm/pocket_docking_3.prm

>  <SCORE>
-17.4893

>  <SCORE.INTER>
-17.4893

>  <SCORE.INTER.CONST>
1

>  <SCORE.INTER.POLAR>
0

>  <SCORE.INTER.ROT>
0

>  <SCORE.INTER.SOLV>
3.82853

>  <SCORE.INTER.VDW>
-16.5357

>  <SCORE.INTER.norm>
-1.74893

>  <SCORE.INTRA>
0

>  <SCORE.INTRA.DIHEDRAL>
0

>  <SCORE.INTRA.DIHEDRAL.0>
0

>  <SCORE.INTRA.POLAR>
0

>  <SCORE.INTRA.POLAR.0>
0

>  <SCORE.INTRA.REPUL>
0

>  <SCORE.INTRA.REPUL.0>
0

>  <SCORE.INTRA.SOLV>
0

>  <SCORE.INTRA.SOLV.lig_0>
-4.28464

>  <SCORE.INTRA.VDW>
0

>  <SCORE.INTRA.VDW.0>
0

>  <SCORE.INTRA.norm>
0

>  <SCORE.RESTR>
0

>  <SCORE.RESTR.CAVITY>
0

>  <SCORE.RESTR.norm>
0

>  <SCORE.SYSTEM>
0

>  <SCORE.SYSTEM.CONST>
0

>  <SCORE.SYSTEM.DIHEDRAL>
0

>  <SCORE.SYSTEM.SOLV>
0

>  <SCORE.SYSTEM.norm>
0

>  <SCORE.heavy>
10

>  <SCORE.norm>
-1.74893

>  <RMSD>
2.447

$$$$
ligand
 OpenBabel11021811423D
libRbt.so/2013.1/901 2013/11/27
 10 11  0  0  0  0  0  0  0  0999 V2000
   11.5738    8.7183   29.5138 N   0  0  0  0  0  0  0  0  0  0  0  0
   11.7316    7.5084   28.8603 C   0  0  0  0  0  0  0  0  0  0  0  0
   11.5757    7.3947   27.5357 N   0  0  0  0  0  0  0  0  0  0  0  0
   11.2520    8.5819   26.9280 C   0  0  0  0  0  0  0  0  0  0  0  0
   11.0825    9.8106   27.5235 C   0  0  0  0  0  0  0  0  0  0  0  0
   11.2459    9.9427   28.9304 C   0  0  0  0  0  0  0  0  0  0  0  0
   11.1409   10.9401   29.6554 O   0  0  0  0  0  0  0  0  0  0  0  0
   10.7661   10.7250   26.5529 N   0  0  0  0  0  0  0  0  0  0  0  0
   10.7463   10.0568   25.3838 C   0  0  0  0  0  0  0  0  0  0  0  0
   11.0403    8.7310   25.5803 N   0  0  0  0  0  0  0  0  0  0  0  0
  1  2  1  0  0  0  0
  1  6  1  0  0  0  0
  2  3  2  0  0  0  0
  3  4  1  0  0  0  0
  4  5  2  0  0  0  0
  4 10  1  0  0  0  0
  5  6  1  0  0  0  0
  5  8  1  0  0  0  0
  6  7  2  0  0  0  0
  8  9  1  0  0  0  0
  9 10  2  0  0  0  0
M  END
>  <CHROM.1>
11.21466377,9.27119938,27.68589750,-0.95946731,1.33160357,-2.15630372

>  <Name>
ligand

>  <RI>
0

>  <Rbt.Current_Directory>
/home/itssahil/PROJECTS/Mol_Feturizer/New_Systems/rnas/2EET

>  <Rbt.Executable>
rbdock ($Id: //depot/dev/client3/rdock/2013.1/src/exe/rbdock.cxx#4 $)

>  <Rbt.Library>
libRbt.so (2013.1, Build901 2013/11/27)

>  <Rbt.Parameter_File>
/export/apps/rDock/src/rDock_2013.1_src/data/scripts/dock_solv.prm

>  <Rbt.Receptor>
prm/pocket_docking_3.prm

>  <SCORE>
-17.5105

>  <SCORE.INTER>
-17.5105

>  <SCORE.INTER.CONST>
1

>  <SCORE.INTER.POLAR>
0

>  <SCORE.INTER.ROT>
0

>  <SCORE.INTER.SOLV>
3.8511

>  <SCORE.INTER.VDW>
-16.5573

>  <SCORE.INTER.norm>
-1.75105

>  <SCORE.INTRA>
0

>  <SCORE.INTRA.DIHEDRAL>
0

>  <SCORE.INTRA.DIHEDRAL.0>
0

>  <SCORE.INTRA.POLAR>
0

>  <SCORE.INTRA.POLAR.0>
0

>  <SCORE.INTRA.REPUL>
0

>  <SCORE.INTRA.REPUL.0>
0

>  <SCORE.INTRA.SOLV>
0

>  <SCORE.INTRA.SOLV.lig_0>
-4.28464

>  <SCORE.INTRA.VDW>
0

>  <SCORE.INTRA.VDW.0>
0

>  <SCORE.INTRA.norm>
0

>  <SCORE.RESTR>
0

>  <SCORE.RESTR.CAVITY>
0

>  <SCORE.RESTR.norm>
0

>  <SCORE.SYSTEM>
0

>  <SCORE.SYSTEM.CONST>
0

>  <SCORE.SYSTEM.DIHEDRAL>
0

>  <SCORE.SYSTEM.SOLV>
0

>  <SCORE.SYSTEM.norm>
0

>  <SCORE.heavy>
10

>  <SCORE.norm>
-1.75105

>  <RMSD>
2.447

$$$$
ligand
 OpenBabel11021811423D
libRbt.so/2013.1/901 2013/11/27
 10 11  0  0  0  0  0  0  0  0999 V2000
   11.5509    8.7048   29.4910 N   0  0  0  0  0  0  0  0  0  0  0  0
   11.6993    7.5069   28.8138 C   0  0  0  0  0  0  0  0  0  0  0  0
   11.5484    7.4216   27.4866 N   0  0  0  0  0  0  0  0  0  0  0  0
   11.2397    8.6241   26.9016 C   0  0  0  0  0  0  0  0  0  0  0  0
   11.0802    9.8423   27.5212 C   0  0  0  0  0  0  0  0  0  0  0  0
   11.2384    9.9442   28.9312 C   0  0  0  0  0  0  0  0  0  0  0  0
   11.1404   10.9278   29.6757 O   0  0  0  0  0  0  0  0  0  0  0  0
   10.7778   10.7793   26.5679 N   0  0  0  0  0  0  0  0  0  0  0  0
   10.7566   10.1352   25.3854 C   0  0  0  0  0  0  0  0  0  0  0  0
   11.0359    8.8027   25.5563 N   0  0  0  0  0  0  0  0  0  0  0  0
  1  2  1  0  0  0  0
  1  6  1  0  0  0  0
  2  3  2  0  0  0  0
  3  4  1  0  0  0  0
  4  5  2  0  0  0  0
  4 10  1  0  0  0  0
  5  6  1  0  0  0  0
  5  8  1  0  0  0  0
  6  7  2  0  0  0  0
  8  9  1  0  0  0  0
  9 10  2  0  0  0  0
M  END
>  <CHROM.1>
11.20604648,9.29831461,27.67314666,-0.95130016,1.34278661,-2.14401283

>  <Name>
ligand

>  <RI>
0

>  <Rbt.Current_Directory>
/home/itssahil/PROJECTS/Mol_Feturizer/New_Systems/rnas/2EET

>  <Rbt.Executable>
rbdock ($Id: //depot/dev/client3/rdock/2013.1/src/exe/rbdock.cxx#4 $)

>  <Rbt.Library>
libRbt.so (2013.1, Build901 2013/11/27)

>  <Rbt.Parameter_File>
/export/apps/rDock/src/rDock_2013.1_src/data/scripts/dock_solv.prm

>  <Rbt.Receptor>
prm/pocket_docking_3.prm

>  <SCORE>
-17.4724

>  <SCORE.INTER>
-17.4724

>  <SCORE.INTER.CONST>
1

>  <SCORE.INTER.POLAR>
0

>  <SCORE.INTER.ROT>
0

>  <SCORE.INTER.SOLV>
3.84415

>  <SCORE.INTER.VDW>
-16.5297

>  <SCORE.INTER.norm>
-1.74724

>  <SCORE.INTRA>
0

>  <SCORE.INTRA.DIHEDRAL>
0

>  <SCORE.INTRA.DIHEDRAL.0>
0

>  <SCORE.INTRA.POLAR>
0

>  <SCORE.INTRA.POLAR.0>
0

>  <SCORE.INTRA.REPUL>
0

>  <SCORE.INTRA.REPUL.0>
0

>  <SCORE.INTRA.SOLV>
0

>  <SCORE.INTRA.SOLV.lig_0>
-4.28464

>  <SCORE.INTRA.VDW>
0

>  <SCORE.INTRA.VDW.0>
0

>  <SCORE.INTRA.norm>
0

>  <SCORE.RESTR>
0

>  <SCORE.RESTR.CAVITY>
0

>  <SCORE.RESTR.norm>
0

>  <SCORE.SYSTEM>
0

>  <SCORE.SYSTEM.CONST>
0

>  <SCORE.SYSTEM.DIHEDRAL>
0

>  <SCORE.SYSTEM.SOLV>
0

>  <SCORE.SYSTEM.norm>
0

>  <SCORE.heavy>
10

>  <SCORE.norm>
-1.74724

>  <RMSD>
2.447

$$$$
ligand
 OpenBabel11021811423D
libRbt.so/2013.1/901 2013/11/27
 10 11  0  0  0  0  0  0  0  0999 V2000
   11.5592    8.7175   29.5029 N   0  0  0  0  0  0  0  0  0  0  0  0
   11.7283    7.5180   28.8335 C   0  0  0  0  0  0  0  0  0  0  0  0
   11.5877    7.4233   27.5057 N   0  0  0  0  0  0  0  0  0  0  0  0
   11.2669    8.6183   26.9119 C   0  0  0  0  0  0  0  0  0  0  0  0
   11.0867    9.8376   27.5235 C   0  0  0  0  0  0  0  0  0  0  0  0
   11.2338    9.9494   28.9339 C   0  0  0  0  0  0  0  0  0  0  0  0
   11.1174   10.9357   29.6723 O   0  0  0  0  0  0  0  0  0  0  0  0
   10.7783   10.7652   26.5629 N   0  0  0  0  0  0  0  0  0  0  0  0
   10.7739   10.1143   25.3840 C   0  0  0  0  0  0  0  0  0  0  0  0
   11.0700    8.7867   25.5643 N   0  0  0  0  0  0  0  0  0  0  0  0
  1  2  1  0  0  0  0
  1  6  1  0  0  0  0
  2  3  2  0  0  0  0
  3  4  1  0  0  0  0
  4  5  2  0  0  0  0
  4 10  1  0  0  0  0
  5  6  1  0  0  0  0
  5  8  1  0  0  0  0
  6  7  2  0  0  0  0
  8  9  1  0  0  0  0
  9 10  2  0  0  0  0
M  END
>  <CHROM.1>
11.21884650,9.29625764,27.67939566,-1.00743903,1.33483375,-2.09494353

>  <Name>
ligand

>  <RI>
0

>  <Rbt.Current_Directory>
/home/itssahil/PROJECTS/Mol_Feturizer/New_Systems/rnas/2EET

>  <Rbt.Executable>
rbdock ($Id: //depot/dev/client3/rdock/2013.1/src/exe/rbdock.cxx#4 $)

>  <Rbt.Library>
libRbt.so (2013.1, Build901 2013/11/27)

>  <Rbt.Parameter_File>
/export/apps/rDock/src/rDock_2013.1_src/data/scripts/dock_solv.prm

>  <Rbt.Receptor>
prm/pocket_docking_4.prm

>  <SCORE>
-17.4665

>  <SCORE.INTER>
-17.4665

>  <SCORE.INTER.CONST>
1

>  <SCORE.INTER.POLAR>
0

>  <SCORE.INTER.ROT>
0

>  <SCORE.INTER.SOLV>
3.83886

>  <SCORE.INTER.VDW>
-16.524

>  <SCORE.INTER.norm>
-1.74665

>  <SCORE.INTRA>
0

>  <SCORE.INTRA.DIHEDRAL>
0

>  <SCORE.INTRA.DIHEDRAL.0>
0

>  <SCORE.INTRA.POLAR>
0

>  <SCORE.INTRA.POLAR.0>
0

>  <SCORE.INTRA.REPUL>
0

>  <SCORE.INTRA.REPUL.0>
0

>  <SCORE.INTRA.SOLV>
0

>  <SCORE.INTRA.SOLV.lig_0>
-4.28464

>  <SCORE.INTRA.VDW>
0

>  <SCORE.INTRA.VDW.0>
0

>  <SCORE.INTRA.norm>
0

>  <SCORE.RESTR>
0

>  <SCORE.RESTR.CAVITY>
0

>  <SCORE.RESTR.norm>
0

>  <SCORE.SYSTEM>
0

>  <SCORE.SYSTEM.CONST>
0

>  <SCORE.SYSTEM.DIHEDRAL>
0

>  <SCORE.SYSTEM.SOLV>
0

>  <SCORE.SYSTEM.norm>
0

>  <SCORE.heavy>
10

>  <SCORE.norm>
-1.74665

>  <RMSD>
2.447

$$$$
ligand
 OpenBabel11021811423D
libRbt.so/2013.1/901 2013/11/27
 10 11  0  0  0  0  0  0  0  0999 V2000
   11.5747    8.7311   29.5208 N   0  0  0  0  0  0  0  0  0  0  0  0
   11.7446    7.5215   28.8699 C   0  0  0  0  0  0  0  0  0  0  0  0
   11.5892    7.4031   27.5457 N   0  0  0  0  0  0  0  0  0  0  0  0
   11.2531    8.5856   26.9355 C   0  0  0  0  0  0  0  0  0  0  0  0
   11.0714    9.8139   27.5282 C   0  0  0  0  0  0  0  0  0  0  0  0
   11.2341    9.9508   28.9348 C   0  0  0  0  0  0  0  0  0  0  0  0
   11.1193   10.9488   29.6575 O   0  0  0  0  0  0  0  0  0  0  0  0
   10.7452   10.7227   26.5557 N   0  0  0  0  0  0  0  0  0  0  0  0
   10.7318   10.0517   25.3882 C   0  0  0  0  0  0  0  0  0  0  0  0
   11.0393    8.7294   25.5876 N   0  0  0  0  0  0  0  0  0  0  0  0
  1  2  1  0  0  0  0
  1  6  1  0  0  0  0
  2  3  2  0  0  0  0
  3  4  1  0  0  0  0
  4  5  2  0  0  0  0
  4 10  1  0  0  0  0
  5  6  1  0  0  0  0
  5  8  1  0  0  0  0
  6  7  2  0  0  0  0
  8  9  1  0  0  0  0
  9 10  2  0  0  0  0
M  END
>  <CHROM.1>
11.20914002,9.27619383,27.69178139,-0.98084351,1.32280935,-2.13785558

>  <Name>
ligand

>  <RI>
0

>  <Rbt.Current_Directory>
/home/itssahil/PROJECTS/Mol_Feturizer/New_Systems/rnas/2EET

>  <Rbt.Executable>
rbdock ($Id: //depot/dev/client3/rdock/2013.1/src/exe/rbdock.cxx#4 $)

>  <Rbt.Library>
libRbt.so (2013.1, Build901 2013/11/27)

>  <Rbt.Parameter_File>
/export/apps/rDock/src/rDock_2013.1_src/data/scripts/dock_solv.prm

>  <Rbt.Receptor>
prm/pocket_docking_4.prm

>  <SCORE>
-17.5094

>  <SCORE.INTER>
-17.5094

>  <SCORE.INTER.CONST>
1

>  <SCORE.INTER.POLAR>
0

>  <SCORE.INTER.ROT>
0

>  <SCORE.INTER.SOLV>
3.85482

>  <SCORE.INTER.VDW>
-16.5579

>  <SCORE.INTER.norm>
-1.75094

>  <SCORE.INTRA>
0

>  <SCORE.INTRA.DIHEDRAL>
0

>  <SCORE.INTRA.DIHEDRAL.0>
0

>  <SCORE.INTRA.POLAR>
0

>  <SCORE.INTRA.POLAR.0>
0

>  <SCORE.INTRA.REPUL>
0

>  <SCORE.INTRA.REPUL.0>
0

>  <SCORE.INTRA.SOLV>
0

>  <SCORE.INTRA.SOLV.lig_0>
-4.28464

>  <SCORE.INTRA.VDW>
0

>  <SCORE.INTRA.VDW.0>
0

>  <SCORE.INTRA.norm>
0

>  <SCORE.RESTR>
0

>  <SCORE.RESTR.CAVITY>
0

>  <SCORE.RESTR.norm>
0

>  <SCORE.SYSTEM>
0

>  <SCORE.SYSTEM.CONST>
0

>  <SCORE.SYSTEM.DIHEDRAL>
0

>  <SCORE.SYSTEM.SOLV>
0

>  <SCORE.SYSTEM.norm>
0

>  <SCORE.heavy>
10

>  <SCORE.norm>
-1.75094

>  <RMSD>
2.447

$$$$
ligand
 OpenBabel11021811423D
libRbt.so/2013.1/901 2013/11/27
 10 11  0  0  0  0  0  0  0  0999 V2000
   11.5757    8.7313   29.5224 N   0  0  0  0  0  0  0  0  0  0  0  0
   11.7407    7.5208   28.8720 C   0  0  0  0  0  0  0  0  0  0  0  0
   11.5851    7.4025   27.5478 N   0  0  0  0  0  0  0  0  0  0  0  0
   11.2538    8.5861   26.9371 C   0  0  0  0  0  0  0  0  0  0  0  0
   11.0770    9.8153   27.5294 C   0  0  0  0  0  0  0  0  0  0  0  0
   11.2400    9.9522   28.9358 C   0  0  0  0  0  0  0  0  0  0  0  0
   11.1291   10.9509   29.6582 O   0  0  0  0  0  0  0  0  0  0  0  0
   10.7546   10.7252   26.5564 N   0  0  0  0  0  0  0  0  0  0  0  0
   10.7387   10.0538   25.3891 C   0  0  0  0  0  0  0  0  0  0  0  0
   11.0408    8.7303   25.5891 N   0  0  0  0  0  0  0  0  0  0  0  0
  1  2  1  0  0  0  0
  1  6  1  0  0  0  0
  2  3  2  0  0  0  0
  3  4  1  0  0  0  0
  4  5  2  0  0  0  0
  4 10  1  0  0  0  0
  5  6  1  0  0  0  0
  5  8  1  0  0  0  0
  6  7  2  0  0  0  0
  8  9  1  0  0  0  0
  9 10  2  0  0  0  0
M  END
>  <CHROM.1>
11.21254930,9.27717131,27.69311406,-0.97242718,1.32627615,-2.14638945

>  <Name>
ligand

>  <RI>
0

>  <Rbt.Current_Directory>
/home/itssahil/PROJECTS/Mol_Feturizer/New_Systems/rnas/2EET

>  <Rbt.Executable>
rbdock ($Id: //depot/dev/client3/rdock/2013.1/src/exe/rbdock.cxx#4 $)

>  <Rbt.Library>
libRbt.so (2013.1, Build901 2013/11/27)

>  <Rbt.Parameter_File>
/export/apps/rDock/src/rDock_2013.1_src/data/scripts/dock_solv.prm

>  <Rbt.Receptor>
prm/pocket_docking_4.prm

>  <SCORE>
-17.5101

>  <SCORE.INTER>
-17.5101

>  <SCORE.INTER.CONST>
1

>  <SCORE.INTER.POLAR>
0

>  <SCORE.INTER.ROT>
0

>  <SCORE.INTER.SOLV>
3.85696

>  <SCORE.INTER.VDW>
-16.559

>  <SCORE.INTER.norm>
-1.75101

>  <SCORE.INTRA>
0

>  <SCORE.INTRA.DIHEDRAL>
0

>  <SCORE.INTRA.DIHEDRAL.0>
0

>  <SCORE.INTRA.POLAR>
0

>  <SCORE.INTRA.POLAR.0>
0

>  <SCORE.INTRA.REPUL>
0

>  <SCORE.INTRA.REPUL.0>
0

>  <SCORE.INTRA.SOLV>
0

>  <SCORE.INTRA.SOLV.lig_0>
-4.28464

>  <SCORE.INTRA.VDW>
0

>  <SCORE.INTRA.VDW.0>
0

>  <SCORE.INTRA.norm>
0

>  <SCORE.RESTR>
0

>  <SCORE.RESTR.CAVITY>
0

>  <SCORE.RESTR.norm>
0

>  <SCORE.SYSTEM>
0

>  <SCORE.SYSTEM.CONST>
0

>  <SCORE.SYSTEM.DIHEDRAL>
0

>  <SCORE.SYSTEM.SOLV>
0

>  <SCORE.SYSTEM.norm>
0

>  <SCORE.heavy>
10

>  <SCORE.norm>
-1.75101

>  <RMSD>
2.447

$$$$
ligand
 OpenBabel11021811423D
libRbt.so/2013.1/901 2013/11/27
 10 11  0  0  0  0  0  0  0  0999 V2000
   11.5738    8.7289   29.5203 N   0  0  0  0  0  0  0  0  0  0  0  0
   11.7360    7.5172   28.8712 C   0  0  0  0  0  0  0  0  0  0  0  0
   11.5826    7.3984   27.5468 N   0  0  0  0  0  0  0  0  0  0  0  0
   11.2566    8.5826   26.9344 C   0  0  0  0  0  0  0  0  0  0  0  0
   11.0828    9.8130   27.5254 C   0  0  0  0  0  0  0  0  0  0  0  0
   11.2435    9.9504   28.9321 C   0  0  0  0  0  0  0  0  0  0  0  0
   11.1345   10.9500   29.6534 O   0  0  0  0  0  0  0  0  0  0  0  0
   10.7655   10.7231   26.5511 N   0  0  0  0  0  0  0  0  0  0  0  0
   10.7495   10.0508   25.3843 C   0  0  0  0  0  0  0  0  0  0  0  0
   11.0468    8.7265   25.5859 N   0  0  0  0  0  0  0  0  0  0  0  0
  1  2  1  0  0  0  0
  1  6  1  0  0  0  0
  2  3  2  0  0  0  0
  3  4  1  0  0  0  0
  4  5  2  0  0  0  0
  4 10  1  0  0  0  0
  5  6  1  0  0  0  0
  5  8  1  0  0  0  0
  6  7  2  0  0  0  0
  8  9  1  0  0  0  0
  9 10  2  0  0  0  0
M  END
>  <CHROM.1>
11.21616833,9.27446467,27.68986893,-0.97164884,1.33022146,-2.14795440

>  <Name>
ligand

>  <RI>
0

>  <Rbt.Current_Directory>
/home/itssahil/PROJECTS/Mol_Feturizer/New_Systems/rnas/2EET

>  <Rbt.Executable>
rbdock ($Id: //depot/dev/client3/rdock/2013.1/src/exe/rbdock.cxx#4 $)

>  <Rbt.Library>
libRbt.so (2013.1, Build901 2013/11/27)

>  <Rbt.Parameter_File>
/export/apps/rDock/src/rDock_2013.1_src/data/scripts/dock_solv.prm

>  <Rbt.Receptor>
prm/pocket_docking_5.prm

>  <SCORE>
-17.509

>  <SCORE.INTER>
-17.509

>  <SCORE.INTER.CONST>
1

>  <SCORE.INTER.POLAR>
0

>  <SCORE.INTER.ROT>
0

>  <SCORE.INTER.SOLV>
3.8588

>  <SCORE.INTER.VDW>
-16.559

>  <SCORE.INTER.norm>
-1.7509

>  <SCORE.INTRA>
0

>  <SCORE.INTRA.DIHEDRAL>
0

>  <SCORE.INTRA.DIHEDRAL.0>
0

>  <SCORE.INTRA.POLAR>
0

>  <SCORE.INTRA.POLAR.0>
0

>  <SCORE.INTRA.REPUL>
0

>  <SCORE.INTRA.REPUL.0>
0

>  <SCORE.INTRA.SOLV>
0

>  <SCORE.INTRA.SOLV.lig_0>
-4.28464

>  <SCORE.INTRA.VDW>
0

>  <SCORE.INTRA.VDW.0>
0

>  <SCORE.INTRA.norm>
0

>  <SCORE.RESTR>
0

>  <SCORE.RESTR.CAVITY>
0

>  <SCORE.RESTR.norm>
0

>  <SCORE.SYSTEM>
0

>  <SCORE.SYSTEM.CONST>
0

>  <SCORE.SYSTEM.DIHEDRAL>
0

>  <SCORE.SYSTEM.SOLV>
0

>  <SCORE.SYSTEM.norm>
0

>  <SCORE.heavy>
10

>  <SCORE.norm>
-1.7509

>  <RMSD>
2.447

$$$$
ligand
 OpenBabel11021811423D
libRbt.so/2013.1/901 2013/11/27
 10 11  0  0  0  0  0  0  0  0999 V2000
   11.4973    8.7640   29.5953 N   0  0  0  0  0  0  0  0  0  0  0  0
   11.6872    7.5517   28.9551 C   0  0  0  0  0  0  0  0  0  0  0  0
   11.5706    7.4273   27.6275 N   0  0  0  0  0  0  0  0  0  0  0  0
   11.2513    8.6066   27.0024 C   0  0  0  0  0  0  0  0  0  0  0  0
   11.0512    9.8374   27.5842 C   0  0  0  0  0  0  0  0  0  0  0  0
   11.1728    9.9807   28.9942 C   0  0  0  0  0  0  0  0  0  0  0  0
   11.0360   10.9818   29.7089 O   0  0  0  0  0  0  0  0  0  0  0  0
   10.7527   10.7416   26.5985 N   0  0  0  0  0  0  0  0  0  0  0  0
   10.7739   10.0654   25.4341 C   0  0  0  0  0  0  0  0  0  0  0  0
   11.0767    8.7443   25.6483 N   0  0  0  0  0  0  0  0  0  0  0  0
  1  2  1  0  0  0  0
  1  6  1  0  0  0  0
  2  3  2  0  0  0  0
  3  4  1  0  0  0  0
  4  5  2  0  0  0  0
  4 10  1  0  0  0  0
  5  6  1  0  0  0  0
  5  8  1  0  0  0  0
  6  7  2  0  0  0  0
  8  9  1  0  0  0  0
  9 10  2  0  0  0  0
M  END
>  <CHROM.1>
11.18467524,9.30056102,27.75407741,-1.08898281,1.33634076,-2.03728280

>  <Name>
ligand

>  <RI>
0

>  <Rbt.Current_Directory>
/home/itssahil/PROJECTS/Mol_Feturizer/New_Systems/rnas/2EET

>  <Rbt.Executable>
rbdock ($Id: //depot/dev/client3/rdock/2013.1/src/exe/rbdock.cxx#4 $)

>  <Rbt.Library>
libRbt.so (2013.1, Build901 2013/11/27)

>  <Rbt.Parameter_File>
/export/apps/rDock/src/rDock_2013.1_src/data/scripts/dock_solv.prm

>  <Rbt.Receptor>
prm/pocket_docking_5.prm

>  <SCORE>
-17.4993

>  <SCORE.INTER>
-17.4993

>  <SCORE.INTER.CONST>
1

>  <SCORE.INTER.POLAR>
0

>  <SCORE.INTER.ROT>
0

>  <SCORE.INTER.SOLV>
3.9377

>  <SCORE.INTER.VDW>
-16.5788

>  <SCORE.INTER.norm>
-1.74993

>  <SCORE.INTRA>
0

>  <SCORE.INTRA.DIHEDRAL>
0

>  <SCORE.INTRA.DIHEDRAL.0>
0

>  <SCORE.INTRA.POLAR>
0

>  <SCORE.INTRA.POLAR.0>
0

>  <SCORE.INTRA.REPUL>
0

>  <SCORE.INTRA.REPUL.0>
0

>  <SCORE.INTRA.SOLV>
0

>  <SCORE.INTRA.SOLV.lig_0>
-4.28464

>  <SCORE.INTRA.VDW>
0

>  <SCORE.INTRA.VDW.0>
0

>  <SCORE.INTRA.norm>
0

>  <SCORE.RESTR>
0

>  <SCORE.RESTR.CAVITY>
0

>  <SCORE.RESTR.norm>
0

>  <SCORE.SYSTEM>
0

>  <SCORE.SYSTEM.CONST>
0

>  <SCORE.SYSTEM.DIHEDRAL>
0

>  <SCORE.SYSTEM.SOLV>
0

>  <SCORE.SYSTEM.norm>
0

>  <SCORE.heavy>
10

>  <SCORE.norm>
-1.74993

>  <RMSD>
2.447

$$$$
ligand
 OpenBabel11021811423D
libRbt.so/2013.1/901 2013/11/27
 10 11  0  0  0  0  0  0  0  0999 V2000
   11.5741    8.7186   29.5145 N   0  0  0  0  0  0  0  0  0  0  0  0
   11.7423    7.5120   28.8576 C   0  0  0  0  0  0  0  0  0  0  0  0
   11.5832    7.3998   27.5333 N   0  0  0  0  0  0  0  0  0  0  0  0
   11.2452    8.5850   26.9295 C   0  0  0  0  0  0  0  0  0  0  0  0
   11.0650    9.8105   27.5285 C   0  0  0  0  0  0  0  0  0  0  0  0
   11.2317    9.9410   28.9351 C   0  0  0  0  0  0  0  0  0  0  0  0
   11.1188   10.9356   29.6628 O   0  0  0  0  0  0  0  0  0  0  0  0
   10.7360   10.7239   26.5610 N   0  0  0  0  0  0  0  0  0  0  0  0
   10.7193   10.0583   25.3905 C   0  0  0  0  0  0  0  0  0  0  0  0
   11.0276    8.7351   25.5829 N   0  0  0  0  0  0  0  0  0  0  0  0
  1  2  1  0  0  0  0
  1  6  1  0  0  0  0
  2  3  2  0  0  0  0
  3  4  1  0  0  0  0
  4  5  2  0  0  0  0
  4 10  1  0  0  0  0
  5  6  1  0  0  0  0
  5  8  1  0  0  0  0
  6  7  2  0  0  0  0
  8  9  1  0  0  0  0
  9 10  2  0  0  0  0
M  END
>  <CHROM.1>
11.20330504,9.27210564,27.68910051,-0.97142101,1.32117889,-2.14234726

>  <Name>
ligand

>  <RI>
0

>  <Rbt.Current_Directory>
/home/itssahil/PROJECTS/Mol_Feturizer/New_Systems/rnas/2EET

>  <Rbt.Executable>
rbdock ($Id: //depot/dev/client3/rdock/2013.1/src/exe/rbdock.cxx#4 $)

>  <Rbt.Library>
libRbt.so (2013.1, Build901 2013/11/27)

>  <Rbt.Parameter_File>
/export/apps/rDock/src/rDock_2013.1_src/data/scripts/dock_solv.prm

>  <Rbt.Receptor>
prm/pocket_docking_6.prm

>  <SCORE>
-17.5068

>  <SCORE.INTER>
-17.5068

>  <SCORE.INTER.CONST>
1

>  <SCORE.INTER.POLAR>
0

>  <SCORE.INTER.ROT>
0

>  <SCORE.INTER.SOLV>
3.84483

>  <SCORE.INTER.VDW>
-16.5528

>  <SCORE.INTER.norm>
-1.75068

>  <SCORE.INTRA>
0

>  <SCORE.INTRA.DIHEDRAL>
0

>  <SCORE.INTRA.DIHEDRAL.0>
0

>  <SCORE.INTRA.POLAR>
0

>  <SCORE.INTRA.POLAR.0>
0

>  <SCORE.INTRA.REPUL>
0

>  <SCORE.INTRA.REPUL.0>
0

>  <SCORE.INTRA.SOLV>
0

>  <SCORE.INTRA.SOLV.lig_0>
-4.28464

>  <SCORE.INTRA.VDW>
0

>  <SCORE.INTRA.VDW.0>
0

>  <SCORE.INTRA.norm>
0

>  <SCORE.RESTR>
0

>  <SCORE.RESTR.CAVITY>
0

>  <SCORE.RESTR.norm>
0

>  <SCORE.SYSTEM>
0

>  <SCORE.SYSTEM.CONST>
0

>  <SCORE.SYSTEM.DIHEDRAL>
0

>  <SCORE.SYSTEM.SOLV>
0

>  <SCORE.SYSTEM.norm>
0

>  <SCORE.heavy>
10

>  <SCORE.norm>
-1.75068

>  <RMSD>
2.447

$$$$
ligand
 OpenBabel11021811423D
libRbt.so/2013.1/901 2013/11/27
 10 11  0  0  0  0  0  0  0  0999 V2000
   11.5702    8.7236   29.5171 N   0  0  0  0  0  0  0  0  0  0  0  0
   11.7288    7.5128   28.8656 C   0  0  0  0  0  0  0  0  0  0  0  0
   11.5743    7.3970   27.5410 N   0  0  0  0  0  0  0  0  0  0  0  0
   11.2512    8.5833   26.9311 C   0  0  0  0  0  0  0  0  0  0  0  0
   11.0811    9.8130   27.5246 C   0  0  0  0  0  0  0  0  0  0  0  0
   11.2430    9.9472   28.9315 C   0  0  0  0  0  0  0  0  0  0  0  0
   11.1372   10.9457   29.6548 O   0  0  0  0  0  0  0  0  0  0  0  0
   10.7658   10.7259   26.5523 N   0  0  0  0  0  0  0  0  0  0  0  0
   10.7473   10.0559   25.3842 C   0  0  0  0  0  0  0  0  0  0  0  0
   11.0410    8.7304   25.5830 N   0  0  0  0  0  0  0  0  0  0  0  0
  1  2  1  0  0  0  0
  1  6  1  0  0  0  0
  2  3  2  0  0  0  0
  3  4  1  0  0  0  0
  4  5  2  0  0  0  0
  4 10  1  0  0  0  0
  5  6  1  0  0  0  0
  5  8  1  0  0  0  0
  6  7  2  0  0  0  0
  8  9  1  0  0  0  0
  9 10  2  0  0  0  0
M  END
>  <CHROM.1>
11.21311601,9.27378738,27.68794286,-0.96324660,1.33221583,-2.15415603

>  <Name>
ligand

>  <RI>
0

>  <Rbt.Current_Directory>
/home/itssahil/PROJECTS/Mol_Feturizer/New_Systems/rnas/2EET

>  <Rbt.Executable>
rbdock ($Id: //depot/dev/client3/rdock/2013.1/src/exe/rbdock.cxx#4 $)

>  <Rbt.Library>
libRbt.so (2013.1, Build901 2013/11/27)

>  <Rbt.Parameter_File>
/export/apps/rDock/src/rDock_2013.1_src/data/scripts/dock_solv.prm

>  <Rbt.Receptor>
prm/pocket_docking_7.prm

>  <SCORE>
-17.5096

>  <SCORE.INTER>
-17.5096

>  <SCORE.INTER.CONST>
1

>  <SCORE.INTER.POLAR>
0

>  <SCORE.INTER.ROT>
0

>  <SCORE.INTER.SOLV>
3.85714

>  <SCORE.INTER.VDW>
-16.5588

>  <SCORE.INTER.norm>
-1.75096

>  <SCORE.INTRA>
0

>  <SCORE.INTRA.DIHEDRAL>
0

>  <SCORE.INTRA.DIHEDRAL.0>
0

>  <SCORE.INTRA.POLAR>
0

>  <SCORE.INTRA.POLAR.0>
0

>  <SCORE.INTRA.REPUL>
0

>  <SCORE.INTRA.REPUL.0>
0

>  <SCORE.INTRA.SOLV>
0

>  <SCORE.INTRA.SOLV.lig_0>
-4.28464

>  <SCORE.INTRA.VDW>
0

>  <SCORE.INTRA.VDW.0>
0

>  <SCORE.INTRA.norm>
0

>  <SCORE.RESTR>
0

>  <SCORE.RESTR.CAVITY>
0

>  <SCORE.RESTR.norm>
0

>  <SCORE.SYSTEM>
0

>  <SCORE.SYSTEM.CONST>
0

>  <SCORE.SYSTEM.DIHEDRAL>
0

>  <SCORE.SYSTEM.SOLV>
0

>  <SCORE.SYSTEM.norm>
0

>  <SCORE.heavy>
10

>  <SCORE.norm>
-1.75096

>  <RMSD>
2.447

$$$$
ligand
 OpenBabel11021811423D
libRbt.so/2013.1/901 2013/11/27
 10 11  0  0  0  0  0  0  0  0999 V2000
   11.5745    8.7184   29.5141 N   0  0  0  0  0  0  0  0  0  0  0  0
   11.7367    7.5090   28.8609 C   0  0  0  0  0  0  0  0  0  0  0  0
   11.5825    7.3947   27.5362 N   0  0  0  0  0  0  0  0  0  0  0  0
   11.2557    8.5808   26.9280 C   0  0  0  0  0  0  0  0  0  0  0  0
   11.0818    9.8090   27.5233 C   0  0  0  0  0  0  0  0  0  0  0  0
   11.2434    9.9418   28.9303 C   0  0  0  0  0  0  0  0  0  0  0  0
   11.1345   10.9389   29.6551 O   0  0  0  0  0  0  0  0  0  0  0  0
   10.7635   10.7223   26.5522 N   0  0  0  0  0  0  0  0  0  0  0  0
   10.7470   10.0540   25.3832 C   0  0  0  0  0  0  0  0  0  0  0  0
   11.0449    8.7291   25.5801 N   0  0  0  0  0  0  0  0  0  0  0  0
  1  2  1  0  0  0  0
  1  6  1  0  0  0  0
  2  3  2  0  0  0  0
  3  4  1  0  0  0  0
  4  5  2  0  0  0  0
  4 10  1  0  0  0  0
  5  6  1  0  0  0  0
  5  8  1  0  0  0  0
  6  7  2  0  0  0  0
  8  9  1  0  0  0  0
  9 10  2  0  0  0  0
M  END
>  <CHROM.1>
11.21548624,9.27003891,27.68580864,-0.97019771,1.32955455,-2.14597928

>  <Name>
ligand

>  <RI>
0

>  <Rbt.Current_Directory>
/home/itssahil/PROJECTS/Mol_Feturizer/New_Systems/rnas/2EET

>  <Rbt.Executable>
rbdock ($Id: //depot/dev/client3/rdock/2013.1/src/exe/rbdock.cxx#4 $)

>  <Rbt.Library>
libRbt.so (2013.1, Build901 2013/11/27)

>  <Rbt.Parameter_File>
/export/apps/rDock/src/rDock_2013.1_src/data/scripts/dock_solv.prm

>  <Rbt.Receptor>
prm/pocket_docking_8.prm

>  <SCORE>
-17.511

>  <SCORE.INTER>
-17.511

>  <SCORE.INTER.CONST>
1

>  <SCORE.INTER.POLAR>
0

>  <SCORE.INTER.ROT>
0

>  <SCORE.INTER.SOLV>
3.84929

>  <SCORE.INTER.VDW>
-16.5571

>  <SCORE.INTER.norm>
-1.7511

>  <SCORE.INTRA>
0

>  <SCORE.INTRA.DIHEDRAL>
0

>  <SCORE.INTRA.DIHEDRAL.0>
0

>  <SCORE.INTRA.POLAR>
0

>  <SCORE.INTRA.POLAR.0>
0

>  <SCORE.INTRA.REPUL>
0

>  <SCORE.INTRA.REPUL.0>
0

>  <SCORE.INTRA.SOLV>
0

>  <SCORE.INTRA.SOLV.lig_0>
-4.28464

>  <SCORE.INTRA.VDW>
0

>  <SCORE.INTRA.VDW.0>
0

>  <SCORE.INTRA.norm>
0

>  <SCORE.RESTR>
0

>  <SCORE.RESTR.CAVITY>
0

>  <SCORE.RESTR.norm>
0

>  <SCORE.SYSTEM>
0

>  <SCORE.SYSTEM.CONST>
0

>  <SCORE.SYSTEM.DIHEDRAL>
0

>  <SCORE.SYSTEM.SOLV>
0

>  <SCORE.SYSTEM.norm>
0

>  <SCORE.heavy>
10

>  <SCORE.norm>
-1.7511

>  <RMSD>
2.447

$$$$
ligand
 OpenBabel11021811423D
libRbt.so/2013.1/901 2013/11/27
 10 11  0  0  0  0  0  0  0  0999 V2000
   11.5734    8.7260   29.5188 N   0  0  0  0  0  0  0  0  0  0  0  0
   11.7432    7.5168   28.8671 C   0  0  0  0  0  0  0  0  0  0  0  0
   11.5903    7.4000   27.5424 N   0  0  0  0  0  0  0  0  0  0  0  0
   11.2567    8.5834   26.9327 C   0  0  0  0  0  0  0  0  0  0  0  0
   11.0752    9.8113   27.5264 C   0  0  0  0  0  0  0  0  0  0  0  0
   11.2353    9.9467   28.9334 C   0  0  0  0  0  0  0  0  0  0  0  0
   11.1203   10.9441   29.6569 O   0  0  0  0  0  0  0  0  0  0  0  0
   10.7520   10.7216   26.5541 N   0  0  0  0  0  0  0  0  0  0  0  0
   10.7400   10.0517   25.3859 C   0  0  0  0  0  0  0  0  0  0  0  0
   11.0457    8.7289   25.5846 N   0  0  0  0  0  0  0  0  0  0  0  0
  1  2  1  0  0  0  0
  1  6  1  0  0  0  0
  2  3  2  0  0  0  0
  3  4  1  0  0  0  0
  4  5  2  0  0  0  0
  4 10  1  0  0  0  0
  5  6  1  0  0  0  0
  5  8  1  0  0  0  0
  6  7  2  0  0  0  0
  8  9  1  0  0  0  0
  9 10  2  0  0  0  0
M  END
>  <CHROM.1>
11.21203751,9.27332917,27.68966234,-0.98504464,1.32481332,-2.13277121

>  <Name>
ligand

>  <RI>
0

>  <Rbt.Current_Directory>
/home/itssahil/PROJECTS/Mol_Feturizer/New_Systems/rnas/2EET

>  <Rbt.Executable>
rbdock ($Id: //depot/dev/client3/rdock/2013.1/src/exe/rbdock.cxx#4 $)

>  <Rbt.Library>
libRbt.so (2013.1, Build901 2013/11/27)

>  <Rbt.Parameter_File>
/export/apps/rDock/src/rDock_2013.1_src/data/scripts/dock_solv.prm

>  <Rbt.Receptor>
prm/pocket_docking_8.prm

>  <SCORE>
-17.5107

>  <SCORE.INTER>
-17.5107

>  <SCORE.INTER.CONST>
1

>  <SCORE.INTER.POLAR>
0

>  <SCORE.INTER.ROT>
0

>  <SCORE.INTER.SOLV>
3.85206

>  <SCORE.INTER.VDW>
-16.5578

>  <SCORE.INTER.norm>
-1.75107

>  <SCORE.INTRA>
0

>  <SCORE.INTRA.DIHEDRAL>
0

>  <SCORE.INTRA.DIHEDRAL.0>
0

>  <SCORE.INTRA.POLAR>
0

>  <SCORE.INTRA.POLAR.0>
0

>  <SCORE.INTRA.REPUL>
0

>  <SCORE.INTRA.REPUL.0>
0

>  <SCORE.INTRA.SOLV>
0

>  <SCORE.INTRA.SOLV.lig_0>
-4.28464

>  <SCORE.INTRA.VDW>
0

>  <SCORE.INTRA.VDW.0>
0

>  <SCORE.INTRA.norm>
0

>  <SCORE.RESTR>
0

>  <SCORE.RESTR.CAVITY>
0

>  <SCORE.RESTR.norm>
0

>  <SCORE.SYSTEM>
0

>  <SCORE.SYSTEM.CONST>
0

>  <SCORE.SYSTEM.DIHEDRAL>
0

>  <SCORE.SYSTEM.SOLV>
0

>  <SCORE.SYSTEM.norm>
0

>  <SCORE.heavy>
10

>  <SCORE.norm>
-1.75107

>  <RMSD>
2.447

$$$$
ligand
 OpenBabel11021811423D
libRbt.so/2013.1/901 2013/11/27
 10 11  0  0  0  0  0  0  0  0999 V2000
   11.5703    8.7208   29.5127 N   0  0  0  0  0  0  0  0  0  0  0  0
   11.7309    7.5111   28.8596 C   0  0  0  0  0  0  0  0  0  0  0  0
   11.5755    7.3967   27.5350 N   0  0  0  0  0  0  0  0  0  0  0  0
   11.2493    8.5830   26.9269 C   0  0  0  0  0  0  0  0  0  0  0  0
   11.0770    9.8116   27.5221 C   0  0  0  0  0  0  0  0  0  0  0  0
   11.2398    9.9444   28.9290 C   0  0  0  0  0  0  0  0  0  0  0  0
   11.1325   10.9417   29.6537 O   0  0  0  0  0  0  0  0  0  0  0  0
   10.7589   10.7250   26.5511 N   0  0  0  0  0  0  0  0  0  0  0  0
   10.7409   10.0565   25.3822 C   0  0  0  0  0  0  0  0  0  0  0  0
   11.0377    8.7314   25.5792 N   0  0  0  0  0  0  0  0  0  0  0  0
  1  2  1  0  0  0  0
  1  6  1  0  0  0  0
  2  3  2  0  0  0  0
  3  4  1  0  0  0  0
  4  5  2  0  0  0  0
  4 10  1  0  0  0  0
  5  6  1  0  0  0  0
  5  8  1  0  0  0  0
  6  7  2  0  0  0  0
  8  9  1  0  0  0  0
  9 10  2  0  0  0  0
M  END
>  <CHROM.1>
11.21037345,9.27246428,27.68459908,-0.96534163,1.32991546,-2.15086149

>  <Name>
ligand

>  <RI>
0

>  <Rbt.Current_Directory>
/home/itssahil/PROJECTS/Mol_Feturizer/New_Systems/rnas/2EET

>  <Rbt.Executable>
rbdock ($Id: //depot/dev/client3/rdock/2013.1/src/exe/rbdock.cxx#4 $)

>  <Rbt.Library>
libRbt.so (2013.1, Build901 2013/11/27)

>  <Rbt.Parameter_File>
/export/apps/rDock/src/rDock_2013.1_src/data/scripts/dock_solv.prm

>  <Rbt.Receptor>
prm/blind_docking_40.prm

>  <SCORE>
-17.5114

>  <SCORE.INTER>
-17.5114

>  <SCORE.INTER.CONST>
1

>  <SCORE.INTER.POLAR>
0

>  <SCORE.INTER.ROT>
0

>  <SCORE.INTER.SOLV>
3.85324

>  <SCORE.INTER.VDW>
-16.5587

>  <SCORE.INTER.norm>
-1.75114

>  <SCORE.INTRA>
0

>  <SCORE.INTRA.DIHEDRAL>
0

>  <SCORE.INTRA.DIHEDRAL.0>
0

>  <SCORE.INTRA.POLAR>
0

>  <SCORE.INTRA.POLAR.0>
0

>  <SCORE.INTRA.REPUL>
0

>  <SCORE.INTRA.REPUL.0>
0

>  <SCORE.INTRA.SOLV>
0

>  <SCORE.INTRA.SOLV.lig_0>
-4.28464

>  <SCORE.INTRA.VDW>
0

>  <SCORE.INTRA.VDW.0>
0

>  <SCORE.INTRA.norm>
0

>  <SCORE.RESTR>
0

>  <SCORE.RESTR.CAVITY>
0

>  <SCORE.RESTR.norm>
0

>  <SCORE.SYSTEM>
0

>  <SCORE.SYSTEM.CONST>
0

>  <SCORE.SYSTEM.DIHEDRAL>
0

>  <SCORE.SYSTEM.SOLV>
0

>  <SCORE.SYSTEM.norm>
0

>  <SCORE.heavy>
10

>  <SCORE.norm>
-1.75114

>  <RMSD>
2.448

$$$$
ligand
 OpenBabel11021811423D
libRbt.so/2013.1/901 2013/11/27
 10 11  0  0  0  0  0  0  0  0999 V2000
   11.5613    8.7232   29.5163 N   0  0  0  0  0  0  0  0  0  0  0  0
   11.7153    7.5115   28.8653 C   0  0  0  0  0  0  0  0  0  0  0  0
   11.5608    7.3959   27.5407 N   0  0  0  0  0  0  0  0  0  0  0  0
   11.2425    8.5832   26.9303 C   0  0  0  0  0  0  0  0  0  0  0  0
   11.0770    9.8137   27.5233 C   0  0  0  0  0  0  0  0  0  0  0  0
   11.2390    9.9478   28.9302 C   0  0  0  0  0  0  0  0  0  0  0  0
   11.1369   10.9470   29.6532 O   0  0  0  0  0  0  0  0  0  0  0  0
   10.7655   10.7275   26.5506 N   0  0  0  0  0  0  0  0  0  0  0  0
   10.7447   10.0572   25.3827 C   0  0  0  0  0  0  0  0  0  0  0  0
   11.0332    8.7306   25.5821 N   0  0  0  0  0  0  0  0  0  0  0  0
  1  2  1  0  0  0  0
  1  6  1  0  0  0  0
  2  3  2  0  0  0  0
  3  4  1  0  0  0  0
  4  5  2  0  0  0  0
  4 10  1  0  0  0  0
  5  6  1  0  0  0  0
  5  8  1  0  0  0  0
  6  7  2  0  0  0  0
  8  9  1  0  0  0  0
  9 10  2  0  0  0  0
M  END
>  <CHROM.1>
11.20685200,9.27406433,27.68688762,-0.95506246,1.33560802,-2.16246499

>  <Name>
ligand

>  <RI>
0

>  <Rbt.Current_Directory>
/home/itssahil/PROJECTS/Mol_Feturizer/New_Systems/rnas/2EET

>  <Rbt.Executable>
rbdock ($Id: //depot/dev/client3/rdock/2013.1/src/exe/rbdock.cxx#4 $)

>  <Rbt.Library>
libRbt.so (2013.1, Build901 2013/11/27)

>  <Rbt.Parameter_File>
/export/apps/rDock/src/rDock_2013.1_src/data/scripts/dock_solv.prm

>  <Rbt.Receptor>
prm/blind_docking_40.prm

>  <SCORE>
-17.5027

>  <SCORE.INTER>
-17.5027

>  <SCORE.INTER.CONST>
1

>  <SCORE.INTER.POLAR>
0

>  <SCORE.INTER.ROT>
0

>  <SCORE.INTER.SOLV>
3.86366

>  <SCORE.INTER.VDW>
-16.5563

>  <SCORE.INTER.norm>
-1.75027

>  <SCORE.INTRA>
0

>  <SCORE.INTRA.DIHEDRAL>
0

>  <SCORE.INTRA.DIHEDRAL.0>
0

>  <SCORE.INTRA.POLAR>
0

>  <SCORE.INTRA.POLAR.0>
0

>  <SCORE.INTRA.REPUL>
0

>  <SCORE.INTRA.REPUL.0>
0

>  <SCORE.INTRA.SOLV>
0

>  <SCORE.INTRA.SOLV.lig_0>
-4.28464

>  <SCORE.INTRA.VDW>
0

>  <SCORE.INTRA.VDW.0>
0

>  <SCORE.INTRA.norm>
0

>  <SCORE.RESTR>
0

>  <SCORE.RESTR.CAVITY>
0

>  <SCORE.RESTR.norm>
0

>  <SCORE.SYSTEM>
0

>  <SCORE.SYSTEM.CONST>
0

>  <SCORE.SYSTEM.DIHEDRAL>
0

>  <SCORE.SYSTEM.SOLV>
0

>  <SCORE.SYSTEM.norm>
0

>  <SCORE.heavy>
10

>  <SCORE.norm>
-1.75027

>  <RMSD>
2.448

$$$$
ligand
 OpenBabel11021811423D
libRbt.so/2013.1/901 2013/11/27
 10 11  0  0  0  0  0  0  0  0999 V2000
   11.5687    8.7214   29.5124 N   0  0  0  0  0  0  0  0  0  0  0  0
   11.7327    7.5130   28.8579 C   0  0  0  0  0  0  0  0  0  0  0  0
   11.5762    7.3992   27.5334 N   0  0  0  0  0  0  0  0  0  0  0  0
   11.2451    8.5850   26.9268 C   0  0  0  0  0  0  0  0  0  0  0  0
   11.0692    9.8123   27.5234 C   0  0  0  0  0  0  0  0  0  0  0  0
   11.2333    9.9444   28.9302 C   0  0  0  0  0  0  0  0  0  0  0  0
   11.1234   10.9407   29.6560 O   0  0  0  0  0  0  0  0  0  0  0  0
   10.7467   10.7256   26.5537 N   0  0  0  0  0  0  0  0  0  0  0  0
   10.7296   10.0581   25.3842 C   0  0  0  0  0  0  0  0  0  0  0  0
   11.0312    8.7339   25.5795 N   0  0  0  0  0  0  0  0  0  0  0  0
  1  2  1  0  0  0  0
  1  6  1  0  0  0  0
  2  3  2  0  0  0  0
  3  4  1  0  0  0  0
  4  5  2  0  0  0  0
  4 10  1  0  0  0  0
  5  6  1  0  0  0  0
  5  8  1  0  0  0  0
  6  7  2  0  0  0  0
  8  9  1  0  0  0  0
  9 10  2  0  0  0  0
M  END
>  <CHROM.1>
11.20464148,9.27356780,27.68521641,-0.96899864,1.32633525,-2.14635878

>  <Name>
ligand

>  <RI>
0

>  <Rbt.Current_Directory>
/home/itssahil/PROJECTS/Mol_Feturizer/New_Systems/rnas/2EET

>  <Rbt.Executable>
rbdock ($Id: //depot/dev/client3/rdock/2013.1/src/exe/rbdock.cxx#4 $)

>  <Rbt.Library>
libRbt.so (2013.1, Build901 2013/11/27)

>  <Rbt.Parameter_File>
/export/apps/rDock/src/rDock_2013.1_src/data/scripts/dock_solv.prm

>  <Rbt.Receptor>
prm/blind_docking_40.prm

>  <SCORE>
-17.5104

>  <SCORE.INTER>
-17.5104

>  <SCORE.INTER.CONST>
1

>  <SCORE.INTER.POLAR>
0

>  <SCORE.INTER.ROT>
0

>  <SCORE.INTER.SOLV>
3.85206

>  <SCORE.INTER.VDW>
-16.5576

>  <SCORE.INTER.norm>
-1.75104

>  <SCORE.INTRA>
0

>  <SCORE.INTRA.DIHEDRAL>
0

>  <SCORE.INTRA.DIHEDRAL.0>
0

>  <SCORE.INTRA.POLAR>
0

>  <SCORE.INTRA.POLAR.0>
0

>  <SCORE.INTRA.REPUL>
0

>  <SCORE.INTRA.REPUL.0>
0

>  <SCORE.INTRA.SOLV>
0

>  <SCORE.INTRA.SOLV.lig_0>
-4.28464

>  <SCORE.INTRA.VDW>
0

>  <SCORE.INTRA.VDW.0>
0

>  <SCORE.INTRA.norm>
0

>  <SCORE.RESTR>
0

>  <SCORE.RESTR.CAVITY>
0

>  <SCORE.RESTR.norm>
0

>  <SCORE.SYSTEM>
0

>  <SCORE.SYSTEM.CONST>
0

>  <SCORE.SYSTEM.DIHEDRAL>
0

>  <SCORE.SYSTEM.SOLV>
0

>  <SCORE.SYSTEM.norm>
0

>  <SCORE.heavy>
10

>  <SCORE.norm>
-1.75104

>  <RMSD>
2.448

$$$$
ligand
 OpenBabel11021811423D
libRbt.so/2013.1/901 2013/11/27
 10 11  0  0  0  0  0  0  0  0999 V2000
   11.5669    8.7238   29.5144 N   0  0  0  0  0  0  0  0  0  0  0  0
   11.7400    7.5170   28.8591 C   0  0  0  0  0  0  0  0  0  0  0  0
   11.5842    7.4031   27.5345 N   0  0  0  0  0  0  0  0  0  0  0  0
   11.2442    8.5868   26.9288 C   0  0  0  0  0  0  0  0  0  0  0  0
   11.0591    9.8123   27.5262 C   0  0  0  0  0  0  0  0  0  0  0  0
   11.2222    9.9446   28.9331 C   0  0  0  0  0  0  0  0  0  0  0  0
   11.1049   10.9395   29.6596 O   0  0  0  0  0  0  0  0  0  0  0  0
   10.7297   10.7238   26.5572 N   0  0  0  0  0  0  0  0  0  0  0  0
   10.7176   10.0570   25.3872 C   0  0  0  0  0  0  0  0  0  0  0  0
   11.0292    8.7350   25.5816 N   0  0  0  0  0  0  0  0  0  0  0  0
  1  2  1  0  0  0  0
  1  6  1  0  0  0  0
  2  3  2  0  0  0  0
  3  4  1  0  0  0  0
  4  5  2  0  0  0  0
  4 10  1  0  0  0  0
  5  6  1  0  0  0  0
  5  8  1  0  0  0  0
  6  7  2  0  0  0  0
  8  9  1  0  0  0  0
  9 10  2  0  0  0  0
M  END
>  <CHROM.1>
11.19861389,9.27446125,27.68768025,-0.98540843,1.31997314,-2.12974591

>  <Name>
ligand

>  <RI>
0

>  <Rbt.Current_Directory>
/home/itssahil/PROJECTS/Mol_Feturizer/New_Systems/rnas/2EET

>  <Rbt.Executable>
rbdock ($Id: //depot/dev/client3/rdock/2013.1/src/exe/rbdock.cxx#4 $)

>  <Rbt.Library>
libRbt.so (2013.1, Build901 2013/11/27)

>  <Rbt.Parameter_File>
/export/apps/rDock/src/rDock_2013.1_src/data/scripts/dock_solv.prm

>  <Rbt.Receptor>
prm/blind_docking_40.prm

>  <SCORE>
-17.5059

>  <SCORE.INTER>
-17.5059

>  <SCORE.INTER.CONST>
1

>  <SCORE.INTER.POLAR>
0

>  <SCORE.INTER.ROT>
0

>  <SCORE.INTER.SOLV>
3.85289

>  <SCORE.INTER.VDW>
-16.5549

>  <SCORE.INTER.norm>
-1.75059

>  <SCORE.INTRA>
0

>  <SCORE.INTRA.DIHEDRAL>
0

>  <SCORE.INTRA.DIHEDRAL.0>
0

>  <SCORE.INTRA.POLAR>
0

>  <SCORE.INTRA.POLAR.0>
0

>  <SCORE.INTRA.REPUL>
0

>  <SCORE.INTRA.REPUL.0>
0

>  <SCORE.INTRA.SOLV>
0

>  <SCORE.INTRA.SOLV.lig_0>
-4.28464

>  <SCORE.INTRA.VDW>
0

>  <SCORE.INTRA.VDW.0>
0

>  <SCORE.INTRA.norm>
0

>  <SCORE.RESTR>
0

>  <SCORE.RESTR.CAVITY>
0

>  <SCORE.RESTR.norm>
0

>  <SCORE.SYSTEM>
0

>  <SCORE.SYSTEM.CONST>
0

>  <SCORE.SYSTEM.DIHEDRAL>
0

>  <SCORE.SYSTEM.SOLV>
0

>  <SCORE.SYSTEM.norm>
0

>  <SCORE.heavy>
10

>  <SCORE.norm>
-1.75059

>  <RMSD>
2.448

$$$$
ligand
 OpenBabel11021811423D
libRbt.so/2013.1/901 2013/11/27
 10 11  0  0  0  0  0  0  0  0999 V2000
   11.5712    8.7213   29.5164 N   0  0  0  0  0  0  0  0  0  0  0  0
   11.7417    7.5129   28.8634 C   0  0  0  0  0  0  0  0  0  0  0  0
   11.5887    7.3973   27.5387 N   0  0  0  0  0  0  0  0  0  0  0  0
   11.2541    8.5811   26.9302 C   0  0  0  0  0  0  0  0  0  0  0  0
   11.0718    9.8083   27.5252 C   0  0  0  0  0  0  0  0  0  0  0  0
   11.2321    9.9423   28.9323 C   0  0  0  0  0  0  0  0  0  0  0  0
   11.1163   10.9389   29.6569 O   0  0  0  0  0  0  0  0  0  0  0  0
   10.7477   10.7193   26.5539 N   0  0  0  0  0  0  0  0  0  0  0  0
   10.7360   10.0506   25.3850 C   0  0  0  0  0  0  0  0  0  0  0  0
   11.0427    8.7279   25.5823 N   0  0  0  0  0  0  0  0  0  0  0  0
  1  2  1  0  0  0  0
  1  6  1  0  0  0  0
  2  3  2  0  0  0  0
  3  4  1  0  0  0  0
  4  5  2  0  0  0  0
  4 10  1  0  0  0  0
  5  6  1  0  0  0  0
  5  8  1  0  0  0  0
  6  7  2  0  0  0  0
  8  9  1  0  0  0  0
  9 10  2  0  0  0  0
M  END
>  <CHROM.1>
11.20904441,9.27023319,27.68789456,-0.98611951,1.32406475,-2.13069419

>  <Name>
ligand

>  <RI>
0

>  <Rbt.Current_Directory>
/home/itssahil/PROJECTS/Mol_Feturizer/New_Systems/rnas/2EET

>  <Rbt.Executable>
rbdock ($Id: //depot/dev/client3/rdock/2013.1/src/exe/rbdock.cxx#4 $)

>  <Rbt.Library>
libRbt.so (2013.1, Build901 2013/11/27)

>  <Rbt.Parameter_File>
/export/apps/rDock/src/rDock_2013.1_src/data/scripts/dock_solv.prm

>  <Rbt.Receptor>
prm/blind_docking_60.prm

>  <SCORE>
-17.5094

>  <SCORE.INTER>
-17.5094

>  <SCORE.INTER.CONST>
1

>  <SCORE.INTER.POLAR>
0

>  <SCORE.INTER.ROT>
0

>  <SCORE.INTER.SOLV>
3.84937

>  <SCORE.INTER.VDW>
-16.556

>  <SCORE.INTER.norm>
-1.75094

>  <SCORE.INTRA>
0

>  <SCORE.INTRA.DIHEDRAL>
0

>  <SCORE.INTRA.DIHEDRAL.0>
0

>  <SCORE.INTRA.POLAR>
0

>  <SCORE.INTRA.POLAR.0>
0

>  <SCORE.INTRA.REPUL>
0

>  <SCORE.INTRA.REPUL.0>
0

>  <SCORE.INTRA.SOLV>
0

>  <SCORE.INTRA.SOLV.lig_0>
-4.28464

>  <SCORE.INTRA.VDW>
0

>  <SCORE.INTRA.VDW.0>
0

>  <SCORE.INTRA.norm>
0

>  <SCORE.RESTR>
0

>  <SCORE.RESTR.CAVITY>
0

>  <SCORE.RESTR.norm>
0

>  <SCORE.SYSTEM>
0

>  <SCORE.SYSTEM.CONST>
0

>  <SCORE.SYSTEM.DIHEDRAL>
0

>  <SCORE.SYSTEM.SOLV>
0

>  <SCORE.SYSTEM.norm>
0

>  <SCORE.heavy>
10

>  <SCORE.norm>
-1.75094

>  <RMSD>
2.448

$$$$
ligand
 OpenBabel11021811423D
libRbt.so/2013.1/901 2013/11/27
 10 11  0  0  0  0  0  0  0  0999 V2000
   11.5689    8.7228   29.5155 N   0  0  0  0  0  0  0  0  0  0  0  0
   11.7383    7.5138   28.8633 C   0  0  0  0  0  0  0  0  0  0  0  0
   11.5872    7.3978   27.5384 N   0  0  0  0  0  0  0  0  0  0  0  0
   11.2557    8.5820   26.9289 C   0  0  0  0  0  0  0  0  0  0  0  0
   11.0747    9.8097   27.5230 C   0  0  0  0  0  0  0  0  0  0  0  0
   11.2329    9.9441   28.9303 C   0  0  0  0  0  0  0  0  0  0  0  0
   11.1179   10.9412   29.6542 O   0  0  0  0  0  0  0  0  0  0  0  0
   10.7538   10.7209   26.5508 N   0  0  0  0  0  0  0  0  0  0  0  0
   10.7428   10.0517   25.3822 C   0  0  0  0  0  0  0  0  0  0  0  0
   11.0468    8.7285   25.5805 N   0  0  0  0  0  0  0  0  0  0  0  0
  1  2  1  0  0  0  0
  1  6  1  0  0  0  0
  2  3  2  0  0  0  0
  3  4  1  0  0  0  0
  4  5  2  0  0  0  0
  4 10  1  0  0  0  0
  5  6  1  0  0  0  0
  5  8  1  0  0  0  0
  6  7  2  0  0  0  0
  8  9  1  0  0  0  0
  9 10  2  0  0  0  0
M  END
>  <CHROM.1>
11.21069715,9.27151001,27.68616914,-0.98774957,1.32646185,-2.12956534

>  <Name>
ligand

>  <RI>
0

>  <Rbt.Current_Directory>
/home/itssahil/PROJECTS/Mol_Feturizer/New_Systems/rnas/2EET

>  <Rbt.Executable>
rbdock ($Id: //depot/dev/client3/rdock/2013.1/src/exe/rbdock.cxx#4 $)

>  <Rbt.Library>
libRbt.so (2013.1, Build901 2013/11/27)

>  <Rbt.Parameter_File>
/export/apps/rDock/src/rDock_2013.1_src/data/scripts/dock_solv.prm

>  <Rbt.Receptor>
prm/blind_docking_60.prm

>  <SCORE>
-17.5112

>  <SCORE.INTER>
-17.5112

>  <SCORE.INTER.CONST>
1

>  <SCORE.INTER.POLAR>
0

>  <SCORE.INTER.ROT>
0

>  <SCORE.INTER.SOLV>
3.85227

>  <SCORE.INTER.VDW>
-16.5582

>  <SCORE.INTER.norm>
-1.75112

>  <SCORE.INTRA>
0

>  <SCORE.INTRA.DIHEDRAL>
0

>  <SCORE.INTRA.DIHEDRAL.0>
0

>  <SCORE.INTRA.POLAR>
0

>  <SCORE.INTRA.POLAR.0>
0

>  <SCORE.INTRA.REPUL>
0

>  <SCORE.INTRA.REPUL.0>
0

>  <SCORE.INTRA.SOLV>
0

>  <SCORE.INTRA.SOLV.lig_0>
-4.28464

>  <SCORE.INTRA.VDW>
0

>  <SCORE.INTRA.VDW.0>
0

>  <SCORE.INTRA.norm>
0

>  <SCORE.RESTR>
0

>  <SCORE.RESTR.CAVITY>
0

>  <SCORE.RESTR.norm>
0

>  <SCORE.SYSTEM>
0

>  <SCORE.SYSTEM.CONST>
0

>  <SCORE.SYSTEM.DIHEDRAL>
0

>  <SCORE.SYSTEM.SOLV>
0

>  <SCORE.SYSTEM.norm>
0

>  <SCORE.heavy>
10

>  <SCORE.norm>
-1.75112

>  <RMSD>
2.448

$$$$
ligand
 OpenBabel11021811423D
libRbt.so/2013.1/901 2013/11/27
 10 11  0  0  0  0  0  0  0  0999 V2000
   11.5743    8.7107   29.5108 N   0  0  0  0  0  0  0  0  0  0  0  0
   11.7391    7.5030   28.8551 C   0  0  0  0  0  0  0  0  0  0  0  0
   11.5859    7.3912   27.5301 N   0  0  0  0  0  0  0  0  0  0  0  0
   11.2571    8.5780   26.9242 C   0  0  0  0  0  0  0  0  0  0  0  0
   11.0806    9.8046   27.5220 C   0  0  0  0  0  0  0  0  0  0  0  0
   11.2412    9.9347   28.9294 C   0  0  0  0  0  0  0  0  0  0  0  0
   11.1301   10.9301   29.6562 O   0  0  0  0  0  0  0  0  0  0  0  0
   10.7612   10.7194   26.5527 N   0  0  0  0  0  0  0  0  0  0  0  0
   10.7466   10.0535   25.3822 C   0  0  0  0  0  0  0  0  0  0  0  0
   11.0468    8.7288   25.5765 N   0  0  0  0  0  0  0  0  0  0  0  0
  1  2  1  0  0  0  0
  1  6  1  0  0  0  0
  2  3  2  0  0  0  0
  3  4  1  0  0  0  0
  4  5  2  0  0  0  0
  4 10  1  0  0  0  0
  5  6  1  0  0  0  0
  5  8  1  0  0  0  0
  6  7  2  0  0  0  0
  8  9  1  0  0  0  0
  9 10  2  0  0  0  0
M  END
>  <CHROM.1>
11.21523411,9.26555094,27.68344999,-0.97636360,1.32827931,-2.13788401

>  <Name>
ligand

>  <RI>
0

>  <Rbt.Current_Directory>
/home/itssahil/PROJECTS/Mol_Feturizer/New_Systems/rnas/2EET

>  <Rbt.Executable>
rbdock ($Id: //depot/dev/client3/rdock/2013.1/src/exe/rbdock.cxx#4 $)

>  <Rbt.Library>
libRbt.so (2013.1, Build901 2013/11/27)

>  <Rbt.Parameter_File>
/export/apps/rDock/src/rDock_2013.1_src/data/scripts/dock_solv.prm

>  <Rbt.Receptor>
prm/blind_docking_80.prm

>  <SCORE>
-17.5102

>  <SCORE.INTER>
-17.5102

>  <SCORE.INTER.CONST>
1

>  <SCORE.INTER.POLAR>
0

>  <SCORE.INTER.ROT>
0

>  <SCORE.INTER.SOLV>
3.84228

>  <SCORE.INTER.VDW>
-16.5543

>  <SCORE.INTER.norm>
-1.75102

>  <SCORE.INTRA>
0

>  <SCORE.INTRA.DIHEDRAL>
0

>  <SCORE.INTRA.DIHEDRAL.0>
0

>  <SCORE.INTRA.POLAR>
0

>  <SCORE.INTRA.POLAR.0>
0

>  <SCORE.INTRA.REPUL>
0

>  <SCORE.INTRA.REPUL.0>
0

>  <SCORE.INTRA.SOLV>
0

>  <SCORE.INTRA.SOLV.lig_0>
-4.28464

>  <SCORE.INTRA.VDW>
0

>  <SCORE.INTRA.VDW.0>
0

>  <SCORE.INTRA.norm>
0

>  <SCORE.RESTR>
0

>  <SCORE.RESTR.CAVITY>
0

>  <SCORE.RESTR.norm>
0

>  <SCORE.SYSTEM>
0

>  <SCORE.SYSTEM.CONST>
0

>  <SCORE.SYSTEM.DIHEDRAL>
0

>  <SCORE.SYSTEM.SOLV>
0

>  <SCORE.SYSTEM.norm>
0

>  <SCORE.heavy>
10

>  <SCORE.norm>
-1.75102

>  <RMSD>
2.448

$$$$
ligand
 OpenBabel11021811423D
libRbt.so/2013.1/901 2013/11/27
 10 11  0  0  0  0  0  0  0  0999 V2000
   11.5720    8.7158   29.5128 N   0  0  0  0  0  0  0  0  0  0  0  0
   11.7420    7.5087   28.8574 C   0  0  0  0  0  0  0  0  0  0  0  0
   11.5885    7.3958   27.5325 N   0  0  0  0  0  0  0  0  0  0  0  0
   11.2541    8.5809   26.9265 C   0  0  0  0  0  0  0  0  0  0  0  0
   11.0723    9.8069   27.5239 C   0  0  0  0  0  0  0  0  0  0  0  0
   11.2331    9.9381   28.9312 C   0  0  0  0  0  0  0  0  0  0  0  0
   11.1178   10.9332   29.6578 O   0  0  0  0  0  0  0  0  0  0  0  0
   10.7482   10.7199   26.5545 N   0  0  0  0  0  0  0  0  0  0  0  0
   10.7360   10.0536   25.3843 C   0  0  0  0  0  0  0  0  0  0  0  0
   11.0424    8.7303   25.5788 N   0  0  0  0  0  0  0  0  0  0  0  0
  1  2  1  0  0  0  0
  1  6  1  0  0  0  0
  2  3  2  0  0  0  0
  3  4  1  0  0  0  0
  4  5  2  0  0  0  0
  4 10  1  0  0  0  0
  5  6  1  0  0  0  0
  5  8  1  0  0  0  0
  6  7  2  0  0  0  0
  8  9  1  0  0  0  0
  9 10  2  0  0  0  0
M  END
>  <CHROM.1>
11.20947217,9.26847904,27.68549302,-0.98444535,1.32416141,-2.13034226

>  <Name>
ligand

>  <RI>
0

>  <Rbt.Current_Directory>
/home/itssahil/PROJECTS/Mol_Feturizer/New_Systems/rnas/2EET

>  <Rbt.Executable>
rbdock ($Id: //depot/dev/client3/rdock/2013.1/src/exe/rbdock.cxx#4 $)

>  <Rbt.Library>
libRbt.so (2013.1, Build901 2013/11/27)

>  <Rbt.Parameter_File>
/export/apps/rDock/src/rDock_2013.1_src/data/scripts/dock_solv.prm

>  <Rbt.Receptor>
prm/blind_docking_80.prm

>  <SCORE>
-17.5112

>  <SCORE.INTER>
-17.5112

>  <SCORE.INTER.CONST>
1

>  <SCORE.INTER.POLAR>
0

>  <SCORE.INTER.ROT>
0

>  <SCORE.INTER.SOLV>
3.84427

>  <SCORE.INTER.VDW>
-16.5555

>  <SCORE.INTER.norm>
-1.75112

>  <SCORE.INTRA>
0

>  <SCORE.INTRA.DIHEDRAL>
0

>  <SCORE.INTRA.DIHEDRAL.0>
0

>  <SCORE.INTRA.POLAR>
0

>  <SCORE.INTRA.POLAR.0>
0

>  <SCORE.INTRA.REPUL>
0

>  <SCORE.INTRA.REPUL.0>
0

>  <SCORE.INTRA.SOLV>
0

>  <SCORE.INTRA.SOLV.lig_0>
-4.28464

>  <SCORE.INTRA.VDW>
0

>  <SCORE.INTRA.VDW.0>
0

>  <SCORE.INTRA.norm>
0

>  <SCORE.RESTR>
0

>  <SCORE.RESTR.CAVITY>
0

>  <SCORE.RESTR.norm>
0

>  <SCORE.SYSTEM>
0

>  <SCORE.SYSTEM.CONST>
0

>  <SCORE.SYSTEM.DIHEDRAL>
0

>  <SCORE.SYSTEM.SOLV>
0

>  <SCORE.SYSTEM.norm>
0

>  <SCORE.heavy>
10

>  <SCORE.norm>
-1.75112

>  <RMSD>
2.448

$$$$
ligand
 OpenBabel11021811423D
libRbt.so/2013.1/901 2013/11/27
 10 11  0  0  0  0  0  0  0  0999 V2000
   11.5738    8.7172   29.5145 N   0  0  0  0  0  0  0  0  0  0  0  0
   11.7504    7.5104   28.8601 C   0  0  0  0  0  0  0  0  0  0  0  0
   11.5997    7.3960   27.5350 N   0  0  0  0  0  0  0  0  0  0  0  0
   11.2610    8.5793   26.9277 C   0  0  0  0  0  0  0  0  0  0  0  0
   11.0726    9.8048   27.5241 C   0  0  0  0  0  0  0  0  0  0  0  0
   11.2303    9.9376   28.9316 C   0  0  0  0  0  0  0  0  0  0  0  0
   11.1094   10.9326   29.6574 O   0  0  0  0  0  0  0  0  0  0  0  0
   10.7461   10.7158   26.5536 N   0  0  0  0  0  0  0  0  0  0  0  0
   10.7389   10.0487   25.3838 C   0  0  0  0  0  0  0  0  0  0  0  0
   11.0509    8.7270   25.5796 N   0  0  0  0  0  0  0  0  0  0  0  0
  1  2  1  0  0  0  0
  1  6  1  0  0  0  0
  2  3  2  0  0  0  0
  3  4  1  0  0  0  0
  4  5  2  0  0  0  0
  4 10  1  0  0  0  0
  5  6  1  0  0  0  0
  5  8  1  0  0  0  0
  6  7  2  0  0  0  0
  8  9  1  0  0  0  0
  9 10  2  0  0  0  0
M  END
>  <CHROM.1>
11.21193648,9.26711391,27.68624928,-1.00011038,1.32121973,-2.11574984

>  <Name>
ligand

>  <RI>
0

>  <Rbt.Current_Directory>
/home/itssahil/PROJECTS/Mol_Feturizer/New_Systems/rnas/2EET

>  <Rbt.Executable>
rbdock ($Id: //depot/dev/client3/rdock/2013.1/src/exe/rbdock.cxx#4 $)

>  <Rbt.Library>
libRbt.so (2013.1, Build901 2013/11/27)

>  <Rbt.Parameter_File>
/export/apps/rDock/src/rDock_2013.1_src/data/scripts/dock_solv.prm

>  <Rbt.Receptor>
prm/pocket_docking_3.prm

>  <SCORE>
-17.5085

>  <SCORE.INTER>
-17.5085

>  <SCORE.INTER.CONST>
1

>  <SCORE.INTER.POLAR>
0

>  <SCORE.INTER.ROT>
0

>  <SCORE.INTER.SOLV>
3.84327

>  <SCORE.INTER.VDW>
-16.5534

>  <SCORE.INTER.norm>
-1.75085

>  <SCORE.INTRA>
0

>  <SCORE.INTRA.DIHEDRAL>
0

>  <SCORE.INTRA.DIHEDRAL.0>
0

>  <SCORE.INTRA.POLAR>
0

>  <SCORE.INTRA.POLAR.0>
0

>  <SCORE.INTRA.REPUL>
0

>  <SCORE.INTRA.REPUL.0>
0

>  <SCORE.INTRA.SOLV>
0

>  <SCORE.INTRA.SOLV.lig_0>
-4.28464

>  <SCORE.INTRA.VDW>
0

>  <SCORE.INTRA.VDW.0>
0

>  <SCORE.INTRA.norm>
0

>  <SCORE.RESTR>
0

>  <SCORE.RESTR.CAVITY>
0

>  <SCORE.RESTR.norm>
0

>  <SCORE.SYSTEM>
0

>  <SCORE.SYSTEM.CONST>
0

>  <SCORE.SYSTEM.DIHEDRAL>
0

>  <SCORE.SYSTEM.SOLV>
0

>  <SCORE.SYSTEM.norm>
0

>  <SCORE.heavy>
10

>  <SCORE.norm>
-1.75085

>  <RMSD>
2.448

$$$$
ligand
 OpenBabel11021811423D
libRbt.so/2013.1/901 2013/11/27
 10 11  0  0  0  0  0  0  0  0999 V2000
   11.5722    8.7206   29.5144 N   0  0  0  0  0  0  0  0  0  0  0  0
   11.7406    7.5127   28.8599 C   0  0  0  0  0  0  0  0  0  0  0  0
   11.5856    7.3987   27.5353 N   0  0  0  0  0  0  0  0  0  0  0  0
   11.2513    8.5835   26.9286 C   0  0  0  0  0  0  0  0  0  0  0  0
   11.0710    9.8102   27.5251 C   0  0  0  0  0  0  0  0  0  0  0  0
   11.2334    9.9425   28.9321 C   0  0  0  0  0  0  0  0  0  0  0  0
   11.1197   10.9384   29.6579 O   0  0  0  0  0  0  0  0  0  0  0  0
   10.7464   10.7225   26.5553 N   0  0  0  0  0  0  0  0  0  0  0  0
   10.7324   10.0551   25.3857 C   0  0  0  0  0  0  0  0  0  0  0  0
   11.0381    8.7318   25.5811 N   0  0  0  0  0  0  0  0  0  0  0  0
  1  2  1  0  0  0  0
  1  6  1  0  0  0  0
  2  3  2  0  0  0  0
  3  4  1  0  0  0  0
  4  5  2  0  0  0  0
  4 10  1  0  0  0  0
  5  6  1  0  0  0  0
  5  8  1  0  0  0  0
  6  7  2  0  0  0  0
  8  9  1  0  0  0  0
  9 10  2  0  0  0  0
M  END
>  <CHROM.1>
11.20797227,9.27178718,27.68702009,-0.97906415,1.32412509,-2.13647080

>  <Name>
ligand

>  <RI>
0

>  <Rbt.Current_Directory>
/home/itssahil/PROJECTS/Mol_Feturizer/New_Systems/rnas/2EET

>  <Rbt.Executable>
rbdock ($Id: //depot/dev/client3/rdock/2013.1/src/exe/rbdock.cxx#4 $)

>  <Rbt.Library>
libRbt.so (2013.1, Build901 2013/11/27)

>  <Rbt.Parameter_File>
/export/apps/rDock/src/rDock_2013.1_src/data/scripts/dock_solv.prm

>  <Rbt.Receptor>
prm/pocket_docking_3.prm

>  <SCORE>
-17.5114

>  <SCORE.INTER>
-17.5114

>  <SCORE.INTER.CONST>
1

>  <SCORE.INTER.POLAR>
0

>  <SCORE.INTER.ROT>
0

>  <SCORE.INTER.SOLV>
3.84812

>  <SCORE.INTER.VDW>
-16.5569

>  <SCORE.INTER.norm>
-1.75114

>  <SCORE.INTRA>
0

>  <SCORE.INTRA.DIHEDRAL>
0

>  <SCORE.INTRA.DIHEDRAL.0>
0

>  <SCORE.INTRA.POLAR>
0

>  <SCORE.INTRA.POLAR.0>
0

>  <SCORE.INTRA.REPUL>
0

>  <SCORE.INTRA.REPUL.0>
0

>  <SCORE.INTRA.SOLV>
0

>  <SCORE.INTRA.SOLV.lig_0>
-4.28464

>  <SCORE.INTRA.VDW>
0

>  <SCORE.INTRA.VDW.0>
0

>  <SCORE.INTRA.norm>
0

>  <SCORE.RESTR>
0

>  <SCORE.RESTR.CAVITY>
0

>  <SCORE.RESTR.norm>
0

>  <SCORE.SYSTEM>
0

>  <SCORE.SYSTEM.CONST>
0

>  <SCORE.SYSTEM.DIHEDRAL>
0

>  <SCORE.SYSTEM.SOLV>
0

>  <SCORE.SYSTEM.norm>
0

>  <SCORE.heavy>
10

>  <SCORE.norm>
-1.75114

>  <RMSD>
2.448

$$$$
ligand
 OpenBabel11021811423D
libRbt.so/2013.1/901 2013/11/27
 10 11  0  0  0  0  0  0  0  0999 V2000
   11.5729    8.7237   29.5159 N   0  0  0  0  0  0  0  0  0  0  0  0
   11.7461    7.5153   28.8635 C   0  0  0  0  0  0  0  0  0  0  0  0
   11.5946    7.3989   27.5387 N   0  0  0  0  0  0  0  0  0  0  0  0
   11.2588    8.5819   26.9294 C   0  0  0  0  0  0  0  0  0  0  0  0
   11.0739    9.8090   27.5237 C   0  0  0  0  0  0  0  0  0  0  0  0
   11.2324    9.9439   28.9309 C   0  0  0  0  0  0  0  0  0  0  0  0
   11.1143   10.9405   29.6549 O   0  0  0  0  0  0  0  0  0  0  0  0
   10.7494   10.7191   26.5517 N   0  0  0  0  0  0  0  0  0  0  0  0
   10.7401   10.0500   25.3830 C   0  0  0  0  0  0  0  0  0  0  0  0
   11.0487    8.7277   25.5811 N   0  0  0  0  0  0  0  0  0  0  0  0
  1  2  1  0  0  0  0
  1  6  1  0  0  0  0
  2  3  2  0  0  0  0
  3  4  1  0  0  0  0
  4  5  2  0  0  0  0
  4 10  1  0  0  0  0
  5  6  1  0  0  0  0
  5  8  1  0  0  0  0
  6  7  2  0  0  0  0
  8  9  1  0  0  0  0
  9 10  2  0  0  0  0
M  END
>  <CHROM.1>
11.21184065,9.27125110,27.68672490,-0.99333453,1.32328215,-2.12411521

>  <Name>
ligand

>  <RI>
0

>  <Rbt.Current_Directory>
/home/itssahil/PROJECTS/Mol_Feturizer/New_Systems/rnas/2EET

>  <Rbt.Executable>
rbdock ($Id: //depot/dev/client3/rdock/2013.1/src/exe/rbdock.cxx#4 $)

>  <Rbt.Library>
libRbt.so (2013.1, Build901 2013/11/27)

>  <Rbt.Parameter_File>
/export/apps/rDock/src/rDock_2013.1_src/data/scripts/dock_solv.prm

>  <Rbt.Receptor>
prm/pocket_docking_3.prm

>  <SCORE>
-17.5108

>  <SCORE.INTER>
-17.5108

>  <SCORE.INTER.CONST>
1

>  <SCORE.INTER.POLAR>
0

>  <SCORE.INTER.ROT>
0

>  <SCORE.INTER.SOLV>
3.8495

>  <SCORE.INTER.VDW>
-16.557

>  <SCORE.INTER.norm>
-1.75108

>  <SCORE.INTRA>
0

>  <SCORE.INTRA.DIHEDRAL>
0

>  <SCORE.INTRA.DIHEDRAL.0>
0

>  <SCORE.INTRA.POLAR>
0

>  <SCORE.INTRA.POLAR.0>
0

>  <SCORE.INTRA.REPUL>
0

>  <SCORE.INTRA.REPUL.0>
0

>  <SCORE.INTRA.SOLV>
0

>  <SCORE.INTRA.SOLV.lig_0>
-4.28464

>  <SCORE.INTRA.VDW>
0

>  <SCORE.INTRA.VDW.0>
0

>  <SCORE.INTRA.norm>
0

>  <SCORE.RESTR>
0

>  <SCORE.RESTR.CAVITY>
0

>  <SCORE.RESTR.norm>
0

>  <SCORE.SYSTEM>
0

>  <SCORE.SYSTEM.CONST>
0

>  <SCORE.SYSTEM.DIHEDRAL>
0

>  <SCORE.SYSTEM.SOLV>
0

>  <SCORE.SYSTEM.norm>
0

>  <SCORE.heavy>
10

>  <SCORE.norm>
-1.75108

>  <RMSD>
2.448

$$$$
ligand
 OpenBabel11021811423D
libRbt.so/2013.1/901 2013/11/27
 10 11  0  0  0  0  0  0  0  0999 V2000
   11.5693    8.7165   29.5125 N   0  0  0  0  0  0  0  0  0  0  0  0
   11.7291    7.5080   28.8570 C   0  0  0  0  0  0  0  0  0  0  0  0
   11.5721    7.3959   27.5324 N   0  0  0  0  0  0  0  0  0  0  0  0
   11.2452    8.5834   26.9269 C   0  0  0  0  0  0  0  0  0  0  0  0
   11.0736    9.8108   27.5244 C   0  0  0  0  0  0  0  0  0  0  0  0
   11.2382    9.9411   28.9314 C   0  0  0  0  0  0  0  0  0  0  0  0
   11.1317   10.9372   29.6580 O   0  0  0  0  0  0  0  0  0  0  0  0
   10.7543   10.7260   26.5555 N   0  0  0  0  0  0  0  0  0  0  0  0
   10.7349   10.0595   25.3854 C   0  0  0  0  0  0  0  0  0  0  0  0
   11.0319    8.7341   25.5796 N   0  0  0  0  0  0  0  0  0  0  0  0
  1  2  1  0  0  0  0
  1  6  1  0  0  0  0
  2  3  2  0  0  0  0
  3  4  1  0  0  0  0
  4  5  2  0  0  0  0
  4 10  1  0  0  0  0
  5  6  1  0  0  0  0
  5  8  1  0  0  0  0
  6  7  2  0  0  0  0
  8  9  1  0  0  0  0
  9 10  2  0  0  0  0
M  END
>  <CHROM.1>
11.20716195,9.27142483,27.68583740,-0.96100116,1.32926366,-2.15329664

>  <Name>
ligand

>  <RI>
0

>  <Rbt.Current_Directory>
/home/itssahil/PROJECTS/Mol_Feturizer/New_Systems/rnas/2EET

>  <Rbt.Executable>
rbdock ($Id: //depot/dev/client3/rdock/2013.1/src/exe/rbdock.cxx#4 $)

>  <Rbt.Library>
libRbt.so (2013.1, Build901 2013/11/27)

>  <Rbt.Parameter_File>
/export/apps/rDock/src/rDock_2013.1_src/data/scripts/dock_solv.prm

>  <Rbt.Receptor>
prm/pocket_docking_4.prm

>  <SCORE>
-17.5085

>  <SCORE.INTER>
-17.5085

>  <SCORE.INTER.CONST>
1

>  <SCORE.INTER.POLAR>
0

>  <SCORE.INTER.ROT>
0

>  <SCORE.INTER.SOLV>
3.85036

>  <SCORE.INTER.VDW>
-16.5558

>  <SCORE.INTER.norm>
-1.75085

>  <SCORE.INTRA>
0

>  <SCORE.INTRA.DIHEDRAL>
0

>  <SCORE.INTRA.DIHEDRAL.0>
0

>  <SCORE.INTRA.POLAR>
0

>  <SCORE.INTRA.POLAR.0>
0

>  <SCORE.INTRA.REPUL>
0

>  <SCORE.INTRA.REPUL.0>
0

>  <SCORE.INTRA.SOLV>
0

>  <SCORE.INTRA.SOLV.lig_0>
-4.28464

>  <SCORE.INTRA.VDW>
0

>  <SCORE.INTRA.VDW.0>
0

>  <SCORE.INTRA.norm>
0

>  <SCORE.RESTR>
0

>  <SCORE.RESTR.CAVITY>
0

>  <SCORE.RESTR.norm>
0

>  <SCORE.SYSTEM>
0

>  <SCORE.SYSTEM.CONST>
0

>  <SCORE.SYSTEM.DIHEDRAL>
0

>  <SCORE.SYSTEM.SOLV>
0

>  <SCORE.SYSTEM.norm>
0

>  <SCORE.heavy>
10

>  <SCORE.norm>
-1.75085

>  <RMSD>
2.448

$$$$
ligand
 OpenBabel11021811423D
libRbt.so/2013.1/901 2013/11/27
 10 11  0  0  0  0  0  0  0  0999 V2000
   11.5707    8.7159   29.5126 N   0  0  0  0  0  0  0  0  0  0  0  0
   11.7346    7.5078   28.8574 C   0  0  0  0  0  0  0  0  0  0  0  0
   11.5795    7.3951   27.5327 N   0  0  0  0  0  0  0  0  0  0  0  0
   11.2499    8.5815   26.9266 C   0  0  0  0  0  0  0  0  0  0  0  0
   11.0742    9.8085   27.5238 C   0  0  0  0  0  0  0  0  0  0  0  0
   11.2368    9.9395   28.9309 C   0  0  0  0  0  0  0  0  0  0  0  0
   11.1268   10.9354   29.6573 O   0  0  0  0  0  0  0  0  0  0  0  0
   10.7534   10.7227   26.5544 N   0  0  0  0  0  0  0  0  0  0  0  0
   10.7372   10.0560   25.3844 C   0  0  0  0  0  0  0  0  0  0  0  0
   11.0376    8.7315   25.5791 N   0  0  0  0  0  0  0  0  0  0  0  0
  1  2  1  0  0  0  0
  1  6  1  0  0  0  0
  2  3  2  0  0  0  0
  3  4  1  0  0  0  0
  4  5  2  0  0  0  0
  4 10  1  0  0  0  0
  5  6  1  0  0  0  0
  5  8  1  0  0  0  0
  6  7  2  0  0  0  0
  8  9  1  0  0  0  0
  9 10  2  0  0  0  0
M  END
>  <CHROM.1>
11.20909698,9.26956491,27.68545272,-0.97124760,1.32752215,-2.14348376

>  <Name>
ligand

>  <RI>
0

>  <Rbt.Current_Directory>
/home/itssahil/PROJECTS/Mol_Feturizer/New_Systems/rnas/2EET

>  <Rbt.Executable>
rbdock ($Id: //depot/dev/client3/rdock/2013.1/src/exe/rbdock.cxx#4 $)

>  <Rbt.Library>
libRbt.so (2013.1, Build901 2013/11/27)

>  <Rbt.Parameter_File>
/export/apps/rDock/src/rDock_2013.1_src/data/scripts/dock_solv.prm

>  <Rbt.Receptor>
prm/pocket_docking_5.prm

>  <SCORE>
-17.5102

>  <SCORE.INTER>
-17.5102

>  <SCORE.INTER.CONST>
1

>  <SCORE.INTER.POLAR>
0

>  <SCORE.INTER.ROT>
0

>  <SCORE.INTER.SOLV>
3.84778

>  <SCORE.INTER.VDW>
-16.5561

>  <SCORE.INTER.norm>
-1.75102

>  <SCORE.INTRA>
0

>  <SCORE.INTRA.DIHEDRAL>
0

>  <SCORE.INTRA.DIHEDRAL.0>
0

>  <SCORE.INTRA.POLAR>
0

>  <SCORE.INTRA.POLAR.0>
0

>  <SCORE.INTRA.REPUL>
0

>  <SCORE.INTRA.REPUL.0>
0

>  <SCORE.INTRA.SOLV>
0

>  <SCORE.INTRA.SOLV.lig_0>
-4.28464

>  <SCORE.INTRA.VDW>
0

>  <SCORE.INTRA.VDW.0>
0

>  <SCORE.INTRA.norm>
0

>  <SCORE.RESTR>
0

>  <SCORE.RESTR.CAVITY>
0

>  <SCORE.RESTR.norm>
0

>  <SCORE.SYSTEM>
0

>  <SCORE.SYSTEM.CONST>
0

>  <SCORE.SYSTEM.DIHEDRAL>
0

>  <SCORE.SYSTEM.SOLV>
0

>  <SCORE.SYSTEM.norm>
0

>  <SCORE.heavy>
10

>  <SCORE.norm>
-1.75102

>  <RMSD>
2.448

$$$$
ligand
 OpenBabel11021811423D
libRbt.so/2013.1/901 2013/11/27
 10 11  0  0  0  0  0  0  0  0999 V2000
   11.5679    8.7183   29.5113 N   0  0  0  0  0  0  0  0  0  0  0  0
   11.7360    7.5100   28.8576 C   0  0  0  0  0  0  0  0  0  0  0  0
   11.5844    7.3958   27.5326 N   0  0  0  0  0  0  0  0  0  0  0  0
   11.2540    8.5811   26.9246 C   0  0  0  0  0  0  0  0  0  0  0  0
   11.0743    9.8083   27.5203 C   0  0  0  0  0  0  0  0  0  0  0  0
   11.2330    9.9407   28.9277 C   0  0  0  0  0  0  0  0  0  0  0  0
   11.1191   10.9370   29.6529 O   0  0  0  0  0  0  0  0  0  0  0  0
   10.7541   10.7209   26.5493 N   0  0  0  0  0  0  0  0  0  0  0  0
   10.7422   10.0533   25.3799 C   0  0  0  0  0  0  0  0  0  0  0  0
   11.0449    8.7295   25.5765 N   0  0  0  0  0  0  0  0  0  0  0  0
  1  2  1  0  0  0  0
  1  6  1  0  0  0  0
  2  3  2  0  0  0  0
  3  4  1  0  0  0  0
  4  5  2  0  0  0  0
  4 10  1  0  0  0  0
  5  6  1  0  0  0  0
  5  8  1  0  0  0  0
  6  7  2  0  0  0  0
  8  9  1  0  0  0  0
  9 10  2  0  0  0  0
M  END
>  <CHROM.1>
11.20983585,9.26969416,27.68275932,-0.98476863,1.32718379,-2.13120847

>  <Name>
ligand

>  <RI>
0

>  <Rbt.Current_Directory>
/home/itssahil/PROJECTS/Mol_Feturizer/New_Systems/rnas/2EET

>  <Rbt.Executable>
rbdock ($Id: //depot/dev/client3/rdock/2013.1/src/exe/rbdock.cxx#4 $)

>  <Rbt.Library>
libRbt.so (2013.1, Build901 2013/11/27)

>  <Rbt.Parameter_File>
/export/apps/rDock/src/rDock_2013.1_src/data/scripts/dock_solv.prm

>  <Rbt.Receptor>
prm/pocket_docking_5.prm

>  <SCORE>
-17.5123

>  <SCORE.INTER>
-17.5123

>  <SCORE.INTER.CONST>
1

>  <SCORE.INTER.POLAR>
0

>  <SCORE.INTER.ROT>
0

>  <SCORE.INTER.SOLV>
3.84944

>  <SCORE.INTER.VDW>
-16.558

>  <SCORE.INTER.norm>
-1.75123

>  <SCORE.INTRA>
0

>  <SCORE.INTRA.DIHEDRAL>
0

>  <SCORE.INTRA.DIHEDRAL.0>
0

>  <SCORE.INTRA.POLAR>
0

>  <SCORE.INTRA.POLAR.0>
0

>  <SCORE.INTRA.REPUL>
0

>  <SCORE.INTRA.REPUL.0>
0

>  <SCORE.INTRA.SOLV>
0

>  <SCORE.INTRA.SOLV.lig_0>
-4.28464

>  <SCORE.INTRA.VDW>
0

>  <SCORE.INTRA.VDW.0>
0

>  <SCORE.INTRA.norm>
0

>  <SCORE.RESTR>
0

>  <SCORE.RESTR.CAVITY>
0

>  <SCORE.RESTR.norm>
0

>  <SCORE.SYSTEM>
0

>  <SCORE.SYSTEM.CONST>
0

>  <SCORE.SYSTEM.DIHEDRAL>
0

>  <SCORE.SYSTEM.SOLV>
0

>  <SCORE.SYSTEM.norm>
0

>  <SCORE.heavy>
10

>  <SCORE.norm>
-1.75123

>  <RMSD>
2.448

$$$$
ligand
 OpenBabel11021811423D
libRbt.so/2013.1/901 2013/11/27
 10 11  0  0  0  0  0  0  0  0999 V2000
   11.5685    8.7171   29.5145 N   0  0  0  0  0  0  0  0  0  0  0  0
   11.7408    7.5095   28.8606 C   0  0  0  0  0  0  0  0  0  0  0  0
   11.5908    7.3953   27.5353 N   0  0  0  0  0  0  0  0  0  0  0  0
   11.2574    8.5797   26.9275 C   0  0  0  0  0  0  0  0  0  0  0  0
   11.0734    9.8062   27.5234 C   0  0  0  0  0  0  0  0  0  0  0  0
   11.2304    9.9387   28.9310 C   0  0  0  0  0  0  0  0  0  0  0  0
   11.1128   10.9344   29.6564 O   0  0  0  0  0  0  0  0  0  0  0  0
   10.7514   10.7182   26.5524 N   0  0  0  0  0  0  0  0  0  0  0  0
   10.7426   10.0509   25.3827 C   0  0  0  0  0  0  0  0  0  0  0  0
   11.0491    8.7279   25.5792 N   0  0  0  0  0  0  0  0  0  0  0  0
  1  2  1  0  0  0  0
  1  6  1  0  0  0  0
  2  3  2  0  0  0  0
  3  4  1  0  0  0  0
  4  5  2  0  0  0  0
  4 10  1  0  0  0  0
  5  6  1  0  0  0  0
  5  8  1  0  0  0  0
  6  7  2  0  0  0  0
  8  9  1  0  0  0  0
  9 10  2  0  0  0  0
M  END
>  <CHROM.1>
11.21042915,9.26796747,27.68578675,-0.99458446,1.32510080,-2.12136613

>  <Name>
ligand

>  <RI>
0

>  <Rbt.Current_Directory>
/home/itssahil/PROJECTS/Mol_Feturizer/New_Systems/rnas/2EET

>  <Rbt.Executable>
rbdock ($Id: //depot/dev/client3/rdock/2013.1/src/exe/rbdock.cxx#4 $)

>  <Rbt.Library>
libRbt.so (2013.1, Build901 2013/11/27)

>  <Rbt.Parameter_File>
/export/apps/rDock/src/rDock_2013.1_src/data/scripts/dock_solv.prm

>  <Rbt.Receptor>
prm/pocket_docking_5.prm

>  <SCORE>
-17.5096

>  <SCORE.INTER>
-17.5096

>  <SCORE.INTER.CONST>
1

>  <SCORE.INTER.POLAR>
0

>  <SCORE.INTER.ROT>
0

>  <SCORE.INTER.SOLV>
3.84745

>  <SCORE.INTER.VDW>
-16.5555

>  <SCORE.INTER.norm>
-1.75096

>  <SCORE.INTRA>
0

>  <SCORE.INTRA.DIHEDRAL>
0

>  <SCORE.INTRA.DIHEDRAL.0>
0

>  <SCORE.INTRA.POLAR>
0

>  <SCORE.INTRA.POLAR.0>
0

>  <SCORE.INTRA.REPUL>
0

>  <SCORE.INTRA.REPUL.0>
0

>  <SCORE.INTRA.SOLV>
0

>  <SCORE.INTRA.SOLV.lig_0>
-4.28464

>  <SCORE.INTRA.VDW>
0

>  <SCORE.INTRA.VDW.0>
0

>  <SCORE.INTRA.norm>
0

>  <SCORE.RESTR>
0

>  <SCORE.RESTR.CAVITY>
0

>  <SCORE.RESTR.norm>
0

>  <SCORE.SYSTEM>
0

>  <SCORE.SYSTEM.CONST>
0

>  <SCORE.SYSTEM.DIHEDRAL>
0

>  <SCORE.SYSTEM.SOLV>
0

>  <SCORE.SYSTEM.norm>
0

>  <SCORE.heavy>
10

>  <SCORE.norm>
-1.75096

>  <RMSD>
2.448

$$$$
ligand
 OpenBabel11021811423D
libRbt.so/2013.1/901 2013/11/27
 10 11  0  0  0  0  0  0  0  0999 V2000
   11.5549    8.7039   29.5479 N   0  0  0  0  0  0  0  0  0  0  0  0
   11.7773    7.5072   28.8890 C   0  0  0  0  0  0  0  0  0  0  0  0
   11.6436    7.3952   27.5619 N   0  0  0  0  0  0  0  0  0  0  0  0
   11.2723    8.5700   26.9574 C   0  0  0  0  0  0  0  0  0  0  0  0
   11.0380    9.7855   27.5582 C   0  0  0  0  0  0  0  0  0  0  0  0
   11.1774    9.9156   28.9678 C   0  0  0  0  0  0  0  0  0  0  0  0
   11.0167   10.9021   29.6975 O   0  0  0  0  0  0  0  0  0  0  0  0
   10.6914   10.6906   26.5892 N   0  0  0  0  0  0  0  0  0  0  0  0
   10.7177   10.0301   25.4159 C   0  0  0  0  0  0  0  0  0  0  0  0
   11.0709    8.7182   25.6080 N   0  0  0  0  0  0  0  0  0  0  0  0
  1  2  1  0  0  0  0
  1  6  1  0  0  0  0
  2  3  2  0  0  0  0
  3  4  1  0  0  0  0
  4  5  2  0  0  0  0
  4 10  1  0  0  0  0
  5  6  1  0  0  0  0
  5  8  1  0  0  0  0
  6  7  2  0  0  0  0
  8  9  1  0  0  0  0
  9 10  2  0  0  0  0
M  END
>  <CHROM.1>
11.19327590,9.25174142,27.71892669,-1.09435676,1.29716621,-2.01935939

>  <Name>
ligand

>  <RI>
0

>  <Rbt.Current_Directory>
/home/itssahil/PROJECTS/Mol_Feturizer/New_Systems/rnas/2EET

>  <Rbt.Executable>
rbdock ($Id: //depot/dev/client3/rdock/2013.1/src/exe/rbdock.cxx#4 $)

>  <Rbt.Library>
libRbt.so (2013.1, Build901 2013/11/27)

>  <Rbt.Parameter_File>
/export/apps/rDock/src/rDock_2013.1_src/data/scripts/dock_solv.prm

>  <Rbt.Receptor>
prm/pocket_docking_6.prm

>  <SCORE>
-17.4879

>  <SCORE.INTER>
-17.4879

>  <SCORE.INTER.CONST>
1

>  <SCORE.INTER.POLAR>
0

>  <SCORE.INTER.ROT>
0

>  <SCORE.INTER.SOLV>
3.87442

>  <SCORE.INTER.VDW>
-16.5501

>  <SCORE.INTER.norm>
-1.74879

>  <SCORE.INTRA>
0

>  <SCORE.INTRA.DIHEDRAL>
0

>  <SCORE.INTRA.DIHEDRAL.0>
0

>  <SCORE.INTRA.POLAR>
0

>  <SCORE.INTRA.POLAR.0>
0

>  <SCORE.INTRA.REPUL>
0

>  <SCORE.INTRA.REPUL.0>
0

>  <SCORE.INTRA.SOLV>
0

>  <SCORE.INTRA.SOLV.lig_0>
-4.28464

>  <SCORE.INTRA.VDW>
0

>  <SCORE.INTRA.VDW.0>
0

>  <SCORE.INTRA.norm>
0

>  <SCORE.RESTR>
0

>  <SCORE.RESTR.CAVITY>
0

>  <SCORE.RESTR.norm>
0

>  <SCORE.SYSTEM>
0

>  <SCORE.SYSTEM.CONST>
0

>  <SCORE.SYSTEM.DIHEDRAL>
0

>  <SCORE.SYSTEM.SOLV>
0

>  <SCORE.SYSTEM.norm>
0

>  <SCORE.heavy>
10

>  <SCORE.norm>
-1.74879

>  <RMSD>
2.448

$$$$
ligand
 OpenBabel11021811423D
libRbt.so/2013.1/901 2013/11/27
 10 11  0  0  0  0  0  0  0  0999 V2000
   11.5682    8.7204   29.5121 N   0  0  0  0  0  0  0  0  0  0  0  0
   11.7381    7.5121   28.8588 C   0  0  0  0  0  0  0  0  0  0  0  0
   11.5866    7.3973   27.5338 N   0  0  0  0  0  0  0  0  0  0  0  0
   11.2542    8.5818   26.9255 C   0  0  0  0  0  0  0  0  0  0  0  0
   11.0726    9.8089   27.5208 C   0  0  0  0  0  0  0  0  0  0  0  0
   11.2313    9.9421   28.9282 C   0  0  0  0  0  0  0  0  0  0  0  0
   11.1158   10.9385   29.6531 O   0  0  0  0  0  0  0  0  0  0  0  0
   10.7508   10.7208   26.5496 N   0  0  0  0  0  0  0  0  0  0  0  0
   10.7399   10.0527   25.3803 C   0  0  0  0  0  0  0  0  0  0  0  0
   11.0447    8.7295   25.5773 N   0  0  0  0  0  0  0  0  0  0  0  0
  1  2  1  0  0  0  0
  1  6  1  0  0  0  0
  2  3  2  0  0  0  0
  3  4  1  0  0  0  0
  4  5  2  0  0  0  0
  4 10  1  0  0  0  0
  5  6  1  0  0  0  0
  5  8  1  0  0  0  0
  6  7  2  0  0  0  0
  8  9  1  0  0  0  0
  9 10  2  0  0  0  0
M  END
>  <CHROM.1>
11.20900742,9.27064778,27.68343531,-0.98786913,1.32576622,-2.12853149

>  <Name>
ligand

>  <RI>
0

>  <Rbt.Current_Directory>
/home/itssahil/PROJECTS/Mol_Feturizer/New_Systems/rnas/2EET

>  <Rbt.Executable>
rbdock ($Id: //depot/dev/client3/rdock/2013.1/src/exe/rbdock.cxx#4 $)

>  <Rbt.Library>
libRbt.so (2013.1, Build901 2013/11/27)

>  <Rbt.Parameter_File>
/export/apps/rDock/src/rDock_2013.1_src/data/scripts/dock_solv.prm

>  <Rbt.Receptor>
prm/pocket_docking_6.prm

>  <SCORE>
-17.5126

>  <SCORE.INTER>
-17.5126

>  <SCORE.INTER.CONST>
1

>  <SCORE.INTER.POLAR>
0

>  <SCORE.INTER.ROT>
0

>  <SCORE.INTER.SOLV>
3.85002

>  <SCORE.INTER.VDW>
-16.5584

>  <SCORE.INTER.norm>
-1.75126

>  <SCORE.INTRA>
0

>  <SCORE.INTRA.DIHEDRAL>
0

>  <SCORE.INTRA.DIHEDRAL.0>
0

>  <SCORE.INTRA.POLAR>
0

>  <SCORE.INTRA.POLAR.0>
0

>  <SCORE.INTRA.REPUL>
0

>  <SCORE.INTRA.REPUL.0>
0

>  <SCORE.INTRA.SOLV>
0

>  <SCORE.INTRA.SOLV.lig_0>
-4.28464

>  <SCORE.INTRA.VDW>
0

>  <SCORE.INTRA.VDW.0>
0

>  <SCORE.INTRA.norm>
0

>  <SCORE.RESTR>
0

>  <SCORE.RESTR.CAVITY>
0

>  <SCORE.RESTR.norm>
0

>  <SCORE.SYSTEM>
0

>  <SCORE.SYSTEM.CONST>
0

>  <SCORE.SYSTEM.DIHEDRAL>
0

>  <SCORE.SYSTEM.SOLV>
0

>  <SCORE.SYSTEM.norm>
0

>  <SCORE.heavy>
10

>  <SCORE.norm>
-1.75126

>  <RMSD>
2.448

$$$$
ligand
 OpenBabel11021811423D
libRbt.so/2013.1/901 2013/11/27
 10 11  0  0  0  0  0  0  0  0999 V2000
   11.5715    8.7167   29.5118 N   0  0  0  0  0  0  0  0  0  0  0  0
   11.7408    7.5092   28.8568 C   0  0  0  0  0  0  0  0  0  0  0  0
   11.5862    7.3957   27.5321 N   0  0  0  0  0  0  0  0  0  0  0  0
   11.2514    8.5805   26.9258 C   0  0  0  0  0  0  0  0  0  0  0  0
   11.0702    9.8068   27.5228 C   0  0  0  0  0  0  0  0  0  0  0  0
   11.2321    9.9387   28.9299 C   0  0  0  0  0  0  0  0  0  0  0  0
   11.1176   10.9342   29.6561 O   0  0  0  0  0  0  0  0  0  0  0  0
   10.7454   10.7194   26.5532 N   0  0  0  0  0  0  0  0  0  0  0  0
   10.7321   10.0525   25.3834 C   0  0  0  0  0  0  0  0  0  0  0  0
   11.0385    8.7293   25.5783 N   0  0  0  0  0  0  0  0  0  0  0  0
  1  2  1  0  0  0  0
  1  6  1  0  0  0  0
  2  3  2  0  0  0  0
  3  4  1  0  0  0  0
  4  5  2  0  0  0  0
  4 10  1  0  0  0  0
  5  6  1  0  0  0  0
  5  8  1  0  0  0  0
  6  7  2  0  0  0  0
  8  9  1  0  0  0  0
  9 10  2  0  0  0  0
M  END
>  <CHROM.1>
11.20744860,9.26849116,27.68453217,-0.98132201,1.32379003,-2.13386685

>  <Name>
ligand

>  <RI>
0

>  <Rbt.Current_Directory>
/home/itssahil/PROJECTS/Mol_Feturizer/New_Systems/rnas/2EET

>  <Rbt.Executable>
rbdock ($Id: //depot/dev/client3/rdock/2013.1/src/exe/rbdock.cxx#4 $)

>  <Rbt.Library>
libRbt.so (2013.1, Build901 2013/11/27)

>  <Rbt.Parameter_File>
/export/apps/rDock/src/rDock_2013.1_src/data/scripts/dock_solv.prm

>  <Rbt.Receptor>
prm/pocket_docking_7.prm

>  <SCORE>
-17.5104

>  <SCORE.INTER>
-17.5104

>  <SCORE.INTER.CONST>
1

>  <SCORE.INTER.POLAR>
0

>  <SCORE.INTER.ROT>
0

>  <SCORE.INTER.SOLV>
3.84554

>  <SCORE.INTER.VDW>
-16.5554

>  <SCORE.INTER.norm>
-1.75104

>  <SCORE.INTRA>
0

>  <SCORE.INTRA.DIHEDRAL>
0

>  <SCORE.INTRA.DIHEDRAL.0>
0

>  <SCORE.INTRA.POLAR>
0

>  <SCORE.INTRA.POLAR.0>
0

>  <SCORE.INTRA.REPUL>
0

>  <SCORE.INTRA.REPUL.0>
0

>  <SCORE.INTRA.SOLV>
0

>  <SCORE.INTRA.SOLV.lig_0>
-4.28464

>  <SCORE.INTRA.VDW>
0

>  <SCORE.INTRA.VDW.0>
0

>  <SCORE.INTRA.norm>
0

>  <SCORE.RESTR>
0

>  <SCORE.RESTR.CAVITY>
0

>  <SCORE.RESTR.norm>
0

>  <SCORE.SYSTEM>
0

>  <SCORE.SYSTEM.CONST>
0

>  <SCORE.SYSTEM.DIHEDRAL>
0

>  <SCORE.SYSTEM.SOLV>
0

>  <SCORE.SYSTEM.norm>
0

>  <SCORE.heavy>
10

>  <SCORE.norm>
-1.75104

>  <RMSD>
2.448

$$$$
ligand
 OpenBabel11021811423D
libRbt.so/2013.1/901 2013/11/27
 10 11  0  0  0  0  0  0  0  0999 V2000
   11.5746    8.7136   29.5119 N   0  0  0  0  0  0  0  0  0  0  0  0
   11.7383    7.5054   28.8568 C   0  0  0  0  0  0  0  0  0  0  0  0
   11.5835    7.3928   27.5320 N   0  0  0  0  0  0  0  0  0  0  0  0
   11.2547    8.5794   26.9258 C   0  0  0  0  0  0  0  0  0  0  0  0
   11.0793    9.8065   27.5230 C   0  0  0  0  0  0  0  0  0  0  0  0
   11.2414    9.9374   28.9301 C   0  0  0  0  0  0  0  0  0  0  0  0
   11.1315   10.9333   29.6564 O   0  0  0  0  0  0  0  0  0  0  0  0
   10.7592   10.7208   26.5535 N   0  0  0  0  0  0  0  0  0  0  0  0
   10.7431   10.0541   25.3834 C   0  0  0  0  0  0  0  0  0  0  0  0
   11.0430    8.7294   25.5782 N   0  0  0  0  0  0  0  0  0  0  0  0
  1  2  1  0  0  0  0
  1  6  1  0  0  0  0
  2  3  2  0  0  0  0
  3  4  1  0  0  0  0
  4  5  2  0  0  0  0
  4 10  1  0  0  0  0
  5  6  1  0  0  0  0
  5  8  1  0  0  0  0
  6  7  2  0  0  0  0
  8  9  1  0  0  0  0
  9 10  2  0  0  0  0
M  END
>  <CHROM.1>
11.21384931,9.26744567,27.68463603,-0.97165154,1.32805245,-2.14307539

>  <Name>
ligand

>  <RI>
0

>  <Rbt.Current_Directory>
/home/itssahil/PROJECTS/Mol_Feturizer/New_Systems/rnas/2EET

>  <Rbt.Executable>
rbdock ($Id: //depot/dev/client3/rdock/2013.1/src/exe/rbdock.cxx#4 $)

>  <Rbt.Library>
libRbt.so (2013.1, Build901 2013/11/27)

>  <Rbt.Parameter_File>
/export/apps/rDock/src/rDock_2013.1_src/data/scripts/dock_solv.prm

>  <Rbt.Receptor>
prm/pocket_docking_7.prm

>  <SCORE>
-17.5106

>  <SCORE.INTER>
-17.5106

>  <SCORE.INTER.CONST>
1

>  <SCORE.INTER.POLAR>
0

>  <SCORE.INTER.ROT>
0

>  <SCORE.INTER.SOLV>
3.84456

>  <SCORE.INTER.VDW>
-16.5553

>  <SCORE.INTER.norm>
-1.75106

>  <SCORE.INTRA>
0

>  <SCORE.INTRA.DIHEDRAL>
0

>  <SCORE.INTRA.DIHEDRAL.0>
0

>  <SCORE.INTRA.POLAR>
0

>  <SCORE.INTRA.POLAR.0>
0

>  <SCORE.INTRA.REPUL>
0

>  <SCORE.INTRA.REPUL.0>
0

>  <SCORE.INTRA.SOLV>
0

>  <SCORE.INTRA.SOLV.lig_0>
-4.28464

>  <SCORE.INTRA.VDW>
0

>  <SCORE.INTRA.VDW.0>
0

>  <SCORE.INTRA.norm>
0

>  <SCORE.RESTR>
0

>  <SCORE.RESTR.CAVITY>
0

>  <SCORE.RESTR.norm>
0

>  <SCORE.SYSTEM>
0

>  <SCORE.SYSTEM.CONST>
0

>  <SCORE.SYSTEM.DIHEDRAL>
0

>  <SCORE.SYSTEM.SOLV>
0

>  <SCORE.SYSTEM.norm>
0

>  <SCORE.heavy>
10

>  <SCORE.norm>
-1.75106

>  <RMSD>
2.448

$$$$
ligand
 OpenBabel11021811423D
libRbt.so/2013.1/901 2013/11/27
 10 11  0  0  0  0  0  0  0  0999 V2000
   11.5690    8.7171   29.5122 N   0  0  0  0  0  0  0  0  0  0  0  0
   11.7315    7.5080   28.8584 C   0  0  0  0  0  0  0  0  0  0  0  0
   11.5785    7.3944   27.5335 N   0  0  0  0  0  0  0  0  0  0  0  0
   11.2526    8.5810   26.9257 C   0  0  0  0  0  0  0  0  0  0  0  0
   11.0784    9.8089   27.5215 C   0  0  0  0  0  0  0  0  0  0  0  0
   11.2388    9.9408   28.9287 C   0  0  0  0  0  0  0  0  0  0  0  0
   11.1295   10.9376   29.6539 O   0  0  0  0  0  0  0  0  0  0  0  0
   10.7613   10.7228   26.5506 N   0  0  0  0  0  0  0  0  0  0  0  0
   10.7458   10.0551   25.3812 C   0  0  0  0  0  0  0  0  0  0  0  0
   11.0431    8.7301   25.5777 N   0  0  0  0  0  0  0  0  0  0  0  0
  1  2  1  0  0  0  0
  1  6  1  0  0  0  0
  2  3  2  0  0  0  0
  3  4  1  0  0  0  0
  4  5  2  0  0  0  0
  4 10  1  0  0  0  0
  5  6  1  0  0  0  0
  5  8  1  0  0  0  0
  6  7  2  0  0  0  0
  8  9  1  0  0  0  0
  9 10  2  0  0  0  0
M  END
>  <CHROM.1>
11.21185089,9.26980626,27.68382638,-0.97280518,1.33029441,-2.14289981

>  <Name>
ligand

>  <RI>
0

>  <Rbt.Current_Directory>
/home/itssahil/PROJECTS/Mol_Feturizer/New_Systems/rnas/2EET

>  <Rbt.Executable>
rbdock ($Id: //depot/dev/client3/rdock/2013.1/src/exe/rbdock.cxx#4 $)

>  <Rbt.Library>
libRbt.so (2013.1, Build901 2013/11/27)

>  <Rbt.Parameter_File>
/export/apps/rDock/src/rDock_2013.1_src/data/scripts/dock_solv.prm

>  <Rbt.Receptor>
prm/pocket_docking_7.prm

>  <SCORE>
-17.5109

>  <SCORE.INTER>
-17.5109

>  <SCORE.INTER.CONST>
1

>  <SCORE.INTER.POLAR>
0

>  <SCORE.INTER.ROT>
0

>  <SCORE.INTER.SOLV>
3.85066

>  <SCORE.INTER.VDW>
-16.5575

>  <SCORE.INTER.norm>
-1.75109

>  <SCORE.INTRA>
0

>  <SCORE.INTRA.DIHEDRAL>
0

>  <SCORE.INTRA.DIHEDRAL.0>
0

>  <SCORE.INTRA.POLAR>
0

>  <SCORE.INTRA.POLAR.0>
0

>  <SCORE.INTRA.REPUL>
0

>  <SCORE.INTRA.REPUL.0>
0

>  <SCORE.INTRA.SOLV>
0

>  <SCORE.INTRA.SOLV.lig_0>
-4.28464

>  <SCORE.INTRA.VDW>
0

>  <SCORE.INTRA.VDW.0>
0

>  <SCORE.INTRA.norm>
0

>  <SCORE.RESTR>
0

>  <SCORE.RESTR.CAVITY>
0

>  <SCORE.RESTR.norm>
0

>  <SCORE.SYSTEM>
0

>  <SCORE.SYSTEM.CONST>
0

>  <SCORE.SYSTEM.DIHEDRAL>
0

>  <SCORE.SYSTEM.SOLV>
0

>  <SCORE.SYSTEM.norm>
0

>  <SCORE.heavy>
10

>  <SCORE.norm>
-1.75109

>  <RMSD>
2.448

$$$$
ligand
 OpenBabel11021811423D
libRbt.so/2013.1/901 2013/11/27
 10 11  0  0  0  0  0  0  0  0999 V2000
   11.6019    8.6664   29.5095 N   0  0  0  0  0  0  0  0  0  0  0  0
   11.7820    7.4674   28.8420 C   0  0  0  0  0  0  0  0  0  0  0  0
   11.6136    7.3630   27.5182 N   0  0  0  0  0  0  0  0  0  0  0  0
   11.2537    8.5478   26.9263 C   0  0  0  0  0  0  0  0  0  0  0  0
   11.0609    9.7660   27.5362 C   0  0  0  0  0  0  0  0  0  0  0  0
   11.2372    9.8881   28.9424 C   0  0  0  0  0  0  0  0  0  0  0  0
   11.1161   10.8753   29.6787 O   0  0  0  0  0  0  0  0  0  0  0  0
   10.7109   10.6818   26.5786 N   0  0  0  0  0  0  0  0  0  0  0  0
   10.6941   10.0250   25.4031 C   0  0  0  0  0  0  0  0  0  0  0  0
   11.0229    8.7050   25.5827 N   0  0  0  0  0  0  0  0  0  0  0  0
  1  2  1  0  0  0  0
  1  6  1  0  0  0  0
  2  3  2  0  0  0  0
  3  4  1  0  0  0  0
  4  5  2  0  0  0  0
  4 10  1  0  0  0  0
  5  6  1  0  0  0  0
  5  8  1  0  0  0  0
  6  7  2  0  0  0  0
  8  9  1  0  0  0  0
  9 10  2  0  0  0  0
M  END
>  <CHROM.1>
11.20821079,9.22838329,27.69155735,-0.97468792,1.30464906,-2.13149435

>  <Name>
ligand

>  <RI>
0

>  <Rbt.Current_Directory>
/home/itssahil/PROJECTS/Mol_Feturizer/New_Systems/rnas/2EET

>  <Rbt.Executable>
rbdock ($Id: //depot/dev/client3/rdock/2013.1/src/exe/rbdock.cxx#4 $)

>  <Rbt.Library>
libRbt.so (2013.1, Build901 2013/11/27)

>  <Rbt.Parameter_File>
/export/apps/rDock/src/rDock_2013.1_src/data/scripts/dock_solv.prm

>  <Rbt.Receptor>
prm/pocket_docking_7.prm

>  <SCORE>
-17.4859

>  <SCORE.INTER>
-17.4859

>  <SCORE.INTER.CONST>
1

>  <SCORE.INTER.POLAR>
0

>  <SCORE.INTER.ROT>
0

>  <SCORE.INTER.SOLV>
3.80513

>  <SCORE.INTER.VDW>
-16.5257

>  <SCORE.INTER.norm>
-1.74859

>  <SCORE.INTRA>
0

>  <SCORE.INTRA.DIHEDRAL>
0

>  <SCORE.INTRA.DIHEDRAL.0>
0

>  <SCORE.INTRA.POLAR>
0

>  <SCORE.INTRA.POLAR.0>
0

>  <SCORE.INTRA.REPUL>
0

>  <SCORE.INTRA.REPUL.0>
0

>  <SCORE.INTRA.SOLV>
0

>  <SCORE.INTRA.SOLV.lig_0>
-4.28464

>  <SCORE.INTRA.VDW>
0

>  <SCORE.INTRA.VDW.0>
0

>  <SCORE.INTRA.norm>
0

>  <SCORE.RESTR>
0

>  <SCORE.RESTR.CAVITY>
0

>  <SCORE.RESTR.norm>
0

>  <SCORE.SYSTEM>
0

>  <SCORE.SYSTEM.CONST>
0

>  <SCORE.SYSTEM.DIHEDRAL>
0

>  <SCORE.SYSTEM.SOLV>
0

>  <SCORE.SYSTEM.norm>
0

>  <SCORE.heavy>
10

>  <SCORE.norm>
-1.74859

>  <RMSD>
2.448

$$$$
ligand
 OpenBabel11021811423D
libRbt.so/2013.1/901 2013/11/27
 10 11  0  0  0  0  0  0  0  0999 V2000
   11.5693    8.7223   29.5143 N   0  0  0  0  0  0  0  0  0  0  0  0
   11.7381    7.5136   28.8614 C   0  0  0  0  0  0  0  0  0  0  0  0
   11.5855    7.3982   27.5366 N   0  0  0  0  0  0  0  0  0  0  0  0
   11.2532    8.5826   26.9280 C   0  0  0  0  0  0  0  0  0  0  0  0
   11.0727    9.8100   27.5229 C   0  0  0  0  0  0  0  0  0  0  0  0
   11.2325    9.9439   28.9300 C   0  0  0  0  0  0  0  0  0  0  0  0
   11.1182   10.9406   29.6545 O   0  0  0  0  0  0  0  0  0  0  0  0
   10.7506   10.7216   26.5514 N   0  0  0  0  0  0  0  0  0  0  0  0
   10.7384   10.0529   25.3825 C   0  0  0  0  0  0  0  0  0  0  0  0
   11.0427    8.7296   25.5799 N   0  0  0  0  0  0  0  0  0  0  0  0
  1  2  1  0  0  0  0
  1  6  1  0  0  0  0
  2  3  2  0  0  0  0
  3  4  1  0  0  0  0
  4  5  2  0  0  0  0
  4 10  1  0  0  0  0
  5  6  1  0  0  0  0
  5  8  1  0  0  0  0
  6  7  2  0  0  0  0
  8  9  1  0  0  0  0
  9 10  2  0  0  0  0
M  END
>  <CHROM.1>
11.20897030,9.27176073,27.68561559,-0.98403906,1.32575500,-2.13274224

>  <Name>
ligand

>  <RI>
0

>  <Rbt.Current_Directory>
/home/itssahil/PROJECTS/Mol_Feturizer/New_Systems/rnas/2EET

>  <Rbt.Executable>
rbdock ($Id: //depot/dev/client3/rdock/2013.1/src/exe/rbdock.cxx#4 $)

>  <Rbt.Library>
libRbt.so (2013.1, Build901 2013/11/27)

>  <Rbt.Parameter_File>
/export/apps/rDock/src/rDock_2013.1_src/data/scripts/dock_solv.prm

>  <Rbt.Receptor>
prm/pocket_docking_8.prm

>  <SCORE>
-17.5118

>  <SCORE.INTER>
-17.5118

>  <SCORE.INTER.CONST>
1

>  <SCORE.INTER.POLAR>
0

>  <SCORE.INTER.ROT>
0

>  <SCORE.INTER.SOLV>
3.85136

>  <SCORE.INTER.VDW>
-16.5583

>  <SCORE.INTER.norm>
-1.75118

>  <SCORE.INTRA>
0

>  <SCORE.INTRA.DIHEDRAL>
0

>  <SCORE.INTRA.DIHEDRAL.0>
0

>  <SCORE.INTRA.POLAR>
0

>  <SCORE.INTRA.POLAR.0>
0

>  <SCORE.INTRA.REPUL>
0

>  <SCORE.INTRA.REPUL.0>
0

>  <SCORE.INTRA.SOLV>
0

>  <SCORE.INTRA.SOLV.lig_0>
-4.28464

>  <SCORE.INTRA.VDW>
0

>  <SCORE.INTRA.VDW.0>
0

>  <SCORE.INTRA.norm>
0

>  <SCORE.RESTR>
0

>  <SCORE.RESTR.CAVITY>
0

>  <SCORE.RESTR.norm>
0

>  <SCORE.SYSTEM>
0

>  <SCORE.SYSTEM.CONST>
0

>  <SCORE.SYSTEM.DIHEDRAL>
0

>  <SCORE.SYSTEM.SOLV>
0

>  <SCORE.SYSTEM.norm>
0

>  <SCORE.heavy>
10

>  <SCORE.norm>
-1.75118

>  <RMSD>
2.448

$$$$
ligand
 OpenBabel11021811423D
libRbt.so/2013.1/901 2013/11/27
 10 11  0  0  0  0  0  0  0  0999 V2000
   11.5652    8.7240   29.5161 N   0  0  0  0  0  0  0  0  0  0  0  0
   11.7373    7.5158   28.8632 C   0  0  0  0  0  0  0  0  0  0  0  0
   11.5855    7.4001   27.5384 N   0  0  0  0  0  0  0  0  0  0  0  0
   11.2505    8.5837   26.9297 C   0  0  0  0  0  0  0  0  0  0  0  0
   11.0667    9.8107   27.5246 C   0  0  0  0  0  0  0  0  0  0  0  0
   11.2256    9.9448   28.9318 C   0  0  0  0  0  0  0  0  0  0  0  0
   11.1085   10.9412   29.6563 O   0  0  0  0  0  0  0  0  0  0  0  0
   10.7428   10.7215   26.5531 N   0  0  0  0  0  0  0  0  0  0  0  0
   10.7327   10.0529   25.3841 C   0  0  0  0  0  0  0  0  0  0  0  0
   11.0402    8.7304   25.5815 N   0  0  0  0  0  0  0  0  0  0  0  0
  1  2  1  0  0  0  0
  1  6  1  0  0  0  0
  2  3  2  0  0  0  0
  3  4  1  0  0  0  0
  4  5  2  0  0  0  0
  4 10  1  0  0  0  0
  5  6  1  0  0  0  0
  5  8  1  0  0  0  0
  6  7  2  0  0  0  0
  8  9  1  0  0  0  0
  9 10  2  0  0  0  0
M  END
>  <CHROM.1>
11.20426763,9.27275489,27.68734938,-0.99089747,1.32387182,-2.12600272

>  <Name>
ligand

>  <RI>
0

>  <Rbt.Current_Directory>
/home/itssahil/PROJECTS/Mol_Feturizer/New_Systems/rnas/2EET

>  <Rbt.Executable>
rbdock ($Id: //depot/dev/client3/rdock/2013.1/src/exe/rbdock.cxx#4 $)

>  <Rbt.Library>
libRbt.so (2013.1, Build901 2013/11/27)

>  <Rbt.Parameter_File>
/export/apps/rDock/src/rDock_2013.1_src/data/scripts/dock_solv.prm

>  <Rbt.Receptor>
prm/pocket_docking_8.prm

>  <SCORE>
-17.509

>  <SCORE.INTER>
-17.509

>  <SCORE.INTER.CONST>
1

>  <SCORE.INTER.POLAR>
0

>  <SCORE.INTER.ROT>
0

>  <SCORE.INTER.SOLV>
3.85511

>  <SCORE.INTER.VDW>
-16.5577

>  <SCORE.INTER.norm>
-1.7509

>  <SCORE.INTRA>
0

>  <SCORE.INTRA.DIHEDRAL>
0

>  <SCORE.INTRA.DIHEDRAL.0>
0

>  <SCORE.INTRA.POLAR>
0

>  <SCORE.INTRA.POLAR.0>
0

>  <SCORE.INTRA.REPUL>
0

>  <SCORE.INTRA.REPUL.0>
0

>  <SCORE.INTRA.SOLV>
0

>  <SCORE.INTRA.SOLV.lig_0>
-4.28464

>  <SCORE.INTRA.VDW>
0

>  <SCORE.INTRA.VDW.0>
0

>  <SCORE.INTRA.norm>
0

>  <SCORE.RESTR>
0

>  <SCORE.RESTR.CAVITY>
0

>  <SCORE.RESTR.norm>
0

>  <SCORE.SYSTEM>
0

>  <SCORE.SYSTEM.CONST>
0

>  <SCORE.SYSTEM.DIHEDRAL>
0

>  <SCORE.SYSTEM.SOLV>
0

>  <SCORE.SYSTEM.norm>
0

>  <SCORE.heavy>
10

>  <SCORE.norm>
-1.7509

>  <RMSD>
2.448

$$$$
ligand
 OpenBabel11021811423D
libRbt.so/2013.1/901 2013/11/27
 10 11  0  0  0  0  0  0  0  0999 V2000
   11.5579    8.7220   29.5208 N   0  0  0  0  0  0  0  0  0  0  0  0
   11.7387    7.5158   28.8665 C   0  0  0  0  0  0  0  0  0  0  0  0
   11.5900    7.4010   27.5412 N   0  0  0  0  0  0  0  0  0  0  0  0
   11.2485    8.5833   26.9336 C   0  0  0  0  0  0  0  0  0  0  0  0
   11.0559    9.8083   27.5298 C   0  0  0  0  0  0  0  0  0  0  0  0
   11.2116    9.9414   28.9375 C   0  0  0  0  0  0  0  0  0  0  0  0
   11.0869   10.9361   29.6631 O   0  0  0  0  0  0  0  0  0  0  0  0
   10.7279   10.7183   26.5589 N   0  0  0  0  0  0  0  0  0  0  0  0
   10.7241   10.0512   25.3891 C   0  0  0  0  0  0  0  0  0  0  0  0
   11.0396    8.7304   25.5853 N   0  0  0  0  0  0  0  0  0  0  0  0
  1  2  1  0  0  0  0
  1  6  1  0  0  0  0
  2  3  2  0  0  0  0
  3  4  1  0  0  0  0
  4  5  2  0  0  0  0
  4 10  1  0  0  0  0
  5  6  1  0  0  0  0
  5  8  1  0  0  0  0
  6  7  2  0  0  0  0
  8  9  1  0  0  0  0
  9 10  2  0  0  0  0
M  END
>  <CHROM.1>
11.19660213,9.27096047,27.69207323,-1.01018429,1.31934535,-2.10596518

>  <Name>
ligand

>  <RI>
0

>  <Rbt.Current_Directory>
/home/itssahil/PROJECTS/Mol_Feturizer/New_Systems/rnas/2EET

>  <Rbt.Executable>
rbdock ($Id: //depot/dev/client3/rdock/2013.1/src/exe/rbdock.cxx#4 $)

>  <Rbt.Library>
libRbt.so (2013.1, Build901 2013/11/27)

>  <Rbt.Parameter_File>
/export/apps/rDock/src/rDock_2013.1_src/data/scripts/dock_solv.prm

>  <Rbt.Receptor>
prm/blind_docking_100.prm

>  <SCORE>
-17.4988

>  <SCORE.INTER>
-17.4988

>  <SCORE.INTER.CONST>
1

>  <SCORE.INTER.POLAR>
0

>  <SCORE.INTER.ROT>
0

>  <SCORE.INTER.SOLV>
3.86039

>  <SCORE.INTER.VDW>
-16.5527

>  <SCORE.INTER.norm>
-1.74988

>  <SCORE.INTRA>
0

>  <SCORE.INTRA.DIHEDRAL>
0

>  <SCORE.INTRA.DIHEDRAL.0>
0

>  <SCORE.INTRA.POLAR>
0

>  <SCORE.INTRA.POLAR.0>
0

>  <SCORE.INTRA.REPUL>
0

>  <SCORE.INTRA.REPUL.0>
0

>  <SCORE.INTRA.SOLV>
0

>  <SCORE.INTRA.SOLV.lig_0>
-4.28464

>  <SCORE.INTRA.VDW>
0

>  <SCORE.INTRA.VDW.0>
0

>  <SCORE.INTRA.norm>
0

>  <SCORE.RESTR>
0

>  <SCORE.RESTR.CAVITY>
0

>  <SCORE.RESTR.norm>
0

>  <SCORE.SYSTEM>
0

>  <SCORE.SYSTEM.CONST>
0

>  <SCORE.SYSTEM.DIHEDRAL>
0

>  <SCORE.SYSTEM.SOLV>
0

>  <SCORE.SYSTEM.norm>
0

>  <SCORE.heavy>
10

>  <SCORE.norm>
-1.74988

>  <RMSD>
2.449

$$$$
ligand
 OpenBabel11021811423D
libRbt.so/2013.1/901 2013/11/27
 10 11  0  0  0  0  0  0  0  0999 V2000
   11.5655    8.7205   29.5113 N   0  0  0  0  0  0  0  0  0  0  0  0
   11.7332    7.5125   28.8569 C   0  0  0  0  0  0  0  0  0  0  0  0
   11.5791    7.3986   27.5322 N   0  0  0  0  0  0  0  0  0  0  0  0
   11.2464    8.5837   26.9252 C   0  0  0  0  0  0  0  0  0  0  0  0
   11.0668    9.8106   27.5216 C   0  0  0  0  0  0  0  0  0  0  0  0
   11.2283    9.9428   28.9288 C   0  0  0  0  0  0  0  0  0  0  0  0
   11.1150   10.9387   29.6545 O   0  0  0  0  0  0  0  0  0  0  0  0
   10.7439   10.7232   26.5516 N   0  0  0  0  0  0  0  0  0  0  0  0
   10.7302   10.0559   25.3819 C   0  0  0  0  0  0  0  0  0  0  0  0
   11.0344    8.7323   25.5776 N   0  0  0  0  0  0  0  0  0  0  0  0
  1  2  1  0  0  0  0
  1  6  1  0  0  0  0
  2  3  2  0  0  0  0
  3  4  1  0  0  0  0
  4  5  2  0  0  0  0
  4 10  1  0  0  0  0
  5  6  1  0  0  0  0
  5  8  1  0  0  0  0
  6  7  2  0  0  0  0
  8  9  1  0  0  0  0
  9 10  2  0  0  0  0
M  END
>  <CHROM.1>
11.20318298,9.27206481,27.68365400,-0.97957996,1.32535689,-2.13596015

>  <Name>
ligand

>  <RI>
0

>  <Rbt.Current_Directory>
/home/itssahil/PROJECTS/Mol_Feturizer/New_Systems/rnas/2EET

>  <Rbt.Executable>
rbdock ($Id: //depot/dev/client3/rdock/2013.1/src/exe/rbdock.cxx#4 $)

>  <Rbt.Library>
libRbt.so (2013.1, Build901 2013/11/27)

>  <Rbt.Parameter_File>
/export/apps/rDock/src/rDock_2013.1_src/data/scripts/dock_solv.prm

>  <Rbt.Receptor>
prm/blind_docking_60.prm

>  <SCORE>
-17.5107

>  <SCORE.INTER>
-17.5107

>  <SCORE.INTER.CONST>
1

>  <SCORE.INTER.POLAR>
0

>  <SCORE.INTER.ROT>
0

>  <SCORE.INTER.SOLV>
3.85179

>  <SCORE.INTER.VDW>
-16.5577

>  <SCORE.INTER.norm>
-1.75107

>  <SCORE.INTRA>
0

>  <SCORE.INTRA.DIHEDRAL>
0

>  <SCORE.INTRA.DIHEDRAL.0>
0

>  <SCORE.INTRA.POLAR>
0

>  <SCORE.INTRA.POLAR.0>
0

>  <SCORE.INTRA.REPUL>
0

>  <SCORE.INTRA.REPUL.0>
0

>  <SCORE.INTRA.SOLV>
0

>  <SCORE.INTRA.SOLV.lig_0>
-4.28464

>  <SCORE.INTRA.VDW>
0

>  <SCORE.INTRA.VDW.0>
0

>  <SCORE.INTRA.norm>
0

>  <SCORE.RESTR>
0

>  <SCORE.RESTR.CAVITY>
0

>  <SCORE.RESTR.norm>
0

>  <SCORE.SYSTEM>
0

>  <SCORE.SYSTEM.CONST>
0

>  <SCORE.SYSTEM.DIHEDRAL>
0

>  <SCORE.SYSTEM.SOLV>
0

>  <SCORE.SYSTEM.norm>
0

>  <SCORE.heavy>
10

>  <SCORE.norm>
-1.75107

>  <RMSD>
2.449

$$$$
ligand
 OpenBabel11021811423D
libRbt.so/2013.1/901 2013/11/27
 10 11  0  0  0  0  0  0  0  0999 V2000
   11.5655    8.7203   29.5150 N   0  0  0  0  0  0  0  0  0  0  0  0
   11.7360    7.5108   28.8640 C   0  0  0  0  0  0  0  0  0  0  0  0
   11.5895    7.3945   27.5386 N   0  0  0  0  0  0  0  0  0  0  0  0
   11.2616    8.5787   26.9273 C   0  0  0  0  0  0  0  0  0  0  0  0
   11.0797    9.8069   27.5203 C   0  0  0  0  0  0  0  0  0  0  0  0
   11.2330    9.9417   28.9280 C   0  0  0  0  0  0  0  0  0  0  0  0
   11.1163   10.9393   29.6511 O   0  0  0  0  0  0  0  0  0  0  0  0
   10.7633   10.7179   26.5465 N   0  0  0  0  0  0  0  0  0  0  0  0
   10.7559   10.0483   25.3781 C   0  0  0  0  0  0  0  0  0  0  0  0
   11.0577    8.7248   25.5781 N   0  0  0  0  0  0  0  0  0  0  0  0
  1  2  1  0  0  0  0
  1  6  1  0  0  0  0
  2  3  2  0  0  0  0
  3  4  1  0  0  0  0
  4  5  2  0  0  0  0
  4 10  1  0  0  0  0
  5  6  1  0  0  0  0
  5  8  1  0  0  0  0
  6  7  2  0  0  0  0
  8  9  1  0  0  0  0
  9 10  2  0  0  0  0
M  END
>  <CHROM.1>
11.21453514,9.26860095,27.68412808,-0.99828088,1.32927876,-2.11978423

>  <Name>
ligand

>  <RI>
0

>  <Rbt.Current_Directory>
/home/itssahil/PROJECTS/Mol_Feturizer/New_Systems/rnas/2EET

>  <Rbt.Executable>
rbdock ($Id: //depot/dev/client3/rdock/2013.1/src/exe/rbdock.cxx#4 $)

>  <Rbt.Library>
libRbt.so (2013.1, Build901 2013/11/27)

>  <Rbt.Parameter_File>
/export/apps/rDock/src/rDock_2013.1_src/data/scripts/dock_solv.prm

>  <Rbt.Receptor>
prm/blind_docking_60.prm

>  <SCORE>
-17.5072

>  <SCORE.INTER>
-17.5072

>  <SCORE.INTER.CONST>
1

>  <SCORE.INTER.POLAR>
0

>  <SCORE.INTER.ROT>
0

>  <SCORE.INTER.SOLV>
3.85356

>  <SCORE.INTER.VDW>
-16.556

>  <SCORE.INTER.norm>
-1.75072

>  <SCORE.INTRA>
0

>  <SCORE.INTRA.DIHEDRAL>
0

>  <SCORE.INTRA.DIHEDRAL.0>
0

>  <SCORE.INTRA.POLAR>
0

>  <SCORE.INTRA.POLAR.0>
0

>  <SCORE.INTRA.REPUL>
0

>  <SCORE.INTRA.REPUL.0>
0

>  <SCORE.INTRA.SOLV>
0

>  <SCORE.INTRA.SOLV.lig_0>
-4.28464

>  <SCORE.INTRA.VDW>
0

>  <SCORE.INTRA.VDW.0>
0

>  <SCORE.INTRA.norm>
0

>  <SCORE.RESTR>
0

>  <SCORE.RESTR.CAVITY>
0

>  <SCORE.RESTR.norm>
0

>  <SCORE.SYSTEM>
0

>  <SCORE.SYSTEM.CONST>
0

>  <SCORE.SYSTEM.DIHEDRAL>
0

>  <SCORE.SYSTEM.SOLV>
0

>  <SCORE.SYSTEM.norm>
0

>  <SCORE.heavy>
10

>  <SCORE.norm>
-1.75072

>  <RMSD>
2.449

$$$$
ligand
 OpenBabel11021811423D
libRbt.so/2013.1/901 2013/11/27
 10 11  0  0  0  0  0  0  0  0999 V2000
   11.4831    8.7789   29.5960 N   0  0  0  0  0  0  0  0  0  0  0  0
   11.6958    7.5666   28.9630 C   0  0  0  0  0  0  0  0  0  0  0  0
   11.6011    7.4367   27.6341 N   0  0  0  0  0  0  0  0  0  0  0  0
   11.2791    8.6106   27.0002 C   0  0  0  0  0  0  0  0  0  0  0  0
   11.0570    9.8410   27.5746 C   0  0  0  0  0  0  0  0  0  0  0  0
   11.1551    9.9902   28.9858 C   0  0  0  0  0  0  0  0  0  0  0  0
   10.9967   10.9920   29.6948 O   0  0  0  0  0  0  0  0  0  0  0  0
   10.7642   10.7387   26.5813 N   0  0  0  0  0  0  0  0  0  0  0  0
   10.8107   10.0590   25.4197 C   0  0  0  0  0  0  0  0  0  0  0  0
   11.1241    8.7420   25.6430 N   0  0  0  0  0  0  0  0  0  0  0  0
  1  2  1  0  0  0  0
  1  6  1  0  0  0  0
  2  3  2  0  0  0  0
  3  4  1  0  0  0  0
  4  5  2  0  0  0  0
  4 10  1  0  0  0  0
  5  6  1  0  0  0  0
  5  8  1  0  0  0  0
  6  7  2  0  0  0  0
  8  9  1  0  0  0  0
  9 10  2  0  0  0  0
M  END
>  <CHROM.1>
11.19345256,9.30616437,27.74831335,-1.16822882,1.33314459,-1.96355077

>  <Name>
ligand

>  <RI>
0

>  <Rbt.Current_Directory>
/home/itssahil/PROJECTS/Mol_Feturizer/New_Systems/rnas/2EET

>  <Rbt.Executable>
rbdock ($Id: //depot/dev/client3/rdock/2013.1/src/exe/rbdock.cxx#4 $)

>  <Rbt.Library>
libRbt.so (2013.1, Build901 2013/11/27)

>  <Rbt.Parameter_File>
/export/apps/rDock/src/rDock_2013.1_src/data/scripts/dock_solv.prm

>  <Rbt.Receptor>
prm/pocket_docking_5.prm

>  <SCORE>
-17.4481

>  <SCORE.INTER>
-17.4481

>  <SCORE.INTER.CONST>
1

>  <SCORE.INTER.POLAR>
0

>  <SCORE.INTER.ROT>
0

>  <SCORE.INTER.SOLV>
3.95744

>  <SCORE.INTER.VDW>
-16.5512

>  <SCORE.INTER.norm>
-1.74481

>  <SCORE.INTRA>
0

>  <SCORE.INTRA.DIHEDRAL>
0

>  <SCORE.INTRA.DIHEDRAL.0>
0

>  <SCORE.INTRA.POLAR>
0

>  <SCORE.INTRA.POLAR.0>
0

>  <SCORE.INTRA.REPUL>
0

>  <SCORE.INTRA.REPUL.0>
0

>  <SCORE.INTRA.SOLV>
0

>  <SCORE.INTRA.SOLV.lig_0>
-4.28464

>  <SCORE.INTRA.VDW>
0

>  <SCORE.INTRA.VDW.0>
0

>  <SCORE.INTRA.norm>
0

>  <SCORE.RESTR>
0

>  <SCORE.RESTR.CAVITY>
0

>  <SCORE.RESTR.norm>
0

>  <SCORE.SYSTEM>
0

>  <SCORE.SYSTEM.CONST>
0

>  <SCORE.SYSTEM.DIHEDRAL>
0

>  <SCORE.SYSTEM.SOLV>
0

>  <SCORE.SYSTEM.norm>
0

>  <SCORE.heavy>
10

>  <SCORE.norm>
-1.74481

>  <RMSD>
2.449

$$$$
ligand
 OpenBabel11021811423D
libRbt.so/2013.1/901 2013/11/27
 10 11  0  0  0  0  0  0  0  0999 V2000
   11.5545    8.7261   29.5228 N   0  0  0  0  0  0  0  0  0  0  0  0
   11.7460    7.5209   28.8698 C   0  0  0  0  0  0  0  0  0  0  0  0
   11.6009    7.4040   27.5443 N   0  0  0  0  0  0  0  0  0  0  0  0
   11.2517    8.5832   26.9351 C   0  0  0  0  0  0  0  0  0  0  0  0
   11.0484    9.8070   27.5301 C   0  0  0  0  0  0  0  0  0  0  0  0
   11.2001    9.9424   28.9380 C   0  0  0  0  0  0  0  0  0  0  0  0
   11.0662   10.9366   29.6627 O   0  0  0  0  0  0  0  0  0  0  0  0
   10.7154   10.7138   26.5579 N   0  0  0  0  0  0  0  0  0  0  0  0
   10.7192   10.0460   25.3885 C   0  0  0  0  0  0  0  0  0  0  0  0
   11.0445    8.7277   25.5863 N   0  0  0  0  0  0  0  0  0  0  0  0
  1  2  1  0  0  0  0
  1  6  1  0  0  0  0
  2  3  2  0  0  0  0
  3  4  1  0  0  0  0
  4  5  2  0  0  0  0
  4 10  1  0  0  0  0
  5  6  1  0  0  0  0
  5  8  1  0  0  0  0
  6  7  2  0  0  0  0
  8  9  1  0  0  0  0
  9 10  2  0  0  0  0
M  END
>  <CHROM.1>
11.19288138,9.27094978,27.69302335,-1.03273455,1.31373047,-2.08484175

>  <Name>
ligand

>  <RI>
0

>  <Rbt.Current_Directory>
/home/itssahil/PROJECTS/Mol_Feturizer/New_Systems/rnas/2EET

>  <Rbt.Executable>
rbdock ($Id: //depot/dev/client3/rdock/2013.1/src/exe/rbdock.cxx#4 $)

>  <Rbt.Library>
libRbt.so (2013.1, Build901 2013/11/27)

>  <Rbt.Parameter_File>
/export/apps/rDock/src/rDock_2013.1_src/data/scripts/dock_solv.prm

>  <Rbt.Receptor>
prm/pocket_docking_5.prm

>  <SCORE>
-17.4901

>  <SCORE.INTER>
-17.4901

>  <SCORE.INTER.CONST>
1

>  <SCORE.INTER.POLAR>
0

>  <SCORE.INTER.ROT>
0

>  <SCORE.INTER.SOLV>
3.86809

>  <SCORE.INTER.VDW>
-16.5494

>  <SCORE.INTER.norm>
-1.74901

>  <SCORE.INTRA>
0

>  <SCORE.INTRA.DIHEDRAL>
0

>  <SCORE.INTRA.DIHEDRAL.0>
0

>  <SCORE.INTRA.POLAR>
0

>  <SCORE.INTRA.POLAR.0>
0

>  <SCORE.INTRA.REPUL>
0

>  <SCORE.INTRA.REPUL.0>
0

>  <SCORE.INTRA.SOLV>
0

>  <SCORE.INTRA.SOLV.lig_0>
-4.28464

>  <SCORE.INTRA.VDW>
0

>  <SCORE.INTRA.VDW.0>
0

>  <SCORE.INTRA.norm>
0

>  <SCORE.RESTR>
0

>  <SCORE.RESTR.CAVITY>
0

>  <SCORE.RESTR.norm>
0

>  <SCORE.SYSTEM>
0

>  <SCORE.SYSTEM.CONST>
0

>  <SCORE.SYSTEM.DIHEDRAL>
0

>  <SCORE.SYSTEM.SOLV>
0

>  <SCORE.SYSTEM.norm>
0

>  <SCORE.heavy>
10

>  <SCORE.norm>
-1.74901

>  <RMSD>
2.449

$$$$
ligand
 OpenBabel11021811423D
libRbt.so/2013.1/901 2013/11/27
 10 11  0  0  0  0  0  0  0  0999 V2000
   11.5682    8.7169   29.5098 N   0  0  0  0  0  0  0  0  0  0  0  0
   11.7417    7.5100   28.8549 C   0  0  0  0  0  0  0  0  0  0  0  0
   11.5889    7.3962   27.5300 N   0  0  0  0  0  0  0  0  0  0  0  0
   11.2515    8.5802   26.9234 C   0  0  0  0  0  0  0  0  0  0  0  0
   11.0662    9.8059   27.5204 C   0  0  0  0  0  0  0  0  0  0  0  0
   11.2261    9.9381   28.9277 C   0  0  0  0  0  0  0  0  0  0  0  0
   11.1080   10.9331   29.6539 O   0  0  0  0  0  0  0  0  0  0  0  0
   10.7399   10.7177   26.5506 N   0  0  0  0  0  0  0  0  0  0  0  0
   10.7299   10.0510   25.3806 C   0  0  0  0  0  0  0  0  0  0  0  0
   11.0398    8.7286   25.5757 N   0  0  0  0  0  0  0  0  0  0  0  0
  1  2  1  0  0  0  0
  1  6  1  0  0  0  0
  2  3  2  0  0  0  0
  3  4  1  0  0  0  0
  4  5  2  0  0  0  0
  4 10  1  0  0  0  0
  5  6  1  0  0  0  0
  5  8  1  0  0  0  0
  6  7  2  0  0  0  0
  8  9  1  0  0  0  0
  9 10  2  0  0  0  0
M  END
>  <CHROM.1>
11.20476150,9.26794430,27.68221248,-0.99143974,1.32202841,-2.12390715

>  <Name>
ligand

>  <RI>
0

>  <Rbt.Current_Directory>
/home/itssahil/PROJECTS/Mol_Feturizer/New_Systems/rnas/2EET

>  <Rbt.Executable>
rbdock ($Id: //depot/dev/client3/rdock/2013.1/src/exe/rbdock.cxx#4 $)

>  <Rbt.Library>
libRbt.so (2013.1, Build901 2013/11/27)

>  <Rbt.Parameter_File>
/export/apps/rDock/src/rDock_2013.1_src/data/scripts/dock_solv.prm

>  <Rbt.Receptor>
prm/pocket_docking_6.prm

>  <SCORE>
-17.5098

>  <SCORE.INTER>
-17.5098

>  <SCORE.INTER.CONST>
1

>  <SCORE.INTER.POLAR>
0

>  <SCORE.INTER.ROT>
0

>  <SCORE.INTER.SOLV>
3.84726

>  <SCORE.INTER.VDW>
-16.5556

>  <SCORE.INTER.norm>
-1.75098

>  <SCORE.INTRA>
0

>  <SCORE.INTRA.DIHEDRAL>
0

>  <SCORE.INTRA.DIHEDRAL.0>
0

>  <SCORE.INTRA.POLAR>
0

>  <SCORE.INTRA.POLAR.0>
0

>  <SCORE.INTRA.REPUL>
0

>  <SCORE.INTRA.REPUL.0>
0

>  <SCORE.INTRA.SOLV>
0

>  <SCORE.INTRA.SOLV.lig_0>
-4.28464

>  <SCORE.INTRA.VDW>
0

>  <SCORE.INTRA.VDW.0>
0

>  <SCORE.INTRA.norm>
0

>  <SCORE.RESTR>
0

>  <SCORE.RESTR.CAVITY>
0

>  <SCORE.RESTR.norm>
0

>  <SCORE.SYSTEM>
0

>  <SCORE.SYSTEM.CONST>
0

>  <SCORE.SYSTEM.DIHEDRAL>
0

>  <SCORE.SYSTEM.SOLV>
0

>  <SCORE.SYSTEM.norm>
0

>  <SCORE.heavy>
10

>  <SCORE.norm>
-1.75098

>  <RMSD>
2.449

$$$$
ligand
 OpenBabel11021811423D
libRbt.so/2013.1/901 2013/11/27
 10 11  0  0  0  0  0  0  0  0999 V2000
   11.5612    8.7211   29.5135 N   0  0  0  0  0  0  0  0  0  0  0  0
   11.7335    7.5126   28.8614 C   0  0  0  0  0  0  0  0  0  0  0  0
   11.5858    7.3969   27.5361 N   0  0  0  0  0  0  0  0  0  0  0  0
   11.2546    8.5809   26.9261 C   0  0  0  0  0  0  0  0  0  0  0  0
   11.0707    9.8082   27.5202 C   0  0  0  0  0  0  0  0  0  0  0  0
   11.2253    9.9423   28.9279 C   0  0  0  0  0  0  0  0  0  0  0  0
   11.1074   10.9390   29.6519 O   0  0  0  0  0  0  0  0  0  0  0  0
   10.7513   10.7193   26.5475 N   0  0  0  0  0  0  0  0  0  0  0  0
   10.7439   10.0506   25.3786 C   0  0  0  0  0  0  0  0  0  0  0  0
   11.0489    8.7276   25.5773 N   0  0  0  0  0  0  0  0  0  0  0  0
  1  2  1  0  0  0  0
  1  6  1  0  0  0  0
  2  3  2  0  0  0  0
  3  4  1  0  0  0  0
  4  5  2  0  0  0  0
  4 10  1  0  0  0  0
  5  6  1  0  0  0  0
  5  8  1  0  0  0  0
  6  7  2  0  0  0  0
  8  9  1  0  0  0  0
  9 10  2  0  0  0  0
M  END
>  <CHROM.1>
11.20694175,9.27009821,27.68350439,-0.99891165,1.32683474,-2.11840559

>  <Name>
ligand

>  <RI>
0

>  <Rbt.Current_Directory>
/home/itssahil/PROJECTS/Mol_Feturizer/New_Systems/rnas/2EET

>  <Rbt.Executable>
rbdock ($Id: //depot/dev/client3/rdock/2013.1/src/exe/rbdock.cxx#4 $)

>  <Rbt.Library>
libRbt.so (2013.1, Build901 2013/11/27)

>  <Rbt.Parameter_File>
/export/apps/rDock/src/rDock_2013.1_src/data/scripts/dock_solv.prm

>  <Rbt.Receptor>
prm/pocket_docking_7.prm

>  <SCORE>
-17.509

>  <SCORE.INTER>
-17.509

>  <SCORE.INTER.CONST>
1

>  <SCORE.INTER.POLAR>
0

>  <SCORE.INTER.ROT>
0

>  <SCORE.INTER.SOLV>
3.85636

>  <SCORE.INTER.VDW>
-16.5581

>  <SCORE.INTER.norm>
-1.7509

>  <SCORE.INTRA>
0

>  <SCORE.INTRA.DIHEDRAL>
0

>  <SCORE.INTRA.DIHEDRAL.0>
0

>  <SCORE.INTRA.POLAR>
0

>  <SCORE.INTRA.POLAR.0>
0

>  <SCORE.INTRA.REPUL>
0

>  <SCORE.INTRA.REPUL.0>
0

>  <SCORE.INTRA.SOLV>
0

>  <SCORE.INTRA.SOLV.lig_0>
-4.28464

>  <SCORE.INTRA.VDW>
0

>  <SCORE.INTRA.VDW.0>
0

>  <SCORE.INTRA.norm>
0

>  <SCORE.RESTR>
0

>  <SCORE.RESTR.CAVITY>
0

>  <SCORE.RESTR.norm>
0

>  <SCORE.SYSTEM>
0

>  <SCORE.SYSTEM.CONST>
0

>  <SCORE.SYSTEM.DIHEDRAL>
0

>  <SCORE.SYSTEM.SOLV>
0

>  <SCORE.SYSTEM.norm>
0

>  <SCORE.heavy>
10

>  <SCORE.norm>
-1.7509

>  <RMSD>
2.449

$$$$
ligand
 OpenBabel11021811423D
libRbt.so/2013.1/901 2013/11/27
 10 11  0  0  0  0  0  0  0  0999 V2000
   11.5611    8.7178   29.5108 N   0  0  0  0  0  0  0  0  0  0  0  0
   11.7423    7.5117   28.8565 C   0  0  0  0  0  0  0  0  0  0  0  0
   11.5948    7.3972   27.5311 N   0  0  0  0  0  0  0  0  0  0  0  0
   11.2541    8.5796   26.9233 C   0  0  0  0  0  0  0  0  0  0  0  0
   11.0612    9.8045   27.5196 C   0  0  0  0  0  0  0  0  0  0  0  0
   11.2155    9.9374   28.9274 C   0  0  0  0  0  0  0  0  0  0  0  0
   11.0904   10.9320   29.6532 O   0  0  0  0  0  0  0  0  0  0  0  0
   10.7342   10.7148   26.5486 N   0  0  0  0  0  0  0  0  0  0  0  0
   10.7314   10.0480   25.3786 C   0  0  0  0  0  0  0  0  0  0  0  0
   11.0465    8.7271   25.5748 N   0  0  0  0  0  0  0  0  0  0  0  0
  1  2  1  0  0  0  0
  1  6  1  0  0  0  0
  2  3  2  0  0  0  0
  3  4  1  0  0  0  0
  4  5  2  0  0  0  0
  4 10  1  0  0  0  0
  5  6  1  0  0  0  0
  5  8  1  0  0  0  0
  6  7  2  0  0  0  0
  8  9  1  0  0  0  0
  9 10  2  0  0  0  0
M  END
>  <CHROM.1>
11.20160636,9.26718913,27.68190884,-1.01305559,1.31997651,-2.10299092

>  <Name>
ligand

>  <RI>
0

>  <Rbt.Current_Directory>
/home/itssahil/PROJECTS/Mol_Feturizer/New_Systems/rnas/2EET

>  <Rbt.Executable>
rbdock ($Id: //depot/dev/client3/rdock/2013.1/src/exe/rbdock.cxx#4 $)

>  <Rbt.Library>
libRbt.so (2013.1, Build901 2013/11/27)

>  <Rbt.Parameter_File>
/export/apps/rDock/src/rDock_2013.1_src/data/scripts/dock_solv.prm

>  <Rbt.Receptor>
prm/blind_docking_40.prm

>  <SCORE>
-17.5049

>  <SCORE.INTER>
-17.5049

>  <SCORE.INTER.CONST>
1

>  <SCORE.INTER.POLAR>
0

>  <SCORE.INTER.ROT>
0

>  <SCORE.INTER.SOLV>
3.85499

>  <SCORE.INTER.VDW>
-16.5549

>  <SCORE.INTER.norm>
-1.75049

>  <SCORE.INTRA>
0

>  <SCORE.INTRA.DIHEDRAL>
0

>  <SCORE.INTRA.DIHEDRAL.0>
0

>  <SCORE.INTRA.POLAR>
0

>  <SCORE.INTRA.POLAR.0>
0

>  <SCORE.INTRA.REPUL>
0

>  <SCORE.INTRA.REPUL.0>
0

>  <SCORE.INTRA.SOLV>
0

>  <SCORE.INTRA.SOLV.lig_0>
-4.28464

>  <SCORE.INTRA.VDW>
0

>  <SCORE.INTRA.VDW.0>
0

>  <SCORE.INTRA.norm>
0

>  <SCORE.RESTR>
0

>  <SCORE.RESTR.CAVITY>
0

>  <SCORE.RESTR.norm>
0

>  <SCORE.SYSTEM>
0

>  <SCORE.SYSTEM.CONST>
0

>  <SCORE.SYSTEM.DIHEDRAL>
0

>  <SCORE.SYSTEM.SOLV>
0

>  <SCORE.SYSTEM.norm>
0

>  <SCORE.heavy>
10

>  <SCORE.norm>
-1.75049

>  <RMSD>
2.450

$$$$
ligand
 OpenBabel11021811423D
libRbt.so/2013.1/901 2013/11/27
 10 11  0  0  0  0  0  0  0  0999 V2000
   11.5594    8.6911   29.4907 N   0  0  0  0  0  0  0  0  0  0  0  0
   11.7394    7.4938   28.8200 C   0  0  0  0  0  0  0  0  0  0  0  0
   11.5969    7.3986   27.4925 N   0  0  0  0  0  0  0  0  0  0  0  0
   11.2627    8.5907   26.9003 C   0  0  0  0  0  0  0  0  0  0  0  0
   11.0713    9.8076   27.5131 C   0  0  0  0  0  0  0  0  0  0  0  0
   11.2203    9.9200   28.9233 C   0  0  0  0  0  0  0  0  0  0  0  0
   11.0954   10.9045   29.6626 O   0  0  0  0  0  0  0  0  0  0  0  0
   10.7513   10.7327   26.5539 N   0  0  0  0  0  0  0  0  0  0  0  0
   10.7511   10.0826   25.3745 C   0  0  0  0  0  0  0  0  0  0  0  0
   11.0611    8.7580   25.5532 N   0  0  0  0  0  0  0  0  0  0  0  0
  1  2  1  0  0  0  0
  1  6  1  0  0  0  0
  2  3  2  0  0  0  0
  3  4  1  0  0  0  0
  4  5  2  0  0  0  0
  4 10  1  0  0  0  0
  5  6  1  0  0  0  0
  5  8  1  0  0  0  0
  6  7  2  0  0  0  0
  8  9  1  0  0  0  0
  9 10  2  0  0  0  0
M  END
>  <CHROM.1>
11.20928213,9.26755327,27.66833108,-1.02079926,1.32486988,-2.08125059

>  <Name>
ligand

>  <RI>
0

>  <Rbt.Current_Directory>
/home/itssahil/PROJECTS/Mol_Feturizer/New_Systems/rnas/2EET

>  <Rbt.Executable>
rbdock ($Id: //depot/dev/client3/rdock/2013.1/src/exe/rbdock.cxx#4 $)

>  <Rbt.Library>
libRbt.so (2013.1, Build901 2013/11/27)

>  <Rbt.Parameter_File>
/export/apps/rDock/src/rDock_2013.1_src/data/scripts/dock_solv.prm

>  <Rbt.Receptor>
prm/pocket_docking_4.prm

>  <SCORE>
-17.4787

>  <SCORE.INTER>
-17.4787

>  <SCORE.INTER.CONST>
1

>  <SCORE.INTER.POLAR>
0

>  <SCORE.INTER.ROT>
0

>  <SCORE.INTER.SOLV>
3.82695

>  <SCORE.INTER.VDW>
-16.5281

>  <SCORE.INTER.norm>
-1.74787

>  <SCORE.INTRA>
0

>  <SCORE.INTRA.DIHEDRAL>
0

>  <SCORE.INTRA.DIHEDRAL.0>
0

>  <SCORE.INTRA.POLAR>
0

>  <SCORE.INTRA.POLAR.0>
0

>  <SCORE.INTRA.REPUL>
0

>  <SCORE.INTRA.REPUL.0>
0

>  <SCORE.INTRA.SOLV>
0

>  <SCORE.INTRA.SOLV.lig_0>
-4.28464

>  <SCORE.INTRA.VDW>
0

>  <SCORE.INTRA.VDW.0>
0

>  <SCORE.INTRA.norm>
0

>  <SCORE.RESTR>
0

>  <SCORE.RESTR.CAVITY>
0

>  <SCORE.RESTR.norm>
0

>  <SCORE.SYSTEM>
0

>  <SCORE.SYSTEM.CONST>
0

>  <SCORE.SYSTEM.DIHEDRAL>
0

>  <SCORE.SYSTEM.SOLV>
0

>  <SCORE.SYSTEM.norm>
0

>  <SCORE.heavy>
10

>  <SCORE.norm>
-1.74787

>  <RMSD>
2.450

$$$$
ligand
 OpenBabel11021811423D
libRbt.so/2013.1/901 2013/11/27
 10 11  0  0  0  0  0  0  0  0999 V2000
   11.5517    8.6933   29.4861 N   0  0  0  0  0  0  0  0  0  0  0  0
   11.7171    7.4936   28.8159 C   0  0  0  0  0  0  0  0  0  0  0  0
   11.5743    7.3998   27.4884 N   0  0  0  0  0  0  0  0  0  0  0  0
   11.2553    8.5958   26.8955 C   0  0  0  0  0  0  0  0  0  0  0  0
   11.0788    9.8152   27.5079 C   0  0  0  0  0  0  0  0  0  0  0  0
   11.2283    9.9261   28.9182 C   0  0  0  0  0  0  0  0  0  0  0  0
   11.1152   10.9124   29.6571 O   0  0  0  0  0  0  0  0  0  0  0  0
   10.7710   10.7439   26.5482 N   0  0  0  0  0  0  0  0  0  0  0  0
   10.7634   10.0935   25.3690 C   0  0  0  0  0  0  0  0  0  0  0  0
   11.0567    8.7651   25.5483 N   0  0  0  0  0  0  0  0  0  0  0  0
  1  2  1  0  0  0  0
  1  6  1  0  0  0  0
  2  3  2  0  0  0  0
  3  4  1  0  0  0  0
  4  5  2  0  0  0  0
  4 10  1  0  0  0  0
  5  6  1  0  0  0  0
  5  8  1  0  0  0  0
  6  7  2  0  0  0  0
  8  9  1  0  0  0  0
  9 10  2  0  0  0  0
M  END
>  <CHROM.1>
11.20991572,9.27350864,27.66336678,-0.99688884,1.33604364,-2.10479341

>  <Name>
ligand

>  <RI>
0

>  <Rbt.Current_Directory>
/home/itssahil/PROJECTS/Mol_Feturizer/New_Systems/rnas/2EET

>  <Rbt.Executable>
rbdock ($Id: //depot/dev/client3/rdock/2013.1/src/exe/rbdock.cxx#4 $)

>  <Rbt.Library>
libRbt.so (2013.1, Build901 2013/11/27)

>  <Rbt.Parameter_File>
/export/apps/rDock/src/rDock_2013.1_src/data/scripts/dock_solv.prm

>  <Rbt.Receptor>
prm/pocket_docking_4.prm

>  <SCORE>
-17.4793

>  <SCORE.INTER>
-17.4793

>  <SCORE.INTER.CONST>
1

>  <SCORE.INTER.POLAR>
0

>  <SCORE.INTER.ROT>
0

>  <SCORE.INTER.SOLV>
3.83539

>  <SCORE.INTER.VDW>
-16.5313

>  <SCORE.INTER.norm>
-1.74793

>  <SCORE.INTRA>
0

>  <SCORE.INTRA.DIHEDRAL>
0

>  <SCORE.INTRA.DIHEDRAL.0>
0

>  <SCORE.INTRA.POLAR>
0

>  <SCORE.INTRA.POLAR.0>
0

>  <SCORE.INTRA.REPUL>
0

>  <SCORE.INTRA.REPUL.0>
0

>  <SCORE.INTRA.SOLV>
0

>  <SCORE.INTRA.SOLV.lig_0>
-4.28464

>  <SCORE.INTRA.VDW>
0

>  <SCORE.INTRA.VDW.0>
0

>  <SCORE.INTRA.norm>
0

>  <SCORE.RESTR>
0

>  <SCORE.RESTR.CAVITY>
0

>  <SCORE.RESTR.norm>
0

>  <SCORE.SYSTEM>
0

>  <SCORE.SYSTEM.CONST>
0

>  <SCORE.SYSTEM.DIHEDRAL>
0

>  <SCORE.SYSTEM.SOLV>
0

>  <SCORE.SYSTEM.norm>
0

>  <SCORE.heavy>
10

>  <SCORE.norm>
-1.74793

>  <RMSD>
2.450

$$$$
ligand
 OpenBabel11021811423D
libRbt.so/2013.1/901 2013/11/27
 10 11  0  0  0  0  0  0  0  0999 V2000
   11.5468    8.7152   29.5157 N   0  0  0  0  0  0  0  0  0  0  0  0
   11.7148    7.5082   28.8594 C   0  0  0  0  0  0  0  0  0  0  0  0
   11.5635    7.3970   27.5341 N   0  0  0  0  0  0  0  0  0  0  0  0
   11.2333    8.5836   26.9287 C   0  0  0  0  0  0  0  0  0  0  0  0
   11.0537    9.8095   27.5270 C   0  0  0  0  0  0  0  0  0  0  0  0
   11.2122    9.9389   28.9347 C   0  0  0  0  0  0  0  0  0  0  0  0
   11.0983   10.9336   29.6621 O   0  0  0  0  0  0  0  0  0  0  0  0
   10.7338   10.7244   26.5579 N   0  0  0  0  0  0  0  0  0  0  0  0
   10.7219   10.0592   25.3870 C   0  0  0  0  0  0  0  0  0  0  0  0
   11.0244    8.7350   25.5808 N   0  0  0  0  0  0  0  0  0  0  0  0
  1  2  1  0  0  0  0
  1  6  1  0  0  0  0
  2  3  2  0  0  0  0
  3  4  1  0  0  0  0
  4  5  2  0  0  0  0
  4 10  1  0  0  0  0
  5  6  1  0  0  0  0
  5  8  1  0  0  0  0
  6  7  2  0  0  0  0
  8  9  1  0  0  0  0
  9 10  2  0  0  0  0
M  END
>  <CHROM.1>
11.18911837,9.27059354,27.68829054,-0.98498415,1.32737784,-2.12882300

>  <Name>
ligand

>  <RI>
0

>  <Rbt.Current_Directory>
/home/itssahil/PROJECTS/Mol_Feturizer/New_Systems/rnas/2EET

>  <Rbt.Executable>
rbdock ($Id: //depot/dev/client3/rdock/2013.1/src/exe/rbdock.cxx#4 $)

>  <Rbt.Library>
libRbt.so (2013.1, Build901 2013/11/27)

>  <Rbt.Parameter_File>
/export/apps/rDock/src/rDock_2013.1_src/data/scripts/dock_solv.prm

>  <Rbt.Receptor>
prm/pocket_docking_6.prm

>  <SCORE>
-17.4911

>  <SCORE.INTER>
-17.4911

>  <SCORE.INTER.CONST>
1

>  <SCORE.INTER.POLAR>
0

>  <SCORE.INTER.ROT>
0

>  <SCORE.INTER.SOLV>
3.86408

>  <SCORE.INTER.VDW>
-16.5488

>  <SCORE.INTER.norm>
-1.74911

>  <SCORE.INTRA>
0

>  <SCORE.INTRA.DIHEDRAL>
0

>  <SCORE.INTRA.DIHEDRAL.0>
0

>  <SCORE.INTRA.POLAR>
0

>  <SCORE.INTRA.POLAR.0>
0

>  <SCORE.INTRA.REPUL>
0

>  <SCORE.INTRA.REPUL.0>
0

>  <SCORE.INTRA.SOLV>
0

>  <SCORE.INTRA.SOLV.lig_0>
-4.28464

>  <SCORE.INTRA.VDW>
0

>  <SCORE.INTRA.VDW.0>
0

>  <SCORE.INTRA.norm>
0

>  <SCORE.RESTR>
0

>  <SCORE.RESTR.CAVITY>
0

>  <SCORE.RESTR.norm>
0

>  <SCORE.SYSTEM>
0

>  <SCORE.SYSTEM.CONST>
0

>  <SCORE.SYSTEM.DIHEDRAL>
0

>  <SCORE.SYSTEM.SOLV>
0

>  <SCORE.SYSTEM.norm>
0

>  <SCORE.heavy>
10

>  <SCORE.norm>
-1.74911

>  <RMSD>
2.450

$$$$
ligand
 OpenBabel11021811423D
libRbt.so/2013.1/901 2013/11/27
 10 11  0  0  0  0  0  0  0  0999 V2000
   11.1824   11.2768   28.6292 N   0  0  0  0  0  0  0  0  0  0  0  0
   11.3176   10.7705   29.9103 C   0  0  0  0  0  0  0  0  0  0  0  0
   11.5435    9.4707   30.1367 N   0  0  0  0  0  0  0  0  0  0  0  0
   11.6217    8.7294   28.9843 C   0  0  0  0  0  0  0  0  0  0  0  0
   11.4960    9.1760   27.6890 C   0  0  0  0  0  0  0  0  0  0  0  0
   11.2559   10.5552   27.4371 C   0  0  0  0  0  0  0  0  0  0  0  0
   11.1130   11.1572   26.3654 O   0  0  0  0  0  0  0  0  0  0  0  0
   11.6419    8.1070   26.8438 N   0  0  0  0  0  0  0  0  0  0  0  0
   11.8552    7.0270   27.6194 C   0  0  0  0  0  0  0  0  0  0  0  0
   11.8470    7.3762   28.9463 N   0  0  0  0  0  0  0  0  0  0  0  0
  1  2  1  0  0  0  0
  1  6  1  0  0  0  0
  2  3  2  0  0  0  0
  3  4  1  0  0  0  0
  4  5  2  0  0  0  0
  4 10  1  0  0  0  0
  5  6  1  0  0  0  0
  5  8  1  0  0  0  0
  6  7  2  0  0  0  0
  8  9  1  0  0  0  0
  9 10  2  0  0  0  0
M  END
>  <CHROM.1>
11.48012016,9.40018566,28.22220177,-2.98491238,1.40052847,-1.80160002

>  <Name>
ligand

>  <RI>
0

>  <Rbt.Current_Directory>
/home/itssahil/PROJECTS/Mol_Feturizer/New_Systems/rnas/2EET

>  <Rbt.Executable>
rbdock ($Id: //depot/dev/client3/rdock/2013.1/src/exe/rbdock.cxx#4 $)

>  <Rbt.Library>
libRbt.so (2013.1, Build901 2013/11/27)

>  <Rbt.Parameter_File>
/export/apps/rDock/src/rDock_2013.1_src/data/scripts/dock_solv.prm

>  <Rbt.Receptor>
prm/blind_docking_100.prm

>  <SCORE>
-15.3224

>  <SCORE.INTER>
-15.3234

>  <SCORE.INTER.CONST>
1

>  <SCORE.INTER.POLAR>
0

>  <SCORE.INTER.ROT>
0

>  <SCORE.INTER.SOLV>
4.33046

>  <SCORE.INTER.VDW>
-15.2591

>  <SCORE.INTER.norm>
-1.53234

>  <SCORE.INTRA>
0

>  <SCORE.INTRA.DIHEDRAL>
0

>  <SCORE.INTRA.DIHEDRAL.0>
0

>  <SCORE.INTRA.POLAR>
0

>  <SCORE.INTRA.POLAR.0>
0

>  <SCORE.INTRA.REPUL>
0

>  <SCORE.INTRA.REPUL.0>
0

>  <SCORE.INTRA.SOLV>
0

>  <SCORE.INTRA.SOLV.lig_0>
-4.28464

>  <SCORE.INTRA.VDW>
0

>  <SCORE.INTRA.VDW.0>
0

>  <SCORE.INTRA.norm>
0

>  <SCORE.RESTR>
0.000992461

>  <SCORE.RESTR.CAVITY>
0.000992461

>  <SCORE.RESTR.norm>
9.92461e-05

>  <SCORE.SYSTEM>
0

>  <SCORE.SYSTEM.CONST>
0

>  <SCORE.SYSTEM.DIHEDRAL>
0

>  <SCORE.SYSTEM.SOLV>
0

>  <SCORE.SYSTEM.norm>
0

>  <SCORE.heavy>
10

>  <SCORE.norm>
-1.53224

>  <RMSD>
2.839

$$$$
ligand
 OpenBabel11021811423D
libRbt.so/2013.1/901 2013/11/27
 10 11  0  0  0  0  0  0  0  0999 V2000
   11.1829   11.2735   28.6110 N   0  0  0  0  0  0  0  0  0  0  0  0
   11.3134   10.7804   29.8977 C   0  0  0  0  0  0  0  0  0  0  0  0
   11.5480    9.4846   30.1378 N   0  0  0  0  0  0  0  0  0  0  0  0
   11.6396    8.7331   28.9931 C   0  0  0  0  0  0  0  0  0  0  0  0
   11.5191    9.1665   27.6928 C   0  0  0  0  0  0  0  0  0  0  0  0
   11.2700   10.5414   27.4263 C   0  0  0  0  0  0  0  0  0  0  0  0
   11.1295   11.1321   26.3480 O   0  0  0  0  0  0  0  0  0  0  0  0
   11.6790    8.0908   26.8587 N   0  0  0  0  0  0  0  0  0  0  0  0
   11.8955    7.0198   27.6459 C   0  0  0  0  0  0  0  0  0  0  0  0
   11.8756    7.3814   28.9694 N   0  0  0  0  0  0  0  0  0  0  0  0
  1  2  1  0  0  0  0
  1  6  1  0  0  0  0
  2  3  2  0  0  0  0
  3  4  1  0  0  0  0
  4  5  2  0  0  0  0
  4 10  1  0  0  0  0
  5  6  1  0  0  0  0
  5  8  1  0  0  0  0
  6  7  2  0  0  0  0
  8  9  1  0  0  0  0
  9 10  2  0  0  0  0
M  END
>  <CHROM.1>
11.49790642,9.39557475,28.22373761,-3.03212049,1.39428329,-1.76453649

>  <Name>
ligand

>  <RI>
0

>  <Rbt.Current_Directory>
/home/itssahil/PROJECTS/Mol_Feturizer/New_Systems/rnas/2EET

>  <Rbt.Executable>
rbdock ($Id: //depot/dev/client3/rdock/2013.1/src/exe/rbdock.cxx#4 $)

>  <Rbt.Library>
libRbt.so (2013.1, Build901 2013/11/27)

>  <Rbt.Parameter_File>
/export/apps/rDock/src/rDock_2013.1_src/data/scripts/dock_solv.prm

>  <Rbt.Receptor>
prm/blind_docking_60.prm

>  <SCORE>
-15.3101

>  <SCORE.INTER>
-15.3101

>  <SCORE.INTER.CONST>
1

>  <SCORE.INTER.POLAR>
0

>  <SCORE.INTER.ROT>
0

>  <SCORE.INTER.SOLV>
4.31631

>  <SCORE.INTER.VDW>
-15.2455

>  <SCORE.INTER.norm>
-1.53101

>  <SCORE.INTRA>
0

>  <SCORE.INTRA.DIHEDRAL>
0

>  <SCORE.INTRA.DIHEDRAL.0>
0

>  <SCORE.INTRA.POLAR>
0

>  <SCORE.INTRA.POLAR.0>
0

>  <SCORE.INTRA.REPUL>
0

>  <SCORE.INTRA.REPUL.0>
0

>  <SCORE.INTRA.SOLV>
0

>  <SCORE.INTRA.SOLV.lig_0>
-4.28464

>  <SCORE.INTRA.VDW>
0

>  <SCORE.INTRA.VDW.0>
0

>  <SCORE.INTRA.norm>
0

>  <SCORE.RESTR>
5.96693e-05

>  <SCORE.RESTR.CAVITY>
5.96693e-05

>  <SCORE.RESTR.norm>
5.96693e-06

>  <SCORE.SYSTEM>
0

>  <SCORE.SYSTEM.CONST>
0

>  <SCORE.SYSTEM.DIHEDRAL>
0

>  <SCORE.SYSTEM.SOLV>
0

>  <SCORE.SYSTEM.norm>
0

>  <SCORE.heavy>
10

>  <SCORE.norm>
-1.53101

>  <RMSD>
2.844

$$$$
ligand
 OpenBabel11021811423D
libRbt.so/2013.1/901 2013/11/27
 10 11  0  0  0  0  0  0  0  0999 V2000
   11.2617    8.5323   26.1909 N   0  0  0  0  0  0  0  0  0  0  0  0
   10.8951    9.8267   25.8654 C   0  0  0  0  0  0  0  0  0  0  0  0
   10.8401   10.7983   26.7845 N   0  0  0  0  0  0  0  0  0  0  0  0
   11.1793   10.3685   28.0430 C   0  0  0  0  0  0  0  0  0  0  0  0
   11.5505    9.0998   28.4248 C   0  0  0  0  0  0  0  0  0  0  0  0
   11.6124    8.0599   27.4562 C   0  0  0  0  0  0  0  0  0  0  0  0
   11.9175    6.8675   27.5846 O   0  0  0  0  0  0  0  0  0  0  0  0
   11.8043    9.1072   29.7716 N   0  0  0  0  0  0  0  0  0  0  0  0
   11.5908   10.3664   30.1985 C   0  0  0  0  0  0  0  0  0  0  0  0
   11.2019   11.1701   29.1566 N   0  0  0  0  0  0  0  0  0  0  0  0
  1  2  1  0  0  0  0
  1  6  1  0  0  0  0
  2  3  2  0  0  0  0
  3  4  1  0  0  0  0
  4  5  2  0  0  0  0
  4 10  1  0  0  0  0
  5  6  1  0  0  0  0
  5  8  1  0  0  0  0
  6  7  2  0  0  0  0
  8  9  1  0  0  0  0
  9 10  2  0  0  0  0
M  END
>  <CHROM.1>
11.39488095,9.37173617,27.93836526,1.52857454,1.27719964,-2.24866376

>  <Name>
ligand

>  <RI>
0

>  <Rbt.Current_Directory>
/home/itssahil/PROJECTS/Mol_Feturizer/New_Systems/rnas/2EET

>  <Rbt.Executable>
rbdock ($Id: //depot/dev/client3/rdock/2013.1/src/exe/rbdock.cxx#4 $)

>  <Rbt.Library>
libRbt.so (2013.1, Build901 2013/11/27)

>  <Rbt.Parameter_File>
/export/apps/rDock/src/rDock_2013.1_src/data/scripts/dock_solv.prm

>  <Rbt.Receptor>
prm/blind_docking_80.prm

>  <SCORE>
-16.7007

>  <SCORE.INTER>
-16.7011

>  <SCORE.INTER.CONST>
1

>  <SCORE.INTER.POLAR>
0

>  <SCORE.INTER.ROT>
0

>  <SCORE.INTER.SOLV>
3.59317

>  <SCORE.INTER.VDW>
-15.9318

>  <SCORE.INTER.norm>
-1.67011

>  <SCORE.INTRA>
0

>  <SCORE.INTRA.DIHEDRAL>
0

>  <SCORE.INTRA.DIHEDRAL.0>
0

>  <SCORE.INTRA.POLAR>
0

>  <SCORE.INTRA.POLAR.0>
0

>  <SCORE.INTRA.REPUL>
0

>  <SCORE.INTRA.REPUL.0>
0

>  <SCORE.INTRA.SOLV>
0

>  <SCORE.INTRA.SOLV.lig_0>
-4.28464

>  <SCORE.INTRA.VDW>
0

>  <SCORE.INTRA.VDW.0>
0

>  <SCORE.INTRA.norm>
0

>  <SCORE.RESTR>
0.000472097

>  <SCORE.RESTR.CAVITY>
0.000472097

>  <SCORE.RESTR.norm>
4.72097e-05

>  <SCORE.SYSTEM>
0

>  <SCORE.SYSTEM.CONST>
0

>  <SCORE.SYSTEM.DIHEDRAL>
0

>  <SCORE.SYSTEM.SOLV>
0

>  <SCORE.SYSTEM.norm>
0

>  <SCORE.heavy>
10

>  <SCORE.norm>
-1.67007

>  <RMSD>
2.852

$$$$
ligand
 OpenBabel11021811423D
libRbt.so/2013.1/901 2013/11/27
 10 11  0  0  0  0  0  0  0  0999 V2000
   11.2748    8.5354   26.1793 N   0  0  0  0  0  0  0  0  0  0  0  0
   10.9201    9.8331   25.8537 C   0  0  0  0  0  0  0  0  0  0  0  0
   10.8682   10.8039   26.7738 N   0  0  0  0  0  0  0  0  0  0  0  0
   11.1979   10.3699   28.0333 C   0  0  0  0  0  0  0  0  0  0  0  0
   11.5572    9.0978   28.4154 C   0  0  0  0  0  0  0  0  0  0  0  0
   11.6156    8.0587   27.4457 C   0  0  0  0  0  0  0  0  0  0  0  0
   11.9107    6.8637   27.5740 O   0  0  0  0  0  0  0  0  0  0  0  0
   11.8045    9.1015   29.7634 N   0  0  0  0  0  0  0  0  0  0  0  0
   11.5988   10.3619   30.1908 C   0  0  0  0  0  0  0  0  0  0  0  0
   11.2214   11.1700   29.1481 N   0  0  0  0  0  0  0  0  0  0  0  0
  1  2  1  0  0  0  0
  1  6  1  0  0  0  0
  2  3  2  0  0  0  0
  3  4  1  0  0  0  0
  4  5  2  0  0  0  0
  4 10  1  0  0  0  0
  5  6  1  0  0  0  0
  5  8  1  0  0  0  0
  6  7  2  0  0  0  0
  8  9  1  0  0  0  0
  9 10  2  0  0  0  0
M  END
>  <CHROM.1>
11.40611380,9.37161601,27.92848511,1.53269404,1.28641802,-2.25134984

>  <Name>
ligand

>  <RI>
0

>  <Rbt.Current_Directory>
/home/itssahil/PROJECTS/Mol_Feturizer/New_Systems/rnas/2EET

>  <Rbt.Executable>
rbdock ($Id: //depot/dev/client3/rdock/2013.1/src/exe/rbdock.cxx#4 $)

>  <Rbt.Library>
libRbt.so (2013.1, Build901 2013/11/27)

>  <Rbt.Parameter_File>
/export/apps/rDock/src/rDock_2013.1_src/data/scripts/dock_solv.prm

>  <Rbt.Receptor>
prm/blind_docking_40.prm

>  <SCORE>
-16.7055

>  <SCORE.INTER>
-16.7089

>  <SCORE.INTER.CONST>
1

>  <SCORE.INTER.POLAR>
0

>  <SCORE.INTER.ROT>
0

>  <SCORE.INTER.SOLV>
3.59903

>  <SCORE.INTER.VDW>
-15.9389

>  <SCORE.INTER.norm>
-1.67089

>  <SCORE.INTRA>
0

>  <SCORE.INTRA.DIHEDRAL>
0

>  <SCORE.INTRA.DIHEDRAL.0>
0

>  <SCORE.INTRA.POLAR>
0

>  <SCORE.INTRA.POLAR.0>
0

>  <SCORE.INTRA.REPUL>
0

>  <SCORE.INTRA.REPUL.0>
0

>  <SCORE.INTRA.SOLV>
0

>  <SCORE.INTRA.SOLV.lig_0>
-4.28464

>  <SCORE.INTRA.VDW>
0

>  <SCORE.INTRA.VDW.0>
0

>  <SCORE.INTRA.norm>
0

>  <SCORE.RESTR>
0.00331447

>  <SCORE.RESTR.CAVITY>
0.00331447

>  <SCORE.RESTR.norm>
0.000331447

>  <SCORE.SYSTEM>
0

>  <SCORE.SYSTEM.CONST>
0

>  <SCORE.SYSTEM.DIHEDRAL>
0

>  <SCORE.SYSTEM.SOLV>
0

>  <SCORE.SYSTEM.norm>
0

>  <SCORE.heavy>
10

>  <SCORE.norm>
-1.67055

>  <RMSD>
2.853

$$$$
ligand
 OpenBabel11021811423D
libRbt.so/2013.1/901 2013/11/27
 10 11  0  0  0  0  0  0  0  0999 V2000
   11.2344    8.5494   26.1628 N   0  0  0  0  0  0  0  0  0  0  0  0
   10.8765    9.8474   25.8421 C   0  0  0  0  0  0  0  0  0  0  0  0
   10.8298   10.8164   26.7643 N   0  0  0  0  0  0  0  0  0  0  0  0
   11.1682   10.3802   28.0208 C   0  0  0  0  0  0  0  0  0  0  0  0
   11.5310    9.1078   28.3980 C   0  0  0  0  0  0  0  0  0  0  0  0
   11.5840    8.0705   27.4260 C   0  0  0  0  0  0  0  0  0  0  0  0
   11.8810    6.8756   27.5501 O   0  0  0  0  0  0  0  0  0  0  0  0
   11.7872    9.1091   29.7444 N   0  0  0  0  0  0  0  0  0  0  0  0
   11.5833   10.3684   30.1756 C   0  0  0  0  0  0  0  0  0  0  0  0
   11.1983   11.1782   29.1369 N   0  0  0  0  0  0  0  0  0  0  0  0
  1  2  1  0  0  0  0
  1  6  1  0  0  0  0
  2  3  2  0  0  0  0
  3  4  1  0  0  0  0
  4  5  2  0  0  0  0
  4 10  1  0  0  0  0
  5  6  1  0  0  0  0
  5  8  1  0  0  0  0
  6  7  2  0  0  0  0
  8  9  1  0  0  0  0
  9 10  2  0  0  0  0
M  END
>  <CHROM.1>
11.37654056,9.38233563,27.91267017,1.54865540,1.28153971,-2.26473175

>  <Name>
ligand

>  <RI>
0

>  <Rbt.Current_Directory>
/home/itssahil/PROJECTS/Mol_Feturizer/New_Systems/rnas/2EET

>  <Rbt.Executable>
rbdock ($Id: //depot/dev/client3/rdock/2013.1/src/exe/rbdock.cxx#4 $)

>  <Rbt.Library>
libRbt.so (2013.1, Build901 2013/11/27)

>  <Rbt.Parameter_File>
/export/apps/rDock/src/rDock_2013.1_src/data/scripts/dock_solv.prm

>  <Rbt.Receptor>
prm/blind_docking_100.prm

>  <SCORE>
-16.7363

>  <SCORE.INTER>
-16.7364

>  <SCORE.INTER.CONST>
1

>  <SCORE.INTER.POLAR>
0

>  <SCORE.INTER.ROT>
0

>  <SCORE.INTER.SOLV>
3.64729

>  <SCORE.INTER.VDW>
-15.9733

>  <SCORE.INTER.norm>
-1.67364

>  <SCORE.INTRA>
0

>  <SCORE.INTRA.DIHEDRAL>
0

>  <SCORE.INTRA.DIHEDRAL.0>
0

>  <SCORE.INTRA.POLAR>
0

>  <SCORE.INTRA.POLAR.0>
0

>  <SCORE.INTRA.REPUL>
0

>  <SCORE.INTRA.REPUL.0>
0

>  <SCORE.INTRA.SOLV>
0

>  <SCORE.INTRA.SOLV.lig_0>
-4.28464

>  <SCORE.INTRA.VDW>
0

>  <SCORE.INTRA.VDW.0>
0

>  <SCORE.INTRA.norm>
0

>  <SCORE.RESTR>
9.26049e-05

>  <SCORE.RESTR.CAVITY>
9.26049e-05

>  <SCORE.RESTR.norm>
9.26049e-06

>  <SCORE.SYSTEM>
0

>  <SCORE.SYSTEM.CONST>
0

>  <SCORE.SYSTEM.DIHEDRAL>
0

>  <SCORE.SYSTEM.SOLV>
0

>  <SCORE.SYSTEM.norm>
0

>  <SCORE.heavy>
10

>  <SCORE.norm>
-1.67363

>  <RMSD>
2.854

$$$$
ligand
 OpenBabel11021811423D
libRbt.so/2013.1/901 2013/11/27
 10 11  0  0  0  0  0  0  0  0999 V2000
   11.2320    8.5442   26.1508 N   0  0  0  0  0  0  0  0  0  0  0  0
   10.8734    9.8432   25.8352 C   0  0  0  0  0  0  0  0  0  0  0  0
   10.8374   10.8111   26.7591 N   0  0  0  0  0  0  0  0  0  0  0  0
   11.1869   10.3726   28.0118 C   0  0  0  0  0  0  0  0  0  0  0  0
   11.5510    9.0989   28.3838 C   0  0  0  0  0  0  0  0  0  0  0  0
   11.5927    8.0629   27.4099 C   0  0  0  0  0  0  0  0  0  0  0  0
   11.8887    6.8673   27.5295 O   0  0  0  0  0  0  0  0  0  0  0  0
   11.8201    9.0980   29.7276 N   0  0  0  0  0  0  0  0  0  0  0  0
   11.6226   10.3571   30.1625 C   0  0  0  0  0  0  0  0  0  0  0  0
   11.2292   11.1690   29.1286 N   0  0  0  0  0  0  0  0  0  0  0  0
  1  2  1  0  0  0  0
  1  6  1  0  0  0  0
  2  3  2  0  0  0  0
  3  4  1  0  0  0  0
  4  5  2  0  0  0  0
  4 10  1  0  0  0  0
  5  6  1  0  0  0  0
  5  8  1  0  0  0  0
  6  7  2  0  0  0  0
  8  9  1  0  0  0  0
  9 10  2  0  0  0  0
M  END
>  <CHROM.1>
11.39238730,9.37446459,27.90029232,1.57816261,1.27673647,-2.29164281

>  <Name>
ligand

>  <RI>
0

>  <Rbt.Current_Directory>
/home/itssahil/PROJECTS/Mol_Feturizer/New_Systems/rnas/2EET

>  <Rbt.Executable>
rbdock ($Id: //depot/dev/client3/rdock/2013.1/src/exe/rbdock.cxx#4 $)

>  <Rbt.Library>
libRbt.so (2013.1, Build901 2013/11/27)

>  <Rbt.Parameter_File>
/export/apps/rDock/src/rDock_2013.1_src/data/scripts/dock_solv.prm

>  <Rbt.Receptor>
prm/pocket_docking_4.prm

>  <SCORE>
-16.7168

>  <SCORE.INTER>
-16.7178

>  <SCORE.INTER.CONST>
1

>  <SCORE.INTER.POLAR>
0

>  <SCORE.INTER.ROT>
0

>  <SCORE.INTER.SOLV>
3.634

>  <SCORE.INTER.VDW>
-15.9566

>  <SCORE.INTER.norm>
-1.67178

>  <SCORE.INTRA>
0

>  <SCORE.INTRA.DIHEDRAL>
0

>  <SCORE.INTRA.DIHEDRAL.0>
0

>  <SCORE.INTRA.POLAR>
0

>  <SCORE.INTRA.POLAR.0>
0

>  <SCORE.INTRA.REPUL>
0

>  <SCORE.INTRA.REPUL.0>
0

>  <SCORE.INTRA.SOLV>
0

>  <SCORE.INTRA.SOLV.lig_0>
-4.28464

>  <SCORE.INTRA.VDW>
0

>  <SCORE.INTRA.VDW.0>
0

>  <SCORE.INTRA.norm>
0

>  <SCORE.RESTR>
0.000985443

>  <SCORE.RESTR.CAVITY>
0.000985443

>  <SCORE.RESTR.norm>
9.85443e-05

>  <SCORE.SYSTEM>
0

>  <SCORE.SYSTEM.CONST>
0

>  <SCORE.SYSTEM.DIHEDRAL>
0

>  <SCORE.SYSTEM.SOLV>
0

>  <SCORE.SYSTEM.norm>
0

>  <SCORE.heavy>
10

>  <SCORE.norm>
-1.67168

>  <RMSD>
2.855

$$$$
ligand
 OpenBabel11021811423D
libRbt.so/2013.1/901 2013/11/27
 10 11  0  0  0  0  0  0  0  0999 V2000
   11.2272    8.5589   26.1305 N   0  0  0  0  0  0  0  0  0  0  0  0
   10.8886    9.8612   25.8065 C   0  0  0  0  0  0  0  0  0  0  0  0
   10.8475   10.8312   26.7279 N   0  0  0  0  0  0  0  0  0  0  0  0
   11.1707   10.3914   27.9872 C   0  0  0  0  0  0  0  0  0  0  0  0
   11.5142    9.1145   28.3676 C   0  0  0  0  0  0  0  0  0  0  0  0
   11.5610    8.0761   27.3965 C   0  0  0  0  0  0  0  0  0  0  0  0
   11.8415    6.8775   27.5233 O   0  0  0  0  0  0  0  0  0  0  0  0
   11.7602    9.1132   29.7159 N   0  0  0  0  0  0  0  0  0  0  0  0
   11.5693   10.3753   30.1450 C   0  0  0  0  0  0  0  0  0  0  0  0
   11.2027   11.1894   29.1031 N   0  0  0  0  0  0  0  0  0  0  0  0
  1  2  1  0  0  0  0
  1  6  1  0  0  0  0
  2  3  2  0  0  0  0
  3  4  1  0  0  0  0
  4  5  2  0  0  0  0
  4 10  1  0  0  0  0
  5  6  1  0  0  0  0
  5  8  1  0  0  0  0
  6  7  2  0  0  0  0
  8  9  1  0  0  0  0
  9 10  2  0  0  0  0
M  END
>  <CHROM.1>
11.36690866,9.39078336,27.88103281,1.55787137,1.29633108,-2.27406352

>  <Name>
ligand

>  <RI>
0

>  <Rbt.Current_Directory>
/home/itssahil/PROJECTS/Mol_Feturizer/New_Systems/rnas/2EET

>  <Rbt.Executable>
rbdock ($Id: //depot/dev/client3/rdock/2013.1/src/exe/rbdock.cxx#4 $)

>  <Rbt.Library>
libRbt.so (2013.1, Build901 2013/11/27)

>  <Rbt.Parameter_File>
/export/apps/rDock/src/rDock_2013.1_src/data/scripts/dock_solv.prm

>  <Rbt.Receptor>
prm/pocket_docking_6.prm

>  <SCORE>
-16.679

>  <SCORE.INTER>
-16.679

>  <SCORE.INTER.CONST>
1

>  <SCORE.INTER.POLAR>
0

>  <SCORE.INTER.ROT>
0

>  <SCORE.INTER.SOLV>
3.69768

>  <SCORE.INTER.VDW>
-15.9519

>  <SCORE.INTER.norm>
-1.6679

>  <SCORE.INTRA>
0

>  <SCORE.INTRA.DIHEDRAL>
0

>  <SCORE.INTRA.DIHEDRAL.0>
0

>  <SCORE.INTRA.POLAR>
0

>  <SCORE.INTRA.POLAR.0>
0

>  <SCORE.INTRA.REPUL>
0

>  <SCORE.INTRA.REPUL.0>
0

>  <SCORE.INTRA.SOLV>
0

>  <SCORE.INTRA.SOLV.lig_0>
-4.28464

>  <SCORE.INTRA.VDW>
0

>  <SCORE.INTRA.VDW.0>
0

>  <SCORE.INTRA.norm>
0

>  <SCORE.RESTR>
3.01382e-05

>  <SCORE.RESTR.CAVITY>
3.01382e-05

>  <SCORE.RESTR.norm>
3.01382e-06

>  <SCORE.SYSTEM>
0

>  <SCORE.SYSTEM.CONST>
0

>  <SCORE.SYSTEM.DIHEDRAL>
0

>  <SCORE.SYSTEM.SOLV>
0

>  <SCORE.SYSTEM.norm>
0

>  <SCORE.heavy>
10

>  <SCORE.norm>
-1.6679

>  <RMSD>
2.855

$$$$
ligand
 OpenBabel11021811423D
libRbt.so/2013.1/901 2013/11/27
 10 11  0  0  0  0  0  0  0  0999 V2000
   11.2277    8.5473   26.1513 N   0  0  0  0  0  0  0  0  0  0  0  0
   10.8684    9.8461   25.8353 C   0  0  0  0  0  0  0  0  0  0  0  0
   10.8302   10.8138   26.7593 N   0  0  0  0  0  0  0  0  0  0  0  0
   11.1785   10.3755   28.0124 C   0  0  0  0  0  0  0  0  0  0  0  0
   11.5431    9.1022   28.3847 C   0  0  0  0  0  0  0  0  0  0  0  0
   11.5871    8.0663   27.4108 C   0  0  0  0  0  0  0  0  0  0  0  0
   11.8839    6.8709   27.5307 O   0  0  0  0  0  0  0  0  0  0  0  0
   11.8104    9.1013   29.7290 N   0  0  0  0  0  0  0  0  0  0  0  0
   11.6112   10.3602   30.1637 C   0  0  0  0  0  0  0  0  0  0  0  0
   11.2186   11.1718   29.1293 N   0  0  0  0  0  0  0  0  0  0  0  0
  1  2  1  0  0  0  0
  1  6  1  0  0  0  0
  2  3  2  0  0  0  0
  3  4  1  0  0  0  0
  4  5  2  0  0  0  0
  4 10  1  0  0  0  0
  5  6  1  0  0  0  0
  5  8  1  0  0  0  0
  6  7  2  0  0  0  0
  8  9  1  0  0  0  0
  9 10  2  0  0  0  0
M  END
>  <CHROM.1>
11.38494371,9.37759036,27.90108123,1.57266491,1.27698544,-2.28628415

>  <Name>
ligand

>  <RI>
0

>  <Rbt.Current_Directory>
/home/itssahil/PROJECTS/Mol_Feturizer/New_Systems/rnas/2EET

>  <Rbt.Executable>
rbdock ($Id: //depot/dev/client3/rdock/2013.1/src/exe/rbdock.cxx#4 $)

>  <Rbt.Library>
libRbt.so (2013.1, Build901 2013/11/27)

>  <Rbt.Parameter_File>
/export/apps/rDock/src/rDock_2013.1_src/data/scripts/dock_solv.prm

>  <Rbt.Receptor>
prm/pocket_docking_6.prm

>  <SCORE>
-16.7176

>  <SCORE.INTER>
-16.7177

>  <SCORE.INTER.CONST>
1

>  <SCORE.INTER.POLAR>
0

>  <SCORE.INTER.ROT>
0

>  <SCORE.INTER.SOLV>
3.64237

>  <SCORE.INTER.VDW>
-15.9593

>  <SCORE.INTER.norm>
-1.67177

>  <SCORE.INTRA>
0

>  <SCORE.INTRA.DIHEDRAL>
0

>  <SCORE.INTRA.DIHEDRAL.0>
0

>  <SCORE.INTRA.POLAR>
0

>  <SCORE.INTRA.POLAR.0>
0

>  <SCORE.INTRA.REPUL>
0

>  <SCORE.INTRA.REPUL.0>
0

>  <SCORE.INTRA.SOLV>
0

>  <SCORE.INTRA.SOLV.lig_0>
-4.28464

>  <SCORE.INTRA.VDW>
0

>  <SCORE.INTRA.VDW.0>
0

>  <SCORE.INTRA.norm>
0

>  <SCORE.RESTR>
0.000118968

>  <SCORE.RESTR.CAVITY>
0.000118968

>  <SCORE.RESTR.norm>
1.18968e-05

>  <SCORE.SYSTEM>
0

>  <SCORE.SYSTEM.CONST>
0

>  <SCORE.SYSTEM.DIHEDRAL>
0

>  <SCORE.SYSTEM.SOLV>
0

>  <SCORE.SYSTEM.norm>
0

>  <SCORE.heavy>
10

>  <SCORE.norm>
-1.67176

>  <RMSD>
2.855

$$$$
ligand
 OpenBabel11021811423D
libRbt.so/2013.1/901 2013/11/27
 10 11  0  0  0  0  0  0  0  0999 V2000
   11.2168    8.5542   26.1546 N   0  0  0  0  0  0  0  0  0  0  0  0
   10.8737    9.8564   25.8352 C   0  0  0  0  0  0  0  0  0  0  0  0
   10.8389   10.8251   26.7583 N   0  0  0  0  0  0  0  0  0  0  0  0
   11.1729   10.3840   28.0143 C   0  0  0  0  0  0  0  0  0  0  0  0
   11.5212    9.1071   28.3901 C   0  0  0  0  0  0  0  0  0  0  0  0
   11.5616    8.0702   27.4172 C   0  0  0  0  0  0  0  0  0  0  0  0
   11.8448    6.8717   27.5400 O   0  0  0  0  0  0  0  0  0  0  0  0
   11.7783    9.1043   29.7363 N   0  0  0  0  0  0  0  0  0  0  0  0
   11.5892   10.3656   30.1688 C   0  0  0  0  0  0  0  0  0  0  0  0
   11.2130   11.1806   29.1310 N   0  0  0  0  0  0  0  0  0  0  0  0
  1  2  1  0  0  0  0
  1  6  1  0  0  0  0
  2  3  2  0  0  0  0
  3  4  1  0  0  0  0
  4  5  2  0  0  0  0
  4 10  1  0  0  0  0
  5  6  1  0  0  0  0
  5  8  1  0  0  0  0
  6  7  2  0  0  0  0
  8  9  1  0  0  0  0
  9 10  2  0  0  0  0
M  END
>  <CHROM.1>
11.36965079,9.38386312,27.90511601,1.57713155,1.28995944,-2.29119633

>  <Name>
ligand

>  <RI>
0

>  <Rbt.Current_Directory>
/home/itssahil/PROJECTS/Mol_Feturizer/New_Systems/rnas/2EET

>  <Rbt.Executable>
rbdock ($Id: //depot/dev/client3/rdock/2013.1/src/exe/rbdock.cxx#4 $)

>  <Rbt.Library>
libRbt.so (2013.1, Build901 2013/11/27)

>  <Rbt.Parameter_File>
/export/apps/rDock/src/rDock_2013.1_src/data/scripts/dock_solv.prm

>  <Rbt.Receptor>
prm/pocket_docking_7.prm

>  <SCORE>
-16.7447

>  <SCORE.INTER>
-16.7488

>  <SCORE.INTER.CONST>
1

>  <SCORE.INTER.POLAR>
0

>  <SCORE.INTER.ROT>
0

>  <SCORE.INTER.SOLV>
3.69369

>  <SCORE.INTER.VDW>
-15.9971

>  <SCORE.INTER.norm>
-1.67488

>  <SCORE.INTRA>
0

>  <SCORE.INTRA.DIHEDRAL>
0

>  <SCORE.INTRA.DIHEDRAL.0>
0

>  <SCORE.INTRA.POLAR>
0

>  <SCORE.INTRA.POLAR.0>
0

>  <SCORE.INTRA.REPUL>
0

>  <SCORE.INTRA.REPUL.0>
0

>  <SCORE.INTRA.SOLV>
0

>  <SCORE.INTRA.SOLV.lig_0>
-4.28464

>  <SCORE.INTRA.VDW>
0

>  <SCORE.INTRA.VDW.0>
0

>  <SCORE.INTRA.norm>
0

>  <SCORE.RESTR>
0.00408253

>  <SCORE.RESTR.CAVITY>
0.00408253

>  <SCORE.RESTR.norm>
0.000408253

>  <SCORE.SYSTEM>
0

>  <SCORE.SYSTEM.CONST>
0

>  <SCORE.SYSTEM.DIHEDRAL>
0

>  <SCORE.SYSTEM.SOLV>
0

>  <SCORE.SYSTEM.norm>
0

>  <SCORE.heavy>
10

>  <SCORE.norm>
-1.67447

>  <RMSD>
2.855

$$$$
ligand
 OpenBabel11021811423D
libRbt.so/2013.1/901 2013/11/27
 10 11  0  0  0  0  0  0  0  0999 V2000
   11.2104    8.5522   26.1469 N   0  0  0  0  0  0  0  0  0  0  0  0
   10.8556    9.8529   25.8340 C   0  0  0  0  0  0  0  0  0  0  0  0
   10.8261   10.8198   26.7592 N   0  0  0  0  0  0  0  0  0  0  0  0
   11.1780   10.3785   28.0102 C   0  0  0  0  0  0  0  0  0  0  0  0
   11.5386    9.1031   28.3795 C   0  0  0  0  0  0  0  0  0  0  0  0
   11.5734    8.0681   27.4043 C   0  0  0  0  0  0  0  0  0  0  0  0
   11.8654    6.8712   27.5215 O   0  0  0  0  0  0  0  0  0  0  0  0
   11.8120    9.0995   29.7225 N   0  0  0  0  0  0  0  0  0  0  0  0
   11.6206   10.3589   30.1594 C   0  0  0  0  0  0  0  0  0  0  0  0
   11.2269   11.1734   29.1278 N   0  0  0  0  0  0  0  0  0  0  0  0
  1  2  1  0  0  0  0
  1  6  1  0  0  0  0
  2  3  2  0  0  0  0
  3  4  1  0  0  0  0
  4  5  2  0  0  0  0
  4 10  1  0  0  0  0
  5  6  1  0  0  0  0
  5  8  1  0  0  0  0
  6  7  2  0  0  0  0
  8  9  1  0  0  0  0
  9 10  2  0  0  0  0
M  END
>  <CHROM.1>
11.37948696,9.37977833,27.89684612,1.59487972,1.27734865,-2.30645819

>  <Name>
ligand

>  <RI>
0

>  <Rbt.Current_Directory>
/home/itssahil/PROJECTS/Mol_Feturizer/New_Systems/rnas/2EET

>  <Rbt.Executable>
rbdock ($Id: //depot/dev/client3/rdock/2013.1/src/exe/rbdock.cxx#4 $)

>  <Rbt.Library>
libRbt.so (2013.1, Build901 2013/11/27)

>  <Rbt.Parameter_File>
/export/apps/rDock/src/rDock_2013.1_src/data/scripts/dock_solv.prm

>  <Rbt.Receptor>
prm/pocket_docking_3.prm

>  <SCORE>
-16.7225

>  <SCORE.INTER>
-16.7253

>  <SCORE.INTER.CONST>
1

>  <SCORE.INTER.POLAR>
0

>  <SCORE.INTER.ROT>
0

>  <SCORE.INTER.SOLV>
3.66701

>  <SCORE.INTER.VDW>
-15.9726

>  <SCORE.INTER.norm>
-1.67253

>  <SCORE.INTRA>
0

>  <SCORE.INTRA.DIHEDRAL>
0

>  <SCORE.INTRA.DIHEDRAL.0>
0

>  <SCORE.INTRA.POLAR>
0

>  <SCORE.INTRA.POLAR.0>
0

>  <SCORE.INTRA.REPUL>
0

>  <SCORE.INTRA.REPUL.0>
0

>  <SCORE.INTRA.SOLV>
0

>  <SCORE.INTRA.SOLV.lig_0>
-4.28464

>  <SCORE.INTRA.VDW>
0

>  <SCORE.INTRA.VDW.0>
0

>  <SCORE.INTRA.norm>
0

>  <SCORE.RESTR>
0.00287532

>  <SCORE.RESTR.CAVITY>
0.00287532

>  <SCORE.RESTR.norm>
0.000287532

>  <SCORE.SYSTEM>
0

>  <SCORE.SYSTEM.CONST>
0

>  <SCORE.SYSTEM.DIHEDRAL>
0

>  <SCORE.SYSTEM.SOLV>
0

>  <SCORE.SYSTEM.norm>
0

>  <SCORE.heavy>
10

>  <SCORE.norm>
-1.67225

>  <RMSD>
2.856

$$$$
ligand
 OpenBabel11021811423D
libRbt.so/2013.1/901 2013/11/27
 10 11  0  0  0  0  0  0  0  0999 V2000
   11.1899    8.5583   26.1488 N   0  0  0  0  0  0  0  0  0  0  0  0
   10.8481    9.8613   25.8314 C   0  0  0  0  0  0  0  0  0  0  0  0
   10.8199   10.8299   26.7548 N   0  0  0  0  0  0  0  0  0  0  0  0
   11.1593   10.3879   28.0090 C   0  0  0  0  0  0  0  0  0  0  0  0
   11.5067    9.1101   28.3829 C   0  0  0  0  0  0  0  0  0  0  0  0
   11.5400    8.0733   27.4095 C   0  0  0  0  0  0  0  0  0  0  0  0
   11.8212    6.8742   27.5307 O   0  0  0  0  0  0  0  0  0  0  0  0
   11.7705    9.1065   29.7277 N   0  0  0  0  0  0  0  0  0  0  0  0
   11.5863   10.3681   30.1614 C   0  0  0  0  0  0  0  0  0  0  0  0
   11.2066   11.1841   29.1256 N   0  0  0  0  0  0  0  0  0  0  0  0
  1  2  1  0  0  0  0
  1  6  1  0  0  0  0
  2  3  2  0  0  0  0
  3  4  1  0  0  0  0
  4  5  2  0  0  0  0
  4 10  1  0  0  0  0
  5  6  1  0  0  0  0
  5  8  1  0  0  0  0
  6  7  2  0  0  0  0
  8  9  1  0  0  0  0
  9 10  2  0  0  0  0
M  END
>  <CHROM.1>
11.35330192,9.38730086,27.89865655,1.59568414,1.28821810,-2.30883379

>  <Name>
ligand

>  <RI>
0

>  <Rbt.Current_Directory>
/home/itssahil/PROJECTS/Mol_Feturizer/New_Systems/rnas/2EET

>  <Rbt.Executable>
rbdock ($Id: //depot/dev/client3/rdock/2013.1/src/exe/rbdock.cxx#4 $)

>  <Rbt.Library>
libRbt.so (2013.1, Build901 2013/11/27)

>  <Rbt.Parameter_File>
/export/apps/rDock/src/rDock_2013.1_src/data/scripts/dock_solv.prm

>  <Rbt.Receptor>
prm/pocket_docking_7.prm

>  <SCORE>
-16.7428

>  <SCORE.INTER>
-16.746

>  <SCORE.INTER.CONST>
1

>  <SCORE.INTER.POLAR>
0

>  <SCORE.INTER.ROT>
0

>  <SCORE.INTER.SOLV>
3.7268

>  <SCORE.INTER.VDW>
-16.0063

>  <SCORE.INTER.norm>
-1.6746

>  <SCORE.INTRA>
0

>  <SCORE.INTRA.DIHEDRAL>
0

>  <SCORE.INTRA.DIHEDRAL.0>
0

>  <SCORE.INTRA.POLAR>
0

>  <SCORE.INTRA.POLAR.0>
0

>  <SCORE.INTRA.REPUL>
0

>  <SCORE.INTRA.REPUL.0>
0

>  <SCORE.INTRA.SOLV>
0

>  <SCORE.INTRA.SOLV.lig_0>
-4.28464

>  <SCORE.INTRA.VDW>
0

>  <SCORE.INTRA.VDW.0>
0

>  <SCORE.INTRA.norm>
0

>  <SCORE.RESTR>
0.00323028

>  <SCORE.RESTR.CAVITY>
0.00323028

>  <SCORE.RESTR.norm>
0.000323028

>  <SCORE.SYSTEM>
0

>  <SCORE.SYSTEM.CONST>
0

>  <SCORE.SYSTEM.DIHEDRAL>
0

>  <SCORE.SYSTEM.SOLV>
0

>  <SCORE.SYSTEM.norm>
0

>  <SCORE.heavy>
10

>  <SCORE.norm>
-1.67428

>  <RMSD>
2.856

$$$$
ligand
 OpenBabel11021811423D
libRbt.so/2013.1/901 2013/11/27
 10 11  0  0  0  0  0  0  0  0999 V2000
   11.2475    8.5703   26.1609 N   0  0  0  0  0  0  0  0  0  0  0  0
   10.9111    9.8780   25.8568 C   0  0  0  0  0  0  0  0  0  0  0  0
   10.8717   10.8339   26.7930 N   0  0  0  0  0  0  0  0  0  0  0  0
   11.1943   10.3743   28.0453 C   0  0  0  0  0  0  0  0  0  0  0  0
   11.5356    9.0912   28.4062 C   0  0  0  0  0  0  0  0  0  0  0  0
   11.5806    8.0677   27.4193 C   0  0  0  0  0  0  0  0  0  0  0  0
   11.8590    6.8668   27.5277 O   0  0  0  0  0  0  0  0  0  0  0  0
   11.7818    9.0689   29.7542 N   0  0  0  0  0  0  0  0  0  0  0  0
   11.5931   10.3246   30.2026 C   0  0  0  0  0  0  0  0  0  0  0  0
   11.2278   11.1552   29.1733 N   0  0  0  0  0  0  0  0  0  0  0  0
  1  2  1  0  0  0  0
  1  6  1  0  0  0  0
  2  3  2  0  0  0  0
  3  4  1  0  0  0  0
  4  5  2  0  0  0  0
  4 10  1  0  0  0  0
  5  6  1  0  0  0  0
  5  8  1  0  0  0  0
  6  7  2  0  0  0  0
  8  9  1  0  0  0  0
  9 10  2  0  0  0  0
M  END
>  <CHROM.1>
11.38878331,9.37514404,27.92387420,1.56228826,1.29758491,-2.26303997

>  <Name>
ligand

>  <RI>
0

>  <Rbt.Current_Directory>
/home/itssahil/PROJECTS/Mol_Feturizer/New_Systems/rnas/2EET

>  <Rbt.Executable>
rbdock ($Id: //depot/dev/client3/rdock/2013.1/src/exe/rbdock.cxx#4 $)

>  <Rbt.Library>
libRbt.so (2013.1, Build901 2013/11/27)

>  <Rbt.Parameter_File>
/export/apps/rDock/src/rDock_2013.1_src/data/scripts/dock_solv.prm

>  <Rbt.Receptor>
prm/blind_docking_60.prm

>  <SCORE>
-16.7336

>  <SCORE.INTER>
-16.7336

>  <SCORE.INTER.CONST>
1

>  <SCORE.INTER.POLAR>
0

>  <SCORE.INTER.ROT>
0

>  <SCORE.INTER.SOLV>
3.68004

>  <SCORE.INTER.VDW>
-15.9824

>  <SCORE.INTER.norm>
-1.67336

>  <SCORE.INTRA>
0

>  <SCORE.INTRA.DIHEDRAL>
0

>  <SCORE.INTRA.DIHEDRAL.0>
0

>  <SCORE.INTRA.POLAR>
0

>  <SCORE.INTRA.POLAR.0>
0

>  <SCORE.INTRA.REPUL>
0

>  <SCORE.INTRA.REPUL.0>
0

>  <SCORE.INTRA.SOLV>
0

>  <SCORE.INTRA.SOLV.lig_0>
-4.28464

>  <SCORE.INTRA.VDW>
0

>  <SCORE.INTRA.VDW.0>
0

>  <SCORE.INTRA.norm>
0

>  <SCORE.RESTR>
0

>  <SCORE.RESTR.CAVITY>
0

>  <SCORE.RESTR.norm>
0

>  <SCORE.SYSTEM>
0

>  <SCORE.SYSTEM.CONST>
0

>  <SCORE.SYSTEM.DIHEDRAL>
0

>  <SCORE.SYSTEM.SOLV>
0

>  <SCORE.SYSTEM.norm>
0

>  <SCORE.heavy>
10

>  <SCORE.norm>
-1.67336

>  <RMSD>
2.857

$$$$
ligand
 OpenBabel11021811423D
libRbt.so/2013.1/901 2013/11/27
 10 11  0  0  0  0  0  0  0  0999 V2000
   11.2465    8.5662   26.1635 N   0  0  0  0  0  0  0  0  0  0  0  0
   10.9088    9.8724   25.8545 C   0  0  0  0  0  0  0  0  0  0  0  0
   10.8662   10.8313   26.7875 N   0  0  0  0  0  0  0  0  0  0  0  0
   11.1868   10.3762   28.0420 C   0  0  0  0  0  0  0  0  0  0  0  0
   11.5292    9.0947   28.4077 C   0  0  0  0  0  0  0  0  0  0  0  0
   11.5777    8.0681   27.4242 C   0  0  0  0  0  0  0  0  0  0  0  0
   11.8576    6.8680   27.5371 O   0  0  0  0  0  0  0  0  0  0  0  0
   11.7726    9.0770   29.7563 N   0  0  0  0  0  0  0  0  0  0  0  0
   11.5813   10.3340   30.2003 C   0  0  0  0  0  0  0  0  0  0  0  0
   11.2170   11.1607   29.1675 N   0  0  0  0  0  0  0  0  0  0  0  0
  1  2  1  0  0  0  0
  1  6  1  0  0  0  0
  2  3  2  0  0  0  0
  3  4  1  0  0  0  0
  4  5  2  0  0  0  0
  4 10  1  0  0  0  0
  5  6  1  0  0  0  0
  5  8  1  0  0  0  0
  6  7  2  0  0  0  0
  8  9  1  0  0  0  0
  9 10  2  0  0  0  0
M  END
>  <CHROM.1>
11.38298994,9.37687453,27.92416252,1.55304286,1.29779683,-2.25734410

>  <Name>
ligand

>  <RI>
0

>  <Rbt.Current_Directory>
/home/itssahil/PROJECTS/Mol_Feturizer/New_Systems/rnas/2EET

>  <Rbt.Executable>
rbdock ($Id: //depot/dev/client3/rdock/2013.1/src/exe/rbdock.cxx#4 $)

>  <Rbt.Library>
libRbt.so (2013.1, Build901 2013/11/27)

>  <Rbt.Parameter_File>
/export/apps/rDock/src/rDock_2013.1_src/data/scripts/dock_solv.prm

>  <Rbt.Receptor>
prm/pocket_docking_5.prm

>  <SCORE>
-16.7015

>  <SCORE.INTER>
-16.7017

>  <SCORE.INTER.CONST>
1

>  <SCORE.INTER.POLAR>
0

>  <SCORE.INTER.ROT>
0

>  <SCORE.INTER.SOLV>
3.68158

>  <SCORE.INTER.VDW>
-15.9616

>  <SCORE.INTER.norm>
-1.67017

>  <SCORE.INTRA>
0

>  <SCORE.INTRA.DIHEDRAL>
0

>  <SCORE.INTRA.DIHEDRAL.0>
0

>  <SCORE.INTRA.POLAR>
0

>  <SCORE.INTRA.POLAR.0>
0

>  <SCORE.INTRA.REPUL>
0

>  <SCORE.INTRA.REPUL.0>
0

>  <SCORE.INTRA.SOLV>
0

>  <SCORE.INTRA.SOLV.lig_0>
-4.28464

>  <SCORE.INTRA.VDW>
0

>  <SCORE.INTRA.VDW.0>
0

>  <SCORE.INTRA.norm>
0

>  <SCORE.RESTR>
0.000197698

>  <SCORE.RESTR.CAVITY>
0.000197698

>  <SCORE.RESTR.norm>
1.97698e-05

>  <SCORE.SYSTEM>
0

>  <SCORE.SYSTEM.CONST>
0

>  <SCORE.SYSTEM.DIHEDRAL>
0

>  <SCORE.SYSTEM.SOLV>
0

>  <SCORE.SYSTEM.norm>
0

>  <SCORE.heavy>
10

>  <SCORE.norm>
-1.67015

>  <RMSD>
2.857

$$$$
ligand
 OpenBabel11021811423D
libRbt.so/2013.1/901 2013/11/27
 10 11  0  0  0  0  0  0  0  0999 V2000
   11.1941    8.5731   26.0957 N   0  0  0  0  0  0  0  0  0  0  0  0
   10.8507    9.8794   25.7935 C   0  0  0  0  0  0  0  0  0  0  0  0
   10.8390   10.8409   26.7246 N   0  0  0  0  0  0  0  0  0  0  0  0
   11.1964   10.3884   27.9700 C   0  0  0  0  0  0  0  0  0  0  0  0
   11.5463    9.1070   28.3288 C   0  0  0  0  0  0  0  0  0  0  0  0
   11.5621    8.0776   27.3472 C   0  0  0  0  0  0  0  0  0  0  0  0
   11.8421    6.8770   27.4550 O   0  0  0  0  0  0  0  0  0  0  0  0
   11.8306    9.0925   29.6694 N   0  0  0  0  0  0  0  0  0  0  0  0
   11.6562   10.3511   30.1154 C   0  0  0  0  0  0  0  0  0  0  0  0
   11.2629   11.1760   29.0919 N   0  0  0  0  0  0  0  0  0  0  0  0
  1  2  1  0  0  0  0
  1  6  1  0  0  0  0
  2  3  2  0  0  0  0
  3  4  1  0  0  0  0
  4  5  2  0  0  0  0
  4 10  1  0  0  0  0
  5  6  1  0  0  0  0
  5  8  1  0  0  0  0
  6  7  2  0  0  0  0
  8  9  1  0  0  0  0
  9 10  2  0  0  0  0
M  END
>  <CHROM.1>
11.38623409,9.38827475,27.84914793,1.64097968,1.27953204,-2.34463385

>  <Name>
ligand

>  <RI>
0

>  <Rbt.Current_Directory>
/home/itssahil/PROJECTS/Mol_Feturizer/New_Systems/rnas/2EET

>  <Rbt.Executable>
rbdock ($Id: //depot/dev/client3/rdock/2013.1/src/exe/rbdock.cxx#4 $)

>  <Rbt.Library>
libRbt.so (2013.1, Build901 2013/11/27)

>  <Rbt.Parameter_File>
/export/apps/rDock/src/rDock_2013.1_src/data/scripts/dock_solv.prm

>  <Rbt.Receptor>
prm/pocket_docking_7.prm

>  <SCORE>
-16.7267

>  <SCORE.INTER>
-16.7346

>  <SCORE.INTER.CONST>
1

>  <SCORE.INTER.POLAR>
0

>  <SCORE.INTER.ROT>
0

>  <SCORE.INTER.SOLV>
3.69447

>  <SCORE.INTER.VDW>
-15.9879

>  <SCORE.INTER.norm>
-1.67346

>  <SCORE.INTRA>
0

>  <SCORE.INTRA.DIHEDRAL>
0

>  <SCORE.INTRA.DIHEDRAL.0>
0

>  <SCORE.INTRA.POLAR>
0

>  <SCORE.INTRA.POLAR.0>
0

>  <SCORE.INTRA.REPUL>
0

>  <SCORE.INTRA.REPUL.0>
0

>  <SCORE.INTRA.SOLV>
0

>  <SCORE.INTRA.SOLV.lig_0>
-4.28464

>  <SCORE.INTRA.VDW>
0

>  <SCORE.INTRA.VDW.0>
0

>  <SCORE.INTRA.norm>
0

>  <SCORE.RESTR>
0.00785863

>  <SCORE.RESTR.CAVITY>
0.00785863

>  <SCORE.RESTR.norm>
0.000785863

>  <SCORE.SYSTEM>
0

>  <SCORE.SYSTEM.CONST>
0

>  <SCORE.SYSTEM.DIHEDRAL>
0

>  <SCORE.SYSTEM.SOLV>
0

>  <SCORE.SYSTEM.norm>
0

>  <SCORE.heavy>
10

>  <SCORE.norm>
-1.67267

>  <RMSD>
2.859

$$$$
ligand
 OpenBabel11021811423D
libRbt.so/2013.1/901 2013/11/27
 10 11  0  0  0  0  0  0  0  0999 V2000
   11.2395    8.5721   26.1487 N   0  0  0  0  0  0  0  0  0  0  0  0
   10.9008    9.8827   25.8601 C   0  0  0  0  0  0  0  0  0  0  0  0
   10.8831   10.8325   26.8032 N   0  0  0  0  0  0  0  0  0  0  0  0
   11.2296   10.3637   28.0457 C   0  0  0  0  0  0  0  0  0  0  0  0
   11.5743    9.0773   28.3911 C   0  0  0  0  0  0  0  0  0  0  0  0
   11.5964    8.0603   27.3968 C   0  0  0  0  0  0  0  0  0  0  0  0
   11.8735    6.8579   27.4918 O   0  0  0  0  0  0  0  0  0  0  0  0
   11.8476    9.0454   29.7338 N   0  0  0  0  0  0  0  0  0  0  0  0
   11.6717   10.2987   30.1941 C   0  0  0  0  0  0  0  0  0  0  0  0
   11.2881   11.1370   29.1779 N   0  0  0  0  0  0  0  0  0  0  0  0
  1  2  1  0  0  0  0
  1  6  1  0  0  0  0
  2  3  2  0  0  0  0
  3  4  1  0  0  0  0
  4  5  2  0  0  0  0
  4 10  1  0  0  0  0
  5  6  1  0  0  0  0
  5  8  1  0  0  0  0
  6  7  2  0  0  0  0
  8  9  1  0  0  0  0
  9 10  2  0  0  0  0
M  END
>  <CHROM.1>
11.41865489,9.36486127,27.91376175,1.62428164,1.28642166,-2.31604407

>  <Name>
ligand

>  <RI>
0

>  <Rbt.Current_Directory>
/home/itssahil/PROJECTS/Mol_Feturizer/New_Systems/rnas/2EET

>  <Rbt.Executable>
rbdock ($Id: //depot/dev/client3/rdock/2013.1/src/exe/rbdock.cxx#4 $)

>  <Rbt.Library>
libRbt.so (2013.1, Build901 2013/11/27)

>  <Rbt.Parameter_File>
/export/apps/rDock/src/rDock_2013.1_src/data/scripts/dock_solv.prm

>  <Rbt.Receptor>
prm/blind_docking_100.prm

>  <SCORE>
-16.6983

>  <SCORE.INTER>
-16.6983

>  <SCORE.INTER.CONST>
1

>  <SCORE.INTER.POLAR>
0

>  <SCORE.INTER.ROT>
0

>  <SCORE.INTER.SOLV>
3.65514

>  <SCORE.INTER.VDW>
-15.9506

>  <SCORE.INTER.norm>
-1.66983

>  <SCORE.INTRA>
0

>  <SCORE.INTRA.DIHEDRAL>
0

>  <SCORE.INTRA.DIHEDRAL.0>
0

>  <SCORE.INTRA.POLAR>
0

>  <SCORE.INTRA.POLAR.0>
0

>  <SCORE.INTRA.REPUL>
0

>  <SCORE.INTRA.REPUL.0>
0

>  <SCORE.INTRA.SOLV>
0

>  <SCORE.INTRA.SOLV.lig_0>
-4.28464

>  <SCORE.INTRA.VDW>
0

>  <SCORE.INTRA.VDW.0>
0

>  <SCORE.INTRA.norm>
0

>  <SCORE.RESTR>
0

>  <SCORE.RESTR.CAVITY>
0

>  <SCORE.RESTR.norm>
0

>  <SCORE.SYSTEM>
0

>  <SCORE.SYSTEM.CONST>
0

>  <SCORE.SYSTEM.DIHEDRAL>
0

>  <SCORE.SYSTEM.SOLV>
0

>  <SCORE.SYSTEM.norm>
0

>  <SCORE.heavy>
10

>  <SCORE.norm>
-1.66983

>  <RMSD>
2.860

$$$$
ligand
 OpenBabel11021811423D
libRbt.so/2013.1/901 2013/11/27
 10 11  0  0  0  0  0  0  0  0999 V2000
   11.1649    8.5934   26.1017 N   0  0  0  0  0  0  0  0  0  0  0  0
   10.8455    9.9023   25.7849 C   0  0  0  0  0  0  0  0  0  0  0  0
   10.8279   10.8696   26.7099 N   0  0  0  0  0  0  0  0  0  0  0  0
   11.1537   10.4201   27.9650 C   0  0  0  0  0  0  0  0  0  0  0  0
   11.4788    9.1363   28.3384 C   0  0  0  0  0  0  0  0  0  0  0  0
   11.5006    8.1007   27.3634 C   0  0  0  0  0  0  0  0  0  0  0  0
   11.7622    6.8972   27.4839 O   0  0  0  0  0  0  0  0  0  0  0  0
   11.7355    9.1262   29.6846 N   0  0  0  0  0  0  0  0  0  0  0  0
   11.5691   10.3898   30.1195 C   0  0  0  0  0  0  0  0  0  0  0  0
   11.2079   11.2135   29.0834 N   0  0  0  0  0  0  0  0  0  0  0  0
  1  2  1  0  0  0  0
  1  6  1  0  0  0  0
  2  3  2  0  0  0  0
  3  4  1  0  0  0  0
  4  5  2  0  0  0  0
  4 10  1  0  0  0  0
  5  6  1  0  0  0  0
  5  8  1  0  0  0  0
  6  7  2  0  0  0  0
  8  9  1  0  0  0  0
  9 10  2  0  0  0  0
M  END
>  <CHROM.1>
11.33233480,9.41672543,27.85390045,1.62160815,1.30339579,-2.33201505

>  <Name>
ligand

>  <RI>
0

>  <Rbt.Current_Directory>
/home/itssahil/PROJECTS/Mol_Feturizer/New_Systems/rnas/2EET

>  <Rbt.Executable>
rbdock ($Id: //depot/dev/client3/rdock/2013.1/src/exe/rbdock.cxx#4 $)

>  <Rbt.Library>
libRbt.so (2013.1, Build901 2013/11/27)

>  <Rbt.Parameter_File>
/export/apps/rDock/src/rDock_2013.1_src/data/scripts/dock_solv.prm

>  <Rbt.Receptor>
prm/blind_docking_80.prm

>  <SCORE>
-16.7547

>  <SCORE.INTER>
-16.7643

>  <SCORE.INTER.CONST>
1

>  <SCORE.INTER.POLAR>
0

>  <SCORE.INTER.ROT>
0

>  <SCORE.INTER.SOLV>
3.80212

>  <SCORE.INTER.VDW>
-16.0436

>  <SCORE.INTER.norm>
-1.67643

>  <SCORE.INTRA>
0

>  <SCORE.INTRA.DIHEDRAL>
0

>  <SCORE.INTRA.DIHEDRAL.0>
0

>  <SCORE.INTRA.POLAR>
0

>  <SCORE.INTRA.POLAR.0>
0

>  <SCORE.INTRA.REPUL>
0

>  <SCORE.INTRA.REPUL.0>
0

>  <SCORE.INTRA.SOLV>
0

>  <SCORE.INTRA.SOLV.lig_0>
-4.28464

>  <SCORE.INTRA.VDW>
0

>  <SCORE.INTRA.VDW.0>
0

>  <SCORE.INTRA.norm>
0

>  <SCORE.RESTR>
0.00956558

>  <SCORE.RESTR.CAVITY>
0.00956558

>  <SCORE.RESTR.norm>
0.000956558

>  <SCORE.SYSTEM>
0

>  <SCORE.SYSTEM.CONST>
0

>  <SCORE.SYSTEM.DIHEDRAL>
0

>  <SCORE.SYSTEM.SOLV>
0

>  <SCORE.SYSTEM.norm>
0

>  <SCORE.heavy>
10

>  <SCORE.norm>
-1.67547

>  <RMSD>
2.860

$$$$
ligand
 OpenBabel11021811423D
libRbt.so/2013.1/901 2013/11/27
 10 11  0  0  0  0  0  0  0  0999 V2000
   11.2056    8.6109   26.1004 N   0  0  0  0  0  0  0  0  0  0  0  0
   10.8712    9.9222   25.8099 C   0  0  0  0  0  0  0  0  0  0  0  0
   10.8423   10.8703   26.7544 N   0  0  0  0  0  0  0  0  0  0  0  0
   11.1728   10.3991   28.0003 C   0  0  0  0  0  0  0  0  0  0  0  0
   11.5126    9.1118   28.3477 C   0  0  0  0  0  0  0  0  0  0  0  0
   11.5465    8.0966   27.3519 C   0  0  0  0  0  0  0  0  0  0  0  0
   11.8218    6.8939   27.4481 O   0  0  0  0  0  0  0  0  0  0  0  0
   11.7689    9.0773   29.6936 N   0  0  0  0  0  0  0  0  0  0  0  0
   11.5879   10.3299   30.1540 C   0  0  0  0  0  0  0  0  0  0  0  0
   11.2176   11.1703   29.1345 N   0  0  0  0  0  0  0  0  0  0  0  0
  1  2  1  0  0  0  0
  1  6  1  0  0  0  0
  2  3  2  0  0  0  0
  3  4  1  0  0  0  0
  4  5  2  0  0  0  0
  4 10  1  0  0  0  0
  5  6  1  0  0  0  0
  5  8  1  0  0  0  0
  6  7  2  0  0  0  0
  8  9  1  0  0  0  0
  9 10  2  0  0  0  0
M  END
>  <CHROM.1>
11.36302917,9.40035518,27.86894398,1.59179017,1.29519843,-2.28299443

>  <Name>
ligand

>  <RI>
0

>  <Rbt.Current_Directory>
/home/itssahil/PROJECTS/Mol_Feturizer/New_Systems/rnas/2EET

>  <Rbt.Executable>
rbdock ($Id: //depot/dev/client3/rdock/2013.1/src/exe/rbdock.cxx#4 $)

>  <Rbt.Library>
libRbt.so (2013.1, Build901 2013/11/27)

>  <Rbt.Parameter_File>
/export/apps/rDock/src/rDock_2013.1_src/data/scripts/dock_solv.prm

>  <Rbt.Receptor>
prm/blind_docking_60.prm

>  <SCORE>
-16.6911

>  <SCORE.INTER>
-16.6911

>  <SCORE.INTER.CONST>
1

>  <SCORE.INTER.POLAR>
0

>  <SCORE.INTER.ROT>
0

>  <SCORE.INTER.SOLV>
3.73573

>  <SCORE.INTER.VDW>
-15.9726

>  <SCORE.INTER.norm>
-1.66911

>  <SCORE.INTRA>
0

>  <SCORE.INTRA.DIHEDRAL>
0

>  <SCORE.INTRA.DIHEDRAL.0>
0

>  <SCORE.INTRA.POLAR>
0

>  <SCORE.INTRA.POLAR.0>
0

>  <SCORE.INTRA.REPUL>
0

>  <SCORE.INTRA.REPUL.0>
0

>  <SCORE.INTRA.SOLV>
0

>  <SCORE.INTRA.SOLV.lig_0>
-4.28464

>  <SCORE.INTRA.VDW>
0

>  <SCORE.INTRA.VDW.0>
0

>  <SCORE.INTRA.norm>
0

>  <SCORE.RESTR>
0

>  <SCORE.RESTR.CAVITY>
0

>  <SCORE.RESTR.norm>
0

>  <SCORE.SYSTEM>
0

>  <SCORE.SYSTEM.CONST>
0

>  <SCORE.SYSTEM.DIHEDRAL>
0

>  <SCORE.SYSTEM.SOLV>
0

>  <SCORE.SYSTEM.norm>
0

>  <SCORE.heavy>
10

>  <SCORE.norm>
-1.66911

>  <RMSD>
2.861

$$$$
ligand
 OpenBabel11021811423D
libRbt.so/2013.1/901 2013/11/27
 10 11  0  0  0  0  0  0  0  0999 V2000
   11.1637    8.5922   26.0995 N   0  0  0  0  0  0  0  0  0  0  0  0
   10.8164    9.8999   25.8079 C   0  0  0  0  0  0  0  0  0  0  0  0
   10.8054   10.8545   26.7461 N   0  0  0  0  0  0  0  0  0  0  0  0
   11.1674   10.3936   27.9871 C   0  0  0  0  0  0  0  0  0  0  0  0
   11.5213    9.1104   28.3354 C   0  0  0  0  0  0  0  0  0  0  0  0
   11.5365    8.0883   27.3461 C   0  0  0  0  0  0  0  0  0  0  0  0
   11.8196    6.8876   27.4442 O   0  0  0  0  0  0  0  0  0  0  0  0
   11.8095    9.0866   29.6750 N   0  0  0  0  0  0  0  0  0  0  0  0
   11.6336   10.3415   30.1308 C   0  0  0  0  0  0  0  0  0  0  0  0
   11.2354   11.1730   29.1146 N   0  0  0  0  0  0  0  0  0  0  0  0
  1  2  1  0  0  0  0
  1  6  1  0  0  0  0
  2  3  2  0  0  0  0
  3  4  1  0  0  0  0
  4  5  2  0  0  0  0
  4 10  1  0  0  0  0
  5  6  1  0  0  0  0
  5  8  1  0  0  0  0
  6  7  2  0  0  0  0
  8  9  1  0  0  0  0
  9 10  2  0  0  0  0
M  END
>  <CHROM.1>
11.35915266,9.39481323,27.85827988,1.64271587,1.27585047,-2.33889267

>  <Name>
ligand

>  <RI>
0

>  <Rbt.Current_Directory>
/home/itssahil/PROJECTS/Mol_Feturizer/New_Systems/rnas/2EET

>  <Rbt.Executable>
rbdock ($Id: //depot/dev/client3/rdock/2013.1/src/exe/rbdock.cxx#4 $)

>  <Rbt.Library>
libRbt.so (2013.1, Build901 2013/11/27)

>  <Rbt.Parameter_File>
/export/apps/rDock/src/rDock_2013.1_src/data/scripts/dock_solv.prm

>  <Rbt.Receptor>
prm/pocket_docking_6.prm

>  <SCORE>
-16.7538

>  <SCORE.INTER>
-16.7562

>  <SCORE.INTER.CONST>
1

>  <SCORE.INTER.POLAR>
0

>  <SCORE.INTER.ROT>
0

>  <SCORE.INTER.SOLV>
3.73385

>  <SCORE.INTER.VDW>
-16.0154

>  <SCORE.INTER.norm>
-1.67562

>  <SCORE.INTRA>
0

>  <SCORE.INTRA.DIHEDRAL>
0

>  <SCORE.INTRA.DIHEDRAL.0>
0

>  <SCORE.INTRA.POLAR>
0

>  <SCORE.INTRA.POLAR.0>
0

>  <SCORE.INTRA.REPUL>
0

>  <SCORE.INTRA.REPUL.0>
0

>  <SCORE.INTRA.SOLV>
0

>  <SCORE.INTRA.SOLV.lig_0>
-4.28464

>  <SCORE.INTRA.VDW>
0

>  <SCORE.INTRA.VDW.0>
0

>  <SCORE.INTRA.norm>
0

>  <SCORE.RESTR>
0.00240948

>  <SCORE.RESTR.CAVITY>
0.00240948

>  <SCORE.RESTR.norm>
0.000240948

>  <SCORE.SYSTEM>
0

>  <SCORE.SYSTEM.CONST>
0

>  <SCORE.SYSTEM.DIHEDRAL>
0

>  <SCORE.SYSTEM.SOLV>
0

>  <SCORE.SYSTEM.norm>
0

>  <SCORE.heavy>
10

>  <SCORE.norm>
-1.67538

>  <RMSD>
2.861

$$$$
ligand
 OpenBabel11021811423D
libRbt.so/2013.1/901 2013/11/27
 10 11  0  0  0  0  0  0  0  0999 V2000
   11.1948    8.6122   26.0954 N   0  0  0  0  0  0  0  0  0  0  0  0
   10.8491    9.9224   25.8134 C   0  0  0  0  0  0  0  0  0  0  0  0
   10.8277   10.8676   26.7610 N   0  0  0  0  0  0  0  0  0  0  0  0
   11.1779   10.3947   28.0009 C   0  0  0  0  0  0  0  0  0  0  0  0
   11.5295    9.1084   28.3398 C   0  0  0  0  0  0  0  0  0  0  0  0
   11.5556    8.0962   27.3406 C   0  0  0  0  0  0  0  0  0  0  0  0
   11.8389    6.8948   27.4295 O   0  0  0  0  0  0  0  0  0  0  0  0
   11.8044    9.0714   29.6820 N   0  0  0  0  0  0  0  0  0  0  0  0
   11.6227   10.3216   30.1485 C   0  0  0  0  0  0  0  0  0  0  0  0
   11.2338   11.1628   29.1367 N   0  0  0  0  0  0  0  0  0  0  0  0
  1  2  1  0  0  0  0
  1  6  1  0  0  0  0
  2  3  2  0  0  0  0
  3  4  1  0  0  0  0
  4  5  2  0  0  0  0
  4 10  1  0  0  0  0
  5  6  1  0  0  0  0
  5  8  1  0  0  0  0
  6  7  2  0  0  0  0
  8  9  1  0  0  0  0
  9 10  2  0  0  0  0
M  END
>  <CHROM.1>
11.37185889,9.39738580,27.86398897,1.61510742,1.28195178,-2.30247522

>  <Name>
ligand

>  <RI>
0

>  <Rbt.Current_Directory>
/home/itssahil/PROJECTS/Mol_Feturizer/New_Systems/rnas/2EET

>  <Rbt.Executable>
rbdock ($Id: //depot/dev/client3/rdock/2013.1/src/exe/rbdock.cxx#4 $)

>  <Rbt.Library>
libRbt.so (2013.1, Build901 2013/11/27)

>  <Rbt.Parameter_File>
/export/apps/rDock/src/rDock_2013.1_src/data/scripts/dock_solv.prm

>  <Rbt.Receptor>
prm/blind_docking_40.prm

>  <SCORE>
-16.7547

>  <SCORE.INTER>
-16.7547

>  <SCORE.INTER.CONST>
1

>  <SCORE.INTER.POLAR>
0

>  <SCORE.INTER.ROT>
0

>  <SCORE.INTER.SOLV>
3.71621

>  <SCORE.INTER.VDW>
-16.0085

>  <SCORE.INTER.norm>
-1.67547

>  <SCORE.INTRA>
0

>  <SCORE.INTRA.DIHEDRAL>
0

>  <SCORE.INTRA.DIHEDRAL.0>
0

>  <SCORE.INTRA.POLAR>
0

>  <SCORE.INTRA.POLAR.0>
0

>  <SCORE.INTRA.REPUL>
0

>  <SCORE.INTRA.REPUL.0>
0

>  <SCORE.INTRA.SOLV>
0

>  <SCORE.INTRA.SOLV.lig_0>
-4.28464

>  <SCORE.INTRA.VDW>
0

>  <SCORE.INTRA.VDW.0>
0

>  <SCORE.INTRA.norm>
0

>  <SCORE.RESTR>
0

>  <SCORE.RESTR.CAVITY>
0

>  <SCORE.RESTR.norm>
0

>  <SCORE.SYSTEM>
0

>  <SCORE.SYSTEM.CONST>
0

>  <SCORE.SYSTEM.DIHEDRAL>
0

>  <SCORE.SYSTEM.SOLV>
0

>  <SCORE.SYSTEM.norm>
0

>  <SCORE.heavy>
10

>  <SCORE.norm>
-1.67547

>  <RMSD>
2.862

$$$$
ligand
 OpenBabel11021811423D
libRbt.so/2013.1/901 2013/11/27
 10 11  0  0  0  0  0  0  0  0999 V2000
   11.1772    8.6102   26.1596 N   0  0  0  0  0  0  0  0  0  0  0  0
   10.7935    9.9157   25.9063 C   0  0  0  0  0  0  0  0  0  0  0  0
   10.7804   10.8479   26.8669 N   0  0  0  0  0  0  0  0  0  0  0  0
   11.1794   10.3671   28.0888 C   0  0  0  0  0  0  0  0  0  0  0  0
   11.5703    9.0849   28.3993 C   0  0  0  0  0  0  0  0  0  0  0  0
   11.5881    8.0866   27.3861 C   0  0  0  0  0  0  0  0  0  0  0  0
   11.9010    6.8910   27.4498 O   0  0  0  0  0  0  0  0  0  0  0  0
   11.8876    9.0370   29.7317 N   0  0  0  0  0  0  0  0  0  0  0  0
   11.6924   10.2765   30.2206 C   0  0  0  0  0  0  0  0  0  0  0  0
   11.2534   11.1216   29.2327 N   0  0  0  0  0  0  0  0  0  0  0  0
  1  2  1  0  0  0  0
  1  6  1  0  0  0  0
  2  3  2  0  0  0  0
  3  4  1  0  0  0  0
  4  5  2  0  0  0  0
  4 10  1  0  0  0  0
  5  6  1  0  0  0  0
  5  8  1  0  0  0  0
  6  7  2  0  0  0  0
  8  9  1  0  0  0  0
  9 10  2  0  0  0  0
M  END
>  <CHROM.1>
11.39147421,9.37638845,27.93249081,1.64041379,1.24432344,-2.31331911

>  <Name>
ligand

>  <RI>
0

>  <Rbt.Current_Directory>
/home/itssahil/PROJECTS/Mol_Feturizer/New_Systems/rnas/2EET

>  <Rbt.Executable>
rbdock ($Id: //depot/dev/client3/rdock/2013.1/src/exe/rbdock.cxx#4 $)

>  <Rbt.Library>
libRbt.so (2013.1, Build901 2013/11/27)

>  <Rbt.Parameter_File>
/export/apps/rDock/src/rDock_2013.1_src/data/scripts/dock_solv.prm

>  <Rbt.Receptor>
prm/blind_docking_80.prm

>  <SCORE>
-16.6244

>  <SCORE.INTER>
-16.6244

>  <SCORE.INTER.CONST>
1

>  <SCORE.INTER.POLAR>
0

>  <SCORE.INTER.ROT>
0

>  <SCORE.INTER.SOLV>
3.6427

>  <SCORE.INTER.VDW>
-15.8972

>  <SCORE.INTER.norm>
-1.66244

>  <SCORE.INTRA>
0

>  <SCORE.INTRA.DIHEDRAL>
0

>  <SCORE.INTRA.DIHEDRAL.0>
0

>  <SCORE.INTRA.POLAR>
0

>  <SCORE.INTRA.POLAR.0>
0

>  <SCORE.INTRA.REPUL>
0

>  <SCORE.INTRA.REPUL.0>
0

>  <SCORE.INTRA.SOLV>
0

>  <SCORE.INTRA.SOLV.lig_0>
-4.28464

>  <SCORE.INTRA.VDW>
0

>  <SCORE.INTRA.VDW.0>
0

>  <SCORE.INTRA.norm>
0

>  <SCORE.RESTR>
0

>  <SCORE.RESTR.CAVITY>
0

>  <SCORE.RESTR.norm>
0

>  <SCORE.SYSTEM>
0

>  <SCORE.SYSTEM.CONST>
0

>  <SCORE.SYSTEM.DIHEDRAL>
0

>  <SCORE.SYSTEM.SOLV>
0

>  <SCORE.SYSTEM.norm>
0

>  <SCORE.heavy>
10

>  <SCORE.norm>
-1.66244

>  <RMSD>
2.865

$$$$
ligand
 OpenBabel11021811423D
libRbt.so/2013.1/901 2013/11/27
 10 11  0  0  0  0  0  0  0  0999 V2000
   11.2742    8.6992   26.2020 N   0  0  0  0  0  0  0  0  0  0  0  0
   10.9561   10.0272   25.9766 C   0  0  0  0  0  0  0  0  0  0  0  0
   10.9137   10.9227   26.9706 N   0  0  0  0  0  0  0  0  0  0  0  0
   11.2136   10.3815   28.1957 C   0  0  0  0  0  0  0  0  0  0  0  0
   11.5361    9.0743   28.4794 C   0  0  0  0  0  0  0  0  0  0  0  0
   11.5841    8.1146   27.4306 C   0  0  0  0  0  0  0  0  0  0  0  0
   11.8482    6.9061   27.4668 O   0  0  0  0  0  0  0  0  0  0  0  0
   11.7629    8.9644   29.8265 N   0  0  0  0  0  0  0  0  0  0  0  0
   11.5814   10.1915   30.3507 C   0  0  0  0  0  0  0  0  0  0  0  0
   11.2396   11.0893   29.3710 N   0  0  0  0  0  0  0  0  0  0  0  0
  1  2  1  0  0  0  0
  1  6  1  0  0  0  0
  2  3  2  0  0  0  0
  3  4  1  0  0  0  0
  4  5  2  0  0  0  0
  4 10  1  0  0  0  0
  5  6  1  0  0  0  0
  5  8  1  0  0  0  0
  6  7  2  0  0  0  0
  8  9  1  0  0  0  0
  9 10  2  0  0  0  0
M  END
>  <CHROM.1>
11.39916236,9.38974696,28.01403529,1.54618551,1.31478107,-2.18442264

>  <Name>
ligand

>  <RI>
0

>  <Rbt.Current_Directory>
/home/itssahil/PROJECTS/Mol_Feturizer/New_Systems/rnas/2EET

>  <Rbt.Executable>
rbdock ($Id: //depot/dev/client3/rdock/2013.1/src/exe/rbdock.cxx#4 $)

>  <Rbt.Library>
libRbt.so (2013.1, Build901 2013/11/27)

>  <Rbt.Parameter_File>
/export/apps/rDock/src/rDock_2013.1_src/data/scripts/dock_solv.prm

>  <Rbt.Receptor>
prm/blind_docking_80.prm

>  <SCORE>
-16.6838

>  <SCORE.INTER>
-16.6838

>  <SCORE.INTER.CONST>
1

>  <SCORE.INTER.POLAR>
0

>  <SCORE.INTER.ROT>
0

>  <SCORE.INTER.SOLV>
3.71535

>  <SCORE.INTER.VDW>
-15.961

>  <SCORE.INTER.norm>
-1.66838

>  <SCORE.INTRA>
0

>  <SCORE.INTRA.DIHEDRAL>
0

>  <SCORE.INTRA.DIHEDRAL.0>
0

>  <SCORE.INTRA.POLAR>
0

>  <SCORE.INTRA.POLAR.0>
0

>  <SCORE.INTRA.REPUL>
0

>  <SCORE.INTRA.REPUL.0>
0

>  <SCORE.INTRA.SOLV>
0

>  <SCORE.INTRA.SOLV.lig_0>
-4.28464

>  <SCORE.INTRA.VDW>
0

>  <SCORE.INTRA.VDW.0>
0

>  <SCORE.INTRA.norm>
0

>  <SCORE.RESTR>
0

>  <SCORE.RESTR.CAVITY>
0

>  <SCORE.RESTR.norm>
0

>  <SCORE.SYSTEM>
0

>  <SCORE.SYSTEM.CONST>
0

>  <SCORE.SYSTEM.DIHEDRAL>
0

>  <SCORE.SYSTEM.SOLV>
0

>  <SCORE.SYSTEM.norm>
0

>  <SCORE.heavy>
10

>  <SCORE.norm>
-1.66838

>  <RMSD>
2.872

$$$$
ligand
 OpenBabel11021811423D
libRbt.so/2013.1/901 2013/11/27
 10 11  0  0  0  0  0  0  0  0999 V2000
   11.2411    8.7003   26.1791 N   0  0  0  0  0  0  0  0  0  0  0  0
   10.9449   10.0329   25.9508 C   0  0  0  0  0  0  0  0  0  0  0  0
   10.9239   10.9325   26.9418 N   0  0  0  0  0  0  0  0  0  0  0  0
   11.2213   10.3903   28.1671 C   0  0  0  0  0  0  0  0  0  0  0  0
   11.5224    9.0787   28.4536 C   0  0  0  0  0  0  0  0  0  0  0  0
   11.5477    8.1146   27.4080 C   0  0  0  0  0  0  0  0  0  0  0  0
   11.7908    6.9019   27.4470 O   0  0  0  0  0  0  0  0  0  0  0  0
   11.7550    8.9695   29.7998 N   0  0  0  0  0  0  0  0  0  0  0  0
   11.5979   10.2014   30.3207 C   0  0  0  0  0  0  0  0  0  0  0  0
   11.2663   11.1017   29.3397 N   0  0  0  0  0  0  0  0  0  0  0  0
  1  2  1  0  0  0  0
  1  6  1  0  0  0  0
  2  3  2  0  0  0  0
  3  4  1  0  0  0  0
  4  5  2  0  0  0  0
  4 10  1  0  0  0  0
  5  6  1  0  0  0  0
  5  8  1  0  0  0  0
  6  7  2  0  0  0  0
  8  9  1  0  0  0  0
  9 10  2  0  0  0  0
M  END
>  <CHROM.1>
11.38837638,9.39489056,27.98791396,1.60685697,1.32537008,-2.24670468

>  <Name>
ligand

>  <RI>
0

>  <Rbt.Current_Directory>
/home/itssahil/PROJECTS/Mol_Feturizer/New_Systems/rnas/2EET

>  <Rbt.Executable>
rbdock ($Id: //depot/dev/client3/rdock/2013.1/src/exe/rbdock.cxx#4 $)

>  <Rbt.Library>
libRbt.so (2013.1, Build901 2013/11/27)

>  <Rbt.Parameter_File>
/export/apps/rDock/src/rDock_2013.1_src/data/scripts/dock_solv.prm

>  <Rbt.Receptor>
prm/blind_docking_80.prm

>  <SCORE>
-16.7211

>  <SCORE.INTER>
-16.7211

>  <SCORE.INTER.CONST>
1

>  <SCORE.INTER.POLAR>
0

>  <SCORE.INTER.ROT>
0

>  <SCORE.INTER.SOLV>
3.78292

>  <SCORE.INTER.VDW>
-16.0084

>  <SCORE.INTER.norm>
-1.67211

>  <SCORE.INTRA>
0

>  <SCORE.INTRA.DIHEDRAL>
0

>  <SCORE.INTRA.DIHEDRAL.0>
0

>  <SCORE.INTRA.POLAR>
0

>  <SCORE.INTRA.POLAR.0>
0

>  <SCORE.INTRA.REPUL>
0

>  <SCORE.INTRA.REPUL.0>
0

>  <SCORE.INTRA.SOLV>
0

>  <SCORE.INTRA.SOLV.lig_0>
-4.28464

>  <SCORE.INTRA.VDW>
0

>  <SCORE.INTRA.VDW.0>
0

>  <SCORE.INTRA.norm>
0

>  <SCORE.RESTR>
0

>  <SCORE.RESTR.CAVITY>
0

>  <SCORE.RESTR.norm>
0

>  <SCORE.SYSTEM>
0

>  <SCORE.SYSTEM.CONST>
0

>  <SCORE.SYSTEM.DIHEDRAL>
0

>  <SCORE.SYSTEM.SOLV>
0

>  <SCORE.SYSTEM.norm>
0

>  <SCORE.heavy>
10

>  <SCORE.norm>
-1.67211

>  <RMSD>
2.873

$$$$
ligand
 OpenBabel11021811423D
libRbt.so/2013.1/901 2013/11/27
 10 11  0  0  0  0  0  0  0  0999 V2000
   11.2410    8.7093   26.1843 N   0  0  0  0  0  0  0  0  0  0  0  0
   10.9374   10.0408   25.9596 C   0  0  0  0  0  0  0  0  0  0  0  0
   10.9123   10.9377   26.9529 N   0  0  0  0  0  0  0  0  0  0  0  0
   11.2137   10.3941   28.1765 C   0  0  0  0  0  0  0  0  0  0  0  0
   11.5222    9.0834   28.4595 C   0  0  0  0  0  0  0  0  0  0  0  0
   11.5518    8.1222   27.4114 C   0  0  0  0  0  0  0  0  0  0  0  0
   11.8015    6.9106   27.4471 O   0  0  0  0  0  0  0  0  0  0  0  0
   11.7565    8.9720   29.8052 N   0  0  0  0  0  0  0  0  0  0  0  0
   11.5932   10.2017   30.3293 C   0  0  0  0  0  0  0  0  0  0  0  0
   11.2558   11.1027   29.3510 N   0  0  0  0  0  0  0  0  0  0  0  0
  1  2  1  0  0  0  0
  1  6  1  0  0  0  0
  2  3  2  0  0  0  0
  3  4  1  0  0  0  0
  4  5  2  0  0  0  0
  4 10  1  0  0  0  0
  5  6  1  0  0  0  0
  5  8  1  0  0  0  0
  6  7  2  0  0  0  0
  8  9  1  0  0  0  0
  9 10  2  0  0  0  0
M  END
>  <CHROM.1>
11.38605557,9.40004043,27.99470611,1.59581159,1.32057174,-2.23345743

>  <Name>
ligand

>  <RI>
0

>  <Rbt.Current_Directory>
/home/itssahil/PROJECTS/Mol_Feturizer/New_Systems/rnas/2EET

>  <Rbt.Executable>
rbdock ($Id: //depot/dev/client3/rdock/2013.1/src/exe/rbdock.cxx#4 $)

>  <Rbt.Library>
libRbt.so (2013.1, Build901 2013/11/27)

>  <Rbt.Parameter_File>
/export/apps/rDock/src/rDock_2013.1_src/data/scripts/dock_solv.prm

>  <Rbt.Receptor>
prm/blind_docking_80.prm

>  <SCORE>
-16.7192

>  <SCORE.INTER>
-16.7192

>  <SCORE.INTER.CONST>
1

>  <SCORE.INTER.POLAR>
0

>  <SCORE.INTER.ROT>
0

>  <SCORE.INTER.SOLV>
3.77294

>  <SCORE.INTER.VDW>
-16.0038

>  <SCORE.INTER.norm>
-1.67192

>  <SCORE.INTRA>
0

>  <SCORE.INTRA.DIHEDRAL>
0

>  <SCORE.INTRA.DIHEDRAL.0>
0

>  <SCORE.INTRA.POLAR>
0

>  <SCORE.INTRA.POLAR.0>
0

>  <SCORE.INTRA.REPUL>
0

>  <SCORE.INTRA.REPUL.0>
0

>  <SCORE.INTRA.SOLV>
0

>  <SCORE.INTRA.SOLV.lig_0>
-4.28464

>  <SCORE.INTRA.VDW>
0

>  <SCORE.INTRA.VDW.0>
0

>  <SCORE.INTRA.norm>
0

>  <SCORE.RESTR>
0

>  <SCORE.RESTR.CAVITY>
0

>  <SCORE.RESTR.norm>
0

>  <SCORE.SYSTEM>
0

>  <SCORE.SYSTEM.CONST>
0

>  <SCORE.SYSTEM.DIHEDRAL>
0

>  <SCORE.SYSTEM.SOLV>
0

>  <SCORE.SYSTEM.norm>
0

>  <SCORE.heavy>
10

>  <SCORE.norm>
-1.67192

>  <RMSD>
2.874

$$$$
ligand
 OpenBabel11021811423D
libRbt.so/2013.1/901 2013/11/27
 10 11  0  0  0  0  0  0  0  0999 V2000
   11.2047    8.7319   26.1385 N   0  0  0  0  0  0  0  0  0  0  0  0
   10.9006   10.0660   25.9303 C   0  0  0  0  0  0  0  0  0  0  0  0
   10.8773   10.9510   26.9342 N   0  0  0  0  0  0  0  0  0  0  0  0
   11.1808   10.3929   28.1508 C   0  0  0  0  0  0  0  0  0  0  0  0
   11.4900    9.0790   28.4175 C   0  0  0  0  0  0  0  0  0  0  0  0
   11.5178    8.1303   27.3580 C   0  0  0  0  0  0  0  0  0  0  0  0
   11.7677    6.9184   27.3788 O   0  0  0  0  0  0  0  0  0  0  0  0
   11.7267    8.9516   29.7614 N   0  0  0  0  0  0  0  0  0  0  0  0
   11.5642   10.1750   30.3004 C   0  0  0  0  0  0  0  0  0  0  0  0
   11.2250   11.0875   29.3335 N   0  0  0  0  0  0  0  0  0  0  0  0
  1  2  1  0  0  0  0
  1  6  1  0  0  0  0
  2  3  2  0  0  0  0
  3  4  1  0  0  0  0
  4  5  2  0  0  0  0
  4 10  1  0  0  0  0
  5  6  1  0  0  0  0
  5  8  1  0  0  0  0
  6  7  2  0  0  0  0
  8  9  1  0  0  0  0
  9 10  2  0  0  0  0
M  END
>  <CHROM.1>
11.35297442,9.40109984,27.95680615,1.60129221,1.31940612,-2.22685418

>  <Name>
ligand

>  <RI>
0

>  <Rbt.Current_Directory>
/home/itssahil/PROJECTS/Mol_Feturizer/New_Systems/rnas/2EET

>  <Rbt.Executable>
rbdock ($Id: //depot/dev/client3/rdock/2013.1/src/exe/rbdock.cxx#4 $)

>  <Rbt.Library>
libRbt.so (2013.1, Build901 2013/11/27)

>  <Rbt.Parameter_File>
/export/apps/rDock/src/rDock_2013.1_src/data/scripts/dock_solv.prm

>  <Rbt.Receptor>
prm/blind_docking_100.prm

>  <SCORE>
-16.7271

>  <SCORE.INTER>
-16.7271

>  <SCORE.INTER.CONST>
1

>  <SCORE.INTER.POLAR>
0

>  <SCORE.INTER.ROT>
0

>  <SCORE.INTER.SOLV>
3.837

>  <SCORE.INTER.VDW>
-16.0304

>  <SCORE.INTER.norm>
-1.67271

>  <SCORE.INTRA>
0

>  <SCORE.INTRA.DIHEDRAL>
0

>  <SCORE.INTRA.DIHEDRAL.0>
0

>  <SCORE.INTRA.POLAR>
0

>  <SCORE.INTRA.POLAR.0>
0

>  <SCORE.INTRA.REPUL>
0

>  <SCORE.INTRA.REPUL.0>
0

>  <SCORE.INTRA.SOLV>
0

>  <SCORE.INTRA.SOLV.lig_0>
-4.28464

>  <SCORE.INTRA.VDW>
0

>  <SCORE.INTRA.VDW.0>
0

>  <SCORE.INTRA.norm>
0

>  <SCORE.RESTR>
0

>  <SCORE.RESTR.CAVITY>
0

>  <SCORE.RESTR.norm>
0

>  <SCORE.SYSTEM>
0

>  <SCORE.SYSTEM.CONST>
0

>  <SCORE.SYSTEM.DIHEDRAL>
0

>  <SCORE.SYSTEM.SOLV>
0

>  <SCORE.SYSTEM.norm>
0

>  <SCORE.heavy>
10

>  <SCORE.norm>
-1.67271

>  <RMSD>
2.876

$$$$
ligand
 OpenBabel11021811423D
libRbt.so/2013.1/901 2013/11/27
 10 11  0  0  0  0  0  0  0  0999 V2000
   11.2218    8.7447   26.1376 N   0  0  0  0  0  0  0  0  0  0  0  0
   10.9279   10.0810   25.9292 C   0  0  0  0  0  0  0  0  0  0  0  0
   10.9056   10.9651   26.9339 N   0  0  0  0  0  0  0  0  0  0  0  0
   11.1991   10.4037   28.1514 C   0  0  0  0  0  0  0  0  0  0  0  0
   11.4979    9.0874   28.4184 C   0  0  0  0  0  0  0  0  0  0  0  0
   11.5245    8.1396   27.3580 C   0  0  0  0  0  0  0  0  0  0  0  0
   11.7659    6.9261   27.3788 O   0  0  0  0  0  0  0  0  0  0  0  0
   11.7269    8.9571   29.7633 N   0  0  0  0  0  0  0  0  0  0  0  0
   11.5701   10.1810   30.3027 C   0  0  0  0  0  0  0  0  0  0  0  0
   11.2421   11.0968   29.3350 N   0  0  0  0  0  0  0  0  0  0  0  0
  1  2  1  0  0  0  0
  1  6  1  0  0  0  0
  2  3  2  0  0  0  0
  3  4  1  0  0  0  0
  4  5  2  0  0  0  0
  4 10  1  0  0  0  0
  5  6  1  0  0  0  0
  5  8  1  0  0  0  0
  6  7  2  0  0  0  0
  8  9  1  0  0  0  0
  9 10  2  0  0  0  0
M  END
>  <CHROM.1>
11.36540353,9.41095995,27.95729028,1.60201338,1.32796913,-2.22653312

>  <Name>
ligand

>  <RI>
0

>  <Rbt.Current_Directory>
/home/itssahil/PROJECTS/Mol_Feturizer/New_Systems/rnas/2EET

>  <Rbt.Executable>
rbdock ($Id: //depot/dev/client3/rdock/2013.1/src/exe/rbdock.cxx#4 $)

>  <Rbt.Library>
libRbt.so (2013.1, Build901 2013/11/27)

>  <Rbt.Parameter_File>
/export/apps/rDock/src/rDock_2013.1_src/data/scripts/dock_solv.prm

>  <Rbt.Receptor>
prm/blind_docking_40.prm

>  <SCORE>
-16.7412

>  <SCORE.INTER>
-16.7412

>  <SCORE.INTER.CONST>
1

>  <SCORE.INTER.POLAR>
0

>  <SCORE.INTER.ROT>
0

>  <SCORE.INTER.SOLV>
3.83175

>  <SCORE.INTER.VDW>
-16.0381

>  <SCORE.INTER.norm>
-1.67412

>  <SCORE.INTRA>
0

>  <SCORE.INTRA.DIHEDRAL>
0

>  <SCORE.INTRA.DIHEDRAL.0>
0

>  <SCORE.INTRA.POLAR>
0

>  <SCORE.INTRA.POLAR.0>
0

>  <SCORE.INTRA.REPUL>
0

>  <SCORE.INTRA.REPUL.0>
0

>  <SCORE.INTRA.SOLV>
0

>  <SCORE.INTRA.SOLV.lig_0>
-4.28464

>  <SCORE.INTRA.VDW>
0

>  <SCORE.INTRA.VDW.0>
0

>  <SCORE.INTRA.norm>
0

>  <SCORE.RESTR>
0

>  <SCORE.RESTR.CAVITY>
0

>  <SCORE.RESTR.norm>
0

>  <SCORE.SYSTEM>
0

>  <SCORE.SYSTEM.CONST>
0

>  <SCORE.SYSTEM.DIHEDRAL>
0

>  <SCORE.SYSTEM.SOLV>
0

>  <SCORE.SYSTEM.norm>
0

>  <SCORE.heavy>
10

>  <SCORE.norm>
-1.67412

>  <RMSD>
2.876

$$$$
ligand
 OpenBabel11021811423D
libRbt.so/2013.1/901 2013/11/27
 10 11  0  0  0  0  0  0  0  0999 V2000
   11.2077    8.7435   26.1307 N   0  0  0  0  0  0  0  0  0  0  0  0
   10.8925   10.0766   25.9330 C   0  0  0  0  0  0  0  0  0  0  0  0
   10.8598   10.9529   26.9443 N   0  0  0  0  0  0  0  0  0  0  0  0
   11.1661   10.3873   28.1566 C   0  0  0  0  0  0  0  0  0  0  0  0
   11.4861    9.0739   28.4130 C   0  0  0  0  0  0  0  0  0  0  0  0
   11.5239    8.1343   27.3456 C   0  0  0  0  0  0  0  0  0  0  0  0
   11.7842    6.9246   27.3568 O   0  0  0  0  0  0  0  0  0  0  0  0
   11.7216    8.9373   29.7562 N   0  0  0  0  0  0  0  0  0  0  0  0
   11.5476   10.1547   30.3051 C   0  0  0  0  0  0  0  0  0  0  0  0
   11.2022   11.0723   29.3452 N   0  0  0  0  0  0  0  0  0  0  0  0
  1  2  1  0  0  0  0
  1  6  1  0  0  0  0
  2  3  2  0  0  0  0
  3  4  1  0  0  0  0
  4  5  2  0  0  0  0
  4 10  1  0  0  0  0
  5  6  1  0  0  0  0
  5  8  1  0  0  0  0
  6  7  2  0  0  0  0
  8  9  1  0  0  0  0
  9 10  2  0  0  0  0
M  END
>  <CHROM.1>
11.34707558,9.39865832,27.95472575,1.57521186,1.31353332,-2.19326593

>  <Name>
ligand

>  <RI>
0

>  <Rbt.Current_Directory>
/home/itssahil/PROJECTS/Mol_Feturizer/New_Systems/rnas/2EET

>  <Rbt.Executable>
rbdock ($Id: //depot/dev/client3/rdock/2013.1/src/exe/rbdock.cxx#4 $)

>  <Rbt.Library>
libRbt.so (2013.1, Build901 2013/11/27)

>  <Rbt.Parameter_File>
/export/apps/rDock/src/rDock_2013.1_src/data/scripts/dock_solv.prm

>  <Rbt.Receptor>
prm/pocket_docking_3.prm

>  <SCORE>
-16.693

>  <SCORE.INTER>
-16.693

>  <SCORE.INTER.CONST>
1

>  <SCORE.INTER.POLAR>
0

>  <SCORE.INTER.ROT>
0

>  <SCORE.INTER.SOLV>
3.82844

>  <SCORE.INTER.VDW>
-16.0048

>  <SCORE.INTER.norm>
-1.6693

>  <SCORE.INTRA>
0

>  <SCORE.INTRA.DIHEDRAL>
0

>  <SCORE.INTRA.DIHEDRAL.0>
0

>  <SCORE.INTRA.POLAR>
0

>  <SCORE.INTRA.POLAR.0>
0

>  <SCORE.INTRA.REPUL>
0

>  <SCORE.INTRA.REPUL.0>
0

>  <SCORE.INTRA.SOLV>
0

>  <SCORE.INTRA.SOLV.lig_0>
-4.28464

>  <SCORE.INTRA.VDW>
0

>  <SCORE.INTRA.VDW.0>
0

>  <SCORE.INTRA.norm>
0

>  <SCORE.RESTR>
0

>  <SCORE.RESTR.CAVITY>
0

>  <SCORE.RESTR.norm>
0

>  <SCORE.SYSTEM>
0

>  <SCORE.SYSTEM.CONST>
0

>  <SCORE.SYSTEM.DIHEDRAL>
0

>  <SCORE.SYSTEM.SOLV>
0

>  <SCORE.SYSTEM.norm>
0

>  <SCORE.heavy>
10

>  <SCORE.norm>
-1.6693

>  <RMSD>
2.876

$$$$
ligand
 OpenBabel11021811423D
libRbt.so/2013.1/901 2013/11/27
 10 11  0  0  0  0  0  0  0  0999 V2000
   11.2195    8.7734   26.1424 N   0  0  0  0  0  0  0  0  0  0  0  0
   10.9279   10.1119   25.9449 C   0  0  0  0  0  0  0  0  0  0  0  0
   10.9089   10.9882   26.9565 N   0  0  0  0  0  0  0  0  0  0  0  0
   11.2034   10.4167   28.1691 C   0  0  0  0  0  0  0  0  0  0  0  0
   11.5000    9.0978   28.4253 C   0  0  0  0  0  0  0  0  0  0  0  0
   11.5230    8.1582   27.3576 C   0  0  0  0  0  0  0  0  0  0  0  0
   11.7621    6.9441   27.3685 O   0  0  0  0  0  0  0  0  0  0  0  0
   11.7309    8.9565   29.7689 N   0  0  0  0  0  0  0  0  0  0  0  0
   11.5774   10.1765   30.3181 C   0  0  0  0  0  0  0  0  0  0  0  0
   11.2496   11.1005   29.3581 N   0  0  0  0  0  0  0  0  0  0  0  0
  1  2  1  0  0  0  0
  1  6  1  0  0  0  0
  2  3  2  0  0  0  0
  3  4  1  0  0  0  0
  4  5  2  0  0  0  0
  4 10  1  0  0  0  0
  5  6  1  0  0  0  0
  5  8  1  0  0  0  0
  6  7  2  0  0  0  0
  8  9  1  0  0  0  0
  9 10  2  0  0  0  0
M  END
>  <CHROM.1>
11.36739187,9.42516394,27.96700816,1.61240346,1.32850723,-2.22882397

>  <Name>
ligand

>  <RI>
0

>  <Rbt.Current_Directory>
/home/itssahil/PROJECTS/Mol_Feturizer/New_Systems/rnas/2EET

>  <Rbt.Executable>
rbdock ($Id: //depot/dev/client3/rdock/2013.1/src/exe/rbdock.cxx#4 $)

>  <Rbt.Library>
libRbt.so (2013.1, Build901 2013/11/27)

>  <Rbt.Parameter_File>
/export/apps/rDock/src/rDock_2013.1_src/data/scripts/dock_solv.prm

>  <Rbt.Receptor>
prm/blind_docking_100.prm

>  <SCORE>
-16.7486

>  <SCORE.INTER>
-16.7486

>  <SCORE.INTER.CONST>
1

>  <SCORE.INTER.POLAR>
0

>  <SCORE.INTER.ROT>
0

>  <SCORE.INTER.SOLV>
3.83452

>  <SCORE.INTER.VDW>
-16.0439

>  <SCORE.INTER.norm>
-1.67486

>  <SCORE.INTRA>
0

>  <SCORE.INTRA.DIHEDRAL>
0

>  <SCORE.INTRA.DIHEDRAL.0>
0

>  <SCORE.INTRA.POLAR>
0

>  <SCORE.INTRA.POLAR.0>
0

>  <SCORE.INTRA.REPUL>
0

>  <SCORE.INTRA.REPUL.0>
0

>  <SCORE.INTRA.SOLV>
0

>  <SCORE.INTRA.SOLV.lig_0>
-4.28464

>  <SCORE.INTRA.VDW>
0

>  <SCORE.INTRA.VDW.0>
0

>  <SCORE.INTRA.norm>
0

>  <SCORE.RESTR>
0

>  <SCORE.RESTR.CAVITY>
0

>  <SCORE.RESTR.norm>
0

>  <SCORE.SYSTEM>
0

>  <SCORE.SYSTEM.CONST>
0

>  <SCORE.SYSTEM.DIHEDRAL>
0

>  <SCORE.SYSTEM.SOLV>
0

>  <SCORE.SYSTEM.norm>
0

>  <SCORE.heavy>
10

>  <SCORE.norm>
-1.67486

>  <RMSD>
2.878

$$$$
ligand
 OpenBabel11021811423D
libRbt.so/2013.1/901 2013/11/27
 10 11  0  0  0  0  0  0  0  0999 V2000
   11.2234    8.7916   26.1329 N   0  0  0  0  0  0  0  0  0  0  0  0
   10.9220   10.1279   25.9352 C   0  0  0  0  0  0  0  0  0  0  0  0
   10.8887   11.0026   26.9479 N   0  0  0  0  0  0  0  0  0  0  0  0
   11.1794   10.4318   28.1617 C   0  0  0  0  0  0  0  0  0  0  0  0
   11.4852    9.1151   28.4182 C   0  0  0  0  0  0  0  0  0  0  0  0
   11.5235    8.1773   27.3493 C   0  0  0  0  0  0  0  0  0  0  0  0
   11.7726    6.9651   27.3602 O   0  0  0  0  0  0  0  0  0  0  0  0
   11.7079    8.9737   29.7631 N   0  0  0  0  0  0  0  0  0  0  0  0
   11.5404   10.1916   30.3129 C   0  0  0  0  0  0  0  0  0  0  0  0
   11.2116   11.1142   29.3519 N   0  0  0  0  0  0  0  0  0  0  0  0
  1  2  1  0  0  0  0
  1  6  1  0  0  0  0
  2  3  2  0  0  0  0
  3  4  1  0  0  0  0
  4  5  2  0  0  0  0
  4 10  1  0  0  0  0
  5  6  1  0  0  0  0
  5  8  1  0  0  0  0
  6  7  2  0  0  0  0
  8  9  1  0  0  0  0
  9 10  2  0  0  0  0
M  END
>  <CHROM.1>
11.35307486,9.44196162,27.95935995,1.56854236,1.32596247,-2.18483873

>  <Name>
ligand

>  <RI>
0

>  <Rbt.Current_Directory>
/home/itssahil/PROJECTS/Mol_Feturizer/New_Systems/rnas/2EET

>  <Rbt.Executable>
rbdock ($Id: //depot/dev/client3/rdock/2013.1/src/exe/rbdock.cxx#4 $)

>  <Rbt.Library>
libRbt.so (2013.1, Build901 2013/11/27)

>  <Rbt.Parameter_File>
/export/apps/rDock/src/rDock_2013.1_src/data/scripts/dock_solv.prm

>  <Rbt.Receptor>
prm/blind_docking_80.prm

>  <SCORE>
-16.7562

>  <SCORE.INTER>
-16.7562

>  <SCORE.INTER.CONST>
1

>  <SCORE.INTER.POLAR>
0

>  <SCORE.INTER.ROT>
0

>  <SCORE.INTER.SOLV>
3.83187

>  <SCORE.INTER.VDW>
-16.0481

>  <SCORE.INTER.norm>
-1.67562

>  <SCORE.INTRA>
0

>  <SCORE.INTRA.DIHEDRAL>
0

>  <SCORE.INTRA.DIHEDRAL.0>
0

>  <SCORE.INTRA.POLAR>
0

>  <SCORE.INTRA.POLAR.0>
0

>  <SCORE.INTRA.REPUL>
0

>  <SCORE.INTRA.REPUL.0>
0

>  <SCORE.INTRA.SOLV>
0

>  <SCORE.INTRA.SOLV.lig_0>
-4.28464

>  <SCORE.INTRA.VDW>
0

>  <SCORE.INTRA.VDW.0>
0

>  <SCORE.INTRA.norm>
0

>  <SCORE.RESTR>
0

>  <SCORE.RESTR.CAVITY>
0

>  <SCORE.RESTR.norm>
0

>  <SCORE.SYSTEM>
0

>  <SCORE.SYSTEM.CONST>
0

>  <SCORE.SYSTEM.DIHEDRAL>
0

>  <SCORE.SYSTEM.SOLV>
0

>  <SCORE.SYSTEM.norm>
0

>  <SCORE.heavy>
10

>  <SCORE.norm>
-1.67562

>  <RMSD>
2.878

$$$$
ligand
 OpenBabel11021811423D
libRbt.so/2013.1/901 2013/11/27
 10 11  0  0  0  0  0  0  0  0999 V2000
   11.2324    8.7723   26.1349 N   0  0  0  0  0  0  0  0  0  0  0  0
   10.9493   10.1123   25.9353 C   0  0  0  0  0  0  0  0  0  0  0  0
   10.9310   10.9894   26.9463 N   0  0  0  0  0  0  0  0  0  0  0  0
   11.2170   10.4170   28.1605 C   0  0  0  0  0  0  0  0  0  0  0  0
   11.5050    9.0966   28.4188 C   0  0  0  0  0  0  0  0  0  0  0  0
   11.5272    8.1562   27.3517 C   0  0  0  0  0  0  0  0  0  0  0  0
   11.7594    6.9407   27.3645 O   0  0  0  0  0  0  0  0  0  0  0  0
   11.7294    8.9549   29.7634 N   0  0  0  0  0  0  0  0  0  0  0  0
   11.5805   10.1761   30.3111 C   0  0  0  0  0  0  0  0  0  0  0  0
   11.2621   11.1013   29.3492 N   0  0  0  0  0  0  0  0  0  0  0  0
  1  2  1  0  0  0  0
  1  6  1  0  0  0  0
  2  3  2  0  0  0  0
  3  4  1  0  0  0  0
  4  5  2  0  0  0  0
  4 10  1  0  0  0  0
  5  6  1  0  0  0  0
  5  8  1  0  0  0  0
  6  7  2  0  0  0  0
  8  9  1  0  0  0  0
  9 10  2  0  0  0  0
M  END
>  <CHROM.1>
11.37622029,9.42443104,27.95969037,1.61282754,1.33562304,-2.22987531

>  <Name>
ligand

>  <RI>
0

>  <Rbt.Current_Directory>
/home/itssahil/PROJECTS/Mol_Feturizer/New_Systems/rnas/2EET

>  <Rbt.Executable>
rbdock ($Id: //depot/dev/client3/rdock/2013.1/src/exe/rbdock.cxx#4 $)

>  <Rbt.Library>
libRbt.so (2013.1, Build901 2013/11/27)

>  <Rbt.Parameter_File>
/export/apps/rDock/src/rDock_2013.1_src/data/scripts/dock_solv.prm

>  <Rbt.Receptor>
prm/pocket_docking_8.prm

>  <SCORE>
-16.7513

>  <SCORE.INTER>
-16.7513

>  <SCORE.INTER.CONST>
1

>  <SCORE.INTER.POLAR>
0

>  <SCORE.INTER.ROT>
0

>  <SCORE.INTER.SOLV>
3.83345

>  <SCORE.INTER.VDW>
-16.0453

>  <SCORE.INTER.norm>
-1.67513

>  <SCORE.INTRA>
0

>  <SCORE.INTRA.DIHEDRAL>
0

>  <SCORE.INTRA.DIHEDRAL.0>
0

>  <SCORE.INTRA.POLAR>
0

>  <SCORE.INTRA.POLAR.0>
0

>  <SCORE.INTRA.REPUL>
0

>  <SCORE.INTRA.REPUL.0>
0

>  <SCORE.INTRA.SOLV>
0

>  <SCORE.INTRA.SOLV.lig_0>
-4.28464

>  <SCORE.INTRA.VDW>
0

>  <SCORE.INTRA.VDW.0>
0

>  <SCORE.INTRA.norm>
0

>  <SCORE.RESTR>
0

>  <SCORE.RESTR.CAVITY>
0

>  <SCORE.RESTR.norm>
0

>  <SCORE.SYSTEM>
0

>  <SCORE.SYSTEM.CONST>
0

>  <SCORE.SYSTEM.DIHEDRAL>
0

>  <SCORE.SYSTEM.SOLV>
0

>  <SCORE.SYSTEM.norm>
0

>  <SCORE.heavy>
10

>  <SCORE.norm>
-1.67513

>  <RMSD>
2.878

$$$$
ligand
 OpenBabel11021811423D
libRbt.so/2013.1/901 2013/11/27
 10 11  0  0  0  0  0  0  0  0999 V2000
   11.2125    8.7878   26.1308 N   0  0  0  0  0  0  0  0  0  0  0  0
   10.9276   10.1279   25.9347 C   0  0  0  0  0  0  0  0  0  0  0  0
   10.9114   11.0029   26.9475 N   0  0  0  0  0  0  0  0  0  0  0  0
   11.2014   10.4285   28.1597 C   0  0  0  0  0  0  0  0  0  0  0  0
   11.4914    9.1078   28.4146 C   0  0  0  0  0  0  0  0  0  0  0  0
   11.5114    8.1696   27.3456 C   0  0  0  0  0  0  0  0  0  0  0  0
   11.7447    6.9543   27.3553 O   0  0  0  0  0  0  0  0  0  0  0  0
   11.7198    8.9637   29.7582 N   0  0  0  0  0  0  0  0  0  0  0  0
   11.5713   10.1836   30.3088 C   0  0  0  0  0  0  0  0  0  0  0  0
   11.2493   11.1104   29.3496 N   0  0  0  0  0  0  0  0  0  0  0  0
  1  2  1  0  0  0  0
  1  6  1  0  0  0  0
  2  3  2  0  0  0  0
  3  4  1  0  0  0  0
  4  5  2  0  0  0  0
  4 10  1  0  0  0  0
  5  6  1  0  0  0  0
  5  8  1  0  0  0  0
  6  7  2  0  0  0  0
  8  9  1  0  0  0  0
  9 10  2  0  0  0  0
M  END
>  <CHROM.1>
11.36097430,9.43643674,27.95651195,1.62008740,1.33311709,-2.23495815

>  <Name>
ligand

>  <RI>
0

>  <Rbt.Current_Directory>
/home/itssahil/PROJECTS/Mol_Feturizer/New_Systems/rnas/2EET

>  <Rbt.Executable>
rbdock ($Id: //depot/dev/client3/rdock/2013.1/src/exe/rbdock.cxx#4 $)

>  <Rbt.Library>
libRbt.so (2013.1, Build901 2013/11/27)

>  <Rbt.Parameter_File>
/export/apps/rDock/src/rDock_2013.1_src/data/scripts/dock_solv.prm

>  <Rbt.Receptor>
prm/blind_docking_40.prm

>  <SCORE>
-16.7557

>  <SCORE.INTER>
-16.7557

>  <SCORE.INTER.CONST>
1

>  <SCORE.INTER.POLAR>
0

>  <SCORE.INTER.ROT>
0

>  <SCORE.INTER.SOLV>
3.85558

>  <SCORE.INTER.VDW>
-16.0557

>  <SCORE.INTER.norm>
-1.67557

>  <SCORE.INTRA>
0

>  <SCORE.INTRA.DIHEDRAL>
0

>  <SCORE.INTRA.DIHEDRAL.0>
0

>  <SCORE.INTRA.POLAR>
0

>  <SCORE.INTRA.POLAR.0>
0

>  <SCORE.INTRA.REPUL>
0

>  <SCORE.INTRA.REPUL.0>
0

>  <SCORE.INTRA.SOLV>
0

>  <SCORE.INTRA.SOLV.lig_0>
-4.28464

>  <SCORE.INTRA.VDW>
0

>  <SCORE.INTRA.VDW.0>
0

>  <SCORE.INTRA.norm>
0

>  <SCORE.RESTR>
0

>  <SCORE.RESTR.CAVITY>
0

>  <SCORE.RESTR.norm>
0

>  <SCORE.SYSTEM>
0

>  <SCORE.SYSTEM.CONST>
0

>  <SCORE.SYSTEM.DIHEDRAL>
0

>  <SCORE.SYSTEM.SOLV>
0

>  <SCORE.SYSTEM.norm>
0

>  <SCORE.heavy>
10

>  <SCORE.norm>
-1.67557

>  <RMSD>
2.879

$$$$
ligand
 OpenBabel11021811423D
libRbt.so/2013.1/901 2013/11/27
 10 11  0  0  0  0  0  0  0  0999 V2000
   11.2202    8.7930   26.1426 N   0  0  0  0  0  0  0  0  0  0  0  0
   10.9245   10.1320   25.9544 C   0  0  0  0  0  0  0  0  0  0  0  0
   10.9009   11.0007   26.9724 N   0  0  0  0  0  0  0  0  0  0  0  0
   11.1952   10.4214   28.1812 C   0  0  0  0  0  0  0  0  0  0  0  0
   11.4957    9.1016   28.4283 C   0  0  0  0  0  0  0  0  0  0  0  0
   11.5237    8.1700   27.3537 C   0  0  0  0  0  0  0  0  0  0  0  0
   11.7668    6.9565   27.3562 O   0  0  0  0  0  0  0  0  0  0  0  0
   11.7248    8.9512   29.7711 N   0  0  0  0  0  0  0  0  0  0  0  0
   11.5663   10.1666   30.3290 C   0  0  0  0  0  0  0  0  0  0  0  0
   11.2371   11.0965   29.3753 N   0  0  0  0  0  0  0  0  0  0  0  0
  1  2  1  0  0  0  0
  1  6  1  0  0  0  0
  2  3  2  0  0  0  0
  3  4  1  0  0  0  0
  4  5  2  0  0  0  0
  4 10  1  0  0  0  0
  5  6  1  0  0  0  0
  5  8  1  0  0  0  0
  6  7  2  0  0  0  0
  8  9  1  0  0  0  0
  9 10  2  0  0  0  0
M  END
>  <CHROM.1>
11.36282775,9.43186235,27.97214860,1.59838307,1.32690818,-2.20787487

>  <Name>
ligand

>  <RI>
0

>  <Rbt.Current_Directory>
/home/itssahil/PROJECTS/Mol_Feturizer/New_Systems/rnas/2EET

>  <Rbt.Executable>
rbdock ($Id: //depot/dev/client3/rdock/2013.1/src/exe/rbdock.cxx#4 $)

>  <Rbt.Library>
libRbt.so (2013.1, Build901 2013/11/27)

>  <Rbt.Parameter_File>
/export/apps/rDock/src/rDock_2013.1_src/data/scripts/dock_solv.prm

>  <Rbt.Receptor>
prm/pocket_docking_7.prm

>  <SCORE>
-16.7283

>  <SCORE.INTER>
-16.7283

>  <SCORE.INTER.CONST>
1

>  <SCORE.INTER.POLAR>
0

>  <SCORE.INTER.ROT>
0

>  <SCORE.INTER.SOLV>
3.83567

>  <SCORE.INTER.VDW>
-16.0307

>  <SCORE.INTER.norm>
-1.67283

>  <SCORE.INTRA>
0

>  <SCORE.INTRA.DIHEDRAL>
0

>  <SCORE.INTRA.DIHEDRAL.0>
0

>  <SCORE.INTRA.POLAR>
0

>  <SCORE.INTRA.POLAR.0>
0

>  <SCORE.INTRA.REPUL>
0

>  <SCORE.INTRA.REPUL.0>
0

>  <SCORE.INTRA.SOLV>
0

>  <SCORE.INTRA.SOLV.lig_0>
-4.28464

>  <SCORE.INTRA.VDW>
0

>  <SCORE.INTRA.VDW.0>
0

>  <SCORE.INTRA.norm>
0

>  <SCORE.RESTR>
0

>  <SCORE.RESTR.CAVITY>
0

>  <SCORE.RESTR.norm>
0

>  <SCORE.SYSTEM>
0

>  <SCORE.SYSTEM.CONST>
0

>  <SCORE.SYSTEM.DIHEDRAL>
0

>  <SCORE.SYSTEM.SOLV>
0

>  <SCORE.SYSTEM.norm>
0

>  <SCORE.heavy>
10

>  <SCORE.norm>
-1.67283

>  <RMSD>
2.880

$$$$
ligand
 OpenBabel11021811423D
libRbt.so/2013.1/901 2013/11/27
 10 11  0  0  0  0  0  0  0  0999 V2000
   11.1985    8.8273   26.1382 N   0  0  0  0  0  0  0  0  0  0  0  0
   10.8997   10.1658   25.9520 C   0  0  0  0  0  0  0  0  0  0  0  0
   10.8614   11.0304   26.9731 N   0  0  0  0  0  0  0  0  0  0  0  0
   11.1444   10.4474   28.1829 C   0  0  0  0  0  0  0  0  0  0  0  0
   11.4474    9.1278   28.4281 C   0  0  0  0  0  0  0  0  0  0  0  0
   11.4909    8.2006   27.3502 C   0  0  0  0  0  0  0  0  0  0  0  0
   11.7388    6.9881   27.3506 O   0  0  0  0  0  0  0  0  0  0  0  0
   11.6621    8.9729   29.7728 N   0  0  0  0  0  0  0  0  0  0  0  0
   11.4927   10.1855   30.3336 C   0  0  0  0  0  0  0  0  0  0  0  0
   11.1705   11.1179   29.3800 N   0  0  0  0  0  0  0  0  0  0  0  0
  1  2  1  0  0  0  0
  1  6  1  0  0  0  0
  2  3  2  0  0  0  0
  3  4  1  0  0  0  0
  4  5  2  0  0  0  0
  4 10  1  0  0  0  0
  5  6  1  0  0  0  0
  5  8  1  0  0  0  0
  6  7  2  0  0  0  0
  8  9  1  0  0  0  0
  9 10  2  0  0  0  0
M  END
>  <CHROM.1>
11.31828425,9.45937875,27.97178449,1.55109239,1.33011262,-2.15800089

>  <Name>
ligand

>  <RI>
0

>  <Rbt.Current_Directory>
/home/itssahil/PROJECTS/Mol_Feturizer/New_Systems/rnas/2EET

>  <Rbt.Executable>
rbdock ($Id: //depot/dev/client3/rdock/2013.1/src/exe/rbdock.cxx#4 $)

>  <Rbt.Library>
libRbt.so (2013.1, Build901 2013/11/27)

>  <Rbt.Parameter_File>
/export/apps/rDock/src/rDock_2013.1_src/data/scripts/dock_solv.prm

>  <Rbt.Receptor>
prm/blind_docking_80.prm

>  <SCORE>
-16.7058

>  <SCORE.INTER>
-16.7058

>  <SCORE.INTER.CONST>
1

>  <SCORE.INTER.POLAR>
0

>  <SCORE.INTER.ROT>
0

>  <SCORE.INTER.SOLV>
3.88908

>  <SCORE.INTER.VDW>
-16.0336

>  <SCORE.INTER.norm>
-1.67058

>  <SCORE.INTRA>
0

>  <SCORE.INTRA.DIHEDRAL>
0

>  <SCORE.INTRA.DIHEDRAL.0>
0

>  <SCORE.INTRA.POLAR>
0

>  <SCORE.INTRA.POLAR.0>
0

>  <SCORE.INTRA.REPUL>
0

>  <SCORE.INTRA.REPUL.0>
0

>  <SCORE.INTRA.SOLV>
0

>  <SCORE.INTRA.SOLV.lig_0>
-4.28464

>  <SCORE.INTRA.VDW>
0

>  <SCORE.INTRA.VDW.0>
0

>  <SCORE.INTRA.norm>
0

>  <SCORE.RESTR>
0

>  <SCORE.RESTR.CAVITY>
0

>  <SCORE.RESTR.norm>
0

>  <SCORE.SYSTEM>
0

>  <SCORE.SYSTEM.CONST>
0

>  <SCORE.SYSTEM.DIHEDRAL>
0

>  <SCORE.SYSTEM.SOLV>
0

>  <SCORE.SYSTEM.norm>
0

>  <SCORE.heavy>
10

>  <SCORE.norm>
-1.67058

>  <RMSD>
2.881

$$$$
ligand
 OpenBabel11021811423D
libRbt.so/2013.1/901 2013/11/27
 10 11  0  0  0  0  0  0  0  0999 V2000
   11.2069    8.7932   26.1316 N   0  0  0  0  0  0  0  0  0  0  0  0
   10.9354   10.1364   25.9372 C   0  0  0  0  0  0  0  0  0  0  0  0
   10.9289   11.0104   26.9510 N   0  0  0  0  0  0  0  0  0  0  0  0
   11.2140   10.4316   28.1623 C   0  0  0  0  0  0  0  0  0  0  0  0
   11.4908    9.1078   28.4155 C   0  0  0  0  0  0  0  0  0  0  0  0
   11.5005    8.1706   27.3454 C   0  0  0  0  0  0  0  0  0  0  0  0
   11.7215    6.9530   27.3535 O   0  0  0  0  0  0  0  0  0  0  0  0
   11.7188    8.9598   29.7587 N   0  0  0  0  0  0  0  0  0  0  0  0
   11.5832   10.1806   30.3108 C   0  0  0  0  0  0  0  0  0  0  0  0
   11.2698   11.1117   29.3530 N   0  0  0  0  0  0  0  0  0  0  0  0
  1  2  1  0  0  0  0
  1  6  1  0  0  0  0
  2  3  2  0  0  0  0
  3  4  1  0  0  0  0
  4  5  2  0  0  0  0
  4 10  1  0  0  0  0
  5  6  1  0  0  0  0
  5  8  1  0  0  0  0
  6  7  2  0  0  0  0
  8  9  1  0  0  0  0
  9 10  2  0  0  0  0
M  END
>  <CHROM.1>
11.36338963,9.43823293,27.95784950,1.65028415,1.34048713,-2.26319598

>  <Name>
ligand

>  <RI>
0

>  <Rbt.Current_Directory>
/home/itssahil/PROJECTS/Mol_Feturizer/New_Systems/rnas/2EET

>  <Rbt.Executable>
rbdock ($Id: //depot/dev/client3/rdock/2013.1/src/exe/rbdock.cxx#4 $)

>  <Rbt.Library>
libRbt.so (2013.1, Build901 2013/11/27)

>  <Rbt.Parameter_File>
/export/apps/rDock/src/rDock_2013.1_src/data/scripts/dock_solv.prm

>  <Rbt.Receptor>
prm/pocket_docking_4.prm

>  <SCORE>
-16.7247

>  <SCORE.INTER>
-16.7247

>  <SCORE.INTER.CONST>
1

>  <SCORE.INTER.POLAR>
0

>  <SCORE.INTER.ROT>
0

>  <SCORE.INTER.SOLV>
3.87731

>  <SCORE.INTER.VDW>
-16.0422

>  <SCORE.INTER.norm>
-1.67247

>  <SCORE.INTRA>
0

>  <SCORE.INTRA.DIHEDRAL>
0

>  <SCORE.INTRA.DIHEDRAL.0>
0

>  <SCORE.INTRA.POLAR>
0

>  <SCORE.INTRA.POLAR.0>
0

>  <SCORE.INTRA.REPUL>
0

>  <SCORE.INTRA.REPUL.0>
0

>  <SCORE.INTRA.SOLV>
0

>  <SCORE.INTRA.SOLV.lig_0>
-4.28464

>  <SCORE.INTRA.VDW>
0

>  <SCORE.INTRA.VDW.0>
0

>  <SCORE.INTRA.norm>
0

>  <SCORE.RESTR>
0

>  <SCORE.RESTR.CAVITY>
0

>  <SCORE.RESTR.norm>
0

>  <SCORE.SYSTEM>
0

>  <SCORE.SYSTEM.CONST>
0

>  <SCORE.SYSTEM.DIHEDRAL>
0

>  <SCORE.SYSTEM.SOLV>
0

>  <SCORE.SYSTEM.norm>
0

>  <SCORE.heavy>
10

>  <SCORE.norm>
-1.67247

>  <RMSD>
2.881

$$$$
ligand
 OpenBabel11021811423D
libRbt.so/2013.1/901 2013/11/27
 10 11  0  0  0  0  0  0  0  0999 V2000
   11.1719    8.8206   26.1286 N   0  0  0  0  0  0  0  0  0  0  0  0
   10.8683   10.1584   25.9444 C   0  0  0  0  0  0  0  0  0  0  0  0
   10.8462   11.0253   26.9640 N   0  0  0  0  0  0  0  0  0  0  0  0
   11.1504   10.4455   28.1701 C   0  0  0  0  0  0  0  0  0  0  0  0
   11.4591    9.1269   28.4132 C   0  0  0  0  0  0  0  0  0  0  0  0
   11.4855    8.1972   27.3369 C   0  0  0  0  0  0  0  0  0  0  0  0
   11.7348    6.9850   27.3360 O   0  0  0  0  0  0  0  0  0  0  0  0
   11.6967    8.9754   29.7545 N   0  0  0  0  0  0  0  0  0  0  0  0
   11.5353   10.1891   30.3153 C   0  0  0  0  0  0  0  0  0  0  0  0
   11.1959   11.1189   29.3650 N   0  0  0  0  0  0  0  0  0  0  0  0
  1  2  1  0  0  0  0
  1  6  1  0  0  0  0
  2  3  2  0  0  0  0
  3  4  1  0  0  0  0
  4  5  2  0  0  0  0
  4 10  1  0  0  0  0
  5  6  1  0  0  0  0
  5  8  1  0  0  0  0
  6  7  2  0  0  0  0
  8  9  1  0  0  0  0
  9 10  2  0  0  0  0
M  END
>  <CHROM.1>
11.32186348,9.45719774,27.95841050,1.60502409,1.31935886,-2.21265093

>  <Name>
ligand

>  <RI>
0

>  <Rbt.Current_Directory>
/home/itssahil/PROJECTS/Mol_Feturizer/New_Systems/rnas/2EET

>  <Rbt.Executable>
rbdock ($Id: //depot/dev/client3/rdock/2013.1/src/exe/rbdock.cxx#4 $)

>  <Rbt.Library>
libRbt.so (2013.1, Build901 2013/11/27)

>  <Rbt.Parameter_File>
/export/apps/rDock/src/rDock_2013.1_src/data/scripts/dock_solv.prm

>  <Rbt.Receptor>
prm/blind_docking_80.prm

>  <SCORE>
-16.7607

>  <SCORE.INTER>
-16.7607

>  <SCORE.INTER.CONST>
1

>  <SCORE.INTER.POLAR>
0

>  <SCORE.INTER.ROT>
0

>  <SCORE.INTER.SOLV>
3.8877

>  <SCORE.INTER.VDW>
-16.0697

>  <SCORE.INTER.norm>
-1.67607

>  <SCORE.INTRA>
0

>  <SCORE.INTRA.DIHEDRAL>
0

>  <SCORE.INTRA.DIHEDRAL.0>
0

>  <SCORE.INTRA.POLAR>
0

>  <SCORE.INTRA.POLAR.0>
0

>  <SCORE.INTRA.REPUL>
0

>  <SCORE.INTRA.REPUL.0>
0

>  <SCORE.INTRA.SOLV>
0

>  <SCORE.INTRA.SOLV.lig_0>
-4.28464

>  <SCORE.INTRA.VDW>
0

>  <SCORE.INTRA.VDW.0>
0

>  <SCORE.INTRA.norm>
0

>  <SCORE.RESTR>
0

>  <SCORE.RESTR.CAVITY>
0

>  <SCORE.RESTR.norm>
0

>  <SCORE.SYSTEM>
0

>  <SCORE.SYSTEM.CONST>
0

>  <SCORE.SYSTEM.DIHEDRAL>
0

>  <SCORE.SYSTEM.SOLV>
0

>  <SCORE.SYSTEM.norm>
0

>  <SCORE.heavy>
10

>  <SCORE.norm>
-1.67607

>  <RMSD>
2.882

$$$$
ligand
 OpenBabel11021811423D
libRbt.so/2013.1/901 2013/11/27
 10 11  0  0  0  0  0  0  0  0999 V2000
   11.1816    8.8274   26.1282 N   0  0  0  0  0  0  0  0  0  0  0  0
   10.8844   10.1669   25.9460 C   0  0  0  0  0  0  0  0  0  0  0  0
   10.8630   11.0317   26.9675 N   0  0  0  0  0  0  0  0  0  0  0  0
   11.1610   10.4479   28.1732 C   0  0  0  0  0  0  0  0  0  0  0  0
   11.4632    9.1274   28.4143 C   0  0  0  0  0  0  0  0  0  0  0  0
   11.4888    8.1999   27.3361 C   0  0  0  0  0  0  0  0  0  0  0  0
   11.7328    6.9867   27.3332 O   0  0  0  0  0  0  0  0  0  0  0  0
   11.6961    8.9719   29.7560 N   0  0  0  0  0  0  0  0  0  0  0  0
   11.5382   10.1851   30.3190 C   0  0  0  0  0  0  0  0  0  0  0  0
   11.2058   11.1184   29.3697 N   0  0  0  0  0  0  0  0  0  0  0  0
  1  2  1  0  0  0  0
  1  6  1  0  0  0  0
  2  3  2  0  0  0  0
  3  4  1  0  0  0  0
  4  5  2  0  0  0  0
  4 10  1  0  0  0  0
  5  6  1  0  0  0  0
  5  8  1  0  0  0  0
  6  7  2  0  0  0  0
  8  9  1  0  0  0  0
  9 10  2  0  0  0  0
M  END
>  <CHROM.1>
11.32878254,9.45932088,27.95984683,1.60572899,1.32468784,-2.21112390

>  <Name>
ligand

>  <RI>
0

>  <Rbt.Current_Directory>
/home/itssahil/PROJECTS/Mol_Feturizer/New_Systems/rnas/2EET

>  <Rbt.Executable>
rbdock ($Id: //depot/dev/client3/rdock/2013.1/src/exe/rbdock.cxx#4 $)

>  <Rbt.Library>
libRbt.so (2013.1, Build901 2013/11/27)

>  <Rbt.Parameter_File>
/export/apps/rDock/src/rDock_2013.1_src/data/scripts/dock_solv.prm

>  <Rbt.Receptor>
prm/blind_docking_80.prm

>  <SCORE>
-16.7651

>  <SCORE.INTER>
-16.7654

>  <SCORE.INTER.CONST>
1

>  <SCORE.INTER.POLAR>
0

>  <SCORE.INTER.ROT>
0

>  <SCORE.INTER.SOLV>
3.88734

>  <SCORE.INTER.VDW>
-16.0727

>  <SCORE.INTER.norm>
-1.67654

>  <SCORE.INTRA>
0

>  <SCORE.INTRA.DIHEDRAL>
0

>  <SCORE.INTRA.DIHEDRAL.0>
0

>  <SCORE.INTRA.POLAR>
0

>  <SCORE.INTRA.POLAR.0>
0

>  <SCORE.INTRA.REPUL>
0

>  <SCORE.INTRA.REPUL.0>
0

>  <SCORE.INTRA.SOLV>
0

>  <SCORE.INTRA.SOLV.lig_0>
-4.28464

>  <SCORE.INTRA.VDW>
0

>  <SCORE.INTRA.VDW.0>
0

>  <SCORE.INTRA.norm>
0

>  <SCORE.RESTR>
0.000259752

>  <SCORE.RESTR.CAVITY>
0.000259752

>  <SCORE.RESTR.norm>
2.59752e-05

>  <SCORE.SYSTEM>
0

>  <SCORE.SYSTEM.CONST>
0

>  <SCORE.SYSTEM.DIHEDRAL>
0

>  <SCORE.SYSTEM.SOLV>
0

>  <SCORE.SYSTEM.norm>
0

>  <SCORE.heavy>
10

>  <SCORE.norm>
-1.67651

>  <RMSD>
2.883

$$$$
ligand
 OpenBabel11021811423D
libRbt.so/2013.1/901 2013/11/27
 10 11  0  0  0  0  0  0  0  0999 V2000
   10.8767   10.7125   26.3624 N   0  0  0  0  0  0  0  0  0  0  0  0
   11.0129   11.2730   27.6205 C   0  0  0  0  0  0  0  0  0  0  0  0
   11.3251   10.5356   28.6931 N   0  0  0  0  0  0  0  0  0  0  0  0
   11.4873    9.2042   28.4021 C   0  0  0  0  0  0  0  0  0  0  0  0
   11.3651    8.5923   27.1759 C   0  0  0  0  0  0  0  0  0  0  0  0
   11.0338    9.3666   26.0295 C   0  0  0  0  0  0  0  0  0  0  0  0
   10.8773    9.0209   24.8515 O   0  0  0  0  0  0  0  0  0  0  0  0
   11.6099    7.2528   27.3313 N   0  0  0  0  0  0  0  0  0  0  0  0
   11.8789    7.0577   28.6364 C   0  0  0  0  0  0  0  0  0  0  0  0
   11.8097    8.2420   29.3259 N   0  0  0  0  0  0  0  0  0  0  0  0
  1  2  1  0  0  0  0
  1  6  1  0  0  0  0
  2  3  2  0  0  0  0
  3  4  1  0  0  0  0
  4  5  2  0  0  0  0
  4 10  1  0  0  0  0
  5  6  1  0  0  0  0
  5  8  1  0  0  0  0
  6  7  2  0  0  0  0
  8  9  1  0  0  0  0
  9 10  2  0  0  0  0
M  END
>  <CHROM.1>
11.31876927,9.12622078,27.39394430,3.11572949,1.33315920,-2.41068173

>  <Name>
ligand

>  <RI>
0

>  <Rbt.Current_Directory>
/home/itssahil/PROJECTS/Mol_Feturizer/New_Systems/rnas/2EET

>  <Rbt.Executable>
rbdock ($Id: //depot/dev/client3/rdock/2013.1/src/exe/rbdock.cxx#4 $)

>  <Rbt.Library>
libRbt.so (2013.1, Build901 2013/11/27)

>  <Rbt.Parameter_File>
/export/apps/rDock/src/rDock_2013.1_src/data/scripts/dock_solv.prm

>  <Rbt.Receptor>
prm/blind_docking_60.prm

>  <SCORE>
-16.2249

>  <SCORE.INTER>
-16.2249

>  <SCORE.INTER.CONST>
1

>  <SCORE.INTER.POLAR>
0

>  <SCORE.INTER.ROT>
0

>  <SCORE.INTER.SOLV>
4.83325

>  <SCORE.INTER.VDW>
-16.0276

>  <SCORE.INTER.norm>
-1.62249

>  <SCORE.INTRA>
0

>  <SCORE.INTRA.DIHEDRAL>
0

>  <SCORE.INTRA.DIHEDRAL.0>
0

>  <SCORE.INTRA.POLAR>
0

>  <SCORE.INTRA.POLAR.0>
0

>  <SCORE.INTRA.REPUL>
0

>  <SCORE.INTRA.REPUL.0>
0

>  <SCORE.INTRA.SOLV>
0

>  <SCORE.INTRA.SOLV.lig_0>
-4.28464

>  <SCORE.INTRA.VDW>
0

>  <SCORE.INTRA.VDW.0>
0

>  <SCORE.INTRA.norm>
0

>  <SCORE.RESTR>
0

>  <SCORE.RESTR.CAVITY>
0

>  <SCORE.RESTR.norm>
0

>  <SCORE.SYSTEM>
0

>  <SCORE.SYSTEM.CONST>
0

>  <SCORE.SYSTEM.DIHEDRAL>
0

>  <SCORE.SYSTEM.SOLV>
0

>  <SCORE.SYSTEM.norm>
0

>  <SCORE.heavy>
10

>  <SCORE.norm>
-1.62249

>  <RMSD>
3.013

$$$$
ligand
 OpenBabel11021811423D
libRbt.so/2013.1/901 2013/11/27
 10 11  0  0  0  0  0  0  0  0999 V2000
   10.8722   10.7021   26.3608 N   0  0  0  0  0  0  0  0  0  0  0  0
   11.0111   11.2506   27.6240 C   0  0  0  0  0  0  0  0  0  0  0  0
   11.3294   10.5036   28.6881 N   0  0  0  0  0  0  0  0  0  0  0  0
   11.4949    9.1757   28.3834 C   0  0  0  0  0  0  0  0  0  0  0  0
   11.3704    8.5755   27.1515 C   0  0  0  0  0  0  0  0  0  0  0  0
   11.0326    9.3601   26.0140 C   0  0  0  0  0  0  0  0  0  0  0  0
   10.8731    9.0256   24.8333 O   0  0  0  0  0  0  0  0  0  0  0  0
   11.6201    7.2354   27.2929 N   0  0  0  0  0  0  0  0  0  0  0  0
   11.8943    7.0283   28.5950 C   0  0  0  0  0  0  0  0  0  0  0  0
   11.8237    8.2054   29.2965 N   0  0  0  0  0  0  0  0  0  0  0  0
  1  2  1  0  0  0  0
  1  6  1  0  0  0  0
  2  3  2  0  0  0  0
  3  4  1  0  0  0  0
  4  5  2  0  0  0  0
  4 10  1  0  0  0  0
  5  6  1  0  0  0  0
  5  8  1  0  0  0  0
  6  7  2  0  0  0  0
  8  9  1  0  0  0  0
  9 10  2  0  0  0  0
M  END
>  <CHROM.1>
11.32309802,9.10714685,27.37507195,3.11531107,1.32839009,-2.40035702

>  <Name>
ligand

>  <RI>
0

>  <Rbt.Current_Directory>
/home/itssahil/PROJECTS/Mol_Feturizer/New_Systems/rnas/2EET

>  <Rbt.Executable>
rbdock ($Id: //depot/dev/client3/rdock/2013.1/src/exe/rbdock.cxx#4 $)

>  <Rbt.Library>
libRbt.so (2013.1, Build901 2013/11/27)

>  <Rbt.Parameter_File>
/export/apps/rDock/src/rDock_2013.1_src/data/scripts/dock_solv.prm

>  <Rbt.Receptor>
prm/blind_docking_80.prm

>  <SCORE>
-16.1621

>  <SCORE.INTER>
-16.1621

>  <SCORE.INTER.CONST>
1

>  <SCORE.INTER.POLAR>
0

>  <SCORE.INTER.ROT>
0

>  <SCORE.INTER.SOLV>
4.82733

>  <SCORE.INTER.VDW>
-15.9839

>  <SCORE.INTER.norm>
-1.61621

>  <SCORE.INTRA>
0

>  <SCORE.INTRA.DIHEDRAL>
0

>  <SCORE.INTRA.DIHEDRAL.0>
0

>  <SCORE.INTRA.POLAR>
0

>  <SCORE.INTRA.POLAR.0>
0

>  <SCORE.INTRA.REPUL>
0

>  <SCORE.INTRA.REPUL.0>
0

>  <SCORE.INTRA.SOLV>
0

>  <SCORE.INTRA.SOLV.lig_0>
-4.28464

>  <SCORE.INTRA.VDW>
0

>  <SCORE.INTRA.VDW.0>
0

>  <SCORE.INTRA.norm>
0

>  <SCORE.RESTR>
0

>  <SCORE.RESTR.CAVITY>
0

>  <SCORE.RESTR.norm>
0

>  <SCORE.SYSTEM>
0

>  <SCORE.SYSTEM.CONST>
0

>  <SCORE.SYSTEM.DIHEDRAL>
0

>  <SCORE.SYSTEM.SOLV>
0

>  <SCORE.SYSTEM.norm>
0

>  <SCORE.heavy>
10

>  <SCORE.norm>
-1.61621

>  <RMSD>
3.017

$$$$
ligand
 OpenBabel11021811423D
libRbt.so/2013.1/901 2013/11/27
 10 11  0  0  0  0  0  0  0  0999 V2000
   10.8108   10.7146   26.3742 N   0  0  0  0  0  0  0  0  0  0  0  0
   10.9781   11.2613   27.6346 C   0  0  0  0  0  0  0  0  0  0  0  0
   11.3388   10.5160   28.6864 N   0  0  0  0  0  0  0  0  0  0  0  0
   11.5156    9.1918   28.3723 C   0  0  0  0  0  0  0  0  0  0  0  0
   11.3642    8.5935   27.1426 C   0  0  0  0  0  0  0  0  0  0  0  0
   10.9814    9.3762   26.0182 C   0  0  0  0  0  0  0  0  0  0  0  0
   10.7925    9.0429   24.8414 O   0  0  0  0  0  0  0  0  0  0  0  0
   11.6384    7.2569   27.2719 N   0  0  0  0  0  0  0  0  0  0  0  0
   11.9537    7.0501   28.5647 C   0  0  0  0  0  0  0  0  0  0  0  0
   11.8857    8.2239   29.2721 N   0  0  0  0  0  0  0  0  0  0  0  0
  1  2  1  0  0  0  0
  1  6  1  0  0  0  0
  2  3  2  0  0  0  0
  3  4  1  0  0  0  0
  4  5  2  0  0  0  0
  4 10  1  0  0  0  0
  5  6  1  0  0  0  0
  5  8  1  0  0  0  0
  6  7  2  0  0  0  0
  8  9  1  0  0  0  0
  9 10  2  0  0  0  0
M  END
>  <CHROM.1>
11.31540230,9.12365232,27.36923750,-3.13649451,1.29636716,-2.42743951

>  <Name>
ligand

>  <RI>
0

>  <Rbt.Current_Directory>
/home/itssahil/PROJECTS/Mol_Feturizer/New_Systems/rnas/2EET

>  <Rbt.Executable>
rbdock ($Id: //depot/dev/client3/rdock/2013.1/src/exe/rbdock.cxx#4 $)

>  <Rbt.Library>
libRbt.so (2013.1, Build901 2013/11/27)

>  <Rbt.Parameter_File>
/export/apps/rDock/src/rDock_2013.1_src/data/scripts/dock_solv.prm

>  <Rbt.Receptor>
prm/pocket_docking_8.prm

>  <SCORE>
-16.0986

>  <SCORE.INTER>
-16.0986

>  <SCORE.INTER.CONST>
1

>  <SCORE.INTER.POLAR>
0

>  <SCORE.INTER.ROT>
0

>  <SCORE.INTER.SOLV>
4.77811

>  <SCORE.INTER.VDW>
-15.9251

>  <SCORE.INTER.norm>
-1.60986

>  <SCORE.INTRA>
0

>  <SCORE.INTRA.DIHEDRAL>
0

>  <SCORE.INTRA.DIHEDRAL.0>
0

>  <SCORE.INTRA.POLAR>
0

>  <SCORE.INTRA.POLAR.0>
0

>  <SCORE.INTRA.REPUL>
0

>  <SCORE.INTRA.REPUL.0>
0

>  <SCORE.INTRA.SOLV>
0

>  <SCORE.INTRA.SOLV.lig_0>
-4.28464

>  <SCORE.INTRA.VDW>
0

>  <SCORE.INTRA.VDW.0>
0

>  <SCORE.INTRA.norm>
0

>  <SCORE.RESTR>
0

>  <SCORE.RESTR.CAVITY>
0

>  <SCORE.RESTR.norm>
0

>  <SCORE.SYSTEM>
0

>  <SCORE.SYSTEM.CONST>
0

>  <SCORE.SYSTEM.DIHEDRAL>
0

>  <SCORE.SYSTEM.SOLV>
0

>  <SCORE.SYSTEM.norm>
0

>  <SCORE.heavy>
10

>  <SCORE.norm>
-1.60986

>  <RMSD>
3.019

$$$$
ligand
 OpenBabel11021811423D
libRbt.so/2013.1/901 2013/11/27
 10 11  0  0  0  0  0  0  0  0999 V2000
   10.8190   10.6658   26.2948 N   0  0  0  0  0  0  0  0  0  0  0  0
   10.9112   11.2348   27.5531 C   0  0  0  0  0  0  0  0  0  0  0  0
   11.2312   10.5129   28.6339 N   0  0  0  0  0  0  0  0  0  0  0  0
   11.4486    9.1877   28.3509 C   0  0  0  0  0  0  0  0  0  0  0  0
   11.3717    8.5679   27.1249 C   0  0  0  0  0  0  0  0  0  0  0  0
   11.0326    9.3257   25.9698 C   0  0  0  0  0  0  0  0  0  0  0  0
   10.9106    8.9708   24.7905 O   0  0  0  0  0  0  0  0  0  0  0  0
   11.6638    7.2390   27.2897 N   0  0  0  0  0  0  0  0  0  0  0  0
   11.9160    7.0582   28.6001 C   0  0  0  0  0  0  0  0  0  0  0  0
   11.7900    8.2411   29.2839 N   0  0  0  0  0  0  0  0  0  0  0  0
  1  2  1  0  0  0  0
  1  6  1  0  0  0  0
  2  3  2  0  0  0  0
  3  4  1  0  0  0  0
  4  5  2  0  0  0  0
  4 10  1  0  0  0  0
  5  6  1  0  0  0  0
  5  8  1  0  0  0  0
  6  7  2  0  0  0  0
  8  9  1  0  0  0  0
  9 10  2  0  0  0  0
M  END
>  <CHROM.1>
11.30143971,9.10035671,27.34008043,2.95443463,1.31852551,-2.25755757

>  <Name>
ligand

>  <RI>
0

>  <Rbt.Current_Directory>
/home/itssahil/PROJECTS/Mol_Feturizer/New_Systems/rnas/2EET

>  <Rbt.Executable>
rbdock ($Id: //depot/dev/client3/rdock/2013.1/src/exe/rbdock.cxx#4 $)

>  <Rbt.Library>
libRbt.so (2013.1, Build901 2013/11/27)

>  <Rbt.Parameter_File>
/export/apps/rDock/src/rDock_2013.1_src/data/scripts/dock_solv.prm

>  <Rbt.Receptor>
prm/blind_docking_100.prm

>  <SCORE>
-16.1439

>  <SCORE.INTER>
-16.1439

>  <SCORE.INTER.CONST>
1

>  <SCORE.INTER.POLAR>
0

>  <SCORE.INTER.ROT>
0

>  <SCORE.INTER.SOLV>
4.86417

>  <SCORE.INTER.VDW>
-15.984

>  <SCORE.INTER.norm>
-1.61439

>  <SCORE.INTRA>
0

>  <SCORE.INTRA.DIHEDRAL>
0

>  <SCORE.INTRA.DIHEDRAL.0>
0

>  <SCORE.INTRA.POLAR>
0

>  <SCORE.INTRA.POLAR.0>
0

>  <SCORE.INTRA.REPUL>
0

>  <SCORE.INTRA.REPUL.0>
0

>  <SCORE.INTRA.SOLV>
0

>  <SCORE.INTRA.SOLV.lig_0>
-4.28464

>  <SCORE.INTRA.VDW>
0

>  <SCORE.INTRA.VDW.0>
0

>  <SCORE.INTRA.norm>
0

>  <SCORE.RESTR>
0

>  <SCORE.RESTR.CAVITY>
0

>  <SCORE.RESTR.norm>
0

>  <SCORE.SYSTEM>
0

>  <SCORE.SYSTEM.CONST>
0

>  <SCORE.SYSTEM.DIHEDRAL>
0

>  <SCORE.SYSTEM.SOLV>
0

>  <SCORE.SYSTEM.norm>
0

>  <SCORE.heavy>
10

>  <SCORE.norm>
-1.61439

>  <RMSD>
3.026

$$$$
ligand
 OpenBabel11021811423D
libRbt.so/2013.1/901 2013/11/27
 10 11  0  0  0  0  0  0  0  0999 V2000
   10.9596   11.2201   27.6667 N   0  0  0  0  0  0  0  0  0  0  0  0
   10.9786   10.7262   26.3738 C   0  0  0  0  0  0  0  0  0  0  0  0
   11.2192    9.4354   26.1135 N   0  0  0  0  0  0  0  0  0  0  0  0
   11.4368    8.6897   27.2449 C   0  0  0  0  0  0  0  0  0  0  0  0
   11.4303    9.1241   28.5505 C   0  0  0  0  0  0  0  0  0  0  0  0
   11.1756   10.4937   28.8383 C   0  0  0  0  0  0  0  0  0  0  0  0
   11.1247   11.0843   29.9246 O   0  0  0  0  0  0  0  0  0  0  0  0
   11.6920    8.0546   29.3666 N   0  0  0  0  0  0  0  0  0  0  0  0
   11.8530    6.9856   28.5635 C   0  0  0  0  0  0  0  0  0  0  0  0
   11.7036    7.3436   27.2473 N   0  0  0  0  0  0  0  0  0  0  0  0
  1  2  1  0  0  0  0
  1  6  1  0  0  0  0
  2  3  2  0  0  0  0
  3  4  1  0  0  0  0
  4  5  2  0  0  0  0
  4 10  1  0  0  0  0
  5  6  1  0  0  0  0
  5  8  1  0  0  0  0
  6  7  2  0  0  0  0
  8  9  1  0  0  0  0
  9 10  2  0  0  0  0
M  END
>  <CHROM.1>
11.35249777,9.35085059,28.02382932,2.75204653,-1.36619412,1.27227648

>  <Name>
ligand

>  <RI>
0

>  <Rbt.Current_Directory>
/home/itssahil/PROJECTS/Mol_Feturizer/New_Systems/rnas/2EET

>  <Rbt.Executable>
rbdock ($Id: //depot/dev/client3/rdock/2013.1/src/exe/rbdock.cxx#4 $)

>  <Rbt.Library>
libRbt.so (2013.1, Build901 2013/11/27)

>  <Rbt.Parameter_File>
/export/apps/rDock/src/rDock_2013.1_src/data/scripts/dock_solv.prm

>  <Rbt.Receptor>
prm/pocket_docking_8.prm

>  <SCORE>
-16.2015

>  <SCORE.INTER>
-16.2015

>  <SCORE.INTER.CONST>
1

>  <SCORE.INTER.POLAR>
0

>  <SCORE.INTER.ROT>
0

>  <SCORE.INTER.SOLV>
4.04831

>  <SCORE.INTER.VDW>
-15.7504

>  <SCORE.INTER.norm>
-1.62015

>  <SCORE.INTRA>
0

>  <SCORE.INTRA.DIHEDRAL>
0

>  <SCORE.INTRA.DIHEDRAL.0>
0

>  <SCORE.INTRA.POLAR>
0

>  <SCORE.INTRA.POLAR.0>
0

>  <SCORE.INTRA.REPUL>
0

>  <SCORE.INTRA.REPUL.0>
0

>  <SCORE.INTRA.SOLV>
0

>  <SCORE.INTRA.SOLV.lig_0>
-4.28464

>  <SCORE.INTRA.VDW>
0

>  <SCORE.INTRA.VDW.0>
0

>  <SCORE.INTRA.norm>
0

>  <SCORE.RESTR>
0

>  <SCORE.RESTR.CAVITY>
0

>  <SCORE.RESTR.norm>
0

>  <SCORE.SYSTEM>
0

>  <SCORE.SYSTEM.CONST>
0

>  <SCORE.SYSTEM.DIHEDRAL>
0

>  <SCORE.SYSTEM.SOLV>
0

>  <SCORE.SYSTEM.norm>
0

>  <SCORE.heavy>
10

>  <SCORE.norm>
-1.62015

>  <RMSD>
3.273

$$$$
ligand
 OpenBabel11021811423D
libRbt.so/2013.1/901 2013/11/27
 10 11  0  0  0  0  0  0  0  0999 V2000
   10.9488   11.2176   27.6658 N   0  0  0  0  0  0  0  0  0  0  0  0
   10.9847   10.7224   26.3738 C   0  0  0  0  0  0  0  0  0  0  0  0
   11.2307    9.4318   26.1178 N   0  0  0  0  0  0  0  0  0  0  0  0
   11.4355    8.6876   27.2526 C   0  0  0  0  0  0  0  0  0  0  0  0
   11.4121    9.1233   28.5575 C   0  0  0  0  0  0  0  0  0  0  0  0
   11.1516   10.4928   28.8408 C   0  0  0  0  0  0  0  0  0  0  0  0
   11.0863   11.0844   29.9258 O   0  0  0  0  0  0  0  0  0  0  0  0
   11.6655    8.0551   29.3778 N   0  0  0  0  0  0  0  0  0  0  0  0
   11.8382    6.9856   28.5779 C   0  0  0  0  0  0  0  0  0  0  0  0
   11.7046    7.3419   27.2596 N   0  0  0  0  0  0  0  0  0  0  0  0
  1  2  1  0  0  0  0
  1  6  1  0  0  0  0
  2  3  2  0  0  0  0
  3  4  1  0  0  0  0
  4  5  2  0  0  0  0
  4 10  1  0  0  0  0
  5  6  1  0  0  0  0
  5  8  1  0  0  0  0
  6  7  2  0  0  0  0
  8  9  1  0  0  0  0
  9 10  2  0  0  0  0
M  END
>  <CHROM.1>
11.34048031,9.34941852,28.02969706,2.81316680,-1.36784526,1.33111931

>  <Name>
ligand

>  <RI>
0

>  <Rbt.Current_Directory>
/home/itssahil/PROJECTS/Mol_Feturizer/New_Systems/rnas/2EET

>  <Rbt.Executable>
rbdock ($Id: //depot/dev/client3/rdock/2013.1/src/exe/rbdock.cxx#4 $)

>  <Rbt.Library>
libRbt.so (2013.1, Build901 2013/11/27)

>  <Rbt.Parameter_File>
/export/apps/rDock/src/rDock_2013.1_src/data/scripts/dock_solv.prm

>  <Rbt.Receptor>
prm/pocket_docking_5.prm

>  <SCORE>
-16.2202

>  <SCORE.INTER>
-16.2202

>  <SCORE.INTER.CONST>
1

>  <SCORE.INTER.POLAR>
0

>  <SCORE.INTER.ROT>
0

>  <SCORE.INTER.SOLV>
4.04992

>  <SCORE.INTER.VDW>
-15.7634

>  <SCORE.INTER.norm>
-1.62202

>  <SCORE.INTRA>
0

>  <SCORE.INTRA.DIHEDRAL>
0

>  <SCORE.INTRA.DIHEDRAL.0>
0

>  <SCORE.INTRA.POLAR>
0

>  <SCORE.INTRA.POLAR.0>
0

>  <SCORE.INTRA.REPUL>
0

>  <SCORE.INTRA.REPUL.0>
0

>  <SCORE.INTRA.SOLV>
0

>  <SCORE.INTRA.SOLV.lig_0>
-4.28464

>  <SCORE.INTRA.VDW>
0

>  <SCORE.INTRA.VDW.0>
0

>  <SCORE.INTRA.norm>
0

>  <SCORE.RESTR>
0

>  <SCORE.RESTR.CAVITY>
0

>  <SCORE.RESTR.norm>
0

>  <SCORE.SYSTEM>
0

>  <SCORE.SYSTEM.CONST>
0

>  <SCORE.SYSTEM.DIHEDRAL>
0

>  <SCORE.SYSTEM.SOLV>
0

>  <SCORE.SYSTEM.norm>
0

>  <SCORE.heavy>
10

>  <SCORE.norm>
-1.62202

>  <RMSD>
3.277

$$$$
ligand
 OpenBabel11021811423D
libRbt.so/2013.1/901 2013/11/27
 10 11  0  0  0  0  0  0  0  0999 V2000
   11.4587    8.3499   26.5383 N   0  0  0  0  0  0  0  0  0  0  0  0
   11.7442    7.4039   27.5075 C   0  0  0  0  0  0  0  0  0  0  0  0
   11.8423    7.7261   28.8029 N   0  0  0  0  0  0  0  0  0  0  0  0
   11.6326    9.0610   29.0428 C   0  0  0  0  0  0  0  0  0  0  0  0
   11.3464   10.0440   28.1236 C   0  0  0  0  0  0  0  0  0  0  0  0
   11.2398    9.7125   26.7444 C   0  0  0  0  0  0  0  0  0  0  0  0
   10.9939   10.4318   25.7679 O   0  0  0  0  0  0  0  0  0  0  0  0
   11.2124   11.2354   28.7876 N   0  0  0  0  0  0  0  0  0  0  0  0
   11.4135   10.9751   30.0935 C   0  0  0  0  0  0  0  0  0  0  0  0
   11.6771    9.6423   30.2852 N   0  0  0  0  0  0  0  0  0  0  0  0
  1  2  1  0  0  0  0
  1  6  1  0  0  0  0
  2  3  2  0  0  0  0
  3  4  1  0  0  0  0
  4  5  2  0  0  0  0
  4 10  1  0  0  0  0
  5  6  1  0  0  0  0
  5  8  1  0  0  0  0
  6  7  2  0  0  0  0
  8  9  1  0  0  0  0
  9 10  2  0  0  0  0
M  END
>  <CHROM.1>
11.44764877,9.47430879,28.12307930,-1.82500479,-1.35855136,0.98100623

>  <Name>
ligand

>  <RI>
0

>  <Rbt.Current_Directory>
/home/itssahil/PROJECTS/Mol_Feturizer/New_Systems/rnas/2EET

>  <Rbt.Executable>
rbdock ($Id: //depot/dev/client3/rdock/2013.1/src/exe/rbdock.cxx#4 $)

>  <Rbt.Library>
libRbt.so (2013.1, Build901 2013/11/27)

>  <Rbt.Parameter_File>
/export/apps/rDock/src/rDock_2013.1_src/data/scripts/dock_solv.prm

>  <Rbt.Receptor>
prm/blind_docking_40.prm

>  <SCORE>
-16.0159

>  <SCORE.INTER>
-16.0159

>  <SCORE.INTER.CONST>
1

>  <SCORE.INTER.POLAR>
0

>  <SCORE.INTER.ROT>
0

>  <SCORE.INTER.SOLV>
3.93295

>  <SCORE.INTER.VDW>
-15.5882

>  <SCORE.INTER.norm>
-1.60159

>  <SCORE.INTRA>
0

>  <SCORE.INTRA.DIHEDRAL>
0

>  <SCORE.INTRA.DIHEDRAL.0>
0

>  <SCORE.INTRA.POLAR>
0

>  <SCORE.INTRA.POLAR.0>
0

>  <SCORE.INTRA.REPUL>
0

>  <SCORE.INTRA.REPUL.0>
0

>  <SCORE.INTRA.SOLV>
0

>  <SCORE.INTRA.SOLV.lig_0>
-4.28464

>  <SCORE.INTRA.VDW>
0

>  <SCORE.INTRA.VDW.0>
0

>  <SCORE.INTRA.norm>
0

>  <SCORE.RESTR>
0

>  <SCORE.RESTR.CAVITY>
0

>  <SCORE.RESTR.norm>
0

>  <SCORE.SYSTEM>
0

>  <SCORE.SYSTEM.CONST>
0

>  <SCORE.SYSTEM.DIHEDRAL>
0

>  <SCORE.SYSTEM.SOLV>
0

>  <SCORE.SYSTEM.norm>
0

>  <SCORE.heavy>
10

>  <SCORE.norm>
-1.60159

>  <RMSD>
3.462

$$$$
ligand
 OpenBabel11021811423D
libRbt.so/2013.1/901 2013/11/27
 10 11  0  0  0  0  0  0  0  0999 V2000
   11.4175    8.3338   26.5284 N   0  0  0  0  0  0  0  0  0  0  0  0
   11.6909    7.3837   27.4970 C   0  0  0  0  0  0  0  0  0  0  0  0
   11.7975    7.7046   28.7921 N   0  0  0  0  0  0  0  0  0  0  0  0
   11.6093    9.0427   29.0322 C   0  0  0  0  0  0  0  0  0  0  0  0
   11.3360   10.0298   28.1135 C   0  0  0  0  0  0  0  0  0  0  0  0
   11.2204    9.6997   26.7347 C   0  0  0  0  0  0  0  0  0  0  0  0
   10.9832   10.4226   25.7586 O   0  0  0  0  0  0  0  0  0  0  0  0
   11.2224   11.2233   28.7776 N   0  0  0  0  0  0  0  0  0  0  0  0
   11.4229   10.9602   30.0830 C   0  0  0  0  0  0  0  0  0  0  0  0
   11.6663    9.6234   30.2743 N   0  0  0  0  0  0  0  0  0  0  0  0
  1  2  1  0  0  0  0
  1  6  1  0  0  0  0
  2  3  2  0  0  0  0
  3  4  1  0  0  0  0
  4  5  2  0  0  0  0
  4 10  1  0  0  0  0
  5  6  1  0  0  0  0
  5  8  1  0  0  0  0
  6  7  2  0  0  0  0
  8  9  1  0  0  0  0
  9 10  2  0  0  0  0
M  END
>  <CHROM.1>
11.42831852,9.45861976,28.11286076,-1.87984655,-1.36971965,0.92710707

>  <Name>
ligand

>  <RI>
0

>  <Rbt.Current_Directory>
/home/itssahil/PROJECTS/Mol_Feturizer/New_Systems/rnas/2EET

>  <Rbt.Executable>
rbdock ($Id: //depot/dev/client3/rdock/2013.1/src/exe/rbdock.cxx#4 $)

>  <Rbt.Library>
libRbt.so (2013.1, Build901 2013/11/27)

>  <Rbt.Parameter_File>
/export/apps/rDock/src/rDock_2013.1_src/data/scripts/dock_solv.prm

>  <Rbt.Receptor>
prm/blind_docking_100.prm

>  <SCORE>
-15.9818

>  <SCORE.INTER>
-15.9818

>  <SCORE.INTER.CONST>
1

>  <SCORE.INTER.POLAR>
0

>  <SCORE.INTER.ROT>
0

>  <SCORE.INTER.SOLV>
3.9466

>  <SCORE.INTER.VDW>
-15.5701

>  <SCORE.INTER.norm>
-1.59818

>  <SCORE.INTRA>
0

>  <SCORE.INTRA.DIHEDRAL>
0

>  <SCORE.INTRA.DIHEDRAL.0>
0

>  <SCORE.INTRA.POLAR>
0

>  <SCORE.INTRA.POLAR.0>
0

>  <SCORE.INTRA.REPUL>
0

>  <SCORE.INTRA.REPUL.0>
0

>  <SCORE.INTRA.SOLV>
0

>  <SCORE.INTRA.SOLV.lig_0>
-4.28464

>  <SCORE.INTRA.VDW>
0

>  <SCORE.INTRA.VDW.0>
0

>  <SCORE.INTRA.norm>
0

>  <SCORE.RESTR>
0

>  <SCORE.RESTR.CAVITY>
0

>  <SCORE.RESTR.norm>
0

>  <SCORE.SYSTEM>
0

>  <SCORE.SYSTEM.CONST>
0

>  <SCORE.SYSTEM.DIHEDRAL>
0

>  <SCORE.SYSTEM.SOLV>
0

>  <SCORE.SYSTEM.norm>
0

>  <SCORE.heavy>
10

>  <SCORE.norm>
-1.59818

>  <RMSD>
3.463

$$$$
ligand
 OpenBabel11021811423D
libRbt.so/2013.1/901 2013/11/27
 10 11  0  0  0  0  0  0  0  0999 V2000
   11.3869    8.3266   26.5126 N   0  0  0  0  0  0  0  0  0  0  0  0
   11.6700    7.3761   27.4782 C   0  0  0  0  0  0  0  0  0  0  0  0
   11.7887    7.6965   28.7723 N   0  0  0  0  0  0  0  0  0  0  0  0
   11.6020    9.0344   29.0149 C   0  0  0  0  0  0  0  0  0  0  0  0
   11.3195   10.0218   28.0993 C   0  0  0  0  0  0  0  0  0  0  0  0
   11.1911    9.6923   26.7214 C   0  0  0  0  0  0  0  0  0  0  0  0
   10.9441   10.4155   25.7480 O   0  0  0  0  0  0  0  0  0  0  0  0
   11.2116   11.2150   28.7649 N   0  0  0  0  0  0  0  0  0  0  0  0
   11.4246   10.9513   30.0683 C   0  0  0  0  0  0  0  0  0  0  0  0
   11.6705    9.6146   30.2566 N   0  0  0  0  0  0  0  0  0  0  0  0
  1  2  1  0  0  0  0
  1  6  1  0  0  0  0
  2  3  2  0  0  0  0
  3  4  1  0  0  0  0
  4  5  2  0  0  0  0
  4 10  1  0  0  0  0
  5  6  1  0  0  0  0
  5  8  1  0  0  0  0
  6  7  2  0  0  0  0
  8  9  1  0  0  0  0
  9 10  2  0  0  0  0
M  END
>  <CHROM.1>
11.41214920,9.45067534,28.09748036,-1.91513863,-1.36346542,0.89300746

>  <Name>
ligand

>  <RI>
0

>  <Rbt.Current_Directory>
/home/itssahil/PROJECTS/Mol_Feturizer/New_Systems/rnas/2EET

>  <Rbt.Executable>
rbdock ($Id: //depot/dev/client3/rdock/2013.1/src/exe/rbdock.cxx#4 $)

>  <Rbt.Library>
libRbt.so (2013.1, Build901 2013/11/27)

>  <Rbt.Parameter_File>
/export/apps/rDock/src/rDock_2013.1_src/data/scripts/dock_solv.prm

>  <Rbt.Receptor>
prm/blind_docking_100.prm

>  <SCORE>
-16.0101

>  <SCORE.INTER>
-16.0101

>  <SCORE.INTER.CONST>
1

>  <SCORE.INTER.POLAR>
0

>  <SCORE.INTER.ROT>
0

>  <SCORE.INTER.SOLV>
3.93598

>  <SCORE.INTER.VDW>
-15.5854

>  <SCORE.INTER.norm>
-1.60101

>  <SCORE.INTRA>
0

>  <SCORE.INTRA.DIHEDRAL>
0

>  <SCORE.INTRA.DIHEDRAL.0>
0

>  <SCORE.INTRA.POLAR>
0

>  <SCORE.INTRA.POLAR.0>
0

>  <SCORE.INTRA.REPUL>
0

>  <SCORE.INTRA.REPUL.0>
0

>  <SCORE.INTRA.SOLV>
0

>  <SCORE.INTRA.SOLV.lig_0>
-4.28464

>  <SCORE.INTRA.VDW>
0

>  <SCORE.INTRA.VDW.0>
0

>  <SCORE.INTRA.norm>
0

>  <SCORE.RESTR>
0

>  <SCORE.RESTR.CAVITY>
0

>  <SCORE.RESTR.norm>
0

>  <SCORE.SYSTEM>
0

>  <SCORE.SYSTEM.CONST>
0

>  <SCORE.SYSTEM.DIHEDRAL>
0

>  <SCORE.SYSTEM.SOLV>
0

>  <SCORE.SYSTEM.norm>
0

>  <SCORE.heavy>
10

>  <SCORE.norm>
-1.60101

>  <RMSD>
3.464

$$$$
ligand
 OpenBabel11021811423D
libRbt.so/2013.1/901 2013/11/27
 10 11  0  0  0  0  0  0  0  0999 V2000
   11.3747    8.3718   26.4945 N   0  0  0  0  0  0  0  0  0  0  0  0
   11.6436    7.3939   27.4364 C   0  0  0  0  0  0  0  0  0  0  0  0
   11.7479    7.6777   28.7403 N   0  0  0  0  0  0  0  0  0  0  0  0
   11.5621    9.0089   29.0179 C   0  0  0  0  0  0  0  0  0  0  0  0
   11.2932   10.0223   28.1270 C   0  0  0  0  0  0  0  0  0  0  0  0
   11.1802    9.7317   26.7391 C   0  0  0  0  0  0  0  0  0  0  0  0
   10.9469   10.4826   25.7834 O   0  0  0  0  0  0  0  0  0  0  0  0
   11.1807   11.1967   28.8244 N   0  0  0  0  0  0  0  0  0  0  0  0
   11.3775   10.8961   30.1223 C   0  0  0  0  0  0  0  0  0  0  0  0
   11.6174    9.5539   30.2761 N   0  0  0  0  0  0  0  0  0  0  0  0
  1  2  1  0  0  0  0
  1  6  1  0  0  0  0
  2  3  2  0  0  0  0
  3  4  1  0  0  0  0
  4  5  2  0  0  0  0
  4 10  1  0  0  0  0
  5  6  1  0  0  0  0
  5  8  1  0  0  0  0
  6  7  2  0  0  0  0
  8  9  1  0  0  0  0
  9 10  2  0  0  0  0
M  END
>  <CHROM.1>
11.38426289,9.45112972,28.11033296,-1.87689569,-1.37295638,0.95839060

>  <Name>
ligand

>  <RI>
0

>  <Rbt.Current_Directory>
/home/itssahil/PROJECTS/Mol_Feturizer/New_Systems/rnas/2EET

>  <Rbt.Executable>
rbdock ($Id: //depot/dev/client3/rdock/2013.1/src/exe/rbdock.cxx#4 $)

>  <Rbt.Library>
libRbt.so (2013.1, Build901 2013/11/27)

>  <Rbt.Parameter_File>
/export/apps/rDock/src/rDock_2013.1_src/data/scripts/dock_solv.prm

>  <Rbt.Receptor>
prm/blind_docking_100.prm

>  <SCORE>
-15.949

>  <SCORE.INTER>
-15.949

>  <SCORE.INTER.CONST>
1

>  <SCORE.INTER.POLAR>
0

>  <SCORE.INTER.ROT>
0

>  <SCORE.INTER.SOLV>
3.97005

>  <SCORE.INTER.VDW>
-15.556

>  <SCORE.INTER.norm>
-1.5949

>  <SCORE.INTRA>
0

>  <SCORE.INTRA.DIHEDRAL>
0

>  <SCORE.INTRA.DIHEDRAL.0>
0

>  <SCORE.INTRA.POLAR>
0

>  <SCORE.INTRA.POLAR.0>
0

>  <SCORE.INTRA.REPUL>
0

>  <SCORE.INTRA.REPUL.0>
0

>  <SCORE.INTRA.SOLV>
0

>  <SCORE.INTRA.SOLV.lig_0>
-4.28464

>  <SCORE.INTRA.VDW>
0

>  <SCORE.INTRA.VDW.0>
0

>  <SCORE.INTRA.norm>
0

>  <SCORE.RESTR>
0

>  <SCORE.RESTR.CAVITY>
0

>  <SCORE.RESTR.norm>
0

>  <SCORE.SYSTEM>
0

>  <SCORE.SYSTEM.CONST>
0

>  <SCORE.SYSTEM.DIHEDRAL>
0

>  <SCORE.SYSTEM.SOLV>
0

>  <SCORE.SYSTEM.norm>
0

>  <SCORE.heavy>
10

>  <SCORE.norm>
-1.5949

>  <RMSD>
3.484

$$$$
ligand
 OpenBabel11021811423D
libRbt.so/2013.1/901 2013/11/27
 10 11  0  0  0  0  0  0  0  0999 V2000
   11.4123    8.4352   26.4699 N   0  0  0  0  0  0  0  0  0  0  0  0
   11.6832    7.4446   27.3979 C   0  0  0  0  0  0  0  0  0  0  0  0
   11.7879    7.7104   28.7056 N   0  0  0  0  0  0  0  0  0  0  0  0
   11.6003    9.0373   29.0018 C   0  0  0  0  0  0  0  0  0  0  0  0
   11.3294   10.0627   28.1253 C   0  0  0  0  0  0  0  0  0  0  0  0
   11.2160    9.7913   26.7335 C   0  0  0  0  0  0  0  0  0  0  0  0
   10.9810   10.5551   25.7885 O   0  0  0  0  0  0  0  0  0  0  0  0
   11.2156   11.2271   28.8391 N   0  0  0  0  0  0  0  0  0  0  0  0
   11.4137   10.9087   30.1325 C   0  0  0  0  0  0  0  0  0  0  0  0
   11.6556    9.5648   30.2675 N   0  0  0  0  0  0  0  0  0  0  0  0
  1  2  1  0  0  0  0
  1  6  1  0  0  0  0
  2  3  2  0  0  0  0
  3  4  1  0  0  0  0
  4  5  2  0  0  0  0
  4 10  1  0  0  0  0
  5  6  1  0  0  0  0
  5  8  1  0  0  0  0
  6  7  2  0  0  0  0
  8  9  1  0  0  0  0
  9 10  2  0  0  0  0
M  END
>  <CHROM.1>
11.42131051,9.49190848,28.10059043,-1.87526202,-1.37140399,0.97393944

>  <Name>
ligand

>  <RI>
0

>  <Rbt.Current_Directory>
/home/itssahil/PROJECTS/Mol_Feturizer/New_Systems/rnas/2EET

>  <Rbt.Executable>
rbdock ($Id: //depot/dev/client3/rdock/2013.1/src/exe/rbdock.cxx#4 $)

>  <Rbt.Library>
libRbt.so (2013.1, Build901 2013/11/27)

>  <Rbt.Parameter_File>
/export/apps/rDock/src/rDock_2013.1_src/data/scripts/dock_solv.prm

>  <Rbt.Receptor>
prm/blind_docking_60.prm

>  <SCORE>
-15.9086

>  <SCORE.INTER>
-15.9086

>  <SCORE.INTER.CONST>
1

>  <SCORE.INTER.POLAR>
0

>  <SCORE.INTER.ROT>
0

>  <SCORE.INTER.SOLV>
3.97852

>  <SCORE.INTER.VDW>
-15.5319

>  <SCORE.INTER.norm>
-1.59086

>  <SCORE.INTRA>
0

>  <SCORE.INTRA.DIHEDRAL>
0

>  <SCORE.INTRA.DIHEDRAL.0>
0

>  <SCORE.INTRA.POLAR>
0

>  <SCORE.INTRA.POLAR.0>
0

>  <SCORE.INTRA.REPUL>
0

>  <SCORE.INTRA.REPUL.0>
0

>  <SCORE.INTRA.SOLV>
0

>  <SCORE.INTRA.SOLV.lig_0>
-4.28464

>  <SCORE.INTRA.VDW>
0

>  <SCORE.INTRA.VDW.0>
0

>  <SCORE.INTRA.norm>
0

>  <SCORE.RESTR>
0

>  <SCORE.RESTR.CAVITY>
0

>  <SCORE.RESTR.norm>
0

>  <SCORE.SYSTEM>
0

>  <SCORE.SYSTEM.CONST>
0

>  <SCORE.SYSTEM.DIHEDRAL>
0

>  <SCORE.SYSTEM.SOLV>
0

>  <SCORE.SYSTEM.norm>
0

>  <SCORE.heavy>
10

>  <SCORE.norm>
-1.59086

>  <RMSD>
3.495

$$$$
ligand
 OpenBabel11021811423D
libRbt.so/2013.1/901 2013/11/27
 10 11  0  0  0  0  0  0  0  0999 V2000
   11.4129    8.4338   26.5256 N   0  0  0  0  0  0  0  0  0  0  0  0
   11.6868    7.4438   27.4533 C   0  0  0  0  0  0  0  0  0  0  0  0
   11.7946    7.7101   28.7606 N   0  0  0  0  0  0  0  0  0  0  0  0
   11.6070    9.0370   29.0568 C   0  0  0  0  0  0  0  0  0  0  0  0
   11.3333   10.0619   28.1806 C   0  0  0  0  0  0  0  0  0  0  0  0
   11.2165    9.7900   26.7892 C   0  0  0  0  0  0  0  0  0  0  0  0
   10.9787   10.5532   25.8446 O   0  0  0  0  0  0  0  0  0  0  0  0
   11.2206   11.2265   28.8942 N   0  0  0  0  0  0  0  0  0  0  0  0
   11.4222   10.9088   30.1873 C   0  0  0  0  0  0  0  0  0  0  0  0
   11.6653    9.5651   30.3221 N   0  0  0  0  0  0  0  0  0  0  0  0
  1  2  1  0  0  0  0
  1  6  1  0  0  0  0
  2  3  2  0  0  0  0
  3  4  1  0  0  0  0
  4  5  2  0  0  0  0
  4 10  1  0  0  0  0
  5  6  1  0  0  0  0
  5  8  1  0  0  0  0
  6  7  2  0  0  0  0
  8  9  1  0  0  0  0
  9 10  2  0  0  0  0
M  END
>  <CHROM.1>
11.42546465,9.49118555,28.15591307,-1.88412722,-1.36948007,0.96487412

>  <Name>
ligand

>  <RI>
0

>  <Rbt.Current_Directory>
/home/itssahil/PROJECTS/Mol_Feturizer/New_Systems/rnas/2EET

>  <Rbt.Executable>
rbdock ($Id: //depot/dev/client3/rdock/2013.1/src/exe/rbdock.cxx#4 $)

>  <Rbt.Library>
libRbt.so (2013.1, Build901 2013/11/27)

>  <Rbt.Parameter_File>
/export/apps/rDock/src/rDock_2013.1_src/data/scripts/dock_solv.prm

>  <Rbt.Receptor>
prm/pocket_docking_7.prm

>  <SCORE>
-15.9569

>  <SCORE.INTER>
-15.9569

>  <SCORE.INTER.CONST>
1

>  <SCORE.INTER.POLAR>
0

>  <SCORE.INTER.ROT>
0

>  <SCORE.INTER.SOLV>
3.96592

>  <SCORE.INTER.VDW>
-15.5599

>  <SCORE.INTER.norm>
-1.59569

>  <SCORE.INTRA>
0

>  <SCORE.INTRA.DIHEDRAL>
0

>  <SCORE.INTRA.DIHEDRAL.0>
0

>  <SCORE.INTRA.POLAR>
0

>  <SCORE.INTRA.POLAR.0>
0

>  <SCORE.INTRA.REPUL>
0

>  <SCORE.INTRA.REPUL.0>
0

>  <SCORE.INTRA.SOLV>
0

>  <SCORE.INTRA.SOLV.lig_0>
-4.28464

>  <SCORE.INTRA.VDW>
0

>  <SCORE.INTRA.VDW.0>
0

>  <SCORE.INTRA.norm>
0

>  <SCORE.RESTR>
0

>  <SCORE.RESTR.CAVITY>
0

>  <SCORE.RESTR.norm>
0

>  <SCORE.SYSTEM>
0

>  <SCORE.SYSTEM.CONST>
0

>  <SCORE.SYSTEM.DIHEDRAL>
0

>  <SCORE.SYSTEM.SOLV>
0

>  <SCORE.SYSTEM.norm>
0

>  <SCORE.heavy>
10

>  <SCORE.norm>
-1.59569

>  <RMSD>
3.499

$$$$
ligand
 OpenBabel11021811423D
libRbt.so/2013.1/901 2013/11/27
 10 11  0  0  0  0  0  0  0  0999 V2000
   11.3539    8.4315   26.4954 N   0  0  0  0  0  0  0  0  0  0  0  0
   11.5969    7.4265   27.4156 C   0  0  0  0  0  0  0  0  0  0  0  0
   11.7037    7.6783   28.7259 N   0  0  0  0  0  0  0  0  0  0  0  0
   11.5484    9.0068   29.0331 C   0  0  0  0  0  0  0  0  0  0  0  0
   11.3061   10.0462   28.1647 C   0  0  0  0  0  0  0  0  0  0  0  0
   11.1907    9.7898   26.7702 C   0  0  0  0  0  0  0  0  0  0  0  0
   10.9780   10.5673   25.8312 O   0  0  0  0  0  0  0  0  0  0  0  0
   11.2191   11.2069   28.8882 N   0  0  0  0  0  0  0  0  0  0  0  0
   11.4048   10.8725   30.1794 C   0  0  0  0  0  0  0  0  0  0  0  0
   11.6126    9.5219   30.3034 N   0  0  0  0  0  0  0  0  0  0  0  0
  1  2  1  0  0  0  0
  1  6  1  0  0  0  0
  2  3  2  0  0  0  0
  3  4  1  0  0  0  0
  4  5  2  0  0  0  0
  4 10  1  0  0  0  0
  5  6  1  0  0  0  0
  5  8  1  0  0  0  0
  6  7  2  0  0  0  0
  8  9  1  0  0  0  0
  9 10  2  0  0  0  0
M  END
>  <CHROM.1>
11.38384433,9.47354796,28.13530339,-1.93916475,-1.39361641,0.91983858

>  <Name>
ligand

>  <RI>
0

>  <Rbt.Current_Directory>
/home/itssahil/PROJECTS/Mol_Feturizer/New_Systems/rnas/2EET

>  <Rbt.Executable>
rbdock ($Id: //depot/dev/client3/rdock/2013.1/src/exe/rbdock.cxx#4 $)

>  <Rbt.Library>
libRbt.so (2013.1, Build901 2013/11/27)

>  <Rbt.Parameter_File>
/export/apps/rDock/src/rDock_2013.1_src/data/scripts/dock_solv.prm

>  <Rbt.Receptor>
prm/blind_docking_80.prm

>  <SCORE>
-15.9351

>  <SCORE.INTER>
-15.9351

>  <SCORE.INTER.CONST>
1

>  <SCORE.INTER.POLAR>
0

>  <SCORE.INTER.ROT>
0

>  <SCORE.INTER.SOLV>
4.02008

>  <SCORE.INTER.VDW>
-15.5634

>  <SCORE.INTER.norm>
-1.59351

>  <SCORE.INTRA>
0

>  <SCORE.INTRA.DIHEDRAL>
0

>  <SCORE.INTRA.DIHEDRAL.0>
0

>  <SCORE.INTRA.POLAR>
0

>  <SCORE.INTRA.POLAR.0>
0

>  <SCORE.INTRA.REPUL>
0

>  <SCORE.INTRA.REPUL.0>
0

>  <SCORE.INTRA.SOLV>
0

>  <SCORE.INTRA.SOLV.lig_0>
-4.28464

>  <SCORE.INTRA.VDW>
0

>  <SCORE.INTRA.VDW.0>
0

>  <SCORE.INTRA.norm>
0

>  <SCORE.RESTR>
0

>  <SCORE.RESTR.CAVITY>
0

>  <SCORE.RESTR.norm>
0

>  <SCORE.SYSTEM>
0

>  <SCORE.SYSTEM.CONST>
0

>  <SCORE.SYSTEM.DIHEDRAL>
0

>  <SCORE.SYSTEM.SOLV>
0

>  <SCORE.SYSTEM.norm>
0

>  <SCORE.heavy>
10

>  <SCORE.norm>
-1.59351

>  <RMSD>
3.505

$$$$
ligand
 OpenBabel11021811423D
libRbt.so/2013.1/901 2013/11/27
 10 11  0  0  0  0  0  0  0  0999 V2000
   11.2037    9.5103   26.0390 N   0  0  0  0  0  0  0  0  0  0  0  0
   11.2191    8.2004   26.4857 C   0  0  0  0  0  0  0  0  0  0  0  0
   11.2923    7.8981   27.7876 N   0  0  0  0  0  0  0  0  0  0  0  0
   11.3482    9.0064   28.5951 C   0  0  0  0  0  0  0  0  0  0  0  0
   11.3364   10.3271   28.2095 C   0  0  0  0  0  0  0  0  0  0  0  0
   11.2587   10.6595   26.8286 C   0  0  0  0  0  0  0  0  0  0  0  0
   11.2355   11.7659   26.2746 O   0  0  0  0  0  0  0  0  0  0  0  0
   11.4071   11.1093   29.3326 N   0  0  0  0  0  0  0  0  0  0  0  0
   11.4592   10.2709   30.3852 C   0  0  0  0  0  0  0  0  0  0  0  0
   11.4266    8.9652   29.9646 N   0  0  0  0  0  0  0  0  0  0  0  0
  1  2  1  0  0  0  0
  1  6  1  0  0  0  0
  2  3  2  0  0  0  0
  3  4  1  0  0  0  0
  4  5  2  0  0  0  0
  4 10  1  0  0  0  0
  5  6  1  0  0  0  0
  5  8  1  0  0  0  0
  6  7  2  0  0  0  0
  8  9  1  0  0  0  0
  9 10  2  0  0  0  0
M  END
>  <CHROM.1>
11.31700806,9.80733629,27.95601192,2.87688196,-1.51265814,-0.13630999

>  <Name>
ligand

>  <RI>
0

>  <Rbt.Current_Directory>
/home/itssahil/PROJECTS/Mol_Feturizer/New_Systems/rnas/2EET

>  <Rbt.Executable>
rbdock ($Id: //depot/dev/client3/rdock/2013.1/src/exe/rbdock.cxx#4 $)

>  <Rbt.Library>
libRbt.so (2013.1, Build901 2013/11/27)

>  <Rbt.Parameter_File>
/export/apps/rDock/src/rDock_2013.1_src/data/scripts/dock_solv.prm

>  <Rbt.Receptor>
prm/blind_docking_100.prm

>  <SCORE>
-15.5586

>  <SCORE.INTER>
-15.5612

>  <SCORE.INTER.CONST>
1

>  <SCORE.INTER.POLAR>
0

>  <SCORE.INTER.ROT>
0

>  <SCORE.INTER.SOLV>
5.05111

>  <SCORE.INTER.VDW>
-15.6578

>  <SCORE.INTER.norm>
-1.55612

>  <SCORE.INTRA>
0

>  <SCORE.INTRA.DIHEDRAL>
0

>  <SCORE.INTRA.DIHEDRAL.0>
0

>  <SCORE.INTRA.POLAR>
0

>  <SCORE.INTRA.POLAR.0>
0

>  <SCORE.INTRA.REPUL>
0

>  <SCORE.INTRA.REPUL.0>
0

>  <SCORE.INTRA.SOLV>
0

>  <SCORE.INTRA.SOLV.lig_0>
-4.28464

>  <SCORE.INTRA.VDW>
0

>  <SCORE.INTRA.VDW.0>
0

>  <SCORE.INTRA.norm>
0

>  <SCORE.RESTR>
0.00254697

>  <SCORE.RESTR.CAVITY>
0.00254697

>  <SCORE.RESTR.norm>
0.000254697

>  <SCORE.SYSTEM>
0

>  <SCORE.SYSTEM.CONST>
0

>  <SCORE.SYSTEM.DIHEDRAL>
0

>  <SCORE.SYSTEM.SOLV>
0

>  <SCORE.SYSTEM.norm>
0

>  <SCORE.heavy>
10

>  <SCORE.norm>
-1.55586

>  <RMSD>
3.747

$$$$
ligand
 OpenBabel11021811423D
libRbt.so/2013.1/901 2013/11/27
 10 11  0  0  0  0  0  0  0  0999 V2000
   11.1985    9.5833   25.9893 N   0  0  0  0  0  0  0  0  0  0  0  0
   11.1918    8.2626   26.4032 C   0  0  0  0  0  0  0  0  0  0  0  0
   11.2593    7.9268   27.6972 N   0  0  0  0  0  0  0  0  0  0  0  0
   11.3332    9.0136   28.5321 C   0  0  0  0  0  0  0  0  0  0  0  0
   11.3437   10.3435   28.1794 C   0  0  0  0  0  0  0  0  0  0  0  0
   11.2724   10.7114   26.8072 C   0  0  0  0  0  0  0  0  0  0  0  0
   11.2679   11.8315   26.2809 O   0  0  0  0  0  0  0  0  0  0  0  0
   11.4270   11.0962   29.3217 N   0  0  0  0  0  0  0  0  0  0  0  0
   11.4645   10.2311   30.3531 C   0  0  0  0  0  0  0  0  0  0  0  0
   11.4102    8.9370   29.9001 N   0  0  0  0  0  0  0  0  0  0  0  0
  1  2  1  0  0  0  0
  1  6  1  0  0  0  0
  2  3  2  0  0  0  0
  3  4  1  0  0  0  0
  4  5  2  0  0  0  0
  4 10  1  0  0  0  0
  5  6  1  0  0  0  0
  5  8  1  0  0  0  0
  6  7  2  0  0  0  0
  8  9  1  0  0  0  0
  9 10  2  0  0  0  0
M  END
>  <CHROM.1>
11.31578956,9.83059179,27.91309956,2.60595076,-1.50863146,-0.38185565

>  <Name>
ligand

>  <RI>
0

>  <Rbt.Current_Directory>
/home/itssahil/PROJECTS/Mol_Feturizer/New_Systems/rnas/2EET

>  <Rbt.Executable>
rbdock ($Id: //depot/dev/client3/rdock/2013.1/src/exe/rbdock.cxx#4 $)

>  <Rbt.Library>
libRbt.so (2013.1, Build901 2013/11/27)

>  <Rbt.Parameter_File>
/export/apps/rDock/src/rDock_2013.1_src/data/scripts/dock_solv.prm

>  <Rbt.Receptor>
prm/blind_docking_80.prm

>  <SCORE>
-15.4821

>  <SCORE.INTER>
-15.4821

>  <SCORE.INTER.CONST>
1

>  <SCORE.INTER.POLAR>
0

>  <SCORE.INTER.ROT>
0

>  <SCORE.INTER.SOLV>
5.12225

>  <SCORE.INTER.VDW>
-15.6288

>  <SCORE.INTER.norm>
-1.54821

>  <SCORE.INTRA>
0

>  <SCORE.INTRA.DIHEDRAL>
0

>  <SCORE.INTRA.DIHEDRAL.0>
0

>  <SCORE.INTRA.POLAR>
0

>  <SCORE.INTRA.POLAR.0>
0

>  <SCORE.INTRA.REPUL>
0

>  <SCORE.INTRA.REPUL.0>
0

>  <SCORE.INTRA.SOLV>
0

>  <SCORE.INTRA.SOLV.lig_0>
-4.28464

>  <SCORE.INTRA.VDW>
0

>  <SCORE.INTRA.VDW.0>
0

>  <SCORE.INTRA.norm>
0

>  <SCORE.RESTR>
0

>  <SCORE.RESTR.CAVITY>
0

>  <SCORE.RESTR.norm>
0

>  <SCORE.SYSTEM>
0

>  <SCORE.SYSTEM.CONST>
0

>  <SCORE.SYSTEM.DIHEDRAL>
0

>  <SCORE.SYSTEM.SOLV>
0

>  <SCORE.SYSTEM.norm>
0

>  <SCORE.heavy>
10

>  <SCORE.norm>
-1.54821

>  <RMSD>
3.757

$$$$
ligand
 OpenBabel11021811423D
libRbt.so/2013.1/901 2013/11/27
 10 11  0  0  0  0  0  0  0  0999 V2000
   10.7398    0.1099   23.8700 N   0  0  0  0  0  0  0  0  0  0  0  0
   10.8512    1.0964   24.8344 C   0  0  0  0  0  0  0  0  0  0  0  0
   10.9827    2.3888   24.5120 N   0  0  0  0  0  0  0  0  0  0  0  0
   10.9930    2.6072   23.1571 C   0  0  0  0  0  0  0  0  0  0  0  0
   10.8863    1.6701   22.1553 C   0  0  0  0  0  0  0  0  0  0  0  0
   10.7461    0.2939   22.4868 C   0  0  0  0  0  0  0  0  0  0  0  0
   10.6364   -0.6962   21.7525 O   0  0  0  0  0  0  0  0  0  0  0  0
   10.9415    2.3157   20.9476 N   0  0  0  0  0  0  0  0  0  0  0  0
   11.0781    3.6281   21.2165 C   0  0  0  0  0  0  0  0  0  0  0  0
   11.1152    3.8422   22.5714 N   0  0  0  0  0  0  0  0  0  0  0  0
  1  2  1  0  0  0  0
  1  6  1  0  0  0  0
  2  3  2  0  0  0  0
  3  4  1  0  0  0  0
  4  5  2  0  0  0  0
  4 10  1  0  0  0  0
  5  6  1  0  0  0  0
  5  8  1  0  0  0  0
  6  7  2  0  0  0  0
  8  9  1  0  0  0  0
  9 10  2  0  0  0  0
M  END
>  <CHROM.1>
10.89204668,1.67899136,22.73381724,-2.70798647,-1.46704866,-1.47911665

>  <Name>
ligand

>  <RI>
0

>  <Rbt.Current_Directory>
/home/itssahil/PROJECTS/Mol_Feturizer/New_Systems/rnas/2EET

>  <Rbt.Executable>
rbdock ($Id: //depot/dev/client3/rdock/2013.1/src/exe/rbdock.cxx#4 $)

>  <Rbt.Library>
libRbt.so (2013.1, Build901 2013/11/27)

>  <Rbt.Parameter_File>
/export/apps/rDock/src/rDock_2013.1_src/data/scripts/dock_solv.prm

>  <Rbt.Receptor>
prm/blind_docking_80.prm

>  <SCORE>
-11.0563

>  <SCORE.INTER>
-11.2881

>  <SCORE.INTER.CONST>
1

>  <SCORE.INTER.POLAR>
0

>  <SCORE.INTER.ROT>
0

>  <SCORE.INTER.SOLV>
4.06135

>  <SCORE.INTER.VDW>
-12.4792

>  <SCORE.INTER.norm>
-1.12881

>  <SCORE.INTRA>
0

>  <SCORE.INTRA.DIHEDRAL>
0

>  <SCORE.INTRA.DIHEDRAL.0>
0

>  <SCORE.INTRA.POLAR>
0

>  <SCORE.INTRA.POLAR.0>
0

>  <SCORE.INTRA.REPUL>
0

>  <SCORE.INTRA.REPUL.0>
0

>  <SCORE.INTRA.SOLV>
0

>  <SCORE.INTRA.SOLV.lig_0>
-4.28464

>  <SCORE.INTRA.VDW>
0

>  <SCORE.INTRA.VDW.0>
0

>  <SCORE.INTRA.norm>
0

>  <SCORE.RESTR>
0.231803

>  <SCORE.RESTR.CAVITY>
0.231803

>  <SCORE.RESTR.norm>
0.0231803

>  <SCORE.SYSTEM>
0

>  <SCORE.SYSTEM.CONST>
0

>  <SCORE.SYSTEM.DIHEDRAL>
0

>  <SCORE.SYSTEM.SOLV>
0

>  <SCORE.SYSTEM.norm>
0

>  <SCORE.heavy>
10

>  <SCORE.norm>
-1.10563

>  <RMSD>
9.345

$$$$
ligand
 OpenBabel11021811423D
libRbt.so/2013.1/901 2013/11/27
 10 11  0  0  0  0  0  0  0  0999 V2000
   10.2269   -0.0351   22.8685 N   0  0  0  0  0  0  0  0  0  0  0  0
    9.7034    0.8478   23.7970 C   0  0  0  0  0  0  0  0  0  0  0  0
    9.8149    2.1739   23.6529 N   0  0  0  0  0  0  0  0  0  0  0  0
   10.4876    2.5367   22.5130 C   0  0  0  0  0  0  0  0  0  0  0  0
   11.0280    1.7072   21.5575 C   0  0  0  0  0  0  0  0  0  0  0  0
   10.9151    0.2964   21.7008 C   0  0  0  0  0  0  0  0  0  0  0  0
   11.3230   -0.6147   20.9694 O   0  0  0  0  0  0  0  0  0  0  0  0
   11.6092    2.4812   20.5873 N   0  0  0  0  0  0  0  0  0  0  0  0
   11.4206    3.7639   20.9513 C   0  0  0  0  0  0  0  0  0  0  0  0
   10.7331    3.8334   22.1367 N   0  0  0  0  0  0  0  0  0  0  0  0
  1  2  1  0  0  0  0
  1  6  1  0  0  0  0
  2  3  2  0  0  0  0
  3  4  1  0  0  0  0
  4  5  2  0  0  0  0
  4 10  1  0  0  0  0
  5  6  1  0  0  0  0
  5  8  1  0  0  0  0
  6  7  2  0  0  0  0
  8  9  1  0  0  0  0
  9 10  2  0  0  0  0
M  END
>  <CHROM.1>
10.73632684,1.65424686,22.05449160,1.83535326,-1.04261290,-3.10681140

>  <Name>
ligand

>  <RI>
0

>  <Rbt.Current_Directory>
/home/itssahil/PROJECTS/Mol_Feturizer/New_Systems/rnas/2EET

>  <Rbt.Executable>
rbdock ($Id: //depot/dev/client3/rdock/2013.1/src/exe/rbdock.cxx#4 $)

>  <Rbt.Library>
libRbt.so (2013.1, Build901 2013/11/27)

>  <Rbt.Parameter_File>
/export/apps/rDock/src/rDock_2013.1_src/data/scripts/dock_solv.prm

>  <Rbt.Receptor>
prm/blind_docking_60.prm

>  <SCORE>
-13.289

>  <SCORE.INTER>
-13.2911

>  <SCORE.INTER.CONST>
1

>  <SCORE.INTER.POLAR>
0

>  <SCORE.INTER.ROT>
0

>  <SCORE.INTER.SOLV>
2.93871

>  <SCORE.INTER.VDW>
-13.4403

>  <SCORE.INTER.norm>
-1.32911

>  <SCORE.INTRA>
0

>  <SCORE.INTRA.DIHEDRAL>
0

>  <SCORE.INTRA.DIHEDRAL.0>
0

>  <SCORE.INTRA.POLAR>
0

>  <SCORE.INTRA.POLAR.0>
0

>  <SCORE.INTRA.REPUL>
0

>  <SCORE.INTRA.REPUL.0>
0

>  <SCORE.INTRA.SOLV>
0

>  <SCORE.INTRA.SOLV.lig_0>
-4.28464

>  <SCORE.INTRA.VDW>
0

>  <SCORE.INTRA.VDW.0>
0

>  <SCORE.INTRA.norm>
0

>  <SCORE.RESTR>
0.00205471

>  <SCORE.RESTR.CAVITY>
0.00205471

>  <SCORE.RESTR.norm>
0.000205471

>  <SCORE.SYSTEM>
0

>  <SCORE.SYSTEM.CONST>
0

>  <SCORE.SYSTEM.DIHEDRAL>
0

>  <SCORE.SYSTEM.SOLV>
0

>  <SCORE.SYSTEM.norm>
0

>  <SCORE.heavy>
10

>  <SCORE.norm>
-1.3289

>  <RMSD>
9.806

$$$$
ligand
 OpenBabel11021811423D
libRbt.so/2013.1/901 2013/11/27
 10 11  0  0  0  0  0  0  0  0999 V2000
   11.7645    3.1116   20.4431 N   0  0  0  0  0  0  0  0  0  0  0  0
   11.9925    1.8591   19.9002 C   0  0  0  0  0  0  0  0  0  0  0  0
   11.5064    0.7457   20.4621 N   0  0  0  0  0  0  0  0  0  0  0  0
   10.7807    0.9904   21.6010 C   0  0  0  0  0  0  0  0  0  0  0  0
   10.5216    2.2088   22.1854 C   0  0  0  0  0  0  0  0  0  0  0  0
   11.0334    3.3982   21.5965 C   0  0  0  0  0  0  0  0  0  0  0  0
   10.9202    4.5776   21.9538 O   0  0  0  0  0  0  0  0  0  0  0  0
    9.7601    2.0011   23.3058 N   0  0  0  0  0  0  0  0  0  0  0  0
    9.5597    0.6725   23.3965 C   0  0  0  0  0  0  0  0  0  0  0  0
   10.1780    0.0191   22.3604 N   0  0  0  0  0  0  0  0  0  0  0  0
  1  2  1  0  0  0  0
  1  6  1  0  0  0  0
  2  3  2  0  0  0  0
  3  4  1  0  0  0  0
  4  5  2  0  0  0  0
  4 10  1  0  0  0  0
  5  6  1  0  0  0  0
  5  8  1  0  0  0  0
  6  7  2  0  0  0  0
  8  9  1  0  0  0  0
  9 10  2  0  0  0  0
M  END
>  <CHROM.1>
10.80530817,2.00796231,21.72282935,-0.75844364,-0.98165673,-2.98528273

>  <Name>
ligand

>  <RI>
0

>  <Rbt.Current_Directory>
/home/itssahil/PROJECTS/Mol_Feturizer/New_Systems/rnas/2EET

>  <Rbt.Executable>
rbdock ($Id: //depot/dev/client3/rdock/2013.1/src/exe/rbdock.cxx#4 $)

>  <Rbt.Library>
libRbt.so (2013.1, Build901 2013/11/27)

>  <Rbt.Parameter_File>
/export/apps/rDock/src/rDock_2013.1_src/data/scripts/dock_solv.prm

>  <Rbt.Receptor>
prm/blind_docking_60.prm

>  <SCORE>
-13.6818

>  <SCORE.INTER>
-13.6818

>  <SCORE.INTER.CONST>
1

>  <SCORE.INTER.POLAR>
0

>  <SCORE.INTER.ROT>
0

>  <SCORE.INTER.SOLV>
5.48495

>  <SCORE.INTER.VDW>
-14.5495

>  <SCORE.INTER.norm>
-1.36818

>  <SCORE.INTRA>
0

>  <SCORE.INTRA.DIHEDRAL>
0

>  <SCORE.INTRA.DIHEDRAL.0>
0

>  <SCORE.INTRA.POLAR>
0

>  <SCORE.INTRA.POLAR.0>
0

>  <SCORE.INTRA.REPUL>
0

>  <SCORE.INTRA.REPUL.0>
0

>  <SCORE.INTRA.SOLV>
0

>  <SCORE.INTRA.SOLV.lig_0>
-4.28464

>  <SCORE.INTRA.VDW>
0

>  <SCORE.INTRA.VDW.0>
0

>  <SCORE.INTRA.norm>
0

>  <SCORE.RESTR>
0

>  <SCORE.RESTR.CAVITY>
0

>  <SCORE.RESTR.norm>
0

>  <SCORE.SYSTEM>
0

>  <SCORE.SYSTEM.CONST>
0

>  <SCORE.SYSTEM.DIHEDRAL>
0

>  <SCORE.SYSTEM.SOLV>
0

>  <SCORE.SYSTEM.norm>
0

>  <SCORE.heavy>
10

>  <SCORE.norm>
-1.36818

>  <RMSD>
10.316

$$$$
ligand
 OpenBabel11021811423D
libRbt.so/2013.1/901 2013/11/27
 10 11  0  0  0  0  0  0  0  0999 V2000
    1.9546    7.6684   24.2714 N   0  0  0  0  0  0  0  0  0  0  0  0
    1.6624    8.5508   25.2969 C   0  0  0  0  0  0  0  0  0  0  0  0
    1.5391    9.8666   25.0839 N   0  0  0  0  0  0  0  0  0  0  0  0
    1.7312   10.2196   23.7717 C   0  0  0  0  0  0  0  0  0  0  0  0
    2.0228    9.3900   22.7134 C   0  0  0  0  0  0  0  0  0  0  0  0
    2.1559    7.9902   22.9286 C   0  0  0  0  0  0  0  0  0  0  0  0
    2.4110    7.0810   22.1288 O   0  0  0  0  0  0  0  0  0  0  0  0
    2.1317   10.1523   21.5797 N   0  0  0  0  0  0  0  0  0  0  0  0
    1.9067   11.4279   21.9482 C   0  0  0  0  0  0  0  0  0  0  0  0
    1.6580   11.5046   23.2954 N   0  0  0  0  0  0  0  0  0  0  0  0
  1  2  1  0  0  0  0
  1  6  1  0  0  0  0
  2  3  2  0  0  0  0
  3  4  1  0  0  0  0
  4  5  2  0  0  0  0
  4 10  1  0  0  0  0
  5  6  1  0  0  0  0
  5  8  1  0  0  0  0
  6  7  2  0  0  0  0
  8  9  1  0  0  0  0
  9 10  2  0  0  0  0
M  END
>  <CHROM.1>
1.92641050,9.34051000,23.28182939,1.21930853,-1.35685278,2.53937462

>  <Name>
ligand

>  <RI>
0

>  <Rbt.Current_Directory>
/home/itssahil/PROJECTS/Mol_Feturizer/New_Systems/rnas/2EET

>  <Rbt.Executable>
rbdock ($Id: //depot/dev/client3/rdock/2013.1/src/exe/rbdock.cxx#4 $)

>  <Rbt.Library>
libRbt.so (2013.1, Build901 2013/11/27)

>  <Rbt.Parameter_File>
/export/apps/rDock/src/rDock_2013.1_src/data/scripts/dock_solv.prm

>  <Rbt.Receptor>
prm/blind_docking_100.prm

>  <SCORE>
-10.6139

>  <SCORE.INTER>
-10.6139

>  <SCORE.INTER.CONST>
1

>  <SCORE.INTER.POLAR>
0

>  <SCORE.INTER.ROT>
0

>  <SCORE.INTER.SOLV>
1.41458

>  <SCORE.INTER.VDW>
-11.1475

>  <SCORE.INTER.norm>
-1.06139

>  <SCORE.INTRA>
0

>  <SCORE.INTRA.DIHEDRAL>
0

>  <SCORE.INTRA.DIHEDRAL.0>
0

>  <SCORE.INTRA.POLAR>
0

>  <SCORE.INTRA.POLAR.0>
0

>  <SCORE.INTRA.REPUL>
0

>  <SCORE.INTRA.REPUL.0>
0

>  <SCORE.INTRA.SOLV>
0

>  <SCORE.INTRA.SOLV.lig_0>
-4.28464

>  <SCORE.INTRA.VDW>
0

>  <SCORE.INTRA.VDW.0>
0

>  <SCORE.INTRA.norm>
0

>  <SCORE.RESTR>
0

>  <SCORE.RESTR.CAVITY>
0

>  <SCORE.RESTR.norm>
0

>  <SCORE.SYSTEM>
0

>  <SCORE.SYSTEM.CONST>
0

>  <SCORE.SYSTEM.DIHEDRAL>
0

>  <SCORE.SYSTEM.SOLV>
0

>  <SCORE.SYSTEM.norm>
0

>  <SCORE.heavy>
10

>  <SCORE.norm>
-1.06139

>  <RMSD>
10.660

$$$$
ligand
 OpenBabel11021811423D
libRbt.so/2013.1/901 2013/11/27
 10 11  0  0  0  0  0  0  0  0999 V2000
    2.1186   10.4801   21.3572 N   0  0  0  0  0  0  0  0  0  0  0  0
    1.8117   11.5955   22.1170 C   0  0  0  0  0  0  0  0  0  0  0  0
    1.5796   11.5127   23.4327 N   0  0  0  0  0  0  0  0  0  0  0  0
    1.6798   10.2326   23.9174 C   0  0  0  0  0  0  0  0  0  0  0  0
    1.9805    9.0897   23.2128 C   0  0  0  0  0  0  0  0  0  0  0  0
    2.2291    9.1663   21.8143 C   0  0  0  0  0  0  0  0  0  0  0  0
    2.5120    8.2744   21.0045 O   0  0  0  0  0  0  0  0  0  0  0  0
    1.9776    8.0294   24.0813 N   0  0  0  0  0  0  0  0  0  0  0  0
    1.6802    8.5262   25.2971 C   0  0  0  0  0  0  0  0  0  0  0  0
    1.4885    9.8833   25.2306 N   0  0  0  0  0  0  0  0  0  0  0  0
  1  2  1  0  0  0  0
  1  6  1  0  0  0  0
  2  3  2  0  0  0  0
  3  4  1  0  0  0  0
  4  5  2  0  0  0  0
  4 10  1  0  0  0  0
  5  6  1  0  0  0  0
  5  8  1  0  0  0  0
  6  7  2  0  0  0  0
  8  9  1  0  0  0  0
  9 10  2  0  0  0  0
M  END
>  <CHROM.1>
1.91714681,9.65457223,23.10470356,0.82481450,1.33735714,-0.67657198

>  <Name>
ligand

>  <RI>
0

>  <Rbt.Current_Directory>
/home/itssahil/PROJECTS/Mol_Feturizer/New_Systems/rnas/2EET

>  <Rbt.Executable>
rbdock ($Id: //depot/dev/client3/rdock/2013.1/src/exe/rbdock.cxx#4 $)

>  <Rbt.Library>
libRbt.so (2013.1, Build901 2013/11/27)

>  <Rbt.Parameter_File>
/export/apps/rDock/src/rDock_2013.1_src/data/scripts/dock_solv.prm

>  <Rbt.Receptor>
prm/blind_docking_100.prm

>  <SCORE>
-11.5845

>  <SCORE.INTER>
-11.5845

>  <SCORE.INTER.CONST>
1

>  <SCORE.INTER.POLAR>
0

>  <SCORE.INTER.ROT>
0

>  <SCORE.INTER.SOLV>
1.75856

>  <SCORE.INTER.VDW>
-11.9092

>  <SCORE.INTER.norm>
-1.15845

>  <SCORE.INTRA>
0

>  <SCORE.INTRA.DIHEDRAL>
0

>  <SCORE.INTRA.DIHEDRAL.0>
0

>  <SCORE.INTRA.POLAR>
0

>  <SCORE.INTRA.POLAR.0>
0

>  <SCORE.INTRA.REPUL>
0

>  <SCORE.INTRA.REPUL.0>
0

>  <SCORE.INTRA.SOLV>
0

>  <SCORE.INTRA.SOLV.lig_0>
-4.28464

>  <SCORE.INTRA.VDW>
0

>  <SCORE.INTRA.VDW.0>
0

>  <SCORE.INTRA.norm>
0

>  <SCORE.RESTR>
0

>  <SCORE.RESTR.CAVITY>
0

>  <SCORE.RESTR.norm>
0

>  <SCORE.SYSTEM>
0

>  <SCORE.SYSTEM.CONST>
0

>  <SCORE.SYSTEM.DIHEDRAL>
0

>  <SCORE.SYSTEM.SOLV>
0

>  <SCORE.SYSTEM.norm>
0

>  <SCORE.heavy>
10

>  <SCORE.norm>
-1.15845

>  <RMSD>
11.034

$$$$
ligand
 OpenBabel11021811423D
libRbt.so/2013.1/901 2013/11/27
 10 11  0  0  0  0  0  0  0  0999 V2000
   29.1828    8.5662   32.6658 N   0  0  0  0  0  0  0  0  0  0  0  0
   28.5364    7.5819   33.3931 C   0  0  0  0  0  0  0  0  0  0  0  0
   28.2460    7.7369   34.6905 N   0  0  0  0  0  0  0  0  0  0  0  0
   28.6533    8.9477   35.1922 C   0  0  0  0  0  0  0  0  0  0  0  0
   29.2975    9.9608   34.5200 C   0  0  0  0  0  0  0  0  0  0  0  0
   29.6107    9.8065   33.1410 C   0  0  0  0  0  0  0  0  0  0  0  0
   30.1775   10.5815   32.3603 O   0  0  0  0  0  0  0  0  0  0  0  0
   29.5190   10.9920   35.3951 N   0  0  0  0  0  0  0  0  0  0  0  0
   29.0129   10.6072   36.5823 C   0  0  0  0  0  0  0  0  0  0  0  0
   28.4726    9.3491   36.4920 N   0  0  0  0  0  0  0  0  0  0  0  0
  1  2  1  0  0  0  0
  1  6  1  0  0  0  0
  2  3  2  0  0  0  0
  3  4  1  0  0  0  0
  4  5  2  0  0  0  0
  4 10  1  0  0  0  0
  5  6  1  0  0  0  0
  5  8  1  0  0  0  0
  6  7  2  0  0  0  0
  8  9  1  0  0  0  0
  9 10  2  0  0  0  0
M  END
>  <CHROM.1>
29.09126224,9.43304978,34.40255871,1.18749334,-1.08341769,-2.12330420

>  <Name>
ligand

>  <RI>
0

>  <Rbt.Current_Directory>
/home/itssahil/PROJECTS/Mol_Feturizer/New_Systems/rnas/2EET

>  <Rbt.Executable>
rbdock ($Id: //depot/dev/client3/rdock/2013.1/src/exe/rbdock.cxx#4 $)

>  <Rbt.Library>
libRbt.so (2013.1, Build901 2013/11/27)

>  <Rbt.Parameter_File>
/export/apps/rDock/src/rDock_2013.1_src/data/scripts/dock_solv.prm

>  <Rbt.Receptor>
prm/blind_docking_60.prm

>  <SCORE>
-7.58091

>  <SCORE.INTER>
-7.58091

>  <SCORE.INTER.CONST>
1

>  <SCORE.INTER.POLAR>
0

>  <SCORE.INTER.ROT>
0

>  <SCORE.INTER.SOLV>
1.8811

>  <SCORE.INTER.VDW>
-9.28097

>  <SCORE.INTER.norm>
-0.758091

>  <SCORE.INTRA>
0

>  <SCORE.INTRA.DIHEDRAL>
0

>  <SCORE.INTRA.DIHEDRAL.0>
0

>  <SCORE.INTRA.POLAR>
0

>  <SCORE.INTRA.POLAR.0>
0

>  <SCORE.INTRA.REPUL>
0

>  <SCORE.INTRA.REPUL.0>
0

>  <SCORE.INTRA.SOLV>
0

>  <SCORE.INTRA.SOLV.lig_0>
-4.28464

>  <SCORE.INTRA.VDW>
0

>  <SCORE.INTRA.VDW.0>
0

>  <SCORE.INTRA.norm>
0

>  <SCORE.RESTR>
0

>  <SCORE.RESTR.CAVITY>
0

>  <SCORE.RESTR.norm>
0

>  <SCORE.SYSTEM>
0

>  <SCORE.SYSTEM.CONST>
0

>  <SCORE.SYSTEM.DIHEDRAL>
0

>  <SCORE.SYSTEM.SOLV>
0

>  <SCORE.SYSTEM.norm>
0

>  <SCORE.heavy>
10

>  <SCORE.norm>
-0.758091

>  <RMSD>
19.139

$$$$
ligand
 OpenBabel11021811423D
libRbt.so/2013.1/901 2013/11/27
 10 11  0  0  0  0  0  0  0  0999 V2000
   35.3789   17.9133   31.4163 N   0  0  0  0  0  0  0  0  0  0  0  0
   35.4406   18.3874   30.1174 C   0  0  0  0  0  0  0  0  0  0  0  0
   35.8124   17.6057   29.0964 N   0  0  0  0  0  0  0  0  0  0  0  0
   36.1138   16.3236   29.4821 C   0  0  0  0  0  0  0  0  0  0  0  0
   36.0709   15.7975   30.7528 C   0  0  0  0  0  0  0  0  0  0  0  0
   35.6770   16.6193   31.8450 C   0  0  0  0  0  0  0  0  0  0  0  0
   35.5722   16.3503   33.0484 O   0  0  0  0  0  0  0  0  0  0  0  0
   36.4478   14.4812   30.6921 N   0  0  0  0  0  0  0  0  0  0  0  0
   36.7138   14.2144   29.3992 C   0  0  0  0  0  0  0  0  0  0  0  0
   36.5193   15.3309   28.6257 N   0  0  0  0  0  0  0  0  0  0  0  0
  1  2  1  0  0  0  0
  1  6  1  0  0  0  0
  2  3  2  0  0  0  0
  3  4  1  0  0  0  0
  4  5  2  0  0  0  0
  4 10  1  0  0  0  0
  5  6  1  0  0  0  0
  5  8  1  0  0  0  0
  6  7  2  0  0  0  0
  8  9  1  0  0  0  0
  9 10  2  0  0  0  0
M  END
>  <CHROM.1>
35.96643227,16.30565912,30.49648408,2.83233441,-1.26369840,2.06200370

>  <Name>
ligand

>  <RI>
0

>  <Rbt.Current_Directory>
/home/itssahil/PROJECTS/Mol_Feturizer/New_Systems/rnas/2EET

>  <Rbt.Executable>
rbdock ($Id: //depot/dev/client3/rdock/2013.1/src/exe/rbdock.cxx#4 $)

>  <Rbt.Library>
libRbt.so (2013.1, Build901 2013/11/27)

>  <Rbt.Parameter_File>
/export/apps/rDock/src/rDock_2013.1_src/data/scripts/dock_solv.prm

>  <Rbt.Receptor>
prm/blind_docking_100.prm

>  <SCORE>
-12.9167

>  <SCORE.INTER>
-12.9177

>  <SCORE.INTER.CONST>
1

>  <SCORE.INTER.POLAR>
0

>  <SCORE.INTER.ROT>
0

>  <SCORE.INTER.SOLV>
4.65873

>  <SCORE.INTER.VDW>
-13.7647

>  <SCORE.INTER.norm>
-1.29177

>  <SCORE.INTRA>
0

>  <SCORE.INTRA.DIHEDRAL>
0

>  <SCORE.INTRA.DIHEDRAL.0>
0

>  <SCORE.INTRA.POLAR>
0

>  <SCORE.INTRA.POLAR.0>
0

>  <SCORE.INTRA.REPUL>
0

>  <SCORE.INTRA.REPUL.0>
0

>  <SCORE.INTRA.SOLV>
0

>  <SCORE.INTRA.SOLV.lig_0>
-4.28464

>  <SCORE.INTRA.VDW>
0

>  <SCORE.INTRA.VDW.0>
0

>  <SCORE.INTRA.norm>
0

>  <SCORE.RESTR>
0.000954691

>  <SCORE.RESTR.CAVITY>
0.000954691

>  <SCORE.RESTR.norm>
9.54691e-05

>  <SCORE.SYSTEM>
0

>  <SCORE.SYSTEM.CONST>
0

>  <SCORE.SYSTEM.DIHEDRAL>
0

>  <SCORE.SYSTEM.SOLV>
0

>  <SCORE.SYSTEM.norm>
0

>  <SCORE.heavy>
10

>  <SCORE.norm>
-1.29167

>  <RMSD>
25.758

$$$$
ligand
 OpenBabel11021811423D
libRbt.so/2013.1/901 2013/11/27
 10 11  0  0  0  0  0  0  0  0999 V2000
   35.4644   17.7751   31.6573 N   0  0  0  0  0  0  0  0  0  0  0  0
   35.3552   18.2902   30.3773 C   0  0  0  0  0  0  0  0  0  0  0  0
   35.6429   17.5587   29.2938 N   0  0  0  0  0  0  0  0  0  0  0  0
   36.0448   16.2821   29.5975 C   0  0  0  0  0  0  0  0  0  0  0  0
   36.1717   15.7168   30.8455 C   0  0  0  0  0  0  0  0  0  0  0  0
   35.8685   16.4851   32.0036 C   0  0  0  0  0  0  0  0  0  0  0  0
   35.9146   16.1754   33.2008 O   0  0  0  0  0  0  0  0  0  0  0  0
   36.5989   14.4231   30.6961 N   0  0  0  0  0  0  0  0  0  0  0  0
   36.7269   14.2085   29.3728 C   0  0  0  0  0  0  0  0  0  0  0  0
   36.3943   15.3367   28.6662 N   0  0  0  0  0  0  0  0  0  0  0  0
  1  2  1  0  0  0  0
  1  6  1  0  0  0  0
  2  3  2  0  0  0  0
  3  4  1  0  0  0  0
  4  5  2  0  0  0  0
  4 10  1  0  0  0  0
  5  6  1  0  0  0  0
  5  8  1  0  0  0  0
  6  7  2  0  0  0  0
  8  9  1  0  0  0  0
  9 10  2  0  0  0  0
M  END
>  <CHROM.1>
36.01551769,16.22657043,30.62070699,2.42854114,-1.25358282,1.70996449

>  <Name>
ligand

>  <RI>
0

>  <Rbt.Current_Directory>
/home/itssahil/PROJECTS/Mol_Feturizer/New_Systems/rnas/2EET

>  <Rbt.Executable>
rbdock ($Id: //depot/dev/client3/rdock/2013.1/src/exe/rbdock.cxx#4 $)

>  <Rbt.Library>
libRbt.so (2013.1, Build901 2013/11/27)

>  <Rbt.Parameter_File>
/export/apps/rDock/src/rDock_2013.1_src/data/scripts/dock_solv.prm

>  <Rbt.Receptor>
prm/blind_docking_80.prm

>  <SCORE>
-12.5492

>  <SCORE.INTER>
-12.7355

>  <SCORE.INTER.CONST>
1

>  <SCORE.INTER.POLAR>
0

>  <SCORE.INTER.ROT>
0

>  <SCORE.INTER.SOLV>
5.00589

>  <SCORE.INTER.VDW>
-13.759

>  <SCORE.INTER.norm>
-1.27355

>  <SCORE.INTRA>
0

>  <SCORE.INTRA.DIHEDRAL>
0

>  <SCORE.INTRA.DIHEDRAL.0>
0

>  <SCORE.INTRA.POLAR>
0

>  <SCORE.INTRA.POLAR.0>
0

>  <SCORE.INTRA.REPUL>
0

>  <SCORE.INTRA.REPUL.0>
0

>  <SCORE.INTRA.SOLV>
0

>  <SCORE.INTRA.SOLV.lig_0>
-4.28464

>  <SCORE.INTRA.VDW>
0

>  <SCORE.INTRA.VDW.0>
0

>  <SCORE.INTRA.norm>
0

>  <SCORE.RESTR>
0.186285

>  <SCORE.RESTR.CAVITY>
0.186285

>  <SCORE.RESTR.norm>
0.0186285

>  <SCORE.SYSTEM>
0

>  <SCORE.SYSTEM.CONST>
0

>  <SCORE.SYSTEM.DIHEDRAL>
0

>  <SCORE.SYSTEM.SOLV>
0

>  <SCORE.SYSTEM.norm>
0

>  <SCORE.heavy>
10

>  <SCORE.norm>
-1.25492

>  <RMSD>
25.782

$$$$
ligand
 OpenBabel11021811423D
libRbt.so/2013.1/901 2013/11/27
 10 11  0  0  0  0  0  0  0  0999 V2000
   35.4848   18.0537   31.1000 N   0  0  0  0  0  0  0  0  0  0  0  0
   35.6544   18.4977   29.8001 C   0  0  0  0  0  0  0  0  0  0  0  0
   36.0225   17.6717   28.8132 N   0  0  0  0  0  0  0  0  0  0  0  0
   36.2041   16.3780   29.2337 C   0  0  0  0  0  0  0  0  0  0  0  0
   36.0508   15.8802   30.5073 C   0  0  0  0  0  0  0  0  0  0  0  0
   35.6599   16.7493   31.5634 C   0  0  0  0  0  0  0  0  0  0  0  0
   35.4682   16.5112   32.7626 O   0  0  0  0  0  0  0  0  0  0  0  0
   36.3300   14.5386   30.4870 N   0  0  0  0  0  0  0  0  0  0  0  0
   36.6466   14.2287   29.2153 C   0  0  0  0  0  0  0  0  0  0  0  0
   36.5805   15.3421   28.4161 N   0  0  0  0  0  0  0  0  0  0  0  0
  1  2  1  0  0  0  0
  1  6  1  0  0  0  0
  2  3  2  0  0  0  0
  3  4  1  0  0  0  0
  4  5  2  0  0  0  0
  4 10  1  0  0  0  0
  5  6  1  0  0  0  0
  5  8  1  0  0  0  0
  6  7  2  0  0  0  0
  8  9  1  0  0  0  0
  9 10  2  0  0  0  0
M  END
>  <CHROM.1>
35.99951642,16.38991916,30.23819175,-3.13842105,-1.29132694,2.34486956

>  <Name>
ligand

>  <RI>
0

>  <Rbt.Current_Directory>
/home/itssahil/PROJECTS/Mol_Feturizer/New_Systems/rnas/2EET

>  <Rbt.Executable>
rbdock ($Id: //depot/dev/client3/rdock/2013.1/src/exe/rbdock.cxx#4 $)

>  <Rbt.Library>
libRbt.so (2013.1, Build901 2013/11/27)

>  <Rbt.Parameter_File>
/export/apps/rDock/src/rDock_2013.1_src/data/scripts/dock_solv.prm

>  <Rbt.Receptor>
prm/blind_docking_60.prm

>  <SCORE>
-12.8129

>  <SCORE.INTER>
-12.8129

>  <SCORE.INTER.CONST>
1

>  <SCORE.INTER.POLAR>
0

>  <SCORE.INTER.ROT>
0

>  <SCORE.INTER.SOLV>
4.451

>  <SCORE.INTER.VDW>
-13.6256

>  <SCORE.INTER.norm>
-1.28129

>  <SCORE.INTRA>
0

>  <SCORE.INTRA.DIHEDRAL>
0

>  <SCORE.INTRA.DIHEDRAL.0>
0

>  <SCORE.INTRA.POLAR>
0

>  <SCORE.INTRA.POLAR.0>
0

>  <SCORE.INTRA.REPUL>
0

>  <SCORE.INTRA.REPUL.0>
0

>  <SCORE.INTRA.SOLV>
0

>  <SCORE.INTRA.SOLV.lig_0>
-4.28464

>  <SCORE.INTRA.VDW>
0

>  <SCORE.INTRA.VDW.0>
0

>  <SCORE.INTRA.norm>
0

>  <SCORE.RESTR>
0

>  <SCORE.RESTR.CAVITY>
0

>  <SCORE.RESTR.norm>
0

>  <SCORE.SYSTEM>
0

>  <SCORE.SYSTEM.CONST>
0

>  <SCORE.SYSTEM.DIHEDRAL>
0

>  <SCORE.SYSTEM.SOLV>
0

>  <SCORE.SYSTEM.norm>
0

>  <SCORE.heavy>
10

>  <SCORE.norm>
-1.28129

>  <RMSD>
25.794

$$$$
ligand
 OpenBabel11021811423D
libRbt.so/2013.1/901 2013/11/27
 10 11  0  0  0  0  0  0  0  0999 V2000
   35.6994   18.1039   30.9766 N   0  0  0  0  0  0  0  0  0  0  0  0
   35.7882   17.3419   32.1286 C   0  0  0  0  0  0  0  0  0  0  0  0
   36.0839   16.0369   32.0921 N   0  0  0  0  0  0  0  0  0  0  0  0
   36.2809   15.5652   30.8184 C   0  0  0  0  0  0  0  0  0  0  0  0
   36.2063   16.2725   29.6406 C   0  0  0  0  0  0  0  0  0  0  0  0
   35.8928   17.6598   29.6680 C   0  0  0  0  0  0  0  0  0  0  0  0
   35.7772   18.4698   28.7396 O   0  0  0  0  0  0  0  0  0  0  0  0
   36.4732   15.4187   28.6023 N   0  0  0  0  0  0  0  0  0  0  0  0
   36.7082   14.2096   29.1465 C   0  0  0  0  0  0  0  0  0  0  0  0
   36.5957   14.2649   30.5129 N   0  0  0  0  0  0  0  0  0  0  0  0
  1  2  1  0  0  0  0
  1  6  1  0  0  0  0
  2  3  2  0  0  0  0
  3  4  1  0  0  0  0
  4  5  2  0  0  0  0
  4 10  1  0  0  0  0
  5  6  1  0  0  0  0
  5  8  1  0  0  0  0
  6  7  2  0  0  0  0
  8  9  1  0  0  0  0
  9 10  2  0  0  0  0
M  END
>  <CHROM.1>
36.14309561,16.37595809,30.20639913,2.96707552,1.33885975,-1.26203085

>  <Name>
ligand

>  <RI>
0

>  <Rbt.Current_Directory>
/home/itssahil/PROJECTS/Mol_Feturizer/New_Systems/rnas/2EET

>  <Rbt.Executable>
rbdock ($Id: //depot/dev/client3/rdock/2013.1/src/exe/rbdock.cxx#4 $)

>  <Rbt.Library>
libRbt.so (2013.1, Build901 2013/11/27)

>  <Rbt.Parameter_File>
/export/apps/rDock/src/rDock_2013.1_src/data/scripts/dock_solv.prm

>  <Rbt.Receptor>
prm/blind_docking_100.prm

>  <SCORE>
-12.3657

>  <SCORE.INTER>
-12.6192

>  <SCORE.INTER.CONST>
1

>  <SCORE.INTER.POLAR>
0

>  <SCORE.INTER.ROT>
0

>  <SCORE.INTER.SOLV>
3.41613

>  <SCORE.INTER.VDW>
-13.1515

>  <SCORE.INTER.norm>
-1.26192

>  <SCORE.INTRA>
0

>  <SCORE.INTRA.DIHEDRAL>
0

>  <SCORE.INTRA.DIHEDRAL.0>
0

>  <SCORE.INTRA.POLAR>
0

>  <SCORE.INTRA.POLAR.0>
0

>  <SCORE.INTRA.REPUL>
0

>  <SCORE.INTRA.REPUL.0>
0

>  <SCORE.INTRA.SOLV>
0

>  <SCORE.INTRA.SOLV.lig_0>
-4.28464

>  <SCORE.INTRA.VDW>
0

>  <SCORE.INTRA.VDW.0>
0

>  <SCORE.INTRA.norm>
0

>  <SCORE.RESTR>
0.253505

>  <SCORE.RESTR.CAVITY>
0.253505

>  <SCORE.RESTR.norm>
0.0253505

>  <SCORE.SYSTEM>
0

>  <SCORE.SYSTEM.CONST>
0

>  <SCORE.SYSTEM.DIHEDRAL>
0

>  <SCORE.SYSTEM.SOLV>
0

>  <SCORE.SYSTEM.norm>
0

>  <SCORE.heavy>
10

>  <SCORE.norm>
-1.23657

>  <RMSD>
25.947

$$$$
ligand
 OpenBabel11021811423D
libRbt.so/2013.1/901 2013/11/27
 10 11  0  0  0  0  0  0  0  0999 V2000
   35.8125   17.7660   31.6130 N   0  0  0  0  0  0  0  0  0  0  0  0
   36.2328   16.8403   32.5522 C   0  0  0  0  0  0  0  0  0  0  0  0
   36.6126   15.6043   32.2060 N   0  0  0  0  0  0  0  0  0  0  0  0
   36.5367   15.3766   30.8548 C   0  0  0  0  0  0  0  0  0  0  0  0
   36.1283   16.2547   29.8774 C   0  0  0  0  0  0  0  0  0  0  0  0
   35.7226   17.5706   30.2343 C   0  0  0  0  0  0  0  0  0  0  0  0
   35.3259   18.5032   29.5240 O   0  0  0  0  0  0  0  0  0  0  0  0
   36.2060   15.6225   28.6639 N   0  0  0  0  0  0  0  0  0  0  0  0
   36.6581   14.3771   28.9049 C   0  0  0  0  0  0  0  0  0  0  0  0
   36.8705   14.1919   30.2478 N   0  0  0  0  0  0  0  0  0  0  0  0
  1  2  1  0  0  0  0
  1  6  1  0  0  0  0
  2  3  2  0  0  0  0
  3  4  1  0  0  0  0
  4  5  2  0  0  0  0
  4 10  1  0  0  0  0
  5  6  1  0  0  0  0
  5  8  1  0  0  0  0
  6  7  2  0  0  0  0
  8  9  1  0  0  0  0
  9 10  2  0  0  0  0
M  END
>  <CHROM.1>
36.19384592,16.25490747,30.45230859,-2.47568327,1.22727451,-1.89199009

>  <Name>
ligand

>  <RI>
0

>  <Rbt.Current_Directory>
/home/itssahil/PROJECTS/Mol_Feturizer/New_Systems/rnas/2EET

>  <Rbt.Executable>
rbdock ($Id: //depot/dev/client3/rdock/2013.1/src/exe/rbdock.cxx#4 $)

>  <Rbt.Library>
libRbt.so (2013.1, Build901 2013/11/27)

>  <Rbt.Parameter_File>
/export/apps/rDock/src/rDock_2013.1_src/data/scripts/dock_solv.prm

>  <Rbt.Receptor>
prm/blind_docking_80.prm

>  <SCORE>
-12.8333

>  <SCORE.INTER>
-12.8378

>  <SCORE.INTER.CONST>
1

>  <SCORE.INTER.POLAR>
0

>  <SCORE.INTER.ROT>
0

>  <SCORE.INTER.SOLV>
3.92407

>  <SCORE.INTER.VDW>
-13.4666

>  <SCORE.INTER.norm>
-1.28378

>  <SCORE.INTRA>
0

>  <SCORE.INTRA.DIHEDRAL>
0

>  <SCORE.INTRA.DIHEDRAL.0>
0

>  <SCORE.INTRA.POLAR>
0

>  <SCORE.INTRA.POLAR.0>
0

>  <SCORE.INTRA.REPUL>
0

>  <SCORE.INTRA.REPUL.0>
0

>  <SCORE.INTRA.SOLV>
0

>  <SCORE.INTRA.SOLV.lig_0>
-4.28464

>  <SCORE.INTRA.VDW>
0

>  <SCORE.INTRA.VDW.0>
0

>  <SCORE.INTRA.norm>
0

>  <SCORE.RESTR>
0.00455904

>  <SCORE.RESTR.CAVITY>
0.00455904

>  <SCORE.RESTR.norm>
0.000455904

>  <SCORE.SYSTEM>
0

>  <SCORE.SYSTEM.CONST>
0

>  <SCORE.SYSTEM.DIHEDRAL>
0

>  <SCORE.SYSTEM.SOLV>
0

>  <SCORE.SYSTEM.norm>
0

>  <SCORE.heavy>
10

>  <SCORE.norm>
-1.28333

>  <RMSD>
25.987

$$$$
ligand
 OpenBabel11021811423D
libRbt.so/2013.1/901 2013/11/27
 10 11  0  0  0  0  0  0  0  0999 V2000
   35.8956   18.0722   31.0386 N   0  0  0  0  0  0  0  0  0  0  0  0
   36.0267   17.2388   32.1359 C   0  0  0  0  0  0  0  0  0  0  0  0
   36.2764   15.9303   32.0041 N   0  0  0  0  0  0  0  0  0  0  0  0
   36.3824   15.5318   30.6951 C   0  0  0  0  0  0  0  0  0  0  0  0
   36.2621   16.3118   29.5681 C   0  0  0  0  0  0  0  0  0  0  0  0
   35.9969   17.7034   29.6967 C   0  0  0  0  0  0  0  0  0  0  0  0
   35.8538   18.5718   28.8267 O   0  0  0  0  0  0  0  0  0  0  0  0
   36.4390   15.5157   28.4666 N   0  0  0  0  0  0  0  0  0  0  0  0
   36.6655   14.2690   28.9229 C   0  0  0  0  0  0  0  0  0  0  0  0
   36.6354   14.2439   30.2945 N   0  0  0  0  0  0  0  0  0  0  0  0
  1  2  1  0  0  0  0
  1  6  1  0  0  0  0
  2  3  2  0  0  0  0
  3  4  1  0  0  0  0
  4  5  2  0  0  0  0
  4 10  1  0  0  0  0
  5  6  1  0  0  0  0
  5  8  1  0  0  0  0
  6  7  2  0  0  0  0
  8  9  1  0  0  0  0
  9 10  2  0  0  0  0
M  END
>  <CHROM.1>
36.23573799,16.38222838,30.14178990,-3.06779316,1.38272854,-1.44463998

>  <Name>
ligand

>  <RI>
0

>  <Rbt.Current_Directory>
/home/itssahil/PROJECTS/Mol_Feturizer/New_Systems/rnas/2EET

>  <Rbt.Executable>
rbdock ($Id: //depot/dev/client3/rdock/2013.1/src/exe/rbdock.cxx#4 $)

>  <Rbt.Library>
libRbt.so (2013.1, Build901 2013/11/27)

>  <Rbt.Parameter_File>
/export/apps/rDock/src/rDock_2013.1_src/data/scripts/dock_solv.prm

>  <Rbt.Receptor>
prm/blind_docking_60.prm

>  <SCORE>
-13.236

>  <SCORE.INTER>
-13.2363

>  <SCORE.INTER.CONST>
1

>  <SCORE.INTER.POLAR>
0

>  <SCORE.INTER.ROT>
0

>  <SCORE.INTER.SOLV>
3.51673

>  <SCORE.INTER.VDW>
-13.5964

>  <SCORE.INTER.norm>
-1.32363

>  <SCORE.INTRA>
0

>  <SCORE.INTRA.DIHEDRAL>
0

>  <SCORE.INTRA.DIHEDRAL.0>
0

>  <SCORE.INTRA.POLAR>
0

>  <SCORE.INTRA.POLAR.0>
0

>  <SCORE.INTRA.REPUL>
0

>  <SCORE.INTRA.REPUL.0>
0

>  <SCORE.INTRA.SOLV>
0

>  <SCORE.INTRA.SOLV.lig_0>
-4.28464

>  <SCORE.INTRA.VDW>
0

>  <SCORE.INTRA.VDW.0>
0

>  <SCORE.INTRA.norm>
0

>  <SCORE.RESTR>
0.000269526

>  <SCORE.RESTR.CAVITY>
0.000269526

>  <SCORE.RESTR.norm>
2.69526e-05

>  <SCORE.SYSTEM>
0

>  <SCORE.SYSTEM.CONST>
0

>  <SCORE.SYSTEM.DIHEDRAL>
0

>  <SCORE.SYSTEM.SOLV>
0

>  <SCORE.SYSTEM.norm>
0

>  <SCORE.heavy>
10

>  <SCORE.norm>
-1.3236

>  <RMSD>
26.028

$$$$
ligand
 OpenBabel11021811423D
libRbt.so/2013.1/901 2013/11/27
 10 11  0  0  0  0  0  0  0  0999 V2000
   36.4657   14.8260   30.9988 N   0  0  0  0  0  0  0  0  0  0  0  0
   36.5619   14.4760   29.6631 C   0  0  0  0  0  0  0  0  0  0  0  0
   36.5111   15.3907   28.6871 N   0  0  0  0  0  0  0  0  0  0  0  0
   36.3577   16.6710   29.1569 C   0  0  0  0  0  0  0  0  0  0  0  0
   36.2568   17.0776   30.4675 C   0  0  0  0  0  0  0  0  0  0  0  0
   36.3096   16.1139   31.5125 C   0  0  0  0  0  0  0  0  0  0  0  0
   36.2391   16.2628   32.7390 O   0  0  0  0  0  0  0  0  0  0  0  0
   36.1157   18.4407   30.4909 N   0  0  0  0  0  0  0  0  0  0  0  0
   36.1329   18.8533   29.2092 C   0  0  0  0  0  0  0  0  0  0  0  0
   36.2791   17.7855   28.3600 N   0  0  0  0  0  0  0  0  0  0  0  0
  1  2  1  0  0  0  0
  1  6  1  0  0  0  0
  2  3  2  0  0  0  0
  3  4  1  0  0  0  0
  4  5  2  0  0  0  0
  4 10  1  0  0  0  0
  5  6  1  0  0  0  0
  5  8  1  0  0  0  0
  6  7  2  0  0  0  0
  8  9  1  0  0  0  0
  9 10  2  0  0  0  0
M  END
>  <CHROM.1>
36.32163848,16.58113968,30.17746264,-1.12894745,1.45893892,-1.15849996

>  <Name>
ligand

>  <RI>
0

>  <Rbt.Current_Directory>
/home/itssahil/PROJECTS/Mol_Feturizer/New_Systems/rnas/2EET

>  <Rbt.Executable>
rbdock ($Id: //depot/dev/client3/rdock/2013.1/src/exe/rbdock.cxx#4 $)

>  <Rbt.Library>
libRbt.so (2013.1, Build901 2013/11/27)

>  <Rbt.Parameter_File>
/export/apps/rDock/src/rDock_2013.1_src/data/scripts/dock_solv.prm

>  <Rbt.Receptor>
prm/blind_docking_60.prm

>  <SCORE>
-13.4557

>  <SCORE.INTER>
-13.4558

>  <SCORE.INTER.CONST>
1

>  <SCORE.INTER.POLAR>
0

>  <SCORE.INTER.ROT>
0

>  <SCORE.INTER.SOLV>
4.64021

>  <SCORE.INTER.VDW>
-14.1173

>  <SCORE.INTER.norm>
-1.34558

>  <SCORE.INTRA>
0

>  <SCORE.INTRA.DIHEDRAL>
0

>  <SCORE.INTRA.DIHEDRAL.0>
0

>  <SCORE.INTRA.POLAR>
0

>  <SCORE.INTRA.POLAR.0>
0

>  <SCORE.INTRA.REPUL>
0

>  <SCORE.INTRA.REPUL.0>
0

>  <SCORE.INTRA.SOLV>
0

>  <SCORE.INTRA.SOLV.lig_0>
-4.28464

>  <SCORE.INTRA.VDW>
0

>  <SCORE.INTRA.VDW.0>
0

>  <SCORE.INTRA.norm>
0

>  <SCORE.RESTR>
0.000131941

>  <SCORE.RESTR.CAVITY>
0.000131941

>  <SCORE.RESTR.norm>
1.31941e-05

>  <SCORE.SYSTEM>
0

>  <SCORE.SYSTEM.CONST>
0

>  <SCORE.SYSTEM.DIHEDRAL>
0

>  <SCORE.SYSTEM.SOLV>
0

>  <SCORE.SYSTEM.norm>
0

>  <SCORE.heavy>
10

>  <SCORE.norm>
-1.34557

>  <RMSD>
26.142

$$$$
ligand
 OpenBabel11021811423D
libRbt.so/2013.1/901 2013/11/27
 10 11  0  0  0  0  0  0  0  0999 V2000
   36.5095   14.8157   31.0086 N   0  0  0  0  0  0  0  0  0  0  0  0
   36.5853   14.4631   29.6723 C   0  0  0  0  0  0  0  0  0  0  0  0
   36.5091   15.3747   28.6952 N   0  0  0  0  0  0  0  0  0  0  0  0
   36.3523   16.6549   29.1644 C   0  0  0  0  0  0  0  0  0  0  0  0
   36.2709   17.0640   30.4756 C   0  0  0  0  0  0  0  0  0  0  0  0
   36.3508   16.1035   31.5219 C   0  0  0  0  0  0  0  0  0  0  0  0
   36.3006   16.2549   32.7491 O   0  0  0  0  0  0  0  0  0  0  0  0
   36.1179   18.4257   30.4982 N   0  0  0  0  0  0  0  0  0  0  0  0
   36.1087   18.8352   29.2153 C   0  0  0  0  0  0  0  0  0  0  0  0
   36.2496   17.7665   28.3663 N   0  0  0  0  0  0  0  0  0  0  0  0
  1  2  1  0  0  0  0
  1  6  1  0  0  0  0
  2  3  2  0  0  0  0
  3  4  1  0  0  0  0
  4  5  2  0  0  0  0
  4 10  1  0  0  0  0
  5  6  1  0  0  0  0
  5  8  1  0  0  0  0
  6  7  2  0  0  0  0
  8  9  1  0  0  0  0
  9 10  2  0  0  0  0
M  END
>  <CHROM.1>
36.33508643,16.56732810,30.18566943,-0.95542982,1.45597931,-1.33345087

>  <Name>
ligand

>  <RI>
0

>  <Rbt.Current_Directory>
/home/itssahil/PROJECTS/Mol_Feturizer/New_Systems/rnas/2EET

>  <Rbt.Executable>
rbdock ($Id: //depot/dev/client3/rdock/2013.1/src/exe/rbdock.cxx#4 $)

>  <Rbt.Library>
libRbt.so (2013.1, Build901 2013/11/27)

>  <Rbt.Parameter_File>
/export/apps/rDock/src/rDock_2013.1_src/data/scripts/dock_solv.prm

>  <Rbt.Receptor>
prm/blind_docking_60.prm

>  <SCORE>
-13.5112

>  <SCORE.INTER>
-13.5112

>  <SCORE.INTER.CONST>
1

>  <SCORE.INTER.POLAR>
0

>  <SCORE.INTER.ROT>
0

>  <SCORE.INTER.SOLV>
4.71211

>  <SCORE.INTER.VDW>
-14.1782

>  <SCORE.INTER.norm>
-1.35112

>  <SCORE.INTRA>
0

>  <SCORE.INTRA.DIHEDRAL>
0

>  <SCORE.INTRA.DIHEDRAL.0>
0

>  <SCORE.INTRA.POLAR>
0

>  <SCORE.INTRA.POLAR.0>
0

>  <SCORE.INTRA.REPUL>
0

>  <SCORE.INTRA.REPUL.0>
0

>  <SCORE.INTRA.SOLV>
0

>  <SCORE.INTRA.SOLV.lig_0>
-4.28464

>  <SCORE.INTRA.VDW>
0

>  <SCORE.INTRA.VDW.0>
0

>  <SCORE.INTRA.norm>
0

>  <SCORE.RESTR>
0

>  <SCORE.RESTR.CAVITY>
0

>  <SCORE.RESTR.norm>
0

>  <SCORE.SYSTEM>
0

>  <SCORE.SYSTEM.CONST>
0

>  <SCORE.SYSTEM.DIHEDRAL>
0

>  <SCORE.SYSTEM.SOLV>
0

>  <SCORE.SYSTEM.norm>
0

>  <SCORE.heavy>
10

>  <SCORE.norm>
-1.35112

>  <RMSD>
26.150

$$$$
ligand
 OpenBabel11021811423D
libRbt.so/2013.1/901 2013/11/27
 10 11  0  0  0  0  0  0  0  0999 V2000
   36.5616   14.9475   31.0841 N   0  0  0  0  0  0  0  0  0  0  0  0
   36.5105   15.8759   32.1094 C   0  0  0  0  0  0  0  0  0  0  0  0
   36.4202   17.1897   31.8697 N   0  0  0  0  0  0  0  0  0  0  0  0
   36.3858   17.4916   30.5313 C   0  0  0  0  0  0  0  0  0  0  0  0
   36.4331   16.6149   29.4719 C   0  0  0  0  0  0  0  0  0  0  0  0
   36.5289   15.2166   29.7153 C   0  0  0  0  0  0  0  0  0  0  0  0
   36.5837   14.2704   28.9196 O   0  0  0  0  0  0  0  0  0  0  0  0
   36.3717   17.3352   28.3076 N   0  0  0  0  0  0  0  0  0  0  0  0
   36.2866   18.6324   28.6594 C   0  0  0  0  0  0  0  0  0  0  0  0
   36.2947   18.7638   30.0251 N   0  0  0  0  0  0  0  0  0  0  0  0
  1  2  1  0  0  0  0
  1  6  1  0  0  0  0
  2  3  2  0  0  0  0
  3  4  1  0  0  0  0
  4  5  2  0  0  0  0
  4 10  1  0  0  0  0
  5  6  1  0  0  0  0
  5  8  1  0  0  0  0
  6  7  2  0  0  0  0
  8  9  1  0  0  0  0
  9 10  2  0  0  0  0
M  END
>  <CHROM.1>
36.44052408,16.58814976,30.04986087,0.11767164,-1.50290614,1.40892022

>  <Name>
ligand

>  <RI>
0

>  <Rbt.Current_Directory>
/home/itssahil/PROJECTS/Mol_Feturizer/New_Systems/rnas/2EET

>  <Rbt.Executable>
rbdock ($Id: //depot/dev/client3/rdock/2013.1/src/exe/rbdock.cxx#4 $)

>  <Rbt.Library>
libRbt.so (2013.1, Build901 2013/11/27)

>  <Rbt.Parameter_File>
/export/apps/rDock/src/rDock_2013.1_src/data/scripts/dock_solv.prm

>  <Rbt.Receptor>
prm/blind_docking_80.prm

>  <SCORE>
-12.5929

>  <SCORE.INTER>
-12.5929

>  <SCORE.INTER.CONST>
1

>  <SCORE.INTER.POLAR>
0

>  <SCORE.INTER.ROT>
0

>  <SCORE.INTER.SOLV>
5.22661

>  <SCORE.INTER.VDW>
-13.7374

>  <SCORE.INTER.norm>
-1.25929

>  <SCORE.INTRA>
0

>  <SCORE.INTRA.DIHEDRAL>
0

>  <SCORE.INTRA.DIHEDRAL.0>
0

>  <SCORE.INTRA.POLAR>
0

>  <SCORE.INTRA.POLAR.0>
0

>  <SCORE.INTRA.REPUL>
0

>  <SCORE.INTRA.REPUL.0>
0

>  <SCORE.INTRA.SOLV>
0

>  <SCORE.INTRA.SOLV.lig_0>
-4.28464

>  <SCORE.INTRA.VDW>
0

>  <SCORE.INTRA.VDW.0>
0

>  <SCORE.INTRA.norm>
0

>  <SCORE.RESTR>
0

>  <SCORE.RESTR.CAVITY>
0

>  <SCORE.RESTR.norm>
0

>  <SCORE.SYSTEM>
0

>  <SCORE.SYSTEM.CONST>
0

>  <SCORE.SYSTEM.DIHEDRAL>
0

>  <SCORE.SYSTEM.SOLV>
0

>  <SCORE.SYSTEM.norm>
0

>  <SCORE.heavy>
10

>  <SCORE.norm>
-1.25929

>  <RMSD>
26.179

$$$$
ligand
 OpenBabel11021811423D
libRbt.so/2013.1/901 2013/11/27
 10 11  0  0  0  0  0  0  0  0999 V2000
   36.5638   14.9467   31.0877 N   0  0  0  0  0  0  0  0  0  0  0  0
   36.5280   15.8763   32.1125 C   0  0  0  0  0  0  0  0  0  0  0  0
   36.4457   17.1906   31.8724 N   0  0  0  0  0  0  0  0  0  0  0  0
   36.4027   17.4915   30.5341 C   0  0  0  0  0  0  0  0  0  0  0  0
   36.4348   16.6137   29.4751 C   0  0  0  0  0  0  0  0  0  0  0  0
   36.5221   15.2149   29.7190 C   0  0  0  0  0  0  0  0  0  0  0  0
   36.5632   14.2677   28.9237 O   0  0  0  0  0  0  0  0  0  0  0  0
   36.3694   17.3335   28.3107 N   0  0  0  0  0  0  0  0  0  0  0  0
   36.2969   18.6315   28.6620 C   0  0  0  0  0  0  0  0  0  0  0  0
   36.3170   18.7640   30.0275 N   0  0  0  0  0  0  0  0  0  0  0  0
  1  2  1  0  0  0  0
  1  6  1  0  0  0  0
  2  3  2  0  0  0  0
  3  4  1  0  0  0  0
  4  5  2  0  0  0  0
  4 10  1  0  0  0  0
  5  6  1  0  0  0  0
  5  8  1  0  0  0  0
  6  7  2  0  0  0  0
  8  9  1  0  0  0  0
  9 10  2  0  0  0  0
M  END
>  <CHROM.1>
36.44671888,16.58734192,30.05300233,-0.03073077,-1.50833866,1.25997002

>  <Name>
ligand

>  <RI>
0

>  <Rbt.Current_Directory>
/home/itssahil/PROJECTS/Mol_Feturizer/New_Systems/rnas/2EET

>  <Rbt.Executable>
rbdock ($Id: //depot/dev/client3/rdock/2013.1/src/exe/rbdock.cxx#4 $)

>  <Rbt.Library>
libRbt.so (2013.1, Build901 2013/11/27)

>  <Rbt.Parameter_File>
/export/apps/rDock/src/rDock_2013.1_src/data/scripts/dock_solv.prm

>  <Rbt.Receptor>
prm/blind_docking_80.prm

>  <SCORE>
-12.5839

>  <SCORE.INTER>
-12.5839

>  <SCORE.INTER.CONST>
1

>  <SCORE.INTER.POLAR>
0

>  <SCORE.INTER.ROT>
0

>  <SCORE.INTER.SOLV>
5.22474

>  <SCORE.INTER.VDW>
-13.7309

>  <SCORE.INTER.norm>
-1.25839

>  <SCORE.INTRA>
0

>  <SCORE.INTRA.DIHEDRAL>
0

>  <SCORE.INTRA.DIHEDRAL.0>
0

>  <SCORE.INTRA.POLAR>
0

>  <SCORE.INTRA.POLAR.0>
0

>  <SCORE.INTRA.REPUL>
0

>  <SCORE.INTRA.REPUL.0>
0

>  <SCORE.INTRA.SOLV>
0

>  <SCORE.INTRA.SOLV.lig_0>
-4.28464

>  <SCORE.INTRA.VDW>
0

>  <SCORE.INTRA.VDW.0>
0

>  <SCORE.INTRA.norm>
0

>  <SCORE.RESTR>
0

>  <SCORE.RESTR.CAVITY>
0

>  <SCORE.RESTR.norm>
0

>  <SCORE.SYSTEM>
0

>  <SCORE.SYSTEM.CONST>
0

>  <SCORE.SYSTEM.DIHEDRAL>
0

>  <SCORE.SYSTEM.SOLV>
0

>  <SCORE.SYSTEM.norm>
0

>  <SCORE.heavy>
10

>  <SCORE.norm>
-1.25839

>  <RMSD>
26.185

$$$$
ligand
 OpenBabel11021811423D
libRbt.so/2013.1/901 2013/11/27
 10 11  0  0  0  0  0  0  0  0999 V2000
   36.5863   14.9285   31.0772 N   0  0  0  0  0  0  0  0  0  0  0  0
   36.5271   15.8522   32.1062 C   0  0  0  0  0  0  0  0  0  0  0  0
   36.4274   17.1663   31.8720 N   0  0  0  0  0  0  0  0  0  0  0  0
   36.3924   17.4735   30.5348 C   0  0  0  0  0  0  0  0  0  0  0  0
   36.4474   16.6016   29.4718 C   0  0  0  0  0  0  0  0  0  0  0  0
   36.5533   15.2031   29.7095 C   0  0  0  0  0  0  0  0  0  0  0  0
   36.6160   14.2607   28.9099 O   0  0  0  0  0  0  0  0  0  0  0  0
   36.3822   17.3264   28.3104 N   0  0  0  0  0  0  0  0  0  0  0  0
   36.2870   18.6213   28.6675 C   0  0  0  0  0  0  0  0  0  0  0  0
   36.2924   18.7471   30.0338 N   0  0  0  0  0  0  0  0  0  0  0  0
  1  2  1  0  0  0  0
  1  6  1  0  0  0  0
  2  3  2  0  0  0  0
  3  4  1  0  0  0  0
  4  5  2  0  0  0  0
  4 10  1  0  0  0  0
  5  6  1  0  0  0  0
  5  8  1  0  0  0  0
  6  7  2  0  0  0  0
  8  9  1  0  0  0  0
  9 10  2  0  0  0  0
M  END
>  <CHROM.1>
36.45438626,16.57251073,30.04964597,0.14945176,-1.49575584,1.44480581

>  <Name>
ligand

>  <RI>
0

>  <Rbt.Current_Directory>
/home/itssahil/PROJECTS/Mol_Feturizer/New_Systems/rnas/2EET

>  <Rbt.Executable>
rbdock ($Id: //depot/dev/client3/rdock/2013.1/src/exe/rbdock.cxx#4 $)

>  <Rbt.Library>
libRbt.so (2013.1, Build901 2013/11/27)

>  <Rbt.Parameter_File>
/export/apps/rDock/src/rDock_2013.1_src/data/scripts/dock_solv.prm

>  <Rbt.Receptor>
prm/blind_docking_80.prm

>  <SCORE>
-12.5638

>  <SCORE.INTER>
-12.5638

>  <SCORE.INTER.CONST>
1

>  <SCORE.INTER.POLAR>
0

>  <SCORE.INTER.ROT>
0

>  <SCORE.INTER.SOLV>
5.27241

>  <SCORE.INTER.VDW>
-13.7333

>  <SCORE.INTER.norm>
-1.25638

>  <SCORE.INTRA>
0

>  <SCORE.INTRA.DIHEDRAL>
0

>  <SCORE.INTRA.DIHEDRAL.0>
0

>  <SCORE.INTRA.POLAR>
0

>  <SCORE.INTRA.POLAR.0>
0

>  <SCORE.INTRA.REPUL>
0

>  <SCORE.INTRA.REPUL.0>
0

>  <SCORE.INTRA.SOLV>
0

>  <SCORE.INTRA.SOLV.lig_0>
-4.28464

>  <SCORE.INTRA.VDW>
0

>  <SCORE.INTRA.VDW.0>
0

>  <SCORE.INTRA.norm>
0

>  <SCORE.RESTR>
0

>  <SCORE.RESTR.CAVITY>
0

>  <SCORE.RESTR.norm>
0

>  <SCORE.SYSTEM>
0

>  <SCORE.SYSTEM.CONST>
0

>  <SCORE.SYSTEM.DIHEDRAL>
0

>  <SCORE.SYSTEM.SOLV>
0

>  <SCORE.SYSTEM.norm>
0

>  <SCORE.heavy>
10

>  <SCORE.norm>
-1.25638

>  <RMSD>
26.188

$$$$
ligand
 OpenBabel11021811423D
libRbt.so/2013.1/901 2013/11/27
 10 11  0  0  0  0  0  0  0  0999 V2000
   36.5070   14.7925   30.9642 N   0  0  0  0  0  0  0  0  0  0  0  0
   36.5025   14.4461   29.6242 C   0  0  0  0  0  0  0  0  0  0  0  0
   36.4578   15.3689   28.6555 N   0  0  0  0  0  0  0  0  0  0  0  0
   36.4184   16.6534   29.1372 C   0  0  0  0  0  0  0  0  0  0  0  0
   36.4205   17.0567   30.4527 C   0  0  0  0  0  0  0  0  0  0  0  0
   36.4680   16.0844   31.4900 C   0  0  0  0  0  0  0  0  0  0  0  0
   36.4781   16.2292   32.7190 O   0  0  0  0  0  0  0  0  0  0  0  0
   36.3734   18.4260   30.4884 N   0  0  0  0  0  0  0  0  0  0  0  0
   36.3449   18.8454   29.2090 C   0  0  0  0  0  0  0  0  0  0  0  0
   36.3697   17.7760   28.3496 N   0  0  0  0  0  0  0  0  0  0  0  0
  1  2  1  0  0  0  0
  1  6  1  0  0  0  0
  2  3  2  0  0  0  0
  3  4  1  0  0  0  0
  4  5  2  0  0  0  0
  4 10  1  0  0  0  0
  5  6  1  0  0  0  0
  5  8  1  0  0  0  0
  6  7  2  0  0  0  0
  8  9  1  0  0  0  0
  9 10  2  0  0  0  0
M  END
>  <CHROM.1>
36.43493523,16.55902065,30.15791500,-0.37020360,1.53377073,-1.91082995

>  <Name>
ligand

>  <RI>
0

>  <Rbt.Current_Directory>
/home/itssahil/PROJECTS/Mol_Feturizer/New_Systems/rnas/2EET

>  <Rbt.Executable>
rbdock ($Id: //depot/dev/client3/rdock/2013.1/src/exe/rbdock.cxx#4 $)

>  <Rbt.Library>
libRbt.so (2013.1, Build901 2013/11/27)

>  <Rbt.Parameter_File>
/export/apps/rDock/src/rDock_2013.1_src/data/scripts/dock_solv.prm

>  <Rbt.Receptor>
prm/blind_docking_100.prm

>  <SCORE>
-13.8449

>  <SCORE.INTER>
-13.8449

>  <SCORE.INTER.CONST>
1

>  <SCORE.INTER.POLAR>
0

>  <SCORE.INTER.ROT>
0

>  <SCORE.INTER.SOLV>
4.87839

>  <SCORE.INTER.VDW>
-14.4561

>  <SCORE.INTER.norm>
-1.38449

>  <SCORE.INTRA>
0

>  <SCORE.INTRA.DIHEDRAL>
0

>  <SCORE.INTRA.DIHEDRAL.0>
0

>  <SCORE.INTRA.POLAR>
0

>  <SCORE.INTRA.POLAR.0>
0

>  <SCORE.INTRA.REPUL>
0

>  <SCORE.INTRA.REPUL.0>
0

>  <SCORE.INTRA.SOLV>
0

>  <SCORE.INTRA.SOLV.lig_0>
-4.28464

>  <SCORE.INTRA.VDW>
0

>  <SCORE.INTRA.VDW.0>
0

>  <SCORE.INTRA.norm>
0

>  <SCORE.RESTR>
0

>  <SCORE.RESTR.CAVITY>
0

>  <SCORE.RESTR.norm>
0

>  <SCORE.SYSTEM>
0

>  <SCORE.SYSTEM.CONST>
0

>  <SCORE.SYSTEM.DIHEDRAL>
0

>  <SCORE.SYSTEM.SOLV>
0

>  <SCORE.SYSTEM.norm>
0

>  <SCORE.heavy>
10

>  <SCORE.norm>
-1.38449

>  <RMSD>
26.240

$$$$
ligand
 OpenBabel11021811423D
libRbt.so/2013.1/901 2013/11/27
 10 11  0  0  0  0  0  0  0  0999 V2000
   36.5119   14.7849   30.9633 N   0  0  0  0  0  0  0  0  0  0  0  0
   36.5085   14.4417   29.6224 C   0  0  0  0  0  0  0  0  0  0  0  0
   36.4621   15.3665   28.6559 N   0  0  0  0  0  0  0  0  0  0  0  0
   36.4198   16.6498   29.1406 C   0  0  0  0  0  0  0  0  0  0  0  0
   36.4208   17.0501   30.4570 C   0  0  0  0  0  0  0  0  0  0  0  0
   36.4700   16.0756   31.4920 C   0  0  0  0  0  0  0  0  0  0  0  0
   36.4796   16.2175   32.7214 O   0  0  0  0  0  0  0  0  0  0  0  0
   36.3708   18.4192   30.4958 N   0  0  0  0  0  0  0  0  0  0  0  0
   36.3417   18.8415   29.2174 C   0  0  0  0  0  0  0  0  0  0  0  0
   36.3690   17.7742   28.3555 N   0  0  0  0  0  0  0  0  0  0  0  0
  1  2  1  0  0  0  0
  1  6  1  0  0  0  0
  2  3  2  0  0  0  0
  3  4  1  0  0  0  0
  4  5  2  0  0  0  0
  4 10  1  0  0  0  0
  5  6  1  0  0  0  0
  5  8  1  0  0  0  0
  6  7  2  0  0  0  0
  8  9  1  0  0  0  0
  9 10  2  0  0  0  0
M  END
>  <CHROM.1>
36.43633881,16.55314942,30.16104920,-0.39423432,1.53185775,-1.88449346

>  <Name>
ligand

>  <RI>
0

>  <Rbt.Current_Directory>
/home/itssahil/PROJECTS/Mol_Feturizer/New_Systems/rnas/2EET

>  <Rbt.Executable>
rbdock ($Id: //depot/dev/client3/rdock/2013.1/src/exe/rbdock.cxx#4 $)

>  <Rbt.Library>
libRbt.so (2013.1, Build901 2013/11/27)

>  <Rbt.Parameter_File>
/export/apps/rDock/src/rDock_2013.1_src/data/scripts/dock_solv.prm

>  <Rbt.Receptor>
prm/blind_docking_100.prm

>  <SCORE>
-13.8459

>  <SCORE.INTER>
-13.8459

>  <SCORE.INTER.CONST>
1

>  <SCORE.INTER.POLAR>
0

>  <SCORE.INTER.ROT>
0

>  <SCORE.INTER.SOLV>
4.88196

>  <SCORE.INTER.VDW>
-14.4579

>  <SCORE.INTER.norm>
-1.38459

>  <SCORE.INTRA>
0

>  <SCORE.INTRA.DIHEDRAL>
0

>  <SCORE.INTRA.DIHEDRAL.0>
0

>  <SCORE.INTRA.POLAR>
0

>  <SCORE.INTRA.POLAR.0>
0

>  <SCORE.INTRA.REPUL>
0

>  <SCORE.INTRA.REPUL.0>
0

>  <SCORE.INTRA.SOLV>
0

>  <SCORE.INTRA.SOLV.lig_0>
-4.28464

>  <SCORE.INTRA.VDW>
0

>  <SCORE.INTRA.VDW.0>
0

>  <SCORE.INTRA.norm>
0

>  <SCORE.RESTR>
0

>  <SCORE.RESTR.CAVITY>
0

>  <SCORE.RESTR.norm>
0

>  <SCORE.SYSTEM>
0

>  <SCORE.SYSTEM.CONST>
0

>  <SCORE.SYSTEM.DIHEDRAL>
0

>  <SCORE.SYSTEM.SOLV>
0

>  <SCORE.SYSTEM.norm>
0

>  <SCORE.heavy>
10

>  <SCORE.norm>
-1.38459

>  <RMSD>
26.240

$$$$
ligand
 OpenBabel11021811423D
libRbt.so/2013.1/901 2013/11/27
 10 11  0  0  0  0  0  0  0  0999 V2000
   36.5098   14.7843   30.9680 N   0  0  0  0  0  0  0  0  0  0  0  0
   36.4969   14.4391   29.6277 C   0  0  0  0  0  0  0  0  0  0  0  0
   36.4512   15.3628   28.6600 N   0  0  0  0  0  0  0  0  0  0  0  0
   36.4199   16.6470   29.1430 C   0  0  0  0  0  0  0  0  0  0  0  0
   36.4307   17.0493   30.4588 C   0  0  0  0  0  0  0  0  0  0  0  0
   36.4792   16.0760   31.4950 C   0  0  0  0  0  0  0  0  0  0  0  0
   36.4964   16.2196   32.7240 O   0  0  0  0  0  0  0  0  0  0  0  0
   36.3898   18.4187   30.4958 N   0  0  0  0  0  0  0  0  0  0  0  0
   36.3565   18.8393   29.2169 C   0  0  0  0  0  0  0  0  0  0  0  0
   36.3721   17.7706   28.3565 N   0  0  0  0  0  0  0  0  0  0  0  0
  1  2  1  0  0  0  0
  1  6  1  0  0  0  0
  2  3  2  0  0  0  0
  3  4  1  0  0  0  0
  4  5  2  0  0  0  0
  4 10  1  0  0  0  0
  5  6  1  0  0  0  0
  5  8  1  0  0  0  0
  6  7  2  0  0  0  0
  8  9  1  0  0  0  0
  9 10  2  0  0  0  0
M  END
>  <CHROM.1>
36.44137698,16.55177894,30.16348792,-0.18802534,1.53562706,-2.09207504

>  <Name>
ligand

>  <RI>
0

>  <Rbt.Current_Directory>
/home/itssahil/PROJECTS/Mol_Feturizer/New_Systems/rnas/2EET

>  <Rbt.Executable>
rbdock ($Id: //depot/dev/client3/rdock/2013.1/src/exe/rbdock.cxx#4 $)

>  <Rbt.Library>
libRbt.so (2013.1, Build901 2013/11/27)

>  <Rbt.Parameter_File>
/export/apps/rDock/src/rDock_2013.1_src/data/scripts/dock_solv.prm

>  <Rbt.Receptor>
prm/blind_docking_100.prm

>  <SCORE>
-13.8369

>  <SCORE.INTER>
-13.8369

>  <SCORE.INTER.CONST>
1

>  <SCORE.INTER.POLAR>
0

>  <SCORE.INTER.ROT>
0

>  <SCORE.INTER.SOLV>
4.89933

>  <SCORE.INTER.VDW>
-14.4577

>  <SCORE.INTER.norm>
-1.38369

>  <SCORE.INTRA>
0

>  <SCORE.INTRA.DIHEDRAL>
0

>  <SCORE.INTRA.DIHEDRAL.0>
0

>  <SCORE.INTRA.POLAR>
0

>  <SCORE.INTRA.POLAR.0>
0

>  <SCORE.INTRA.REPUL>
0

>  <SCORE.INTRA.REPUL.0>
0

>  <SCORE.INTRA.SOLV>
0

>  <SCORE.INTRA.SOLV.lig_0>
-4.28464

>  <SCORE.INTRA.VDW>
0

>  <SCORE.INTRA.VDW.0>
0

>  <SCORE.INTRA.norm>
0

>  <SCORE.RESTR>
0

>  <SCORE.RESTR.CAVITY>
0

>  <SCORE.RESTR.norm>
0

>  <SCORE.SYSTEM>
0

>  <SCORE.SYSTEM.CONST>
0

>  <SCORE.SYSTEM.DIHEDRAL>
0

>  <SCORE.SYSTEM.SOLV>
0

>  <SCORE.SYSTEM.norm>
0

>  <SCORE.heavy>
10

>  <SCORE.norm>
-1.38369

>  <RMSD>
26.244

$$$$
ligand
 OpenBabel11021811423D
libRbt.so/2013.1/901 2013/11/27
 10 11  0  0  0  0  0  0  0  0999 V2000
   36.5170   14.8612   31.0995 N   0  0  0  0  0  0  0  0  0  0  0  0
   36.4994   14.4613   29.7746 C   0  0  0  0  0  0  0  0  0  0  0  0
   36.4410   15.3443   28.7702 N   0  0  0  0  0  0  0  0  0  0  0  0
   36.4022   16.6470   29.2005 C   0  0  0  0  0  0  0  0  0  0  0  0
   36.4170   17.1028   30.4987 C   0  0  0  0  0  0  0  0  0  0  0  0
   36.4790   16.1730   31.5735 C   0  0  0  0  0  0  0  0  0  0  0  0
   36.5018   16.3670   32.7955 O   0  0  0  0  0  0  0  0  0  0  0  0
   36.3654   18.4722   30.4800 N   0  0  0  0  0  0  0  0  0  0  0  0
   36.3217   18.8399   29.1852 C   0  0  0  0  0  0  0  0  0  0  0  0
   36.3411   17.7370   28.3691 N   0  0  0  0  0  0  0  0  0  0  0  0
  1  2  1  0  0  0  0
  1  6  1  0  0  0  0
  2  3  2  0  0  0  0
  3  4  1  0  0  0  0
  4  5  2  0  0  0  0
  4 10  1  0  0  0  0
  5  6  1  0  0  0  0
  5  8  1  0  0  0  0
  6  7  2  0  0  0  0
  8  9  1  0  0  0  0
  9 10  2  0  0  0  0
M  END
>  <CHROM.1>
36.43003062,16.59370723,30.22390166,-0.16971349,1.52596266,-2.15125409

>  <Name>
ligand

>  <RI>
0

>  <Rbt.Current_Directory>
/home/itssahil/PROJECTS/Mol_Feturizer/New_Systems/rnas/2EET

>  <Rbt.Executable>
rbdock ($Id: //depot/dev/client3/rdock/2013.1/src/exe/rbdock.cxx#4 $)

>  <Rbt.Library>
libRbt.so (2013.1, Build901 2013/11/27)

>  <Rbt.Parameter_File>
/export/apps/rDock/src/rDock_2013.1_src/data/scripts/dock_solv.prm

>  <Rbt.Receptor>
prm/blind_docking_80.prm

>  <SCORE>
-13.6212

>  <SCORE.INTER>
-13.7323

>  <SCORE.INTER.CONST>
1

>  <SCORE.INTER.POLAR>
0

>  <SCORE.INTER.ROT>
0

>  <SCORE.INTER.SOLV>
4.92544

>  <SCORE.INTER.VDW>
-14.3967

>  <SCORE.INTER.norm>
-1.37323

>  <SCORE.INTRA>
0

>  <SCORE.INTRA.DIHEDRAL>
0

>  <SCORE.INTRA.DIHEDRAL.0>
0

>  <SCORE.INTRA.POLAR>
0

>  <SCORE.INTRA.POLAR.0>
0

>  <SCORE.INTRA.REPUL>
0

>  <SCORE.INTRA.REPUL.0>
0

>  <SCORE.INTRA.SOLV>
0

>  <SCORE.INTRA.SOLV.lig_0>
-4.28464

>  <SCORE.INTRA.VDW>
0

>  <SCORE.INTRA.VDW.0>
0

>  <SCORE.INTRA.norm>
0

>  <SCORE.RESTR>
0.111096

>  <SCORE.RESTR.CAVITY>
0.111096

>  <SCORE.RESTR.norm>
0.0111096

>  <SCORE.SYSTEM>
0

>  <SCORE.SYSTEM.CONST>
0

>  <SCORE.SYSTEM.DIHEDRAL>
0

>  <SCORE.SYSTEM.SOLV>
0

>  <SCORE.SYSTEM.norm>
0

>  <SCORE.heavy>
10

>  <SCORE.norm>
-1.36212

>  <RMSD>
26.249

$$$$
ligand
 OpenBabel11021811423D
libRbt.so/2013.1/901 2013/11/27
 10 11  0  0  0  0  0  0  0  0999 V2000
   36.4958   14.8707   31.1009 N   0  0  0  0  0  0  0  0  0  0  0  0
   36.4754   14.4694   29.7764 C   0  0  0  0  0  0  0  0  0  0  0  0
   36.4284   15.3516   28.7709 N   0  0  0  0  0  0  0  0  0  0  0  0
   36.4037   16.6552   29.1994 C   0  0  0  0  0  0  0  0  0  0  0  0
   36.4220   17.1125   30.4970 C   0  0  0  0  0  0  0  0  0  0  0  0
   36.4721   16.1835   31.5731 C   0  0  0  0  0  0  0  0  0  0  0  0
   36.4955   16.3788   32.7949 O   0  0  0  0  0  0  0  0  0  0  0  0
   36.3859   18.4824   30.4764 N   0  0  0  0  0  0  0  0  0  0  0  0
   36.3481   18.8489   29.1811 C   0  0  0  0  0  0  0  0  0  0  0  0
   36.3560   17.7448   28.3665 N   0  0  0  0  0  0  0  0  0  0  0  0
  1  2  1  0  0  0  0
  1  6  1  0  0  0  0
  2  3  2  0  0  0  0
  3  4  1  0  0  0  0
  4  5  2  0  0  0  0
  4 10  1  0  0  0  0
  5  6  1  0  0  0  0
  5  8  1  0  0  0  0
  6  7  2  0  0  0  0
  8  9  1  0  0  0  0
  9 10  2  0  0  0  0
M  END
>  <CHROM.1>
36.42962472,16.60295833,30.22290005,-0.02291767,1.53574675,-2.29923311

>  <Name>
ligand

>  <RI>
0

>  <Rbt.Current_Directory>
/home/itssahil/PROJECTS/Mol_Feturizer/New_Systems/rnas/2EET

>  <Rbt.Executable>
rbdock ($Id: //depot/dev/client3/rdock/2013.1/src/exe/rbdock.cxx#4 $)

>  <Rbt.Library>
libRbt.so (2013.1, Build901 2013/11/27)

>  <Rbt.Parameter_File>
/export/apps/rDock/src/rDock_2013.1_src/data/scripts/dock_solv.prm

>  <Rbt.Receptor>
prm/blind_docking_80.prm

>  <SCORE>
-13.6032

>  <SCORE.INTER>
-13.7098

>  <SCORE.INTER.CONST>
1

>  <SCORE.INTER.POLAR>
0

>  <SCORE.INTER.ROT>
0

>  <SCORE.INTER.SOLV>
4.91474

>  <SCORE.INTER.VDW>
-14.3781

>  <SCORE.INTER.norm>
-1.37098

>  <SCORE.INTRA>
0

>  <SCORE.INTRA.DIHEDRAL>
0

>  <SCORE.INTRA.DIHEDRAL.0>
0

>  <SCORE.INTRA.POLAR>
0

>  <SCORE.INTRA.POLAR.0>
0

>  <SCORE.INTRA.REPUL>
0

>  <SCORE.INTRA.REPUL.0>
0

>  <SCORE.INTRA.SOLV>
0

>  <SCORE.INTRA.SOLV.lig_0>
-4.28464

>  <SCORE.INTRA.VDW>
0

>  <SCORE.INTRA.VDW.0>
0

>  <SCORE.INTRA.norm>
0

>  <SCORE.RESTR>
0.106679

>  <SCORE.RESTR.CAVITY>
0.106679

>  <SCORE.RESTR.norm>
0.0106679

>  <SCORE.SYSTEM>
0

>  <SCORE.SYSTEM.CONST>
0

>  <SCORE.SYSTEM.DIHEDRAL>
0

>  <SCORE.SYSTEM.SOLV>
0

>  <SCORE.SYSTEM.norm>
0

>  <SCORE.heavy>
10

>  <SCORE.norm>
-1.36032

>  <RMSD>
26.251

$$$$
ligand
 OpenBabel11021811423D
libRbt.so/2013.1/901 2013/11/27
 10 11  0  0  0  0  0  0  0  0999 V2000
   36.1678   16.2157   28.5068 N   0  0  0  0  0  0  0  0  0  0  0  0
   36.5644   14.9239   28.8066 C   0  0  0  0  0  0  0  0  0  0  0  0
   36.7979   14.5299   30.0643 N   0  0  0  0  0  0  0  0  0  0  0  0
   36.6029   15.5280   30.9859 C   0  0  0  0  0  0  0  0  0  0  0  0
   36.2107   16.8252   30.7478 C   0  0  0  0  0  0  0  0  0  0  0  0
   35.9598   17.2543   29.4150 C   0  0  0  0  0  0  0  0  0  0  0  0
   35.6040   18.3595   28.9866 O   0  0  0  0  0  0  0  0  0  0  0  0
   36.1378   17.4850   31.9468 N   0  0  0  0  0  0  0  0  0  0  0  0
   36.4802   16.5963   32.8988 C   0  0  0  0  0  0  0  0  0  0  0  0
   36.7751   15.3787   32.3392 N   0  0  0  0  0  0  0  0  0  0  0  0
  1  2  1  0  0  0  0
  1  6  1  0  0  0  0
  2  3  2  0  0  0  0
  3  4  1  0  0  0  0
  4  5  2  0  0  0  0
  4 10  1  0  0  0  0
  5  6  1  0  0  0  0
  5  8  1  0  0  0  0
  6  7  2  0  0  0  0
  8  9  1  0  0  0  0
  9 10  2  0  0  0  0
M  END
>  <CHROM.1>
36.31657993,16.34693725,30.43977117,-2.12143684,-1.27889883,1.24536682

>  <Name>
ligand

>  <RI>
0

>  <Rbt.Current_Directory>
/home/itssahil/PROJECTS/Mol_Feturizer/New_Systems/rnas/2EET

>  <Rbt.Executable>
rbdock ($Id: //depot/dev/client3/rdock/2013.1/src/exe/rbdock.cxx#4 $)

>  <Rbt.Library>
libRbt.so (2013.1, Build901 2013/11/27)

>  <Rbt.Parameter_File>
/export/apps/rDock/src/rDock_2013.1_src/data/scripts/dock_solv.prm

>  <Rbt.Receptor>
prm/blind_docking_100.prm

>  <SCORE>
-12.7726

>  <SCORE.INTER>
-12.7726

>  <SCORE.INTER.CONST>
1

>  <SCORE.INTER.POLAR>
0

>  <SCORE.INTER.ROT>
0

>  <SCORE.INTER.SOLV>
4.05615

>  <SCORE.INTER.VDW>
-13.4671

>  <SCORE.INTER.norm>
-1.27726

>  <SCORE.INTRA>
0

>  <SCORE.INTRA.DIHEDRAL>
0

>  <SCORE.INTRA.DIHEDRAL.0>
0

>  <SCORE.INTRA.POLAR>
0

>  <SCORE.INTRA.POLAR.0>
0

>  <SCORE.INTRA.REPUL>
0

>  <SCORE.INTRA.REPUL.0>
0

>  <SCORE.INTRA.SOLV>
0

>  <SCORE.INTRA.SOLV.lig_0>
-4.28464

>  <SCORE.INTRA.VDW>
0

>  <SCORE.INTRA.VDW.0>
0

>  <SCORE.INTRA.norm>
0

>  <SCORE.RESTR>
0

>  <SCORE.RESTR.CAVITY>
0

>  <SCORE.RESTR.norm>
0

>  <SCORE.SYSTEM>
0

>  <SCORE.SYSTEM.CONST>
0

>  <SCORE.SYSTEM.DIHEDRAL>
0

>  <SCORE.SYSTEM.SOLV>
0

>  <SCORE.SYSTEM.norm>
0

>  <SCORE.heavy>
10

>  <SCORE.norm>
-1.27726

>  <RMSD>
26.257

$$$$
ligand
 OpenBabel11021811423D
libRbt.so/2013.1/901 2013/11/27
 10 11  0  0  0  0  0  0  0  0999 V2000
   36.1782   16.2173   28.5016 N   0  0  0  0  0  0  0  0  0  0  0  0
   36.5685   14.9248   28.8061 C   0  0  0  0  0  0  0  0  0  0  0  0
   36.7977   14.5336   30.0656 N   0  0  0  0  0  0  0  0  0  0  0  0
   36.6052   15.5353   30.9837 C   0  0  0  0  0  0  0  0  0  0  0  0
   36.2192   16.8335   30.7409 C   0  0  0  0  0  0  0  0  0  0  0  0
   35.9729   17.2596   29.4063 C   0  0  0  0  0  0  0  0  0  0  0  0
   35.6227   18.3650   28.9738 O   0  0  0  0  0  0  0  0  0  0  0  0
   36.1468   17.4973   31.9377 N   0  0  0  0  0  0  0  0  0  0  0  0
   36.4834   16.6100   32.8931 C   0  0  0  0  0  0  0  0  0  0  0  0
   36.7741   15.3894   32.3378 N   0  0  0  0  0  0  0  0  0  0  0  0
  1  2  1  0  0  0  0
  1  6  1  0  0  0  0
  2  3  2  0  0  0  0
  3  4  1  0  0  0  0
  4  5  2  0  0  0  0
  4 10  1  0  0  0  0
  5  6  1  0  0  0  0
  5  8  1  0  0  0  0
  6  7  2  0  0  0  0
  8  9  1  0  0  0  0
  9 10  2  0  0  0  0
M  END
>  <CHROM.1>
36.32359897,16.35381838,30.43450446,-2.11965127,-1.28368392,1.24401809

>  <Name>
ligand

>  <RI>
0

>  <Rbt.Current_Directory>
/home/itssahil/PROJECTS/Mol_Feturizer/New_Systems/rnas/2EET

>  <Rbt.Executable>
rbdock ($Id: //depot/dev/client3/rdock/2013.1/src/exe/rbdock.cxx#4 $)

>  <Rbt.Library>
libRbt.so (2013.1, Build901 2013/11/27)

>  <Rbt.Parameter_File>
/export/apps/rDock/src/rDock_2013.1_src/data/scripts/dock_solv.prm

>  <Rbt.Receptor>
prm/blind_docking_100.prm

>  <SCORE>
-12.7774

>  <SCORE.INTER>
-12.7774

>  <SCORE.INTER.CONST>
1

>  <SCORE.INTER.POLAR>
0

>  <SCORE.INTER.ROT>
0

>  <SCORE.INTER.SOLV>
4.06253

>  <SCORE.INTER.VDW>
-13.4724

>  <SCORE.INTER.norm>
-1.27774

>  <SCORE.INTRA>
0

>  <SCORE.INTRA.DIHEDRAL>
0

>  <SCORE.INTRA.DIHEDRAL.0>
0

>  <SCORE.INTRA.POLAR>
0

>  <SCORE.INTRA.POLAR.0>
0

>  <SCORE.INTRA.REPUL>
0

>  <SCORE.INTRA.REPUL.0>
0

>  <SCORE.INTRA.SOLV>
0

>  <SCORE.INTRA.SOLV.lig_0>
-4.28464

>  <SCORE.INTRA.VDW>
0

>  <SCORE.INTRA.VDW.0>
0

>  <SCORE.INTRA.norm>
0

>  <SCORE.RESTR>
0

>  <SCORE.RESTR.CAVITY>
0

>  <SCORE.RESTR.norm>
0

>  <SCORE.SYSTEM>
0

>  <SCORE.SYSTEM.CONST>
0

>  <SCORE.SYSTEM.DIHEDRAL>
0

>  <SCORE.SYSTEM.SOLV>
0

>  <SCORE.SYSTEM.norm>
0

>  <SCORE.heavy>
10

>  <SCORE.norm>
-1.27774

>  <RMSD>
26.265

$$$$
