@<TRIPOS>MOLECULE
2EET_rdock.pdb
 1423 1590 0 0 0
SMALL
GASTEIGER

@<TRIPOS>ATOM
      1  C5'        4.4080    2.6680   42.3980 C.3    15  G15         0.2141
      2  O5'        4.1040    3.5240   43.5040 O.3    15  G15        -0.2176
      3  C4'        4.5680    1.2280   42.8240 C.3    15  G15         0.1802
      4  O4'        3.3180    0.7750   43.4300 O.3    15  G15        -0.3306
      5  C3'        4.8230    0.2360   41.6950 C.3    15  G15         0.1861
      6  O3'        6.1920    0.2040   41.2580 O.3    15  G15        -0.3112
      7  C2'        4.2060   -1.0400   42.2560 C.3    15  G15         0.2309
      8  O2'        4.9460   -1.6590   43.2900 O.3    15  G15        -0.2156
      9  C1'        2.9260   -0.4640   42.8540 C.3    15  G15         0.2408
     10  N1        -0.3210   -2.4670   39.4960 N.ar   15  G15        -0.1709
     11  C2         0.5140   -3.0990   40.3860 C.ar   15  G15         0.2606
     12  N2         0.4880   -4.4400   40.3720 N.pl3  15  G15        -0.0859
     13  N3         1.3150   -2.4650   41.2270 N.ar   15  G15        -0.1918
     14  C4         1.2120   -1.1230   41.1070 C.ar   15  G15         0.1723
     15  C5         0.4090   -0.3930   40.2540 C.ar   15  G15         0.1748
     16  C6        -0.4430   -1.0880   39.3520 C.ar   15  G15         0.3023
     17  O6        -1.2230   -0.6220   38.5110 O.2    15  G15        -0.2633
     18  N7         0.5940    0.9700   40.4480 N.ar   15  G15        -0.2173
     19  C8         1.4930    1.0430   41.3930 C.ar   15  G15         0.1817
     20  N9         1.9170   -0.1900   41.8330 N.ar   15  G15        -0.2693
     21  P          7.2360   -0.8640   41.8700 P.3    16  G16         0.2141
     22  C5'        7.4140   -3.4790   41.7280 C.3    16  G16         0.1812
     23  O5'        6.7000   -2.2900   41.3940 O.3    16  G16        -0.3114
     24  C4'        6.8730   -4.6640   40.9590 C.3    16  G16         0.1773
     25  O4'        5.4230   -4.6510   40.9670 O.3    16  G16        -0.3307
     26  C3'        7.2060   -4.7230   39.4790 C.3    16  G16         0.1860
     27  O3'        8.5210   -5.2240   39.2740 O.3    16  G16        -0.3112
     28  C2'        6.1600   -5.7080   38.9710 C.3    16  G16         0.2309
     29  O2'        6.5030   -7.0540   39.2360 O.3    16  G16        -0.2156
     30  C1'        4.9410   -5.3160   39.8090 C.3    16  G16         0.2408
     31  N1         1.0870   -4.9670   36.5180 N.ar   16  G16        -0.1709
     32  C2         1.7480   -6.0830   36.9700 C.ar   16  G16         0.2606
     33  N2         1.3260   -7.2590   36.4790 N.pl3  16  G16        -0.0859
     34  N3         2.7490   -6.0490   37.8380 N.ar   16  G16        -0.1918
     35  C4         3.0460   -4.7870   38.2170 C.ar   16  G16         0.1723
     36  C5         2.4520   -3.6070   37.8210 C.ar   16  G16         0.1748
     37  C6         1.3730   -3.6590   36.8970 C.ar   16  G16         0.3023
     38  O6         0.7090   -2.7250   36.4310 O.2    16  G16        -0.2633
     39  N7         3.0540   -2.5190   38.4410 N.ar   16  G16        -0.2173
     40  C8         3.9840   -3.0480   39.1900 C.ar   16  G16         0.1817
     41  N9         4.0320   -4.4190   39.1040 N.ar   16  G16        -0.2693
     42  OP1        7.1930   -0.7970   43.3570 O.3    16  G16        -0.4373
     43  OP2        8.5240   -0.6320   41.1660 O.co2  16  G16        -0.5172
     44  P          9.2150   -5.0730   37.8310 P.3    17  A17         0.2141
     45  C5'        8.3060   -7.3740   36.9540 C.3    17  A17         0.1812
     46  O5'        8.3010   -5.9530   36.8680 O.3    17  A17        -0.3114
     47  C4'        7.5010   -7.9660   35.8220 C.3    17  A17         0.1773
     48  O4'        6.0960   -7.6600   36.0260 O.3    17  A17        -0.3307
     49  C3'        7.8270   -7.4080   34.4470 C.3    17  A17         0.1860
     50  O3'        8.8970   -8.1350   33.8560 O.3    17  A17        -0.3112
     51  C2'        6.5210   -7.6240   33.6910 C.3    17  A17         0.2309
     52  O2'        6.3770   -8.9390   33.1920 O.3    17  A17        -0.2156
     53  C1'        5.4870   -7.3470   34.7850 C.3    17  A17         0.2408
     54  N1         2.1120   -3.8660   33.0720 N.ar   17  A17        -0.2040
     55  C2         2.2510   -5.1780   32.8350 C.ar   17  A17         0.2016
     56  N3         3.1520   -6.0320   33.3180 N.ar   17  A17        -0.2048
     57  C4         4.0010   -5.4020   34.1480 C.ar   17  A17         0.1692
     58  C5         3.9860   -4.0600   34.4900 C.ar   17  A17         0.1518
     59  C6         2.9810   -3.2650   33.9120 C.ar   17  A17         0.1919
     60  N6         2.8430   -1.9590   34.1460 N.pl3  17  A17        -0.1054
     61  N7         5.0160   -3.7670   35.3740 N.ar   17  A17        -0.2193
     62  C8         5.6220   -4.9180   35.5420 C.ar   17  A17         0.1816
     63  N9         5.0610   -5.9500   34.8290 N.ar   17  A17        -0.2693
     64  OP1       10.5630   -5.6970   37.8940 O.3    17  A17        -0.4373
     65  OP2        9.0810   -3.6520   37.4130 O.co2  17  A17        -0.5172
     66  P          9.7760   -7.4510   32.7000 P.3    18  C18         0.2141
     67  C5'        8.8460   -6.5380   30.4210 C.3    18  C18         0.1812
     68  O5'        8.6900   -6.6810   31.8250 O.3    18  C18        -0.3114
     69  C4'        7.5040   -6.6400   29.7370 C.3    18  C18         0.1773
     70  O4'        6.4490   -6.3010   30.6770 O.3    18  C18        -0.3307
     71  C3'        7.3080   -5.6750   28.5830 C.3    18  C18         0.1860
     72  O3'        7.8490   -6.2330   27.3930 O.3    18  C18        -0.3112
     73  C2'        5.7900   -5.5500   28.5220 C.3    18  C18         0.2309
     74  O2'        5.1700   -6.6180   27.8320 O.3    18  C18        -0.2156
     75  C1'        5.4220   -5.5890   30.0070 C.3    18  C18         0.2420
     76  N1         5.3110   -4.2560   30.6210 N.ar   18  C18        -0.2535
     77  C2         4.2000   -3.4610   30.3180 C.ar   18  C18         0.3532
     78  O2         3.3440   -3.9010   29.5370 O.2    18  C18        -0.2443
     79  N3         4.0890   -2.2360   30.8840 N.ar   18  C18        -0.1739
     80  C4         5.0330   -1.7990   31.7220 C.ar   18  C18         0.1759
     81  N4         4.8790   -0.5870   32.2620 N.pl3  18  C18        -0.1070
     82  C5         6.1770   -2.5880   32.0450 C.ar   18  C18         0.0566
     83  C6         6.2740   -3.7980   31.4780 C.ar   18  C18         0.0850
     84  OP1       10.3830   -8.5270   31.8750 O.2    18  C18        -0.5172
     85  OP2       10.6500   -6.4340   33.3390 O.co2  18  C18        -0.4373
     86  P          8.6450   -5.2890   26.3690 P.3    19  A19         0.2141
     87  C5'        6.2920   -5.0150   25.2340 C.3    19  A19         0.1812
     88  O5'        7.4930   -4.4050   25.7110 O.3    19  A19        -0.3114
     89  C4'        5.4040   -3.9880   24.5640 C.3    19  A19         0.1773
     90  O4'        4.4370   -3.4760   25.5220 O.3    19  A19        -0.3307
     91  C3'        6.0960   -2.7430   24.0300 C.3    19  A19         0.1860
     92  O3'        6.6280   -2.9710   22.7320 O.3    19  A19        -0.3112
     93  C2'        4.9410   -1.7550   23.9750 C.3    19  A19         0.2309
     94  O2'        4.1010   -1.9730   22.8580 O.3    19  A19        -0.2156
     95  C1'        4.2010   -2.0990   25.2690 C.3    19  A19         0.2408
     96  N1         3.5890    2.1280   28.1430 N.ar   19  A19        -0.2040
     97  C2         2.9640    1.6910   27.0420 C.ar   19  A19         0.2016
     98  N3         3.1800    0.5830   26.3330 N.ar   19  A19        -0.2048
     99  C4         4.1840   -0.1330   26.8660 C.ar   19  A19         0.1692
    100  C5         4.9260    0.1890   27.9890 C.ar   19  A19         0.1518
    101  C6         4.5920    1.3820   28.6540 C.ar   19  A19         0.1919
    102  N6         5.2050    1.8100   29.7590 N.pl3  19  A19        -0.1054
    103  N7         5.8850   -0.7830   28.2370 N.ar   19  A19        -0.2193
    104  C8         5.6980   -1.6620   27.2820 C.ar   19  A19         0.1816
    105  N9         4.6800   -1.3350   26.4200 N.ar   19  A19        -0.2693
    106  OP1        9.2470   -6.1470   25.3180 O.2    19  A19        -0.5172
    107  OP2        9.5160   -4.3980   27.1770 O.co2  19  A19        -0.4373
    108  P          7.9640   -2.2060   22.2810 P.3    20  U20         0.2141
    109  C5'        6.2680   -0.5940   21.1120 C.3    20  U20         0.1812
    110  O5'        7.4550   -0.7600   21.8670 O.3    20  U20        -0.3114
    111  C4'        5.8950    0.8600   21.0760 C.3    20  U20         0.1773
    112  O4'        5.0050    1.1660   22.1920 O.3    20  U20        -0.3307
    113  C3'        7.0390    1.8130   21.3470 C.3    20  U20         0.1860
    114  O3'        8.1150    1.7740   20.3940 O.3    20  U20        -0.3112
    115  C2'        6.2630    3.0840   21.6560 C.3    20  U20         0.2309
    116  O2'        5.5340    3.6240   20.5630 O.3    20  U20        -0.2156
    117  C1'        5.2450    2.5030   22.6390 C.3    20  U20         0.2420
    118  N1         5.7940    2.4460   24.0030 N.ar   20  U20        -0.2534
    119  C2         5.5110    3.4960   24.8490 C.ar   20  U20         0.3546
    120  O2         4.7910    4.4210   24.5300 O.2    20  U20        -0.2443
    121  N3         6.0990    3.4210   26.0870 N.ar   20  U20        -0.1530
    122  C4         6.9170    2.4180   26.5570 C.ar   20  U20         0.2846
    123  O4         7.4160    2.5180   27.6800 O.2    20  U20        -0.2650
    124  C5         7.1380    1.3480   25.6320 C.ar   20  U20         0.0814
    125  C6         6.5810    1.3970   24.4170 C.ar   20  U20         0.0870
    126  OP1        8.5140   -2.8740   21.0760 O.2    20  U20        -0.5172
    127  OP2        8.8140   -2.0380   23.4840 O.co2  20  U20        -0.4373
    128  P          8.2920    2.9410   19.3120 P.3    21  G21         0.2141
    129  C5'        7.9950    5.4870   19.8120 C.3    21  G21         0.1812
    130  O5'        8.5990    4.2480   20.1680 O.3    21  G21        -0.3114
    131  C4'        8.2240    6.5230   20.8870 C.3    21  G21         0.1773
    132  O4'        7.7080    6.0900   22.1670 O.3    21  G21        -0.3307
    133  C3'        9.6660    6.8180   21.2410 C.3    21  G21         0.1860
    134  O3'       10.2760    7.5890   20.2170 O.3    21  G21        -0.3112
    135  C2'        9.5040    7.5980   22.5440 C.3    21  G21         0.2309
    136  O2'        9.2250    8.9650   22.3310 O.3    21  G21        -0.2156
    137  C1'        8.2860    6.9060   23.1720 C.3    21  G21         0.2408
    138  N1         8.8240    6.7570   28.2090 N.ar   21  G21        -0.1709
    139  C2         8.3010    7.7470   27.4140 C.ar   21  G21         0.2606
    140  N2         7.8960    8.8570   28.0400 N.pl3  21  G21        -0.0859
    141  N3         8.1820    7.6540   26.0980 N.ar   21  G21        -0.1918
    142  C4         8.6220    6.4650   25.6330 C.ar   21  G21         0.1723
    143  C5         9.1460    5.4040   26.3390 C.ar   21  G21         0.1748
    144  C6         9.2850    5.5230   27.7520 C.ar   21  G21         0.3023
    145  O6         9.7490    4.7010   28.5580 O.2    21  G21        -0.2633
    146  N7         9.4680    4.3560   25.4840 N.ar   21  G21        -0.2173
    147  C8         9.1550    4.7990   24.2970 C.ar   21  G21         0.1817
    148  N9         8.6600    6.0800   24.3140 N.ar   21  G21        -0.2693
    149  OP1        6.9540    3.0900   18.6820 O.3    21  G21        -0.4373
    150  OP2        9.4590    2.6400   18.4660 O.co2  21  G21        -0.5172
    151  P         11.5500    7.0030   19.4430 P.3    22  U22         0.2141
    152  C5'       13.8270    6.2000   20.5080 C.3    22  U22         0.1812
    153  O5'       12.7190    7.1050   20.5240 O.3    22  U22        -0.3114
    154  C4'       14.3700    6.0110   21.9100 C.3    22  U22         0.1773
    155  O4'       14.7680    7.3080   22.4380 O.3    22  U22        -0.3307
    156  C3'       13.3850    5.4350   22.9270 C.3    22  U22         0.1860
    157  O3'       14.0660    4.7230   23.9550 O.3    22  U22        -0.3112
    158  C2'       12.7870    6.6940   23.5400 C.3    22  U22         0.2309
    159  O2'       12.2680    6.4840   24.8380 O.3    22  U22        -0.2156
    160  C1'       14.0140    7.6030   23.5980 C.3    22  U22         0.2420
    161  N1        13.6750    9.0320   23.5790 N.ar   22  U22        -0.2534
    162  C2        13.9250    9.7640   24.7230 C.ar   22  U22         0.3546
    163  O2        14.4310    9.2810   25.7240 O.2    22  U22        -0.2443
    164  N3        13.5540   11.0810   24.6590 N.ar   22  U22        -0.1530
    165  C4        12.9680   11.7310   23.5930 C.ar   22  U22         0.2846
    166  O4        12.6100   12.9030   23.7270 O.2    22  U22        -0.2650
    167  C5        12.7580   10.9130   22.4390 C.ar   22  U22         0.0814
    168  C6        13.1140    9.6200   22.4700 C.ar   22  U22         0.0870
    169  OP1       11.8590    7.9470   18.3400 O.2    22  U22        -0.5172
    170  OP2       11.3260    5.5700   19.1300 O.co2  22  U22        -0.4373
    171  P         14.3480    3.1490   23.8020 P.3    23  A23         0.2141
    172  C5'       16.8460    3.7920   24.2930 C.3    23  A23         0.1812
    173  O5'       15.9090    3.0670   23.4980 O.3    23  A23        -0.3114
    174  C4'       18.0460    4.1810   23.4640 C.3    23  A23         0.1773
    175  O4'       17.5940    4.8680   22.2740 O.3    23  A23        -0.3307
    176  C3'       18.9750    5.1960   24.1120 C.3    23  A23         0.1860
    177  O3'       19.9150    4.5480   24.9650 O.3    23  A23        -0.3112
    178  C2'       19.6880    5.8150   22.9110 C.3    23  A23         0.2309
    179  O2'       20.8560    5.1120   22.5500 O.3    23  A23        -0.2156
    180  C1'       18.6350    5.7010   21.8020 C.3    23  A23         0.2408
    181  N1        16.8370   10.2930   23.3180 N.ar   23  A23        -0.2040
    182  C2        17.3280    9.2490   24.0050 C.ar   23  A23         0.2016
    183  N3        17.7740    8.0780   23.5550 N.ar   23  A23        -0.2048
    184  C4        17.6850    8.0220   22.2160 C.ar   23  A23         0.1692
    185  C5        17.2010    9.0100   21.3750 C.ar   23  A23         0.1518
    186  C6        16.7570   10.2000   21.9740 C.ar   23  A23         0.1919
    187  N6        16.2600   11.2390   21.2910 N.pl3  23  A23        -0.1054
    188  N7        17.2640    8.5990   20.0520 N.ar   23  A23        -0.2193
    189  C8        17.7750    7.3950   20.1190 C.ar   23  A23         0.1816
    190  N9        18.0560    6.9820   21.3980 N.ar   23  A23        -0.2693
    191  OP1       13.6200    2.6380   22.6080 O.2    23  A23        -0.5172
    192  OP2       14.1050    2.5260   25.1270 O.co2  23  A23        -0.4373
    193  P         19.7770    4.6870   26.5670 P.3    24  A24         0.2141
    194  C5'       19.6090    7.3030   26.4460 C.3    24  A24         0.1812
    195  O5'       20.3210    6.1510   26.8780 O.3    24  A24        -0.3114
    196  C4'       19.4210    8.2540   27.6000 C.3    24  A24         0.1773
    197  O4'       18.4680    7.6770   28.5250 O.3    24  A24        -0.3307
    198  C3'       20.6530    8.5030   28.4570 C.3    24  A24         0.1860
    199  O3'       21.4470    9.5450   27.8830 O.3    24  A24        -0.3112
    200  C2'       20.0210    8.9880   29.7590 C.3    24  A24         0.2309
    201  O2'       19.6230   10.3410   29.6820 O.3    24  A24        -0.2156
    202  C1'       18.7580    8.1270   29.8370 C.3    24  A24         0.2408
    203  N1        19.0660    6.4570   34.6990 N.ar   24  A24        -0.2040
    204  C2        19.0240    7.6910   34.1740 C.ar   24  A24         0.2016
    205  N3        18.9620    8.0610   32.8920 N.ar   24  A24        -0.2048
    206  C4        18.9420    6.9820   32.0910 C.ar   24  A24         0.1692
    207  C5        18.9810    5.6570   32.4840 C.ar   24  A24         0.1518
    208  C6        19.0380    5.3980   33.8590 C.ar   24  A24         0.1919
    209  N6        19.0550    4.1690   34.3740 N.pl3  24  A24        -0.1054
    210  N7        18.9470    4.8160   31.3810 N.ar   24  A24        -0.2193
    211  C8        18.8830    5.6380   30.3610 C.ar   24  A24         0.1816
    212  N9        18.8630    6.9620   30.7170 N.ar   24  A24        -0.2693
    213  OP1       20.7040    3.7070   27.1930 O.3    24  A24        -0.4373
    214  OP2       18.3410    4.6610   26.9180 O.co2  24  A24        -0.5172
    215  P         23.0010    9.2890   27.5280 P.3    25  U25         0.2141
    216  C5'       22.8320    8.2240   25.1190 C.3    25  U25         0.1812
    217  O5'       23.0570    9.3670   25.9350 O.3    25  U25        -0.3114
    218  C4'       22.2620    8.6470   23.7820 C.3    25  U25         0.1773
    219  O4'       20.8840    9.0690   23.9700 O.3    25  U25        -0.3307
    220  C3'       22.9110    9.8520   23.1090 C.3    25  U25         0.1860
    221  O3'       24.0690    9.4830   22.3730 O.3    25  U25        -0.3112
    222  C2'       21.8030   10.3010   22.1720 C.3    25  U25         0.2309
    223  O2'       21.6900    9.4740   21.0310 O.3    25  U25        -0.2156
    224  C1'       20.5770   10.1140   23.0630 C.3    25  U25         0.2420
    225  N1        20.2660   11.3250   23.8320 N.ar   25  U25        -0.2534
    226  C2        19.7120   12.3860   23.1450 C.ar   25  U25         0.3546
    227  O2        19.4520   12.3410   21.9520 O.2    25  U25        -0.2443
    228  N3        19.4730   13.5020   23.9030 N.ar   25  U25        -0.1530
    229  C4        19.7190   13.6620   25.2510 C.ar   25  U25         0.2846
    230  O4        19.4670   14.7420   25.7840 O.2    25  U25        -0.2650
    231  C5        20.2770   12.5160   25.8960 C.ar   25  U25         0.0814
    232  C6        20.5250   11.4110   25.1820 C.ar   25  U25         0.0870
    233  OP1       23.4210    7.9440   27.9860 O.2    25  U25        -0.5172
    234  OP2       23.7470   10.4830   28.0010 O.co2  25  U25        -0.4373
    235  P         25.2330   10.5620   22.1250 P.3    26  C26         0.2141
    236  C5'       24.5060   10.9970   19.6270 C.3    26  C26         0.1812
    237  O5'       24.6720   11.4940   20.9560 O.3    26  C26        -0.3114
    238  C4'       24.0430   12.1020   18.6910 C.3    26  C26         0.1773
    239  O4'       22.6700   12.4870   18.9930 O.3    26  C26        -0.3307
    240  C3'       24.7980   13.4180   18.7660 C.3    26  C26         0.1860
    241  O3'       26.0170   13.3740   18.0390 O.3    26  C26        -0.3112
    242  C2'       23.8060   14.3750   18.1210 C.3    26  C26         0.2309
    243  O2'       23.7820   14.2860   16.7120 O.3    26  C26        -0.2156
    244  C1'       22.4910   13.8730   18.7150 C.3    26  C26         0.2420
    245  N1        22.1990   14.5750   19.9760 N.ar   26  C26        -0.2535
    246  C2        21.6250   15.8530   19.9180 C.ar   26  C26         0.3532
    247  O2        21.3400   16.3360   18.8070 O.2    26  C26        -0.2443
    248  N3        21.3970   16.5280   21.0700 N.ar   26  C26        -0.1739
    249  C4        21.7110   15.9720   22.2440 C.ar   26  C26         0.1759
    250  N4        21.4840   16.6810   23.3500 N.pl3  26  C26        -0.1070
    251  C5        22.2780   14.6660   22.3330 C.ar   26  C26         0.0566
    252  C6        22.5010   14.0080   21.1850 C.ar   26  C26         0.0850
    253  OP1       26.4230    9.8220   21.6420 O.2    26  C26        -0.5172
    254  OP2       25.3390   11.4000   23.3440 O.co2  26  C26        -0.4373
    255  P         27.2540   14.2970   18.5050 P.3    27  G27         0.2141
    256  C5'       26.3040   16.1650   16.9280 C.3    27  G27         0.1812
    257  O5'       26.7540   15.7810   18.2170 O.3    27  G27        -0.3114
    258  C4'       25.9150   17.6200   16.9330 C.3    27  G27         0.1773
    259  O4'       24.6720   17.7970   17.6650 O.3    27  G27        -0.3307
    260  C3'       26.8720   18.5250   17.6860 C.3    27  G27         0.1860
    261  O3'       28.0280   18.8050   16.9130 O.3    27  G27        -0.3112
    262  C2'       26.0020   19.7470   17.9370 C.3    27  G27         0.2309
    263  O2'       25.8770   20.5880   16.8070 O.3    27  G27        -0.2156
    264  C1'       24.6590   19.0880   18.2550 C.3    27  G27         0.2408
    265  N1        23.2290   21.4310   22.5190 N.ar   27  G27        -0.1709
    266  C2        23.2820   21.9080   21.2330 C.ar   27  G27         0.2606
    267  N2        22.9110   23.1830   21.0600 N.pl3  27  G27        -0.0859
    268  N3        23.6690   21.1880   20.1920 N.ar   27  G27        -0.1918
    269  C4        24.0000   19.9270   20.5440 C.ar   27  G27         0.1723
    270  C5        23.9800   19.3480   21.7940 C.ar   27  G27         0.1748
    271  C6        23.5610   20.1370   22.9070 C.ar   27  G27         0.3023
    272  O6        23.4680   19.8100   24.1020 O.2    27  G27        -0.2633
    273  N7        24.4040   18.0230   21.7300 N.ar   27  G27        -0.2173
    274  C8        24.6710   17.8290   20.4650 C.ar   27  G27         0.1817
    275  N9        24.4510   18.9430   19.6910 N.ar   27  G27        -0.2693
    276  OP1       28.3950   13.9870   17.6160 O.2    27  G27        -0.5172
    277  OP2       27.4190   14.1780   19.9690 O.co2  27  G27        -0.4373
    278  P         29.3670   19.3030   17.6490 P.3    28  C28         0.2141
    279  C5'       29.3500   21.2430   19.4430 C.3    28  C28         0.1812
    280  O5'       28.9100   20.7250   18.1940 O.3    28  C28        -0.3114
    281  C4'       28.6820   22.5760   19.6900 C.3    28  C28         0.1773
    282  O4'       27.2750   22.3620   19.9910 O.3    28  C28        -0.3307
    283  C3'       29.1940   23.4090   20.8570 C.3    28  C28         0.1860
    284  O3'       30.3450   24.1510   20.4800 O.3    28  C28        -0.3112
    285  C2'       27.9860   24.2940   21.1310 C.3    28  C28         0.2309
    286  O2'       27.7960   25.3310   20.1850 O.3    28  C28        -0.2156
    287  C1'       26.8580   23.2720   20.9990 C.3    28  C28         0.2420
    288  N1        26.6560   22.5250   22.2540 N.ar   28  C28        -0.2535
    289  C2        26.0230   23.1740   23.3240 C.ar   28  C28         0.3532
    290  O2        25.6030   24.3350   23.1580 O.2    28  C28        -0.2443
    291  N3        25.8770   22.5180   24.5040 N.ar   28  C28        -0.1739
    292  C4        26.3170   21.2630   24.6280 C.ar   28  C28         0.1759
    293  N4        26.1590   20.6560   25.8060 N.pl3  28  C28        -0.1070
    294  C5        26.9410   20.5710   23.5450 C.ar   28  C28         0.0566
    295  C6        27.0860   21.2350   22.3870 C.ar   28  C28         0.0850
    296  OP1       30.4160   19.5190   16.6380 O.2    28  C28        -0.5172
    297  OP2       29.6360   18.3850   18.7850 O.co2  28  C28        -0.4373
    298  P         31.4650   24.5010   21.5740 P.3    29  G29         0.2141
    299  C5'       30.5310   26.9480   21.6030 C.3    29  G29         0.1812
    300  O5'       30.8530   25.7610   22.3210 O.3    29  G29        -0.3114
    301  C4'       29.8560   27.9250   22.5250 C.3    29  G29         0.1773
    302  O4'       28.5750   27.3720   22.9510 O.3    29  G29        -0.3307
    303  C3'       30.6070   28.1680   23.8240 C.3    29  G29         0.1860
    304  O3'       31.5990   29.1730   23.6420 O.3    29  G29        -0.3112
    305  C2'       29.4820   28.6330   24.7370 C.3    29  G29         0.2309
    306  O2'       29.1310   29.9700   24.4520 O.3    29  G29        -0.2156
    307  C1'       28.3530   27.6840   24.3200 C.3    29  G29         0.2408
    308  N1        27.3290   25.5340   28.8150 N.ar   29  G29        -0.1709
    309  C2        27.2170   26.8490   28.4280 C.ar   29  G29         0.2606
    310  N2        26.7950   27.7190   29.3760 N.pl3  29  G29        -0.0859
    311  N3        27.5030   27.2870   27.2120 N.ar   29  G29        -0.1918
    312  C4        27.9290   26.2960   26.4020 C.ar   29  G29         0.1723
    313  C5        28.0800   24.9550   26.6900 C.ar   29  G29         0.1748
    314  C6        27.7600   24.4950   27.9950 C.ar   29  G29         0.3023
    315  O6        27.8290   23.3450   28.4420 O.2    29  G29        -0.2633
    316  N7        28.5560   24.2640   25.5830 N.ar   29  G29        -0.2173
    317  C8        28.6830   25.1800   24.6590 C.ar   29  G29         0.1817
    318  N9        28.3240   26.4360   25.0880 N.ar   29  G29        -0.2693
    319  OP1       32.6910   24.9250   20.8680 O.2    29  G29        -0.5172
    320  OP2       31.5410   23.3920   22.5700 O.co2  29  G29        -0.4373
    321  P         33.0780   28.9540   24.2340 P.3    30  U30         0.2141
    322  C5'       32.6070   30.6830   26.1390 C.3    30  U30         0.1812
    323  O5'       32.9260   29.3490   25.7690 O.3    30  U30        -0.3114
    324  C4'       32.2620   30.7340   27.6000 C.3    30  U30         0.1773
    325  O4'       30.9740   30.0770   27.8160 O.3    30  U30        -0.3307
    326  C3'       33.1960   29.9630   28.5180 C.3    30  U30         0.1860
    327  O3'       34.3980   30.6900   28.7870 O.3    30  U30        -0.3112
    328  C2'       32.3120   29.8320   29.7450 C.3    30  U30         0.2309
    329  O2'       32.1660   31.0630   30.4150 O.3    30  U30        -0.2156
    330  C1'       30.9810   29.4480   29.0900 C.3    30  U30         0.2420
    331  N1        30.9060   27.9930   28.9090 N.ar   30  U30        -0.2534
    332  C2        30.5390   27.2540   30.0100 C.ar   30  U30         0.3546
    333  O2        30.2270   27.7690   31.0670 O.2    30  U30        -0.2443
    334  N3        30.5510   25.8930   29.8300 N.ar   30  U30        -0.1530
    335  C4        30.8800   25.2140   28.6750 C.ar   30  U30         0.2846
    336  O4        30.9260   23.9840   28.6920 O.2    30  U30        -0.2650
    337  C5        31.2110   26.0550   27.5600 C.ar   30  U30         0.0814
    338  C6        31.2120   27.3840   27.7140 C.ar   30  U30         0.0870
    339  OP1       33.9700   29.9470   23.5920 O.2    30  U30        -0.5172
    340  OP2       33.4300   27.5170   24.2010 O.co2  30  U30        -0.4373
    341  P         35.7690   29.8970   29.0870 P.3    31  G31         0.2141
    342  C5'       35.4120   30.3020   31.6510 C.3    31  G31         0.1812
    343  O5'       35.5800   29.3780   30.5800 O.3    31  G31        -0.3114
    344  C4'       34.8470   29.6010   32.8650 C.3    31  G31         0.1773
    345  O4'       33.5820   28.9600   32.5340 O.3    31  G31        -0.3307
    346  C3'       35.6660   28.4510   33.4220 C.3    31  G31         0.1860
    347  O3'       36.7750   28.9290   34.1730 O.3    31  G31        -0.3112
    348  C2'       34.6170   27.7740   34.2870 C.3    31  G31         0.2309
    349  O2'       34.3060   28.5270   35.4470 O.3    31  G31        -0.2156
    350  C1'       33.4320   27.7850   33.3190 C.3    31  G31         0.2408
    351  N1        32.8460   22.7700   33.0590 N.ar   31  G31        -0.1709
    352  C2        32.6950   23.6230   34.1310 C.ar   31  G31         0.2606
    353  N2        32.3520   23.0640   35.3040 N.pl3  31  G31        -0.0859
    354  N3        32.8670   24.9300   34.0600 N.ar   31  G31        -0.1918
    355  C4        33.2160   25.3280   32.8190 C.ar   31  G31         0.1723
    356  C5        33.3990   24.5630   31.6830 C.ar   31  G31         0.1748
    357  C6        33.2030   23.1590   31.7680 C.ar   31  G31         0.3023
    358  O6        33.3060   22.3100   30.8710 O.2    31  G31        -0.2633
    359  N7        33.7510   25.3600   30.6060 N.ar   31  G31        -0.2173
    360  C8        33.7790   26.5730   31.0970 C.ar   31  G31         0.1817
    361  N9        33.4700   26.6190   32.4370 N.ar   31  G31        -0.2693
    362  OP1       36.8790   30.8700   29.0740 O.3    31  G31        -0.4373
    363  OP2       35.8200   28.7110   28.1850 O.co2  31  G31        -0.5172
    364  P         38.0180   27.9630   34.4640 P.3    32  G32         0.2141
    365  C5'       36.8480   26.9120   36.5720 C.3    32  G32         0.1812
    366  O5'       37.3780   26.7410   35.2610 O.3    32  G32        -0.3114
    367  C4'       36.5480   25.5650   37.1760 C.3    32  G32         0.1773
    368  O4'       35.4590   24.9380   36.4350 O.3    32  G32        -0.3307
    369  C3'       37.6790   24.5620   37.0510 C.3    32  G32         0.1860
    370  O3'       38.6450   24.7200   38.0830 O.3    32  G32        -0.3112
    371  C2'       36.9240   23.2500   37.1730 C.3    32  G32         0.2309
    372  O2'       36.4810   23.0140   38.4960 O.3    32  G32        -0.2156
    373  C1'       35.7200   23.5510   36.2870 C.3    32  G32         0.2408
    374  N1        36.0500   19.9350   32.7560 N.ar   32  G32        -0.1709
    375  C2        35.7940   19.8270   34.1020 C.ar   32  G32         0.2606
    376  N2        35.6060   18.5880   34.5830 N.pl3  32  G32        -0.0859
    377  N3        35.7350   20.8610   34.9250 N.ar   32  G32        -0.1918
    378  C4        35.9690   22.0310   34.2920 C.ar   32  G32         0.1723
    379  C5        36.2410   22.2500   32.9610 C.ar   32  G32         0.1748
    380  C6        36.2890   21.1310   32.0800 C.ar   32  G32         0.3023
    381  O6        36.5000   21.1200   30.8590 O.2    32  G32        -0.2633
    382  N7        36.4270   23.6070   32.7120 N.ar   32  G32        -0.2173
    383  C8        36.2680   24.1720   33.8800 C.ar   32  G32         0.1817
    384  N9        35.9800   23.2720   34.8770 N.ar   32  G32        -0.2693
    385  OP1       38.9310   28.6950   35.3750 O.3    32  G32        -0.4373
    386  OP2       38.5340   27.4300   33.1730 O.co2  32  G32        -0.5172
    387  P         40.1310   24.1730   37.8540 P.3    33  A33         0.2141
    388  C5'       39.4480   22.0340   39.2090 C.3    33  A33         0.1812
    389  O5'       39.9900   22.5920   38.0120 O.3    33  A33        -0.3114
    390  C4'       39.3380   20.5310   39.0970 C.3    33  A33         0.1773
    391  O4'       38.3700   20.1680   38.0820 O.3    33  A33        -0.3307
    392  C3'       40.5900   19.7870   38.6750 C.3    33  A33         0.1860
    393  O3'       41.4740   19.6260   39.7770 O.3    33  A33        -0.3112
    394  C2'       40.0140   18.4510   38.2160 C.3    33  A33         0.2309
    395  O2'       39.7260   17.5750   39.2920 O.3    33  A33        -0.2156
    396  C1'       38.7160   18.9020   37.5380 C.3    33  A33         0.2408
    397  N1        39.2540   16.3360   33.1400 N.ar   33  A33        -0.2040
    398  C2        39.1910   15.9420   34.4150 C.ar   33  A33         0.2016
    399  N3        39.0630   16.6760   35.5170 N.ar   33  A33        -0.2048
    400  C4        39.0030   17.9840   35.2110 C.ar   33  A33         0.1692
    401  C5        39.0650   18.5460   33.9480 C.ar   33  A33         0.1518
    402  C6        39.1910   17.6560   32.8620 C.ar   33  A33         0.1919
    403  N6        39.2470   18.0430   31.5810 N.pl3  33  A33        -0.1054
    404  N7        38.9810   19.9300   34.0220 N.ar   33  A33        -0.2193
    405  C8        38.8590   20.1700   35.3090 C.ar   33  A33         0.1816
    406  N9        38.8550   19.0350   36.0850 N.ar   33  A33        -0.2693
    407  OP1       40.9990   24.6860   38.9430 O.3    33  A33        -0.4373
    408  OP2       40.4880   24.4560   36.4460 O.co2  33  A33        -0.5172
    409  P         43.0600   19.7000   39.5380 P.3    34  U34         0.2141
    410  C5'       42.9820   17.0860   39.2800 C.3    34  U34         0.1812
    411  O5'       43.4030   18.3480   38.7670 O.3    34  U34        -0.3114
    412  C4'       43.1920   16.0120   38.2380 C.3    34  U34         0.1773
    413  O4'       42.3920   16.3450   37.0720 O.3    34  U34        -0.3307
    414  C3'       44.6350   15.8560   37.7520 C.3    34  U34         0.1860
    415  O3'       44.9850   14.4900   37.6250 O.3    34  U34        -0.3112
    416  C2'       44.6170   16.5040   36.3710 C.3    34  U34         0.2309
    417  O2'       45.5140   15.9110   35.4610 O.3    34  U34        -0.2156
    418  C1'       43.1880   16.2320   35.9150 C.3    34  U34         0.2420
    419  N1        42.7730   17.2510   34.9470 N.ar   34  U34        -0.2534
    420  C2        42.6750   16.8710   33.6240 C.ar   34  U34         0.3546
    421  O2        42.8200   15.7140   33.2540 O.2    34  U34        -0.2443
    422  N3        42.4010   17.8960   32.7500 N.ar   34  U34        -0.1530
    423  C4        42.2130   19.2270   33.0650 C.ar   34  U34         0.2846
    424  O4        42.1120   20.0550   32.1560 O.2    34  U34        -0.2650
    425  C5        42.2740   19.5240   34.4620 C.ar   34  U34         0.0814
    426  C6        42.5380   18.5490   35.3350 C.ar   34  U34         0.0870
    427  OP1       43.7230   19.6720   40.8680 O.3    34  U34        -0.4373
    428  OP2       43.3130   20.8360   38.6150 O.co2  34  U34        -0.5172
    429  P         46.0630   13.8400   38.6280 P.3    35  A35         0.2141
    430  C5'       44.5750   11.6980   38.8200 C.3    35  A35         0.1812
    431  O5'       45.8180   12.2850   38.4600 O.3    35  A35        -0.3114
    432  C4'       44.6620   10.2080   38.6440 C.3    35  A35         0.1773
    433  O4'       44.5490    9.9010   37.2270 O.3    35  A35        -0.3307
    434  C3'       45.9960    9.6320   39.0990 C.3    35  A35         0.1860
    435  O3'       45.8100    8.3600   39.6950 O.3    35  A35        -0.3112
    436  C2'       46.8220    9.5830   37.8150 C.3    35  A35         0.2309
    437  O2'       47.8010    8.5590   37.8030 O.3    35  A35        -0.2156
    438  C1'       45.7520    9.3190   36.7560 C.3    35  A35         0.2408
    439  N1        48.0040    8.6830   32.1650 N.ar   35  A35        -0.2040
    440  C2        47.8350    7.8570   33.2010 C.ar   35  A35         0.2016
    441  N3        47.2330    8.0790   34.3660 N.ar   35  A35        -0.2048
    442  C4        46.7540    9.3330   34.4230 C.ar   35  A35         0.1692
    443  C5        46.8450   10.2980   33.4350 C.ar   35  A35         0.1518
    444  C6        47.5120    9.9370   32.2480 C.ar   35  A35         0.1919
    445  N6        47.6850   10.7620   31.2110 N.pl3  35  A35        -0.1054
    446  N7        46.2320   11.4750   33.8420 N.ar   35  A35        -0.2193
    447  C8        45.7970   11.2030   35.0470 C.ar   35  A35         0.1816
    448  N9        46.0810    9.9270   35.4660 N.ar   35  A35        -0.2693
    449  OP1       45.6650   14.2540   39.9990 O.3    35  A35        -0.4373
    450  OP2       47.4320   14.1210   38.1470 O.co2  35  A35        -0.5172
    451  P         45.8120    8.2310   41.3000 P.3    36  U36         0.2141
    452  C5'       43.2850    8.5540   41.9500 C.3    36  U36         0.1812
    453  O5'       44.5800    9.1230   41.7620 O.3    36  U36        -0.3114
    454  C4'       42.5320    9.3250   43.0130 C.3    36  U36         0.1773
    455  O4'       43.3600    9.3860   44.2110 O.3    36  U36        -0.3307
    456  C3'       42.2100   10.7790   42.6620 C.3    36  U36         0.1860
    457  O3'       41.0130   11.1820   43.3120 O.3    36  U36        -0.3112
    458  C2'       43.3570   11.5300   43.3290 C.3    36  U36         0.2309
    459  O2'       43.0370   12.8740   43.6150 O.3    36  U36        -0.2156
    460  C1'       43.4860   10.7350   44.6260 C.3    36  U36         0.2420
    461  N1        44.7730   10.9010   45.3200 N.ar   36  U36        -0.2534
    462  C2        44.7630   11.4550   46.5980 C.ar   36  U36         0.3546
    463  O2        43.7450   11.7870   47.1730 O.2    36  U36        -0.2443
    464  N3        45.9970   11.5990   47.1780 N.ar   36  U36        -0.1530
    465  C4        47.2150   11.2480   46.6370 C.ar   36  U36         0.2846
    466  O4        48.2440   11.4710   47.2700 O.2    36  U36        -0.2650
    467  C5        47.1430   10.6730   45.3250 C.ar   36  U36         0.0814
    468  C6        45.9530   10.5260   44.7260 C.ar   36  U36         0.0870
    469  OP1       47.0540    8.8710   41.7760 O.3    36  U36        -0.4373
    470  OP2       45.5350    6.8180   41.6520 O.co2  36  U36        -0.5172
    471  P         39.5930   10.9510   42.6110 P.3    37  G37         0.2141
    472  C5'       39.5230   13.4220   41.7220 C.3    37  G37         0.1812
    473  O5'       39.5520   12.0310   41.4420 O.3    37  G37        -0.3114
    474  C4'       39.4110   14.1970   40.4280 C.3    37  G37         0.1773
    475  O4'       40.6340   14.0210   39.6660 O.3    37  G37        -0.3307
    476  C3'       38.3140   13.6900   39.5070 C.3    37  G37         0.1860
    477  O3'       37.0780   14.3080   39.8200 O.3    37  G37        -0.3112
    478  C2'       38.8340   14.0860   38.1320 C.3    37  G37         0.2309
    479  O2'       38.6170   15.4470   37.8240 O.3    37  G37        -0.2156
    480  C1'       40.3270   13.8190   38.2950 C.3    37  G37         0.2408
    481  N1        42.1500   10.7330   34.6850 N.ar   37  G37        -0.1709
    482  C2        41.9140   12.0800   34.6340 C.ar   37  G37         0.2606
    483  N2        42.2260   12.6870   33.4780 N.pl3  37  G37        -0.0859
    484  N3        41.4150   12.7840   35.6430 N.ar   37  G37        -0.1918
    485  C4        41.1880   12.0190   36.7290 C.ar   37  G37         0.1723
    486  C5        41.3950   10.6640   36.8820 C.ar   37  G37         0.1748
    487  C6        41.9130    9.9210   35.7860 C.ar   37  G37         0.3023
    488  O6        42.1520    8.7150   35.7190 O.2    37  G37        -0.2633
    489  N7        41.0350   10.2520   38.1560 N.ar   37  G37        -0.2173
    490  C8        40.6260   11.3420   38.7490 C.ar   37  G37         0.1817
    491  N9        40.6970   12.4530   37.9420 N.ar   37  G37        -0.2693
    492  OP1       38.5330   11.2910   43.5800 O.3    37  G37        -0.4373
    493  OP2       39.5960    9.6170   41.9670 O.co2  37  G37        -0.5172
    494  P         35.7120   13.5210   39.5440 P.3    38  G38         0.2141
    495  C5'       35.3720   14.7030   37.2240 C.3    38  G38         0.1812
    496  O5'       35.6130   13.5000   37.9530 O.3    38  G38        -0.3114
    497  C4'       35.4960   14.4420   35.7430 C.3    38  G38         0.1773
    498  O4'       36.8620   14.0510   35.4610 O.3    38  G38        -0.3307
    499  C3'       34.6430   13.2980   35.2170 C.3    38  G38         0.1860
    500  O3'       33.3660   13.8090   34.8440 O.3    38  G38        -0.3112
    501  C2'       35.4370   12.8570   33.9910 C.3    38  G38         0.2309
    502  O2'       35.2020   13.6770   32.8620 O.3    38  G38        -0.2156
    503  C1'       36.8790   13.0520   34.4650 C.3    38  G38         0.2408
    504  N1        39.6480    8.9310   33.5380 N.ar   38  G38        -0.1709
    505  C2        39.4340   10.0400   32.7480 C.ar   38  G38         0.2606
    506  N2        39.9830   10.0220   31.5290 N.pl3  38  G38        -0.0859
    507  N3        38.7280   11.0880   33.1290 N.ar   38  G38        -0.1918
    508  C4        38.2500   10.9430   34.3830 C.ar   38  G38         0.1723
    509  C5        38.4170    9.8900   35.2560 C.ar   38  G38         0.1748
    510  C6        39.1570    8.7610   34.8290 C.ar   38  G38         0.3023
    511  O6        39.3760    7.7080   35.4400 O.2    38  G38        -0.2633
    512  N7        37.7700   10.1380   36.4570 N.ar   38  G38        -0.2173
    513  C8        37.2130   11.3070   36.2840 C.ar   38  G38         0.1817
    514  N9        37.4380   11.8300   35.0350 N.ar   38  G38        -0.2693
    515  OP1       34.6080   14.3310   40.0800 O.3    38  G38        -0.4373
    516  OP2       35.8790   12.1130   39.9920 O.co2  38  G38        -0.5172
    517  P         32.0190   12.9760   35.1680 P.3    39  C39         0.2141
    518  C5'       30.8960   14.4420   37.0740 C.3    39  C39         0.1812
    519  O5'       31.0110   14.1030   35.7040 O.3    39  C39        -0.3114
    520  C4'       31.0620   15.9470   37.2880 C.3    39  C39         0.1773
    521  O4'       32.2580   16.4440   36.6370 O.3    39  C39        -0.3307
    522  C3'       30.0090   16.9560   36.8380 C.3    39  C39         0.1860
    523  O3'       28.8570   16.9370   37.6850 O.3    39  C39        -0.3112
    524  C2'       30.7940   18.2440   37.0770 C.3    39  C39         0.2309
    525  O2'       30.9840   18.4900   38.4560 O.3    39  C39        -0.2156
    526  C1'       32.1630   17.8560   36.5210 C.3    39  C39         0.2420
    527  N1        32.3380   18.2330   35.1140 N.ar   39  C39        -0.2535
    528  C2        32.4490   19.5880   34.7900 C.ar   39  C39         0.3532
    529  O2        32.4060   20.4340   35.7100 O.2    39  C39        -0.2443
    530  N3        32.6080   19.9440   33.4920 N.ar   39  C39        -0.1739
    531  C4        32.6720   19.0000   32.5430 C.ar   39  C39         0.1759
    532  N4        32.8500   19.3860   31.2700 N.pl3  39  C39        -0.1070
    533  C5        32.5620   17.6140   32.8520 C.ar   39  C39         0.0566
    534  C6        32.3930   17.2800   34.1350 C.ar   39  C39         0.0850
    535  OP1       32.2800   11.9150   36.1680 O.3    39  C39        -0.4373
    536  OP2       31.4570   12.6030   33.8600 O.co2  39  C39        -0.5172
    537  P         27.5280   17.7830   37.2970 P.3    40  A40         0.2141
    538  C5'       27.9810   19.9580   38.7210 C.3    40  A40         0.1812
    539  O5'       27.9220   19.3210   37.4460 O.3    40  A40        -0.3114
    540  C4'       28.0190   21.4600   38.5490 C.3    40  A40         0.1773
    541  O4'       29.2230   21.8380   37.8230 O.3    40  A40        -0.3307
    542  C3'       26.8960   22.0340   37.7010 C.3    40  A40         0.1860
    543  O3'       25.7030   22.2140   38.4490 O.3    40  A40        -0.3112
    544  C2'       27.4950   23.3530   37.2360 C.3    40  A40         0.2309
    545  O2'       27.4770   24.3640   38.2300 O.3    40  A40        -0.2156
    546  C1'       28.9300   22.9210   36.9400 C.3    40  A40         0.2408
    547  N1        29.7610   24.3260   32.0630 N.ar   40  A40        -0.2040
    548  C2        29.5990   25.0340   33.1940 C.ar   40  A40         0.2016
    549  N3        29.3700   24.6030   34.4320 N.ar   40  A40        -0.2048
    550  C4        29.3010   23.2620   34.4610 C.ar   40  A40         0.1692
    551  C5        29.4350   22.4000   33.3840 C.ar   40  A40         0.1518
    552  C6        29.6910   22.9810   32.1260 C.ar   40  A40         0.1919
    553  N6        29.8780   22.2780   31.0040 N.pl3  40  A40        -0.1054
    554  N7        29.2930   21.0830   33.7920 N.ar   40  A40        -0.2193
    555  C8        29.0950   21.1730   35.0850 C.ar   40  A40         0.1816
    556  N9        29.0990   22.4620   35.5590 N.ar   40  A40        -0.2693
    557  OP1       26.5200   17.4450   38.3330 O.3    40  A40        -0.4373
    558  OP2       27.1980   17.5940   35.8720 O.co2  40  A40        -0.5172
    559  P         24.2870   22.1520   37.7030 P.3    41  C41         0.2141
    560  C5'       24.1260   24.7560   37.4740 C.3    41  C41         0.1812
    561  O5'       24.2430   23.4900   36.8360 O.3    41  C41        -0.3114
    562  C4'       24.3060   25.8700   36.4740 C.3    41  C41         0.1773
    563  O4'       25.6440   25.8260   35.9080 O.3    41  C41        -0.3307
    564  C3'       23.4230   25.8220   35.2430 C.3    41  C41         0.1860
    565  O3'       22.0990   26.2520   35.5270 O.3    41  C41        -0.3112
    566  C2'       24.1700   26.7860   34.3410 C.3    41  C41         0.2309
    567  O2'       24.0610   28.1230   34.7730 O.3    41  C41        -0.2156
    568  C1'       25.6020   26.3030   34.5670 C.3    41  C41         0.2420
    569  N1        25.9120   25.1950   33.6460 N.ar   41  C41        -0.2535
    570  C2        26.2490   25.5200   32.3390 C.ar   41  C41         0.3532
    571  O2        26.3320   26.7080   32.0350 O.2    41  C41        -0.2443
    572  N3        26.4810   24.5390   31.4450 N.ar   41  C41        -0.1739
    573  C4        26.4080   23.2640   31.8230 C.ar   41  C41         0.1759
    574  N4        26.6520   22.3300   30.9030 N.pl3  41  C41        -0.1070
    575  C5        26.0860   22.8930   33.1640 C.ar   41  C41         0.0566
    576  C6        25.8510   23.8870   34.0390 C.ar   41  C41         0.0850
    577  OP1       23.2420   22.2300   38.7420 O.3    41  C41        -0.4373
    578  OP2       24.2820   21.0200   36.7360 O.co2  41  C41        -0.5172
    579  P         20.8710   25.6060   34.7230 P.3    42  G42         0.2141
    580  C5'       20.8950   27.6180   33.0520 C.3    42  G42         0.1812
    581  O5'       21.0120   26.2120   33.2570 O.3    42  G42        -0.3114
    582  C4'       21.3740   27.9930   31.6670 C.3    42  G42         0.1773
    583  O4'       22.7450   27.5560   31.4710 O.3    42  G42        -0.3307
    584  C3'       20.6470   27.3290   30.5150 C.3    42  G42         0.1860
    585  O3'       19.3890   27.9510   30.2610 O.3    42  G42        -0.3112
    586  C2'       21.6290   27.5830   29.3830 C.3    42  G42         0.2309
    587  O2'       21.5600   28.9180   28.9340 O.3    42  G42        -0.2156
    588  C1'       22.9660   27.3180   30.0870 C.3    42  G42         0.2408
    589  N1        24.7580   23.8860   26.8030 N.ar   42  G42        -0.1709
    590  C2        24.5200   25.2280   26.6280 C.ar   42  G42         0.2606
    591  N2        24.7700   25.7180   25.4030 N.pl3  42  G42        -0.0859
    592  N3        24.0660   26.0290   27.5780 N.ar   42  G42        -0.1918
    593  C4        23.8670   25.3760   28.7420 C.ar   42  G42         0.1723
    594  C5        24.0670   24.0400   29.0260 C.ar   42  G42         0.1748
    595  C6        24.5460   23.1850   27.9890 C.ar   42  G42         0.3023
    596  O6        24.7690   21.9790   28.0300 O.2    42  G42        -0.2633
    597  N7        23.7460   23.7650   30.3500 N.ar   42  G42        -0.2173
    598  C8        23.3550   24.9140   30.8360 C.ar   42  G42         0.1817
    599  N9        23.3880   25.9310   29.9080 N.ar   42  G42        -0.2693
    600  OP1       19.6230   26.1280   35.3260 O.3    42  G42        -0.4373
    601  OP2       21.0940   24.1400   34.6420 O.co2  42  G42        -0.5172
    602  P         18.2820   27.1770   29.3910 P.3    43  C43         0.2141
    603  C5'       19.0040   28.4550   27.2170 C.3    43  C43         0.1812
    604  O5'       18.8450   27.2170   27.9000 O.3    43  C43        -0.3114
    605  C4'       19.5460   28.2350   25.8210 C.3    43  C43         0.1773
    606  O4'       20.8570   27.6180   25.8780 O.3    43  C43        -0.3307
    607  C3'       18.7640   27.2980   24.9170 C.3    43  C43         0.1860
    608  O3'       17.6460   27.9580   24.3500 O.3    43  C43        -0.3112
    609  C2'       19.8020   26.9930   23.8500 C.3    43  C43         0.2309
    610  O2'       19.9970   28.0720   22.9540 O.3    43  C43        -0.2156
    611  C1'       21.0550   26.8350   24.7080 C.3    43  C43         0.2420
    612  N1        21.2970   25.4400   25.1030 N.ar   43  C43        -0.2535
    613  C2        21.8860   24.5790   24.1690 C.ar   43  C43         0.3532
    614  O2        22.1430   25.0130   23.0380 O.2    43  C43        -0.2443
    615  N3        22.1530   23.3020   24.5220 N.ar   43  C43        -0.1739
    616  C4        21.8490   22.8750   25.7460 C.ar   43  C43         0.1759
    617  N4        22.1550   21.6170   26.0580 N.pl3  43  C43        -0.1070
    618  C5        21.2240   23.7240   26.7100 C.ar   43  C43         0.0566
    619  C6        20.9690   24.9860   26.3490 C.ar   43  C43         0.0850
    620  OP1       17.0380   27.9780   29.4540 O.2    43  C43        -0.5172
    621  OP2       18.2680   25.7600   29.8290 O.co2  43  C43        -0.4373
    622  P         16.3160   27.1240   24.0280 P.3    44  A44         0.2141
    623  C5'       17.1170   26.8220   21.5470 C.3    44  A44         0.1812
    624  O5'       16.7160   26.2190   22.7770 O.3    44  A44        -0.3114
    625  C4'       17.7440   25.7990   20.6210 C.3    44  A44         0.1773
    626  O4'       18.9820   25.2840   21.1840 O.3    44  A44        -0.3307
    627  C3'       16.9270   24.5550   20.3090 C.3    44  A44         0.1860
    628  O3'       16.0150   24.8350   19.2530 O.3    44  A44        -0.3112
    629  C2'       18.0120   23.6010   19.8280 C.3    44  A44         0.2309
    630  O2'       18.4330   23.8980   18.5120 O.3    44  A44        -0.2156
    631  C1'       19.1490   23.9290   20.7990 C.3    44  A44         0.2408
    632  N1        20.2480   19.3310   22.8410 N.ar   44  A44        -0.2040
    633  C2        20.3620   19.8130   21.5970 C.ar   44  A44         0.2016
    634  N3        20.0550   21.0180   21.1280 N.ar   44  A44        -0.2048
    635  C4        19.5690   21.7970   22.1090 C.ar   44  A44         0.1692
    636  C5        19.3920   21.4450   23.4360 C.ar   44  A44         0.1518
    637  C6        19.7550   20.1380   23.8040 C.ar   44  A44         0.1919
    638  N6        19.6390   19.6570   25.0440 N.pl3  44  A44        -0.1054
    639  N7        18.8690   22.5060   24.1590 N.ar   44  A44        -0.2193
    640  C8        18.7430   23.4630   23.2700 C.ar   44  A44         0.1816
    641  N9        19.1500   23.1040   22.0090 N.ar   44  A44        -0.2693
    642  OP1       15.2870   28.1040   23.6050 O.2    44  A44        -0.5172
    643  OP2       16.0480   26.2330   25.1810 O.co2  44  A44        -0.4373
    644  P         14.6130   24.0550   19.1780 P.3    45  A45         0.2141
    645  C5'       15.0210   21.4730   19.0040 C.3    45  A45         0.1812
    646  O5'       14.9470   22.7340   18.3550 O.3    45  A45        -0.3114
    647  C4'       15.7420   20.4850   18.1250 C.3    45  A45         0.1773
    648  O4'       17.0920   20.3090   18.6300 O.3    45  A45        -0.3307
    649  C3'       15.1100   19.1000   18.0830 C.3    45  A45         0.1860
    650  O3'       14.3400   18.9590   16.8990 O.3    45  A45        -0.3112
    651  C2'       16.3110   18.1610   18.0570 C.3    45  A45         0.2309
    652  O2'       16.8010   17.9310   16.7520 O.3    45  A45        -0.2156
    653  C1'       17.3350   18.9420   18.8740 C.3    45  A45         0.2408
    654  N1        18.3270   15.6220   22.6610 N.ar   45  A45        -0.2040
    655  C2        18.4240   15.5330   21.3280 C.ar   45  A45         0.2016
    656  N3        18.1190   16.4350   20.3970 N.ar   45  A45        -0.2048
    657  C4        17.6500   17.5570   20.9610 C.ar   45  A45         0.1692
    658  C5        17.4760   17.7980   22.3130 C.ar   45  A45         0.1518
    659  C6        17.8540   16.7670   23.2000 C.ar   45  A45         0.1919
    660  N6        17.7840   16.8610   24.5290 N.pl3  45  A45        -0.1054
    661  N7        16.9490   19.0660   22.5190 N.ar   45  A45        -0.2193
    662  C8        16.8410   19.5630   21.3070 C.ar   45  A45         0.1816
    663  N9        17.2640   18.7090   20.3190 N.ar   45  A45        -0.2693
    664  OP1       13.6890   24.8870   18.3600 O.2    45  A45        -0.5172
    665  OP2       14.2130   23.6350   20.5430 O.co2  45  A45        -0.4373
    666  P         12.8910   18.2790   16.9770 P.3    46  G46         0.2141
    667  C5'       13.9740   15.9190   16.6350 C.3    46  G46         0.1812
    668  O5'       13.2050   16.7930   17.4550 O.3    46  G46        -0.3114
    669  C4'       14.3810   14.6920   17.4130 C.3    46  G46         0.1773
    670  O4'       15.3110   15.0810   18.4570 O.3    46  G46        -0.3307
    671  C3'       13.2540   13.9850   18.1480 C.3    46  G46         0.1860
    672  O3'       12.6190   13.0450   17.2890 O.3    46  G46        -0.3112
    673  C2'       13.9980   13.2720   19.2740 C.3    46  G46         0.2309
    674  O2'       14.5880   12.0580   18.8730 O.3    46  G46        -0.2156
    675  C1'       15.0980   14.2780   19.6070 C.3    46  G46         0.2408
    676  N1        15.3150   14.9720   24.6240 N.ar   46  G46        -0.1709
    677  C2        15.7720   13.9170   23.8720 C.ar   46  G46         0.2606
    678  N2        16.3820   12.9190   24.5460 N.pl3  46  G46        -0.0859
    679  N3        15.6450   13.8410   22.5590 N.ar   46  G46        -0.1918
    680  C4        15.0180   14.9260   22.0490 C.ar   46  G46         0.1723
    681  C5        14.5280   16.0280   22.7120 C.ar   46  G46         0.1748
    682  C6        14.6700   16.0970   24.1210 C.ar   46  G46         0.3023
    683  O6        14.3060   16.9970   24.8920 O.2    46  G46        -0.2633
    684  N7        13.9610   16.9290   21.8200 N.ar   46  G46        -0.2173
    685  C8        14.1190   16.3700   20.6530 C.ar   46  G46         0.1817
    686  N9        14.7560   15.1560   20.7190 N.ar   46  G46        -0.2693
    687  OP1       12.3440   18.2110   15.6000 O.2    46  G46        -0.5172
    688  OP2       12.1200   18.9690   18.0420 O.co2  46  G46        -0.4373
    689  P         11.0530   13.2010   16.9580 P.3    47  U47         0.2141
    690  C5'       10.3840   11.0920   18.3840 C.3    47  U47         0.1812
    691  O5'       10.3230   12.5050   18.1920 O.3    47  U47        -0.3114
    692  C4'        9.4570   10.6720   19.5040 C.3    47  U47         0.1773
    693  O4'        9.9450   11.2250   20.7560 O.3    47  U47        -0.3307
    694  C3'        8.0050   11.1320   19.3730 C.3    47  U47         0.1860
    695  O3'        7.1240   10.1440   19.9010 O.3    47  U47        -0.3112
    696  C2'        7.9640   12.3720   20.2600 C.3    47  U47         0.2309
    697  O2'        6.6800   12.6360   20.7920 O.3    47  U47        -0.2156
    698  C1'        8.9110   11.9580   21.3820 C.3    47  U47         0.2420
    699  N1         9.5040   13.0930   22.1020 N.ar   47  U47        -0.2534
    700  C2         9.5510   13.0160   23.4740 C.ar   47  U47         0.3546
    701  O2         9.1620   12.0420   24.0930 O.2    47  U47        -0.2443
    702  N3        10.0750   14.1170   24.1010 N.ar   47  U47        -0.1530
    703  C4        10.5650   15.2610   23.5080 C.ar   47  U47         0.2846
    704  O4        10.9710   16.1860   24.2210 O.2    47  U47        -0.2650
    705  C5        10.5060   15.2600   22.0780 C.ar   47  U47         0.0814
    706  C6         9.9860   14.2010   21.4370 C.ar   47  U47         0.0870
    707  OP1       10.8110   12.3940   15.7330 O.2    47  U47        -0.5172
    708  OP2       10.6990   14.6420   16.9680 O.co2  47  U47        -0.4373
    709  P          6.2790    9.2040   18.9070 P.3    48  U48         0.2141
    710  C5'        4.3320   10.9430   19.1400 C.3    48  U48         0.1812
    711  O5'        5.1830   10.1790   18.2920 O.3    48  U48        -0.3114
    712  C4'        3.6340   12.0250   18.3470 C.3    48  U48         0.1773
    713  O4'        2.7130   11.4170   17.4040 O.3    48  U48        -0.3307
    714  C3'        2.8180   13.0000   19.1870 C.3    48  U48         0.1860
    715  O3'        3.1160   14.3360   18.8070 O.3    48  U48        -0.3112
    716  C2'        1.3660   12.6250   18.8900 C.3    48  U48         0.2309
    717  O2'        0.4930   13.7360   18.9280 O.3    48  U48        -0.2156
    718  C1'        1.4670   12.0740   17.4700 C.3    48  U48         0.2420
    719  N1         0.4210   11.0940   17.1370 N.ar   48  U48        -0.2534
    720  C2        -0.4650   11.4080   16.1160 C.ar   48  U48         0.3546
    721  O2        -0.4240   12.4600   15.5010 O.2    48  U48        -0.2443
    722  N3        -1.3990   10.4410   15.8440 N.ar   48  U48        -0.1530
    723  C4        -1.5360    9.2200   16.4740 C.ar   48  U48         0.2846
    724  O4        -2.4200    8.4420   16.1050 O.2    48  U48        -0.2650
    725  C5        -0.5890    8.9780   17.5220 C.ar   48  U48         0.0814
    726  C6         0.3310    9.9000   17.8110 C.ar   48  U48         0.0870
    727  OP1        5.5950    8.2150   19.7760 O.3    48  U48        -0.4373
    728  OP2        7.1540    8.7320   17.8050 O.co2  48  U48        -0.5172
    729  P          4.4000   15.0720   19.4390 P.3    49  U49         0.2141
    730  C5'        3.2140   15.1760   21.7760 C.3    49  U49         0.1812
    731  O5'        4.3160   14.7440   20.9930 O.3    49  U49        -0.3114
    732  C4'        3.5190   14.9770   23.2380 C.3    49  U49         0.1773
    733  O4'        3.3630   13.5740   23.5680 O.3    49  U49        -0.3307
    734  C3'        4.9410   15.3580   23.6530 C.3    49  U49         0.1860
    735  O3'        4.9110   16.1340   24.8410 O.3    49  U49        -0.3112
    736  C2'        5.6170   14.0110   23.9000 C.3    49  U49         0.2309
    737  O2'        6.6260   14.0440   24.8910 O.3    49  U49        -0.2156
    738  C1'        4.4390   13.1760   24.3830 C.3    49  U49         0.2420
    739  N1         4.6330   11.7300   24.2290 N.ar   49  U49        -0.2534
    740  C2         4.3840   10.9510   25.3310 C.ar   49  U49         0.3546
    741  O2         4.0280   11.4220   26.3940 O.2    49  U49        -0.2443
    742  N3         4.5650    9.6040   25.1450 N.ar   49  U49        -0.1530
    743  C4         4.9620    8.9760   23.9830 C.ar   49  U49         0.2846
    744  O4         5.0320    7.7480   23.9550 O.2    49  U49        -0.2650
    745  C5         5.2120    9.8580   22.8830 C.ar   49  U49         0.0814
    746  C6         5.0420   11.1740   23.0410 C.ar   49  U49         0.0870
    747  OP1        4.2000   16.5330   19.2600 O.3    49  U49        -0.4373
    748  OP2        5.6260   14.4210   18.9090 O.co2  49  U49        -0.5172
    749  P          6.0990   17.1670   25.1420 P.3    50  C50         0.2141
    750  C5'        4.7470   18.4970   26.9420 C.3    50  C50         0.1812
    751  O5'        5.8230   17.6250   26.6350 O.3    50  C50        -0.3114
    752  C4'        4.4010   18.3750   28.3960 C.3    50  C50         0.1773
    753  O4'        3.7540   17.0890   28.6060 O.3    50  C50        -0.3307
    754  C3'        5.6050   18.3510   29.3260 C.3    50  C50         0.1860
    755  O3'        5.9720   19.6660   29.7170 O.3    50  C50        -0.3112
    756  C2'        5.0660   17.5740   30.5130 C.3    50  C50         0.2309
    757  O2'        4.2410   18.3780   31.3260 O.3    50  C50        -0.2156
    758  C1'        4.2240   16.5100   29.8100 C.3    50  C50         0.2420
    759  N1         4.9890   15.2980   29.4770 N.ar   50  C50        -0.2535
    760  C2         5.4670   14.5130   30.5230 C.ar   50  C50         0.3532
    761  O2         5.2260   14.8650   31.6800 O.2    50  C50        -0.2443
    762  N3         6.1730   13.3890   30.2480 N.ar   50  C50        -0.1739
    763  C4         6.3910   13.0360   28.9820 C.ar   50  C50         0.1759
    764  N4         7.0770   11.9110   28.7580 N.pl3  50  C50        -0.1070
    765  C5         5.9120   13.8210   27.8870 C.ar   50  C50         0.0566
    766  C6         5.2250   14.9370   28.1790 C.ar   50  C50         0.0850
    767  OP1        5.9170   18.3430   24.2480 O.2    50  C50        -0.5172
    768  OP2        7.3850   16.4300   25.1220 O.co2  50  C50        -0.4373
    769  P          7.5010   20.1270   29.5930 P.3    51  U51         0.2141
    770  C5'        8.2220   19.1890   31.9310 C.3    51  U51         0.1812
    771  O5'        8.2930   19.0940   30.5110 O.3    51  U51        -0.3114
    772  C4'        8.7130   17.9120   32.5730 C.3    51  U51         0.1773
    773  O4'        8.0460   16.7610   31.9870 O.3    51  U51        -0.3307
    774  C3'       10.1830   17.5950   32.3690 C.3    51  U51         0.1860
    775  O3'       10.9900   18.3570   33.2600 O.3    51  U51        -0.3112
    776  C2'       10.2090   16.1110   32.7070 C.3    51  U51         0.2309
    777  O2'       10.1260   15.8890   34.0990 O.3    51  U51        -0.2156
    778  C1'        8.9150   15.6370   32.0380 C.3    51  U51         0.2420
    779  N1         9.1100   15.1370   30.6700 N.ar   51  U51        -0.2534
    780  C2         9.6790   13.8830   30.5160 C.ar   51  U51         0.3546
    781  O2        10.0150   13.1900   31.4600 O.2    51  U51        -0.2443
    782  N3         9.8320   13.4700   29.2140 N.ar   51  U51        -0.1530
    783  C4         9.4770   14.1680   28.0740 C.ar   51  U51         0.2846
    784  O4         9.6500   13.6530   26.9650 O.2    51  U51        -0.2650
    785  C5         8.8960   15.4530   28.3210 C.ar   51  U51         0.0814
    786  C6         8.7380   15.8830   29.5790 C.ar   51  U51         0.0870
    787  OP1        7.6160   21.4750   30.2110 O.3    51  U51        -0.4373
    788  OP2        7.9390   19.9230   28.1860 O.co2  51  U51        -0.5172
    789  P         12.5040   18.7090   32.8590 P.3    52  A52         0.2141
    790  C5'       13.3310   16.5860   34.1630 C.3    52  A52         0.1812
    791  O5'       13.2560   17.3100   32.9410 O.3    52  A52        -0.3114
    792  C4'       13.9790   15.2430   33.9240 C.3    52  A52         0.1773
    793  O4'       13.1140   14.4600   33.0600 O.3    52  A52        -0.3307
    794  C3'       15.3360   15.2840   33.2280 C.3    52  A52         0.1860
    795  O3'       16.3760   15.3190   34.2030 O.3    52  A52        -0.3112
    796  C2'       15.3680   13.9570   32.4720 C.3    52  A52         0.2309
    797  O2'       15.8060   12.8780   33.2750 O.3    52  A52        -0.2156
    798  C1'       13.8940   13.7640   32.1080 C.3    52  A52         0.2408
    799  N1        13.7940   12.6370   27.1120 N.ar   52  A52        -0.2040
    800  C2        14.2480   11.9690   28.1780 C.ar   52  A52         0.2016
    801  N3        14.2460   12.3270   29.4560 N.ar   52  A52        -0.2048
    802  C4        13.6980   13.5440   29.6030 C.ar   52  A52         0.1692
    803  C5        13.1900   14.3530   28.6050 C.ar   52  A52         0.1518
    804  C6        13.2480   13.8560   27.2940 C.ar   52  A52         0.1919
    805  N6        12.7990   14.5170   26.2280 N.pl3  52  A52        -0.1054
    806  N7        12.7160   15.5460   29.1330 N.ar   52  A52        -0.2193
    807  C8        12.9420   15.4320   30.4200 C.ar   52  A52         0.1816
    808  N9        13.5280   14.2410   30.7750 N.ar   52  A52        -0.2693
    809  OP1       13.0630   19.6110   33.8990 O.3    52  A52        -0.4373
    810  OP2       12.5280   19.1290   31.4370 O.co2  52  A52        -0.5172
    811  P         17.6110   16.3360   34.0290 P.3    53  C53         0.2141
    812  C5'       19.1920   14.4090   33.1830 C.3    53  C53         0.1812
    813  O5'       18.5490   15.6580   32.9320 O.3    53  C53        -0.3114
    814  C4'       19.5470   13.7310   31.8780 C.3    53  C53         0.1773
    815  O4'       18.3160   13.4150   31.1700 O.3    53  C53        -0.3307
    816  C3'       20.3590   14.5580   30.8910 C.3    53  C53         0.1860
    817  O3'       21.7640   14.3800   31.0880 O.3    53  C53        -0.3112
    818  C2'       19.9870   13.9210   29.5550 C.3    53  C53         0.2309
    819  O2'       20.7700   12.7810   29.2790 O.3    53  C53        -0.2156
    820  C1'       18.5220   13.5350   29.7730 C.3    53  C53         0.2420
    821  N1        17.5930   14.5520   29.2480 N.ar   53  C53        -0.2535
    822  C2        16.9950   14.3450   27.9930 C.ar   53  C53         0.3532
    823  O2        17.2140   13.2820   27.3860 O.2    53  C53        -0.2443
    824  N3        16.1890   15.3070   27.4780 N.ar   53  C53        -0.1739
    825  C4        15.9590   16.4270   28.1700 C.ar   53  C53         0.1759
    826  N4        15.1760   17.3620   27.6130 N.pl3  53  C53        -0.1070
    827  C5        16.5250   16.6460   29.4620 C.ar   53  C53         0.0566
    828  C6        17.3290   15.6900   29.9570 C.ar   53  C53         0.0850
    829  OP1       18.3450   16.3580   35.3140 O.3    53  C53        -0.4373
    830  OP2       17.0790   17.6070   33.4660 O.co2  53  C53        -0.5172
    831  P         22.6090   15.4540   31.9390 P.3    54  C54         0.2141
    832  C5'       23.1040   14.6910   34.4070 C.3    54  C54         0.1812
    833  O5'       23.3450   14.5360   33.0200 O.3    54  C54        -0.3114
    834  C4'       22.8010   13.3570   35.0640 C.3    54  C54         0.1773
    835  O4'       21.9670   12.4910   34.2510 O.3    54  C54        -0.3307
    836  C3'       23.9300   12.4090   35.4330 C.3    54  C54         0.1860
    837  O3'       24.7190   12.9060   36.5150 O.3    54  C54        -0.3112
    838  C2'       23.1000   11.2170   35.8890 C.3    54  C54         0.2309
    839  O2'       22.4440   11.4880   37.1060 O.3    54  C54        -0.2156
    840  C1'       22.0250   11.1780   34.8000 C.3    54  C54         0.2420
    841  N1        22.3530   10.2050   33.7430 N.ar   54  C54        -0.2535
    842  C2        22.2690    8.8370   34.0430 C.ar   54  C54         0.3532
    843  O2        21.9240    8.4890   35.1850 O.2    54  C54        -0.2443
    844  N3        22.5670    7.9280   33.0870 N.ar   54  C54        -0.1739
    845  C4        22.9480    8.3350   31.8780 C.ar   54  C54         0.1759
    846  N4        23.2430    7.4020   30.9710 N.pl3  54  C54        -0.1070
    847  C5        23.0460    9.7200   31.5440 C.ar   54  C54         0.0566
    848  C6        22.7380   10.6120   32.4970 C.ar   54  C54         0.0850
    849  OP1       21.6750   16.3840   32.6210 O.3    54  C54        -0.4373
    850  OP2       23.6560   15.9980   31.0450 O.co2  54  C54        -0.5172
    851  P         26.2130   12.3420   36.7580 P.3    55  G55         0.2141
    852  C5'       25.2950   10.9760   38.7960 C.3    55  G55         0.1812
    853  O5'       25.9990   10.9850   37.5590 O.3    55  G55        -0.3114
    854  C4'       25.3000    9.5910   39.3950 C.3    55  G55         0.1773
    855  O4'       24.3550    8.7550   38.6770 O.3    55  G55        -0.3307
    856  C3'       26.6100    8.8150   39.3390 C.3    55  G55         0.1860
    857  O3'       27.4120    9.1190   40.4780 O.3    55  G55        -0.3112
    858  C2'       26.1130    7.3820   39.4550 C.3    55  G55         0.2309
    859  O2'       25.7330    7.0670   40.7790 O.3    55  G55        -0.2156
    860  C1'       24.8620    7.4370   38.5810 C.3    55  G55         0.2408
    861  N1        25.3850    3.8190   35.0850 N.ar   55  G55        -0.1709
    862  C2        25.1940    3.7020   36.4370 C.ar   55  G55         0.2606
    863  N2        25.1210    2.4500   36.9150 N.pl3  55  G55        -0.0859
    864  N3        25.0890    4.7340   37.2590 N.ar   55  G55        -0.1918
    865  C4        25.2070    5.9100   36.6060 C.ar   55  G55         0.1723
    866  C5        25.4110    6.1340   35.2600 C.ar   55  G55         0.1748
    867  C6        25.5120    5.0210   34.3910 C.ar   55  G55         0.3023
    868  O6        25.6890    5.0100   33.1580 O.2    55  G55        -0.2633
    869  N7        25.4820    7.4960   34.9940 N.ar   55  G55        -0.2173
    870  C8        25.3160    8.0600   36.1600 C.ar   55  G55         0.1817
    871  N9        25.1260    7.1540   37.1740 N.ar   55  G55        -0.2693
    872  OP1       26.8740   13.3360   37.6380 O.3    55  G55        -0.4373
    873  OP2       26.8380   11.9920   35.4660 O.co2  55  G55        -0.5172
    874  P         29.0060    9.0030   40.3820 P.3    56  G56         0.2141
    875  C5'       29.2090    6.7240   41.6730 C.3    56  G56         0.1812
    876  O5'       29.2920    7.4380   40.4390 O.3    56  G56        -0.3114
    877  C4'       29.2300    5.2320   41.4190 C.3    56  G56         0.1773
    878  O4'       28.1310    4.8620   40.5400 O.3    56  G56        -0.3307
    879  C3'       30.4520    4.6900   40.7010 C.3    56  G56         0.1860
    880  O3'       31.5230    4.4640   41.6050 O.3    56  G56        -0.3112
    881  C2'       29.9110    3.3680   40.1950 C.3    56  G56         0.2309
    882  O2'       29.7690    2.4470   41.2590 O.3    56  G56        -0.2156
    883  C1'       28.5420    3.8130   39.6800 C.3    56  G56         0.2408
    884  N1        28.7500    2.6220   34.7750 N.ar   56  G56        -0.1709
    885  C2        28.6770    1.8020   35.8670 C.ar   56  G56         0.2606
    886  N2        28.6700    0.4890   35.6130 N.pl3  56  G56        -0.0859
    887  N3        28.6220    2.2360   37.1090 N.ar   56  G56        -0.1918
    888  C4        28.6610    3.5850   37.1710 C.ar   56  G56         0.1723
    889  C5        28.7470    4.4950   36.1370 C.ar   56  G56         0.1748
    890  C6        28.7900    4.0110   34.8110 C.ar   56  G56         0.3023
    891  O6        28.8520    4.6530   33.7490 O.2    56  G56        -0.2633
    892  N7        28.7780    5.7940   36.6230 N.ar   56  G56        -0.2173
    893  C8        28.6960    5.6520   37.9210 C.ar   56  G56         0.1817
    894  N9        28.6250    4.3350   38.3170 N.ar   56  G56        -0.2693
    895  OP1       29.5600    9.6260   41.6070 O.3    56  G56        -0.4373
    896  OP2       29.4270    9.4960   39.0490 O.co2  56  G56        -0.5172
    897  P         33.0290    4.4080   41.0570 P.3    57  G57         0.2141
    898  C5'       33.0570    1.7750   41.0800 C.3    57  G57         0.1812
    899  O5'       33.1760    2.9870   40.3450 O.3    57  G57        -0.3114
    900  C4'       33.0350    0.5900   40.1370 C.3    57  G57         0.1773
    901  O4'       31.8720    0.6650   39.2640 O.3    57  G57        -0.3307
    902  C3'       34.2020    0.4770   39.1750 C.3    57  G57         0.1860
    903  O3'       35.3060   -0.1460   39.8150 O.3    57  G57        -0.3112
    904  C2'       33.6160   -0.4370   38.1060 C.3    57  G57         0.2309
    905  O2'       33.5660   -1.7870   38.5140 O.3    57  G57        -0.2156
    906  C1'       32.2020    0.1260   37.9880 C.3    57  G57         0.2408
    907  N1        32.1290    1.2140   33.0350 N.ar   57  G57        -0.1709
    908  C2        32.2310   -0.0020   33.6610 C.ar   57  G57         0.2606
    909  N2        32.3640   -1.0710   32.8570 N.pl3  57  G57        -0.0859
    910  N3        32.2240   -0.1580   34.9740 N.ar   57  G57        -0.1918
    911  C4        32.1370    1.0210   35.6220 C.ar   57  G57         0.1723
    912  C5        32.0530    2.2930   35.0920 C.ar   57  G57         0.1748
    913  C6        32.0470    2.4430   33.6780 C.ar   57  G57         0.3023
    914  O6        31.9940    3.4860   33.0060 O.2    57  G57        -0.2633
    915  N7        31.9850    3.2450   36.1010 N.ar   57  G57        -0.2173
    916  C8        32.0250    2.5470   37.2080 C.ar   57  G57         0.1817
    917  N9        32.1210    1.1910   36.9880 N.ar   57  G57        -0.2693
    918  OP1       33.9160    4.4510   42.2460 O.3    57  G57        -0.4373
    919  OP2       33.1610    5.4310   39.9920 O.co2  57  G57        -0.5172
    920  P         36.8000    0.3150   39.4640 P.3    58  C58         0.2141
    921  C5'       37.2420   -1.4400   37.5630 C.3    58  C58         0.1812
    922  O5'       36.9790   -0.0890   37.9310 O.3    58  C58        -0.3114
    923  C4'       37.0940   -1.6270   36.0660 C.3    58  C58         0.1773
    924  O4'       35.7830   -1.1770   35.6250 O.3    58  C58        -0.3307
    925  C3'       38.0400   -0.8370   35.1790 C.3    58  C58         0.1860
    926  O3'       39.3190   -1.4440   35.0910 O.3    58  C58        -0.3112
    927  C2'       37.3120   -0.9120   33.8480 C.3    58  C58         0.2309
    928  O2'       37.3980   -2.1820   33.2390 O.3    58  C58        -0.2156
    929  C1'       35.8800   -0.6540   34.3040 C.3    58  C58         0.2420
    930  N1        35.6020    0.7900   34.3400 N.ar   58  C58        -0.2535
    931  C2        35.3350    1.4410   33.1390 C.ar   58  C58         0.3532
    932  O2        35.3230    0.7680   32.0840 O.2    58  C58        -0.2443
    933  N3        35.1030    2.7770   33.1500 N.ar   58  C58        -0.1739
    934  C4        35.1320    3.4510   34.3060 C.ar   58  C58         0.1759
    935  N4        34.8960    4.7660   34.2790 N.pl3  58  C58        -0.1070
    936  C5        35.4020    2.8060   35.5440 C.ar   58  C58         0.0566
    937  C6        35.6230    1.4870   35.5160 C.ar   58  C58         0.0850
    938  OP1       37.7260   -0.5170   40.2650 O.3    58  C58        -0.4373
    939  OP2       36.8590    1.7870   39.5850 O.co2  58  C58        -0.5172
    940  P         40.6220   -0.5250   34.9190 P.3    59  A59         0.2141
    941  C5'       40.6460   -1.0410   32.3420 C.3    59  A59         0.1812
    942  O5'       40.6010   -0.0800   33.3880 O.3    59  A59        -0.3114
    943  C4'       40.2340   -0.4080   31.0290 C.3    59  A59         0.1773
    944  O4'       38.9450    0.2290   31.1970 O.3    59  A59        -0.3307
    945  C3'       41.1400    0.6950   30.5020 C.3    59  A59         0.1860
    946  O3'       42.1890    0.1410   29.7170 O.3    59  A59        -0.3112
    947  C2'       40.1940    1.5000   29.6180 C.3    59  A59         0.2309
    948  O2'       40.0230    0.9440   28.3290 O.3    59  A59        -0.2156
    949  C1'       38.8850    1.3990   30.3990 C.3    59  A59         0.2408
    950  N1        37.6210    6.3860   30.6720 N.ar   59  A59        -0.2040
    951  C2        37.8430    5.5760   29.6260 C.ar   59  A59         0.2016
    952  N3        38.1850    4.2860   29.6170 N.ar   59  A59        -0.2048
    953  C4        38.3160    3.8230   30.8770 C.ar   59  A59         0.1692
    954  C5        38.1330    4.5390   32.0470 C.ar   59  A59         0.1518
    955  C6        37.7550    5.8790   31.9230 C.ar   59  A59         0.1919
    956  N6        37.5120    6.6750   32.9780 N.pl3  59  A59        -0.1054
    957  N7        38.3610    3.7320   33.1610 N.ar   59  A59        -0.2193
    958  C8        38.6620    2.5680   32.6460 C.ar   59  A59         0.1816
    959  N9        38.6410    2.5440   31.2720 N.ar   59  A59        -0.2693
    960  OP1       41.8020   -1.3910   35.1520 O.2    59  A59        -0.5172
    961  OP2       40.4390    0.7010   35.7340 O.co2  59  A59        -0.4373
    962  P         43.6410    0.8250   29.7220 P.3    60  C60         0.2141
    963  C5'       42.9200    2.4000   27.7380 C.3    60  C60         0.1812
    964  O5'       43.4050    2.2630   29.0710 O.3    60  C60        -0.3114
    965  C4'       42.5610    3.8420   27.4590 C.3    60  C60         0.1773
    966  O4'       41.3560    4.2000   28.1970 O.3    60  C60        -0.3307
    967  C3'       43.5910    4.8700   27.9100 C.3    60  C60         0.1860
    968  O3'       44.6060    5.0450   26.9200 O.3    60  C60        -0.3112
    969  C2'       42.7340    6.1240   28.0380 C.3    60  C60         0.2309
    970  O2'       42.4470    6.7030   26.7830 O.3    60  C60        -0.2156
    971  C1'       41.4520    5.5490   28.6390 C.3    60  C60         0.2420
    972  N1        41.4340    5.5790   30.1160 N.ar   60  C60        -0.2535
    973  C2        41.0250    6.7580   30.7670 C.ar   60  C60         0.3532
    974  O2        40.7380    7.7590   30.0880 O.2    60  C60        -0.2443
    975  N3        40.9640    6.7790   32.1170 N.ar   60  C60        -0.1739
    976  C4        41.3070    5.6960   32.8200 C.ar   60  C60         0.1759
    977  N4        41.2130    5.7600   34.1550 N.pl3  60  C60        -0.1070
    978  C5        41.7550    4.4960   32.1880 C.ar   60  C60         0.0566
    979  C6        41.8000    4.4810   30.8460 C.ar   60  C60         0.0850
    980  OP1       44.4980    0.0220   28.8210 O.2    60  C60        -0.5172
    981  OP2       44.0530    1.0450   31.1260 O.co2  60  C60        -0.4373
    982  P         46.0870    5.5090   27.3570 P.3    61  C61         0.2141
    983  C5'       45.5980    7.9200   26.4490 C.3    61  C61         0.1812
    984  O5'       45.9740    7.0850   27.5370 O.3    61  C61        -0.3114
    985  C4'       45.1120    9.2510   26.9660 C.3    61  C61         0.1773
    986  O4'       43.9850    9.0510   27.8590 O.3    61  C61        -0.3307
    987  C3'       46.1160   10.0230   27.8030 C.3    61  C61         0.1860
    988  O3'       46.9910   10.7570   26.9500 O.3    61  C61        -0.3112
    989  C2'       45.2040   10.9520   28.5960 C.3    61  C61         0.2309
    990  O2'       44.7720   12.0600   27.8300 O.3    61  C61        -0.2156
    991  C1'       44.0080   10.0380   28.8760 C.3    61  C61         0.2420
    992  N1        44.0570    9.3680   30.1900 N.ar   61  C61        -0.2535
    993  C2        43.6060   10.0730   31.3190 C.ar   61  C61         0.3532
    994  O2        43.2370   11.2530   31.1880 O.2    61  C61        -0.2443
    995  N3        43.5870    9.4540   32.5220 N.ar   61  C61        -0.1739
    996  C4        44.0090    8.1900   32.6300 C.ar   61  C61         0.1759
    997  N4        43.9380    7.6120   33.8340 N.pl3  61  C61        -0.1070
    998  C5        44.5090    7.4620   31.5090 C.ar   61  C61         0.0566
    999  C6        44.5140    8.0860   30.3150 C.ar   61  C61         0.0850
   1000  OP1       47.0000    5.2260   26.2250 O.2    61  C61        -0.5172
   1001  OP2       46.3820    4.9390   28.7000 O.co2  61  C61        -0.4373
   1002  P         48.5630   10.4210   26.9380 P.3    62  G62         0.2141
   1003  C5'       50.5630   11.4840   28.2520 C.3    62  G62         0.1812
   1004  O5'       49.1580   11.3100   28.1140 O.3    62  G62        -0.3114
   1005  C4'       50.8820   12.1080   29.5890 C.3    62  G62         0.1773
   1006  O4'       50.6180   11.1370   30.6380 O.3    62  G62        -0.3307
   1007  C3'       52.3330   12.5340   29.7720 C.3    62  G62         0.1860
   1008  O3'       52.3900   13.6750   30.6250 O.3    62  G62        -0.3112
   1009  C2'       52.9560   11.3060   30.4290 C.3    62  G62         0.2309
   1010  O2'       54.0960   11.6040   31.2070 O.3    62  G62        -0.2156
   1011  C1'       51.8150   10.8460   31.3310 C.3    62  G62         0.2408
   1012  N1        50.7330    7.3920   34.8680 N.ar   62  G62        -0.1709
   1013  C2        50.6260    8.7600   34.9170 C.ar   62  G62         0.2606
   1014  N2        50.1670    9.2800   36.0640 N.pl3  62  G62        -0.0859
   1015  N3        50.9480    9.5600   33.9170 N.ar   62  G62        -0.1918
   1016  C4        51.4050    8.8740   32.8490 C.ar   62  G62         0.1723
   1017  C5        51.5570    7.5130   32.6980 C.ar   62  G62         0.1748
   1018  C6        51.1940    6.6630   33.7770 C.ar   62  G62         0.3023
   1019  O6        51.2370    5.4300   33.8370 O.2    62  G62        -0.2633
   1020  N7        52.0650    7.2110   31.4420 N.ar   62  G62        -0.2173
   1021  C8        52.2070    8.3730   30.8620 C.ar   62  G62         0.1817
   1022  N9        51.8170    9.4230   31.6600 N.ar   62  G62        -0.2693
   1023  OP1       49.1270   10.9250   25.6630 O.2    62  G62        -0.5172
   1024  OP2       48.7450    8.9960   27.3060 O.co2  62  G62        -0.4373
   1025  P         53.1400   15.0100   30.1300 P.3    63  U63         0.2141
   1026  C5'       50.6200   15.7140   29.8830 C.3    63  U63         0.1812
   1027  O5'       51.9860   15.9550   29.5720 O.3    63  U63        -0.3114
   1028  C4'       50.0650   16.8590   30.6880 C.3    63  U63         0.1773
   1029  O4'       49.0190   16.3310   31.5360 O.3    63  U63        -0.3307
   1030  C3'       51.0940   17.5420   31.5810 C.3    63  U63         0.1860
   1031  O3'       51.2820   18.9390   31.3050 O.3    63  U63        -0.3112
   1032  C2'       50.7250   17.1530   33.0190 C.3    63  U63         0.2309
   1033  O2'       50.7520   18.2170   33.9480 O.3    63  U63        -0.2156
   1034  C1'       49.3120   16.5780   32.8930 C.3    63  U63         0.2420
   1035  N1        49.1520   15.3170   33.6360 N.ar   63  U63        -0.2534
   1036  C2        48.5160   15.3700   34.8610 C.ar   63  U63         0.3546
   1037  O2        48.0530   16.3980   35.3170 O.2    63  U63        -0.2443
   1038  N3        48.4410   14.1710   35.5290 N.ar   63  U63        -0.1530
   1039  C4        48.9250   12.9500   35.1010 C.ar   63  U63         0.2846
   1040  O4        48.8630   11.9740   35.8520 O.2    63  U63        -0.2650
   1041  C5        49.5460   12.9770   33.8090 C.ar   63  U63         0.0814
   1042  C6        49.6340   14.1300   33.1390 C.ar   63  U63         0.0870
   1043  OP1       53.9980   14.6420   28.9790 O.2    63  U63        -0.5172
   1044  OP2       53.7430   15.6640   31.3150 O.co2  63  U63        -0.4373
   1045  P         50.0520   19.9740   31.4180 P.3    64  A64         0.2141
   1046  C5'       48.2480   20.7620   29.6950 C.3    64  A64         0.1812
   1047  O5'       49.4630   20.0640   29.9430 O.3    64  A64        -0.3114
   1048  C4'       47.5840   20.2280   28.4520 C.3    64  A64         0.1773
   1049  O4'       47.7830   18.7930   28.3810 O.3    64  A64        -0.3307
   1050  C3'       46.0840   20.4770   28.3630 C.3    64  A64         0.1860
   1051  O3'       45.8750   21.6260   27.5390 O.3    64  A64        -0.3112
   1052  C2'       45.5580   19.2040   27.6980 C.3    64  A64         0.2309
   1053  O2'       45.6290   19.2620   26.2870 O.3    64  A64        -0.2156
   1054  C1'       46.5410   18.1470   28.2050 C.3    64  A64         0.2408
   1055  N1        46.6540   13.7650   30.8570 N.ar   64  A64        -0.2040
   1056  C2        47.0060   14.0720   29.6040 C.ar   64  A64         0.2016
   1057  N3        46.9260   15.2380   28.9690 N.ar   64  A64        -0.2048
   1058  C4        46.4040   16.1790   29.7710 C.ar   64  A64         0.1692
   1059  C5        45.9890   16.0170   31.0800 C.ar   64  A64         0.1518
   1060  C6        46.1360   14.7380   31.6400 C.ar   64  A64         0.1919
   1061  N6        45.8000   14.4360   32.8980 N.pl3  64  A64        -0.1054
   1062  N7        45.4990   17.2110   31.5910 N.ar   64  A64        -0.2193
   1063  C8        45.6370   18.0570   30.5980 C.ar   64  A64         0.1816
   1064  N9        46.1930   17.5020   29.4700 N.ar   64  A64        -0.2693
   1065  OP1       50.6090   21.3130   31.7260 O.2    64  A64        -0.5172
   1066  OP2       49.0050   19.3970   32.2910 O.co2  64  A64        -0.4373
   1067  P         44.5080   22.4570   27.6460 P.3    65  A65         0.2141
   1068  C5'       43.3760   21.3210   25.5630 C.3    65  A65         0.1812
   1069  O5'       43.4280   21.4950   26.9770 O.3    65  A65        -0.3114
   1070  C4'       42.3570   20.2600   25.2030 C.3    65  A65         0.1773
   1071  O4'       42.6850   19.0330   25.9310 O.3    65  A65        -0.3307
   1072  C3'       40.9160   20.5860   25.5980 C.3    65  A65         0.1860
   1073  O3'       40.0430   19.8720   24.7300 O.3    65  A65        -0.3112
   1074  C2'       40.8470   19.9520   26.9820 C.3    65  A65         0.2309
   1075  O2'       39.5380   19.7050   27.4420 O.3    65  A65        -0.2156
   1076  C1'       41.5630   18.6420   26.6900 C.3    65  A65         0.2408
   1077  N1        43.1540   14.0750   28.3530 N.ar   65  A65        -0.2040
   1078  C2        42.8920   14.5510   27.1270 C.ar   65  A65         0.2016
   1079  N3        42.5150   15.7740   26.7630 N.ar   65  A65        -0.2048
   1080  C4        42.4120   16.5750   27.8390 C.ar   65  A65         0.1692
   1081  C5        42.6560   16.2340   29.1570 C.ar   65  A65         0.1518
   1082  C6        43.0370   14.9080   29.4110 C.ar   65  A65         0.1919
   1083  N6        43.2760   14.4240   30.6360 N.pl3  65  A65        -0.1054
   1084  N7        42.4490   17.3260   29.9930 N.ar   65  A65        -0.2193
   1085  C8        42.0780   18.2820   29.1730 C.ar   65  A65         0.1816
   1086  N9        42.0100   17.8860   27.8580 N.ar   65  A65        -0.2693
   1087  OP1       44.6490   23.6630   26.7880 O.2    65  A65        -0.5172
   1088  OP2       44.1740   22.6170   29.0810 O.co2  65  A65        -0.4373
   1089  P         38.7640   20.5950   24.0840 P.3    66  A66         0.2141
   1090  C5'       37.3960   18.5890   25.0990 C.3    66  A66         0.1812
   1091  O5'       37.6840   19.4290   23.9720 O.3    66  A66        -0.3114
   1092  C4'       37.6790   17.1430   24.7600 C.3    66  A66         0.1773
   1093  O4'       39.0370   16.7840   25.1570 O.3    66  A66        -0.3307
   1094  C3'       36.8400   16.1270   25.5050 C.3    66  A66         0.1860
   1095  O3'       35.5260   16.0330   24.9860 O.3    66  A66        -0.3112
   1096  C2'       37.6700   14.8730   25.3130 C.3    66  A66         0.2309
   1097  O2'       37.6210   14.3480   24.0000 O.3    66  A66        -0.2156
   1098  C1'       39.0560   15.4350   25.6200 C.3    66  A66         0.2408
   1099  N1        39.8860   12.4940   29.7140 N.ar   66  A66        -0.2040
   1100  C2        39.8810   12.2370   28.4030 C.ar   66  A66         0.2016
   1101  N3        39.6970   13.0710   27.3840 N.ar   66  A66        -0.2048
   1102  C4        39.4980   14.3250   27.8270 C.ar   66  A66         0.1692
   1103  C5        39.4850   14.7470   29.1430 C.ar   66  A66         0.1518
   1104  C6        39.6870   13.7660   30.1260 C.ar   66  A66         0.1919
   1105  N6        39.6860   14.0210   31.4360 N.pl3  66  A66        -0.1054
   1106  N7        39.2500   16.1130   29.2170 N.ar   66  A66        -0.2193
   1107  C8        39.1190   16.4780   27.9620 C.ar   66  A66         0.1816
   1108  N9        39.2330   15.4390   27.0720 N.ar   66  A66        -0.2693
   1109  OP1       39.1610   21.0060   22.7090 O.2    66  A66        -0.5172
   1110  OP2       38.2330   21.6050   25.0310 O.co2  66  A66        -0.4373
   1111  P         34.2910   16.0730   25.9920 P.3    67  U67         0.2141
   1112  C5'       33.9350   13.6220   26.8650 C.3    67  U67         0.1812
   1113  O5'       34.5920   14.8730   26.9990 O.3    67  U67        -0.3114
   1114  C4'       34.8460   12.6120   26.2050 C.3    67  U67         0.1773
   1115  O4'       36.0920   12.4700   26.9460 O.3    67  U67        -0.3307
   1116  C3'       34.2810   11.2020   26.1490 C.3    67  U67         0.1860
   1117  O3'       33.4200   11.0850   25.0190 O.3    67  U67        -0.3112
   1118  C2'       35.5470   10.3700   26.0020 C.3    67  U67         0.2309
   1119  O2'       36.0740   10.4240   24.6930 O.3    67  U67        -0.2156
   1120  C1'       36.4950   11.1070   26.9520 C.3    67  U67         0.2420
   1121  N1        36.4520   10.6320   28.3430 N.ar   67  U67        -0.2534
   1122  C2        36.8670    9.3340   28.6230 C.ar   67  U67         0.3546
   1123  O2        37.2480    8.5480   27.7690 O.2    67  U67        -0.2443
   1124  N3        36.8130    8.9880   29.9500 N.ar   67  U67        -0.1530
   1125  C4        36.3840    9.7760   30.9990 C.ar   67  U67         0.2846
   1126  O4        36.3020    9.2900   32.1270 O.2    67  U67        -0.2650
   1127  C5        35.9740   11.0930   30.6250 C.ar   67  U67         0.0814
   1128  C6        36.0190   11.4630   29.3420 C.ar   67  U67         0.0870
   1129  OP1       33.0360   15.7910   25.2570 O.2    67  U67        -0.5172
   1130  OP2       34.4210   17.3420   26.7600 O.co2  67  U67        -0.4373
   1131  P         32.1050   10.1730   25.1080 P.3    68  G68         0.2141
   1132  C5'       33.2710    8.2110   23.8150 C.3    68  G68         0.1812
   1133  O5'       32.6660    8.6860   25.0120 O.3    68  G68        -0.3114
   1134  C4'       33.8370    6.8310   24.0310 C.3    68  G68         0.1773
   1135  O4'       34.8750    6.8970   25.0390 O.3    68  G68        -0.3307
   1136  C3'       32.8480    5.8060   24.5560 C.3    68  G68         0.1860
   1137  O3'       32.1870    5.1840   23.4610 O.3    68  G68        -0.3112
   1138  C2'       33.7650    4.8080   25.2520 C.3    68  G68         0.2309
   1139  O2'       34.3650    3.9190   24.3310 O.3    68  G68        -0.2156
   1140  C1'       34.8310    5.7310   25.8430 C.3    68  G68         0.2408
   1141  N1        34.7530    4.2240   30.6790 N.ar   68  G68        -0.1709
   1142  C2        35.1260    3.5320   29.5520 C.ar   68  G68         0.2606
   1143  N2        35.5220    2.2610   29.7320 N.pl3  68  G68        -0.0859
   1144  N3        35.1080    4.0470   28.3330 N.ar   68  G68        -0.1918
   1145  C4        34.6720    5.3220   28.3280 C.ar   68  G68         0.1723
   1146  C5        34.2740    6.1020   29.3920 C.ar   68  G68         0.1748
   1147  C6        34.3060    5.5430   30.6980 C.ar   68  G68         0.3023
   1148  O6        34.0020    6.0770   31.7760 O.2    68  G68        -0.2633
   1149  N7        33.8880    7.3670   28.9600 N.ar   68  G68        -0.2173
   1150  C8        34.0600    7.3330   27.6650 C.ar   68  G68         0.1817
   1151  N9        34.5350    6.1210   27.2170 N.ar   68  G68        -0.2693
   1152  OP1       31.2860   10.4370   23.9090 O.2    68  G68        -0.5172
   1153  OP2       31.5030   10.3270   26.4530 O.co2  68  G68        -0.4373
   1154  P         30.7210    4.5670   23.6630 P.3    69  U69         0.2141
   1155  C5'       31.7010    2.1790   24.1420 C.3    69  U69         0.1812
   1156  O5'       30.9550    3.3020   24.6020 O.3    69  U69        -0.3114
   1157  C4'       31.9510    1.2120   25.2820 C.3    69  U69         0.1773
   1158  O4'       32.7710    1.8650   26.2830 O.3    69  U69        -0.3307
   1159  C3'       30.7250    0.7480   26.0500 C.3    69  U69         0.1860
   1160  O3'       30.1280   -0.3640   25.3990 O.3    69  U69        -0.3112
   1161  C2'       31.3260    0.3510   27.3950 C.3    69  U69         0.2309
   1162  O2'       31.9740   -0.9050   27.3830 O.3    69  U69        -0.2156
   1163  C1'       32.3860    1.4310   27.5760 C.3    69  U69         0.2420
   1164  N1        31.9140    2.5930   28.3390 N.ar   69  U69        -0.2534
   1165  C2        31.9700    2.5110   29.7170 C.ar   69  U69         0.3546
   1166  O2        32.3310    1.5050   30.2990 O.2    69  U69        -0.2443
   1167  N3        31.5720    3.6460   30.3810 N.ar   69  U69        -0.1530
   1168  C4        31.1130    4.8220   29.8190 C.ar   69  U69         0.2846
   1169  O4        30.7950    5.7660   30.5520 O.2    69  U69        -0.2650
   1170  C5        31.0570    4.8150   28.3860 C.ar   69  U69         0.0814
   1171  C6        31.4490    3.7280   27.7130 C.ar   69  U69         0.0870
   1172  OP1       30.2400    4.0770   22.3450 O.2    69  U69        -0.5172
   1173  OP2       29.9060    5.5530   24.4200 O.co2  69  U69        -0.4373
   1174  P         28.5330   -0.5360   25.4100 P.3    70  C70         0.2141
   1175  C5'       28.7540   -2.6110   26.9990 C.3    70  C70         0.1812
   1176  O5'       28.2400   -1.2970   26.7800 O.3    70  C70        -0.3114
   1177  C4'       28.7960   -2.9240   28.4810 C.3    70  C70         0.1773
   1178  O4'       29.6500   -1.9690   29.1620 O.3    70  C70        -0.3307
   1179  C3'       27.4800   -2.8210   29.2340 C.3    70  C70         0.1860
   1180  O3'       26.7500   -4.0290   29.0930 O.3    70  C70        -0.3112
   1181  C2'       27.9720   -2.6980   30.6660 C.3    70  C70         0.2309
   1182  O2'       28.4350   -3.9560   31.1270 O.3    70  C70        -0.2156
   1183  C1'       29.1710   -1.7650   30.4810 C.3    70  C70         0.2420
   1184  N1        28.8600   -0.3360   30.6410 N.ar   70  C70        -0.2535
   1185  C2        28.9070    0.2140   31.9140 C.ar   70  C70         0.3532
   1186  O2        29.1170   -0.5340   32.8790 O.2    70  C70        -0.2443
   1187  N3        28.7120    1.5420   32.0700 N.ar   70  C70        -0.1739
   1188  C4        28.4550    2.3060   31.0100 C.ar   70  C70         0.1759
   1189  N4        28.3070    3.6140   31.2070 N.pl3  70  C70        -0.1070
   1190  C5        28.3480    1.7610   29.6980 C.ar   70  C70         0.0566
   1191  C6        28.5570    0.4460   29.5590 C.ar   70  C70         0.0850
   1192  OP1       28.2010   -1.4670   24.2980 O.2    70  C70        -0.5172
   1193  OP2       27.8940    0.7980   25.4590 O.co2  70  C70        -0.4373
   1194  P         25.1690   -3.9820   28.8800 P.3    71  C71         0.2141
   1195  C5'       24.6000   -4.7570   31.3210 C.3    71  C71         0.1812
   1196  O5'       24.5730   -3.7310   30.3370 O.3    71  C71        -0.3114
   1197  C4'       24.5990   -4.1510   32.7090 C.3    71  C71         0.1773
   1198  O4'       25.6800   -3.1850   32.8220 O.3    71  C71        -0.3307
   1199  C3'       23.3860   -3.3250   33.1020 C.3    71  C71         0.1860
   1200  O3'       22.2740   -4.1410   33.4610 O.3    71  C71        -0.3112
   1201  C2'       23.9420   -2.5860   34.3060 C.3    71  C71         0.2309
   1202  O2'       24.0890   -3.4370   35.4280 O.3    71  C71        -0.2156
   1203  C1'       25.3190   -2.1900   33.7730 C.3    71  C71         0.2420
   1204  N1        25.2880   -0.8810   33.1040 N.ar   71  C71        -0.2535
   1205  C2        25.2880    0.2760   33.9020 C.ar   71  C71         0.3532
   1206  O2        25.2950    0.1530   35.1360 O.2    71  C71        -0.2443
   1207  N3        25.2690    1.4870   33.3110 N.ar   71  C71        -0.1739
   1208  C4        25.2420    1.5790   31.9810 C.ar   71  C71         0.1759
   1209  N4        25.2250    2.7940   31.4440 N.pl3  71  C71        -0.1070
   1210  C5        25.2290    0.4210   31.1410 C.ar   71  C71         0.0566
   1211  C6        25.2550   -0.7780   31.7410 C.ar   71  C71         0.0850
   1212  OP1       24.7500   -5.3330   28.4420 O.3    71  C71        -0.4373
   1213  OP2       24.8120   -2.8020   28.0590 O.co2  71  C71        -0.5172
   1214  P         20.7820   -3.5840   33.2720 P.3    72  G72         0.2141
   1215  C5'       20.7660   -2.6480   35.7190 C.3    72  G72         0.1812
   1216  O5'       20.6700   -2.3890   34.3220 O.3    72  G72        -0.3114
   1217  C4'       20.7310   -1.3530   36.4960 C.3    72  G72         0.1773
   1218  O4'       21.9050   -0.5510   36.2000 O.3    72  G72        -0.3307
   1219  C3'       19.5780   -0.4270   36.1650 C.3    72  G72         0.1860
   1220  O3'       18.4150   -0.8650   36.8470 O.3    72  G72        -0.3112
   1221  C2'       20.0960    0.8960   36.7120 C.3    72  G72         0.2309
   1222  O2'       19.9970    0.9760   38.1180 O.3    72  G72        -0.2156
   1223  C1'       21.5680    0.8260   36.3020 C.3    72  G72         0.2408
   1224  N1        22.3150    5.2470   33.9390 N.ar   72  G72        -0.1709
   1225  C2        22.1590    4.9810   35.2810 C.ar   72  G72         0.2606
   1226  N2        22.1890    6.0370   36.1120 N.pl3  72  G72        -0.0859
   1227  N3        21.9860    3.7710   35.7770 N.ar   72  G72        -0.1918
   1228  C4        21.9800    2.8240   34.8150 C.ar   72  G72         0.1723
   1229  C5        22.1250    2.9780   33.4520 C.ar   72  G72         0.1748
   1230  C6        22.3100    4.2870   32.9280 C.ar   72  G72         0.3023
   1231  O6        22.4570    4.6330   31.7420 O.2    72  G72        -0.2633
   1232  N7        22.0510    1.7490   32.8060 N.ar   72  G72        -0.2173
   1233  C8        21.8680    0.8850   33.7720 C.ar   72  G72         0.1817
   1234  N9        21.8040    1.4740   35.0150 N.ar   72  G72        -0.2693
   1235  OP1       19.8430   -4.6440   33.7040 O.3    72  G72        -0.4373
   1236  OP2       20.6470   -2.9900   31.9150 O.co2  72  G72        -0.5172
   1237  P         16.9610   -0.4690   36.2920 P.3    73  A73         0.2141
   1238  C5'       15.5210    1.6800   36.6660 C.3    73  A73         0.1812
   1239  O5'       16.6420    0.8960   37.0430 O.3    73  A73        -0.3114
   1240  C4'       15.7180    3.1050   37.1050 C.3    73  A73         0.1773
   1241  O4'       16.6440    3.7590   36.1980 O.3    73  A73        -0.3307
   1242  C3'       14.4650    3.9580   37.0560 C.3    73  A73         0.1860
   1243  O3'       13.7460    3.8270   38.2750 O.3    73  A73        -0.3112
   1244  C2'       15.0420    5.3580   36.9030 C.3    73  A73         0.2309
   1245  O2'       15.4870    5.8850   38.1350 O.3    73  A73        -0.2156
   1246  C1'       16.2350    5.0990   35.9850 C.3    73  A73         0.2408
   1247  N1        15.6010    8.4900   32.1840 N.ar   73  A73        -0.2040
   1248  C2        15.7980    8.6370   33.4980 C.ar   73  A73         0.2016
   1249  N3        15.9320    7.7080   34.4370 N.ar   73  A73        -0.2048
   1250  C4        15.8440    6.4800   33.9030 C.ar   73  A73         0.1692
   1251  C5        15.6400    6.1670   32.5710 C.ar   73  A73         0.1518
   1252  C6        15.5210    7.2420   31.6770 C.ar   73  A73         0.1919
   1253  N6        15.3440    7.0970   30.3620 N.pl3  73  A73        -0.1054
   1254  N7        15.5960    4.7910   32.3880 N.ar   73  A73        -0.2193
   1255  C8        15.7780    4.3080   33.5980 C.ar   73  A73         0.1816
   1256  N9        15.9560    5.2770   34.5590 N.ar   73  A73        -0.2693
   1257  OP1       16.0010   -1.4870   36.7820 O.3    73  A73        -0.4373
   1258  OP2       17.0280   -0.1750   34.8420 O.co2  73  A73        -0.5172
   1259  P         12.1470    3.9810   38.2740 P.3    74  C74         0.2141
   1260  C5'       12.3590    6.5800   38.5730 C.3    74  C74         0.1812
   1261  O5'       11.9110    5.4790   37.7900 O.3    74  C74        -0.3114
   1262  C4'       12.1910    7.8650   37.8000 C.3    74  C74         0.1773
   1263  O4'       13.0990    7.8740   36.6680 O.3    74  C74        -0.3307
   1264  C3'       10.8350    8.0650   37.1480 C.3    74  C74         0.1860
   1265  O3'        9.8950    8.5490   38.0970 O.3    74  C74        -0.3112
   1266  C2'       11.1630    9.1090   36.0920 C.3    74  C74         0.2309
   1267  O2'       11.3280   10.4000   36.6480 O.3    74  C74        -0.2156
   1268  C1'       12.5180    8.6040   35.5970 C.3    74  C74         0.2420
   1269  N1        12.4370    7.7220   34.4180 N.ar   74  C74        -0.2535
   1270  C2        12.4140    8.3040   33.1440 C.ar   74  C74         0.3532
   1271  O2        12.4350    9.5400   33.0490 O.2    74  C74        -0.2443
   1272  N3        12.3680    7.5090   32.0510 N.ar   74  C74        -0.1739
   1273  C4        12.3380    6.1850   32.1920 C.ar   74  C74         0.1759
   1274  N4        12.3040    5.4380   31.0780 N.pl3  74  C74        -0.1070
   1275  C5        12.3470    5.5620   33.4780 C.ar   74  C74         0.0566
   1276  C6        12.3970    6.3630   34.5550 C.ar   74  C74         0.0850
   1277  OP1       11.6890    3.8590   39.6790 O.3    74  C74        -0.4373
   1278  OP2       11.5820    3.0780   37.2390 O.co2  74  C74        -0.5172
   1279  P          8.3360    8.2050   37.9180 P.3    75  C75         0.2141
   1280  C5'        7.9800   10.5210   36.7450 C.3    75  C75         0.1812
   1281  O5'        7.8750    9.1050   36.6890 O.3    75  C75        -0.3114
   1282  C4'        7.7880   11.1140   35.3700 C.3    75  C75         0.1773
   1283  O4'        8.8930   10.7220   34.5130 O.3    75  C75        -0.3307
   1284  C3'        6.5590   10.6530   34.6030 C.3    75  C75         0.1860
   1285  O3'        5.4040   11.3800   35.0040 O.3    75  C75        -0.3112
   1286  C2'        6.9580   10.9930   33.1750 C.3    75  C75         0.2309
   1287  O2'        6.8680   12.3760   32.8920 O.3    75  C75        -0.2156
   1288  C1'        8.4280   10.5730   33.1800 C.3    75  C75         0.2420
   1289  N1         8.6000    9.1710   32.7760 N.ar   75  C75        -0.2535
   1290  C2         8.6440    8.8770   31.4170 C.ar   75  C75         0.3532
   1291  O2         8.5250    9.8060   30.6050 O.2    75  C75        -0.2443
   1292  N3         8.8050    7.5960   31.0210 N.ar   75  C75        -0.1739
   1293  C4         8.9040    6.6240   31.9320 C.ar   75  C75         0.1759
   1294  N4         9.0440    5.3700   31.4980 N.pl3  75  C75        -0.1070
   1295  C5         8.8600    6.8960   33.3300 C.ar   75  C75         0.0566
   1296  C6         8.7110    8.1730   33.7040 C.ar   75  C75         0.0850
   1297  OP1        7.6560    8.6980   39.1440 O.3    75  C75        -0.4373
   1298  OP2        8.1950    6.7840   37.5230 O.co2  75  C75        -0.5172
   1299  P          3.9590   10.6720   34.9640 P.3    76  A76         0.2141
   1300  C5'        3.3980   11.8890   32.7170 C.3    76  A76         0.1812
   1301  O5'        3.5710   10.6680   33.4220 O.3    76  A76        -0.3114
   1302  C4'        3.0420   11.6080   31.2820 C.3    76  A76         0.1773
   1303  O4'        4.2070   11.0980   30.5850 O.3    76  A76        -0.3307
   1304  C3'        1.9970   10.5270   31.0770 C.3    76  A76         0.1860
   1305  O3'        0.6960   11.0810   31.2260 O.3    76  A76        -0.3112
   1306  C2'        2.2710   10.1130   29.6390 C.3    76  A76         0.2309
   1307  O2'        1.7430   11.0440   28.7130 O.3    76  A76        -0.2156
   1308  C1'        3.8010   10.1570   29.6030 C.3    76  A76         0.2408
   1309  N1         5.7570    5.7420   27.7850 N.ar   76  A76        -0.2040
   1310  C2         5.1960    6.7940   27.1690 C.ar   76  A76         0.2016
   1311  N3         4.7050    7.9140   27.6950 N.ar   76  A76        -0.2048
   1312  C4         4.8310    7.9030   29.0330 C.ar   76  A76         0.1692
   1313  C5         5.3860    6.8970   29.8050 C.ar   76  A76         0.1518
   1314  C6         5.8670    5.7660   29.1310 C.ar   76  A76         0.1919
   1315  N6         6.4220    4.7190   29.7500 N.pl3  76  A76        -0.1054
   1316  N7         5.3470    7.2310   31.1500 N.ar   76  A76        -0.2193
   1317  C8         4.7790    8.4100   31.1640 C.ar   76  A76         0.1816
   1318  N9         4.4400    8.8790   29.9180 N.ar   76  A76        -0.2693
   1319  OP1        3.0010   11.5540   35.6820 O.3    76  A76        -0.4373
   1320  OP2        4.1260    9.2640   35.3990 O.co2  76  A76        -0.5172
   1321  P         -0.4950   10.1740   31.8060 P.3    77  U77         0.2141
   1322  C5'       -1.4120    9.6640   29.4090 C.3    77  U77         0.1812
   1323  O5'       -0.8430    9.1790   30.6170 O.3    77  U77        -0.3114
   1324  C4'       -1.4080    8.5790   28.3600 C.3    77  U77         0.1773
   1325  O4'       -0.0370    8.2780   27.9850 O.3    77  U77        -0.3307
   1326  C3'       -1.9440    7.2250   28.7950 C.3    77  U77         0.1860
   1327  O3'       -3.3680    7.1720   28.7820 O.3    77  U77        -0.3112
   1328  C2'       -1.3500    6.3210   27.7260 C.3    77  U77         0.2309
   1329  O2'       -2.0460    6.4240   26.5030 O.3    77  U77        -0.2156
   1330  C1'        0.0530    6.9180   27.5850 C.3    77  U77         0.2420
   1331  N1         1.0260    6.2420   28.4530 N.ar   77  U77        -0.2534
   1332  C2         1.6440    5.1120   27.9590 C.ar   77  U77         0.3546
   1333  O2         1.4410    4.6880   26.8380 O.2    77  U77        -0.2443
   1334  N3         2.5110    4.4980   28.8270 N.ar   77  U77        -0.1530
   1335  C4         2.8210    4.8970   30.1070 C.ar   77  U77         0.2846
   1336  O4         3.6130    4.2290   30.7740 O.2    77  U77        -0.2650
   1337  C5         2.1570    6.0900   30.5380 C.ar   77  U77         0.0814
   1338  C6         1.3040    6.7070   29.7140 C.ar   77  U77         0.0870
   1339  OP1       -1.6590   11.0660   32.0250 O.2    77  U77        -0.5172
   1340  OP2        0.0350    9.3680   32.9340 O.co2  77  U77        -0.4373
   1341  P         -4.1300    6.0960   29.7090 P.3    78  G78         0.2141
   1342  C5'       -4.3620    4.4480   27.6720 C.3    78  G78         0.1812
   1343  O5'       -3.8760    4.6970   28.9870 O.3    78  G78        -0.3114
   1344  C4'       -3.7280    3.1980   27.1030 C.3    78  G78         0.1773
   1345  O4'       -2.2820    3.3370   27.1050 O.3    78  G78        -0.3307
   1346  C3'       -3.9520    1.9120   27.8830 C.3    78  G78         0.1860
   1347  O3'       -5.2190    1.3360   27.5910 O.3    78  G78        -0.3112
   1348  C2'       -2.8200    1.0400   27.3570 C.3    78  G78         0.2309
   1349  O2'       -3.0860    0.5030   26.0760 O.3    78  G78        -0.2156
   1350  C1'       -1.6820    2.0580   27.2690 C.3    78  G78         0.2408
   1351  N1         1.9270   -0.3130   29.9440 N.ar   78  G78        -0.1709
   1352  C2         1.3390   -0.6800   28.7600 C.ar   78  G78         0.2606
   1353  N2         1.7720   -1.8260   28.2140 N.pl3  78  G78        -0.0859
   1354  N3         0.3950    0.0250   28.1550 N.ar   78  G78        -0.1918
   1355  C4         0.0780    1.1420   28.8430 C.ar   78  G78         0.1723
   1356  C5         0.6020    1.5960   30.0350 C.ar   78  G78         0.1748
   1357  C6         1.6200    0.8340   30.6690 C.ar   78  G78         0.3023
   1358  O6         2.2200    1.0760   31.7240 O.2    78  G78        -0.2633
   1359  N7         0.0030    2.7900   30.4140 N.ar   78  G78        -0.2173
   1360  C8        -0.8540    3.0380   29.4610 C.ar   78  G78         0.1817
   1361  N9        -0.8570    2.0820   28.4750 N.ar   78  G78        -0.2693
   1362  OP1       -5.5900    6.3940   29.6730 O.2    78  G78        -0.5172
   1363  OP2       -3.4250    6.0580   31.0150 O.co2  78  G78        -0.4373
   1364  P         -5.9260    0.3750   28.6730 P.3    79  U79         0.2141
   1365  C5'       -5.0400   -1.7280   27.3730 C.3    79  U79         0.1812
   1366  O5'       -5.1010   -0.9860   28.5880 O.3    79  U79        -0.3114
   1367  C4'       -4.1310   -2.9240   27.5340 C.3    79  U79         0.1773
   1368  O4'       -2.7780   -2.4740   27.7890 O.3    79  U79        -0.3307
   1369  C3'       -4.4360   -3.8310   28.7140 C.3    79  U79         0.1860
   1370  O3'       -5.4650   -4.7520   28.3730 O.3    79  U79        -0.3112
   1371  C2'       -3.1040   -4.5430   28.9260 C.3    79  U79         0.2309
   1372  O2'       -2.9190   -5.6550   28.0700 O.3    79  U79        -0.2156
   1373  C1'       -2.1000   -3.4440   28.5680 C.3    79  U79         0.2420
   1374  N1        -1.5210   -2.7750   29.7400 N.ar   79  U79        -0.2534
   1375  C2        -0.4210   -3.3650   30.3330 C.ar   79  U79         0.3546
   1376  O2         0.0630   -4.4120   29.9350 O.2    79  U79        -0.2443
   1377  N3         0.0910   -2.6830   31.4090 N.ar   79  U79        -0.1530
   1378  C4        -0.3750   -1.4990   31.9390 C.ar   79  U79         0.2846
   1379  O4         0.2380   -0.9710   32.8660 O.2    79  U79        -0.2650
   1380  C5        -1.5250   -0.9610   31.2780 C.ar   79  U79         0.0814
   1381  C6        -2.0460   -1.6020   30.2280 C.ar   79  U79         0.0870
   1382  OP1       -7.3130    0.1120   28.2040 O.2    79  U79        -0.5172
   1383  OP2       -5.7070    0.9650   30.0190 O.co2  79  U79        -0.4373
   1384  P         -6.2000   -5.5920   29.5290 P.3    80  C80         0.2141
   1385  C5'       -5.2280   -7.2850   31.2860 C.3    80  C80         0.1812
   1386  O5'       -5.0680   -6.5810   30.0590 O.3    80  C80        -0.3114
   1387  C4'       -4.0590   -8.2150   31.5130 C.3    80  C80         0.1773
   1388  O4'       -2.8290   -7.5520   31.1030 O.3    80  C80        -0.3307
   1389  C3'       -3.8370   -8.6140   32.9660 C.3    80  C80         0.1860
   1390  O3'       -4.5460   -9.8070   33.2760 O.3    80  C80        -0.3112
   1391  C2'       -2.3300   -8.8180   33.0240 C.3    80  C80         0.2309
   1392  O2'       -1.9180  -10.0660   32.5030 O.3    80  C80        -0.2156
   1393  C1'       -1.8490   -7.6860   32.1190 C.3    80  C80         0.2420
   1394  N1        -1.7340   -6.3950   32.8180 N.ar   80  C80        -0.2535
   1395  C2        -0.7360   -6.2340   33.7870 C.ar   80  C80         0.3532
   1396  O2         0.0310   -7.1810   34.0250 O.2    80  C80        -0.2443
   1397  N3        -0.6310   -5.0510   34.4360 N.ar   80  C80        -0.1739
   1398  C4        -1.4730   -4.0550   34.1490 C.ar   80  C80         0.1759
   1399  N4        -1.3370   -2.9070   34.8160 N.pl3  80  C80        -0.1070
   1400  C5        -2.4940   -4.1920   33.1660 C.ar   80  C80         0.0566
   1401  C6        -2.5880   -5.3670   32.5310 C.ar   80  C80         0.0850
   1402  OP1       -7.2680   -6.4010   28.8850 O.2    80  C80        -0.5172
   1403  OP2       -6.5510   -4.6500   30.6270 O.co2  80  C80        -0.4373
   1404  P         -5.5320   -9.8350   34.5430 P.3    81  C81         0.2141
   1405  C5'       -3.4480  -10.0210   36.1320 C.3    81  C81         0.1813
   1406  O5'       -4.6240   -9.3140   35.7460 O.3    81  C81        -0.3114
   1407  C4'       -2.9660   -9.5420   37.4820 C.3    81  C81         0.1801
   1408  O4'       -2.2520   -8.2860   37.3390 O.3    81  C81        -0.3306
   1409  C3'       -4.0480   -9.1970   38.4910 C.3    81  C81         0.2161
   1410  O3'       -4.7140  -10.3320   39.0600 O.3    81  C81        -0.2175
   1411  C2'       -3.2780   -8.3410   39.4900 C.3    81  C81         0.2338
   1412  O2'       -2.5190   -9.1110   40.4020 O.3    81  C81        -0.2155
   1413  C1'       -2.3370   -7.5620   38.5600 C.3    81  C81         0.2421
   1414  N1        -2.8070   -6.1970   38.2640 N.ar   81  C81        -0.2535
   1415  C2        -2.8550   -5.2580   39.3050 C.ar   81  C81         0.3532
   1416  O2        -2.4920   -5.6020   40.4430 O.2    81  C81        -0.2443
   1417  N3        -3.2960   -4.0050   39.0460 N.ar   81  C81        -0.1739
   1418  C4        -3.6800   -3.6740   37.8120 C.ar   81  C81         0.1759
   1419  N4        -4.1180   -2.4290   37.6060 N.pl3  81  C81        -0.1070
   1420  C5        -3.6360   -4.6070   36.7330 C.ar   81  C81         0.0566
   1421  C6        -3.1960   -5.8440   37.0010 C.ar   81  C81         0.0850
   1422  OP1       -5.8970  -11.2490   34.8170 O.3    81  C81        -0.4373
   1423  OP2       -6.6020   -8.8340   34.2990 O.co2  81  C81        -0.5172
@<TRIPOS>BOND
     1   721   720    2
     2   687   666    2
     3   707   689    2
     4   722   720   ar
     5   722   723   ar
     6   724   723    2
     7   720   719   ar
     8   723   725   ar
     9   667   669    1
    10   667   668    1
    11   296   278    2
    12   243   242    1
    13   652   651    1
    14   263   262    1
    15   650   666    1
    16   650   649    1
    17   261   278    1
    18   261   260    1
    19   256   258    1
    20   256   257    1
    21   258   259    1
    22   258   260    1
    23   689   708    1
    24   689   672    1
    25   689   691    1
    26   666   668    1
    27   666   688    1
    28   719   718    1
    29   719   726   ar
    30   672   671    1
    31   713   718    1
    32   713   712    1
    33   669   671    1
    34   669   670    1
    35   718   716    1
    36   725   726   ar
    37   276   255    2
    38   278   280    1
    39   278   297    1
    40   259   264    1
    41   260   262    1
    42   728   709    2
    43   262   264    1
    44   241   255    1
    45   241   240    1
    46   651   649    1
    47   651   653    1
    48   649   647    1
    49   242   244    1
    50   242   240    1
    51   647   648    1
    52   647   645    1
    53   671   673    1
    54   691   690    1
    55   280   279    1
    56   257   255    1
    57   264   275    1
    58   711   709    1
    59   711   710    1
    60   169   151    2
    61   712   710    1
    62   712   714    1
    63   646   645    1
    64   646   644    1
    65   664   644    2
    66   690   692    1
    67   670   675    1
    68   150   128    2
    69   255   277    1
    70   630   629    1
    71   648   653    1
    72   149   128    1
    73   238   240    1
    74   238   239    1
    75   238   236    1
    76   244   239    1
    77   244   245    1
    78   247   246    2
    79   715   714    1
    80   715   729    1
    81   674   673    1
    82   653   663    1
    83   716   717    1
    84   716   714    1
    85   709   727    1
    86   709   695    1
    87   748   729    2
    88   170   151    1
    89   644   628    1
    90   644   665    1
    91   628   627    1
    92   747   729    1
    93   673   675    1
    94   128   130    1
    95   128   114    1
    96   694   692    1
    97   694   695    1
    98   694   696    1
    99   729   731    1
   100   151   134    1
   101   151   153    1
   102   279   281    1
   103   692   693    1
   104   675   686    1
   105   236   237    1
   106   281   282    1
   107   281   283    1
   108   275   274   ar
   109   275   269   ar
   110   129   130    1
   111   129   131    1
   112   629   627    1
   113   629   631    1
   114   246   245   ar
   115   246   248   ar
   116   245   252   ar
   117   282   287    1
   118   188   189   ar
   119   188   185   ar
   120   189   190   ar
   121   286   285    1
   122   268   269   ar
   123   268   266   ar
   124   134   133    1
   125   696   697    1
   126   696   698    1
   127   627   625    1
   128   663   657   ar
   129   663   662   ar
   130   114   113    1
   131   656   657   ar
   132   656   655   ar
   133   274   273   ar
   134   284   283    1
   135   284   298    1
   136   152   153    1
   137   152   154    1
   138   269   270   ar
   139   116   115    1
   140   625   626    1
   141   625   623    1
   142   685   686   ar
   143   685   684   ar
   144   686   680   ar
   145   693   698    1
   146   631   626    1
   147   631   641    1
   148   283   285    1
   149   319   298    2
   150   131   133    1
   151   131   132    1
   152   237   235    1
   153   657   658   ar
   154   731   730    1
   155   287   285    1
   156   287   288    1
   157   223   222    1
   158   267   266    1
   159   248   249   ar
   160   111   109    1
   161   111   113    1
   162   111   112    1
   163   126   108    2
   164   109   110    1
   165   634   633   ar
   166   634   635   ar
   167   252   251   ar
   168   266   265   ar
   169   133   135    1
   170   187   186    1
   171   662   661   ar
   172   655   654   ar
   173   113   115    1
   174   185   186   ar
   175   185   184   ar
   176   698   699    1
   177   190   180    1
   178   190   184   ar
   179   706   705   ar
   180   706   699   ar
   181   623   624    1
   182   298   300    1
   183   298   320    1
   184   633   632   ar
   185   299   300    1
   186   299   301    1
   187   253   235    2
   188   115   117    1
   189   273   270   ar
   190   730   732    1
   191   270   271   ar
   192   180   175    1
   193   180   178    1
   194   684   681   ar
   195   110   108    1
   196   154   155    1
   197   154   156    1
   198   227   226    2
   199   186   181   ar
   200   641   635   ar
   201   641   640   ar
   202   680   679   ar
   203   680   681   ar
   204   705   703   ar
   205   699   700   ar
   206   635   636   ar
   207   235   221    1
   208   235   254    1
   209   132   137    1
   210   222   224    1
   211   222   220    1
   212   112   117    1
   213   184   183   ar
   214   249   251   ar
   215   249   250    1
   216   288   295   ar
   217   288   289   ar
   218   175   174    1
   219   108    92    1
   220   108   127    1
   221   658   661   ar
   222   658   659   ar
   223   136   135    1
   224  1172  1154    2
   225   221   220    1
   226   295   294   ar
   227   155   160    1
   228   167   168   ar
   229   167   165   ar
   230   168   161   ar
   231   265   271   ar
   232   301   302    1
   233   301   303    1
   234   135   137    1
   235   179   178    1
   236   679   677   ar
   237   191   171    2
   238   117   118    1
   239   654   659   ar
   240  1109  1089    2
   241   681   682   ar
   242    92    91    1
   243   624   622    1
   244   632   637   ar
   245    94    93    1
   246   745   746   ar
   247   745   743   ar
   248   271   272    2
   249   178   176    1
   250   156   158    1
   251   156   157    1
   252   302   307    1
   253   610   609    1
   254   614   613    2
   255   746   739   ar
   256   224   225    1
   257   224   219    1
   258   220   218    1
   259   226   225   ar
   260   226   228   ar
   261   290   289    2
   262   137   148    1
   263   659   660    1
   264   732   733    1
   265   732   734    1
   266   640   639   ar
   267   181   182   ar
   268   289   291   ar
   269   636   637   ar
   270   636   639   ar
   271  1137  1154    1
   272  1137  1136    1
   273   174   176    1
   274   174   172    1
   275   700   701    2
   276   700   702   ar
   277   173   171    1
   278   173   172    1
   279   703   702   ar
   280   703   704    2
   281   158   160    1
   282   158   159    1
   283   294   292   ar
   284   183   182   ar
   285   733   738    1
   286   161   160    1
   287   161   162   ar
   288   339   321    2
   289   165   166    2
   290   165   164   ar
   291   642   622    2
   292   304   303    1
   293   304   321    1
   294   734   736    1
   295   734   735    1
   296  1154  1173    1
   297  1154  1156    1
   298   218   219    1
   299   218   216    1
   300   171   157    1
   301   171   192    1
   302   637   638    1
   303  1132  1134    1
   304  1132  1133    1
   305   303   305    1
   306   225   232   ar
   307   609   611    1
   308   609   607    1
   309   677   678    1
   310   677   676   ar
   311   736   738    1
   312   736   737    1
   313   228   229   ar
   314  1152  1131    2
   315   744   743    2
   316  1091  1089    1
   317  1091  1090    1
   318    93    91    1
   319    93    95    1
   320   743   742   ar
   321  1097  1096    1
   322   118   125   ar
   323   118   119   ar
   324   622   608    1
   325   622   643    1
   326    91    89    1
   327  1134  1136    1
   328  1134  1135    1
   329  1089  1073    1
   330  1089  1110    1
   331   176   177    1
   332   682   676   ar
   333   682   683    2
   334  1155  1156    1
   335  1155  1157    1
   336   613   615   ar
   337   613   612   ar
   338   340   321    1
   339   739   738    1
   340   739   740   ar
   341   321   323    1
   342   767   749    2
   343   147   148   ar
   344   147   146   ar
   345  1192  1174    2
   346   148   142   ar
   347   307   305    1
   348   307   318    1
   349  1139  1138    1
   350   608   607    1
   351   125   124   ar
   352   306   305    1
   353   291   292   ar
   354   615   616   ar
   355   120   119    2
   356  1136  1138    1
   357    89    87    1
   358    89    90    1
   359   292   293    1
   360   164   162   ar
   361   317   318   ar
   362   317   316   ar
   363  1119  1118    1
   364   611   612    1
   365   611   606    1
   366   162   163    2
   367  1073  1072    1
   368  1092  1090    1
   369  1092  1093    1
   370  1092  1094    1
   371   735   749    1
   372   119   121   ar
   373   607   605    1
   374   177   193    1
   375  1095  1094    1
   376  1095  1111    1
   377  1133  1131    1
   378  1117  1131    1
   379  1117  1116    1
   380  1135  1140    1
   381   318   312   ar
   382   612   619   ar
   383  1131  1153    1
   384   216   217    1
   385   768   749    1
   386   749   751    1
   387   742   740   ar
   388  1093  1098    1
   389   232   231   ar
   390  1070  1068    1
   391  1070  1072    1
   392  1070  1071    1
   393    87    88    1
   394   229   230    2
   395   229   231   ar
   396  1138  1140    1
   397  1129  1111    2
   398    95    90    1
   399    95   105    1
   400  1157  1159    1
   401  1157  1158    1
   402  1096  1094    1
   403  1096  1098    1
   404   106    86    2
   405   740   741    2
   406  1160  1174    1
   407  1160  1159    1
   408   591   590    1
   409  1174  1193    1
   410  1174  1176    1
   411   146   143   ar
   412  1068  1069    1
   413   316   313   ar
   414  1072  1074    1
   415  1098  1108    1
   416   124   122   ar
   417   142   141   ar
   418   142   143   ar
   419  1023  1002    2
   420    88    86    1
   421   616   617    1
   422   616   618   ar
   423   323   322    1
   424   605   606    1
   425   605   603    1
   426  1140  1151    1
   427  1071  1076    1
   428   217   215    1
   429  1111  1130    1
   430  1111  1113    1
   431  1118  1116    1
   432  1118  1120    1
   433  1159  1161    1
   434  1349  1348    1
   435   121   122   ar
   436   141   139   ar
   437   322   324    1
   438  1116  1114    1
   439  1114  1112    1
   440  1114  1115    1
   441  1000   982    2
   442   805   804    1
   443  1158  1163    1
   444  1053  1052    1
   445    98    99   ar
   446    98    97   ar
   447   143   144   ar
   448   619   618   ar
   449    86   107    1
   450    86    72    1
   451   312   313   ar
   452   312   311   ar
   453   105    99   ar
   454   105   104   ar
   455   194   195    1
   456   194   196    1
   457   983   985    1
   458   983   984    1
   459  1329  1328    1
   460   122   123    2
   461   193   195    1
   462   193   214    2
   463   193   213    1
   464   590   589   ar
   465   590   592   ar
   466   751   750    1
   467   313   314   ar
   468  1076  1074    1
   469  1076  1086    1
   470  1079  1078   ar
   471  1079  1080   ar
   472  1176  1175    1
   473   970   969    1
   474  1087  1067    2
   475   589   595   ar
   476  1333  1332    2
   477  1112  1113    1
   478    99   100   ar
   479   968   982    1
   480   968   967    1
   481  1002   988    1
   482  1002  1024    1
   483  1002  1004    1
   484   750   752    1
   485  1115  1120    1
   486   988   987    1
   487  1120  1121    1
   488   784   783    2
   489   985   987    1
   490   985   986    1
   491  1069  1067    1
   492  1074  1075    1
   493  1175  1177    1
   494    97    96   ar
   495  1108  1102   ar
   496  1108  1107   ar
   497  1344  1345    1
   498  1344  1342    1
   499  1344  1346    1
   500  1345  1350    1
   501   799   804   ar
   502   799   800   ar
   503  1078  1077   ar
   504  1310  1311   ar
   505  1310  1309   ar
   506   311   309   ar
   507  1151  1150   ar
   508  1151  1145   ar
   509   603   604    1
   510  1350  1348    1
   511  1350  1361    1
   512   104   103   ar
   513   804   803   ar
   514  1348  1346    1
   515   982   984    1
   516   982  1001    1
   517  1365  1367    1
   518  1365  1366    1
   519  1162  1161    1
   520  1101  1102   ar
   521  1101  1100   ar
   522   823   822    2
   523    72    71    1
   524  1161  1163    1
   525   139   140    1
   526   139   138   ar
   527   965   963    1
   528   965   967    1
   529   965   966    1
   530   824   822   ar
   531   824   825   ar
   532   215   199    1
   533   215   233    2
   534   215   234    1
   535  1367  1368    1
   536  1367  1369    1
   537  1051  1067    1
   538  1051  1050    1
   539   337   338   ar
   540   337   335   ar
   541  1163  1164    1
   542   592   593   ar
   543  1330  1328    1
   544  1330  1325    1
   545  1330  1331    1
   546  1347  1346    1
   547  1347  1364    1
   548   196   198    1
   549   196   197    1
   550   324   325    1
   551   324   326    1
   552   826   825    1
   553  1067  1088    1
   554  1150  1149   ar
   555  1342  1343    1
   556  1311  1312   ar
   557  1052  1054    1
   558  1052  1050    1
   559  1171  1164   ar
   560  1171  1170   ar
   561   338   331   ar
   562  1328  1326    1
   563   963   964    1
   564   144   138   ar
   565   144   145    2
   566  1123  1122    2
   567  1309  1314   ar
   568  1368  1373    1
   569   987   989    1
   570   325   330    1
   571  1102  1103   ar
   572   990   989    1
   573    74    73    1
   574  1080  1086   ar
   575  1080  1081   ar
   576  1086  1085   ar
   577   986   991    1
   578   199   198    1
   579   765   766   ar
   580   765   763   ar
   581   604   602    1
   582   967   969    1
   583  1332  1331   ar
   584  1332  1334   ar
   585  1107  1106   ar
   586  1325  1324    1
   587   595   596    2
   588   595   594   ar
   589   100   103   ar
   590   100   101   ar
   591   822   821   ar
   592   314   315    2
   593   314   308   ar
   594   969   971    1
   595  1213  1194    2
   596  1372  1371    1
   597   783   785   ar
   598   783   782   ar
   599  1004  1003    1
   600    96   101   ar
   601  1354  1352   ar
   602  1354  1355   ar
   603   825   827   ar
   604   800   801   ar
   605   766   759   ar
   606   363   341    2
   607   788   769    2
   608   966   971    1
   609  1382  1364    2
   610  1054  1049    1
   611  1054  1064    1
   612  1353  1352    1
   613  1003  1005    1
   614   785   786   ar
   615  1145  1144   ar
   616  1145  1146   ar
   617   948   947    1
   618  1144  1142   ar
   619  1164  1165   ar
   620  1121  1122   ar
   621  1121  1128   ar
   622  1077  1082   ar
   623  1324  1326    1
   624  1324  1322    1
   625  1050  1048    1
   626  1370  1369    1
   627  1370  1384    1
   628  1049  1048    1
   629  1170  1168   ar
   630   752   753    1
   631   752   754    1
   632  1100  1099   ar
   633   309   308   ar
   634   309   310    1
   635  1212  1194    1
   636  1048  1046    1
   637  1331  1338   ar
   638   198   200    1
   639  1361  1355   ar
   640  1361  1360   ar
   641  1177  1178    1
   642  1177  1179    1
   643   326   327    1
   644   326   328    1
   645    73    71    1
   646    73    75    1
   647   197   202    1
   648  1373  1371    1
   649  1373  1374    1
   650    71    69    1
   651  1366  1364    1
   652   989   991    1
   653   803   806   ar
   654   803   802   ar
   655   753   758    1
   656  1122  1124   ar
   657   971   972    1
   658   101   102    1
   659  1364  1383    1
   660   335   336    2
   661   335   334   ar
   662  1307  1306    1
   663  1369  1371    1
   664   593   594   ar
   665   593   599   ar
   666   764   763    1
   667  1352  1351   ar
   668  1327  1326    1
   669  1327  1341    1
   670   327   341    1
   671   980   962    2
   672  1334  1335   ar
   673  1355  1356   ar
   674   991   992    1
   675  1194  1180    1
   676  1194  1196    1
   677  1402  1384    2
   678   331   330    1
   679   331   332   ar
   680   587   586    1
   681  1149  1146   ar
   682  1057  1056   ar
   683  1057  1058   ar
   684  1043  1025    2
   685   763   762   ar
   686  1343  1341    1
   687   594   597   ar
   688  1312  1313   ar
   689  1312  1318   ar
   690   964   962    1
   691   362   341    1
   692   341   343    1
   693   330   328    1
   694  1180  1179    1
   695  1314  1315    1
   696  1314  1313   ar
   697   806   807   ar
   698  1103  1106   ar
   699  1103  1104   ar
   700  1081  1082   ar
   701  1081  1084   ar
   702  1178  1183    1
   703  1085  1084   ar
   704   782   780   ar
   705  1179  1181    1
   706   821   820    1
   707   821   828   ar
   708   819   818    1
   709   754   755    1
   710   754   756    1
   711  1128  1127   ar
   712   586   588    1
   713   586   584    1
   714   602   620    2
   715   602   621    1
   716   602   585    1
   717  1146  1147   ar
   718  1322  1323    1
   719  1082  1083    1
   720   801   802   ar
   721  1360  1359   ar
   722   827   828   ar
   723  1064  1058   ar
   724  1064  1063   ar
   725   759   758    1
   726   759   760   ar
   727  1384  1386    1
   728  1384  1403    1
   729    78    77    2
   730  1142  1143    1
   731  1142  1141   ar
   732   818   820    1
   733   818   816    1
   734  1191  1190   ar
   735  1191  1184   ar
   736  1027  1026    1
   737  1027  1025    1
   738   786   779   ar
   739  1005  1007    1
   740  1005  1006    1
   741   769   755    1
   742   769   787    1
   743   769   771    1
   744   802   808   ar
   745  1308  1306    1
   746  1308  1318    1
   747  1308  1303    1
   748  1056  1055   ar
   749   952   951   ar
   750   952   953   ar
   751   947   949    1
   752   947   945    1
   753   951   950   ar
   754  1306  1304    1
   755  1362  1341    2
   756   201   200    1
   757  1046  1047    1
   758  1190  1188   ar
   759  1341  1363    1
   760  1338  1337   ar
   761  1099  1104   ar
   762  1165  1166    2
   763  1165  1167   ar
   764   946   962    1
   765   946   945    1
   766   962   981    1
   767    69    67    1
   768    69    70    1
   769  1374  1381   ar
   770  1374  1375   ar
   771   328   329    1
   772   200   202    1
   773  1058  1059   ar
   774  1007  1009    1
   775  1007  1008    1
   776   820   815    1
   777  1313  1316   ar
   778   758   756    1
   779  1168  1167   ar
   780  1168  1169    2
   781   334   332   ar
   782   202   212    1
   783  1026  1028    1
   784   599   588    1
   785   599   598   ar
   786  1318  1317   ar
   787  1376  1375    2
   788  1047  1045    1
   789  1351  1357   ar
   790  1124  1125   ar
   791    75    76    1
   792    75    70    1
   793   332   333    2
   794  1356  1359   ar
   795  1356  1357   ar
   796  1386  1385    1
   797   588   583    1
   798   974   973    2
   799  1335  1337   ar
   800  1335  1336    2
   801   972   973   ar
   802   972   979   ar
   803  1104  1105    1
   804  1025  1008    1
   805  1025  1044    1
   806   992   999   ar
   807   992   993   ar
   808  1381  1380   ar
   809   762   760   ar
   810   585   584    1
   811   999   998   ar
   812    77    76   ar
   813    77    79   ar
   814  1375  1377   ar
   815  1196  1195    1
   816   597   598   ar
   817   211   212   ar
   818   211   210   ar
   819  1253  1252    1
   820   949   944    1
   821   949   959    1
   822   807   808   ar
   823    67    68    1
   824  1009  1010    1
   825  1009  1011    1
   826  1183  1184    1
   827  1183  1181    1
   828   945   943    1
   829   771   770    1
   830   756   757    1
   831   584   582    1
   832   780   779   ar
   833   780   781    2
   834   760   761    2
   835   343   342    1
   836  1303  1302    1
   837  1063  1062   ar
   838  1291  1290    2
   839   359   360   ar
   840   359   356   ar
   841  1323  1321    1
   842    76    83   ar
   843  1127  1125   ar
   844  1006  1011    1
   845  1184  1185   ar
   846  1181  1182    1
   847  1357  1358    2
   848   779   778    1
   849   950   955   ar
   850  1141  1147   ar
   851  1028  1029    1
   852  1028  1030    1
   853  1147  1148    2
   854   212   206   ar
   855   973   975   ar
   856   808   798    1
   857   979   978   ar
   858  1055  1060   ar
   859   381   380    2
   860  1021  1020   ar
   861  1021  1022   ar
   862   358   357    2
   863   953   959   ar
   864   953   954   ar
   865    79    80   ar
   866   816   817    1
   867   816   814    1
   868   574   573    1
   869   846   845    1
   870  1125  1126    2
   871   553   552    1
   872  1188  1189    1
   873  1188  1187   ar
   874  1292  1290   ar
   875  1292  1293   ar
   876   943   944    1
   877   943   941    1
   878   850   831    2
   879  1304  1305    1
   880  1304  1302    1
   881  1274  1273    1
   882  1059  1062   ar
   883  1059  1060   ar
   884   817   831    1
   885   360   361   ar
   886  1388  1387    1
   887  1388  1393    1
   888  1210  1211   ar
   889  1210  1208   ar
   890  1316  1317   ar
   891   815   814    1
   892   994   993    2
   893   445   444    1
   894  1305  1321    1
   895   532   531    1
   896   959   958   ar
   897  1380  1378   ar
   898  1302  1300    1
   899  1385  1387    1
   900  1031  1045    1
   901  1031  1030    1
   902   993   995   ar
   903  1195  1197    1
   904  1011  1022    1
   905   210   207   ar
   906  1377  1378   ar
   907  1290  1289   ar
   908  1045  1065    2
   909  1045  1066    1
   910   810   789    2
   911  1020  1017   ar
   912  1209  1208    1
   913   572   573   ar
   914   572   570   ar
   915   583   582    1
   916    83    82   ar
   917  1294  1293    1
   918   998   996   ar
   919  1387  1389    1
   920   506   505    1
   921  1029  1034    1
   922   847   845   ar
   923   847   848   ar
   924  1030  1032    1
   925   403   402    1
   926  1060  1061    1
   927   342   344    1
   928  1022  1016   ar
   929   582   580    1
   930  1252  1247   ar
   931  1252  1251   ar
   932   356   357   ar
   933   356   355   ar
   934    80    82   ar
   935    80    81    1
   936  1211  1204   ar
   937  1231  1230    2
   938   357   351   ar
   939  1321  1339    2
   940  1321  1340    1
   941   573   575   ar
   942    68    66    1
   943    84    66    2
   944   845   844   ar
   945   814   812    1
   946  1185  1187   ar
   947  1185  1186    2
   948  1236  1214    2
   949   955   954   ar
   950   955   956    1
   951   770   772    1
   952  1293  1295   ar
   953  1378  1379    2
   954   831   849    1
   955   831   833    1
   956  1208  1207   ar
   957   773   778    1
   958   773   772    1
   959   571   570    2
   960   778   776    1
   961   954   957   ar
   962  1272  1273   ar
   963  1272  1270   ar
   964   547   552   ar
   965   547   548   ar
   966   380   374   ar
   967   380   379   ar
   968   932   931    2
   969   206   207   ar
   970   206   205   ar
   971   798   796    1
   972   798   793    1
   973   975   976   ar
   974  1393  1394    1
   975  1393  1391    1
   976   552   551   ar
   977   424   423    2
   978   439   444   ar
   979   439   440   ar
   980  1247  1248   ar
   981   978   976   ar
   982  1273  1275   ar
   983   444   443   ar
   984   570   569   ar
   985   941   942    1
   986   774   772    1
   987   774   776    1
   988   774   775    1
   989  1254  1251   ar
   990  1254  1255   ar
   991   361   355   ar
   992   361   350    1
   993   796   794    1
   994   796   797    1
   995   207   208   ar
   996   848   841   ar
   997  1392  1391    1
   998   995   996   ar
   999  1401  1394   ar
  1000  1401  1400   ar
  1001   345   344    1
  1002   345   350    1
  1003   531   533   ar
  1004   531   530   ar
  1005  1251  1250   ar
  1006   996   997    1
  1007   958   957   ar
  1008  1017  1016   ar
  1009  1017  1018   ar
  1010    66    85    1
  1011    66    50    1
  1012   776   777    1
  1013  1197  1198    1
  1014  1197  1199    1
  1015   382   379   ar
  1016   382   383   ar
  1017  1300  1301    1
  1018   505   507   ar
  1019   505   504   ar
  1020   422   423   ar
  1021   422   420   ar
  1022   374   375   ar
  1023  1289  1288    1
  1024  1289  1296   ar
  1025  1232  1229   ar
  1026  1232  1233   ar
  1027  1394  1395   ar
  1028   355   354   ar
  1029   976   977    1
  1030  1198  1203    1
  1031    55    54   ar
  1032    55    56   ar
  1033  1016  1015   ar
  1034   533   534   ar
  1035   909   908    1
  1036   789   791    1
  1037   789   775    1
  1038   789   809    1
  1039   502   501    1
  1040   402   397   ar
  1041   402   401   ar
  1042   344   346    1
  1043  1287  1286    1
  1044   205   204   ar
  1045  1034  1032    1
  1046  1034  1035    1
  1047  1230  1229   ar
  1048  1230  1224   ar
  1049   813   812    1
  1050   813   811    1
  1051   791   790    1
  1052   379   378   ar
  1053  1389  1391    1
  1054  1389  1390    1
  1055   914   913    2
  1056  1032  1033    1
  1057   833   832    1
  1058   907   908   ar
  1059   907   913   ar
  1060  1271  1270    2
  1061   580   581    1
  1062   351   352   ar
  1063   793   792    1
  1064   423   425   ar
  1065    54    59   ar
  1066   844   842   ar
  1067  1199  1200    1
  1068  1199  1201    1
  1069  1204  1203    1
  1070  1204  1205   ar
  1071   507   508   ar
  1072  1042  1035   ar
  1073  1042  1041   ar
  1074   931   933   ar
  1075   931   930   ar
  1076   397   398   ar
  1077  1270  1269   ar
  1078   933   934   ar
  1079   868   867    2
  1080   575   576   ar
  1081  1400  1398   ar
  1082   386   364    2
  1083  1286  1288    1
  1084  1286  1284    1
  1085  1288  1283    1
  1086    52    51    1
  1087   548   549   ar
  1088   440   441   ar
  1089   794   792    1
  1090   794   795    1
  1091   928   927    1
  1092   421   420    2
  1093   581   579    1
  1094  1214  1200    1
  1095  1214  1235    1
  1096  1214  1216    1
  1097  1390  1404    1
  1098  1207  1205   ar
  1099    56    57   ar
  1100   350   348    1
  1101  1295  1296   ar
  1102   551   554   ar
  1103   551   550   ar
  1104   942   940    1
  1105  1301  1299    1
  1106   346   347    1
  1107   346   348    1
  1108   443   446   ar
  1109   443   442   ar
  1110  1229  1228   ar
  1111   830   811    2
  1112  1275  1276   ar
  1113   483   482    1
  1114   530   528   ar
  1115  1248  1249   ar
  1116   504   510   ar
  1117  1255  1256   ar
  1118   420   419   ar
  1119  1035  1036   ar
  1120   569   576   ar
  1121   569   568    1
  1122   908   910   ar
  1123   913   912   ar
  1124    51    49    1
  1125    51    53    1
  1126   841   842   ar
  1127   841   840    1
  1128   891   890    2
  1129  1233  1234   ar
  1130  1203  1201    1
  1131  1018  1019    2
  1132  1018  1012   ar
  1133  1395  1396    2
  1134  1395  1397   ar
  1135   554   555   ar
  1136  1041  1039   ar
  1137   446   447   ar
  1138   927   929    1
  1139   927   925    1
  1140    50    49    1
  1141   208   209    1
  1142   208   203   ar
  1143   536   517    2
  1144   383   384   ar
  1145  1205  1206    2
  1146  1250  1249   ar
  1147  1250  1256   ar
  1148    59    60    1
  1149    59    58   ar
  1150  1015  1013   ar
  1151   792   790    1
  1152  1224  1225   ar
  1153   401   404   ar
  1154   401   400   ar
  1155   501   503    1
  1156   501   499    1
  1157   404   405   ar
  1158   811   795    1
  1159   811   829    1
  1160   842   843    2
  1161   354   352   ar
  1162   375   376    1
  1163   375   377   ar
  1164   352   353    1
  1165   534   527   ar
  1166    57    58   ar
  1167    57    63   ar
  1168  1398  1397   ar
  1169  1398  1399    1
  1170   347   364    1
  1171   204   203   ar
  1172   835   840    1
  1173   835   834    1
  1174   935   934    1
  1175   348   349    1
  1176   378   384   ar
  1177   378   377   ar
  1178  1423  1404    2
  1179   929   930    1
  1180   929   924    1
  1181  1201  1202    1
  1182   934   936   ar
  1183  1216  1215    1
  1184   930   937   ar
  1185   566   568    1
  1186   566   567    1
  1187   566   564    1
  1188   441   442   ar
  1189   508   514   ar
  1190   508   509   ar
  1191   867   861   ar
  1192   867   866   ar
  1193   832   834    1
  1194   398   399   ar
  1195  1269  1276   ar
  1196  1269  1268    1
  1197   442   448   ar
  1198   549   550   ar
  1199    49    47    1
  1200   550   556   ar
  1201   425   426   ar
  1202   364   366    1
  1203   364   385    1
  1204   503   514    1
  1205   503   498    1
  1206    58    61   ar
  1207  1283  1282    1
  1208  1404  1422    1
  1209  1404  1406    1
  1210  1256  1246    1
  1211   568   563    1
  1212  1284  1285    1
  1213  1284  1282    1
  1214   482   481   ar
  1215   482   484   ar
  1216   601   579    2
  1217   481   487   ar
  1218   579   600    1
  1219   579   565    1
  1220   884   890   ar
  1221   884   885   ar
  1222    53    63    1
  1223    53    48    1
  1224   528   527   ar
  1225   528   529    2
  1226   840   838    1
  1227   890   889   ar
  1228  1228  1234   ar
  1229  1228  1227   ar
  1230    63    62   ar
  1231   510   509   ar
  1232   510   511    2
  1233  1258  1237    2
  1234   500   517    1
  1235   500   499    1
  1236  1036  1037    2
  1237  1036  1038   ar
  1238  1012  1013   ar
  1239   384   373    1
  1240  1013  1014    1
  1241   940   926    1
  1242   940   960    2
  1243   940   961    1
  1244   419   426   ar
  1245   419   418    1
  1246  1299  1285    1
  1247  1299  1320    2
  1248  1299  1319    1
  1249   910   911   ar
  1250   869   866   ar
  1251   869   870   ar
  1252  1234  1223    1
  1253   514   513   ar
  1254   447   448   ar
  1255   834   836    1
  1256   555   556   ar
  1257   861   862   ar
  1258   926   925    1
  1259   912   911   ar
  1260   912   915   ar
  1261  1039  1038   ar
  1262  1039  1040    2
  1263   527   526    1
  1264   517   519    1
  1265   517   535    1
  1266   925   923    1
  1267   400   399   ar
  1268   400   406   ar
  1269   499   497    1
  1270   564   565    1
  1271   564   562    1
  1272   509   512   ar
  1273   866   865   ar
  1274   366   365    1
  1275  1225  1227   ar
  1276  1225  1226    1
  1277   405   406   ar
  1278  1282  1280    1
  1279    61    62   ar
  1280   836   838    1
  1281   836   837    1
  1282   498   497    1
  1283   417   416    1
  1284   448   438    1
  1285   873   851    2
  1286   937   936   ar
  1287   556   546    1
  1288  1268  1266    1
  1289  1268  1263    1
  1290   886   885    1
  1291   911   917   ar
  1292   924   923    1
  1293   484   485   ar
  1294   519   518    1
  1295   488   487    2
  1296  1215  1217    1
  1297   497   495    1
  1298  1406  1405    1
  1299   487   486   ar
  1300    47    48    1
  1301    47    45    1
  1302   885   887   ar
  1303   558   537    2
  1304   838   839    1
  1305   563   562    1
  1306   418   416    1
  1307   418   413    1
  1308  1246  1241    1
  1309  1246  1244    1
  1310   923   921    1
  1311   406   396    1
  1312  1266  1267    1
  1313  1266  1264    1
  1314   915   916   ar
  1315  1405  1407    1
  1316   889   892   ar
  1317   889   888   ar
  1318   870   871   ar
  1319  1219  1217    1
  1320  1219  1221    1
  1321  1219  1220    1
  1322  1241  1240    1
  1323  1218  1223    1
  1324  1218  1217    1
  1325   513   512   ar
  1326   373   368    1
  1327   373   371    1
  1328  1237  1257    1
  1329  1237  1220    1
  1330  1237  1239    1
  1331  1223  1221    1
  1332   416   414    1
  1333    38    37    2
  1334   368   367    1
  1335   862   863    1
  1336   862   864   ar
  1337   408   387    2
  1338   562   560    1
  1339    33    32    1
  1340   837   851    1
  1341    31    37   ar
  1342    31    32   ar
  1343   526   521    1
  1344   526   524    1
  1345   365   367    1
  1346   865   871   ar
  1347   865   864   ar
  1348   892   893   ar
  1349   521   520    1
  1350  1238  1239    1
  1351  1238  1240    1
  1352  1263  1262    1
  1353  1281  1280    1
  1354  1281  1279    1
  1355  1221  1222    1
  1356   485   486   ar
  1357   485   491   ar
  1358  1420  1421   ar
  1359  1420  1418   ar
  1360   578   559    2
  1361   438   433    1
  1362   438   436    1
  1363   851   853    1
  1364   851   872    1
  1365   561   560    1
  1366   561   559    1
  1367   522   524    1
  1368   522   520    1
  1369   522   523    1
  1370    46    45    1
  1371    46    44    1
  1372   486   489   ar
  1373    37    36   ar
  1374  1244  1242    1
  1375  1244  1245    1
  1376   546   544    1
  1377   546   541    1
  1378    32    34   ar
  1379   917   916   ar
  1380   917   906    1
  1381  1421  1414   ar
  1382   369   371    1
  1383   369   367    1
  1384   369   370    1
  1385  1242  1240    1
  1386  1242  1243    1
  1387   413   412    1
  1388   518   520    1
  1389   524   525    1
  1390   887   888   ar
  1391  1264  1262    1
  1392  1264  1265    1
  1393   888   894   ar
  1394   371   372    1
  1395   871   860    1
  1396   495   496    1
  1397   433   432    1
  1398   544   542    1
  1399   544   545    1
  1400  1278  1259    2
  1401   537   539    1
  1402   537   523    1
  1403   537   557    1
  1404  1408  1407    1
  1405  1408  1413    1
  1406    65    44    2
  1407   539   538    1
  1408  1407  1409    1
  1409  1298  1279    2
  1410   396   391    1
  1411   396   394    1
  1412   853   852    1
  1413   921   922    1
  1414  1419  1418    1
  1415   415   414    1
  1416   415   429    1
  1417   542   543    1
  1418   542   540    1
  1419   559   543    1
  1420   559   577    1
  1421   414   412    1
  1422  1261  1259    1
  1423  1261  1260    1
  1424  1262  1260    1
  1425   437   436    1
  1426  1418  1417   ar
  1427   436   434    1
  1428    36    35   ar
  1429    36    39   ar
  1430   541   540    1
  1431   479   478    1
  1432    44    64    1
  1433    44    27    1
  1434    34    35   ar
  1435   387   389    1
  1436   387   370    1
  1437   387   407    1
  1438  1279  1265    1
  1439  1279  1297    1
  1440   893   894   ar
  1441   922   920    1
  1442   491   480    1
  1443   491   490   ar
  1444   496   494    1
  1445   906   904    1
  1446   906   901    1
  1447   389   388    1
  1448   391   390    1
  1449   904   905    1
  1450   904   902    1
  1451   478   480    1
  1452   478   476    1
  1453   450   429    2
  1454   489   490   ar
  1455   394   392    1
  1456   394   395    1
  1457    35    41   ar
  1458   412   410    1
  1459  1414  1413    1
  1460  1414  1415   ar
  1461  1259  1243    1
  1462  1259  1277    1
  1463   480   475    1
  1464   894   883    1
  1465    39    40   ar
  1466   431   429    1
  1467   431   430    1
  1468  1409  1410    1
  1469  1409  1411    1
  1470    17    16    2
  1471   540   538    1
  1472  1413  1411    1
  1473   860   855    1
  1474   860   858    1
  1475   428   409    2
  1476   429   449    1
  1477   432   430    1
  1478   432   434    1
  1479   392   390    1
  1480   392   393    1
  1481   855   854    1
  1482   411   410    1
  1483   411   409    1
  1484   852   854    1
  1485    28    29    1
  1486    28    26    1
  1487    28    30    1
  1488  1417  1415   ar
  1489   896   874    2
  1490   390   388    1
  1491   434   435    1
  1492    41    40   ar
  1493    41    30    1
  1494   902   903    1
  1495   902   900    1
  1496   901   900    1
  1497    27    26    1
  1498  1415  1416    2
  1499   856   854    1
  1500   856   858    1
  1501   856   857    1
  1502    16    10   ar
  1503    16    15   ar
  1504   858   859    1
  1505   920   939    2
  1506   920   903    1
  1507   920   938    1
  1508    26    24    1
  1509  1411  1412    1
  1510    10    11   ar
  1511   476   477    1
  1512   476   474    1
  1513   409   393    1
  1514   409   427    1
  1515   494   477    1
  1516   494   516    2
  1517   494   515    1
  1518   475   474    1
  1519   883   881    1
  1520   883   878    1
  1521   435   451    1
  1522    30    25    1
  1523   919   897    2
  1524   900   898    1
  1525   881   879    1
  1526   881   882    1
  1527    15    18   ar
  1528    15    14   ar
  1529   899   897    1
  1530   899   898    1
  1531    12    11    1
  1532   874   876    1
  1533   874   857    1
  1534   874   895    1
  1535    11    13   ar
  1536   474   472    1
  1537   876   875    1
  1538    18    19   ar
  1539   878   877    1
  1540   879   877    1
  1541   879   880    1
  1542    24    25    1
  1543    24    22    1
  1544   897   880    1
  1545   897   918    1
  1546    14    13   ar
  1547    14    20   ar
  1548    43    21    2
  1549     6     5    1
  1550     6    21    1
  1551   451   470    2
  1552   451   453    1
  1553   451   469    1
  1554    19    20   ar
  1555    23    22    1
  1556    23    21    1
  1557   877   875    1
  1558   473   472    1
  1559   473   471    1
  1560     5     7    1
  1561     5     3    1
  1562   453   452    1
  1563    20     9    1
  1564    21    42    1
  1565   452   454    1
  1566   493   471    2
  1567     7     9    1
  1568     7     8    1
  1569     1     3    1
  1570     1     2    1
  1571   471   457    1
  1572   471   492    1
  1573   456   454    1
  1574   456   457    1
  1575   456   458    1
  1576     3     4    1
  1577     9     4    1
  1578   454   455    1
  1579   458   459    1
  1580   458   460    1
  1581   455   460    1
  1582   460   461    1
  1583   468   461   ar
  1584   468   467   ar
  1585   461   462   ar
  1586   467   465   ar
  1587   462   463    2
  1588   462   464   ar
  1589   465   464   ar
  1590   465   466    2
