ligand
  PyMOL2.2          3D                             0

 32 34  0  0  0  0  0  0  0  0999 V2000
   16.6550  -29.4220  -16.5640 P   0  0  0  0  0  0  0  0  0  0  0  0
   14.6420  -28.9500  -18.5530 P   0  0  0  0  0  0  0  0  0  0  0  0
   12.3190  -29.3320  -16.8000 P   0  0  0  0  0  0  0  0  0  0  0  0
   18.0130  -27.3720  -17.4270 C   0  0  0  0  0  0  0  0  0  0  0  0
   17.8300  -28.7570  -17.5060 O   0  0  0  0  0  0  0  0  0  0  0  0
   19.0530  -26.9920  -18.2680 C   0  0  0  0  0  0  0  0  0  0  0  0
   18.4930  -26.3830  -19.5390 O   0  0  0  0  0  0  0  0  0  0  0  0
   19.9560  -25.8560  -17.6000 C   0  0  0  0  0  0  0  0  0  0  0  0
   21.3470  -26.3970  -17.3580 O   0  0  0  0  0  0  0  0  0  0  0  0
   20.0530  -24.9590  -18.4410 C   0  0  0  0  0  0  0  0  0  0  0  0
   21.3240  -25.1200  -19.1870 O   0  0  0  0  0  0  0  0  0  0  0  0
   18.7590  -25.1390  -19.4740 C   0  0  0  0  0  0  0  0  0  0  0  0
   16.7610  -20.5530  -18.3070 N   0  0  0  0  0  0  0  0  0  0  0  0
   17.2170  -30.5920  -15.7950 O   0  5  0  0  0  0  0  0  0  0  0  0
   14.9380  -29.3070  -19.9880 O   0  5  0  0  0  0  0  0  0  0  0  0
   10.8220  -29.2320  -16.9770 O   0  0  0  0  0  0  0  0  0  0  0  0
   17.9810  -20.8270  -18.7420 C   0  0  0  0  0  0  0  0  0  0  0  0
   18.9260  -19.7460  -18.9370 N   0  0  0  0  0  0  0  0  0  0  0  0
   16.1270  -28.3610  -15.6250 O   0  0  0  0  0  0  0  0  0  0  0  0
   15.0960  -27.5400  -18.2800 O   0  0  0  0  0  0  0  0  0  0  0  0
   12.6680  -30.7190  -16.3060 O   0  5  0  0  0  0  0  0  0  0  0  0
   18.3690  -22.0580  -19.0060 N   0  0  0  0  0  0  0  0  0  0  0  0
   15.4460  -29.9590  -17.5380 O   0  0  0  0  0  0  0  0  0  0  0  0
   13.0260  -29.0700  -18.2700 O   0  0  0  0  0  0  0  0  0  0  0  0
   12.7680  -28.2890  -15.8000 O   0  0  0  0  0  0  0  0  0  0  0  0
   17.5270  -23.0850  -18.8390 C   0  0  0  0  0  0  0  0  0  0  0  0
   16.2490  -22.8270  -18.3860 C   0  0  0  0  0  0  0  0  0  0  0  0
   15.8560  -21.5030  -18.1110 C   0  0  0  0  0  0  0  0  0  0  0  0
   14.5610  -21.2090  -17.6490 O   0  0  0  0  0  0  0  0  0  0  0  0
   15.6040  -24.0030  -18.3010 N   0  0  0  0  0  0  0  0  0  0  0  0
   16.4460  -24.9470  -18.6840 C   0  0  0  0  0  0  0  0  0  0  0  0
   17.6090  -24.4140  -19.0090 N   0  0  0  0  0  0  0  0  0  0  0  0
  1  5  1  0  0  0  0
  1 14  1  0  0  0  0
  1 19  2  0  0  0  0
  2 15  1  0  0  0  0
  2 20  2  0  0  0  0
  2 23  1  0  0  0  0
  3 16  1  0  0  0  0
  3 21  1  0  0  0  0
  3 24  1  0  0  0  0
  3 25  2  0  0  0  0
  4  6  1  0  0  0  0
  4  5  1  0  0  0  0
  6  7  1  0  0  0  0
  6  8  1  0  0  0  0
  7 12  1  0  0  0  0
  8  9  1  0  0  0  0
  8 10  1  0  0  0  0
 10 11  1  0  0  0  0
 10 12  1  0  0  0  0
 12 32  1  0  0  0  0
 13 17  4  0  0  0  0
 17 18  1  0  0  0  0
 17 22  4  0  0  0  0
 22 26  4  0  0  0  0
  1 23  1  0  0  0  0
  2 24  1  0  0  0  0
 26 27  4  0  0  0  0
 27 28  4  0  0  0  0
 13 28  4  0  0  0  0
 28 29  1  0  0  0  0
 27 30  4  0  0  0  0
 30 31  4  0  0  0  0
 26 32  4  0  0  0  0
 31 32  4  0  0  0  0
M  END
$$$$
