ligand
 OpenBabel11021811513D
libRbt.so/2013.1/901 2013/11/27
 32 34  0  0  0  0  0  0  0  0999 V2000
   16.8285  -29.3816  -16.2715 P   0  0  1  0  0  0  0  0  0  0  0  0
   14.5750  -29.5794  -18.0360 P   0  0  2  0  0  0  0  0  0  0  0  0
   11.9389  -28.8225  -16.9904 P   0  0  1  0  0  0  0  0  0  0  0  0
   18.2398  -27.4020  -17.2100 C   0  0  0  0  0  0  0  0  0  0  0  0
   17.9869  -28.7768  -17.2727 O   0  0  0  0  0  0  0  0  0  0  0  0
   19.1320  -27.0473  -18.2157 C   0  0  1  0  0  0  0  0  0  0  0  0
   18.3766  -26.4604  -19.3926 O   0  0  0  0  0  0  0  0  0  0  0  0
   20.1357  -25.9046  -17.7268 C   0  0  1  0  0  0  0  0  0  0  0  0
   21.5452  -26.4510  -17.7008 O   0  0  0  0  0  0  0  0  0  0  0  0
   20.0993  -25.0259  -18.5916 C   0  0  1  0  0  0  0  0  0  0  0  0
   21.2325  -25.2118  -19.5292 O   0  0  0  0  0  0  0  0  0  0  0  0
   18.6548  -25.2174  -19.3982 C   0  0  2  0  0  0  0  0  0  0  0  0
   16.6891  -20.5838  -18.3729 N   0  0  0  0  0  0  0  0  0  0  0  0
   16.8487  -30.8894  -16.3179 O   0  5  0  0  0  0  0  0  0  0  0  0
   14.4612  -31.0629  -17.7899 O   0  5  0  0  0  0  0  0  0  0  0  0
   10.6366  -28.3838  -17.6181 O   0  0  0  0  0  0  0  0  0  0  0  0
   17.7921  -20.8739  -19.0451 C   0  0  0  0  0  0  0  0  0  0  0  0
   18.5966  -19.7988  -19.5896 N   0  0  0  0  0  0  0  0  0  0  0  0
   17.0888  -28.8801  -14.8690 O   0  0  0  0  0  0  0  0  0  0  0  0
   15.3581  -29.3362  -19.2994 O   0  0  0  0  0  0  0  0  0  0  0  0
   11.7487  -30.1816  -16.3530 O   0  5  0  0  0  0  0  0  0  0  0  0
   18.1869  -22.1159  -19.2380 N   0  0  0  0  0  0  0  0  0  0  0  0
   15.3618  -28.8546  -16.7909 O   0  0  0  0  0  0  0  0  0  0  0  0
   13.0746  -28.9220  -18.1861 O   0  0  0  0  0  0  0  0  0  0  0  0
   12.3509  -27.8058  -15.9482 O   0  0  0  0  0  0  0  0  0  0  0  0
   17.4726  -23.1379  -18.7514 C   0  0  0  0  0  0  0  0  0  0  0  0
   16.3184  -22.8631  -18.0461 C   0  0  0  0  0  0  0  0  0  0  0  0
   15.9153  -21.5277  -17.8531 C   0  0  0  0  0  0  0  0  0  0  0  0
   14.7444  -21.2166  -17.1396 O   0  0  0  0  0  0  0  0  0  0  0  0
   15.7862  -24.0373  -17.6664 N   0  0  0  0  0  0  0  0  0  0  0  0
   16.5765  -24.9963  -18.1164 C   0  0  0  0  0  0  0  0  0  0  0  0
   17.5979  -24.4743  -18.7695 N   0  0  0  0  0  0  0  0  0  0  0  0
  1  5  1  6  0  0  0
  1 14  1  0  0  0  0
  1 19  2  0  0  0  0
  1 23  1  0  0  0  0
  2 15  1  1  0  0  0
  2 20  2  0  0  0  0
  2 23  1  0  0  0  0
  2 24  1  0  0  0  0
  3 16  1  6  0  0  0
  3 21  1  0  0  0  0
  3 24  1  0  0  0  0
  3 25  2  0  0  0  0
  4  5  1  0  0  0  0
  6  4  1  1  0  0  0
  6  7  1  0  0  0  0
  6  8  1  0  0  0  0
  7 12  1  0  0  0  0
  8  9  1  6  0  0  0
  8 10  1  0  0  0  0
 10 11  1  6  0  0  0
 10 12  1  0  0  0  0
 12 32  1  1  0  0  0
 13 17  2  0  0  0  0
 13 28  1  0  0  0  0
 17 18  1  0  0  0  0
 17 22  1  0  0  0  0
 22 26  2  0  0  0  0
 26 27  1  0  0  0  0
 26 32  1  0  0  0  0
 27 28  2  0  0  0  0
 27 30  1  0  0  0  0
 28 29  1  0  0  0  0
 30 31  2  0  0  0  0
 31 32  1  0  0  0  0
M  CHG  3  14  -1  15  -1  21  -1
M  END
>  <CHROM.1>
-171.01574380,52.79803007,-169.87786098,99.19604155,-173.53523305,-170.84393378
80.78488123,66.08895426,16.31909472,-26.58809154,-17.76301291,-2.15864715
0.10479513,-0.16618519

>  <Name>
ligand

>  <RI>
0

>  <Rbt.Current_Directory>
/home/itssahil/PROJECTS/Mol_Feturizer/New_Systems/rnas/4Y1I

>  <Rbt.Executable>
rbdock ($Id: //depot/dev/client3/rdock/2013.1/src/exe/rbdock.cxx#4 $)

>  <Rbt.Library>
libRbt.so (2013.1, Build901 2013/11/27)

>  <Rbt.Parameter_File>
/export/apps/rDock/src/rDock_2013.1_src/data/scripts/dock_solv.prm

>  <Rbt.Receptor>
prm/pocket_docking_2.prm

>  <SCORE>
-0.743326

>  <SCORE.INTER>
2.99808

>  <SCORE.INTER.CONST>
1

>  <SCORE.INTER.POLAR>
0

>  <SCORE.INTER.ROT>
8

>  <SCORE.INTER.SOLV>
12.9639

>  <SCORE.INTER.VDW>
-11.2559

>  <SCORE.INTER.norm>
0.09369

>  <SCORE.INTRA>
-3.74141

>  <SCORE.INTRA.DIHEDRAL>
-4.59501

>  <SCORE.INTRA.DIHEDRAL.0>
10.9594

>  <SCORE.INTRA.POLAR>
0

>  <SCORE.INTRA.POLAR.0>
0

>  <SCORE.INTRA.REPUL>
0.00221474

>  <SCORE.INTRA.REPUL.0>
0

>  <SCORE.INTRA.SOLV>
-3.61858

>  <SCORE.INTRA.SOLV.lig_0>
-124.914

>  <SCORE.INTRA.VDW>
0.354314

>  <SCORE.INTRA.VDW.0>
-4.69801

>  <SCORE.INTRA.norm>
-0.116919

>  <SCORE.RESTR>
0

>  <SCORE.RESTR.CAVITY>
0

>  <SCORE.RESTR.norm>
0

>  <SCORE.SYSTEM>
0

>  <SCORE.SYSTEM.CONST>
0

>  <SCORE.SYSTEM.DIHEDRAL>
0

>  <SCORE.SYSTEM.SOLV>
0

>  <SCORE.SYSTEM.norm>
0

>  <SCORE.heavy>
32

>  <SCORE.norm>
-0.0232289

>  <RMSD>
0.852

$$$$
ligand
 OpenBabel11021811513D
libRbt.so/2013.1/901 2013/11/27
 32 34  0  0  0  0  0  0  0  0999 V2000
   16.8908  -28.7570  -16.7811 P   0  0  1  0  0  0  0  0  0  0  0  0
   14.7456  -28.5360  -18.6733 P   0  0  2  0  0  0  0  0  0  0  0  0
   12.2017  -29.5146  -17.5843 P   0  0  1  0  0  0  0  0  0  0  0  0
   18.9120  -27.2360  -17.4079 C   0  0  0  0  0  0  0  0  0  0  0  0
   17.9472  -28.1334  -17.8789 O   0  0  0  0  0  0  0  0  0  0  0  0
   19.7176  -26.8235  -18.4634 C   0  0  1  0  0  0  0  0  0  0  0  0
   18.8570  -26.2837  -19.5894 O   0  0  0  0  0  0  0  0  0  0  0  0
   20.6745  -25.6203  -18.0292 C   0  0  1  0  0  0  0  0  0  0  0  0
   22.1149  -26.0760  -18.0910 O   0  0  0  0  0  0  0  0  0  0  0  0
   20.5305  -24.7441  -18.8853 C   0  0  1  0  0  0  0  0  0  0  0  0
   21.6146  -24.8559  -19.8904 O   0  0  0  0  0  0  0  0  0  0  0  0
   19.0550  -25.0255  -19.6047 C   0  0  2  0  0  0  0  0  0  0  0  0
   16.7877  -20.5400  -18.5440 N   0  0  0  0  0  0  0  0  0  0  0  0
   17.5664  -29.8429  -15.9808 O   0  5  0  0  0  0  0  0  0  0  0  0
   15.4363  -28.5232  -20.0139 O   0  5  0  0  0  0  0  0  0  0  0  0
   12.1050  -28.2739  -16.7278 O   0  0  0  0  0  0  0  0  0  0  0  0
   17.8528  -20.7599  -19.2989 C   0  0  0  0  0  0  0  0  0  0  0  0
   18.5144  -19.6406  -19.9386 N   0  0  0  0  0  0  0  0  0  0  0  0
   16.4106  -27.6409  -15.8810 O   0  0  0  0  0  0  0  0  0  0  0  0
   14.6204  -27.1266  -18.1570 O   0  0  0  0  0  0  0  0  0  0  0  0
   10.8333  -29.8396  -18.1422 O   0  5  0  0  0  0  0  0  0  0  0  0
   18.3361  -21.9704  -19.4904 N   0  0  0  0  0  0  0  0  0  0  0  0
   15.6190  -29.4086  -17.5914 O   0  0  0  0  0  0  0  0  0  0  0  0
   13.2481  -29.1998  -18.8234 O   0  0  0  0  0  0  0  0  0  0  0  0
   12.7099  -30.6605  -16.7367 O   0  0  0  0  0  0  0  0  0  0  0  0
   17.7549  -23.0312  -18.9174 C   0  0  0  0  0  0  0  0  0  0  0  0
   16.6429  -22.8298  -18.1249 C   0  0  0  0  0  0  0  0  0  0  0  0
   16.1433  -21.5269  -17.9350 C   0  0  0  0  0  0  0  0  0  0  0  0
   15.0123  -21.2905  -17.1339 O   0  0  0  0  0  0  0  0  0  0  0  0
   16.2468  -24.0306  -17.6696 N   0  0  0  0  0  0  0  0  0  0  0  0
   17.0773  -24.9350  -18.1584 C   0  0  0  0  0  0  0  0  0  0  0  0
   17.9930  -24.3522  -18.9095 N   0  0  0  0  0  0  0  0  0  0  0  0
  1  5  1  6  0  0  0
  1 14  1  0  0  0  0
  1 19  2  0  0  0  0
  1 23  1  0  0  0  0
  2 15  1  6  0  0  0
  2 20  2  0  0  0  0
  2 23  1  0  0  0  0
  2 24  1  0  0  0  0
  3 16  1  1  0  0  0
  3 21  1  0  0  0  0
  3 24  1  0  0  0  0
  3 25  2  0  0  0  0
  4  5  1  0  0  0  0
  6  4  1  1  0  0  0
  6  7  1  0  0  0  0
  6  8  1  0  0  0  0
  7 12  1  0  0  0  0
  8  9  1  6  0  0  0
  8 10  1  0  0  0  0
 10 11  1  6  0  0  0
 10 12  1  0  0  0  0
 12 32  1  1  0  0  0
 13 17  2  0  0  0  0
 13 28  1  0  0  0  0
 17 18  1  0  0  0  0
 17 22  1  0  0  0  0
 22 26  2  0  0  0  0
 26 27  1  0  0  0  0
 26 32  1  0  0  0  0
 27 28  2  0  0  0  0
 27 30  1  0  0  0  0
 28 29  1  0  0  0  0
 30 31  2  0  0  0  0
 31 32  1  0  0  0  0
M  CHG  3  14  -1  15  -1  21  -1
M  END
>  <CHROM.1>
-77.40655751,82.66628735,49.01436125,53.53085875,179.51830125,-168.15338629
-54.61883322,174.93815371,16.57984311,-26.31477223,-18.14023816,-2.24683292
0.07002475,-0.14138672

>  <Name>
ligand

>  <RI>
0

>  <Rbt.Current_Directory>
/home/itssahil/PROJECTS/Mol_Feturizer/New_Systems/rnas/4Y1I

>  <Rbt.Executable>
rbdock ($Id: //depot/dev/client3/rdock/2013.1/src/exe/rbdock.cxx#4 $)

>  <Rbt.Library>
libRbt.so (2013.1, Build901 2013/11/27)

>  <Rbt.Parameter_File>
/export/apps/rDock/src/rDock_2013.1_src/data/scripts/dock_solv.prm

>  <Rbt.Receptor>
prm/pocket_docking_2.prm

>  <SCORE>
-4.04502

>  <SCORE.INTER>
2.63637

>  <SCORE.INTER.CONST>
1

>  <SCORE.INTER.POLAR>
0

>  <SCORE.INTER.ROT>
8

>  <SCORE.INTER.SOLV>
11.3192

>  <SCORE.INTER.VDW>
-10.9488

>  <SCORE.INTER.norm>
0.0823867

>  <SCORE.INTRA>
-6.68139

>  <SCORE.INTRA.DIHEDRAL>
-8.10674

>  <SCORE.INTRA.DIHEDRAL.0>
10.9594

>  <SCORE.INTRA.POLAR>
0

>  <SCORE.INTRA.POLAR.0>
0

>  <SCORE.INTRA.REPUL>
0

>  <SCORE.INTRA.REPUL.0>
0

>  <SCORE.INTRA.SOLV>
-4.52595

>  <SCORE.INTRA.SOLV.lig_0>
-124.914

>  <SCORE.INTRA.VDW>
-0.365047

>  <SCORE.INTRA.VDW.0>
-4.69801

>  <SCORE.INTRA.norm>
-0.208794

>  <SCORE.RESTR>
0

>  <SCORE.RESTR.CAVITY>
0

>  <SCORE.RESTR.norm>
0

>  <SCORE.SYSTEM>
0

>  <SCORE.SYSTEM.CONST>
0

>  <SCORE.SYSTEM.DIHEDRAL>
0

>  <SCORE.SYSTEM.SOLV>
0

>  <SCORE.SYSTEM.norm>
0

>  <SCORE.heavy>
32

>  <SCORE.norm>
-0.126407

>  <RMSD>
0.953

$$$$
ligand
 OpenBabel11021811513D
libRbt.so/2013.1/901 2013/11/27
 32 34  0  0  0  0  0  0  0  0999 V2000
   17.1205  -29.0888  -16.4591 P   0  0  1  0  0  0  0  0  0  0  0  0
   14.9826  -28.6633  -18.3245 P   0  0  2  0  0  0  0  0  0  0  0  0
   12.4634  -29.7335  -17.2644 P   0  0  1  0  0  0  0  0  0  0  0  0
   18.0945  -27.5389  -18.3140 C   0  0  0  0  0  0  0  0  0  0  0  0
   18.3481  -28.6046  -17.4434 O   0  0  0  0  0  0  0  0  0  0  0  0
   19.2972  -27.0456  -18.8073 C   0  0  1  0  0  0  0  0  0  0  0  0
   19.0301  -25.9224  -19.7907 O   0  0  0  0  0  0  0  0  0  0  0  0
   20.1848  -26.4056  -17.6433 C   0  0  1  0  0  0  0  0  0  0  0  0
   21.4498  -27.2159  -17.4725 O   0  0  0  0  0  0  0  0  0  0  0  0
   20.5172  -25.2874  -18.0436 C   0  0  1  0  0  0  0  0  0  0  0  0
   21.8739  -25.3610  -18.6368 O   0  0  0  0  0  0  0  0  0  0  0  0
   19.4084  -24.8544  -19.2085 C   0  0  2  0  0  0  0  0  0  0  0  0
   16.8478  -20.4293  -18.7120 N   0  0  0  0  0  0  0  0  0  0  0  0
   17.5983  -30.1956  -15.5521 O   0  5  0  0  0  0  0  0  0  0  0  0
   15.6199  -28.4837  -19.6794 O   0  5  0  0  0  0  0  0  0  0  0  0
   12.3113  -28.5402  -16.3505 O   0  0  0  0  0  0  0  0  0  0  0  0
   17.9606  -20.6586  -19.3914 C   0  0  0  0  0  0  0  0  0  0  0  0
   18.5918  -19.5705  -20.1105 N   0  0  0  0  0  0  0  0  0  0  0  0
   16.6438  -27.8994  -15.6563 O   0  0  0  0  0  0  0  0  0  0  0  0
   14.8808  -27.3286  -17.6340 O   0  0  0  0  0  0  0  0  0  0  0  0
   11.1079  -30.1039  -17.8256 O   0  5  0  0  0  0  0  0  0  0  0  0
   18.5186  -21.8512  -19.4371 N   0  0  0  0  0  0  0  0  0  0  0  0
   15.8960  -29.6601  -17.3935 O   0  0  0  0  0  0  0  0  0  0  0  0
   13.4788  -29.3078  -18.4961 O   0  0  0  0  0  0  0  0  0  0  0  0
   13.0394  -30.8888  -16.4750 O   0  0  0  0  0  0  0  0  0  0  0  0
   17.9676  -22.8831  -18.7867 C   0  0  0  0  0  0  0  0  0  0  0  0
   16.8072  -22.6711  -18.0701 C   0  0  0  0  0  0  0  0  0  0  0  0
   16.2280  -21.3880  -18.0361 C   0  0  0  0  0  0  0  0  0  0  0  0
   15.0462  -21.1415  -17.3154 O   0  0  0  0  0  0  0  0  0  0  0  0
   16.4545  -23.8427  -17.5140 N   0  0  0  0  0  0  0  0  0  0  0  0
   17.3573  -24.7398  -17.8703 C   0  0  0  0  0  0  0  0  0  0  0  0
   18.2770  -24.1804  -18.6341 N   0  0  0  0  0  0  0  0  0  0  0  0
  1  5  1  6  0  0  0
  1 14  1  0  0  0  0
  1 19  2  0  0  0  0
  1 23  1  0  0  0  0
  2 15  1  6  0  0  0
  2 20  2  0  0  0  0
  2 23  1  0  0  0  0
  2 24  1  0  0  0  0
  3 16  1  1  0  0  0
  3 21  1  0  0  0  0
  3 24  1  0  0  0  0
  3 25  2  0  0  0  0
  4  5  1  0  0  0  0
  6  4  1  1  0  0  0
  6  7  1  0  0  0  0
  6  8  1  0  0  0  0
  7 12  1  0  0  0  0
  8  9  1  6  0  0  0
  8 10  1  0  0  0  0
 10 11  1  6  0  0  0
 10 12  1  0  0  0  0
 12 32  1  1  0  0  0
 13 17  2  0  0  0  0
 13 28  1  0  0  0  0
 17 18  1  0  0  0  0
 17 22  1  0  0  0  0
 22 26  2  0  0  0  0
 26 27  1  0  0  0  0
 26 32  1  0  0  0  0
 27 28  2  0  0  0  0
 27 30  1  0  0  0  0
 28 29  1  0  0  0  0
 30 31  2  0  0  0  0
 31 32  1  0  0  0  0
M  CHG  3  14  -1  15  -1  21  -1
M  END
>  <CHROM.1>
-177.26689863,88.00283629,53.25003813,177.97636198,164.87734189,-130.02550667
-70.42915604,176.89580554,16.69856359,-26.47267731,-17.90893247,-2.13348648
0.04267119,-0.19033704

>  <Name>
ligand

>  <RI>
0

>  <Rbt.Current_Directory>
/home/itssahil/PROJECTS/Mol_Feturizer/New_Systems/rnas/4Y1I

>  <Rbt.Executable>
rbdock ($Id: //depot/dev/client3/rdock/2013.1/src/exe/rbdock.cxx#4 $)

>  <Rbt.Library>
libRbt.so (2013.1, Build901 2013/11/27)

>  <Rbt.Parameter_File>
/export/apps/rDock/src/rDock_2013.1_src/data/scripts/dock_solv.prm

>  <Rbt.Receptor>
prm/pocket_docking_2.prm

>  <SCORE>
-3.08027

>  <SCORE.INTER>
1.64014

>  <SCORE.INTER.CONST>
1

>  <SCORE.INTER.POLAR>
0

>  <SCORE.INTER.ROT>
8

>  <SCORE.INTER.SOLV>
11.7537

>  <SCORE.INTER.VDW>
-11.7578

>  <SCORE.INTER.norm>
0.0512543

>  <SCORE.INTRA>
-4.72041

>  <SCORE.INTRA.DIHEDRAL>
-7.25082

>  <SCORE.INTRA.DIHEDRAL.0>
10.9594

>  <SCORE.INTRA.POLAR>
0

>  <SCORE.INTRA.POLAR.0>
0

>  <SCORE.INTRA.REPUL>
0

>  <SCORE.INTRA.REPUL.0>
0

>  <SCORE.INTRA.SOLV>
-2.66154

>  <SCORE.INTRA.SOLV.lig_0>
-124.914

>  <SCORE.INTRA.VDW>
0.235774

>  <SCORE.INTRA.VDW.0>
-4.69801

>  <SCORE.INTRA.norm>
-0.147513

>  <SCORE.RESTR>
0

>  <SCORE.RESTR.CAVITY>
0

>  <SCORE.RESTR.norm>
0

>  <SCORE.SYSTEM>
0

>  <SCORE.SYSTEM.CONST>
0

>  <SCORE.SYSTEM.DIHEDRAL>
0

>  <SCORE.SYSTEM.SOLV>
0

>  <SCORE.SYSTEM.norm>
0

>  <SCORE.heavy>
32

>  <SCORE.norm>
-0.0962583

>  <RMSD>
0.966

$$$$
ligand
 OpenBabel11021811513D
libRbt.so/2013.1/901 2013/11/27
 32 34  0  0  0  0  0  0  0  0999 V2000
   16.8293  -29.0342  -17.0234 P   0  0  1  0  0  0  0  0  0  0  0  0
   14.3318  -29.4479  -18.3734 P   0  0  2  0  0  0  0  0  0  0  0  0
   11.7352  -29.1744  -17.0324 P   0  0  1  0  0  0  0  0  0  0  0  0
   18.7841  -27.3634  -17.4457 C   0  0  0  0  0  0  0  0  0  0  0  0
   17.9052  -28.2877  -18.0211 O   0  0  0  0  0  0  0  0  0  0  0  0
   19.6792  -26.9115  -18.4090 C   0  0  1  0  0  0  0  0  0  0  0  0
   18.9235  -26.2581  -19.5500 O   0  0  0  0  0  0  0  0  0  0  0  0
   20.6453  -25.7828  -17.8216 C   0  0  1  0  0  0  0  0  0  0  0  0
   22.0687  -26.2928  -17.8154 O   0  0  0  0  0  0  0  0  0  0  0  0
   20.5963  -24.8432  -18.6192 C   0  0  1  0  0  0  0  0  0  0  0  0
   21.7461  -24.9291  -19.5511 O   0  0  0  0  0  0  0  0  0  0  0  0
   19.1680  -25.0113  -19.4591 C   0  0  2  0  0  0  0  0  0  0  0  0
   16.7791  -20.5556  -18.5509 N   0  0  0  0  0  0  0  0  0  0  0  0
   17.5649  -29.9220  -16.0504 O   0  5  0  0  0  0  0  0  0  0  0  0
   13.7227  -30.3990  -19.3728 O   0  5  0  0  0  0  0  0  0  0  0  0
   11.1310  -30.3685  -17.7333 O   0  0  0  0  0  0  0  0  0  0  0  0
   17.8558  -20.7706  -19.2906 C   0  0  0  0  0  0  0  0  0  0  0  0
   18.4943  -19.6543  -19.9584 N   0  0  0  0  0  0  0  0  0  0  0  0
   16.0298  -27.9782  -16.2941 O   0  0  0  0  0  0  0  0  0  0  0  0
   14.4616  -28.0808  -18.9922 O   0  0  0  0  0  0  0  0  0  0  0  0
   11.2308  -29.1292  -15.6065 O   0  5  0  0  0  0  0  0  0  0  0  0
   18.3712  -21.9735  -19.4419 N   0  0  0  0  0  0  0  0  0  0  0  0
   15.8279  -29.9630  -17.9362 O   0  0  0  0  0  0  0  0  0  0  0  0
   13.3773  -29.3562  -17.0368 O   0  0  0  0  0  0  0  0  0  0  0  0
   11.3371  -27.9155  -17.7713 O   0  0  0  0  0  0  0  0  0  0  0  0
   17.8120  -23.0313  -18.8420 C   0  0  0  0  0  0  0  0  0  0  0  0
   16.6886  -22.8348  -18.0646 C   0  0  0  0  0  0  0  0  0  0  0  0
   16.1547  -21.5401  -17.9177 C   0  0  0  0  0  0  0  0  0  0  0  0
   15.0112  -21.3088  -17.1329 O   0  0  0  0  0  0  0  0  0  0  0  0
   16.3191  -24.0313  -17.5766 N   0  0  0  0  0  0  0  0  0  0  0  0
   17.1764  -24.9284  -18.0316 C   0  0  0  0  0  0  0  0  0  0  0  0
   18.0835  -24.3450  -18.7927 N   0  0  0  0  0  0  0  0  0  0  0  0
  1  5  1  6  0  0  0
  1 14  1  0  0  0  0
  1 19  2  0  0  0  0
  1 23  1  0  0  0  0
  2 15  1  6  0  0  0
  2 20  2  0  0  0  0
  2 23  1  0  0  0  0
  2 24  1  0  0  0  0
  3 16  1  6  0  0  0
  3 21  1  0  0  0  0
  3 24  1  0  0  0  0
  3 25  2  0  0  0  0
  4  5  1  0  0  0  0
  6  4  1  1  0  0  0
  6  7  1  0  0  0  0
  6  8  1  0  0  0  0
  7 12  1  0  0  0  0
  8  9  1  6  0  0  0
  8 10  1  0  0  0  0
 10 11  1  6  0  0  0
 10 12  1  0  0  0  0
 12 32  1  1  0  0  0
 13 17  2  0  0  0  0
 13 28  1  0  0  0  0
 17 18  1  0  0  0  0
 17 22  1  0  0  0  0
 22 26  2  0  0  0  0
 26 27  1  0  0  0  0
 26 32  1  0  0  0  0
 27 28  2  0  0  0  0
 27 30  1  0  0  0  0
 28 29  1  0  0  0  0
 30 31  2  0  0  0  0
 31 32  1  0  0  0  0
M  CHG  3  14  -1  15  -1  21  -1
M  END
>  <CHROM.1>
-66.04302278,171.34412642,61.33696433,59.36260140,175.54559884,-160.33633611
-98.88738145,-46.12465673,16.41484448,-26.47383203,-18.01901265,-2.29022878
0.10244749,-0.12019431

>  <Name>
ligand

>  <RI>
0

>  <Rbt.Current_Directory>
/home/itssahil/PROJECTS/Mol_Feturizer/New_Systems/rnas/4Y1I

>  <Rbt.Executable>
rbdock ($Id: //depot/dev/client3/rdock/2013.1/src/exe/rbdock.cxx#4 $)

>  <Rbt.Library>
libRbt.so (2013.1, Build901 2013/11/27)

>  <Rbt.Parameter_File>
/export/apps/rDock/src/rDock_2013.1_src/data/scripts/dock_solv.prm

>  <Rbt.Receptor>
prm/pocket_docking_2.prm

>  <SCORE>
-2.8636

>  <SCORE.INTER>
2.50269

>  <SCORE.INTER.CONST>
1

>  <SCORE.INTER.POLAR>
0

>  <SCORE.INTER.ROT>
8

>  <SCORE.INTER.SOLV>
11.8147

>  <SCORE.INTER.VDW>
-11.2031

>  <SCORE.INTER.norm>
0.078209

>  <SCORE.INTRA>
-5.36628

>  <SCORE.INTRA.DIHEDRAL>
-7.4213

>  <SCORE.INTRA.DIHEDRAL.0>
10.9594

>  <SCORE.INTRA.POLAR>
0

>  <SCORE.INTRA.POLAR.0>
0

>  <SCORE.INTRA.REPUL>
0

>  <SCORE.INTRA.REPUL.0>
0

>  <SCORE.INTRA.SOLV>
-4.35285

>  <SCORE.INTRA.SOLV.lig_0>
-124.914

>  <SCORE.INTRA.VDW>
0.520792

>  <SCORE.INTRA.VDW.0>
-4.69801

>  <SCORE.INTRA.norm>
-0.167696

>  <SCORE.RESTR>
0

>  <SCORE.RESTR.CAVITY>
0

>  <SCORE.RESTR.norm>
0

>  <SCORE.SYSTEM>
0

>  <SCORE.SYSTEM.CONST>
0

>  <SCORE.SYSTEM.DIHEDRAL>
0

>  <SCORE.SYSTEM.SOLV>
0

>  <SCORE.SYSTEM.norm>
0

>  <SCORE.heavy>
32

>  <SCORE.norm>
-0.0894874

>  <RMSD>
0.973

$$$$
ligand
 OpenBabel11021811513D
libRbt.so/2013.1/901 2013/11/27
 32 34  0  0  0  0  0  0  0  0999 V2000
   16.8160  -29.5943  -17.0363 P   0  0  1  0  0  0  0  0  0  0  0  0
   14.5170  -28.6226  -18.4512 P   0  0  2  0  0  0  0  0  0  0  0  0
   12.1623  -29.9350  -17.2902 P   0  0  1  0  0  0  0  0  0  0  0  0
   18.5692  -27.7047  -17.4199 C   0  0  0  0  0  0  0  0  0  0  0  0
   18.0168  -28.8909  -17.9158 O   0  0  0  0  0  0  0  0  0  0  0  0
   19.5267  -27.2305  -18.3096 C   0  0  1  0  0  0  0  0  0  0  0  0
   18.8499  -26.5234  -19.4680 O   0  0  0  0  0  0  0  0  0  0  0  0
   20.4699  -26.1395  -17.6224 C   0  0  1  0  0  0  0  0  0  0  0  0
   21.8836  -26.6708  -17.5503 O   0  0  0  0  0  0  0  0  0  0  0  0
   20.4814  -25.1699  -18.3847 C   0  0  1  0  0  0  0  0  0  0  0  0
   21.6843  -25.2381  -19.2486 O   0  0  0  0  0  0  0  0  0  0  0  0
   19.1045  -25.2848  -19.3147 C   0  0  2  0  0  0  0  0  0  0  0  0
   16.6740  -20.8419  -18.4554 N   0  0  0  0  0  0  0  0  0  0  0  0
   16.4866  -30.9492  -17.6124 O   0  5  0  0  0  0  0  0  0  0  0  0
   15.3475  -28.7775  -19.7004 O   0  5  0  0  0  0  0  0  0  0  0  0
   11.4404  -31.2407  -17.5275 O   0  0  0  0  0  0  0  0  0  0  0  0
   17.7836  -21.0466  -19.1479 C   0  0  0  0  0  0  0  0  0  0  0  0
   18.4514  -19.9213  -19.7703 N   0  0  0  0  0  0  0  0  0  0  0  0
   17.2723  -29.7137  -15.5998 O   0  0  0  0  0  0  0  0  0  0  0  0
   13.7877  -27.3053  -18.4904 O   0  0  0  0  0  0  0  0  0  0  0  0
   12.6844  -29.9085  -15.8702 O   0  5  0  0  0  0  0  0  0  0  0  0
   18.3061  -22.2474  -19.2921 N   0  0  0  0  0  0  0  0  0  0  0  0
   15.4797  -28.6426  -17.1217 O   0  0  0  0  0  0  0  0  0  0  0  0
   13.4266  -29.8501  -18.3502 O   0  0  0  0  0  0  0  0  0  0  0  0
   11.1990  -28.7906  -17.5179 O   0  0  0  0  0  0  0  0  0  0  0  0
   17.7206  -23.3134  -18.7331 C   0  0  0  0  0  0  0  0  0  0  0  0
   16.5627  -23.1276  -18.0052 C   0  0  0  0  0  0  0  0  0  0  0  0
   16.0218  -21.8349  -17.8651 C   0  0  0  0  0  0  0  0  0  0  0  0
   14.8435  -21.6144  -17.1303 O   0  0  0  0  0  0  0  0  0  0  0  0
   16.1719  -24.3306  -17.5513 N   0  0  0  0  0  0  0  0  0  0  0  0
   17.0496  -25.2214  -17.9789 C   0  0  0  0  0  0  0  0  0  0  0  0
   17.9902  -24.6276  -18.6895 N   0  0  0  0  0  0  0  0  0  0  0  0
  1  5  1  6  0  0  0
  1 14  1  0  0  0  0
  1 19  2  0  0  0  0
  1 23  1  0  0  0  0
  2 15  1  6  0  0  0
  2 20  2  0  0  0  0
  2 23  1  0  0  0  0
  2 24  1  0  0  0  0
  3 16  1  6  0  0  0
  3 21  1  0  0  0  0
  3 24  1  0  0  0  0
  3 25  2  0  0  0  0
  4  5  1  0  0  0  0
  6  4  1  1  0  0  0
  6  7  1  0  0  0  0
  6  8  1  0  0  0  0
  7 12  1  0  0  0  0
  8  9  1  6  0  0  0
  8 10  1  0  0  0  0
 10 11  1  6  0  0  0
 10 12  1  0  0  0  0
 12 32  1  1  0  0  0
 13 17  2  0  0  0  0
 13 28  1  0  0  0  0
 17 18  1  0  0  0  0
 17 22  1  0  0  0  0
 22 26  2  0  0  0  0
 26 27  1  0  0  0  0
 26 32  1  0  0  0  0
 27 28  2  0  0  0  0
 27 30  1  0  0  0  0
 28 29  1  0  0  0  0
 30 31  2  0  0  0  0
 31 32  1  0  0  0  0
M  CHG  3  14  -1  15  -1  21  -1
M  END
>  <CHROM.1>
-171.87922545,-35.81184868,-178.86063927,79.24220207,-177.82887851,-158.52371416
77.28789202,-169.11747102,16.47141918,-26.74004261,-18.00453218,-2.21396480
0.05854336,-0.13672395

>  <Name>
ligand

>  <RI>
0

>  <Rbt.Current_Directory>
/home/itssahil/PROJECTS/Mol_Feturizer/New_Systems/rnas/4Y1I

>  <Rbt.Executable>
rbdock ($Id: //depot/dev/client3/rdock/2013.1/src/exe/rbdock.cxx#4 $)

>  <Rbt.Library>
libRbt.so (2013.1, Build901 2013/11/27)

>  <Rbt.Parameter_File>
/export/apps/rDock/src/rDock_2013.1_src/data/scripts/dock_solv.prm

>  <Rbt.Receptor>
prm/pocket_docking_2.prm

>  <SCORE>
-1.99859

>  <SCORE.INTER>
3.14688

>  <SCORE.INTER.CONST>
1

>  <SCORE.INTER.POLAR>
0

>  <SCORE.INTER.ROT>
8

>  <SCORE.INTER.SOLV>
11.7522

>  <SCORE.INTER.VDW>
-10.7528

>  <SCORE.INTER.norm>
0.0983398

>  <SCORE.INTRA>
-5.17027

>  <SCORE.INTRA.DIHEDRAL>
-6.84205

>  <SCORE.INTRA.DIHEDRAL.0>
10.9594

>  <SCORE.INTRA.POLAR>
0

>  <SCORE.INTRA.POLAR.0>
0

>  <SCORE.INTRA.REPUL>
0

>  <SCORE.INTRA.REPUL.0>
0

>  <SCORE.INTRA.SOLV>
-3.36529

>  <SCORE.INTRA.SOLV.lig_0>
-124.914

>  <SCORE.INTRA.VDW>
-0.066595

>  <SCORE.INTRA.VDW.0>
-4.69801

>  <SCORE.INTRA.norm>
-0.161571

>  <SCORE.RESTR>
0.0247992

>  <SCORE.RESTR.CAVITY>
0.0247992

>  <SCORE.RESTR.norm>
0.000774975

>  <SCORE.SYSTEM>
0

>  <SCORE.SYSTEM.CONST>
0

>  <SCORE.SYSTEM.DIHEDRAL>
0

>  <SCORE.SYSTEM.SOLV>
0

>  <SCORE.SYSTEM.norm>
0

>  <SCORE.heavy>
32

>  <SCORE.norm>
-0.062456

>  <RMSD>
0.993

$$$$
ligand
 OpenBabel11021811513D
libRbt.so/2013.1/901 2013/11/27
 32 34  0  0  0  0  0  0  0  0999 V2000
   16.5704  -29.2586  -16.3187 P   0  0  1  0  0  0  0  0  0  0  0  0
   14.0825  -29.8354  -17.6259 P   0  0  2  0  0  0  0  0  0  0  0  0
   11.6760  -28.4941  -16.6135 P   0  0  1  0  0  0  0  0  0  0  0  0
   18.3239  -27.5286  -17.1694 C   0  0  0  0  0  0  0  0  0  0  0  0
   17.4145  -28.5293  -17.5294 O   0  0  0  0  0  0  0  0  0  0  0  0
   19.1136  -27.2019  -18.2662 C   0  0  1  0  0  0  0  0  0  0  0  0
   18.2448  -26.6588  -19.3844 O   0  0  0  0  0  0  0  0  0  0  0  0
   20.1485  -26.0376  -17.9120 C   0  0  1  0  0  0  0  0  0  0  0  0
   21.5592  -26.5743  -18.0022 O   0  0  0  0  0  0  0  0  0  0  0  0
   20.0224  -25.1882  -18.7973 C   0  0  1  0  0  0  0  0  0  0  0  0
   21.0634  -25.3981  -19.8318 O   0  0  0  0  0  0  0  0  0  0  0  0
   18.5098  -25.4150  -19.4566 C   0  0  2  0  0  0  0  0  0  0  0  0
   16.6296  -20.7598  -18.3706 N   0  0  0  0  0  0  0  0  0  0  0  0
   17.5168  -30.0119  -15.4171 O   0  5  0  0  0  0  0  0  0  0  0  0
   13.2639  -31.0292  -18.0490 O   0  5  0  0  0  0  0  0  0  0  0  0
   11.4538  -27.9212  -17.9936 O   0  0  0  0  0  0  0  0  0  0  0  0
   17.6699  -21.0650  -19.1304 C   0  0  0  0  0  0  0  0  0  0  0  0
   18.4205  -20.0025  -19.7687 N   0  0  0  0  0  0  0  0  0  0  0  0
   15.8157  -28.1999  -15.5469 O   0  0  0  0  0  0  0  0  0  0  0  0
   14.3682  -28.9692  -18.8247 O   0  0  0  0  0  0  0  0  0  0  0  0
   10.7742  -29.6943  -16.4240 O   0  5  0  0  0  0  0  0  0  0  0  0
   18.0495  -22.3109  -19.3283 N   0  0  0  0  0  0  0  0  0  0  0  0
   15.5135  -30.3240  -16.9869 O   0  0  0  0  0  0  0  0  0  0  0  0
   13.2566  -28.9620  -16.5029 O   0  0  0  0  0  0  0  0  0  0  0  0
   11.3620  -27.4322  -15.5824 O   0  0  0  0  0  0  0  0  0  0  0  0
   17.3836  -23.3217  -18.7569 C   0  0  0  0  0  0  0  0  0  0  0  0
   16.2952  -23.0310  -17.9593 C   0  0  0  0  0  0  0  0  0  0  0  0
   15.9071  -21.6917  -17.7627 C   0  0  0  0  0  0  0  0  0  0  0  0
   14.8028  -21.3646  -16.9563 O   0  0  0  0  0  0  0  0  0  0  0  0
   15.8017  -24.1963  -17.5068 N   0  0  0  0  0  0  0  0  0  0  0  0
   16.5519  -25.1651  -18.0022 C   0  0  0  0  0  0  0  0  0  0  0  0
   17.5104  -24.6580  -18.7547 N   0  0  0  0  0  0  0  0  0  0  0  0
  1  5  1  6  0  0  0
  1 14  1  0  0  0  0
  1 19  2  0  0  0  0
  1 23  1  0  0  0  0
  2 15  1  6  0  0  0
  2 20  2  0  0  0  0
  2 23  1  0  0  0  0
  2 24  1  0  0  0  0
  3 16  1  6  0  0  0
  3 21  1  0  0  0  0
  3 24  1  0  0  0  0
  3 25  2  0  0  0  0
  4  5  1  0  0  0  0
  6  4  1  1  0  0  0
  6  7  1  0  0  0  0
  6  8  1  0  0  0  0
  7 12  1  0  0  0  0
  8  9  1  6  0  0  0
  8 10  1  0  0  0  0
 10 11  1  6  0  0  0
 10 12  1  0  0  0  0
 12 32  1  1  0  0  0
 13 17  2  0  0  0  0
 13 28  1  0  0  0  0
 17 18  1  0  0  0  0
 17 22  1  0  0  0  0
 22 26  2  0  0  0  0
 26 27  1  0  0  0  0
 26 32  1  0  0  0  0
 27 28  2  0  0  0  0
 27 30  1  0  0  0  0
 28 29  1  0  0  0  0
 30 31  2  0  0  0  0
 31 32  1  0  0  0  0
M  CHG  3  14  -1  15  -1  21  -1
M  END
>  <CHROM.1>
-64.41089295,-174.75876092,-46.65111388,61.73519823,169.11568909,-171.58470262
-80.10612279,-47.81323278,16.09865653,-26.59920123,-17.69109740,-2.25440418
0.16831099,-0.16259504

>  <Name>
ligand

>  <RI>
0

>  <Rbt.Current_Directory>
/home/itssahil/PROJECTS/Mol_Feturizer/New_Systems/rnas/4Y1I

>  <Rbt.Executable>
rbdock ($Id: //depot/dev/client3/rdock/2013.1/src/exe/rbdock.cxx#4 $)

>  <Rbt.Library>
libRbt.so (2013.1, Build901 2013/11/27)

>  <Rbt.Parameter_File>
/export/apps/rDock/src/rDock_2013.1_src/data/scripts/dock_solv.prm

>  <Rbt.Receptor>
prm/pocket_docking_2.prm

>  <SCORE>
-2.4272

>  <SCORE.INTER>
3.67216

>  <SCORE.INTER.CONST>
1

>  <SCORE.INTER.POLAR>
0

>  <SCORE.INTER.ROT>
8

>  <SCORE.INTER.SOLV>
10.4987

>  <SCORE.INTER.VDW>
-9.9848

>  <SCORE.INTER.norm>
0.114755

>  <SCORE.INTRA>
-6.09936

>  <SCORE.INTRA.DIHEDRAL>
-7.95555

>  <SCORE.INTRA.DIHEDRAL.0>
10.9594

>  <SCORE.INTRA.POLAR>
0

>  <SCORE.INTRA.POLAR.0>
0

>  <SCORE.INTRA.REPUL>
0

>  <SCORE.INTRA.REPUL.0>
0

>  <SCORE.INTRA.SOLV>
-4.8352

>  <SCORE.INTRA.SOLV.lig_0>
-124.914

>  <SCORE.INTRA.VDW>
0.296011

>  <SCORE.INTRA.VDW.0>
-4.69801

>  <SCORE.INTRA.norm>
-0.190605

>  <SCORE.RESTR>
0

>  <SCORE.RESTR.CAVITY>
0

>  <SCORE.RESTR.norm>
0

>  <SCORE.SYSTEM>
0

>  <SCORE.SYSTEM.CONST>
0

>  <SCORE.SYSTEM.DIHEDRAL>
0

>  <SCORE.SYSTEM.SOLV>
0

>  <SCORE.SYSTEM.norm>
0

>  <SCORE.heavy>
32

>  <SCORE.norm>
-0.0758501

>  <RMSD>
1.071

$$$$
ligand
 OpenBabel11021811513D
libRbt.so/2013.1/901 2013/11/27
 32 34  0  0  0  0  0  0  0  0999 V2000
   17.0646  -28.7858  -16.8434 P   0  0  1  0  0  0  0  0  0  0  0  0
   14.6487  -28.5267  -18.3689 P   0  0  2  0  0  0  0  0  0  0  0  0
   12.7267  -30.0979  -16.8028 P   0  0  1  0  0  0  0  0  0  0  0  0
   18.8936  -27.0469  -17.4935 C   0  0  0  0  0  0  0  0  0  0  0  0
   18.2103  -28.2071  -17.8743 O   0  0  0  0  0  0  0  0  0  0  0  0
   19.7395  -26.6471  -18.5220 C   0  0  1  0  0  0  0  0  0  0  0  0
   18.9223  -26.1536  -19.7004 O   0  0  0  0  0  0  0  0  0  0  0  0
   20.6539  -25.4149  -18.0775 C   0  0  1  0  0  0  0  0  0  0  0  0
   22.1035  -25.8447  -18.0612 O   0  0  0  0  0  0  0  0  0  0  0  0
   20.5340  -24.5645  -18.9628 C   0  0  1  0  0  0  0  0  0  0  0  0
   21.6651  -24.6822  -19.9139 O   0  0  0  0  0  0  0  0  0  0  0  0
   19.0984  -24.8927  -19.7408 C   0  0  2  0  0  0  0  0  0  0  0  0
   17.0360  -20.3972  -18.3543 N   0  0  0  0  0  0  0  0  0  0  0  0
   16.8843  -30.2681  -17.0590 O   0  5  0  0  0  0  0  0  0  0  0  0
   15.4317  -28.7296  -19.6417 O   0  5  0  0  0  0  0  0  0  0  0  0
   13.2004  -29.4573  -15.5192 O   0  0  0  0  0  0  0  0  0  0  0  0
   18.1873  -20.6134  -18.9711 C   0  0  0  0  0  0  0  0  0  0  0  0
   19.0238  -19.4864  -19.3314 N   0  0  0  0  0  0  0  0  0  0  0  0
   17.4969  -28.4944  -15.4241 O   0  0  0  0  0  0  0  0  0  0  0  0
   13.5968  -27.4708  -18.5866 O   0  0  0  0  0  0  0  0  0  0  0  0
   11.4802  -29.3859  -17.2812 O   0  5  0  0  0  0  0  0  0  0  0  0
   18.6024  -21.8272  -19.2713 N   0  0  0  0  0  0  0  0  0  0  0  0
   15.6432  -28.0266  -17.1624 O   0  0  0  0  0  0  0  0  0  0  0  0
   13.9263  -29.9371  -17.9272 O   0  0  0  0  0  0  0  0  0  0  0  0
   12.4314  -31.5593  -16.5448 O   0  0  0  0  0  0  0  0  0  0  0  0
   17.8599  -22.8952  -18.9558 C   0  0  0  0  0  0  0  0  0  0  0  0
   16.6552  -22.6978  -18.3118 C   0  0  0  0  0  0  0  0  0  0  0  0
   16.2313  -21.3912  -18.0016 C   0  0  0  0  0  0  0  0  0  0  0  0
   15.0091  -21.1585  -17.3466 O   0  0  0  0  0  0  0  0  0  0  0  0
   16.1030  -23.9056  -18.1057 N   0  0  0  0  0  0  0  0  0  0  0  0
   16.9299  -24.8105  -18.5999 C   0  0  0  0  0  0  0  0  0  0  0  0
   17.9938  -24.2216  -19.1133 N   0  0  0  0  0  0  0  0  0  0  0  0
  1  5  1  6  0  0  0
  1 14  1  0  0  0  0
  1 19  2  0  0  0  0
  1 23  1  0  0  0  0
  2 15  1  6  0  0  0
  2 20  2  0  0  0  0
  2 23  1  0  0  0  0
  2 24  1  0  0  0  0
  3 16  1  1  0  0  0
  3 21  1  0  0  0  0
  3 24  1  0  0  0  0
  3 25  2  0  0  0  0
  4  5  1  0  0  0  0
  6  4  1  1  0  0  0
  6  7  1  0  0  0  0
  6  8  1  0  0  0  0
  7 12  1  0  0  0  0
  8  9  1  6  0  0  0
  8 10  1  0  0  0  0
 10 11  1  6  0  0  0
 10 12  1  0  0  0  0
 12 32  1  1  0  0  0
 13 17  2  0  0  0  0
 13 28  1  0  0  0  0
 17 18  1  0  0  0  0
 17 22  1  0  0  0  0
 22 26  2  0  0  0  0
 26 27  1  0  0  0  0
 26 32  1  0  0  0  0
 27 28  2  0  0  0  0
 27 30  1  0  0  0  0
 28 29  1  0  0  0  0
 30 31  2  0  0  0  0
 31 32  1  0  0  0  0
M  CHG  3  14  -1  15  -1  21  -1
M  END
>  <CHROM.1>
-154.83208770,-48.36506976,-53.92966743,68.93440080,-175.33031490,178.74046015
82.95495688,-165.89111744,16.70959213,-26.36280597,-18.00721793,-2.17612267
0.13756362,-0.14590853

>  <Name>
ligand

>  <RI>
0

>  <Rbt.Current_Directory>
/home/itssahil/PROJECTS/Mol_Feturizer/New_Systems/rnas/4Y1I

>  <Rbt.Executable>
rbdock ($Id: //depot/dev/client3/rdock/2013.1/src/exe/rbdock.cxx#4 $)

>  <Rbt.Library>
libRbt.so (2013.1, Build901 2013/11/27)

>  <Rbt.Parameter_File>
/export/apps/rDock/src/rDock_2013.1_src/data/scripts/dock_solv.prm

>  <Rbt.Receptor>
prm/pocket_docking_2.prm

>  <SCORE>
-3.46772

>  <SCORE.INTER>
2.70596

>  <SCORE.INTER.CONST>
1

>  <SCORE.INTER.POLAR>
0

>  <SCORE.INTER.ROT>
8

>  <SCORE.INTER.SOLV>
14.5009

>  <SCORE.INTER.VDW>
-11.963

>  <SCORE.INTER.norm>
0.0845612

>  <SCORE.INTRA>
-6.17608

>  <SCORE.INTRA.DIHEDRAL>
-7.04473

>  <SCORE.INTRA.DIHEDRAL.0>
10.9594

>  <SCORE.INTRA.POLAR>
0

>  <SCORE.INTRA.POLAR.0>
0

>  <SCORE.INTRA.REPUL>
0

>  <SCORE.INTRA.REPUL.0>
0

>  <SCORE.INTRA.SOLV>
-5.03439

>  <SCORE.INTRA.SOLV.lig_0>
-124.914

>  <SCORE.INTRA.VDW>
-0.136522

>  <SCORE.INTRA.VDW.0>
-4.69801

>  <SCORE.INTRA.norm>
-0.193003

>  <SCORE.RESTR>
0.00240651

>  <SCORE.RESTR.CAVITY>
0.00240651

>  <SCORE.RESTR.norm>
7.52034e-05

>  <SCORE.SYSTEM>
0

>  <SCORE.SYSTEM.CONST>
0

>  <SCORE.SYSTEM.DIHEDRAL>
0

>  <SCORE.SYSTEM.SOLV>
0

>  <SCORE.SYSTEM.norm>
0

>  <SCORE.heavy>
32

>  <SCORE.norm>
-0.108366

>  <RMSD>
1.076

$$$$
ligand
 OpenBabel11021811513D
libRbt.so/2013.1/901 2013/11/27
 32 34  0  0  0  0  0  0  0  0999 V2000
   17.1287  -28.9359  -16.8525 P   0  0  1  0  0  0  0  0  0  0  0  0
   14.8972  -28.9707  -18.6554 P   0  0  2  0  0  0  0  0  0  0  0  0
   12.2673  -28.5033  -17.4386 P   0  0  1  0  0  0  0  0  0  0  0  0
   18.9683  -27.1881  -17.4461 C   0  0  0  0  0  0  0  0  0  0  0  0
   18.2994  -28.3489  -17.8500 O   0  0  0  0  0  0  0  0  0  0  0  0
   19.8217  -26.7670  -18.4598 C   0  0  1  0  0  0  0  0  0  0  0  0
   19.0129  -26.2546  -19.6360 O   0  0  0  0  0  0  0  0  0  0  0  0
   20.7282  -25.5402  -17.9851 C   0  0  1  0  0  0  0  0  0  0  0  0
   22.1789  -25.9656  -17.9641 O   0  0  0  0  0  0  0  0  0  0  0  0
   20.6130  -24.6741  -18.8557 C   0  0  1  0  0  0  0  0  0  0  0  0
   21.7525  -24.7708  -19.7991 O   0  0  0  0  0  0  0  0  0  0  0  0
   19.1852  -24.9926  -19.6519 C   0  0  2  0  0  0  0  0  0  0  0  0
   16.9941  -20.5213  -18.3904 N   0  0  0  0  0  0  0  0  0  0  0  0
   17.0992  -30.4423  -16.9295 O   0  5  0  0  0  0  0  0  0  0  0  0
   14.8930  -30.4775  -18.5950 O   0  5  0  0  0  0  0  0  0  0  0  0
   12.7698  -27.6299  -16.3130 O   0  0  0  0  0  0  0  0  0  0  0  0
   18.1363  -20.7210  -19.0293 C   0  0  0  0  0  0  0  0  0  0  0  0
   18.9208  -19.5803  -19.4570 N   0  0  0  0  0  0  0  0  0  0  0  0
   17.4148  -28.4719  -15.4422 O   0  0  0  0  0  0  0  0  0  0  0  0
   15.6171  -28.5176  -19.8985 O   0  0  0  0  0  0  0  0  0  0  0  0
   10.9188  -27.9930  -17.8977 O   0  5  0  0  0  0  0  0  0  0  0  0
   18.5882  -21.9303  -19.2919 N   0  0  0  0  0  0  0  0  0  0  0  0
   15.6765  -28.3509  -17.3503 O   0  0  0  0  0  0  0  0  0  0  0  0
   13.3513  -28.4089  -18.6817 O   0  0  0  0  0  0  0  0  0  0  0  0
   12.1494  -29.9279  -16.9424 O   0  0  0  0  0  0  0  0  0  0  0  0
   17.8942  -23.0106  -18.9139 C   0  0  0  0  0  0  0  0  0  0  0  0
   16.7000  -22.8304  -18.2456 C   0  0  0  0  0  0  0  0  0  0  0  0
   16.2362  -21.5283  -17.9764 C   0  0  0  0  0  0  0  0  0  0  0  0
   15.0235  -21.3131  -17.2982 O   0  0  0  0  0  0  0  0  0  0  0  0
   16.1985  -24.0479  -17.9764 N   0  0  0  0  0  0  0  0  0  0  0  0
   17.0453  -24.9419  -18.4565 C   0  0  0  0  0  0  0  0  0  0  0  0
   18.0731  -24.3366  -19.0218 N   0  0  0  0  0  0  0  0  0  0  0  0
  1  5  1  6  0  0  0
  1 14  1  0  0  0  0
  1 19  2  0  0  0  0
  1 23  1  0  0  0  0
  2 15  1  1  0  0  0
  2 20  2  0  0  0  0
  2 23  1  0  0  0  0
  2 24  1  0  0  0  0
  3 16  1  1  0  0  0
  3 21  1  0  0  0  0
  3 24  1  0  0  0  0
  3 25  2  0  0  0  0
  4  5  1  0  0  0  0
  6  4  1  1  0  0  0
  6  7  1  0  0  0  0
  6  8  1  0  0  0  0
  7 12  1  0  0  0  0
  8  9  1  6  0  0  0
  8 10  1  0  0  0  0
 10 11  1  6  0  0  0
 10 12  1  0  0  0  0
 12 32  1  1  0  0  0
 13 17  2  0  0  0  0
 13 28  1  0  0  0  0
 17 18  1  0  0  0  0
 17 22  1  0  0  0  0
 22 26  2  0  0  0  0
 26 27  1  0  0  0  0
 26 32  1  0  0  0  0
 27 28  2  0  0  0  0
 27 30  1  0  0  0  0
 28 29  1  0  0  0  0
 30 31  2  0  0  0  0
 31 32  1  0  0  0  0
M  CHG  3  14  -1  15  -1  21  -1
M  END
>  <CHROM.1>
-146.48521794,46.61849801,66.45996426,69.36341740,-174.23181058,-176.89976056
77.33090254,67.85539751,16.71969740,-26.27018342,-18.12677486,-2.25456731
0.09601720,-0.11528215

>  <Name>
ligand

>  <RI>
0

>  <Rbt.Current_Directory>
/home/itssahil/PROJECTS/Mol_Feturizer/New_Systems/rnas/4Y1I

>  <Rbt.Executable>
rbdock ($Id: //depot/dev/client3/rdock/2013.1/src/exe/rbdock.cxx#4 $)

>  <Rbt.Library>
libRbt.so (2013.1, Build901 2013/11/27)

>  <Rbt.Parameter_File>
/export/apps/rDock/src/rDock_2013.1_src/data/scripts/dock_solv.prm

>  <Rbt.Receptor>
prm/pocket_docking_2.prm

>  <SCORE>
-2.89786

>  <SCORE.INTER>
2.58632

>  <SCORE.INTER.CONST>
1

>  <SCORE.INTER.POLAR>
0

>  <SCORE.INTER.ROT>
8

>  <SCORE.INTER.SOLV>
13.8979

>  <SCORE.INTER.VDW>
-11.8417

>  <SCORE.INTER.norm>
0.0808226

>  <SCORE.INTRA>
-5.48418

>  <SCORE.INTRA.DIHEDRAL>
-6.89773

>  <SCORE.INTRA.DIHEDRAL.0>
10.9594

>  <SCORE.INTRA.POLAR>
0

>  <SCORE.INTRA.POLAR.0>
0

>  <SCORE.INTRA.REPUL>
0.00710656

>  <SCORE.INTRA.REPUL.0>
0

>  <SCORE.INTRA.SOLV>
-4.84752

>  <SCORE.INTRA.SOLV.lig_0>
-124.914

>  <SCORE.INTRA.VDW>
0.352914

>  <SCORE.INTRA.VDW.0>
-4.69801

>  <SCORE.INTRA.norm>
-0.171381

>  <SCORE.RESTR>
0

>  <SCORE.RESTR.CAVITY>
0

>  <SCORE.RESTR.norm>
0

>  <SCORE.SYSTEM>
0

>  <SCORE.SYSTEM.CONST>
0

>  <SCORE.SYSTEM.DIHEDRAL>
0

>  <SCORE.SYSTEM.SOLV>
0

>  <SCORE.SYSTEM.norm>
0

>  <SCORE.heavy>
32

>  <SCORE.norm>
-0.090558

>  <RMSD>
1.121

$$$$
ligand
 OpenBabel11021811513D
libRbt.so/2013.1/901 2013/11/27
 32 34  0  0  0  0  0  0  0  0999 V2000
   16.3731  -28.5032  -17.9695 P   0  0  1  0  0  0  0  0  0  0  0  0
   13.6998  -29.1392  -18.7940 P   0  0  2  0  0  0  0  0  0  0  0  0
   11.9258  -29.7417  -16.5345 P   0  0  1  0  0  0  0  0  0  0  0  0
   18.7687  -27.4847  -17.8466 C   0  0  0  0  0  0  0  0  0  0  0  0
   17.7249  -27.8932  -18.6842 O   0  0  0  0  0  0  0  0  0  0  0  0
   19.7976  -26.9496  -18.6136 C   0  0  1  0  0  0  0  0  0  0  0  0
   19.2216  -26.0959  -19.7268 O   0  0  0  0  0  0  0  0  0  0  0  0
   20.7216  -25.9747  -17.7487 C   0  0  1  0  0  0  0  0  0  0  0  0
   22.1118  -26.5603  -17.6451 O   0  0  0  0  0  0  0  0  0  0  0  0
   20.8122  -24.9282  -18.3951 C   0  0  1  0  0  0  0  0  0  0  0  0
   22.0689  -24.9433  -19.1813 O   0  0  0  0  0  0  0  0  0  0  0  0
   19.4994  -24.8914  -19.4194 C   0  0  2  0  0  0  0  0  0  0  0  0
   16.8658  -20.5454  -18.6700 N   0  0  0  0  0  0  0  0  0  0  0  0
   16.5643  -29.9721  -17.6834 O   0  5  0  0  0  0  0  0  0  0  0  0
   13.8156  -30.5362  -19.3501 O   0  5  0  0  0  0  0  0  0  0  0  0
   10.7994  -28.9315  -17.1321 O   0  0  0  0  0  0  0  0  0  0  0  0
   17.9735  -20.7196  -19.3739 C   0  0  0  0  0  0  0  0  0  0  0  0
   18.5752  -19.5853  -20.0454 N   0  0  0  0  0  0  0  0  0  0  0  0
   16.1084  -27.7340  -16.6950 O   0  0  0  0  0  0  0  0  0  0  0  0
   12.6086  -28.3963  -19.5195 O   0  0  0  0  0  0  0  0  0  0  0  0
   11.7242  -31.2010  -16.8802 O   0  5  0  0  0  0  0  0  0  0  0  0
   18.5523  -21.8977  -19.4862 N   0  0  0  0  0  0  0  0  0  0  0  0
   15.1093  -28.3244  -19.0037 O   0  0  0  0  0  0  0  0  0  0  0  0
   13.3445  -29.2050  -17.1892 O   0  0  0  0  0  0  0  0  0  0  0  0
   11.9270  -29.5520  -15.0333 O   0  0  0  0  0  0  0  0  0  0  0  0
   18.0289  -22.9709  -18.8815 C   0  0  0  0  0  0  0  0  0  0  0  0
   16.8744  -22.8168  -18.1408 C   0  0  0  0  0  0  0  0  0  0  0  0
   16.2726  -21.5480  -18.0354 C   0  0  0  0  0  0  0  0  0  0  0  0
   15.0962  -21.3600  -17.2887 O   0  0  0  0  0  0  0  0  0  0  0  0
   16.5505  -24.0210  -17.6398 N   0  0  0  0  0  0  0  0  0  0  0  0
   17.4646  -24.8822  -18.0518 C   0  0  0  0  0  0  0  0  0  0  0  0
   18.3637  -24.2681  -18.7980 N   0  0  0  0  0  0  0  0  0  0  0  0
  1  5  1  6  0  0  0
  1 14  1  0  0  0  0
  1 19  2  0  0  0  0
  1 23  1  0  0  0  0
  2 15  1  6  0  0  0
  2 20  2  0  0  0  0
  2 23  1  0  0  0  0
  2 24  1  0  0  0  0
  3 16  1  6  0  0  0
  3 21  1  0  0  0  0
  3 24  1  0  0  0  0
  3 25  2  0  0  0  0
  4  5  1  0  0  0  0
  6  4  1  1  0  0  0
  6  7  1  0  0  0  0
  6  8  1  0  0  0  0
  7 12  1  0  0  0  0
  8  9  1  6  0  0  0
  8 10  1  0  0  0  0
 10 11  1  6  0  0  0
 10 12  1  0  0  0  0
 12 32  1  1  0  0  0
 13 17  2  0  0  0  0
 13 28  1  0  0  0  0
 17 18  1  0  0  0  0
 17 22  1  0  0  0  0
 22 26  2  0  0  0  0
 26 27  1  0  0  0  0
 26 32  1  0  0  0  0
 27 28  2  0  0  0  0
 27 30  1  0  0  0  0
 28 29  1  0  0  0  0
 30 31  2  0  0  0  0
 31 32  1  0  0  0  0
M  CHG  3  14  -1  15  -1  21  -1
M  END
>  <CHROM.1>
-84.49368808,-82.05931526,-56.34969694,40.66144043,-177.55919352,-147.86044403
164.55295055,-67.87762400,16.35836398,-26.47121671,-18.16265462,-2.32523708
0.13805703,-0.08107437

>  <Name>
ligand

>  <RI>
0

>  <Rbt.Current_Directory>
/home/itssahil/PROJECTS/Mol_Feturizer/New_Systems/rnas/4Y1I

>  <Rbt.Executable>
rbdock ($Id: //depot/dev/client3/rdock/2013.1/src/exe/rbdock.cxx#4 $)

>  <Rbt.Library>
libRbt.so (2013.1, Build901 2013/11/27)

>  <Rbt.Parameter_File>
/export/apps/rDock/src/rDock_2013.1_src/data/scripts/dock_solv.prm

>  <Rbt.Receptor>
prm/pocket_docking_2.prm

>  <SCORE>
-2.29446

>  <SCORE.INTER>
2.29442

>  <SCORE.INTER.CONST>
1

>  <SCORE.INTER.POLAR>
0

>  <SCORE.INTER.ROT>
8

>  <SCORE.INTER.SOLV>
11.5162

>  <SCORE.INTER.VDW>
-11.2424

>  <SCORE.INTER.norm>
0.0717006

>  <SCORE.INTRA>
-4.58888

>  <SCORE.INTRA.DIHEDRAL>
-6.46188

>  <SCORE.INTRA.DIHEDRAL.0>
10.9594

>  <SCORE.INTRA.POLAR>
0

>  <SCORE.INTRA.POLAR.0>
0

>  <SCORE.INTRA.REPUL>
0

>  <SCORE.INTRA.REPUL.0>
0

>  <SCORE.INTRA.SOLV>
-4.15675

>  <SCORE.INTRA.SOLV.lig_0>
-124.914

>  <SCORE.INTRA.VDW>
0.720441

>  <SCORE.INTRA.VDW.0>
-4.69801

>  <SCORE.INTRA.norm>
-0.143402

>  <SCORE.RESTR>
0

>  <SCORE.RESTR.CAVITY>
0

>  <SCORE.RESTR.norm>
0

>  <SCORE.SYSTEM>
0

>  <SCORE.SYSTEM.CONST>
0

>  <SCORE.SYSTEM.DIHEDRAL>
0

>  <SCORE.SYSTEM.SOLV>
0

>  <SCORE.SYSTEM.norm>
0

>  <SCORE.heavy>
32

>  <SCORE.norm>
-0.0717018

>  <RMSD>
1.209

$$$$
ligand
 OpenBabel11021811513D
libRbt.so/2013.1/901 2013/11/27
 32 34  0  0  0  0  0  0  0  0999 V2000
   17.0007  -29.3031  -17.5163 P   0  0  1  0  0  0  0  0  0  0  0  0
   14.3232  -29.4528  -18.5358 P   0  0  2  0  0  0  0  0  0  0  0  0
   12.4113  -30.5204  -16.5812 P   0  0  1  0  0  0  0  0  0  0  0  0
   18.2410  -27.4510  -18.8665 C   0  0  0  0  0  0  0  0  0  0  0  0
   18.3751  -28.6265  -18.1194 O   0  0  0  0  0  0  0  0  0  0  0  0
   19.4986  -26.9132  -19.1162 C   0  0  1  0  0  0  0  0  0  0  0  0
   19.3636  -25.6401  -19.9292 O   0  0  0  0  0  0  0  0  0  0  0  0
   20.2303  -26.4905  -17.7604 C   0  0  1  0  0  0  0  0  0  0  0  0
   21.4606  -27.3474  -17.5648 O   0  0  0  0  0  0  0  0  0  0  0  0
   20.6147  -25.3305  -17.9276 C   0  0  1  0  0  0  0  0  0  0  0  0
   22.0363  -25.3395  -18.3480 O   0  0  0  0  0  0  0  0  0  0  0  0
   19.6665  -24.6893  -19.1375 C   0  0  2  0  0  0  0  0  0  0  0  0
   16.8017  -20.4424  -18.7603 N   0  0  0  0  0  0  0  0  0  0  0  0
   17.3204  -30.6367  -16.8875 O   0  5  0  0  0  0  0  0  0  0  0  0
   13.6035  -29.8149  -19.8106 O   0  5  0  0  0  0  0  0  0  0  0  0
   12.1065  -29.1264  -16.0850 O   0  0  0  0  0  0  0  0  0  0  0  0
   17.9519  -20.5994  -19.3968 C   0  0  0  0  0  0  0  0  0  0  0  0
   18.5361  -19.4738  -20.0978 N   0  0  0  0  0  0  0  0  0  0  0  0
   16.3986  -28.3572  -16.5019 O   0  0  0  0  0  0  0  0  0  0  0  0
   13.9712  -28.0425  -18.1410 O   0  0  0  0  0  0  0  0  0  0  0  0
   11.3435  -30.9395  -17.5681 O   0  5  0  0  0  0  0  0  0  0  0  0
   18.5890  -21.7524  -19.4153 N   0  0  0  0  0  0  0  0  0  0  0  0
   15.9477  -29.5395  -18.7548 O   0  0  0  0  0  0  0  0  0  0  0  0
   13.8818  -30.4849  -17.3333 O   0  0  0  0  0  0  0  0  0  0  0  0
   12.4392  -31.4683  -15.4022 O   0  0  0  0  0  0  0  0  0  0  0  0
   18.0836  -22.8167  -18.7801 C   0  0  0  0  0  0  0  0  0  0  0  0
   16.8857  -22.6801  -18.1082 C   0  0  0  0  0  0  0  0  0  0  0  0
   16.2219  -21.4382  -18.1027 C   0  0  0  0  0  0  0  0  0  0  0  0
   15.0003  -21.2686  -17.4277 O   0  0  0  0  0  0  0  0  0  0  0  0
   16.5909  -23.8709  -17.5593 N   0  0  0  0  0  0  0  0  0  0  0  0
   17.5638  -24.7071  -17.8770 C   0  0  0  0  0  0  0  0  0  0  0  0
   18.4723  -24.0901  -18.6092 N   0  0  0  0  0  0  0  0  0  0  0  0
  1  5  1  6  0  0  0
  1 14  1  0  0  0  0
  1 19  2  0  0  0  0
  1 23  1  0  0  0  0
  2 15  1  6  0  0  0
  2 20  2  0  0  0  0
  2 23  1  0  0  0  0
  2 24  1  0  0  0  0
  3 16  1  1  0  0  0
  3 21  1  0  0  0  0
  3 24  1  0  0  0  0
  3 25  2  0  0  0  0
  4  5  1  0  0  0  0
  6  4  1  1  0  0  0
  6  7  1  0  0  0  0
  6  8  1  0  0  0  0
  7 12  1  0  0  0  0
  8  9  1  6  0  0  0
  8 10  1  0  0  0  0
 10 11  1  6  0  0  0
 10 12  1  0  0  0  0
 12 32  1  1  0  0  0
 13 17  2  0  0  0  0
 13 28  1  0  0  0  0
 17 18  1  0  0  0  0
 17 22  1  0  0  0  0
 22 26  2  0  0  0  0
 26 27  1  0  0  0  0
 26 32  1  0  0  0  0
 27 28  2  0  0  0  0
 27 30  1  0  0  0  0
 28 29  1  0  0  0  0
 30 31  2  0  0  0  0
 31 32  1  0  0  0  0
M  CHG  3  14  -1  15  -1  21  -1
M  END
>  <CHROM.1>
173.28776166,-175.65013557,-52.85815919,179.84673778,170.85764638,-118.17720908
-148.30591636,-71.38448257,16.58899800,-26.75150596,-18.03604860,-2.15537951
0.11642818,-0.12500423

>  <Name>
ligand

>  <RI>
0

>  <Rbt.Current_Directory>
/home/itssahil/PROJECTS/Mol_Feturizer/New_Systems/rnas/4Y1I

>  <Rbt.Executable>
rbdock ($Id: //depot/dev/client3/rdock/2013.1/src/exe/rbdock.cxx#4 $)

>  <Rbt.Library>
libRbt.so (2013.1, Build901 2013/11/27)

>  <Rbt.Parameter_File>
/export/apps/rDock/src/rDock_2013.1_src/data/scripts/dock_solv.prm

>  <Rbt.Receptor>
prm/pocket_docking_2.prm

>  <SCORE>
-3.41834

>  <SCORE.INTER>
2.15644

>  <SCORE.INTER.CONST>
1

>  <SCORE.INTER.POLAR>
0

>  <SCORE.INTER.ROT>
8

>  <SCORE.INTER.SOLV>
11.8233

>  <SCORE.INTER.VDW>
-11.4368

>  <SCORE.INTER.norm>
0.0673886

>  <SCORE.INTRA>
-5.57477

>  <SCORE.INTRA.DIHEDRAL>
-7.65342

>  <SCORE.INTRA.DIHEDRAL.0>
10.9594

>  <SCORE.INTRA.POLAR>
0

>  <SCORE.INTRA.POLAR.0>
0

>  <SCORE.INTRA.REPUL>
0

>  <SCORE.INTRA.REPUL.0>
0

>  <SCORE.INTRA.SOLV>
-4.26614

>  <SCORE.INTRA.SOLV.lig_0>
-124.914

>  <SCORE.INTRA.VDW>
0.385008

>  <SCORE.INTRA.VDW.0>
-4.69801

>  <SCORE.INTRA.norm>
-0.174212

>  <SCORE.RESTR>
0

>  <SCORE.RESTR.CAVITY>
0

>  <SCORE.RESTR.norm>
0

>  <SCORE.SYSTEM>
0

>  <SCORE.SYSTEM.CONST>
0

>  <SCORE.SYSTEM.DIHEDRAL>
0

>  <SCORE.SYSTEM.SOLV>
0

>  <SCORE.SYSTEM.norm>
0

>  <SCORE.heavy>
32

>  <SCORE.norm>
-0.106823

>  <RMSD>
1.230

$$$$
ligand
 OpenBabel11021811513D
libRbt.so/2013.1/901 2013/11/27
 32 34  0  0  0  0  0  0  0  0999 V2000
   16.7611  -28.5983  -17.6429 P   0  0  1  0  0  0  0  0  0  0  0  0
   14.2822  -29.9236  -18.2171 P   0  0  2  0  0  0  0  0  0  0  0  0
   11.9472  -28.9364  -16.7378 P   0  0  1  0  0  0  0  0  0  0  0  0
   18.9849  -27.2461  -17.7750 C   0  0  0  0  0  0  0  0  0  0  0  0
   18.0317  -27.9811  -18.4884 O   0  0  0  0  0  0  0  0  0  0  0  0
   19.9182  -26.7146  -18.6581 C   0  0  1  0  0  0  0  0  0  0  0  0
   19.2086  -25.9770  -19.7771 O   0  0  0  0  0  0  0  0  0  0  0  0
   20.8471  -25.6310  -17.9404 C   0  0  1  0  0  0  0  0  0  0  0  0
   22.2732  -26.1324  -17.9099 O   0  0  0  0  0  0  0  0  0  0  0  0
   20.8256  -24.6314  -18.6628 C   0  0  1  0  0  0  0  0  0  0  0  0
   22.0166  -24.6373  -19.5456 O   0  0  0  0  0  0  0  0  0  0  0  0
   19.4378  -24.7401  -19.5772 C   0  0  2  0  0  0  0  0  0  0  0  0
   16.8505  -20.4097  -18.6082 N   0  0  0  0  0  0  0  0  0  0  0  0
   17.2530  -29.6381  -16.6667 O   0  5  0  0  0  0  0  0  0  0  0  0
   14.4943  -31.0757  -17.2674 O   0  5  0  0  0  0  0  0  0  0  0  0
   11.0147  -29.6026  -17.7221 O   0  0  0  0  0  0  0  0  0  0  0  0
   17.9432  -20.5634  -19.3396 C   0  0  0  0  0  0  0  0  0  0  0  0
   18.5403  -19.4077  -19.9778 N   0  0  0  0  0  0  0  0  0  0  0  0
   16.0623  -27.4675  -16.9223 O   0  0  0  0  0  0  0  0  0  0  0  0
   13.5374  -30.4043  -19.4349 O   0  0  0  0  0  0  0  0  0  0  0  0
   12.1015  -29.8245  -15.5224 O   0  5  0  0  0  0  0  0  0  0  0  0
   18.5113  -21.7400  -19.5089 N   0  0  0  0  0  0  0  0  0  0  0  0
   15.7265  -29.3115  -18.7010 O   0  0  0  0  0  0  0  0  0  0  0  0
   13.4130  -28.7409  -17.4744 O   0  0  0  0  0  0  0  0  0  0  0  0
   11.3685  -27.5962  -16.3399 O   0  0  0  0  0  0  0  0  0  0  0  0
   17.9917  -22.8326  -18.9365 C   0  0  0  0  0  0  0  0  0  0  0  0
   16.8527  -22.7001  -18.1682 C   0  0  0  0  0  0  0  0  0  0  0  0
   16.2622  -21.4325  -18.0018 C   0  0  0  0  0  0  0  0  0  0  0  0
   15.1017  -21.2662  -17.2257 O   0  0  0  0  0  0  0  0  0  0  0  0
   16.5297  -23.9209  -17.7083 N   0  0  0  0  0  0  0  0  0  0  0  0
   17.4295  -24.7712  -18.1712 C   0  0  0  0  0  0  0  0  0  0  0  0
   18.3187  -24.1343  -18.9101 N   0  0  0  0  0  0  0  0  0  0  0  0
  1  5  1  6  0  0  0
  1 14  1  0  0  0  0
  1 19  2  0  0  0  0
  1 23  1  0  0  0  0
  2 15  1  1  0  0  0
  2 20  2  0  0  0  0
  2 23  1  0  0  0  0
  2 24  1  0  0  0  0
  3 16  1  6  0  0  0
  3 21  1  0  0  0  0
  3 24  1  0  0  0  0
  3 25  2  0  0  0  0
  4  5  1  0  0  0  0
  6  4  1  1  0  0  0
  6  7  1  0  0  0  0
  6  8  1  0  0  0  0
  7 12  1  0  0  0  0
  8  9  1  6  0  0  0
  8 10  1  0  0  0  0
 10 11  1  6  0  0  0
 10 12  1  0  0  0  0
 12 32  1  1  0  0  0
 13 17  2  0  0  0  0
 13 28  1  0  0  0  0
 17 18  1  0  0  0  0
 17 22  1  0  0  0  0
 22 26  2  0  0  0  0
 26 27  1  0  0  0  0
 26 32  1  0  0  0  0
 27 28  2  0  0  0  0
 27 30  1  0  0  0  0
 28 29  1  0  0  0  0
 30 31  2  0  0  0  0
 31 32  1  0  0  0  0
M  CHG  3  14  -1  15  -1  21  -1
M  END
>  <CHROM.1>
-65.50038348,-64.37800435,-52.82497151,51.36678391,-175.19664742,-155.92717359
-174.76891640,-54.32494687,16.52705340,-26.37620579,-18.07754590,-2.28487732
0.17755423,-0.07971039

>  <Name>
ligand

>  <RI>
0

>  <Rbt.Current_Directory>
/home/itssahil/PROJECTS/Mol_Feturizer/New_Systems/rnas/4Y1I

>  <Rbt.Executable>
rbdock ($Id: //depot/dev/client3/rdock/2013.1/src/exe/rbdock.cxx#4 $)

>  <Rbt.Library>
libRbt.so (2013.1, Build901 2013/11/27)

>  <Rbt.Parameter_File>
/export/apps/rDock/src/rDock_2013.1_src/data/scripts/dock_solv.prm

>  <Rbt.Receptor>
prm/pocket_docking_2.prm

>  <SCORE>
-3.61884

>  <SCORE.INTER>
2.40531

>  <SCORE.INTER.CONST>
1

>  <SCORE.INTER.POLAR>
0

>  <SCORE.INTER.ROT>
8

>  <SCORE.INTER.SOLV>
11.8233

>  <SCORE.INTER.VDW>
-11.2709

>  <SCORE.INTER.norm>
0.0751659

>  <SCORE.INTRA>
-6.02415

>  <SCORE.INTRA.DIHEDRAL>
-9.11994

>  <SCORE.INTRA.DIHEDRAL.0>
10.9594

>  <SCORE.INTRA.POLAR>
0

>  <SCORE.INTRA.POLAR.0>
0

>  <SCORE.INTRA.REPUL>
0

>  <SCORE.INTRA.REPUL.0>
0

>  <SCORE.INTRA.SOLV>
-3.63536

>  <SCORE.INTRA.SOLV.lig_0>
-124.914

>  <SCORE.INTRA.VDW>
0.3535

>  <SCORE.INTRA.VDW.0>
-4.69801

>  <SCORE.INTRA.norm>
-0.188255

>  <SCORE.RESTR>
0

>  <SCORE.RESTR.CAVITY>
0

>  <SCORE.RESTR.norm>
0

>  <SCORE.SYSTEM>
0

>  <SCORE.SYSTEM.CONST>
0

>  <SCORE.SYSTEM.DIHEDRAL>
0

>  <SCORE.SYSTEM.SOLV>
0

>  <SCORE.SYSTEM.norm>
0

>  <SCORE.heavy>
32

>  <SCORE.norm>
-0.113089

>  <RMSD>
1.295

$$$$
ligand
 OpenBabel11021811513D
libRbt.so/2013.1/901 2013/11/27
 32 34  0  0  0  0  0  0  0  0999 V2000
   16.8283  -29.1450  -17.5949 P   0  0  1  0  0  0  0  0  0  0  0  0
   14.1766  -28.1252  -17.1955 P   0  0  2  0  0  0  0  0  0  0  0  0
   12.0608  -30.0140  -16.4397 P   0  0  1  0  0  0  0  0  0  0  0  0
   18.8694  -27.5268  -17.6768 C   0  0  0  0  0  0  0  0  0  0  0  0
   18.0315  -28.3732  -18.4114 O   0  0  0  0  0  0  0  0  0  0  0  0
   19.8475  -27.0008  -18.5134 C   0  0  1  0  0  0  0  0  0  0  0  0
   19.1978  -26.2351  -19.6498 O   0  0  0  0  0  0  0  0  0  0  0  0
   20.7654  -25.9443  -17.7430 C   0  0  1  0  0  0  0  0  0  0  0  0
   22.1798  -26.4723  -17.6615 O   0  0  0  0  0  0  0  0  0  0  0  0
   20.7914  -24.9348  -18.4513 C   0  0  1  0  0  0  0  0  0  0  0  0
   22.0174  -24.9507  -19.2847 O   0  0  0  0  0  0  0  0  0  0  0  0
   19.4406  -25.0054  -19.4230 C   0  0  2  0  0  0  0  0  0  0  0  0
   16.8577  -20.6513  -18.5538 N   0  0  0  0  0  0  0  0  0  0  0  0
   16.0642  -30.0418  -18.5372 O   0  5  0  0  0  0  0  0  0  0  0  0
   13.8336  -28.0864  -18.6635 O   0  5  0  0  0  0  0  0  0  0  0  0
   11.4800  -29.9865  -17.8340 O   0  0  0  0  0  0  0  0  0  0  0  0
   17.9713  -20.8167  -19.2504 C   0  0  0  0  0  0  0  0  0  0  0  0
   18.5966  -19.6684  -19.8750 N   0  0  0  0  0  0  0  0  0  0  0  0
   17.4416  -29.9432  -16.4666 O   0  0  0  0  0  0  0  0  0  0  0  0
   13.5280  -26.9601  -16.4950 O   0  0  0  0  0  0  0  0  0  0  0  0
   11.9905  -31.4264  -15.9014 O   0  5  0  0  0  0  0  0  0  0  0  0
   18.5354  -21.9982  -19.3968 N   0  0  0  0  0  0  0  0  0  0  0  0
   15.8012  -28.0158  -16.9875 O   0  0  0  0  0  0  0  0  0  0  0  0
   13.6381  -29.5316  -16.5336 O   0  0  0  0  0  0  0  0  0  0  0  0
   11.2686  -29.0746  -15.5569 O   0  0  0  0  0  0  0  0  0  0  0  0
   17.9900  -23.0843  -18.8359 C   0  0  0  0  0  0  0  0  0  0  0  0
   16.8289  -22.9396  -18.1038 C   0  0  0  0  0  0  0  0  0  0  0  0
   16.2432  -21.6669  -17.9614 C   0  0  0  0  0  0  0  0  0  0  0  0
   15.0605  -21.4883  -17.2223 O   0  0  0  0  0  0  0  0  0  0  0  0
   16.4826  -24.1558  -17.6487 N   0  0  0  0  0  0  0  0  0  0  0  0
   17.3897  -25.0149  -18.0797 C   0  0  0  0  0  0  0  0  0  0  0  0
   18.3061  -24.3882  -18.7936 N   0  0  0  0  0  0  0  0  0  0  0  0
  1  5  1  6  0  0  0
  1 14  1  0  0  0  0
  1 19  2  0  0  0  0
  1 23  1  0  0  0  0
  2 15  1  6  0  0  0
  2 20  2  0  0  0  0
  2 23  1  0  0  0  0
  2 24  1  0  0  0  0
  3 16  1  6  0  0  0
  3 21  1  0  0  0  0
  3 24  1  0  0  0  0
  3 25  2  0  0  0  0
  4  5  1  0  0  0  0
  6  4  1  1  0  0  0
  6  7  1  0  0  0  0
  6  8  1  0  0  0  0
  7 12  1  0  0  0  0
  8  9  1  6  0  0  0
  8 10  1  0  0  0  0
 10 11  1  6  0  0  0
 10 12  1  0  0  0  0
 12 32  1  1  0  0  0
 13 17  2  0  0  0  0
 13 28  1  0  0  0  0
 17 18  1  0  0  0  0
 17 22  1  0  0  0  0
 22 26  2  0  0  0  0
 26 27  1  0  0  0  0
 26 32  1  0  0  0  0
 27 28  2  0  0  0  0
 27 30  1  0  0  0  0
 28 29  1  0  0  0  0
 30 31  2  0  0  0  0
 31 32  1  0  0  0  0
M  CHG  3  14  -1  15  -1  21  -1
M  END
>  <CHROM.1>
-178.13101643,-61.35014230,55.02746581,58.85495028,177.97281670,-154.57606234
130.57457805,-62.45706984,16.52104397,-26.49475782,-17.83487503,-2.29898401
0.18716813,-0.13598769

>  <Name>
ligand

>  <RI>
0

>  <Rbt.Current_Directory>
/home/itssahil/PROJECTS/Mol_Feturizer/New_Systems/rnas/4Y1I

>  <Rbt.Executable>
rbdock ($Id: //depot/dev/client3/rdock/2013.1/src/exe/rbdock.cxx#4 $)

>  <Rbt.Library>
libRbt.so (2013.1, Build901 2013/11/27)

>  <Rbt.Parameter_File>
/export/apps/rDock/src/rDock_2013.1_src/data/scripts/dock_solv.prm

>  <Rbt.Receptor>
prm/pocket_docking_2.prm

>  <SCORE>
-3.30524

>  <SCORE.INTER>
2.41262

>  <SCORE.INTER.CONST>
1

>  <SCORE.INTER.POLAR>
0

>  <SCORE.INTER.ROT>
8

>  <SCORE.INTER.SOLV>
11.8141

>  <SCORE.INTER.VDW>
-11.2629

>  <SCORE.INTER.norm>
0.0753943

>  <SCORE.INTRA>
-5.71785

>  <SCORE.INTRA.DIHEDRAL>
-7.39954

>  <SCORE.INTRA.DIHEDRAL.0>
10.9594

>  <SCORE.INTRA.POLAR>
0

>  <SCORE.INTRA.POLAR.0>
0

>  <SCORE.INTRA.REPUL>
0

>  <SCORE.INTRA.REPUL.0>
0

>  <SCORE.INTRA.SOLV>
-4.87801

>  <SCORE.INTRA.SOLV.lig_0>
-124.914

>  <SCORE.INTRA.VDW>
0.420923

>  <SCORE.INTRA.VDW.0>
-4.69801

>  <SCORE.INTRA.norm>
-0.178683

>  <SCORE.RESTR>
0

>  <SCORE.RESTR.CAVITY>
0

>  <SCORE.RESTR.norm>
0

>  <SCORE.SYSTEM>
0

>  <SCORE.SYSTEM.CONST>
0

>  <SCORE.SYSTEM.DIHEDRAL>
0

>  <SCORE.SYSTEM.SOLV>
0

>  <SCORE.SYSTEM.norm>
0

>  <SCORE.heavy>
32

>  <SCORE.norm>
-0.103289

>  <RMSD>
1.307

$$$$
ligand
 OpenBabel11021811513D
libRbt.so/2013.1/901 2013/11/27
 32 34  0  0  0  0  0  0  0  0999 V2000
   16.8827  -29.1864  -17.0801 P   0  0  1  0  0  0  0  0  0  0  0  0
   14.1267  -28.4183  -16.8665 P   0  0  2  0  0  0  0  0  0  0  0  0
   12.0751  -30.5017  -16.6096 P   0  0  1  0  0  0  0  0  0  0  0  0
   18.0757  -27.4839  -18.6516 C   0  0  0  0  0  0  0  0  0  0  0  0
   18.2367  -28.5720  -17.7866 O   0  0  0  0  0  0  0  0  0  0  0  0
   19.3230  -26.9729  -18.9927 C   0  0  1  0  0  0  0  0  0  0  0  0
   19.1568  -25.7571  -19.8838 O   0  0  0  0  0  0  0  0  0  0  0  0
   20.1159  -26.4641  -17.7026 C   0  0  1  0  0  0  0  0  0  0  0  0
   21.3504  -27.3141  -17.5036 O   0  0  0  0  0  0  0  0  0  0  0  0
   20.4969  -25.3208  -17.9653 C   0  0  1  0  0  0  0  0  0  0  0  0
   21.8984  -25.3680  -18.4465 O   0  0  0  0  0  0  0  0  0  0  0  0
   19.4983  -24.7568  -19.1731 C   0  0  2  0  0  0  0  0  0  0  0  0
   16.8245  -20.3944  -18.7195 N   0  0  0  0  0  0  0  0  0  0  0  0
   16.7185  -30.6363  -17.4637 O   0  5  0  0  0  0  0  0  0  0  0  0
   13.1060  -27.5967  -17.6132 O   0  5  0  0  0  0  0  0  0  0  0  0
   11.2933  -30.0631  -17.8256 O   0  0  0  0  0  0  0  0  0  0  0  0
   17.9675  -20.5906  -19.3579 C   0  0  0  0  0  0  0  0  0  0  0  0
   18.6022  -19.4794  -20.0377 N   0  0  0  0  0  0  0  0  0  0  0  0
   17.0055  -29.0342  -15.5808 O   0  0  0  0  0  0  0  0  0  0  0  0
   14.2882  -27.8753  -15.4709 O   0  0  0  0  0  0  0  0  0  0  0  0
   12.0445  -32.0118  -16.5189 O   0  5  0  0  0  0  0  0  0  0  0  0
   18.5527  -21.7702  -19.3973 N   0  0  0  0  0  0  0  0  0  0  0  0
   15.5814  -28.3435  -17.6233 O   0  0  0  0  0  0  0  0  0  0  0  0
   13.6341  -29.9860  -16.7911 O   0  0  0  0  0  0  0  0  0  0  0  0
   11.4518  -29.8878  -15.3750 O   0  0  0  0  0  0  0  0  0  0  0  0
   17.9996  -22.8225  -18.7822 C   0  0  0  0  0  0  0  0  0  0  0  0
   16.8079  -22.6452  -18.1088 C   0  0  0  0  0  0  0  0  0  0  0  0
   16.2001  -21.3753  -18.0808 C   0  0  0  0  0  0  0  0  0  0  0  0
   14.9861  -21.1640  -17.4036 O   0  0  0  0  0  0  0  0  0  0  0  0
   16.4596  -23.8316  -17.5820 N   0  0  0  0  0  0  0  0  0  0  0  0
   17.3949  -24.7043  -17.9145 C   0  0  0  0  0  0  0  0  0  0  0  0
   18.3311  -24.1149  -18.6345 N   0  0  0  0  0  0  0  0  0  0  0  0
  1  5  1  6  0  0  0
  1 14  1  0  0  0  0
  1 19  2  0  0  0  0
  1 23  1  0  0  0  0
  2 15  1  6  0  0  0
  2 20  2  0  0  0  0
  2 23  1  0  0  0  0
  2 24  1  0  0  0  0
  3 16  1  6  0  0  0
  3 21  1  0  0  0  0
  3 24  1  0  0  0  0
  3 25  2  0  0  0  0
  4  5  1  0  0  0  0
  6  4  1  1  0  0  0
  6  7  1  0  0  0  0
  6  8  1  0  0  0  0
  7 12  1  0  0  0  0
  8  9  1  6  0  0  0
  8 10  1  0  0  0  0
 10 11  1  6  0  0  0
 10 12  1  0  0  0  0
 12 32  1  1  0  0  0
 13 17  2  0  0  0  0
 13 28  1  0  0  0  0
 17 18  1  0  0  0  0
 17 22  1  0  0  0  0
 22 26  2  0  0  0  0
 26 27  1  0  0  0  0
 26 32  1  0  0  0  0
 27 28  2  0  0  0  0
 27 30  1  0  0  0  0
 28 29  1  0  0  0  0
 30 31  2  0  0  0  0
 31 32  1  0  0  0  0
M  CHG  3  14  -1  15  -1  21  -1
M  END
>  <CHROM.1>
120.30720058,-177.53388005,63.87845203,-177.64422850,171.06176357,-124.21456204
-164.37178469,-36.56737487,16.43884439,-26.58636187,-17.69423684,-2.19334764
0.15475596,-0.17345881

>  <Name>
ligand

>  <RI>
0

>  <Rbt.Current_Directory>
/home/itssahil/PROJECTS/Mol_Feturizer/New_Systems/rnas/4Y1I

>  <Rbt.Executable>
rbdock ($Id: //depot/dev/client3/rdock/2013.1/src/exe/rbdock.cxx#4 $)

>  <Rbt.Library>
libRbt.so (2013.1, Build901 2013/11/27)

>  <Rbt.Parameter_File>
/export/apps/rDock/src/rDock_2013.1_src/data/scripts/dock_solv.prm

>  <Rbt.Receptor>
prm/pocket_docking_2.prm

>  <SCORE>
-2.02528

>  <SCORE.INTER>
2.26671

>  <SCORE.INTER.CONST>
1

>  <SCORE.INTER.POLAR>
0

>  <SCORE.INTER.ROT>
8

>  <SCORE.INTER.SOLV>
12.0161

>  <SCORE.INTER.VDW>
-11.4276

>  <SCORE.INTER.norm>
0.0708348

>  <SCORE.INTRA>
-4.29199

>  <SCORE.INTRA.DIHEDRAL>
-5.74023

>  <SCORE.INTRA.DIHEDRAL.0>
10.9594

>  <SCORE.INTRA.POLAR>
0

>  <SCORE.INTRA.POLAR.0>
0

>  <SCORE.INTRA.REPUL>
0

>  <SCORE.INTRA.REPUL.0>
0

>  <SCORE.INTRA.SOLV>
-4.5501

>  <SCORE.INTRA.SOLV.lig_0>
-124.914

>  <SCORE.INTRA.VDW>
0.853168

>  <SCORE.INTRA.VDW.0>
-4.69801

>  <SCORE.INTRA.norm>
-0.134125

>  <SCORE.RESTR>
0

>  <SCORE.RESTR.CAVITY>
0

>  <SCORE.RESTR.norm>
0

>  <SCORE.SYSTEM>
0

>  <SCORE.SYSTEM.CONST>
0

>  <SCORE.SYSTEM.DIHEDRAL>
0

>  <SCORE.SYSTEM.SOLV>
0

>  <SCORE.SYSTEM.norm>
0

>  <SCORE.heavy>
32

>  <SCORE.norm>
-0.0632899

>  <RMSD>
1.348

$$$$
ligand
 OpenBabel11021811513D
libRbt.so/2013.1/901 2013/11/27
 32 34  0  0  0  0  0  0  0  0999 V2000
   16.8384  -28.5738  -17.6926 P   0  0  1  0  0  0  0  0  0  0  0  0
   14.4689  -30.1029  -18.2204 P   0  0  2  0  0  0  0  0  0  0  0  0
   12.0930  -29.5472  -16.5889 P   0  0  1  0  0  0  0  0  0  0  0  0
   19.0409  -27.1894  -17.8468 C   0  0  0  0  0  0  0  0  0  0  0  0
   18.0737  -27.9108  -18.5554 O   0  0  0  0  0  0  0  0  0  0  0  0
   19.9664  -26.6552  -18.7364 C   0  0  1  0  0  0  0  0  0  0  0  0
   19.2460  -25.9570  -19.8737 O   0  0  0  0  0  0  0  0  0  0  0  0
   20.8668  -25.5362  -18.0369 C   0  0  1  0  0  0  0  0  0  0  0  0
   22.3037  -26.0044  -17.9895 O   0  0  0  0  0  0  0  0  0  0  0  0
   20.8264  -24.5525  -18.7799 C   0  0  1  0  0  0  0  0  0  0  0  0
   22.0218  -24.5493  -19.6568 O   0  0  0  0  0  0  0  0  0  0  0  0
   19.4461  -24.7113  -19.6983 C   0  0  2  0  0  0  0  0  0  0  0  0
   16.9219  -20.3796  -18.5803 N   0  0  0  0  0  0  0  0  0  0  0  0
   17.3731  -29.6440  -16.7734 O   0  5  0  0  0  0  0  0  0  0  0  0
   14.9076  -31.3126  -17.4340 O   0  5  0  0  0  0  0  0  0  0  0  0
   11.5966  -28.3641  -15.7914 O   0  0  0  0  0  0  0  0  0  0  0  0
   18.0461  -20.5176  -19.2659 C   0  0  0  0  0  0  0  0  0  0  0  0
   18.7032  -19.3412  -19.7986 N   0  0  0  0  0  0  0  0  0  0  0  0
   16.1525  -27.4791  -16.9068 O   0  0  0  0  0  0  0  0  0  0  0  0
   13.6762  -30.5434  -19.4231 O   0  0  0  0  0  0  0  0  0  0  0  0
   11.0876  -29.8716  -17.6722 O   0  5  0  0  0  0  0  0  0  0  0  0
   18.5925  -21.6966  -19.4826 N   0  0  0  0  0  0  0  0  0  0  0  0
   15.7763  -29.2585  -18.7423 O   0  0  0  0  0  0  0  0  0  0  0  0
   13.5369  -29.1310  -17.2756 O   0  0  0  0  0  0  0  0  0  0  0  0
   12.2663  -30.7297  -15.6608 O   0  0  0  0  0  0  0  0  0  0  0  0
   18.0176  -22.8082  -19.0076 C   0  0  0  0  0  0  0  0  0  0  0  0
   16.8449  -22.6923  -18.2889 C   0  0  0  0  0  0  0  0  0  0  0  0
   16.2785  -21.4217  -18.0704 C   0  0  0  0  0  0  0  0  0  0  0  0
   15.0848  -21.2720  -17.3428 O   0  0  0  0  0  0  0  0  0  0  0  0
   16.4687  -23.9301  -17.9248 N   0  0  0  0  0  0  0  0  0  0  0  0
   17.3693  -24.7745  -18.3969 C   0  0  0  0  0  0  0  0  0  0  0  0
   18.3102  -24.1175  -19.0490 N   0  0  0  0  0  0  0  0  0  0  0  0
  1  5  1  6  0  0  0
  1 14  1  0  0  0  0
  1 19  2  0  0  0  0
  1 23  1  0  0  0  0
  2 15  1  1  0  0  0
  2 20  2  0  0  0  0
  2 23  1  0  0  0  0
  2 24  1  0  0  0  0
  3 16  1  1  0  0  0
  3 21  1  0  0  0  0
  3 24  1  0  0  0  0
  3 25  2  0  0  0  0
  4  5  1  0  0  0  0
  6  4  1  1  0  0  0
  6  7  1  0  0  0  0
  6  8  1  0  0  0  0
  7 12  1  0  0  0  0
  8  9  1  6  0  0  0
  8 10  1  0  0  0  0
 10 11  1  6  0  0  0
 10 12  1  0  0  0  0
 12 32  1  1  0  0  0
 13 17  2  0  0  0  0
 13 28  1  0  0  0  0
 17 18  1  0  0  0  0
 17 22  1  0  0  0  0
 22 26  2  0  0  0  0
 26 27  1  0  0  0  0
 26 32  1  0  0  0  0
 27 28  2  0  0  0  0
 27 30  1  0  0  0  0
 28 29  1  0  0  0  0
 30 31  2  0  0  0  0
 31 32  1  0  0  0  0
M  CHG  3  14  -1  15  -1  21  -1
M  END
>  <CHROM.1>
-65.65523936,-62.41099550,179.18122352,48.72548512,-177.33048263,-162.08032695
175.82820872,-61.58261614,16.61057698,-26.48218067,-18.10028696,-2.24277321
0.20187119,-0.07616991

>  <Name>
ligand

>  <RI>
0

>  <Rbt.Current_Directory>
/home/itssahil/PROJECTS/Mol_Feturizer/New_Systems/rnas/4Y1I

>  <Rbt.Executable>
rbdock ($Id: //depot/dev/client3/rdock/2013.1/src/exe/rbdock.cxx#4 $)

>  <Rbt.Library>
libRbt.so (2013.1, Build901 2013/11/27)

>  <Rbt.Parameter_File>
/export/apps/rDock/src/rDock_2013.1_src/data/scripts/dock_solv.prm

>  <Rbt.Receptor>
prm/pocket_docking_2.prm

>  <SCORE>
-2.885

>  <SCORE.INTER>
2.49785

>  <SCORE.INTER.CONST>
1

>  <SCORE.INTER.POLAR>
0

>  <SCORE.INTER.ROT>
8

>  <SCORE.INTER.SOLV>
11.893

>  <SCORE.INTER.VDW>
-11.2324

>  <SCORE.INTER.norm>
0.0780579

>  <SCORE.INTRA>
-5.38285

>  <SCORE.INTRA.DIHEDRAL>
-9.17088

>  <SCORE.INTRA.DIHEDRAL.0>
10.9594

>  <SCORE.INTRA.POLAR>
0

>  <SCORE.INTRA.POLAR.0>
0

>  <SCORE.INTRA.REPUL>
0

>  <SCORE.INTRA.REPUL.0>
0

>  <SCORE.INTRA.SOLV>
-2.21788

>  <SCORE.INTRA.SOLV.lig_0>
-124.914

>  <SCORE.INTRA.VDW>
0.311532

>  <SCORE.INTRA.VDW.0>
-4.69801

>  <SCORE.INTRA.norm>
-0.168214

>  <SCORE.RESTR>
0

>  <SCORE.RESTR.CAVITY>
0

>  <SCORE.RESTR.norm>
0

>  <SCORE.SYSTEM>
0

>  <SCORE.SYSTEM.CONST>
0

>  <SCORE.SYSTEM.DIHEDRAL>
0

>  <SCORE.SYSTEM.SOLV>
0

>  <SCORE.SYSTEM.norm>
0

>  <SCORE.heavy>
32

>  <SCORE.norm>
-0.0901562

>  <RMSD>
1.416

$$$$
ligand
 OpenBabel11021811513D
libRbt.so/2013.1/901 2013/11/27
 32 34  0  0  0  0  0  0  0  0999 V2000
   16.7241  -28.5548  -16.8169 P   0  0  1  0  0  0  0  0  0  0  0  0
   13.8564  -28.6096  -16.7551 P   0  0  2  0  0  0  0  0  0  0  0  0
   11.1314  -29.6595  -17.0515 P   0  0  1  0  0  0  0  0  0  0  0  0
   18.8888  -27.2350  -17.4201 C   0  0  0  0  0  0  0  0  0  0  0  0
   17.7996  -27.9620  -17.9133 O   0  0  0  0  0  0  0  0  0  0  0  0
   19.7175  -26.8671  -18.4743 C   0  0  1  0  0  0  0  0  0  0  0  0
   18.8841  -26.3406  -19.6268 O   0  0  0  0  0  0  0  0  0  0  0  0
   20.6925  -25.6720  -18.0581 C   0  0  1  0  0  0  0  0  0  0  0  0
   22.1240  -26.1579  -18.0866 O   0  0  0  0  0  0  0  0  0  0  0  0
   20.5785  -24.8164  -18.9392 C   0  0  1  0  0  0  0  0  0  0  0  0
   21.6742  -24.9768  -19.9248 O   0  0  0  0  0  0  0  0  0  0  0  0
   19.1079  -25.0875  -19.6725 C   0  0  2  0  0  0  0  0  0  0  0  0
   17.0691  -20.5095  -18.5453 N   0  0  0  0  0  0  0  0  0  0  0  0
   17.2020  -29.8900  -16.3021 O   0  5  0  0  0  0  0  0  0  0  0  0
   13.4982  -27.1532  -16.5972 O   0  5  0  0  0  0  0  0  0  0  0  0
   10.4450  -28.3215  -16.9069 O   0  0  0  0  0  0  0  0  0  0  0  0
   18.1625  -20.7680  -19.2455 C   0  0  0  0  0  0  0  0  0  0  0  0
   18.9319  -19.6695  -19.7942 N   0  0  0  0  0  0  0  0  0  0  0  0
   16.5828  -27.5590  -15.6879 O   0  0  0  0  0  0  0  0  0  0  0  0
   14.0136  -29.2405  -15.3964 O   0  0  0  0  0  0  0  0  0  0  0  0
   10.3787  -30.4959  -18.0631 O   0  5  0  0  0  0  0  0  0  0  0  0
   18.5789  -21.9988  -19.4628 N   0  0  0  0  0  0  0  0  0  0  0  0
   15.2762  -28.7621  -17.5647 O   0  0  0  0  0  0  0  0  0  0  0  0
   12.6706  -29.3889  -17.5873 O   0  0  0  0  0  0  0  0  0  0  0  0
   11.1502  -30.3518  -15.7062 O   0  0  0  0  0  0  0  0  0  0  0  0
   17.8973  -23.0416  -18.9734 C   0  0  0  0  0  0  0  0  0  0  0  0
   16.7537  -22.8000  -18.2392 C   0  0  0  0  0  0  0  0  0  0  0  0
   16.3272  -21.4759  -18.0203 C   0  0  0  0  0  0  0  0  0  0  0  0
   15.1664  -21.1984  -17.2771 O   0  0  0  0  0  0  0  0  0  0  0  0
   16.2549  -23.9898  -17.8626 N   0  0  0  0  0  0  0  0  0  0  0  0
   17.0549  -24.9262  -18.3421 C   0  0  0  0  0  0  0  0  0  0  0  0
   18.0502  -24.3747  -19.0111 N   0  0  0  0  0  0  0  0  0  0  0  0
  1  5  1  6  0  0  0
  1 14  1  0  0  0  0
  1 19  2  0  0  0  0
  1 23  1  0  0  0  0
  2 15  1  1  0  0  0
  2 20  2  0  0  0  0
  2 23  1  0  0  0  0
  2 24  1  0  0  0  0
  3 16  1  1  0  0  0
  3 21  1  0  0  0  0
  3 24  1  0  0  0  0
  3 25  2  0  0  0  0
  4  5  1  0  0  0  0
  6  4  1  1  0  0  0
  6  7  1  0  0  0  0
  6  8  1  0  0  0  0
  7 12  1  0  0  0  0
  8  9  1  6  0  0  0
  8 10  1  0  0  0  0
 10 11  1  6  0  0  0
 10 12  1  0  0  0  0
 12 32  1  1  0  0  0
 13 17  2  0  0  0  0
 13 28  1  0  0  0  0
 17 18  1  0  0  0  0
 17 22  1  0  0  0  0
 22 26  2  0  0  0  0
 26 27  1  0  0  0  0
 26 32  1  0  0  0  0
 27 28  2  0  0  0  0
 27 30  1  0  0  0  0
 28 29  1  0  0  0  0
 30 31  2  0  0  0  0
 31 32  1  0  0  0  0
M  CHG  3  14  -1  15  -1  21  -1
M  END
>  <CHROM.1>
-85.65266276,79.70232427,65.37370586,44.78536317,177.32586535,-173.58208659
-149.22524395,-67.21246214,16.27289698,-26.34018108,-17.76192004,-2.37342098
0.13901830,-0.18997652

>  <Name>
ligand

>  <RI>
0

>  <Rbt.Current_Directory>
/home/itssahil/PROJECTS/Mol_Feturizer/New_Systems/rnas/4Y1I

>  <Rbt.Executable>
rbdock ($Id: //depot/dev/client3/rdock/2013.1/src/exe/rbdock.cxx#4 $)

>  <Rbt.Library>
libRbt.so (2013.1, Build901 2013/11/27)

>  <Rbt.Parameter_File>
/export/apps/rDock/src/rDock_2013.1_src/data/scripts/dock_solv.prm

>  <Rbt.Receptor>
prm/pocket_docking_2.prm

>  <SCORE>
-1.18809

>  <SCORE.INTER>
2.59017

>  <SCORE.INTER.CONST>
1

>  <SCORE.INTER.POLAR>
0

>  <SCORE.INTER.ROT>
8

>  <SCORE.INTER.SOLV>
11.36

>  <SCORE.INTER.VDW>
-10.9932

>  <SCORE.INTER.norm>
0.0809427

>  <SCORE.INTRA>
-3.78705

>  <SCORE.INTRA.DIHEDRAL>
-6.07756

>  <SCORE.INTRA.DIHEDRAL.0>
10.9594

>  <SCORE.INTRA.POLAR>
0

>  <SCORE.INTRA.POLAR.0>
0

>  <SCORE.INTRA.REPUL>
0

>  <SCORE.INTRA.REPUL.0>
0

>  <SCORE.INTRA.SOLV>
-2.77556

>  <SCORE.INTRA.SOLV.lig_0>
-124.914

>  <SCORE.INTRA.VDW>
0.639511

>  <SCORE.INTRA.VDW.0>
-4.69801

>  <SCORE.INTRA.norm>
-0.118345

>  <SCORE.RESTR>
0.00879297

>  <SCORE.RESTR.CAVITY>
0.00879297

>  <SCORE.RESTR.norm>
0.00027478

>  <SCORE.SYSTEM>
0

>  <SCORE.SYSTEM.CONST>
0

>  <SCORE.SYSTEM.DIHEDRAL>
0

>  <SCORE.SYSTEM.SOLV>
0

>  <SCORE.SYSTEM.norm>
0

>  <SCORE.heavy>
32

>  <SCORE.norm>
-0.0371277

>  <RMSD>
1.441

$$$$
ligand
 OpenBabel11021811513D
libRbt.so/2013.1/901 2013/11/27
 32 34  0  0  0  0  0  0  0  0999 V2000
   16.3203  -29.4719  -18.3768 P   0  0  1  0  0  0  0  0  0  0  0  0
   14.0506  -27.7310  -18.1563 P   0  0  2  0  0  0  0  0  0  0  0  0
   12.0274  -28.5389  -16.1892 P   0  0  1  0  0  0  0  0  0  0  0  0
   18.1850  -27.6819  -18.0454 C   0  0  0  0  0  0  0  0  0  0  0  0
   17.4182  -28.3985  -18.9707 O   0  0  0  0  0  0  0  0  0  0  0  0
   19.2991  -27.1456  -18.6813 C   0  0  1  0  0  0  0  0  0  0  0  0
   18.8626  -26.1237  -19.7134 O   0  0  0  0  0  0  0  0  0  0  0  0
   20.2327  -26.3566  -17.6527 C   0  0  1  0  0  0  0  0  0  0  0  0
   21.5661  -27.0608  -17.5420 O   0  0  0  0  0  0  0  0  0  0  0  0
   20.4426  -25.2524  -18.1606 C   0  0  1  0  0  0  0  0  0  0  0  0
   21.7444  -25.2770  -18.8697 O   0  0  0  0  0  0  0  0  0  0  0  0
   19.2071  -24.9899  -19.2462 C   0  0  2  0  0  0  0  0  0  0  0  0
   16.6002  -20.6235  -18.5224 N   0  0  0  0  0  0  0  0  0  0  0  0
   15.5996  -30.1496  -19.5159 O   0  5  0  0  0  0  0  0  0  0  0  0
   13.4441  -28.4514  -19.3342 O   0  5  0  0  0  0  0  0  0  0  0  0
   13.0081  -29.3943  -15.4219 O   0  0  0  0  0  0  0  0  0  0  0  0
   17.6985  -20.8116  -19.2371 C   0  0  0  0  0  0  0  0  0  0  0  0
   18.2967  -19.6887  -19.9306 N   0  0  0  0  0  0  0  0  0  0  0  0
   17.0455  -30.4830  -17.5177 O   0  0  0  0  0  0  0  0  0  0  0  0
   14.6693  -26.4383  -18.6197 O   0  0  0  0  0  0  0  0  0  0  0  0
   11.1037  -27.8457  -15.2115 O   0  5  0  0  0  0  0  0  0  0  0  0
   18.2713  -21.9934  -19.3409 N   0  0  0  0  0  0  0  0  0  0  0  0
   15.2244  -28.6505  -17.4697 O   0  0  0  0  0  0  0  0  0  0  0  0
   12.8872  -27.4120  -17.0379 O   0  0  0  0  0  0  0  0  0  0  0  0
   11.2334  -29.4206  -17.1282 O   0  0  0  0  0  0  0  0  0  0  0  0
   17.7509  -23.0565  -18.7159 C   0  0  0  0  0  0  0  0  0  0  0  0
   16.6061  -22.8878  -17.9635 C   0  0  0  0  0  0  0  0  0  0  0  0
   16.0107  -21.6153  -17.8675 C   0  0  0  0  0  0  0  0  0  0  0  0
   14.8441  -21.4126  -17.1092 O   0  0  0  0  0  0  0  0  0  0  0  0
   16.2834  -24.0841  -17.4428 N   0  0  0  0  0  0  0  0  0  0  0  0
   17.1890  -24.9543  -17.8544 C   0  0  0  0  0  0  0  0  0  0  0  0
   18.0815  -24.3539  -18.6194 N   0  0  0  0  0  0  0  0  0  0  0  0
  1  5  1  6  0  0  0
  1 14  1  0  0  0  0
  1 19  2  0  0  0  0
  1 23  1  0  0  0  0
  2 15  1  6  0  0  0
  2 20  2  0  0  0  0
  2 23  1  0  0  0  0
  2 24  1  0  0  0  0
  3 16  1  1  0  0  0
  3 21  1  0  0  0  0
  3 24  1  0  0  0  0
  3 25  2  0  0  0  0
  4  5  1  0  0  0  0
  6  4  1  1  0  0  0
  6  7  1  0  0  0  0
  6  8  1  0  0  0  0
  7 12  1  0  0  0  0
  8  9  1  6  0  0  0
  8 10  1  0  0  0  0
 10 11  1  6  0  0  0
 10 12  1  0  0  0  0
 12 32  1  1  0  0  0
 13 17  2  0  0  0  0
 13 28  1  0  0  0  0
 17 18  1  0  0  0  0
 17 22  1  0  0  0  0
 22 26  2  0  0  0  0
 26 27  1  0  0  0  0
 26 32  1  0  0  0  0
 27 28  2  0  0  0  0
 27 30  1  0  0  0  0
 28 29  1  0  0  0  0
 30 31  2  0  0  0  0
 31 32  1  0  0  0  0
M  CHG  3  14  -1  15  -1  21  -1
M  END
>  <CHROM.1>
-179.68388459,42.90353501,58.36240052,64.86042271,162.29066267,-138.17498290
75.15285750,64.17211430,16.26862367,-26.29300029,-18.03275541,-2.32796362
0.23810282,-0.04948072

>  <Name>
ligand

>  <RI>
0

>  <Rbt.Current_Directory>
/home/itssahil/PROJECTS/Mol_Feturizer/New_Systems/rnas/4Y1I

>  <Rbt.Executable>
rbdock ($Id: //depot/dev/client3/rdock/2013.1/src/exe/rbdock.cxx#4 $)

>  <Rbt.Library>
libRbt.so (2013.1, Build901 2013/11/27)

>  <Rbt.Parameter_File>
/export/apps/rDock/src/rDock_2013.1_src/data/scripts/dock_solv.prm

>  <Rbt.Receptor>
prm/pocket_docking_2.prm

>  <SCORE>
-3.09433

>  <SCORE.INTER>
2.5699

>  <SCORE.INTER.CONST>
1

>  <SCORE.INTER.POLAR>
0

>  <SCORE.INTER.ROT>
8

>  <SCORE.INTER.SOLV>
11.4062

>  <SCORE.INTER.VDW>
-11.0221

>  <SCORE.INTER.norm>
0.0803093

>  <SCORE.INTRA>
-5.66423

>  <SCORE.INTRA.DIHEDRAL>
-7.3765

>  <SCORE.INTRA.DIHEDRAL.0>
10.9594

>  <SCORE.INTRA.POLAR>
0

>  <SCORE.INTRA.POLAR.0>
0

>  <SCORE.INTRA.REPUL>
0

>  <SCORE.INTRA.REPUL.0>
0

>  <SCORE.INTRA.SOLV>
-4.14729

>  <SCORE.INTRA.SOLV.lig_0>
-124.914

>  <SCORE.INTRA.VDW>
0.0976656

>  <SCORE.INTRA.VDW.0>
-4.69801

>  <SCORE.INTRA.norm>
-0.177007

>  <SCORE.RESTR>
0

>  <SCORE.RESTR.CAVITY>
0

>  <SCORE.RESTR.norm>
0

>  <SCORE.SYSTEM>
0

>  <SCORE.SYSTEM.CONST>
0

>  <SCORE.SYSTEM.DIHEDRAL>
0

>  <SCORE.SYSTEM.SOLV>
0

>  <SCORE.SYSTEM.norm>
0

>  <SCORE.heavy>
32

>  <SCORE.norm>
-0.0966978

>  <RMSD>
1.447

$$$$
ligand
 OpenBabel11021811513D
libRbt.so/2013.1/901 2013/11/27
 32 34  0  0  0  0  0  0  0  0999 V2000
   17.4460  -29.2223  -16.7113 P   0  0  1  0  0  0  0  0  0  0  0  0
   14.8919  -27.9840  -17.1284 P   0  0  2  0  0  0  0  0  0  0  0  0
   12.8290  -29.7438  -18.2522 P   0  0  1  0  0  0  0  0  0  0  0  0
   18.3445  -27.4959  -18.4445 C   0  0  0  0  0  0  0  0  0  0  0  0
   18.6524  -28.6013  -17.6436 O   0  0  0  0  0  0  0  0  0  0  0  0
   19.5195  -26.9285  -18.9249 C   0  0  1  0  0  0  0  0  0  0  0  0
   19.1935  -25.7804  -19.8606 O   0  0  0  0  0  0  0  0  0  0  0  0
   20.3861  -26.2954  -17.7416 C   0  0  1  0  0  0  0  0  0  0  0  0
   21.6882  -27.0527  -17.6112 O   0  0  0  0  0  0  0  0  0  0  0  0
   20.6639  -25.1479  -18.0986 C   0  0  1  0  0  0  0  0  0  0  0  0
   22.0177  -25.1352  -18.7026 O   0  0  0  0  0  0  0  0  0  0  0  0
   19.5272  -24.7203  -19.2383 C   0  0  2  0  0  0  0  0  0  0  0  0
   16.7218  -20.4618  -18.6214 N   0  0  0  0  0  0  0  0  0  0  0  0
   17.7157  -30.6798  -16.4300 O   0  5  0  0  0  0  0  0  0  0  0  0
   15.3966  -26.5907  -17.4084 O   0  5  0  0  0  0  0  0  0  0  0  0
   12.9783  -30.5557  -16.9869 O   0  0  0  0  0  0  0  0  0  0  0  0
   17.8312  -20.6154  -19.3272 C   0  0  0  0  0  0  0  0  0  0  0  0
   18.3816  -19.4818  -20.0427 N   0  0  0  0  0  0  0  0  0  0  0  0
   17.3677  -28.4289  -15.4266 O   0  0  0  0  0  0  0  0  0  0  0  0
   14.5925  -28.1262  -15.6591 O   0  0  0  0  0  0  0  0  0  0  0  0
   11.3575  -29.5695  -18.5583 O   0  5  0  0  0  0  0  0  0  0  0  0
   18.4574  -21.7721  -19.4027 N   0  0  0  0  0  0  0  0  0  0  0  0
   16.0305  -29.0943  -17.5352 O   0  0  0  0  0  0  0  0  0  0  0  0
   13.5236  -28.2668  -17.9966 O   0  0  0  0  0  0  0  0  0  0  0  0
   13.5202  -30.4678  -19.3869 O   0  0  0  0  0  0  0  0  0  0  0  0
   17.9823  -22.8438  -18.7567 C   0  0  0  0  0  0  0  0  0  0  0  0
   16.8272  -22.7109  -18.0130 C   0  0  0  0  0  0  0  0  0  0  0  0
   16.1743  -21.4649  -17.9475 C   0  0  0  0  0  0  0  0  0  0  0  0
   14.9959  -21.2988  -17.1987 O   0  0  0  0  0  0  0  0  0  0  0  0
   16.5562  -23.9089  -17.4676 N   0  0  0  0  0  0  0  0  0  0  0  0
   17.5023  -24.7460  -17.8562 C   0  0  0  0  0  0  0  0  0  0  0  0
   18.3707  -24.1224  -18.6304 N   0  0  0  0  0  0  0  0  0  0  0  0
  1  5  1  6  0  0  0
  1 14  1  0  0  0  0
  1 19  2  0  0  0  0
  1 23  1  0  0  0  0
  2 15  1  6  0  0  0
  2 20  2  0  0  0  0
  2 23  1  0  0  0  0
  2 24  1  0  0  0  0
  3 16  1  1  0  0  0
  3 21  1  0  0  0  0
  3 24  1  0  0  0  0
  3 25  2  0  0  0  0
  4  5  1  0  0  0  0
  6  4  1  1  0  0  0
  6  7  1  0  0  0  0
  6  8  1  0  0  0  0
  7 12  1  0  0  0  0
  8  9  1  6  0  0  0
  8 10  1  0  0  0  0
 10 11  1  6  0  0  0
 10 12  1  0  0  0  0
 12 32  1  1  0  0  0
 13 17  2  0  0  0  0
 13 28  1  0  0  0  0
 17 18  1  0  0  0  0
 17 22  1  0  0  0  0
 22 26  2  0  0  0  0
 26 27  1  0  0  0  0
 26 32  1  0  0  0  0
 27 28  2  0  0  0  0
 27 30  1  0  0  0  0
 28 29  1  0  0  0  0
 30 31  2  0  0  0  0
 31 32  1  0  0  0  0
M  CHG  3  14  -1  15  -1  21  -1
M  END
>  <CHROM.1>
154.39878258,67.46409479,37.38416467,176.63477920,166.95128747,-128.19337777
-106.28594078,165.76465768,16.83791752,-26.39260221,-17.93149928,-2.10908649
0.00739641,-0.16737635

>  <Name>
ligand

>  <RI>
0

>  <Rbt.Current_Directory>
/home/itssahil/PROJECTS/Mol_Feturizer/New_Systems/rnas/4Y1I

>  <Rbt.Executable>
rbdock ($Id: //depot/dev/client3/rdock/2013.1/src/exe/rbdock.cxx#4 $)

>  <Rbt.Library>
libRbt.so (2013.1, Build901 2013/11/27)

>  <Rbt.Parameter_File>
/export/apps/rDock/src/rDock_2013.1_src/data/scripts/dock_solv.prm

>  <Rbt.Receptor>
prm/pocket_docking_2.prm

>  <SCORE>
-2.18741

>  <SCORE.INTER>
1.74343

>  <SCORE.INTER.CONST>
1

>  <SCORE.INTER.POLAR>
0

>  <SCORE.INTER.ROT>
8

>  <SCORE.INTER.SOLV>
12.7726

>  <SCORE.INTER.VDW>
-12.0286

>  <SCORE.INTER.norm>
0.0544822

>  <SCORE.INTRA>
-3.93237

>  <SCORE.INTRA.DIHEDRAL>
-4.71881

>  <SCORE.INTRA.DIHEDRAL.0>
10.9594

>  <SCORE.INTRA.POLAR>
0

>  <SCORE.INTRA.POLAR.0>
0

>  <SCORE.INTRA.REPUL>
0

>  <SCORE.INTRA.REPUL.0>
0

>  <SCORE.INTRA.SOLV>
-3.50809

>  <SCORE.INTRA.SOLV.lig_0>
-124.914

>  <SCORE.INTRA.VDW>
0.181086

>  <SCORE.INTRA.VDW.0>
-4.69801

>  <SCORE.INTRA.norm>
-0.122886

>  <SCORE.RESTR>
0.00152164

>  <SCORE.RESTR.CAVITY>
0.00152164

>  <SCORE.RESTR.norm>
4.75513e-05

>  <SCORE.SYSTEM>
0

>  <SCORE.SYSTEM.CONST>
0

>  <SCORE.SYSTEM.DIHEDRAL>
0

>  <SCORE.SYSTEM.SOLV>
0

>  <SCORE.SYSTEM.norm>
0

>  <SCORE.heavy>
32

>  <SCORE.norm>
-0.0683567

>  <RMSD>
1.462

$$$$
ligand
 OpenBabel11021811513D
libRbt.so/2013.1/901 2013/11/27
 32 34  0  0  0  0  0  0  0  0999 V2000
   17.0274  -28.6403  -16.9803 P   0  0  1  0  0  0  0  0  0  0  0  0
   14.1775  -28.9669  -16.9321 P   0  0  2  0  0  0  0  0  0  0  0  0
   11.4731  -30.1031  -16.8294 P   0  0  1  0  0  0  0  0  0  0  0  0
   17.8411  -26.1741  -17.1975 C   0  0  0  0  0  0  0  0  0  0  0  0
   16.7983  -27.0757  -17.4381 O   0  0  0  0  0  0  0  0  0  0  0  0
   18.7848  -26.2732  -18.2138 C   0  0  1  0  0  0  0  0  0  0  0  0
   18.0996  -26.1926  -19.5643 O   0  0  0  0  0  0  0  0  0  0  0  0
   19.8146  -25.0526  -18.1726 C   0  0  1  0  0  0  0  0  0  0  0  0
   21.1988  -25.5731  -17.8574 O   0  0  0  0  0  0  0  0  0  0  0  0
   19.8472  -24.5951  -19.3175 C   0  0  1  0  0  0  0  0  0  0  0  0
   21.0071  -25.1670  -20.0425 O   0  0  0  0  0  0  0  0  0  0  0  0
   18.4281  -25.0631  -20.0531 C   0  0  2  0  0  0  0  0  0  0  0  0
   17.2201  -20.1617  -19.1032 N   0  0  0  0  0  0  0  0  0  0  0  0
   18.1955  -29.2277  -17.7331 O   0  5  0  0  0  0  0  0  0  0  0  0
   13.7714  -27.8060  -17.8048 O   0  5  0  0  0  0  0  0  0  0  0  0
   10.8983  -31.4955  -16.9433 O   0  0  0  0  0  0  0  0  0  0  0  0
   18.4233  -20.6936  -19.2515 C   0  0  0  0  0  0  0  0  0  0  0  0
   19.5936  -19.8459  -19.1456 N   0  0  0  0  0  0  0  0  0  0  0  0
   17.2707  -28.6791  -15.4885 O   0  0  0  0  0  0  0  0  0  0  0  0
   14.2126  -28.5271  -15.4919 O   0  0  0  0  0  0  0  0  0  0  0  0
   11.2205  -29.5754  -15.4339 O   0  5  0  0  0  0  0  0  0  0  0  0
   18.5951  -21.9771  -19.4941 N   0  0  0  0  0  0  0  0  0  0  0  0
   15.6745  -29.4960  -17.3490 O   0  0  0  0  0  0  0  0  0  0  0  0
   13.0996  -30.1976  -17.1033 O   0  0  0  0  0  0  0  0  0  0  0  0
   10.8114  -29.2110  -17.8569 O   0  0  0  0  0  0  0  0  0  0  0  0
   17.5405  -22.7946  -19.5992 C   0  0  0  0  0  0  0  0  0  0  0  0
   16.2746  -22.2656  -19.4482 C   0  0  0  0  0  0  0  0  0  0  0  0
   16.1150  -20.8905  -19.1902 C   0  0  0  0  0  0  0  0  0  0  0  0
   14.8384  -20.3227  -19.0323 O   0  0  0  0  0  0  0  0  0  0  0  0
   15.3950  -23.2710  -19.5954 N   0  0  0  0  0  0  0  0  0  0  0  0
   16.0863  -24.3736  -19.8266 C   0  0  0  0  0  0  0  0  0  0  0  0
   17.3790  -24.1070  -19.8299 N   0  0  0  0  0  0  0  0  0  0  0  0
  1  5  1  6  0  0  0
  1 14  1  0  0  0  0
  1 19  2  0  0  0  0
  1 23  1  0  0  0  0
  2 15  1  6  0  0  0
  2 20  2  0  0  0  0
  2 23  1  0  0  0  0
  2 24  1  0  0  0  0
  3 16  1  6  0  0  0
  3 21  1  0  0  0  0
  3 24  1  0  0  0  0
  3 25  2  0  0  0  0
  4  5  1  0  0  0  0
  6  4  1  1  0  0  0
  6  7  1  0  0  0  0
  6  8  1  0  0  0  0
  7 12  1  0  0  0  0
  8  9  1  6  0  0  0
  8 10  1  0  0  0  0
 10 11  1  6  0  0  0
 10 12  1  0  0  0  0
 12 32  1  1  0  0  0
 13 17  2  0  0  0  0
 13 28  1  0  0  0  0
 17 18  1  0  0  0  0
 17 22  1  0  0  0  0
 22 26  2  0  0  0  0
 26 27  1  0  0  0  0
 26 32  1  0  0  0  0
 27 28  2  0  0  0  0
 27 30  1  0  0  0  0
 28 29  1  0  0  0  0
 30 31  2  0  0  0  0
 31 32  1  0  0  0  0
M  CHG  3  14  -1  15  -1  21  -1
M  END
>  <CHROM.1>
-61.64315770,73.11137361,-173.20301619,50.02770642,82.23743476,146.14806273
-48.90149573,-57.33878736,16.16777289,-26.27211891,-18.02970328,-2.19610886
0.05956060,-0.29217466

>  <Name>
ligand

>  <RI>
0

>  <Rbt.Current_Directory>
/home/itssahil/PROJECTS/Mol_Feturizer/New_Systems/rnas/4Y1I

>  <Rbt.Executable>
rbdock ($Id: //depot/dev/client3/rdock/2013.1/src/exe/rbdock.cxx#4 $)

>  <Rbt.Library>
libRbt.so (2013.1, Build901 2013/11/27)

>  <Rbt.Parameter_File>
/export/apps/rDock/src/rDock_2013.1_src/data/scripts/dock_solv.prm

>  <Rbt.Receptor>
prm/pocket_docking_2.prm

>  <SCORE>
3.5159

>  <SCORE.INTER>
7.06744

>  <SCORE.INTER.CONST>
1

>  <SCORE.INTER.POLAR>
0

>  <SCORE.INTER.ROT>
8

>  <SCORE.INTER.SOLV>
12.2746

>  <SCORE.INTER.VDW>
-8.31324

>  <SCORE.INTER.norm>
0.220857

>  <SCORE.INTRA>
-3.55338

>  <SCORE.INTRA.DIHEDRAL>
-6.67727

>  <SCORE.INTRA.DIHEDRAL.0>
10.9594

>  <SCORE.INTRA.POLAR>
0

>  <SCORE.INTRA.POLAR.0>
0

>  <SCORE.INTRA.REPUL>
0

>  <SCORE.INTRA.REPUL.0>
0

>  <SCORE.INTRA.SOLV>
-0.893581

>  <SCORE.INTRA.SOLV.lig_0>
-124.914

>  <SCORE.INTRA.VDW>
0.232049

>  <SCORE.INTRA.VDW.0>
-4.69801

>  <SCORE.INTRA.norm>
-0.111043

>  <SCORE.RESTR>
0.00184179

>  <SCORE.RESTR.CAVITY>
0.00184179

>  <SCORE.RESTR.norm>
5.75558e-05

>  <SCORE.SYSTEM>
0

>  <SCORE.SYSTEM.CONST>
0

>  <SCORE.SYSTEM.DIHEDRAL>
0

>  <SCORE.SYSTEM.SOLV>
0

>  <SCORE.SYSTEM.norm>
0

>  <SCORE.heavy>
32

>  <SCORE.norm>
0.109872

>  <RMSD>
1.517

$$$$
ligand
 OpenBabel11021811513D
libRbt.so/2013.1/901 2013/11/27
 32 34  0  0  0  0  0  0  0  0999 V2000
   17.0582  -28.5180  -16.8024 P   0  0  1  0  0  0  0  0  0  0  0  0
   14.3207  -29.3755  -16.7535 P   0  0  2  0  0  0  0  0  0  0  0  0
   11.4533  -29.6565  -17.3142 P   0  0  1  0  0  0  0  0  0  0  0  0
   19.1447  -27.1023  -17.4607 C   0  0  0  0  0  0  0  0  0  0  0  0
   18.1395  -27.9641  -17.9133 O   0  0  0  0  0  0  0  0  0  0  0  0
   19.9375  -26.7092  -18.5332 C   0  0  1  0  0  0  0  0  0  0  0  0
   19.0610  -26.2403  -19.6786 O   0  0  0  0  0  0  0  0  0  0  0  0
   20.8592  -25.4621  -18.1493 C   0  0  1  0  0  0  0  0  0  0  0  0
   22.3122  -25.8779  -18.1951 O   0  0  0  0  0  0  0  0  0  0  0  0
   20.6893  -24.6256  -19.0396 C   0  0  1  0  0  0  0  0  0  0  0  0
   21.7757  -24.7461  -20.0411 O   0  0  0  0  0  0  0  0  0  0  0  0
   19.2222  -24.9785  -19.7447 C   0  0  2  0  0  0  0  0  0  0  0  0
   17.0422  -20.4835  -18.5500 N   0  0  0  0  0  0  0  0  0  0  0  0
   17.5798  -29.7833  -16.1676 O   0  5  0  0  0  0  0  0  0  0  0  0
   14.0879  -28.5197  -15.5338 O   0  5  0  0  0  0  0  0  0  0  0  0
   11.4238  -31.0709  -16.7843 O   0  0  0  0  0  0  0  0  0  0  0  0
   18.1449  -20.6972  -19.2507 C   0  0  0  0  0  0  0  0  0  0  0  0
   18.8821  -19.5671  -19.7789 N   0  0  0  0  0  0  0  0  0  0  0  0
   16.8363  -27.4429  -15.7626 O   0  0  0  0  0  0  0  0  0  0  0  0
   14.5541  -30.8024  -16.3316 O   0  0  0  0  0  0  0  0  0  0  0  0
   10.9980  -28.7098  -16.2251 O   0  5  0  0  0  0  0  0  0  0  0  0
   18.5990  -21.9112  -19.4866 N   0  0  0  0  0  0  0  0  0  0  0  0
   15.6454  -28.8535  -17.5706 O   0  0  0  0  0  0  0  0  0  0  0  0
   13.0092  -29.3042  -17.7438 O   0  0  0  0  0  0  0  0  0  0  0  0
   10.5352  -29.5598  -18.5130 O   0  0  0  0  0  0  0  0  0  0  0  0
   17.9480  -22.9820  -19.0164 C   0  0  0  0  0  0  0  0  0  0  0  0
   16.7956  -22.7872  -18.2822 C   0  0  0  0  0  0  0  0  0  0  0  0
   16.3285  -21.4804  -18.0432 C   0  0  0  0  0  0  0  0  0  0  0  0
   15.1576  -21.2504  -17.2995 O   0  0  0  0  0  0  0  0  0  0  0  0
   16.3321  -23.9975  -17.9266 N   0  0  0  0  0  0  0  0  0  0  0  0
   17.1615  -24.9013  -18.4186 C   0  0  0  0  0  0  0  0  0  0  0  0
   18.1415  -24.3090  -19.0753 N   0  0  0  0  0  0  0  0  0  0  0  0
  1  5  1  6  0  0  0
  1 14  1  0  0  0  0
  1 19  2  0  0  0  0
  1 23  1  0  0  0  0
  2 15  1  1  0  0  0
  2 20  2  0  0  0  0
  2 23  1  0  0  0  0
  2 24  1  0  0  0  0
  3 16  1  1  0  0  0
  3 21  1  0  0  0  0
  3 24  1  0  0  0  0
  3 25  2  0  0  0  0
  4  5  1  0  0  0  0
  6  4  1  1  0  0  0
  6  7  1  0  0  0  0
  6  8  1  0  0  0  0
  7 12  1  0  0  0  0
  8  9  1  6  0  0  0
  8 10  1  0  0  0  0
 10 11  1  6  0  0  0
 10 12  1  0  0  0  0
 12 32  1  1  0  0  0
 13 17  2  0  0  0  0
 13 28  1  0  0  0  0
 17 18  1  0  0  0  0
 17 22  1  0  0  0  0
 22 26  2  0  0  0  0
 26 27  1  0  0  0  0
 26 32  1  0  0  0  0
 27 28  2  0  0  0  0
 27 30  1  0  0  0  0
 28 29  1  0  0  0  0
 30 31  2  0  0  0  0
 31 32  1  0  0  0  0
M  CHG  3  14  -1  15  -1  21  -1
M  END
>  <CHROM.1>
-88.33864511,47.02240857,-57.26315947,48.87741618,-178.37664785,-175.88860298
-177.63753279,-55.39979382,16.50290772,-26.42468538,-17.82932297,-2.30776829
0.11060328,-0.19944289

>  <Name>
ligand

>  <RI>
0

>  <Rbt.Current_Directory>
/home/itssahil/PROJECTS/Mol_Feturizer/New_Systems/rnas/4Y1I

>  <Rbt.Executable>
rbdock ($Id: //depot/dev/client3/rdock/2013.1/src/exe/rbdock.cxx#4 $)

>  <Rbt.Library>
libRbt.so (2013.1, Build901 2013/11/27)

>  <Rbt.Parameter_File>
/export/apps/rDock/src/rDock_2013.1_src/data/scripts/dock_solv.prm

>  <Rbt.Receptor>
prm/pocket_docking_2.prm

>  <SCORE>
-2.15666

>  <SCORE.INTER>
2.55609

>  <SCORE.INTER.CONST>
1

>  <SCORE.INTER.POLAR>
0

>  <SCORE.INTER.ROT>
8

>  <SCORE.INTER.SOLV>
12.0681

>  <SCORE.INTER.VDW>
-11.252

>  <SCORE.INTER.norm>
0.0798779

>  <SCORE.INTRA>
-4.72182

>  <SCORE.INTRA.DIHEDRAL>
-7.95306

>  <SCORE.INTRA.DIHEDRAL.0>
10.9594

>  <SCORE.INTRA.POLAR>
0

>  <SCORE.INTRA.POLAR.0>
0

>  <SCORE.INTRA.REPUL>
0

>  <SCORE.INTRA.REPUL.0>
0

>  <SCORE.INTRA.SOLV>
-2.59597

>  <SCORE.INTRA.SOLV.lig_0>
-124.914

>  <SCORE.INTRA.VDW>
0.552688

>  <SCORE.INTRA.VDW.0>
-4.69801

>  <SCORE.INTRA.norm>
-0.147557

>  <SCORE.RESTR>
0.0090685

>  <SCORE.RESTR.CAVITY>
0.0090685

>  <SCORE.RESTR.norm>
0.00028339

>  <SCORE.SYSTEM>
0

>  <SCORE.SYSTEM.CONST>
0

>  <SCORE.SYSTEM.DIHEDRAL>
0

>  <SCORE.SYSTEM.SOLV>
0

>  <SCORE.SYSTEM.norm>
0

>  <SCORE.heavy>
32

>  <SCORE.norm>
-0.0673957

>  <RMSD>
1.536

$$$$
ligand
 OpenBabel11021811513D
libRbt.so/2013.1/901 2013/11/27
 32 34  0  0  0  0  0  0  0  0999 V2000
   16.6587  -29.8331  -17.7287 P   0  0  1  0  0  0  0  0  0  0  0  0
   15.1523  -27.8446  -16.3117 P   0  0  2  0  0  0  0  0  0  0  0  0
   12.4493  -28.9627  -16.0695 P   0  0  1  0  0  0  0  0  0  0  0  0
   17.8541  -27.6704  -18.5565 C   0  0  0  0  0  0  0  0  0  0  0  0
   18.0050  -28.9037  -17.9129 O   0  0  0  0  0  0  0  0  0  0  0  0
   19.1061  -27.1551  -18.8729 C   0  0  1  0  0  0  0  0  0  0  0  0
   18.9526  -25.9266  -19.7487 O   0  0  0  0  0  0  0  0  0  0  0  0
   19.8814  -26.6653  -17.5648 C   0  0  1  0  0  0  0  0  0  0  0  0
   21.1127  -27.5188  -17.3610 O   0  0  0  0  0  0  0  0  0  0  0  0
   20.2662  -25.5186  -17.8058 C   0  0  1  0  0  0  0  0  0  0  0  0
   21.6742  -25.5596  -18.2682 O   0  0  0  0  0  0  0  0  0  0  0  0
   19.2845  -24.9367  -19.0189 C   0  0  2  0  0  0  0  0  0  0  0  0
   16.5592  -20.6012  -18.6178 N   0  0  0  0  0  0  0  0  0  0  0  0
   15.7580  -29.6722  -18.9283 O   0  5  0  0  0  0  0  0  0  0  0  0
   14.9879  -27.2709  -17.6967 O   0  5  0  0  0  0  0  0  0  0  0  0
   12.1826  -28.6924  -17.5318 O   0  0  0  0  0  0  0  0  0  0  0  0
   17.7039  -20.7918  -19.2549 C   0  0  0  0  0  0  0  0  0  0  0  0
   18.3248  -19.6818  -19.9492 N   0  0  0  0  0  0  0  0  0  0  0  0
   17.0831  -31.2745  -17.5603 O   0  0  0  0  0  0  0  0  0  0  0  0
   16.0380  -26.9418  -15.4936 O   0  0  0  0  0  0  0  0  0  0  0  0
   12.8561  -30.4102  -15.8994 O   0  5  0  0  0  0  0  0  0  0  0  0
   18.3032  -21.9648  -19.2799 N   0  0  0  0  0  0  0  0  0  0  0  0
   15.8535  -29.3268  -16.3892 O   0  0  0  0  0  0  0  0  0  0  0  0
   13.6829  -27.9767  -15.5843 O   0  0  0  0  0  0  0  0  0  0  0  0
   11.1931  -28.6728  -15.2774 O   0  0  0  0  0  0  0  0  0  0  0  0
   17.7632  -23.0158  -18.6511 C   0  0  0  0  0  0  0  0  0  0  0  0
   16.5701  -22.8442  -17.9787 C   0  0  0  0  0  0  0  0  0  0  0  0
   15.9471  -21.5814  -17.9661 C   0  0  0  0  0  0  0  0  0  0  0  0
   14.7313  -21.3760  -17.2904 O   0  0  0  0  0  0  0  0  0  0  0  0
   16.2364  -24.0279  -17.4367 N   0  0  0  0  0  0  0  0  0  0  0  0
   17.1817  -24.8935  -17.7591 C   0  0  0  0  0  0  0  0  0  0  0  0
   18.1102  -24.3021  -18.4874 N   0  0  0  0  0  0  0  0  0  0  0  0
  1  5  1  6  0  0  0
  1 14  1  0  0  0  0
  1 19  2  0  0  0  0
  1 23  1  0  0  0  0
  2 15  1  6  0  0  0
  2 20  2  0  0  0  0
  2 23  1  0  0  0  0
  2 24  1  0  0  0  0
  3 16  1  6  0  0  0
  3 21  1  0  0  0  0
  3 24  1  0  0  0  0
  3 25  2  0  0  0  0
  4  5  1  0  0  0  0
  6  4  1  1  0  0  0
  6  7  1  0  0  0  0
  6  8  1  0  0  0  0
  7 12  1  0  0  0  0
  8  9  1  6  0  0  0
  8 10  1  0  0  0  0
 10 11  1  6  0  0  0
 10 12  1  0  0  0  0
 12 32  1  1  0  0  0
 13 17  2  0  0  0  0
 13 28  1  0  0  0  0
 17 18  1  0  0  0  0
 17 22  1  0  0  0  0
 22 26  2  0  0  0  0
 26 27  1  0  0  0  0
 26 32  1  0  0  0  0
 27 28  2  0  0  0  0
 27 30  1  0  0  0  0
 28 29  1  0  0  0  0
 30 31  2  0  0  0  0
 31 32  1  0  0  0  0
M  CHG  3  14  -1  15  -1  21  -1
M  END
>  <CHROM.1>
35.42738276,17.55165494,-52.85677461,171.62799640,-167.63718139,-122.31494150
66.42142733,64.98352682,16.52385459,-26.44493903,-17.60823302,-2.13430608
0.27720419,-0.14049538

>  <Name>
ligand

>  <RI>
0

>  <Rbt.Current_Directory>
/home/itssahil/PROJECTS/Mol_Feturizer/New_Systems/rnas/4Y1I

>  <Rbt.Executable>
rbdock ($Id: //depot/dev/client3/rdock/2013.1/src/exe/rbdock.cxx#4 $)

>  <Rbt.Library>
libRbt.so (2013.1, Build901 2013/11/27)

>  <Rbt.Parameter_File>
/export/apps/rDock/src/rDock_2013.1_src/data/scripts/dock_solv.prm

>  <Rbt.Receptor>
prm/pocket_docking_2.prm

>  <SCORE>
-1.88024

>  <SCORE.INTER>
2.46012

>  <SCORE.INTER.CONST>
1

>  <SCORE.INTER.POLAR>
0

>  <SCORE.INTER.ROT>
8

>  <SCORE.INTER.SOLV>
12.299

>  <SCORE.INTER.VDW>
-11.3929

>  <SCORE.INTER.norm>
0.0768789

>  <SCORE.INTRA>
-4.34312

>  <SCORE.INTRA.DIHEDRAL>
-5.86293

>  <SCORE.INTRA.DIHEDRAL.0>
10.9594

>  <SCORE.INTRA.POLAR>
0

>  <SCORE.INTRA.POLAR.0>
0

>  <SCORE.INTRA.REPUL>
0

>  <SCORE.INTRA.REPUL.0>
0

>  <SCORE.INTRA.SOLV>
-1.88373

>  <SCORE.INTRA.SOLV.lig_0>
-124.914

>  <SCORE.INTRA.VDW>
-0.469788

>  <SCORE.INTRA.VDW.0>
-4.69801

>  <SCORE.INTRA.norm>
-0.135722

>  <SCORE.RESTR>
0.00274675

>  <SCORE.RESTR.CAVITY>
0.00274675

>  <SCORE.RESTR.norm>
8.58359e-05

>  <SCORE.SYSTEM>
0

>  <SCORE.SYSTEM.CONST>
0

>  <SCORE.SYSTEM.DIHEDRAL>
0

>  <SCORE.SYSTEM.SOLV>
0

>  <SCORE.SYSTEM.norm>
0

>  <SCORE.heavy>
32

>  <SCORE.norm>
-0.0587576

>  <RMSD>
1.600

$$$$
ligand
 OpenBabel11021811513D
libRbt.so/2013.1/901 2013/11/27
 32 34  0  0  0  0  0  0  0  0999 V2000
   17.5766  -28.6276  -18.2908 P   0  0  1  0  0  0  0  0  0  0  0  0
   14.8586  -28.7805  -17.3852 P   0  0  2  0  0  0  0  0  0  0  0  0
   12.2904  -28.3714  -16.0241 P   0  0  1  0  0  0  0  0  0  0  0  0
   19.3523  -26.9279  -17.4250 C   0  0  0  0  0  0  0  0  0  0  0  0
   19.0194  -28.2782  -17.5791 O   0  0  0  0  0  0  0  0  0  0  0  0
   20.1064  -26.5080  -18.5151 C   0  0  1  0  0  0  0  0  0  0  0  0
   19.1885  -26.0788  -19.6434 O   0  0  0  0  0  0  0  0  0  0  0  0
   20.9856  -25.2238  -18.1544 C   0  0  1  0  0  0  0  0  0  0  0  0
   22.4527  -25.5818  -18.2291 O   0  0  0  0  0  0  0  0  0  0  0  0
   20.7642  -24.3982  -19.0436 C   0  0  1  0  0  0  0  0  0  0  0  0
   21.8336  -24.4795  -20.0671 O   0  0  0  0  0  0  0  0  0  0  0  0
   19.2980  -24.8118  -19.7168 C   0  0  2  0  0  0  0  0  0  0  0  0
   16.9043  -20.4113  -18.5809 N   0  0  0  0  0  0  0  0  0  0  0  0
   17.4553  -27.8794  -19.5952 O   0  5  0  0  0  0  0  0  0  0  0  0
   14.8896  -30.2527  -17.0599 O   0  5  0  0  0  0  0  0  0  0  0  0
   12.2361  -29.7976  -15.5287 O   0  0  0  0  0  0  0  0  0  0  0  0
   17.9907  -20.5850  -19.3173 C   0  0  0  0  0  0  0  0  0  0  0  0
   18.6401  -19.4331  -19.9096 N   0  0  0  0  0  0  0  0  0  0  0  0
   17.4941  -30.1207  -18.5139 O   0  0  0  0  0  0  0  0  0  0  0  0
   14.3497  -28.5847  -18.7893 O   0  0  0  0  0  0  0  0  0  0  0  0
   11.7464  -27.4532  -14.9515 O   0  5  0  0  0  0  0  0  0  0  0  0
   18.5061  -21.7783  -19.5321 N   0  0  0  0  0  0  0  0  0  0  0  0
   16.3686  -28.1442  -17.2878 O   0  0  0  0  0  0  0  0  0  0  0  0
   13.8701  -27.9964  -16.3296 O   0  0  0  0  0  0  0  0  0  0  0  0
   11.4624  -28.2557  -17.2852 O   0  0  0  0  0  0  0  0  0  0  0  0
   17.9371  -22.8681  -19.0029 C   0  0  0  0  0  0  0  0  0  0  0  0
   16.8034  -22.7149  -18.2306 C   0  0  0  0  0  0  0  0  0  0  0  0
   16.2697  -21.4297  -18.0152 C   0  0  0  0  0  0  0  0  0  0  0  0
   15.1159  -21.2421  -17.2338 O   0  0  0  0  0  0  0  0  0  0  0  0
   16.4253  -23.9370  -17.8189 N   0  0  0  0  0  0  0  0  0  0  0  0
   17.2872  -24.8079  -18.3141 C   0  0  0  0  0  0  0  0  0  0  0  0
   18.2056  -24.1831  -19.0272 N   0  0  0  0  0  0  0  0  0  0  0  0
  1  5  1  1  0  0  0
  1 14  1  0  0  0  0
  1 19  2  0  0  0  0
  1 23  1  0  0  0  0
  2 15  1  1  0  0  0
  2 20  2  0  0  0  0
  2 23  1  0  0  0  0
  2 24  1  0  0  0  0
  3 16  1  1  0  0  0
  3 21  1  0  0  0  0
  3 24  1  0  0  0  0
  3 25  2  0  0  0  0
  4  5  1  0  0  0  0
  6  4  1  1  0  0  0
  6  7  1  0  0  0  0
  6  8  1  0  0  0  0
  7 12  1  0  0  0  0
  8  9  1  6  0  0  0
  8 10  1  0  0  0  0
 10 11  1  6  0  0  0
 10 12  1  0  0  0  0
 12 32  1  1  0  0  0
 13 17  2  0  0  0  0
 13 28  1  0  0  0  0
 17 18  1  0  0  0  0
 17 22  1  0  0  0  0
 22 26  2  0  0  0  0
 26 27  1  0  0  0  0
 26 32  1  0  0  0  0
 27 28  2  0  0  0  0
 27 30  1  0  0  0  0
 28 29  1  0  0  0  0
 30 31  2  0  0  0  0
 31 32  1  0  0  0  0
M  CHG  3  14  -1  15  -1  21  -1
M  END
>  <CHROM.1>
51.43490580,63.72593071,58.85518758,85.69204768,-93.18577753,-173.66554851
-157.85458705,-54.75123050,16.82198906,-26.08071274,-18.01098780,-2.34173090
0.30154588,-0.09851161

>  <Name>
ligand

>  <RI>
0

>  <Rbt.Current_Directory>
/home/itssahil/PROJECTS/Mol_Feturizer/New_Systems/rnas/4Y1I

>  <Rbt.Executable>
rbdock ($Id: //depot/dev/client3/rdock/2013.1/src/exe/rbdock.cxx#4 $)

>  <Rbt.Library>
libRbt.so (2013.1, Build901 2013/11/27)

>  <Rbt.Parameter_File>
/export/apps/rDock/src/rDock_2013.1_src/data/scripts/dock_solv.prm

>  <Rbt.Receptor>
prm/pocket_docking_2.prm

>  <SCORE>
1.71349

>  <SCORE.INTER>
3.09644

>  <SCORE.INTER.CONST>
1

>  <SCORE.INTER.POLAR>
0

>  <SCORE.INTER.ROT>
8

>  <SCORE.INTER.SOLV>
11.5551

>  <SCORE.INTER.VDW>
-10.7207

>  <SCORE.INTER.norm>
0.0967637

>  <SCORE.INTRA>
-1.42012

>  <SCORE.INTRA.DIHEDRAL>
-2.60897

>  <SCORE.INTRA.DIHEDRAL.0>
10.9594

>  <SCORE.INTRA.POLAR>
0

>  <SCORE.INTRA.POLAR.0>
0

>  <SCORE.INTRA.REPUL>
0

>  <SCORE.INTRA.REPUL.0>
0

>  <SCORE.INTRA.SOLV>
-0.378068

>  <SCORE.INTRA.SOLV.lig_0>
-124.914

>  <SCORE.INTRA.VDW>
0.0733946

>  <SCORE.INTRA.VDW.0>
-4.69801

>  <SCORE.INTRA.norm>
-0.0443789

>  <SCORE.RESTR>
0.0371754

>  <SCORE.RESTR.CAVITY>
0.0371754

>  <SCORE.RESTR.norm>
0.00116173

>  <SCORE.SYSTEM>
0

>  <SCORE.SYSTEM.CONST>
0

>  <SCORE.SYSTEM.DIHEDRAL>
0

>  <SCORE.SYSTEM.SOLV>
0

>  <SCORE.SYSTEM.norm>
0

>  <SCORE.heavy>
32

>  <SCORE.norm>
0.0535466

>  <RMSD>
1.733

$$$$
ligand
 OpenBabel11021811513D
libRbt.so/2013.1/901 2013/11/27
 32 34  0  0  0  0  0  0  0  0999 V2000
   16.1543  -29.9480  -17.1026 P   0  0  1  0  0  0  0  0  0  0  0  0
   13.3207  -30.3274  -17.3431 P   0  0  2  0  0  0  0  0  0  0  0  0
   11.2459  -28.3099  -16.8528 P   0  0  1  0  0  0  0  0  0  0  0  0
   17.2327  -27.6082  -16.7104 C   0  0  0  0  0  0  0  0  0  0  0  0
   17.1817  -28.9443  -16.2980 O   0  0  0  0  0  0  0  0  0  0  0  0
   18.0209  -27.5036  -17.8511 C   0  0  1  0  0  0  0  0  0  0  0  0
   17.1870  -26.9917  -19.0097 O   0  0  0  0  0  0  0  0  0  0  0  0
   19.1939  -26.4376  -17.6521 C   0  0  1  0  0  0  0  0  0  0  0  0
   20.5296  -27.1443  -17.7035 O   0  0  0  0  0  0  0  0  0  0  0  0
   19.1399  -25.6850  -18.6278 C   0  0  1  0  0  0  0  0  0  0  0  0
   20.1174  -26.1325  -19.6485 O   0  0  0  0  0  0  0  0  0  0  0  0
   17.5917  -25.8042  -19.2303 C   0  0  2  0  0  0  0  0  0  0  0  0
   16.6037  -20.8633  -18.2317 N   0  0  0  0  0  0  0  0  0  0  0  0
   16.3968  -29.8444  -18.5881 O   0  5  0  0  0  0  0  0  0  0  0  0
   13.4990  -31.7989  -17.0653 O   0  5  0  0  0  0  0  0  0  0  0  0
   11.4458  -27.9312  -18.3016 O   0  0  0  0  0  0  0  0  0  0  0  0
   17.6231  -21.3739  -18.9046 C   0  0  0  0  0  0  0  0  0  0  0  0
   18.6257  -20.4864  -19.4584 N   0  0  0  0  0  0  0  0  0  0  0  0
   16.3764  -31.3621  -16.6157 O   0  0  0  0  0  0  0  0  0  0  0  0
   13.2140  -30.1038  -18.8288 O   0  0  0  0  0  0  0  0  0  0  0  0
    9.7634  -28.4028  -16.5649 O   0  5  0  0  0  0  0  0  0  0  0  0
   17.7589  -22.6711  -19.0900 N   0  0  0  0  0  0  0  0  0  0  0  0
   14.6118  -29.4820  -16.7833 O   0  0  0  0  0  0  0  0  0  0  0  0
   11.9544  -29.7820  -16.6071 O   0  0  0  0  0  0  0  0  0  0  0  0
   11.8873  -27.2575  -15.9751 O   0  0  0  0  0  0  0  0  0  0  0  0
   16.8552  -23.5253  -18.5948 C   0  0  0  0  0  0  0  0  0  0  0  0
   15.7826  -23.0192  -17.8886 C   0  0  0  0  0  0  0  0  0  0  0  0
   15.6576  -21.6288  -17.7036 C   0  0  0  0  0  0  0  0  0  0  0  0
   14.5760  -21.0837  -16.9895 O   0  0  0  0  0  0  0  0  0  0  0  0
   15.0262  -24.0597  -17.4997 N   0  0  0  0  0  0  0  0  0  0  0  0
   15.6054  -25.1610  -17.9450 C   0  0  0  0  0  0  0  0  0  0  0  0
   16.7086  -24.8595  -18.6041 N   0  0  0  0  0  0  0  0  0  0  0  0
  1  5  1  1  0  0  0
  1 14  1  0  0  0  0
  1 19  2  0  0  0  0
  1 23  1  0  0  0  0
  2 15  1  1  0  0  0
  2 20  2  0  0  0  0
  2 23  1  0  0  0  0
  2 24  1  0  0  0  0
  3 16  1  6  0  0  0
  3 21  1  0  0  0  0
  3 24  1  0  0  0  0
  3 25  2  0  0  0  0
  4  5  1  0  0  0  0
  6  4  1  1  0  0  0
  6  7  1  0  0  0  0
  6  8  1  0  0  0  0
  7 12  1  0  0  0  0
  8  9  1  6  0  0  0
  8 10  1  0  0  0  0
 10 11  1  6  0  0  0
 10 12  1  0  0  0  0
 12 32  1  1  0  0  0
 13 17  2  0  0  0  0
 13 28  1  0  0  0  0
 17 18  1  0  0  0  0
 17 22  1  0  0  0  0
 22 26  2  0  0  0  0
 26 27  1  0  0  0  0
 26 32  1  0  0  0  0
 27 28  2  0  0  0  0
 27 30  1  0  0  0  0
 28 29  1  0  0  0  0
 30 31  2  0  0  0  0
 31 32  1  0  0  0  0
M  CHG  3  14  -1  15  -1  21  -1
M  END
>  <CHROM.1>
51.66577142,47.93970038,34.34471240,117.82901888,-79.29359256,177.70871025
-175.80007736,-169.06959539,15.53544949,-26.90155350,-17.72027852,-2.16179852
0.16522785,-0.09601887

>  <Name>
ligand

>  <RI>
0

>  <Rbt.Current_Directory>
/home/itssahil/PROJECTS/Mol_Feturizer/New_Systems/rnas/4Y1I

>  <Rbt.Executable>
rbdock ($Id: //depot/dev/client3/rdock/2013.1/src/exe/rbdock.cxx#4 $)

>  <Rbt.Library>
libRbt.so (2013.1, Build901 2013/11/27)

>  <Rbt.Parameter_File>
/export/apps/rDock/src/rDock_2013.1_src/data/scripts/dock_solv.prm

>  <Rbt.Receptor>
prm/pocket_docking_2.prm

>  <SCORE>
3.79706

>  <SCORE.INTER>
5.12989

>  <SCORE.INTER.CONST>
1

>  <SCORE.INTER.POLAR>
0

>  <SCORE.INTER.ROT>
8

>  <SCORE.INTER.SOLV>
9.77727

>  <SCORE.INTER.VDW>
-8.7725

>  <SCORE.INTER.norm>
0.160309

>  <SCORE.INTRA>
-1.57977

>  <SCORE.INTRA.DIHEDRAL>
-1.37344

>  <SCORE.INTRA.DIHEDRAL.0>
10.9594

>  <SCORE.INTRA.POLAR>
0

>  <SCORE.INTRA.POLAR.0>
0

>  <SCORE.INTRA.REPUL>
0

>  <SCORE.INTRA.REPUL.0>
0

>  <SCORE.INTRA.SOLV>
-2.44099

>  <SCORE.INTRA.SOLV.lig_0>
-124.914

>  <SCORE.INTRA.VDW>
0.327445

>  <SCORE.INTRA.VDW.0>
-4.69801

>  <SCORE.INTRA.norm>
-0.0493678

>  <SCORE.RESTR>
0.246943

>  <SCORE.RESTR.CAVITY>
0.246943

>  <SCORE.RESTR.norm>
0.00771696

>  <SCORE.SYSTEM>
0

>  <SCORE.SYSTEM.CONST>
0

>  <SCORE.SYSTEM.DIHEDRAL>
0

>  <SCORE.SYSTEM.SOLV>
0

>  <SCORE.SYSTEM.norm>
0

>  <SCORE.heavy>
32

>  <SCORE.norm>
0.118658

>  <RMSD>
1.770

$$$$
ligand
 OpenBabel11021811513D
libRbt.so/2013.1/901 2013/11/27
 32 34  0  0  0  0  0  0  0  0999 V2000
   17.2227  -29.3346  -17.4129 P   0  0  1  0  0  0  0  0  0  0  0  0
   14.8830  -28.6960  -15.8803 P   0  0  2  0  0  0  0  0  0  0  0  0
   12.4069  -30.1766  -16.4207 P   0  0  1  0  0  0  0  0  0  0  0  0
   18.3455  -27.4190  -18.7772 C   0  0  0  0  0  0  0  0  0  0  0  0
   18.5540  -28.5376  -17.9629 O   0  0  0  0  0  0  0  0  0  0  0  0
   19.5700  -26.8465  -19.1029 C   0  0  1  0  0  0  0  0  0  0  0  0
   19.3522  -25.6134  -19.9585 O   0  0  0  0  0  0  0  0  0  0  0  0
   20.3421  -26.3425  -17.7983 C   0  0  1  0  0  0  0  0  0  0  0  0
   21.6112  -27.1455  -17.6236 O   0  0  0  0  0  0  0  0  0  0  0  0
   20.6746  -25.1771  -18.0277 C   0  0  1  0  0  0  0  0  0  0  0  0
   22.0764  -25.1517  -18.5096 O   0  0  0  0  0  0  0  0  0  0  0  0
   19.6522  -24.6207  -19.2189 C   0  0  2  0  0  0  0  0  0  0  0  0
   16.7843  -20.3955  -18.6639 N   0  0  0  0  0  0  0  0  0  0  0  0
   16.5364  -30.0356  -18.5591 O   0  5  0  0  0  0  0  0  0  0  0  0
   14.0706  -27.4899  -15.4806 O   0  5  0  0  0  0  0  0  0  0  0  0
   12.4648  -31.2855  -15.3964 O   0  0  0  0  0  0  0  0  0  0  0  0
   17.9319  -20.5260  -19.3109 C   0  0  0  0  0  0  0  0  0  0  0  0
   18.5118  -19.3732  -19.9700 N   0  0  0  0  0  0  0  0  0  0  0  0
   17.6522  -30.3238  -16.3531 O   0  0  0  0  0  0  0  0  0  0  0  0
   15.3735  -29.4056  -14.6455 O   0  0  0  0  0  0  0  0  0  0  0  0
   11.6508  -29.0026  -15.8378 O   0  5  0  0  0  0  0  0  0  0  0  0
   18.5701  -21.6766  -19.3772 N   0  0  0  0  0  0  0  0  0  0  0  0
   16.1863  -28.2363  -16.7660 O   0  0  0  0  0  0  0  0  0  0  0  0
   13.9563  -29.7228  -16.7708 O   0  0  0  0  0  0  0  0  0  0  0  0
   11.7087  -30.6879  -17.6619 O   0  0  0  0  0  0  0  0  0  0  0  0
   18.0687  -22.7655  -18.7819 C   0  0  0  0  0  0  0  0  0  0  0  0
   16.8736  -22.6568  -18.1001 C   0  0  0  0  0  0  0  0  0  0  0  0
   16.2085  -21.4169  -18.0432 C   0  0  0  0  0  0  0  0  0  0  0  0
   14.9896  -21.2753  -17.3568 O   0  0  0  0  0  0  0  0  0  0  0  0
   16.5825  -23.8685  -17.5967 N   0  0  0  0  0  0  0  0  0  0  0  0
   17.5549  -24.6905  -17.9511 C   0  0  0  0  0  0  0  0  0  0  0  0
   18.4596  -24.0441  -18.6625 N   0  0  0  0  0  0  0  0  0  0  0  0
  1  5  1  6  0  0  0
  1 14  1  0  0  0  0
  1 19  2  0  0  0  0
  1 23  1  0  0  0  0
  2 15  1  1  0  0  0
  2 20  2  0  0  0  0
  2 23  1  0  0  0  0
  2 24  1  0  0  0  0
  3 16  1  1  0  0  0
  3 21  1  0  0  0  0
  3 24  1  0  0  0  0
  3 25  2  0  0  0  0
  4  5  1  0  0  0  0
  6  4  1  1  0  0  0
  6  7  1  0  0  0  0
  6  8  1  0  0  0  0
  7 12  1  0  0  0  0
  8  9  1  6  0  0  0
  8 10  1  0  0  0  0
 10 11  1  6  0  0  0
 10 12  1  0  0  0  0
 12 32  1  1  0  0  0
 13 17  2  0  0  0  0
 13 28  1  0  0  0  0
 17 18  1  0  0  0  0
 17 22  1  0  0  0  0
 22 26  2  0  0  0  0
 26 27  1  0  0  0  0
 26 32  1  0  0  0  0
 27 28  2  0  0  0  0
 27 30  1  0  0  0  0
 28 29  1  0  0  0  0
 30 31  2  0  0  0  0
 31 32  1  0  0  0  0
M  CHG  3  14  -1  15  -1  21  -1
M  END
>  <CHROM.1>
69.32863339,-176.83621068,-81.69155270,-178.65578778,177.74078608,-123.63778358
-168.69533796,-44.92224095,16.73223640,-26.57847356,-17.57574834,-2.15325963
0.23533529,-0.17905457

>  <Name>
ligand

>  <RI>
0

>  <Rbt.Current_Directory>
/home/itssahil/PROJECTS/Mol_Feturizer/New_Systems/rnas/4Y1I

>  <Rbt.Executable>
rbdock ($Id: //depot/dev/client3/rdock/2013.1/src/exe/rbdock.cxx#4 $)

>  <Rbt.Library>
libRbt.so (2013.1, Build901 2013/11/27)

>  <Rbt.Parameter_File>
/export/apps/rDock/src/rDock_2013.1_src/data/scripts/dock_solv.prm

>  <Rbt.Receptor>
prm/pocket_docking_2.prm

>  <SCORE>
-3.51861

>  <SCORE.INTER>
2.03805

>  <SCORE.INTER.CONST>
1

>  <SCORE.INTER.POLAR>
0

>  <SCORE.INTER.ROT>
8

>  <SCORE.INTER.SOLV>
12.1935

>  <SCORE.INTER.VDW>
-11.6391

>  <SCORE.INTER.norm>
0.0636889

>  <SCORE.INTRA>
-5.57999

>  <SCORE.INTRA.DIHEDRAL>
-8.26954

>  <SCORE.INTRA.DIHEDRAL.0>
10.9594

>  <SCORE.INTRA.POLAR>
0

>  <SCORE.INTRA.POLAR.0>
0

>  <SCORE.INTRA.REPUL>
0

>  <SCORE.INTRA.REPUL.0>
0

>  <SCORE.INTRA.SOLV>
-4.18433

>  <SCORE.INTRA.SOLV.lig_0>
-124.914

>  <SCORE.INTRA.VDW>
0.646943

>  <SCORE.INTRA.VDW.0>
-4.69801

>  <SCORE.INTRA.norm>
-0.174375

>  <SCORE.RESTR>
0.0233365

>  <SCORE.RESTR.CAVITY>
0.0233365

>  <SCORE.RESTR.norm>
0.000729266

>  <SCORE.SYSTEM>
0

>  <SCORE.SYSTEM.CONST>
0

>  <SCORE.SYSTEM.DIHEDRAL>
0

>  <SCORE.SYSTEM.SOLV>
0

>  <SCORE.SYSTEM.norm>
0

>  <SCORE.heavy>
32

>  <SCORE.norm>
-0.109957

>  <RMSD>
1.800

$$$$
ligand
 OpenBabel11021811513D
libRbt.so/2013.1/901 2013/11/27
 32 34  0  0  0  0  0  0  0  0999 V2000
   15.9329  -29.6520  -18.6367 P   0  0  1  0  0  0  0  0  0  0  0  0
   13.0711  -29.5320  -18.4727 P   0  0  2  0  0  0  0  0  0  0  0  0
   11.5343  -28.5580  -16.1695 P   0  0  1  0  0  0  0  0  0  0  0  0
   17.2824  -27.4446  -18.9497 C   0  0  0  0  0  0  0  0  0  0  0  0
   17.2062  -28.6711  -18.2804 O   0  0  0  0  0  0  0  0  0  0  0  0
   18.6075  -27.0271  -19.0050 C   0  0  1  0  0  0  0  0  0  0  0  0
   18.6978  -25.6878  -19.7108 O   0  0  0  0  0  0  0  0  0  0  0  0
   19.2048  -26.7914  -17.5422 C   0  0  1  0  0  0  0  0  0  0  0  0
   20.3126  -27.7878  -17.2849 O   0  0  0  0  0  0  0  0  0  0  0  0
   19.7178  -25.6699  -17.5599 C   0  0  1  0  0  0  0  0  0  0  0  0
   21.1726  -25.7988  -17.8143 O   0  0  0  0  0  0  0  0  0  0  0  0
   18.9923  -24.8390  -18.8078 C   0  0  2  0  0  0  0  0  0  0  0  0
   16.3813  -20.4173  -18.6793 N   0  0  0  0  0  0  0  0  0  0  0  0
   15.8378  -29.8447  -20.1300 O   0  5  0  0  0  0  0  0  0  0  0  0
   12.9422  -30.9496  -17.9747 O   0  5  0  0  0  0  0  0  0  0  0  0
   11.9768  -29.8669  -15.5585 O   0  0  0  0  0  0  0  0  0  0  0  0
   17.5583  -20.6564  -19.2363 C   0  0  0  0  0  0  0  0  0  0  0  0
   18.2564  -19.5818  -19.9128 N   0  0  0  0  0  0  0  0  0  0  0  0
   16.1274  -30.9754  -17.9318 O   0  0  0  0  0  0  0  0  0  0  0  0
   12.9045  -29.5060  -19.9695 O   0  0  0  0  0  0  0  0  0  0  0  0
   12.2682  -27.4216  -15.4917 O   0  5  0  0  0  0  0  0  0  0  0  0
   18.1216  -21.8467  -19.1967 N   0  0  0  0  0  0  0  0  0  0  0  0
   14.5547  -28.9326  -18.1060 O   0  0  0  0  0  0  0  0  0  0  0  0
   11.9173  -28.5888  -17.7763 O   0  0  0  0  0  0  0  0  0  0  0  0
   10.0407  -28.4061  -15.9812 O   0  0  0  0  0  0  0  0  0  0  0  0
   17.5102  -22.8662  -18.5816 C   0  0  0  0  0  0  0  0  0  0  0  0
   16.2821  -22.6439  -17.9922 C   0  0  0  0  0  0  0  0  0  0  0  0
   15.6987  -21.3634  -18.0477 C   0  0  0  0  0  0  0  0  0  0  0  0
   14.4488  -21.1066  -17.4572 O   0  0  0  0  0  0  0  0  0  0  0  0
   15.8780  -23.8041  -17.4474 N   0  0  0  0  0  0  0  0  0  0  0  0
   16.8151  -24.7044  -17.6887 C   0  0  0  0  0  0  0  0  0  0  0  0
   17.8063  -24.1579  -18.3678 N   0  0  0  0  0  0  0  0  0  0  0  0
  1  5  1  1  0  0  0
  1 14  1  0  0  0  0
  1 19  2  0  0  0  0
  1 23  1  0  0  0  0
  2 15  1  1  0  0  0
  2 20  2  0  0  0  0
  2 23  1  0  0  0  0
  2 24  1  0  0  0  0
  3 16  1  1  0  0  0
  3 21  1  0  0  0  0
  3 24  1  0  0  0  0
  3 25  2  0  0  0  0
  4  5  1  0  0  0  0
  6  4  1  1  0  0  0
  6  7  1  0  0  0  0
  6  8  1  0  0  0  0
  7 12  1  0  0  0  0
  8  9  1  6  0  0  0
  8 10  1  0  0  0  0
 10 11  1  6  0  0  0
 10 12  1  0  0  0  0
 12 32  1  1  0  0  0
 13 17  2  0  0  0  0
 13 28  1  0  0  0  0
 17 18  1  0  0  0  0
 17 22  1  0  0  0  0
 22 26  2  0  0  0  0
 26 27  1  0  0  0  0
 26 32  1  0  0  0  0
 27 28  2  0  0  0  0
 27 30  1  0  0  0  0
 28 29  1  0  0  0  0
 30 31  2  0  0  0  0
 31 32  1  0  0  0  0
M  CHG  3  14  -1  15  -1  21  -1
M  END
>  <CHROM.1>
51.97931788,58.59204181,-22.60591431,-179.16122871,-154.24995731,-111.29073399
171.57759346,46.82863165,15.74487691,-26.59004690,-18.06124749,-2.22882088
0.23012866,0.01009588

>  <Name>
ligand

>  <RI>
0

>  <Rbt.Current_Directory>
/home/itssahil/PROJECTS/Mol_Feturizer/New_Systems/rnas/4Y1I

>  <Rbt.Executable>
rbdock ($Id: //depot/dev/client3/rdock/2013.1/src/exe/rbdock.cxx#4 $)

>  <Rbt.Library>
libRbt.so (2013.1, Build901 2013/11/27)

>  <Rbt.Parameter_File>
/export/apps/rDock/src/rDock_2013.1_src/data/scripts/dock_solv.prm

>  <Rbt.Receptor>
prm/pocket_docking_2.prm

>  <SCORE>
0.111027

>  <SCORE.INTER>
3.78551

>  <SCORE.INTER.CONST>
1

>  <SCORE.INTER.POLAR>
0

>  <SCORE.INTER.ROT>
8

>  <SCORE.INTER.SOLV>
12.7862

>  <SCORE.INTER.VDW>
-10.6717

>  <SCORE.INTER.norm>
0.118297

>  <SCORE.INTRA>
-3.9297

>  <SCORE.INTRA.DIHEDRAL>
-4.7978

>  <SCORE.INTRA.DIHEDRAL.0>
10.9594

>  <SCORE.INTRA.POLAR>
0

>  <SCORE.INTRA.POLAR.0>
0

>  <SCORE.INTRA.REPUL>
0

>  <SCORE.INTRA.REPUL.0>
0

>  <SCORE.INTRA.SOLV>
-4.3709

>  <SCORE.INTRA.SOLV.lig_0>
-124.914

>  <SCORE.INTRA.VDW>
0.654643

>  <SCORE.INTRA.VDW.0>
-4.69801

>  <SCORE.INTRA.norm>
-0.122803

>  <SCORE.RESTR>
0.255226

>  <SCORE.RESTR.CAVITY>
0.255226

>  <SCORE.RESTR.norm>
0.00797581

>  <SCORE.SYSTEM>
0

>  <SCORE.SYSTEM.CONST>
0

>  <SCORE.SYSTEM.DIHEDRAL>
0

>  <SCORE.SYSTEM.SOLV>
0

>  <SCORE.SYSTEM.norm>
0

>  <SCORE.heavy>
32

>  <SCORE.norm>
0.0034696

>  <RMSD>
1.811

$$$$
ligand
 OpenBabel11021811513D
libRbt.so/2013.1/901 2013/11/27
 32 34  0  0  0  0  0  0  0  0999 V2000
   16.9326  -29.8076  -17.2070 P   0  0  1  0  0  0  0  0  0  0  0  0
   14.3455  -29.5341  -15.9972 P   0  0  2  0  0  0  0  0  0  0  0  0
   11.9188  -28.8011  -17.4768 P   0  0  1  0  0  0  0  0  0  0  0  0
   17.6977  -27.3414  -16.8551 C   0  0  0  0  0  0  0  0  0  0  0  0
   17.7892  -28.6598  -16.3953 O   0  0  0  0  0  0  0  0  0  0  0  0
   18.4999  -27.1849  -17.9800 C   0  0  1  0  0  0  0  0  0  0  0  0
   17.6540  -26.7489  -19.1608 O   0  0  0  0  0  0  0  0  0  0  0  0
   19.5817  -26.0289  -17.7668 C   0  0  1  0  0  0  0  0  0  0  0  0
   20.9692  -26.6295  -17.7833 O   0  0  0  0  0  0  0  0  0  0  0  0
   19.4904  -25.2907  -18.7507 C   0  0  1  0  0  0  0  0  0  0  0  0
   20.5218  -25.6688  -19.7463 O   0  0  0  0  0  0  0  0  0  0  0  0
   17.9697  -25.5353  -19.3844 C   0  0  2  0  0  0  0  0  0  0  0  0
   16.6456  -20.6835  -18.3394 N   0  0  0  0  0  0  0  0  0  0  0  0
   17.4605  -29.9402  -18.6141 O   0  5  0  0  0  0  0  0  0  0  0  0
   15.0256  -29.1141  -14.7184 O   0  5  0  0  0  0  0  0  0  0  0  0
   10.6749  -28.0163  -17.1320 O   0  0  0  0  0  0  0  0  0  0  0  0
   17.7259  -21.1192  -18.9685 C   0  0  0  0  0  0  0  0  0  0  0  0
   18.7018  -20.1632  -19.4514 N   0  0  0  0  0  0  0  0  0  0  0  0
   17.0473  -31.1175  -16.4606 O   0  0  0  0  0  0  0  0  0  0  0  0
   13.9657  -30.9892  -15.9122 O   0  0  0  0  0  0  0  0  0  0  0  0
   12.5179  -28.2458  -18.7505 O   0  5  0  0  0  0  0  0  0  0  0  0
   17.9464  -22.4019  -19.1726 N   0  0  0  0  0  0  0  0  0  0  0  0
   15.3600  -29.3370  -17.2727 O   0  0  0  0  0  0  0  0  0  0  0  0
   12.9935  -28.6276  -16.2341 O   0  0  0  0  0  0  0  0  0  0  0  0
   11.5483  -30.2566  -17.6607 O   0  0  0  0  0  0  0  0  0  0  0  0
   17.0700  -23.3176  -18.7424 C   0  0  0  0  0  0  0  0  0  0  0  0
   15.9353  -22.8902  -18.0829 C   0  0  0  0  0  0  0  0  0  0  0  0
   15.7201  -21.5138  -17.8768 C   0  0  0  0  0  0  0  0  0  0  0  0
   14.5737  -21.0482  -17.2091 O   0  0  0  0  0  0  0  0  0  0  0  0
   15.2221  -23.9810  -17.7549 N   0  0  0  0  0  0  0  0  0  0  0  0
   15.8865  -25.0367  -18.1916 C   0  0  0  0  0  0  0  0  0  0  0  0
   17.0023  -24.6575  -18.7861 N   0  0  0  0  0  0  0  0  0  0  0  0
  1  5  1  1  0  0  0
  1 14  1  0  0  0  0
  1 19  2  0  0  0  0
  1 23  1  0  0  0  0
  2 15  1  1  0  0  0
  2 20  2  0  0  0  0
  2 23  1  0  0  0  0
  2 24  1  0  0  0  0
  3 16  1  1  0  0  0
  3 21  1  0  0  0  0
  3 24  1  0  0  0  0
  3 25  2  0  0  0  0
  4  5  1  0  0  0  0
  6  4  1  1  0  0  0
  6  7  1  0  0  0  0
  6  8  1  0  0  0  0
  7 12  1  0  0  0  0
  8  9  1  6  0  0  0
  8 10  1  0  0  0  0
 10 11  1  6  0  0  0
 10 12  1  0  0  0  0
 12 32  1  1  0  0  0
 13 17  2  0  0  0  0
 13 28  1  0  0  0  0
 17 18  1  0  0  0  0
 17 22  1  0  0  0  0
 22 26  2  0  0  0  0
 26 27  1  0  0  0  0
 26 32  1  0  0  0  0
 27 28  2  0  0  0  0
 27 30  1  0  0  0  0
 28 29  1  0  0  0  0
 30 31  2  0  0  0  0
 31 32  1  0  0  0  0
M  CHG  3  14  -1  15  -1  21  -1
M  END
>  <CHROM.1>
64.68021716,44.57650275,166.29315412,120.47128536,-77.97940269,174.99208236
-79.62961361,-177.19794382,16.07075295,-26.72601869,-17.67628026,-2.07927793
0.13049537,-0.19088299

>  <Name>
ligand

>  <RI>
0

>  <Rbt.Current_Directory>
/home/itssahil/PROJECTS/Mol_Feturizer/New_Systems/rnas/4Y1I

>  <Rbt.Executable>
rbdock ($Id: //depot/dev/client3/rdock/2013.1/src/exe/rbdock.cxx#4 $)

>  <Rbt.Library>
libRbt.so (2013.1, Build901 2013/11/27)

>  <Rbt.Parameter_File>
/export/apps/rDock/src/rDock_2013.1_src/data/scripts/dock_solv.prm

>  <Rbt.Receptor>
prm/pocket_docking_2.prm

>  <SCORE>
2.92127

>  <SCORE.INTER>
4.63191

>  <SCORE.INTER.CONST>
1

>  <SCORE.INTER.POLAR>
0

>  <SCORE.INTER.ROT>
8

>  <SCORE.INTER.SOLV>
11.1762

>  <SCORE.INTER.VDW>
-9.5708

>  <SCORE.INTER.norm>
0.144747

>  <SCORE.INTRA>
-1.72943

>  <SCORE.INTRA.DIHEDRAL>
-1.71047

>  <SCORE.INTRA.DIHEDRAL.0>
10.9594

>  <SCORE.INTRA.POLAR>
0

>  <SCORE.INTRA.POLAR.0>
0

>  <SCORE.INTRA.REPUL>
0

>  <SCORE.INTRA.REPUL.0>
0

>  <SCORE.INTRA.SOLV>
-1.61263

>  <SCORE.INTRA.SOLV.lig_0>
-124.914

>  <SCORE.INTRA.VDW>
-0.0678831

>  <SCORE.INTRA.VDW.0>
-4.69801

>  <SCORE.INTRA.norm>
-0.0540447

>  <SCORE.RESTR>
0.018791

>  <SCORE.RESTR.CAVITY>
0.018791

>  <SCORE.RESTR.norm>
0.00058722

>  <SCORE.SYSTEM>
0

>  <SCORE.SYSTEM.CONST>
0

>  <SCORE.SYSTEM.DIHEDRAL>
0

>  <SCORE.SYSTEM.SOLV>
0

>  <SCORE.SYSTEM.norm>
0

>  <SCORE.heavy>
32

>  <SCORE.norm>
0.0912898

>  <RMSD>
1.849

$$$$
ligand
 OpenBabel11021811513D
libRbt.so/2013.1/901 2013/11/27
 32 34  0  0  0  0  0  0  0  0999 V2000
   16.9282  -29.1002  -16.5079 P   0  0  1  0  0  0  0  0  0  0  0  0
   14.1158  -28.5839  -16.7421 P   0  0  2  0  0  0  0  0  0  0  0  0
   13.6651  -29.3337  -19.5439 P   0  0  1  0  0  0  0  0  0  0  0  0
   18.5713  -27.2063  -17.2185 C   0  0  0  0  0  0  0  0  0  0  0  0
   18.2817  -28.5738  -17.2833 O   0  0  0  0  0  0  0  0  0  0  0  0
   19.4534  -26.8693  -18.2391 C   0  0  1  0  0  0  0  0  0  0  0  0
   18.6810  -26.3720  -19.4458 O   0  0  0  0  0  0  0  0  0  0  0  0
   20.4111  -25.6660  -17.8068 C   0  0  1  0  0  0  0  0  0  0  0  0
   21.8402  -26.1564  -17.7502 O   0  0  0  0  0  0  0  0  0  0  0  0
   20.3449  -24.8343  -18.7151 C   0  0  1  0  0  0  0  0  0  0  0  0
   21.4880  -25.0242  -19.6398 O   0  0  0  0  0  0  0  0  0  0  0  0
   18.9119  -25.1211  -19.5139 C   0  0  2  0  0  0  0  0  0  0  0  0
   16.9971  -20.5059  -18.3231 N   0  0  0  0  0  0  0  0  0  0  0  0
   16.5985  -30.5043  -16.9506 O   0  5  0  0  0  0  0  0  0  0  0  0
   13.1965  -27.3918  -16.8320 O   0  5  0  0  0  0  0  0  0  0  0  0
   14.9595  -28.6700  -19.9516 O   0  0  0  0  0  0  0  0  0  0  0  0
   18.1467  -20.7861  -18.9169 C   0  0  0  0  0  0  0  0  0  0  0  0
   19.0271  -19.7040  -19.3087 N   0  0  0  0  0  0  0  0  0  0  0  0
   17.1709  -29.0462  -15.0165 O   0  0  0  0  0  0  0  0  0  0  0  0
   13.9580  -29.2422  -15.3966 O   0  0  0  0  0  0  0  0  0  0  0  0
   13.5032  -30.6225  -20.3200 O   0  5  0  0  0  0  0  0  0  0  0  0
   18.5212  -22.0244  -19.1661 N   0  0  0  0  0  0  0  0  0  0  0  0
   15.6790  -28.1110  -16.9076 O   0  0  0  0  0  0  0  0  0  0  0  0
   13.7470  -29.6636  -17.9272 O   0  0  0  0  0  0  0  0  0  0  0  0
   12.5156  -28.3947  -19.8380 O   0  0  0  0  0  0  0  0  0  0  0  0
   17.7372  -23.0526  -18.8200 C   0  0  0  0  0  0  0  0  0  0  0  0
   16.5333  -22.7882  -18.1990 C   0  0  0  0  0  0  0  0  0  0  0  0
   16.1533  -21.4566  -17.9434 C   0  0  0  0  0  0  0  0  0  0  0  0
   14.9330  -21.1559  -17.3130 O   0  0  0  0  0  0  0  0  0  0  0  0
   15.9358  -23.9670  -17.9547 N   0  0  0  0  0  0  0  0  0  0  0  0
   16.7351  -24.9187  -18.4042 C   0  0  0  0  0  0  0  0  0  0  0  0
   17.8252  -24.3879  -18.9259 N   0  0  0  0  0  0  0  0  0  0  0  0
  1  5  1  6  0  0  0
  1 14  1  0  0  0  0
  1 19  2  0  0  0  0
  1 23  1  0  0  0  0
  2 15  1  6  0  0  0
  2 20  2  0  0  0  0
  2 23  1  0  0  0  0
  2 24  1  0  0  0  0
  3 16  1  6  0  0  0
  3 21  1  0  0  0  0
  3 24  1  0  0  0  0
  3 25  2  0  0  0  0
  4  5  1  0  0  0  0
  6  4  1  1  0  0  0
  6  7  1  0  0  0  0
  6  8  1  0  0  0  0
  7 12  1  0  0  0  0
  8  9  1  6  0  0  0
  8 10  1  0  0  0  0
 10 11  1  6  0  0  0
 10 12  1  0  0  0  0
 12 32  1  1  0  0  0
 13 17  2  0  0  0  0
 13 28  1  0  0  0  0
 17 18  1  0  0  0  0
 17 22  1  0  0  0  0
 22 26  2  0  0  0  0
 26 27  1  0  0  0  0
 26 32  1  0  0  0  0
 27 28  2  0  0  0  0
 27 30  1  0  0  0  0
 28 29  1  0  0  0  0
 30 31  2  0  0  0  0
 31 32  1  0  0  0  0
M  CHG  3  14  -1  15  -1  21  -1
M  END
>  <CHROM.1>
166.56578336,165.31285549,52.73287853,94.17143259,-160.97353794,179.68017718
159.49926807,54.32844438,16.68581553,-26.38860332,-18.07289749,-2.10540920
-0.04391732,-0.15095938

>  <Name>
ligand

>  <RI>
0

>  <Rbt.Current_Directory>
/home/itssahil/PROJECTS/Mol_Feturizer/New_Systems/rnas/4Y1I

>  <Rbt.Executable>
rbdock ($Id: //depot/dev/client3/rdock/2013.1/src/exe/rbdock.cxx#4 $)

>  <Rbt.Library>
libRbt.so (2013.1, Build901 2013/11/27)

>  <Rbt.Parameter_File>
/export/apps/rDock/src/rDock_2013.1_src/data/scripts/dock_solv.prm

>  <Rbt.Receptor>
prm/pocket_docking_2.prm

>  <SCORE>
-0.85276

>  <SCORE.INTER>
3.01811

>  <SCORE.INTER.CONST>
1

>  <SCORE.INTER.POLAR>
0

>  <SCORE.INTER.ROT>
8

>  <SCORE.INTER.SOLV>
14.4137

>  <SCORE.INTER.VDW>
-11.7258

>  <SCORE.INTER.norm>
0.0943161

>  <SCORE.INTRA>
-4.26732

>  <SCORE.INTRA.DIHEDRAL>
-3.52735

>  <SCORE.INTRA.DIHEDRAL.0>
10.9594

>  <SCORE.INTRA.POLAR>
0

>  <SCORE.INTRA.POLAR.0>
0

>  <SCORE.INTRA.REPUL>
0

>  <SCORE.INTRA.REPUL.0>
0

>  <SCORE.INTRA.SOLV>
-4.53211

>  <SCORE.INTRA.SOLV.lig_0>
-124.914

>  <SCORE.INTRA.VDW>
-0.237592

>  <SCORE.INTRA.VDW.0>
-4.69801

>  <SCORE.INTRA.norm>
-0.133354

>  <SCORE.RESTR>
0.396449

>  <SCORE.RESTR.CAVITY>
0.396449

>  <SCORE.RESTR.norm>
0.012389

>  <SCORE.SYSTEM>
0

>  <SCORE.SYSTEM.CONST>
0

>  <SCORE.SYSTEM.DIHEDRAL>
0

>  <SCORE.SYSTEM.SOLV>
0

>  <SCORE.SYSTEM.norm>
0

>  <SCORE.heavy>
32

>  <SCORE.norm>
-0.0266487

>  <RMSD>
1.885

$$$$
ligand
 OpenBabel11021811513D
libRbt.so/2013.1/901 2013/11/27
 32 34  0  0  0  0  0  0  0  0999 V2000
   16.1871  -28.2829  -18.8725 P   0  0  1  0  0  0  0  0  0  0  0  0
   15.0078  -30.2807  -17.1844 P   0  0  2  0  0  0  0  0  0  0  0  0
   12.2429  -29.6400  -16.4362 P   0  0  1  0  0  0  0  0  0  0  0  0
   18.5518  -27.3518  -18.2957 C   0  0  0  0  0  0  0  0  0  0  0  0
   17.7046  -27.8164  -19.3079 O   0  0  0  0  0  0  0  0  0  0  0  0
   19.6817  -26.7745  -18.8641 C   0  0  1  0  0  0  0  0  0  0  0  0
   19.2705  -25.7221  -19.8758 O   0  0  0  0  0  0  0  0  0  0  0  0
   20.5576  -26.0092  -17.7689 C   0  0  1  0  0  0  0  0  0  0  0  0
   21.8975  -26.6954  -17.6277 O   0  0  0  0  0  0  0  0  0  0  0  0
   20.7689  -24.8837  -18.2269 C   0  0  1  0  0  0  0  0  0  0  0  0
   22.0993  -24.8609  -18.8808 O   0  0  0  0  0  0  0  0  0  0  0  0
   19.5752  -24.6011  -19.3534 C   0  0  2  0  0  0  0  0  0  0  0  0
   16.8085  -20.3278  -18.6680 N   0  0  0  0  0  0  0  0  0  0  0  0
   15.4209  -27.0978  -18.3390 O   0  5  0  0  0  0  0  0  0  0  0  0
   15.3981  -31.2019  -16.0560 O   0  5  0  0  0  0  0  0  0  0  0  0
   11.7240  -30.2966  -17.6939 O   0  0  0  0  0  0  0  0  0  0  0  0
   17.9307  -20.4743  -19.3550 C   0  0  0  0  0  0  0  0  0  0  0  0
   18.5095  -19.3271  -20.0247 N   0  0  0  0  0  0  0  0  0  0  0  0
   15.4958  -28.8749  -20.0799 O   0  0  0  0  0  0  0  0  0  0  0  0
   14.5005  -31.0935  -18.3466 O   0  0  0  0  0  0  0  0  0  0  0  0
   12.1293  -30.6154  -15.2850 O   0  5  0  0  0  0  0  0  0  0  0  0
   18.5444  -21.6360  -19.4519 N   0  0  0  0  0  0  0  0  0  0  0  0
   16.3080  -29.4136  -17.6868 O   0  0  0  0  0  0  0  0  0  0  0  0
   13.8294  -29.2494  -16.6808 O   0  0  0  0  0  0  0  0  0  0  0  0
   11.4260  -28.3977  -16.1555 O   0  0  0  0  0  0  0  0  0  0  0  0
   18.0430  -22.7203  -18.8482 C   0  0  0  0  0  0  0  0  0  0  0  0
   16.8742  -22.5950  -18.1249 C   0  0  0  0  0  0  0  0  0  0  0  0
   16.2350  -21.3433  -18.0358 C   0  0  0  0  0  0  0  0  0  0  0  0
   15.0431  -21.1847  -17.3070 O   0  0  0  0  0  0  0  0  0  0  0  0
   16.5775  -23.8051  -17.6212 N   0  0  0  0  0  0  0  0  0  0  0  0
   17.5215  -24.6421  -18.0150 C   0  0  0  0  0  0  0  0  0  0  0  0
   18.4134  -24.0069  -18.7520 N   0  0  0  0  0  0  0  0  0  0  0  0
  1  5  1  6  0  0  0
  1 14  1  0  0  0  0
  1 19  2  0  0  0  0
  1 23  1  0  0  0  0
  2 15  1  1  0  0  0
  2 20  2  0  0  0  0
  2 23  1  0  0  0  0
  2 24  1  0  0  0  0
  3 16  1  6  0  0  0
  3 21  1  0  0  0  0
  3 24  1  0  0  0  0
  3 25  2  0  0  0  0
  4  5  1  0  0  0  0
  6  4  1  1  0  0  0
  6  7  1  0  0  0  0
  6  8  1  0  0  0  0
  7 12  1  0  0  0  0
  8  9  1  6  0  0  0
  8 10  1  0  0  0  0
 10 11  1  6  0  0  0
 10 12  1  0  0  0  0
 12 32  1  1  0  0  0
 13 17  2  0  0  0  0
 13 28  1  0  0  0  0
 17 18  1  0  0  0  0
 17 22  1  0  0  0  0
 22 26  2  0  0  0  0
 26 27  1  0  0  0  0
 26 32  1  0  0  0  0
 27 28  2  0  0  0  0
 27 30  1  0  0  0  0
 28 29  1  0  0  0  0
 30 31  2  0  0  0  0
 31 32  1  0  0  0  0
M  CHG  3  14  -1  15  -1  21  -1
M  END
>  <CHROM.1>
64.04941851,-177.85098080,-53.17503779,53.26086626,-168.94241200,-136.05873088
-169.75752028,-74.39371160,16.55673426,-26.50122332,-18.06881007,-2.19015453
0.22377145,-0.08708758

>  <Name>
ligand

>  <RI>
0

>  <Rbt.Current_Directory>
/home/itssahil/PROJECTS/Mol_Feturizer/New_Systems/rnas/4Y1I

>  <Rbt.Executable>
rbdock ($Id: //depot/dev/client3/rdock/2013.1/src/exe/rbdock.cxx#4 $)

>  <Rbt.Library>
libRbt.so (2013.1, Build901 2013/11/27)

>  <Rbt.Parameter_File>
/export/apps/rDock/src/rDock_2013.1_src/data/scripts/dock_solv.prm

>  <Rbt.Receptor>
prm/pocket_docking_2.prm

>  <SCORE>
-3.5941

>  <SCORE.INTER>
2.30271

>  <SCORE.INTER.CONST>
1

>  <SCORE.INTER.POLAR>
0

>  <SCORE.INTER.ROT>
8

>  <SCORE.INTER.SOLV>
12.2956

>  <SCORE.INTER.VDW>
-11.4967

>  <SCORE.INTER.norm>
0.0719596

>  <SCORE.INTRA>
-5.89681

>  <SCORE.INTRA.DIHEDRAL>
-8.36126

>  <SCORE.INTRA.DIHEDRAL.0>
10.9594

>  <SCORE.INTRA.POLAR>
0

>  <SCORE.INTRA.POLAR.0>
0

>  <SCORE.INTRA.REPUL>
0

>  <SCORE.INTRA.REPUL.0>
0

>  <SCORE.INTRA.SOLV>
-3.97473

>  <SCORE.INTRA.SOLV.lig_0>
-124.914

>  <SCORE.INTRA.VDW>
0.271185

>  <SCORE.INTRA.VDW.0>
-4.69801

>  <SCORE.INTRA.norm>
-0.184275

>  <SCORE.RESTR>
0

>  <SCORE.RESTR.CAVITY>
0

>  <SCORE.RESTR.norm>
0

>  <SCORE.SYSTEM>
0

>  <SCORE.SYSTEM.CONST>
0

>  <SCORE.SYSTEM.DIHEDRAL>
0

>  <SCORE.SYSTEM.SOLV>
0

>  <SCORE.SYSTEM.norm>
0

>  <SCORE.heavy>
32

>  <SCORE.norm>
-0.112316

>  <RMSD>
1.887

$$$$
ligand
 OpenBabel11021811513D
libRbt.so/2013.1/901 2013/11/27
 32 34  0  0  0  0  0  0  0  0999 V2000
   16.2136  -30.5961  -16.9255 P   0  0  1  0  0  0  0  0  0  0  0  0
   13.4573  -30.4248  -17.7031 P   0  0  2  0  0  0  0  0  0  0  0  0
   12.0811  -28.4936  -15.9734 P   0  0  1  0  0  0  0  0  0  0  0  0
   16.2014  -28.0781  -17.5969 C   0  0  0  0  0  0  0  0  0  0  0  0
   16.2789  -28.9961  -16.5437 O   0  0  0  0  0  0  0  0  0  0  0  0
   17.4477  -27.9583  -18.2016 C   0  0  1  0  0  0  0  0  0  0  0  0
   17.3776  -26.9519  -19.3339 O   0  0  0  0  0  0  0  0  0  0  0  0
   18.5379  -27.3921  -17.1803 C   0  0  1  0  0  0  0  0  0  0  0  0
   19.5916  -28.4479  -16.9334 O   0  0  0  0  0  0  0  0  0  0  0  0
   19.0895  -26.4518  -17.7572 C   0  0  1  0  0  0  0  0  0  0  0  0
   20.3480  -26.9274  -18.3800 O   0  0  0  0  0  0  0  0  0  0  0  0
   18.0310  -25.9341  -18.9342 C   0  0  2  0  0  0  0  0  0  0  0  0
   16.8619  -20.9389  -18.6766 N   0  0  0  0  0  0  0  0  0  0  0  0
   17.5241  -31.0308  -17.5335 O   0  5  0  0  0  0  0  0  0  0  0  0
   12.7437  -31.5890  -17.0632 O   0  5  0  0  0  0  0  0  0  0  0  0
   12.5290  -27.4291  -14.9994 O   0  0  0  0  0  0  0  0  0  0  0  0
   17.8808  -21.5094  -19.3003 C   0  0  0  0  0  0  0  0  0  0  0  0
   18.8261  -20.6820  -20.0223 N   0  0  0  0  0  0  0  0  0  0  0  0
   15.9125  -31.3830  -15.6700 O   0  0  0  0  0  0  0  0  0  0  0  0
   12.7780  -30.0671  -18.9989 O   0  0  0  0  0  0  0  0  0  0  0  0
   11.1918  -27.8627  -17.0225 O   0  5  0  0  0  0  0  0  0  0  0  0
   18.0667  -22.8136  -19.2875 N   0  0  0  0  0  0  0  0  0  0  0  0
   15.0167  -30.8218  -18.0278 O   0  0  0  0  0  0  0  0  0  0  0  0
   13.4269  -29.1276  -16.6920 O   0  0  0  0  0  0  0  0  0  0  0  0
   11.3256  -29.5656  -15.2189 O   0  0  0  0  0  0  0  0  0  0  0  0
   17.2168  -23.6134  -18.6321 C   0  0  0  0  0  0  0  0  0  0  0  0
   16.1461  -23.0441  -17.9729 C   0  0  0  0  0  0  0  0  0  0  0  0
   15.9668  -21.6477  -18.0010 C   0  0  0  0  0  0  0  0  0  0  0  0
   14.8856  -21.0390  -17.3396 O   0  0  0  0  0  0  0  0  0  0  0  0
   15.4480  -24.0390  -17.3992 N   0  0  0  0  0  0  0  0  0  0  0  0
   16.0601  -25.1736  -17.6901 C   0  0  0  0  0  0  0  0  0  0  0  0
   17.1280  -24.9373  -18.4291 N   0  0  0  0  0  0  0  0  0  0  0  0
  1  5  1  1  0  0  0
  1 14  1  0  0  0  0
  1 19  2  0  0  0  0
  1 23  1  0  0  0  0
  2 15  1  1  0  0  0
  2 20  2  0  0  0  0
  2 23  1  0  0  0  0
  2 24  1  0  0  0  0
  3 16  1  1  0  0  0
  3 21  1  0  0  0  0
  3 24  1  0  0  0  0
  3 25  2  0  0  0  0
  4  5  1  0  0  0  0
  6  4  1  1  0  0  0
  6  7  1  0  0  0  0
  6  8  1  0  0  0  0
  7 12  1  0  0  0  0
  8  9  1  6  0  0  0
  8 10  1  0  0  0  0
 10 11  1  6  0  0  0
 10 12  1  0  0  0  0
 12 32  1  1  0  0  0
 13 17  2  0  0  0  0
 13 28  1  0  0  0  0
 17 18  1  0  0  0  0
 17 22  1  0  0  0  0
 22 26  2  0  0  0  0
 26 27  1  0  0  0  0
 26 32  1  0  0  0  0
 27 28  2  0  0  0  0
 27 30  1  0  0  0  0
 28 29  1  0  0  0  0
 30 31  2  0  0  0  0
 31 32  1  0  0  0  0
M  CHG  3  14  -1  15  -1  21  -1
M  END
>  <CHROM.1>
74.54760503,-88.83072656,172.98446478,-179.29270044,-80.67166210,-138.99757673
-59.38091411,-51.75555711,15.70121959,-27.20362270,-17.54544950,-2.04698503
0.22904906,-0.12653547

>  <Name>
ligand

>  <RI>
0

>  <Rbt.Current_Directory>
/home/itssahil/PROJECTS/Mol_Feturizer/New_Systems/rnas/4Y1I

>  <Rbt.Executable>
rbdock ($Id: //depot/dev/client3/rdock/2013.1/src/exe/rbdock.cxx#4 $)

>  <Rbt.Library>
libRbt.so (2013.1, Build901 2013/11/27)

>  <Rbt.Parameter_File>
/export/apps/rDock/src/rDock_2013.1_src/data/scripts/dock_solv.prm

>  <Rbt.Receptor>
prm/pocket_docking_2.prm

>  <SCORE>
1.94042

>  <SCORE.INTER>
5.6424

>  <SCORE.INTER.CONST>
1

>  <SCORE.INTER.POLAR>
0

>  <SCORE.INTER.ROT>
8

>  <SCORE.INTER.SOLV>
6.75272

>  <SCORE.INTER.VDW>
-7.42264

>  <SCORE.INTER.norm>
0.176325

>  <SCORE.INTRA>
-3.74068

>  <SCORE.INTRA.DIHEDRAL>
-6.14137

>  <SCORE.INTRA.DIHEDRAL.0>
10.9594

>  <SCORE.INTRA.POLAR>
0

>  <SCORE.INTRA.POLAR.0>
0

>  <SCORE.INTRA.REPUL>
0

>  <SCORE.INTRA.REPUL.0>
0

>  <SCORE.INTRA.SOLV>
-1.63382

>  <SCORE.INTRA.SOLV.lig_0>
-124.914

>  <SCORE.INTRA.VDW>
0.146911

>  <SCORE.INTRA.VDW.0>
-4.69801

>  <SCORE.INTRA.norm>
-0.116896

>  <SCORE.RESTR>
0.0387085

>  <SCORE.RESTR.CAVITY>
0.0387085

>  <SCORE.RESTR.norm>
0.00120964

>  <SCORE.SYSTEM>
0

>  <SCORE.SYSTEM.CONST>
0

>  <SCORE.SYSTEM.DIHEDRAL>
0

>  <SCORE.SYSTEM.SOLV>
0

>  <SCORE.SYSTEM.norm>
0

>  <SCORE.heavy>
32

>  <SCORE.norm>
0.0606382

>  <RMSD>
1.897

$$$$
ligand
 OpenBabel11021811513D
libRbt.so/2013.1/901 2013/11/27
 32 34  0  0  0  0  0  0  0  0999 V2000
   17.4707  -28.6846  -17.0771 P   0  0  1  0  0  0  0  0  0  0  0  0
   15.2652  -29.0622  -18.8728 P   0  0  2  0  0  0  0  0  0  0  0  0
   13.1895  -30.9047  -17.9181 P   0  0  1  0  0  0  0  0  0  0  0  0
   19.0751  -26.7140  -17.6551 C   0  0  0  0  0  0  0  0  0  0  0  0
   18.2196  -27.6984  -18.1620 O   0  0  0  0  0  0  0  0  0  0  0  0
   19.5554  -25.9328  -18.7002 C   0  0  1  0  0  0  0  0  0  0  0  0
   18.3974  -25.4068  -19.5262 O   0  0  0  0  0  0  0  0  0  0  0  0
   20.3256  -24.6432  -18.1564 C   0  0  1  0  0  0  0  0  0  0  0  0
   21.7849  -24.7291  -18.5427 O   0  0  0  0  0  0  0  0  0  0  0  0
   19.8438  -23.6797  -18.7571 C   0  0  1  0  0  0  0  0  0  0  0  0
   20.7042  -23.3429  -19.9165 O   0  0  0  0  0  0  0  0  0  0  0  0
   18.3380  -24.1576  -19.2845 C   0  0  2  0  0  0  0  0  0  0  0  0
   14.2580  -21.3272  -17.9701 N   0  0  0  0  0  0  0  0  0  0  0  0
   18.4945  -29.5375  -16.3696 O   0  5  0  0  0  0  0  0  0  0  0  0
   15.8545  -28.6576  -20.2007 O   0  5  0  0  0  0  0  0  0  0  0  0
   14.1259  -31.4990  -16.8922 O   0  0  0  0  0  0  0  0  0  0  0  0
   14.9870  -21.2491  -19.0725 C   0  0  0  0  0  0  0  0  0  0  0  0
   14.6493  -20.2639  -20.0800 N   0  0  0  0  0  0  0  0  0  0  0  0
   16.7047  -27.8303  -16.0924 O   0  0  0  0  0  0  0  0  0  0  0  0
   14.6569  -27.8580  -18.2030 O   0  0  0  0  0  0  0  0  0  0  0  0
   12.3280  -29.8537  -17.2526 O   0  5  0  0  0  0  0  0  0  0  0  0
   16.0168  -22.0421  -19.2873 N   0  0  0  0  0  0  0  0  0  0  0  0
   16.4345  -29.6656  -17.8913 O   0  0  0  0  0  0  0  0  0  0  0  0
   14.1056  -30.2061  -19.1021 O   0  0  0  0  0  0  0  0  0  0  0  0
   12.3257  -32.0058  -18.4934 O   0  0  0  0  0  0  0  0  0  0  0  0
   16.3622  -22.9654  -18.3819 C   0  0  0  0  0  0  0  0  0  0  0  0
   15.6191  -23.0676  -17.2232 C   0  0  0  0  0  0  0  0  0  0  0  0
   14.5219  -22.2098  -17.0154 C   0  0  0  0  0  0  0  0  0  0  0  0
   13.7459  -22.2905  -15.8457 O   0  0  0  0  0  0  0  0  0  0  0  0
   16.1553  -24.0533  -16.4835 N   0  0  0  0  0  0  0  0  0  0  0  0
   17.1850  -24.5391  -17.1547 C   0  0  0  0  0  0  0  0  0  0  0  0
   17.3267  -23.8952  -18.2982 N   0  0  0  0  0  0  0  0  0  0  0  0
  1  5  1  6  0  0  0
  1 14  1  0  0  0  0
  1 19  2  0  0  0  0
  1 23  1  0  0  0  0
  2 15  1  6  0  0  0
  2 20  2  0  0  0  0
  2 23  1  0  0  0  0
  2 24  1  0  0  0  0
  3 16  1  1  0  0  0
  3 21  1  0  0  0  0
  3 24  1  0  0  0  0
  3 25  2  0  0  0  0
  4  5  1  0  0  0  0
  6  4  1  1  0  0  0
  6  7  1  0  0  0  0
  6  8  1  0  0  0  0
  7 12  1  0  0  0  0
  8  9  1  6  0  0  0
  8 10  1  0  0  0  0
 10 11  1  6  0  0  0
 10 12  1  0  0  0  0
 12 32  1  1  0  0  0
 13 17  2  0  0  0  0
 13 28  1  0  0  0  0
 17 18  1  0  0  0  0
 17 22  1  0  0  0  0
 22 26  2  0  0  0  0
 26 27  1  0  0  0  0
 26 32  1  0  0  0  0
 27 28  2  0  0  0  0
 27 30  1  0  0  0  0
 28 29  1  0  0  0  0
 30 31  2  0  0  0  0
 31 32  1  0  0  0  0
M  CHG  3  14  -1  15  -1  21  -1
M  END
>  <CHROM.1>
-65.72212022,78.96176505,-55.29490185,52.95059806,-176.63720717,-131.13094507
-55.42677745,-178.83612578,16.36217847,-26.47302877,-18.10230076,-1.95557916
0.07622940,-0.04668631

>  <Name>
ligand

>  <RI>
0

>  <Rbt.Current_Directory>
/home/itssahil/PROJECTS/Mol_Feturizer/New_Systems/rnas/4Y1I

>  <Rbt.Executable>
rbdock ($Id: //depot/dev/client3/rdock/2013.1/src/exe/rbdock.cxx#4 $)

>  <Rbt.Library>
libRbt.so (2013.1, Build901 2013/11/27)

>  <Rbt.Parameter_File>
/export/apps/rDock/src/rDock_2013.1_src/data/scripts/dock_solv.prm

>  <Rbt.Receptor>
prm/pocket_docking_3.prm

>  <SCORE>
-3.90314

>  <SCORE.INTER>
2.77387

>  <SCORE.INTER.CONST>
1

>  <SCORE.INTER.POLAR>
0

>  <SCORE.INTER.ROT>
8

>  <SCORE.INTER.SOLV>
8.58479

>  <SCORE.INTER.VDW>
-9.94568

>  <SCORE.INTER.norm>
0.0866836

>  <SCORE.INTRA>
-6.67701

>  <SCORE.INTRA.DIHEDRAL>
-8.83605

>  <SCORE.INTRA.DIHEDRAL.0>
10.9594

>  <SCORE.INTRA.POLAR>
0

>  <SCORE.INTRA.POLAR.0>
0

>  <SCORE.INTRA.REPUL>
0

>  <SCORE.INTRA.REPUL.0>
0

>  <SCORE.INTRA.SOLV>
-4.70944

>  <SCORE.INTRA.SOLV.lig_0>
-124.914

>  <SCORE.INTRA.VDW>
0.0957343

>  <SCORE.INTRA.VDW.0>
-4.69801

>  <SCORE.INTRA.norm>
-0.208657

>  <SCORE.RESTR>
0

>  <SCORE.RESTR.CAVITY>
0

>  <SCORE.RESTR.norm>
0

>  <SCORE.SYSTEM>
0

>  <SCORE.SYSTEM.CONST>
0

>  <SCORE.SYSTEM.DIHEDRAL>
0

>  <SCORE.SYSTEM.SOLV>
0

>  <SCORE.SYSTEM.norm>
0

>  <SCORE.heavy>
32

>  <SCORE.norm>
-0.121973

>  <RMSD>
1.966

$$$$
ligand
 OpenBabel11021811513D
libRbt.so/2013.1/901 2013/11/27
 32 34  0  0  0  0  0  0  0  0999 V2000
   15.4113  -28.1431  -18.8342 P   0  0  1  0  0  0  0  0  0  0  0  0
   15.4431  -29.9743  -16.6259 P   0  0  2  0  0  0  0  0  0  0  0  0
   12.5242  -30.1741  -16.3903 P   0  0  1  0  0  0  0  0  0  0  0  0
   17.8894  -27.6382  -18.2053 C   0  0  0  0  0  0  0  0  0  0  0  0
   16.9390  -27.6760  -19.2317 O   0  0  0  0  0  0  0  0  0  0  0  0
   19.0997  -27.1755  -18.7096 C   0  0  1  0  0  0  0  0  0  0  0  0
   18.8506  -26.0672  -19.7144 O   0  0  0  0  0  0  0  0  0  0  0  0
   20.0000  -26.5285  -17.5594 C   0  0  1  0  0  0  0  0  0  0  0  0
   21.2511  -27.3571  -17.3743 O   0  0  0  0  0  0  0  0  0  0  0  0
   20.3512  -25.4241  -17.9818 C   0  0  1  0  0  0  0  0  0  0  0  0
   21.7055  -25.5328  -18.5751 O   0  0  0  0  0  0  0  0  0  0  0  0
   19.2482  -24.9948  -19.1536 C   0  0  2  0  0  0  0  0  0  0  0  0
   16.7953  -20.5049  -18.6961 N   0  0  0  0  0  0  0  0  0  0  0  0
   14.8571  -27.2281  -17.7703 O   0  5  0  0  0  0  0  0  0  0  0  0
   16.5533  -29.2234  -15.9347 O   0  5  0  0  0  0  0  0  0  0  0  0
   12.4031  -30.2126  -17.8957 O   0  0  0  0  0  0  0  0  0  0  0  0
   17.9074  -20.7650  -19.3657 C   0  0  0  0  0  0  0  0  0  0  0  0
   18.5713  -19.6961  -20.0843 N   0  0  0  0  0  0  0  0  0  0  0  0
   14.5534  -28.1074  -20.0788 O   0  0  0  0  0  0  0  0  0  0  0  0
   15.6276  -31.4543  -16.4152 O   0  0  0  0  0  0  0  0  0  0  0  0
   12.4493  -31.5859  -15.8509 O   0  5  0  0  0  0  0  0  0  0  0  0
   18.4357  -21.9713  -19.4019 N   0  0  0  0  0  0  0  0  0  0  0  0
   15.4708  -29.6732  -18.2394 O   0  0  0  0  0  0  0  0  0  0  0  0
   13.9891  -29.5104  -16.0122 O   0  0  0  0  0  0  0  0  0  0  0  0
   11.3983  -29.3352  -15.8264 O   0  0  0  0  0  0  0  0  0  0  0  0
   17.8540  -22.9863  -18.7516 C   0  0  0  0  0  0  0  0  0  0  0  0
   16.6936  -22.7422  -18.0452 C   0  0  0  0  0  0  0  0  0  0  0  0
   16.1464  -21.4449  -18.0212 C   0  0  0  0  0  0  0  0  0  0  0  0
   14.9655  -21.1657  -17.3111 O   0  0  0  0  0  0  0  0  0  0  0  0
   16.3073  -23.9021  -17.4870 N   0  0  0  0  0  0  0  0  0  0  0  0
   17.1901  -24.8231  -17.8324 C   0  0  0  0  0  0  0  0  0  0  0  0
   18.1296  -24.2902  -18.5911 N   0  0  0  0  0  0  0  0  0  0  0  0
  1  5  1  6  0  0  0
  1 14  1  0  0  0  0
  1 19  2  0  0  0  0
  1 23  1  0  0  0  0
  2 15  1  1  0  0  0
  2 20  2  0  0  0  0
  2 23  1  0  0  0  0
  2 24  1  0  0  0  0
  3 16  1  6  0  0  0
  3 21  1  0  0  0  0
  3 24  1  0  0  0  0
  3 25  2  0  0  0  0
  4  5  1  0  0  0  0
  6  4  1  1  0  0  0
  6  7  1  0  0  0  0
  6  8  1  0  0  0  0
  7 12  1  0  0  0  0
  8  9  1  6  0  0  0
  8 10  1  0  0  0  0
 10 11  1  6  0  0  0
 10 12  1  0  0  0  0
 12 32  1  1  0  0  0
 13 17  2  0  0  0  0
 13 28  1  0  0  0  0
 17 18  1  0  0  0  0
 17 22  1  0  0  0  0
 22 26  2  0  0  0  0
 26 27  1  0  0  0  0
 26 32  1  0  0  0  0
 27 28  2  0  0  0  0
 27 30  1  0  0  0  0
 28 29  1  0  0  0  0
 30 31  2  0  0  0  0
 31 32  1  0  0  0  0
M  CHG  3  14  -1  15  -1  21  -1
M  END
>  <CHROM.1>
58.16375162,-55.34602117,-50.64170655,38.70554463,-177.70933947,-131.13807677
99.83453690,-174.37471604,16.41299375,-26.66910840,-17.89506876,2.11501741
-0.16141803,2.97766120

>  <Name>
ligand

>  <RI>
0

>  <Rbt.Current_Directory>
/home/itssahil/PROJECTS/Mol_Feturizer/New_Systems/rnas/4Y1I

>  <Rbt.Executable>
rbdock ($Id: //depot/dev/client3/rdock/2013.1/src/exe/rbdock.cxx#4 $)

>  <Rbt.Library>
libRbt.so (2013.1, Build901 2013/11/27)

>  <Rbt.Parameter_File>
/export/apps/rDock/src/rDock_2013.1_src/data/scripts/dock_solv.prm

>  <Rbt.Receptor>
prm/pocket_docking_2.prm

>  <SCORE>
-2.17238

>  <SCORE.INTER>
2.6585

>  <SCORE.INTER.CONST>
1

>  <SCORE.INTER.POLAR>
0

>  <SCORE.INTER.ROT>
8

>  <SCORE.INTER.SOLV>
11.1951

>  <SCORE.INTER.VDW>
-10.8927

>  <SCORE.INTER.norm>
0.0830781

>  <SCORE.INTRA>
-4.83088

>  <SCORE.INTRA.DIHEDRAL>
-6.24789

>  <SCORE.INTRA.DIHEDRAL.0>
10.9594

>  <SCORE.INTRA.POLAR>
0

>  <SCORE.INTRA.POLAR.0>
0

>  <SCORE.INTRA.REPUL>
0

>  <SCORE.INTRA.REPUL.0>
0

>  <SCORE.INTRA.SOLV>
-2.98439

>  <SCORE.INTRA.SOLV.lig_0>
-124.914

>  <SCORE.INTRA.VDW>
-0.214739

>  <SCORE.INTRA.VDW.0>
-4.69801

>  <SCORE.INTRA.norm>
-0.150965

>  <SCORE.RESTR>
0

>  <SCORE.RESTR.CAVITY>
0

>  <SCORE.RESTR.norm>
0

>  <SCORE.SYSTEM>
0

>  <SCORE.SYSTEM.CONST>
0

>  <SCORE.SYSTEM.DIHEDRAL>
0

>  <SCORE.SYSTEM.SOLV>
0

>  <SCORE.SYSTEM.norm>
0

>  <SCORE.heavy>
32

>  <SCORE.norm>
-0.0678868

>  <RMSD>
1.984

$$$$
ligand
 OpenBabel11021811513D
libRbt.so/2013.1/901 2013/11/27
 32 34  0  0  0  0  0  0  0  0999 V2000
   17.9666  -28.7989  -17.6444 P   0  0  1  0  0  0  0  0  0  0  0  0
   15.2186  -28.0337  -17.3375 P   0  0  2  0  0  0  0  0  0  0  0  0
   13.4441  -29.7948  -18.8753 P   0  0  1  0  0  0  0  0  0  0  0  0
   19.0390  -27.0748  -19.2781 C   0  0  0  0  0  0  0  0  0  0  0  0
   19.2766  -28.0536  -18.3067 O   0  0  0  0  0  0  0  0  0  0  0  0
   20.2207  -26.3950  -19.5514 C   0  0  1  0  0  0  0  0  0  0  0  0
   19.9470  -25.2452  -20.5016 O   0  0  0  0  0  0  0  0  0  0  0  0
   20.8310  -25.7348  -18.2308 C   0  0  1  0  0  0  0  0  0  0  0  0
   22.1576  -26.3857  -17.9103 O   0  0  0  0  0  0  0  0  0  0  0  0
   21.0599  -24.5562  -18.5133 C   0  0  1  0  0  0  0  0  0  0  0  0
   22.4857  -24.4096  -18.8922 O   0  0  0  0  0  0  0  0  0  0  0  0
   20.0842  -24.1839  -19.8106 C   0  0  2  0  0  0  0  0  0  0  0  0
   17.2716  -20.1320  -18.3766 N   0  0  0  0  0  0  0  0  0  0  0  0
   17.4080  -29.8096  -18.6152 O   0  5  0  0  0  0  0  0  0  0  0  0
   14.3926  -26.7825  -17.5001 O   0  5  0  0  0  0  0  0  0  0  0  0
   12.3910  -28.7128  -18.9268 O   0  0  0  0  0  0  0  0  0  0  0  0
   18.5491  -20.1597  -18.7229 C   0  0  0  0  0  0  0  0  0  0  0  0
   19.3134  -18.9286  -18.7204 N   0  0  0  0  0  0  0  0  0  0  0  0
   18.3875  -29.4641  -16.3535 O   0  0  0  0  0  0  0  0  0  0  0  0
   14.8850  -28.6912  -16.0240 O   0  0  0  0  0  0  0  0  0  0  0  0
   13.4948  -30.5010  -20.2126 O   0  5  0  0  0  0  0  0  0  0  0  0
   19.1545  -21.2762  -19.0727 N   0  0  0  0  0  0  0  0  0  0  0  0
   16.8181  -27.6643  -17.3406 O   0  0  0  0  0  0  0  0  0  0  0  0
   14.9001  -29.0766  -18.5690 O   0  0  0  0  0  0  0  0  0  0  0  0
   13.0919  -30.7737  -17.7766 O   0  0  0  0  0  0  0  0  0  0  0  0
   18.4846  -22.4349  -19.0881 C   0  0  0  0  0  0  0  0  0  0  0  0
   17.1514  -22.4341  -18.7308 C   0  0  0  0  0  0  0  0  0  0  0  0
   16.5248  -21.2283  -18.3612 C   0  0  0  0  0  0  0  0  0  0  0  0
   15.1682  -21.1959  -17.9930 O   0  0  0  0  0  0  0  0  0  0  0  0
   16.7060  -23.6986  -18.8243 N   0  0  0  0  0  0  0  0  0  0  0  0
   17.7191  -24.4488  -19.2213 C   0  0  0  0  0  0  0  0  0  0  0  0
   18.7984  -23.7063  -19.3827 N   0  0  0  0  0  0  0  0  0  0  0  0
  1  5  1  6  0  0  0
  1 14  1  0  0  0  0
  1 19  2  0  0  0  0
  1 23  1  0  0  0  0
  2 15  1  6  0  0  0
  2 20  2  0  0  0  0
  2 23  1  0  0  0  0
  2 24  1  0  0  0  0
  3 16  1  6  0  0  0
  3 21  1  0  0  0  0
  3 24  1  0  0  0  0
  3 25  2  0  0  0  0
  4  5  1  0  0  0  0
  6  4  1  1  0  0  0
  6  7  1  0  0  0  0
  6  8  1  0  0  0  0
  7 12  1  0  0  0  0
  8  9  1  6  0  0  0
  8 10  1  0  0  0  0
 10 11  1  6  0  0  0
 10 12  1  0  0  0  0
 12 32  1  1  0  0  0
 13 17  2  0  0  0  0
 13 28  1  0  0  0  0
 17 18  1  0  0  0  0
 17 22  1  0  0  0  0
 22 26  2  0  0  0  0
 26 27  1  0  0  0  0
 26 32  1  0  0  0  0
 27 28  2  0  0  0  0
 27 30  1  0  0  0  0
 28 29  1  0  0  0  0
 30 31  2  0  0  0  0
 31 32  1  0  0  0  0
M  CHG  3  14  -1  15  -1  21  -1
M  END
>  <CHROM.1>
76.33710683,-160.86678784,52.02876466,-174.52371981,169.59750114,-153.84933292
151.81290904,-63.49354249,17.30314674,-26.12138915,-18.43764103,-2.13200722
0.03914051,-0.06896440

>  <Name>
ligand

>  <RI>
0

>  <Rbt.Current_Directory>
/home/itssahil/PROJECTS/Mol_Feturizer/New_Systems/rnas/4Y1I

>  <Rbt.Executable>
rbdock ($Id: //depot/dev/client3/rdock/2013.1/src/exe/rbdock.cxx#4 $)

>  <Rbt.Library>
libRbt.so (2013.1, Build901 2013/11/27)

>  <Rbt.Parameter_File>
/export/apps/rDock/src/rDock_2013.1_src/data/scripts/dock_solv.prm

>  <Rbt.Receptor>
prm/pocket_docking_2.prm

>  <SCORE>
-1.47467

>  <SCORE.INTER>
2.78084

>  <SCORE.INTER.CONST>
1

>  <SCORE.INTER.POLAR>
0

>  <SCORE.INTER.ROT>
8

>  <SCORE.INTER.SOLV>
15.6188

>  <SCORE.INTER.VDW>
-12.2857

>  <SCORE.INTER.norm>
0.0869014

>  <SCORE.INTRA>
-4.58231

>  <SCORE.INTRA.DIHEDRAL>
-6.83166

>  <SCORE.INTRA.DIHEDRAL.0>
10.9594

>  <SCORE.INTRA.POLAR>
0

>  <SCORE.INTRA.POLAR.0>
0

>  <SCORE.INTRA.REPUL>
0

>  <SCORE.INTRA.REPUL.0>
0

>  <SCORE.INTRA.SOLV>
-3.84189

>  <SCORE.INTRA.SOLV.lig_0>
-124.914

>  <SCORE.INTRA.VDW>
0.754461

>  <SCORE.INTRA.VDW.0>
-4.69801

>  <SCORE.INTRA.norm>
-0.143197

>  <SCORE.RESTR>
0.326795

>  <SCORE.RESTR.CAVITY>
0.326795

>  <SCORE.RESTR.norm>
0.0102123

>  <SCORE.SYSTEM>
0

>  <SCORE.SYSTEM.CONST>
0

>  <SCORE.SYSTEM.DIHEDRAL>
0

>  <SCORE.SYSTEM.SOLV>
0

>  <SCORE.SYSTEM.norm>
0

>  <SCORE.heavy>
32

>  <SCORE.norm>
-0.0460836

>  <RMSD>
1.986

$$$$
ligand
 OpenBabel11021811513D
libRbt.so/2013.1/901 2013/11/27
 32 34  0  0  0  0  0  0  0  0999 V2000
   16.1225  -28.7900  -19.0715 P   0  0  1  0  0  0  0  0  0  0  0  0
   15.3155  -28.1857  -16.3855 P   0  0  2  0  0  0  0  0  0  0  0  0
   12.4070  -28.0524  -16.0141 P   0  0  1  0  0  0  0  0  0  0  0  0
   18.2793  -27.5074  -18.3680 C   0  0  0  0  0  0  0  0  0  0  0  0
   17.4648  -27.9079  -19.4329 O   0  0  0  0  0  0  0  0  0  0  0  0
   19.4498  -26.9446  -18.8644 C   0  0  1  0  0  0  0  0  0  0  0  0
   19.1149  -25.8222  -19.8277 O   0  0  0  0  0  0  0  0  0  0  0  0
   20.3142  -26.2768  -17.6986 C   0  0  1  0  0  0  0  0  0  0  0  0
   21.6213  -27.0223  -17.5518 O   0  0  0  0  0  0  0  0  0  0  0  0
   20.5840  -25.1368  -18.0845 C   0  0  1  0  0  0  0  0  0  0  0  0
   21.9368  -25.1304  -18.6910 O   0  0  0  0  0  0  0  0  0  0  0  0
   19.4428  -24.7448  -19.2325 C   0  0  2  0  0  0  0  0  0  0  0  0
   16.6848  -20.4568  -18.6070 N   0  0  0  0  0  0  0  0  0  0  0  0
   15.3147  -29.0282  -20.3232 O   0  5  0  0  0  0  0  0  0  0  0  0
   16.5308  -27.4876  -15.8286 O   0  5  0  0  0  0  0  0  0  0  0  0
   12.3269  -29.5599  -15.9545 O   0  0  0  0  0  0  0  0  0  0  0  0
   17.8050  -20.6159  -19.2944 C   0  0  0  0  0  0  0  0  0  0  0  0
   18.3841  -19.4802  -19.9833 N   0  0  0  0  0  0  0  0  0  0  0  0
   16.5545  -30.0986  -18.4493 O   0  0  0  0  0  0  0  0  0  0  0  0
   15.4269  -29.6672  -16.1375 O   0  0  0  0  0  0  0  0  0  0  0  0
   11.4602  -27.4651  -14.9903 O   0  5  0  0  0  0  0  0  0  0  0  0
   18.4166  -21.7800  -19.3746 N   0  0  0  0  0  0  0  0  0  0  0  0
   15.2089  -27.9379  -18.0048 O   0  0  0  0  0  0  0  0  0  0  0  0
   13.9579  -27.6086  -15.6576 O   0  0  0  0  0  0  0  0  0  0  0  0
   12.0284  -27.5932  -17.4052 O   0  0  0  0  0  0  0  0  0  0  0  0
   17.9150  -22.8539  -18.7528 C   0  0  0  0  0  0  0  0  0  0  0  0
   16.7481  -22.7153  -18.0288 C   0  0  0  0  0  0  0  0  0  0  0  0
   16.1112  -21.4614  -17.9576 C   0  0  0  0  0  0  0  0  0  0  0  0
   14.9214  -21.2894  -17.2284 O   0  0  0  0  0  0  0  0  0  0  0  0
   16.4507  -23.9170  -17.5055 N   0  0  0  0  0  0  0  0  0  0  0  0
   17.3923  -24.7616  -17.8885 C   0  0  0  0  0  0  0  0  0  0  0  0
   18.2835  -24.1395  -18.6375 N   0  0  0  0  0  0  0  0  0  0  0  0
  1  5  1  6  0  0  0
  1 14  1  0  0  0  0
  1 19  2  0  0  0  0
  1 23  1  0  0  0  0
  2 15  1  1  0  0  0
  2 20  2  0  0  0  0
  2 23  1  0  0  0  0
  2 24  1  0  0  0  0
  3 16  1  1  0  0  0
  3 21  1  0  0  0  0
  3 24  1  0  0  0  0
  3 25  2  0  0  0  0
  4  5  1  0  0  0  0
  6  4  1  1  0  0  0
  6  7  1  0  0  0  0
  6  8  1  0  0  0  0
  7 12  1  0  0  0  0
  8  9  1  6  0  0  0
  8 10  1  0  0  0  0
 10 11  1  6  0  0  0
 10 12  1  0  0  0  0
 12 32  1  1  0  0  0
 13 17  2  0  0  0  0
 13 28  1  0  0  0  0
 17 18  1  0  0  0  0
 17 22  1  0  0  0  0
 22 26  2  0  0  0  0
 26 27  1  0  0  0  0
 26 32  1  0  0  0  0
 27 28  2  0  0  0  0
 27 30  1  0  0  0  0
 28 29  1  0  0  0  0
 30 31  2  0  0  0  0
 31 32  1  0  0  0  0
M  CHG  3  14  -1  15  -1  21  -1
M  END
>  <CHROM.1>
175.27913947,79.11344490,52.47204896,54.55480600,171.66125651,-130.95836921
-95.49075521,177.26320308,16.57220906,-26.09051544,-17.85902729,-2.29568327
0.32768251,-0.07485086

>  <Name>
ligand

>  <RI>
0

>  <Rbt.Current_Directory>
/home/itssahil/PROJECTS/Mol_Feturizer/New_Systems/rnas/4Y1I

>  <Rbt.Executable>
rbdock ($Id: //depot/dev/client3/rdock/2013.1/src/exe/rbdock.cxx#4 $)

>  <Rbt.Library>
libRbt.so (2013.1, Build901 2013/11/27)

>  <Rbt.Parameter_File>
/export/apps/rDock/src/rDock_2013.1_src/data/scripts/dock_solv.prm

>  <Rbt.Receptor>
prm/pocket_docking_2.prm

>  <SCORE>
-2.77909

>  <SCORE.INTER>
2.12468

>  <SCORE.INTER.CONST>
1

>  <SCORE.INTER.POLAR>
0

>  <SCORE.INTER.ROT>
8

>  <SCORE.INTER.SOLV>
12.4118

>  <SCORE.INTER.VDW>
-11.6541

>  <SCORE.INTER.norm>
0.0663963

>  <SCORE.INTRA>
-4.90377

>  <SCORE.INTRA.DIHEDRAL>
-7.03293

>  <SCORE.INTRA.DIHEDRAL.0>
10.9594

>  <SCORE.INTRA.POLAR>
0

>  <SCORE.INTRA.POLAR.0>
0

>  <SCORE.INTRA.REPUL>
0

>  <SCORE.INTRA.REPUL.0>
0

>  <SCORE.INTRA.SOLV>
-3.35632

>  <SCORE.INTRA.SOLV.lig_0>
-124.914

>  <SCORE.INTRA.VDW>
0.290849

>  <SCORE.INTRA.VDW.0>
-4.69801

>  <SCORE.INTRA.norm>
-0.153243

>  <SCORE.RESTR>
0

>  <SCORE.RESTR.CAVITY>
0

>  <SCORE.RESTR.norm>
0

>  <SCORE.SYSTEM>
0

>  <SCORE.SYSTEM.CONST>
0

>  <SCORE.SYSTEM.DIHEDRAL>
0

>  <SCORE.SYSTEM.SOLV>
0

>  <SCORE.SYSTEM.norm>
0

>  <SCORE.heavy>
32

>  <SCORE.norm>
-0.0868467

>  <RMSD>
2.001

$$$$
ligand
 OpenBabel11021811513D
libRbt.so/2013.1/901 2013/11/27
 32 34  0  0  0  0  0  0  0  0999 V2000
   17.9585  -28.7129  -16.8922 P   0  0  1  0  0  0  0  0  0  0  0  0
   15.7787  -30.4192  -17.6458 P   0  0  2  0  0  0  0  0  0  0  0  0
   13.2294  -29.9434  -16.2709 P   0  0  1  0  0  0  0  0  0  0  0  0
   19.1110  -27.1382  -18.6195 C   0  0  0  0  0  0  0  0  0  0  0  0
   19.3022  -28.0778  -17.6003 O   0  0  0  0  0  0  0  0  0  0  0  0
   20.3444  -26.7481  -19.1292 C   0  0  1  0  0  0  0  0  0  0  0  0
   20.1467  -25.7401  -20.2449 O   0  0  0  0  0  0  0  0  0  0  0  0
   21.2238  -26.0064  -18.0207 C   0  0  1  0  0  0  0  0  0  0  0  0
   22.4522  -26.8339  -17.7169 O   0  0  0  0  0  0  0  0  0  0  0  0
   21.6090  -24.9552  -18.5383 C   0  0  1  0  0  0  0  0  0  0  0  0
   22.9775  -25.1448  -19.0762 O   0  0  0  0  0  0  0  0  0  0  0  0
   20.5493  -24.6247  -19.7799 C   0  0  2  0  0  0  0  0  0  0  0  0
   18.6450  -19.9324  -18.9185 N   0  0  0  0  0  0  0  0  0  0  0  0
   18.3611  -29.6733  -15.8006 O   0  5  0  0  0  0  0  0  0  0  0  0
   16.1675  -31.5937  -16.7834 O   0  5  0  0  0  0  0  0  0  0  0  0
   13.4307  -31.1836  -15.4319 O   0  0  0  0  0  0  0  0  0  0  0  0
   19.8399  -20.2569  -19.3872 C   0  0  0  0  0  0  0  0  0  0  0  0
   20.7819  -19.2077  -19.7211 N   0  0  0  0  0  0  0  0  0  0  0  0
   17.1220  -27.5825  -16.3367 O   0  0  0  0  0  0  0  0  0  0  0  0
   15.1511  -30.9161  -18.9217 O   0  0  0  0  0  0  0  0  0  0  0  0
   12.6399  -28.8505  -15.4063 O   0  5  0  0  0  0  0  0  0  0  0  0
   20.2054  -21.5105  -19.5622 N   0  0  0  0  0  0  0  0  0  0  0  0
   17.1053  -29.5327  -18.0318 O   0  0  0  0  0  0  0  0  0  0  0  0
   14.7050  -29.4673  -16.8413 O   0  0  0  0  0  0  0  0  0  0  0  0
   12.2959  -30.2692  -17.4163 O   0  0  0  0  0  0  0  0  0  0  0  0
   19.3653  -22.5095  -19.2658 C   0  0  0  0  0  0  0  0  0  0  0  0
   18.1133  -22.1987  -18.7750 C   0  0  0  0  0  0  0  0  0  0  0  0
   17.7440  -20.8515  -18.5969 C   0  0  0  0  0  0  0  0  0  0  0  0
   16.4758  -20.5039  -18.0994 O   0  0  0  0  0  0  0  0  0  0  0  0
   17.4648  -23.3555  -18.5569 N   0  0  0  0  0  0  0  0  0  0  0  0
   18.2798  -24.3386  -18.8974 C   0  0  0  0  0  0  0  0  0  0  0  0
   19.4291  -23.8491  -19.3238 N   0  0  0  0  0  0  0  0  0  0  0  0
  1  5  1  6  0  0  0
  1 14  1  0  0  0  0
  1 19  2  0  0  0  0
  1 23  1  0  0  0  0
  2 15  1  1  0  0  0
  2 20  2  0  0  0  0
  2 23  1  0  0  0  0
  2 24  1  0  0  0  0
  3 16  1  1  0  0  0
  3 21  1  0  0  0  0
  3 24  1  0  0  0  0
  3 25  2  0  0  0  0
  4  5  1  0  0  0  0
  6  4  1  1  0  0  0
  6  7  1  0  0  0  0
  6  8  1  0  0  0  0
  7 12  1  0  0  0  0
  8  9  1  6  0  0  0
  8 10  1  0  0  0  0
 10 11  1  6  0  0  0
 10 12  1  0  0  0  0
 12 32  1  1  0  0  0
 13 17  2  0  0  0  0
 13 28  1  0  0  0  0
 17 18  1  0  0  0  0
 17 22  1  0  0  0  0
 22 26  2  0  0  0  0
 26 27  1  0  0  0  0
 26 32  1  0  0  0  0
 27 28  2  0  0  0  0
 27 30  1  0  0  0  0
 28 29  1  0  0  0  0
 30 31  2  0  0  0  0
 31 32  1  0  0  0  0
M  CHG  3  14  -1  15  -1  21  -1
M  END
>  <CHROM.1>
-178.56323153,-66.00559281,52.32726955,179.41146368,-177.94440947,-152.44589213
173.92636054,-59.24779240,17.73355562,-26.56656426,-17.93498382,-2.14181528
0.19698765,-0.16388035

>  <Name>
ligand

>  <RI>
0

>  <Rbt.Current_Directory>
/home/itssahil/PROJECTS/Mol_Feturizer/New_Systems/rnas/4Y1I

>  <Rbt.Executable>
rbdock ($Id: //depot/dev/client3/rdock/2013.1/src/exe/rbdock.cxx#4 $)

>  <Rbt.Library>
libRbt.so (2013.1, Build901 2013/11/27)

>  <Rbt.Parameter_File>
/export/apps/rDock/src/rDock_2013.1_src/data/scripts/dock_solv.prm

>  <Rbt.Receptor>
prm/pocket_docking_3.prm

>  <SCORE>
-6.46856

>  <SCORE.INTER>
-0.236415

>  <SCORE.INTER.CONST>
1

>  <SCORE.INTER.POLAR>
0

>  <SCORE.INTER.ROT>
8

>  <SCORE.INTER.SOLV>
9.61088

>  <SCORE.INTER.VDW>
-12.2946

>  <SCORE.INTER.norm>
-0.00738798

>  <SCORE.INTRA>
-6.23215

>  <SCORE.INTRA.DIHEDRAL>
-9.47113

>  <SCORE.INTRA.DIHEDRAL.0>
10.9594

>  <SCORE.INTRA.POLAR>
0

>  <SCORE.INTRA.POLAR.0>
0

>  <SCORE.INTRA.REPUL>
0

>  <SCORE.INTRA.REPUL.0>
0

>  <SCORE.INTRA.SOLV>
-4.66602

>  <SCORE.INTRA.SOLV.lig_0>
-124.914

>  <SCORE.INTRA.VDW>
0.836433

>  <SCORE.INTRA.VDW.0>
-4.69801

>  <SCORE.INTRA.norm>
-0.194755

>  <SCORE.RESTR>
0

>  <SCORE.RESTR.CAVITY>
0

>  <SCORE.RESTR.norm>
0

>  <SCORE.SYSTEM>
0

>  <SCORE.SYSTEM.CONST>
0

>  <SCORE.SYSTEM.DIHEDRAL>
0

>  <SCORE.SYSTEM.SOLV>
0

>  <SCORE.SYSTEM.norm>
0

>  <SCORE.heavy>
32

>  <SCORE.norm>
-0.202143

>  <RMSD>
2.030

$$$$
ligand
 OpenBabel11021811513D
libRbt.so/2013.1/901 2013/11/27
 32 34  0  0  0  0  0  0  0  0999 V2000
   16.8534  -28.3704  -15.7338 P   0  0  1  0  0  0  0  0  0  0  0  0
   15.1129  -30.0888  -17.2334 P   0  0  2  0  0  0  0  0  0  0  0  0
   14.3020  -29.1008  -19.8757 P   0  0  1  0  0  0  0  0  0  0  0  0
   17.8352  -27.4927  -17.9826 C   0  0  0  0  0  0  0  0  0  0  0  0
   18.1172  -27.8801  -16.6680 O   0  0  0  0  0  0  0  0  0  0  0  0
   18.9973  -27.0306  -18.5903 C   0  0  1  0  0  0  0  0  0  0  0  0
   18.6464  -26.0979  -19.7335 O   0  0  0  0  0  0  0  0  0  0  0  0
   19.8801  -26.1671  -17.5769 C   0  0  1  0  0  0  0  0  0  0  0  0
   21.1898  -26.8776  -17.3199 O   0  0  0  0  0  0  0  0  0  0  0  0
   20.1432  -25.1152  -18.1647 C   0  0  1  0  0  0  0  0  0  0  0  0
   21.4860  -25.2209  -18.7841 O   0  0  0  0  0  0  0  0  0  0  0  0
   18.9834  -24.9322  -19.3460 C   0  0  2  0  0  0  0  0  0  0  0  0
   16.8563  -20.3678  -18.3328 N   0  0  0  0  0  0  0  0  0  0  0  0
   17.2831  -28.4437  -14.2895 O   0  5  0  0  0  0  0  0  0  0  0  0
   13.8445  -29.5916  -16.5868 O   0  5  0  0  0  0  0  0  0  0  0  0
   15.0166  -28.4351  -21.0283 O   0  0  0  0  0  0  0  0  0  0  0  0
   18.0571  -20.6182  -18.8309 C   0  0  0  0  0  0  0  0  0  0  0  0
   18.9370  -19.5135  -19.1552 N   0  0  0  0  0  0  0  0  0  0  0  0
   15.7122  -27.3943  -15.9097 O   0  0  0  0  0  0  0  0  0  0  0  0
   14.9868  -31.5611  -17.5252 O   0  0  0  0  0  0  0  0  0  0  0  0
   13.8106  -30.4621  -20.3171 O   0  5  0  0  0  0  0  0  0  0  0  0
   18.4833  -21.8464  -19.0438 N   0  0  0  0  0  0  0  0  0  0  0  0
   16.3899  -29.8676  -16.2259 O   0  0  0  0  0  0  0  0  0  0  0  0
   15.3810  -29.2730  -18.6365 O   0  0  0  0  0  0  0  0  0  0  0  0
   13.1373  -28.2334  -19.4506 O   0  0  0  0  0  0  0  0  0  0  0  0
   17.7018  -22.8947  -18.7577 C   0  0  0  0  0  0  0  0  0  0  0  0
   16.4451  -22.6615  -18.2368 C   0  0  0  0  0  0  0  0  0  0  0  0
   16.0103  -21.3401  -18.0182 C   0  0  0  0  0  0  0  0  0  0  0  0
   14.7356  -21.0711  -17.4894 O   0  0  0  0  0  0  0  0  0  0  0  0
   15.8616  -23.8555  -18.0363 N   0  0  0  0  0  0  0  0  0  0  0  0
   16.7196  -24.7863  -18.4159 C   0  0  0  0  0  0  0  0  0  0  0  0
   17.8336  -24.2273  -18.8505 N   0  0  0  0  0  0  0  0  0  0  0  0
  1  5  1  6  0  0  0
  1 14  1  0  0  0  0
  1 19  2  0  0  0  0
  1 23  1  0  0  0  0
  2 15  1  1  0  0  0
  2 20  2  0  0  0  0
  2 23  1  0  0  0  0
  2 24  1  0  0  0  0
  3 16  1  6  0  0  0
  3 21  1  0  0  0  0
  3 24  1  0  0  0  0
  3 25  2  0  0  0  0
  4  5  1  0  0  0  0
  6  4  1  1  0  0  0
  6  7  1  0  0  0  0
  6  8  1  0  0  0  0
  7 12  1  0  0  0  0
  8  9  1  6  0  0  0
  8 10  1  0  0  0  0
 10 11  1  6  0  0  0
 10 12  1  0  0  0  0
 12 32  1  1  0  0  0
 13 17  2  0  0  0  0
 13 28  1  0  0  0  0
 17 18  1  0  0  0  0
 17 22  1  0  0  0  0
 22 26  2  0  0  0  0
 26 27  1  0  0  0  0
 26 32  1  0  0  0  0
 27 28  2  0  0  0  0
 27 30  1  0  0  0  0
 28 29  1  0  0  0  0
 30 31  2  0  0  0  0
 31 32  1  0  0  0  0
M  CHG  3  14  -1  15  -1  21  -1
M  END
>  <CHROM.1>
-167.16745568,-62.03669552,-172.95135184,-156.28318011,176.16079806,-157.61874526
-98.67965354,-52.86380859,16.81295637,-26.45680761,-18.05499475,-1.96062196
-0.30622540,-0.21462391

>  <Name>
ligand

>  <RI>
0

>  <Rbt.Current_Directory>
/home/itssahil/PROJECTS/Mol_Feturizer/New_Systems/rnas/4Y1I

>  <Rbt.Executable>
rbdock ($Id: //depot/dev/client3/rdock/2013.1/src/exe/rbdock.cxx#4 $)

>  <Rbt.Library>
libRbt.so (2013.1, Build901 2013/11/27)

>  <Rbt.Parameter_File>
/export/apps/rDock/src/rDock_2013.1_src/data/scripts/dock_solv.prm

>  <Rbt.Receptor>
prm/pocket_docking_2.prm

>  <SCORE>
-0.355322

>  <SCORE.INTER>
2.59668

>  <SCORE.INTER.CONST>
1

>  <SCORE.INTER.POLAR>
0

>  <SCORE.INTER.ROT>
8

>  <SCORE.INTER.SOLV>
16.902

>  <SCORE.INTER.VDW>
-12.8362

>  <SCORE.INTER.norm>
0.0811463

>  <SCORE.INTRA>
-3.28177

>  <SCORE.INTRA.DIHEDRAL>
-5.66224

>  <SCORE.INTRA.DIHEDRAL.0>
10.9594

>  <SCORE.INTRA.POLAR>
0

>  <SCORE.INTRA.POLAR.0>
0

>  <SCORE.INTRA.REPUL>
0

>  <SCORE.INTRA.REPUL.0>
0

>  <SCORE.INTRA.SOLV>
-2.63272

>  <SCORE.INTRA.SOLV.lig_0>
-124.914

>  <SCORE.INTRA.VDW>
0.865709

>  <SCORE.INTRA.VDW.0>
-4.69801

>  <SCORE.INTRA.norm>
-0.102555

>  <SCORE.RESTR>
0.329769

>  <SCORE.RESTR.CAVITY>
0.329769

>  <SCORE.RESTR.norm>
0.0103053

>  <SCORE.SYSTEM>
0

>  <SCORE.SYSTEM.CONST>
0

>  <SCORE.SYSTEM.DIHEDRAL>
0

>  <SCORE.SYSTEM.SOLV>
0

>  <SCORE.SYSTEM.norm>
0

>  <SCORE.heavy>
32

>  <SCORE.norm>
-0.0111038

>  <RMSD>
2.047

$$$$
ligand
 OpenBabel11021811513D
libRbt.so/2013.1/901 2013/11/27
 32 34  0  0  0  0  0  0  0  0999 V2000
   16.6560  -29.0969  -19.6503 P   0  0  1  0  0  0  0  0  0  0  0  0
   15.0070  -26.8054  -19.1395 P   0  0  2  0  0  0  0  0  0  0  0  0
   12.3201  -27.5986  -18.2642 P   0  0  1  0  0  0  0  0  0  0  0  0
   18.4847  -27.4406  -18.8111 C   0  0  0  0  0  0  0  0  0  0  0  0
   17.9619  -28.1290  -19.9114 O   0  0  0  0  0  0  0  0  0  0  0  0
   19.6981  -26.8586  -19.1608 C   0  0  1  0  0  0  0  0  0  0  0  0
   19.4544  -25.6349  -20.0228 O   0  0  0  0  0  0  0  0  0  0  0  0
   20.4855  -26.3362  -17.8727 C   0  0  1  0  0  0  0  0  0  0  0  0
   21.7654  -27.1250  -17.7117 O   0  0  0  0  0  0  0  0  0  0  0  0
   20.8026  -25.1695  -18.1168 C   0  0  1  0  0  0  0  0  0  0  0  0
   22.1962  -25.1340  -18.6210 O   0  0  0  0  0  0  0  0  0  0  0  0
   19.7559  -24.6332  -19.2961 C   0  0  2  0  0  0  0  0  0  0  0  0
   16.8409  -20.4389  -18.7515 N   0  0  0  0  0  0  0  0  0  0  0  0
   16.6836  -30.2625  -20.6076 O   0  5  0  0  0  0  0  0  0  0  0  0
   15.6265  -25.6562  -19.8944 O   0  5  0  0  0  0  0  0  0  0  0  0
   12.4414  -28.9556  -18.9168 O   0  0  0  0  0  0  0  0  0  0  0  0
   17.9774  -20.5642  -19.4189 C   0  0  0  0  0  0  0  0  0  0  0  0
   18.5283  -19.4144  -20.1073 N   0  0  0  0  0  0  0  0  0  0  0  0
   16.6846  -29.5742  -18.2158 O   0  0  0  0  0  0  0  0  0  0  0  0
   15.6142  -26.8908  -17.7637 O   0  0  0  0  0  0  0  0  0  0  0  0
   12.6719  -27.7208  -16.7976 O   0  5  0  0  0  0  0  0  0  0  0  0
   18.6302  -21.7069  -19.4795 N   0  0  0  0  0  0  0  0  0  0  0  0
   15.2934  -28.2202  -19.9212 O   0  0  0  0  0  0  0  0  0  0  0  0
   13.3833  -26.5766  -19.0087 O   0  0  0  0  0  0  0  0  0  0  0  0
   10.9007  -27.0993  -18.4247 O   0  0  0  0  0  0  0  0  0  0  0  0
   18.1556  -22.7929  -18.8573 C   0  0  0  0  0  0  0  0  0  0  0  0
   16.9726  -22.6895  -18.1539 C   0  0  0  0  0  0  0  0  0  0  0  0
   16.2915  -21.4580  -18.1036 C   0  0  0  0  0  0  0  0  0  0  0  0
   15.0843  -21.3220  -17.3957 O   0  0  0  0  0  0  0  0  0  0  0  0
   16.7082  -23.8968  -17.6259 N   0  0  0  0  0  0  0  0  0  0  0  0
   17.6849  -24.7110  -17.9863 C   0  0  0  0  0  0  0  0  0  0  0  0
   18.5665  -24.0640  -18.7254 N   0  0  0  0  0  0  0  0  0  0  0  0
  1  5  1  6  0  0  0
  1 14  1  0  0  0  0
  1 19  2  0  0  0  0
  1 23  1  0  0  0  0
  2 15  1  6  0  0  0
  2 20  2  0  0  0  0
  2 23  1  0  0  0  0
  2 24  1  0  0  0  0
  3 16  1  6  0  0  0
  3 21  1  0  0  0  0
  3 24  1  0  0  0  0
  3 25  2  0  0  0  0
  4  5  1  0  0  0  0
  6  4  1  1  0  0  0
  6  7  1  0  0  0  0
  6  8  1  0  0  0  0
  7 12  1  0  0  0  0
  8  9  1  6  0  0  0
  8 10  1  0  0  0  0
 10 11  1  6  0  0  0
 10 12  1  0  0  0  0
 12 32  1  1  0  0  0
 13 17  2  0  0  0  0
 13 28  1  0  0  0  0
 17 18  1  0  0  0  0
 17 22  1  0  0  0  0
 22 26  2  0  0  0  0
 26 27  1  0  0  0  0
 26 32  1  0  0  0  0
 27 28  2  0  0  0  0
 27 30  1  0  0  0  0
 28 29  1  0  0  0  0
 30 31  2  0  0  0  0
 31 32  1  0  0  0  0
M  CHG  3  14  -1  15  -1  21  -1
M  END
>  <CHROM.1>
-149.05130803,87.56482920,-57.04742666,75.37319620,170.17543572,-123.10048592
-55.20409719,179.65913316,16.72411164,-25.81660928,-18.80524486,-2.35778774
0.07007607,0.06255607

>  <Name>
ligand

>  <RI>
0

>  <Rbt.Current_Directory>
/home/itssahil/PROJECTS/Mol_Feturizer/New_Systems/rnas/4Y1I

>  <Rbt.Executable>
rbdock ($Id: //depot/dev/client3/rdock/2013.1/src/exe/rbdock.cxx#4 $)

>  <Rbt.Library>
libRbt.so (2013.1, Build901 2013/11/27)

>  <Rbt.Parameter_File>
/export/apps/rDock/src/rDock_2013.1_src/data/scripts/dock_solv.prm

>  <Rbt.Receptor>
prm/pocket_docking_3.prm

>  <SCORE>
-2.57548

>  <SCORE.INTER>
2.25647

>  <SCORE.INTER.CONST>
1

>  <SCORE.INTER.POLAR>
0

>  <SCORE.INTER.ROT>
8

>  <SCORE.INTER.SOLV>
11.2645

>  <SCORE.INTER.VDW>
-11.1839

>  <SCORE.INTER.norm>
0.0705148

>  <SCORE.INTRA>
-4.83196

>  <SCORE.INTRA.DIHEDRAL>
-6.02012

>  <SCORE.INTRA.DIHEDRAL.0>
10.9594

>  <SCORE.INTRA.POLAR>
0

>  <SCORE.INTRA.POLAR.0>
0

>  <SCORE.INTRA.REPUL>
0

>  <SCORE.INTRA.REPUL.0>
0

>  <SCORE.INTRA.SOLV>
-1.577

>  <SCORE.INTRA.SOLV.lig_0>
-124.914

>  <SCORE.INTRA.VDW>
-1.03339

>  <SCORE.INTRA.VDW.0>
-4.69801

>  <SCORE.INTRA.norm>
-0.150999

>  <SCORE.RESTR>
0

>  <SCORE.RESTR.CAVITY>
0

>  <SCORE.RESTR.norm>
0

>  <SCORE.SYSTEM>
0

>  <SCORE.SYSTEM.CONST>
0

>  <SCORE.SYSTEM.DIHEDRAL>
0

>  <SCORE.SYSTEM.SOLV>
0

>  <SCORE.SYSTEM.norm>
0

>  <SCORE.heavy>
32

>  <SCORE.norm>
-0.0804838

>  <RMSD>
2.053

$$$$
ligand
 OpenBabel11021811513D
libRbt.so/2013.1/901 2013/11/27
 32 34  0  0  0  0  0  0  0  0999 V2000
   17.0164  -28.6273  -18.0767 P   0  0  1  0  0  0  0  0  0  0  0  0
   15.4187  -29.1837  -15.7597 P   0  0  2  0  0  0  0  0  0  0  0  0
   12.5670  -29.4924  -16.3825 P   0  0  1  0  0  0  0  0  0  0  0  0
   18.6276  -27.1409  -19.4861 C   0  0  0  0  0  0  0  0  0  0  0  0
   18.5081  -28.0073  -18.3938 O   0  0  0  0  0  0  0  0  0  0  0  0
   19.9092  -26.6025  -19.5141 C   0  0  1  0  0  0  0  0  0  0  0  0
   19.8996  -25.2853  -20.2658 O   0  0  0  0  0  0  0  0  0  0  0  0
   20.4296  -26.2621  -18.0425 C   0  0  1  0  0  0  0  0  0  0  0  0
   21.6154  -27.1404  -17.7129 O   0  0  0  0  0  0  0  0  0  0  0  0
   20.8363  -25.0985  -18.0853 C   0  0  1  0  0  0  0  0  0  0  0  0
   22.3050  -25.0982  -18.2877 O   0  0  0  0  0  0  0  0  0  0  0  0
   20.0815  -24.3825  -19.3859 C   0  0  2  0  0  0  0  0  0  0  0  0
   17.4295  -20.0656  -18.5393 N   0  0  0  0  0  0  0  0  0  0  0  0
   15.9692  -27.8575  -18.8428 O   0  5  0  0  0  0  0  0  0  0  0  0
   15.1302  -28.5361  -14.4286 O   0  5  0  0  0  0  0  0  0  0  0  0
   12.6124  -30.9032  -15.8441 O   0  0  0  0  0  0  0  0  0  0  0  0
   18.6960  -20.1892  -18.9047 C   0  0  0  0  0  0  0  0  0  0  0  0
   19.4964  -18.9990  -19.1102 N   0  0  0  0  0  0  0  0  0  0  0  0
   17.0053  -30.0886  -18.4648 O   0  0  0  0  0  0  0  0  0  0  0  0
   15.7286  -30.6433  -15.5539 O   0  0  0  0  0  0  0  0  0  0  0  0
   12.0006  -28.5749  -15.3209 O   0  5  0  0  0  0  0  0  0  0  0  0
   19.2585  -21.3661  -19.0894 N   0  0  0  0  0  0  0  0  0  0  0  0
   16.7175  -28.4731  -16.4687 O   0  0  0  0  0  0  0  0  0  0  0  0
   14.1119  -29.0348  -16.7476 O   0  0  0  0  0  0  0  0  0  0  0  0
   11.6971  -29.4647  -17.6202 O   0  0  0  0  0  0  0  0  0  0  0  0
   18.5543  -22.4901  -18.9099 C   0  0  0  0  0  0  0  0  0  0  0  0
   17.2317  -22.3894  -18.5284 C   0  0  0  0  0  0  0  0  0  0  0  0
   16.6511  -21.1207  -18.3375 C   0  0  0  0  0  0  0  0  0  0  0  0
   15.3064  -20.9863  -17.9496 O   0  0  0  0  0  0  0  0  0  0  0  0
   16.7466  -23.6376  -18.4144 N   0  0  0  0  0  0  0  0  0  0  0  0
   17.7261  -24.4736  -18.7116 C   0  0  0  0  0  0  0  0  0  0  0  0
   18.8223  -23.8016  -19.0098 N   0  0  0  0  0  0  0  0  0  0  0  0
  1  5  1  6  0  0  0
  1 14  1  0  0  0  0
  1 19  2  0  0  0  0
  1 23  1  0  0  0  0
  2 15  1  1  0  0  0
  2 20  2  0  0  0  0
  2 23  1  0  0  0  0
  2 24  1  0  0  0  0
  3 16  1  1  0  0  0
  3 21  1  0  0  0  0
  3 24  1  0  0  0  0
  3 25  2  0  0  0  0
  4  5  1  0  0  0  0
  6  4  1  1  0  0  0
  6  7  1  0  0  0  0
  6  8  1  0  0  0  0
  7 12  1  0  0  0  0
  8  9  1  6  0  0  0
  8 10  1  0  0  0  0
 10 11  1  6  0  0  0
 10 12  1  0  0  0  0
 12 32  1  1  0  0  0
 13 17  2  0  0  0  0
 13 28  1  0  0  0  0
 17 18  1  0  0  0  0
 17 22  1  0  0  0  0
 22 26  2  0  0  0  0
 26 27  1  0  0  0  0
 26 32  1  0  0  0  0
 27 28  2  0  0  0  0
 27 30  1  0  0  0  0
 28 29  1  0  0  0  0
 30 31  2  0  0  0  0
 31 32  1  0  0  0  0
M  CHG  3  14  -1  15  -1  21  -1
M  END
>  <CHROM.1>
-14.22409078,-161.53895250,-49.25528540,-156.12275249,173.41700180,-132.59804754
-170.77999808,-53.52368384,17.00058967,-26.30771856,-17.76735677,-2.18679429
0.26767865,-0.15285182

>  <Name>
ligand

>  <RI>
0

>  <Rbt.Current_Directory>
/home/itssahil/PROJECTS/Mol_Feturizer/New_Systems/rnas/4Y1I

>  <Rbt.Executable>
rbdock ($Id: //depot/dev/client3/rdock/2013.1/src/exe/rbdock.cxx#4 $)

>  <Rbt.Library>
libRbt.so (2013.1, Build901 2013/11/27)

>  <Rbt.Parameter_File>
/export/apps/rDock/src/rDock_2013.1_src/data/scripts/dock_solv.prm

>  <Rbt.Receptor>
prm/pocket_docking_2.prm

>  <SCORE>
-0.0134002

>  <SCORE.INTER>
2.57728

>  <SCORE.INTER.CONST>
1

>  <SCORE.INTER.POLAR>
0

>  <SCORE.INTER.ROT>
8

>  <SCORE.INTER.SOLV>
14.6675

>  <SCORE.INTER.VDW>
-12.1043

>  <SCORE.INTER.norm>
0.0805399

>  <SCORE.INTRA>
-2.88467

>  <SCORE.INTRA.DIHEDRAL>
-4.67627

>  <SCORE.INTRA.DIHEDRAL.0>
10.9594

>  <SCORE.INTRA.POLAR>
0

>  <SCORE.INTRA.POLAR.0>
0

>  <SCORE.INTRA.REPUL>
0

>  <SCORE.INTRA.REPUL.0>
0

>  <SCORE.INTRA.SOLV>
-4.31668

>  <SCORE.INTRA.SOLV.lig_0>
-124.914

>  <SCORE.INTRA.VDW>
1.61181

>  <SCORE.INTRA.VDW.0>
-4.69801

>  <SCORE.INTRA.norm>
-0.090146

>  <SCORE.RESTR>
0.293994

>  <SCORE.RESTR.CAVITY>
0.293994

>  <SCORE.RESTR.norm>
0.00918731

>  <SCORE.SYSTEM>
0

>  <SCORE.SYSTEM.CONST>
0

>  <SCORE.SYSTEM.DIHEDRAL>
0

>  <SCORE.SYSTEM.SOLV>
0

>  <SCORE.SYSTEM.norm>
0

>  <SCORE.heavy>
32

>  <SCORE.norm>
-0.000418755

>  <RMSD>
2.107

$$$$
ligand
 OpenBabel11021811513D
libRbt.so/2013.1/901 2013/11/27
 32 34  0  0  0  0  0  0  0  0999 V2000
   15.0687  -27.2958  -18.5755 P   0  0  1  0  0  0  0  0  0  0  0  0
   14.9609  -29.8361  -17.2466 P   0  0  2  0  0  0  0  0  0  0  0  0
   12.1221  -30.1266  -16.5595 P   0  0  1  0  0  0  0  0  0  0  0  0
   17.4506  -27.3304  -19.6323 C   0  0  0  0  0  0  0  0  0  0  0  0
   16.6861  -26.9961  -18.5090 O   0  0  0  0  0  0  0  0  0  0  0  0
   18.7932  -27.0789  -19.3722 C   0  0  1  0  0  0  0  0  0  0  0  0
   19.1333  -25.6500  -19.7497 O   0  0  0  0  0  0  0  0  0  0  0  0
   19.1181  -27.2083  -17.8135 C   0  0  1  0  0  0  0  0  0  0  0  0
   20.0649  -28.3661  -17.5918 O   0  0  0  0  0  0  0  0  0  0  0  0
   19.7209  -26.1777  -17.5040 C   0  0  1  0  0  0  0  0  0  0  0  0
   21.1807  -26.4354  -17.5305 O   0  0  0  0  0  0  0  0  0  0  0  0
   19.3227  -25.0363  -18.6497 C   0  0  2  0  0  0  0  0  0  0  0  0
   16.6950  -20.6383  -19.0208 N   0  0  0  0  0  0  0  0  0  0  0  0
   14.3930  -26.7306  -17.3507 O   0  5  0  0  0  0  0  0  0  0  0  0
   16.2234  -29.4929  -16.4966 O   0  5  0  0  0  0  0  0  0  0  0  0
   11.6504  -29.5809  -17.8869 O   0  0  0  0  0  0  0  0  0  0  0  0
   17.8671  -20.9387  -19.5580 C   0  0  0  0  0  0  0  0  0  0  0  0
   18.5536  -19.9505  -20.3653 N   0  0  0  0  0  0  0  0  0  0  0  0
   14.5112  -26.6743  -19.8361 O   0  0  0  0  0  0  0  0  0  0  0  0
   14.9930  -31.2867  -17.6509 O   0  0  0  0  0  0  0  0  0  0  0  0
   12.1397  -31.6383  -16.6234 O   0  5  0  0  0  0  0  0  0  0  0  0
   18.4357  -22.1142  -19.3830 N   0  0  0  0  0  0  0  0  0  0  0  0
   14.8395  -28.9222  -18.6048 O   0  0  0  0  0  0  0  0  0  0  0  0
   13.6513  -29.5627  -16.2895 O   0  0  0  0  0  0  0  0  0  0  0  0
   11.1817  -29.6570  -15.4711 O   0  0  0  0  0  0  0  0  0  0  0  0
   17.8349  -23.0548  -18.6442 C   0  0  0  0  0  0  0  0  0  0  0  0
   16.6121  -22.7674  -18.0722 C   0  0  0  0  0  0  0  0  0  0  0  0
   16.0229  -21.5043  -18.2736 C   0  0  0  0  0  0  0  0  0  0  0  0
   14.7781  -21.1825  -17.7044 O   0  0  0  0  0  0  0  0  0  0  0  0
   16.2185  -23.8555  -17.3887 N   0  0  0  0  0  0  0  0  0  0  0  0
   17.1567  -24.7755  -17.5311 C   0  0  0  0  0  0  0  0  0  0  0  0
   18.1385  -24.3110  -18.2812 N   0  0  0  0  0  0  0  0  0  0  0  0
  1  5  1  1  0  0  0
  1 14  1  0  0  0  0
  1 19  2  0  0  0  0
  1 23  1  0  0  0  0
  2 15  1  1  0  0  0
  2 20  2  0  0  0  0
  2 23  1  0  0  0  0
  2 24  1  0  0  0  0
  3 16  1  6  0  0  0
  3 21  1  0  0  0  0
  3 24  1  0  0  0  0
  3 25  2  0  0  0  0
  4  5  1  0  0  0  0
  6  4  1  1  0  0  0
  6  7  1  0  0  0  0
  6  8  1  0  0  0  0
  7 12  1  0  0  0  0
  8  9  1  6  0  0  0
  8 10  1  0  0  0  0
 10 11  1  6  0  0  0
 10 12  1  0  0  0  0
 12 32  1  1  0  0  0
 13 17  2  0  0  0  0
 13 28  1  0  0  0  0
 17 18  1  0  0  0  0
 17 22  1  0  0  0  0
 22 26  2  0  0  0  0
 26 27  1  0  0  0  0
 26 32  1  0  0  0  0
 27 28  2  0  0  0  0
 27 30  1  0  0  0  0
 28 29  1  0  0  0  0
 30 31  2  0  0  0  0
 31 32  1  0  0  0  0
M  CHG  3  14  -1  15  -1  21  -1
M  END
>  <CHROM.1>
-173.56667681,-48.02361488,-60.17787769,-88.93169383,-176.73806943,-88.63587952
77.67424715,-164.56617439,16.09609701,-26.59271674,-18.00406969,2.14332786
-0.14101549,2.97945796

>  <Name>
ligand

>  <RI>
0

>  <Rbt.Current_Directory>
/home/itssahil/PROJECTS/Mol_Feturizer/New_Systems/rnas/4Y1I

>  <Rbt.Executable>
rbdock ($Id: //depot/dev/client3/rdock/2013.1/src/exe/rbdock.cxx#4 $)

>  <Rbt.Library>
libRbt.so (2013.1, Build901 2013/11/27)

>  <Rbt.Parameter_File>
/export/apps/rDock/src/rDock_2013.1_src/data/scripts/dock_solv.prm

>  <Rbt.Receptor>
prm/pocket_docking_2.prm

>  <SCORE>
1.04679

>  <SCORE.INTER>
3.78479

>  <SCORE.INTER.CONST>
1

>  <SCORE.INTER.POLAR>
0

>  <SCORE.INTER.ROT>
8

>  <SCORE.INTER.SOLV>
9.33252

>  <SCORE.INTER.VDW>
-9.52098

>  <SCORE.INTER.norm>
0.118275

>  <SCORE.INTRA>
-3.14385

>  <SCORE.INTRA.DIHEDRAL>
-6.09143

>  <SCORE.INTRA.DIHEDRAL.0>
10.9594

>  <SCORE.INTRA.POLAR>
0

>  <SCORE.INTRA.POLAR.0>
0

>  <SCORE.INTRA.REPUL>
0

>  <SCORE.INTRA.REPUL.0>
0

>  <SCORE.INTRA.SOLV>
-3.50437

>  <SCORE.INTRA.SOLV.lig_0>
-124.914

>  <SCORE.INTRA.VDW>
1.65405

>  <SCORE.INTRA.VDW.0>
-4.69801

>  <SCORE.INTRA.norm>
-0.0982454

>  <SCORE.RESTR>
0.405854

>  <SCORE.RESTR.CAVITY>
0.405854

>  <SCORE.RESTR.norm>
0.0126829

>  <SCORE.SYSTEM>
0

>  <SCORE.SYSTEM.CONST>
0

>  <SCORE.SYSTEM.DIHEDRAL>
0

>  <SCORE.SYSTEM.SOLV>
0

>  <SCORE.SYSTEM.norm>
0

>  <SCORE.heavy>
32

>  <SCORE.norm>
0.0327122

>  <RMSD>
2.112

$$$$
ligand
 OpenBabel11021811513D
libRbt.so/2013.1/901 2013/11/27
 32 34  0  0  0  0  0  0  0  0999 V2000
   17.5923  -28.4135  -17.3283 P   0  0  1  0  0  0  0  0  0  0  0  0
   15.3272  -28.4756  -19.0879 P   0  0  2  0  0  0  0  0  0  0  0  0
   13.1055  -26.6609  -18.4667 P   0  0  1  0  0  0  0  0  0  0  0  0
   19.6640  -26.8954  -17.7698 C   0  0  0  0  0  0  0  0  0  0  0  0
   18.7655  -27.8177  -18.3177 O   0  0  0  0  0  0  0  0  0  0  0  0
   20.6456  -26.5905  -18.7062 C   0  0  1  0  0  0  0  0  0  0  0  0
   20.0076  -26.0042  -19.9508 O   0  0  0  0  0  0  0  0  0  0  0  0
   21.6447  -25.4708  -18.1582 C   0  0  1  0  0  0  0  0  0  0  0  0
   23.0283  -26.0616  -18.0081 O   0  0  0  0  0  0  0  0  0  0  0  0
   21.7077  -24.6095  -19.0389 C   0  0  1  0  0  0  0  0  0  0  0  0
   22.9057  -24.8513  -19.8780 O   0  0  0  0  0  0  0  0  0  0  0  0
   20.3271  -24.7711  -19.9563 C   0  0  2  0  0  0  0  0  0  0  0  0
   18.5978  -20.0619  -18.8527 N   0  0  0  0  0  0  0  0  0  0  0  0
   18.2025  -29.3578  -16.3223 O   0  5  0  0  0  0  0  0  0  0  0  0
   14.4435  -29.4819  -19.7814 O   0  5  0  0  0  0  0  0  0  0  0  0
   12.0792  -27.5886  -19.0738 O   0  0  0  0  0  0  0  0  0  0  0  0
   19.7636  -20.4026  -19.3794 C   0  0  0  0  0  0  0  0  0  0  0  0
   20.7229  -19.3689  -19.7123 N   0  0  0  0  0  0  0  0  0  0  0  0
   16.9060  -27.2568  -16.6375 O   0  0  0  0  0  0  0  0  0  0  0  0
   15.9776  -27.5843  -20.1132 O   0  0  0  0  0  0  0  0  0  0  0  0
   12.5215  -26.0191  -17.2271 O   0  5  0  0  0  0  0  0  0  0  0  0
   20.0846  -21.6587  -19.6136 N   0  0  0  0  0  0  0  0  0  0  0  0
   16.5081  -29.2417  -18.2434 O   0  0  0  0  0  0  0  0  0  0  0  0
   14.4290  -27.5608  -18.0572 O   0  0  0  0  0  0  0  0  0  0  0  0
   13.4752  -25.6022  -19.4826 O   0  0  0  0  0  0  0  0  0  0  0  0
   19.2271  -22.6438  -19.3204 C   0  0  0  0  0  0  0  0  0  0  0  0
   18.0047  -22.3160  -18.7698 C   0  0  0  0  0  0  0  0  0  0  0  0
   17.6828  -20.9664  -18.5291 C   0  0  0  0  0  0  0  0  0  0  0  0
   16.4454  -20.6016  -17.9698 O   0  0  0  0  0  0  0  0  0  0  0  0
   17.3309  -23.4612  -18.5681 N   0  0  0  0  0  0  0  0  0  0  0  0
   18.1027  -24.4538  -18.9755 C   0  0  0  0  0  0  0  0  0  0  0  0
   19.2488  -23.9815  -19.4290 N   0  0  0  0  0  0  0  0  0  0  0  0
  1  5  1  6  0  0  0
  1 14  1  0  0  0  0
  1 19  2  0  0  0  0
  1 23  1  0  0  0  0
  2 15  1  6  0  0  0
  2 20  2  0  0  0  0
  2 23  1  0  0  0  0
  2 24  1  0  0  0  0
  3 16  1  6  0  0  0
  3 21  1  0  0  0  0
  3 24  1  0  0  0  0
  3 25  2  0  0  0  0
  4  5  1  0  0  0  0
  6  4  1  1  0  0  0
  6  7  1  0  0  0  0
  6  8  1  0  0  0  0
  7 12  1  0  0  0  0
  8  9  1  6  0  0  0
  8 10  1  0  0  0  0
 10 11  1  6  0  0  0
 10 12  1  0  0  0  0
 12 32  1  1  0  0  0
 13 17  2  0  0  0  0
 13 28  1  0  0  0  0
 17 18  1  0  0  0  0
 17 22  1  0  0  0  0
 22 26  2  0  0  0  0
 26 27  1  0  0  0  0
 26 32  1  0  0  0  0
 27 28  2  0  0  0  0
 27 30  1  0  0  0  0
 28 29  1  0  0  0  0
 30 31  2  0  0  0  0
 31 32  1  0  0  0  0
M  CHG  3  14  -1  15  -1  21  -1
M  END
>  <CHROM.1>
-71.53088582,-177.36148711,58.46503257,59.45513936,174.91813591,-178.15752115
-80.52079409,-56.73877260,17.59684897,-25.60265337,-18.65019249,-2.40477834
0.00821841,-0.11688694

>  <Name>
ligand

>  <RI>
0

>  <Rbt.Current_Directory>
/home/itssahil/PROJECTS/Mol_Feturizer/New_Systems/rnas/4Y1I

>  <Rbt.Executable>
rbdock ($Id: //depot/dev/client3/rdock/2013.1/src/exe/rbdock.cxx#4 $)

>  <Rbt.Library>
libRbt.so (2013.1, Build901 2013/11/27)

>  <Rbt.Parameter_File>
/export/apps/rDock/src/rDock_2013.1_src/data/scripts/dock_solv.prm

>  <Rbt.Receptor>
prm/pocket_docking_3.prm

>  <SCORE>
-6.01574

>  <SCORE.INTER>
0.454777

>  <SCORE.INTER.CONST>
1

>  <SCORE.INTER.POLAR>
0

>  <SCORE.INTER.ROT>
8

>  <SCORE.INTER.SOLV>
9.13479

>  <SCORE.INTER.VDW>
-11.6751

>  <SCORE.INTER.norm>
0.0142118

>  <SCORE.INTRA>
-6.47051

>  <SCORE.INTRA.DIHEDRAL>
-8.75005

>  <SCORE.INTRA.DIHEDRAL.0>
10.9594

>  <SCORE.INTRA.POLAR>
0

>  <SCORE.INTRA.POLAR.0>
0

>  <SCORE.INTRA.REPUL>
0.00972193

>  <SCORE.INTRA.REPUL.0>
0

>  <SCORE.INTRA.SOLV>
-4.42902

>  <SCORE.INTRA.SOLV.lig_0>
-124.914

>  <SCORE.INTRA.VDW>
0.0704125

>  <SCORE.INTRA.VDW.0>
-4.69801

>  <SCORE.INTRA.norm>
-0.202204

>  <SCORE.RESTR>
0

>  <SCORE.RESTR.CAVITY>
0

>  <SCORE.RESTR.norm>
0

>  <SCORE.SYSTEM>
0

>  <SCORE.SYSTEM.CONST>
0

>  <SCORE.SYSTEM.DIHEDRAL>
0

>  <SCORE.SYSTEM.SOLV>
0

>  <SCORE.SYSTEM.norm>
0

>  <SCORE.heavy>
32

>  <SCORE.norm>
-0.187992

>  <RMSD>
2.157

$$$$
ligand
 OpenBabel11021811513D
libRbt.so/2013.1/901 2013/11/27
 32 34  0  0  0  0  0  0  0  0999 V2000
   15.4550  -29.4217  -18.7441 P   0  0  1  0  0  0  0  0  0  0  0  0
   13.6641  -29.2966  -16.5062 P   0  0  2  0  0  0  0  0  0  0  0  0
   10.8891  -30.1148  -17.0019 P   0  0  1  0  0  0  0  0  0  0  0  0
   17.2192  -27.5944  -19.3273 C   0  0  0  0  0  0  0  0  0  0  0  0
   17.0073  -28.9393  -19.0041 O   0  0  0  0  0  0  0  0  0  0  0  0
   18.5782  -27.3086  -19.2590 C   0  0  1  0  0  0  0  0  0  0  0  0
   18.8430  -25.9229  -19.8154 O   0  0  0  0  0  0  0  0  0  0  0  0
   19.0909  -27.2775  -17.7463 C   0  0  1  0  0  0  0  0  0  0  0  0
   20.0795  -28.4004  -17.5274 O   0  0  0  0  0  0  0  0  0  0  0  0
   19.7068  -26.2168  -17.6167 C   0  0  1  0  0  0  0  0  0  0  0  0
   21.1574  -26.4657  -17.7949 O   0  0  0  0  0  0  0  0  0  0  0  0
   19.1518  -25.1998  -18.8132 C   0  0  2  0  0  0  0  0  0  0  0  0
   16.8506  -20.6117  -18.6150 N   0  0  0  0  0  0  0  0  0  0  0  0
   14.5931  -29.0261  -19.9175 O   0  5  0  0  0  0  0  0  0  0  0  0
   13.3739  -28.4125  -15.3195 O   0  5  0  0  0  0  0  0  0  0  0  0
   10.4211  -29.4411  -15.7333 O   0  0  0  0  0  0  0  0  0  0  0  0
   18.0194  -20.9179  -19.1562 C   0  0  0  0  0  0  0  0  0  0  0  0
   18.8038  -19.8778  -19.7906 N   0  0  0  0  0  0  0  0  0  0  0  0
   15.4395  -30.9201  -18.5425 O   0  0  0  0  0  0  0  0  0  0  0  0
   14.0732  -30.6650  -16.0278 O   0  0  0  0  0  0  0  0  0  0  0  0
    9.8578  -29.8979  -18.0876 O   0  5  0  0  0  0  0  0  0  0  0  0
   18.4981  -22.1452  -19.1380 N   0  0  0  0  0  0  0  0  0  0  0  0
   14.8930  -28.6698  -17.3959 O   0  0  0  0  0  0  0  0  0  0  0  0
   12.3219  -29.4240  -17.4487 O   0  0  0  0  0  0  0  0  0  0  0  0
   11.0709  -31.5933  -16.7368 O   0  0  0  0  0  0  0  0  0  0  0  0
   17.8053  -23.1349  -18.5619 C   0  0  0  0  0  0  0  0  0  0  0  0
   16.5837  -22.8427  -17.9897 C   0  0  0  0  0  0  0  0  0  0  0  0
   16.0915  -21.5237  -18.0218 C   0  0  0  0  0  0  0  0  0  0  0  0
   14.8505  -21.1955  -17.4480 O   0  0  0  0  0  0  0  0  0  0  0  0
   16.0893  -23.9854  -17.4838 N   0  0  0  0  0  0  0  0  0  0  0  0
   16.9666  -24.9424  -17.7316 C   0  0  0  0  0  0  0  0  0  0  0  0
   18.0069  -24.4491  -18.3772 N   0  0  0  0  0  0  0  0  0  0  0  0
  1  5  1  6  0  0  0
  1 14  1  0  0  0  0
  1 19  2  0  0  0  0
  1 23  1  0  0  0  0
  2 15  1  1  0  0  0
  2 20  2  0  0  0  0
  2 23  1  0  0  0  0
  2 24  1  0  0  0  0
  3 16  1  1  0  0  0
  3 21  1  0  0  0  0
  3 24  1  0  0  0  0
  3 25  2  0  0  0  0
  4  5  1  0  0  0  0
  6  4  1  1  0  0  0
  6  7  1  0  0  0  0
  6  8  1  0  0  0  0
  7 12  1  0  0  0  0
  8  9  1  6  0  0  0
  8 10  1  0  0  0  0
 10 11  1  6  0  0  0
 10 12  1  0  0  0  0
 12 32  1  1  0  0  0
 13 17  2  0  0  0  0
 13 28  1  0  0  0  0
 17 18  1  0  0  0  0
 17 22  1  0  0  0  0
 22 26  2  0  0  0  0
 26 27  1  0  0  0  0
 26 32  1  0  0  0  0
 27 28  2  0  0  0  0
 27 30  1  0  0  0  0
 28 29  1  0  0  0  0
 30 31  2  0  0  0  0
 31 32  1  0  0  0  0
M  CHG  3  14  -1  15  -1  21  -1
M  END
>  <CHROM.1>
53.09355985,179.07462171,54.86894290,171.12179072,168.66441414,-106.01290167
-155.92347518,-64.11590951,15.72242898,-26.93264950,-17.93217206,-2.27908746
0.20889842,-0.03966201

>  <Name>
ligand

>  <RI>
0

>  <Rbt.Current_Directory>
/home/itssahil/PROJECTS/Mol_Feturizer/New_Systems/rnas/4Y1I

>  <Rbt.Executable>
rbdock ($Id: //depot/dev/client3/rdock/2013.1/src/exe/rbdock.cxx#4 $)

>  <Rbt.Library>
libRbt.so (2013.1, Build901 2013/11/27)

>  <Rbt.Parameter_File>
/export/apps/rDock/src/rDock_2013.1_src/data/scripts/dock_solv.prm

>  <Rbt.Receptor>
prm/pocket_docking_2.prm

>  <SCORE>
-2.46327

>  <SCORE.INTER>
3.51976

>  <SCORE.INTER.CONST>
1

>  <SCORE.INTER.POLAR>
0

>  <SCORE.INTER.ROT>
8

>  <SCORE.INTER.SOLV>
10.6536

>  <SCORE.INTER.VDW>
-10.138

>  <SCORE.INTER.norm>
0.109992

>  <SCORE.INTRA>
-5.98303

>  <SCORE.INTRA.DIHEDRAL>
-7.90331

>  <SCORE.INTRA.DIHEDRAL.0>
10.9594

>  <SCORE.INTRA.POLAR>
0

>  <SCORE.INTRA.POLAR.0>
0

>  <SCORE.INTRA.REPUL>
0

>  <SCORE.INTRA.REPUL.0>
0

>  <SCORE.INTRA.SOLV>
-4.68504

>  <SCORE.INTRA.SOLV.lig_0>
-124.914

>  <SCORE.INTRA.VDW>
0.311145

>  <SCORE.INTRA.VDW.0>
-4.69801

>  <SCORE.INTRA.norm>
-0.18697

>  <SCORE.RESTR>
0

>  <SCORE.RESTR.CAVITY>
0

>  <SCORE.RESTR.norm>
0

>  <SCORE.SYSTEM>
0

>  <SCORE.SYSTEM.CONST>
0

>  <SCORE.SYSTEM.DIHEDRAL>
0

>  <SCORE.SYSTEM.SOLV>
0

>  <SCORE.SYSTEM.norm>
0

>  <SCORE.heavy>
32

>  <SCORE.norm>
-0.0769773

>  <RMSD>
2.187

$$$$
ligand
 OpenBabel11021811513D
libRbt.so/2013.1/901 2013/11/27
 32 34  0  0  0  0  0  0  0  0999 V2000
   15.5638  -28.8974  -15.8641 P   0  0  1  0  0  0  0  0  0  0  0  0
   13.1037  -29.3933  -17.2544 P   0  0  2  0  0  0  0  0  0  0  0  0
   14.3453  -29.4130  -19.9140 P   0  0  1  0  0  0  0  0  0  0  0  0
   17.7045  -27.7427  -16.7997 C   0  0  0  0  0  0  0  0  0  0  0  0
   16.6389  -28.6063  -17.0764 O   0  0  0  0  0  0  0  0  0  0  0  0
   18.4879  -27.5917  -17.9385 C   0  0  1  0  0  0  0  0  0  0  0  0
   17.6425  -27.0610  -19.0802 O   0  0  0  0  0  0  0  0  0  0  0  0
   19.6429  -26.5117  -17.7111 C   0  0  1  0  0  0  0  0  0  0  0  0
   20.9904  -27.1934  -17.7856 O   0  0  0  0  0  0  0  0  0  0  0  0
   19.5735  -25.7323  -18.6646 C   0  0  1  0  0  0  0  0  0  0  0  0
   20.5561  -26.1333  -19.6998 O   0  0  0  0  0  0  0  0  0  0  0  0
   18.0261  -25.8609  -19.2672 C   0  0  2  0  0  0  0  0  0  0  0  0
   16.7249  -20.9587  -18.4546 N   0  0  0  0  0  0  0  0  0  0  0  0
   16.2706  -29.5414  -14.6972 O   0  5  0  0  0  0  0  0  0  0  0  0
   12.3164  -28.4163  -16.4179 O   0  5  0  0  0  0  0  0  0  0  0  0
   15.6019  -30.0744  -19.3983 O   0  0  0  0  0  0  0  0  0  0  0  0
   17.7173  -21.4299  -19.1934 C   0  0  0  0  0  0  0  0  0  0  0  0
   18.5873  -20.5038  -19.8899 N   0  0  0  0  0  0  0  0  0  0  0  0
   14.9270  -27.5884  -15.4552 O   0  0  0  0  0  0  0  0  0  0  0  0
   12.2385  -30.5788  -17.5935 O   0  0  0  0  0  0  0  0  0  0  0  0
   13.4288  -30.4707  -20.4890 O   0  5  0  0  0  0  0  0  0  0  0  0
   17.9434  -22.7217  -19.3184 N   0  0  0  0  0  0  0  0  0  0  0  0
   14.4135  -29.9288  -16.4223 O   0  0  0  0  0  0  0  0  0  0  0  0
   13.6030  -28.6644  -18.6420 O   0  0  0  0  0  0  0  0  0  0  0  0
   14.7199  -28.4059  -20.9793 O   0  0  0  0  0  0  0  0  0  0  0  0
   17.1633  -23.6105  -18.6915 C   0  0  0  0  0  0  0  0  0  0  0  0
   16.1216  -23.1458  -17.9144 C   0  0  0  0  0  0  0  0  0  0  0  0
   15.8984  -21.7604  -17.7959 C   0  0  0  0  0  0  0  0  0  0  0  0
   14.8452  -21.2571  -17.0121 O   0  0  0  0  0  0  0  0  0  0  0  0
   15.4935  -24.2153  -17.3968 N   0  0  0  0  0  0  0  0  0  0  0  0
   16.1193  -25.2942  -17.8340 C   0  0  0  0  0  0  0  0  0  0  0  0
   17.1284  -24.9501  -18.6123 N   0  0  0  0  0  0  0  0  0  0  0  0
  1  5  1  6  0  0  0
  1 14  1  0  0  0  0
  1 19  2  0  0  0  0
  1 23  1  0  0  0  0
  2 15  1  1  0  0  0
  2 20  2  0  0  0  0
  2 23  1  0  0  0  0
  2 24  1  0  0  0  0
  3 16  1  1  0  0  0
  3 21  1  0  0  0  0
  3 24  1  0  0  0  0
  3 25  2  0  0  0  0
  4  5  1  0  0  0  0
  6  4  1  1  0  0  0
  6  7  1  0  0  0  0
  6  8  1  0  0  0  0
  7 12  1  0  0  0  0
  8  9  1  6  0  0  0
  8 10  1  0  0  0  0
 10 11  1  6  0  0  0
 10 12  1  0  0  0  0
 12 32  1  1  0  0  0
 13 17  2  0  0  0  0
 13 28  1  0  0  0  0
 17 18  1  0  0  0  0
 17 22  1  0  0  0  0
 22 26  2  0  0  0  0
 26 27  1  0  0  0  0
 26 32  1  0  0  0  0
 27 28  2  0  0  0  0
 27 30  1  0  0  0  0
 28 29  1  0  0  0  0
 30 31  2  0  0  0  0
 31 32  1  0  0  0  0
M  CHG  3  14  -1  15  -1  21  -1
M  END
>  <CHROM.1>
-61.17699219,-58.88774408,-57.84612837,57.87805870,-178.69989421,-174.11017361
-84.50424326,-172.71450305,16.09322430,-26.80941513,-18.04359394,-2.08361119
0.15299255,-0.04594762

>  <Name>
ligand

>  <RI>
0

>  <Rbt.Current_Directory>
/home/itssahil/PROJECTS/Mol_Feturizer/New_Systems/rnas/4Y1I

>  <Rbt.Executable>
rbdock ($Id: //depot/dev/client3/rdock/2013.1/src/exe/rbdock.cxx#4 $)

>  <Rbt.Library>
libRbt.so (2013.1, Build901 2013/11/27)

>  <Rbt.Parameter_File>
/export/apps/rDock/src/rDock_2013.1_src/data/scripts/dock_solv.prm

>  <Rbt.Receptor>
prm/pocket_docking_2.prm

>  <SCORE>
-3.09958

>  <SCORE.INTER>
4.5272

>  <SCORE.INTER.CONST>
1

>  <SCORE.INTER.POLAR>
0

>  <SCORE.INTER.ROT>
8

>  <SCORE.INTER.SOLV>
8.12288

>  <SCORE.INTER.VDW>
-8.62283

>  <SCORE.INTER.norm>
0.141475

>  <SCORE.INTRA>
-7.64071

>  <SCORE.INTRA.DIHEDRAL>
-8.74385

>  <SCORE.INTRA.DIHEDRAL.0>
10.9594

>  <SCORE.INTRA.POLAR>
0

>  <SCORE.INTRA.POLAR.0>
0

>  <SCORE.INTRA.REPUL>
0

>  <SCORE.INTRA.REPUL.0>
0

>  <SCORE.INTRA.SOLV>
-4.44572

>  <SCORE.INTRA.SOLV.lig_0>
-124.914

>  <SCORE.INTRA.VDW>
-1.04593

>  <SCORE.INTRA.VDW.0>
-4.69801

>  <SCORE.INTRA.norm>
-0.238772

>  <SCORE.RESTR>
0.0139348

>  <SCORE.RESTR.CAVITY>
0.0139348

>  <SCORE.RESTR.norm>
0.000435464

>  <SCORE.SYSTEM>
0

>  <SCORE.SYSTEM.CONST>
0

>  <SCORE.SYSTEM.DIHEDRAL>
0

>  <SCORE.SYSTEM.SOLV>
0

>  <SCORE.SYSTEM.norm>
0

>  <SCORE.heavy>
32

>  <SCORE.norm>
-0.096862

>  <RMSD>
2.188

$$$$
ligand
 OpenBabel11021811513D
libRbt.so/2013.1/901 2013/11/27
 32 34  0  0  0  0  0  0  0  0999 V2000
   15.4661  -29.2237  -19.3070 P   0  0  1  0  0  0  0  0  0  0  0  0
   14.0235  -29.8908  -16.9186 P   0  0  2  0  0  0  0  0  0  0  0  0
   11.1497  -29.3080  -16.7887 P   0  0  1  0  0  0  0  0  0  0  0  0
   17.3152  -27.4078  -19.5810 C   0  0  0  0  0  0  0  0  0  0  0  0
   17.0049  -28.6806  -19.0894 O   0  0  0  0  0  0  0  0  0  0  0  0
   18.6663  -27.1485  -19.3794 C   0  0  1  0  0  0  0  0  0  0  0  0
   18.9906  -25.7321  -19.8138 O   0  0  0  0  0  0  0  0  0  0  0  0
   19.0495  -27.2293  -17.8307 C   0  0  1  0  0  0  0  0  0  0  0  0
   20.0051  -28.3798  -17.6086 O   0  0  0  0  0  0  0  0  0  0  0  0
   19.6624  -26.1897  -17.5763 C   0  0  1  0  0  0  0  0  0  0  0  0
   21.1204  -26.4482  -17.6493 O   0  0  0  0  0  0  0  0  0  0  0  0
   19.2205  -25.0845  -18.7413 C   0  0  2  0  0  0  0  0  0  0  0  0
   16.8214  -20.5426  -18.7115 N   0  0  0  0  0  0  0  0  0  0  0  0
   14.5021  -28.0644  -19.2532 O   0  5  0  0  0  0  0  0  0  0  0  0
   14.4822  -28.6706  -16.1604 O   0  5  0  0  0  0  0  0  0  0  0  0
   11.3279  -28.0350  -15.9949 O   0  0  0  0  0  0  0  0  0  0  0  0
   18.0090  -20.8371  -19.2169 C   0  0  0  0  0  0  0  0  0  0  0  0
   18.7870  -19.7962  -19.8580 N   0  0  0  0  0  0  0  0  0  0  0  0
   15.3855  -29.9327  -20.6401 O   0  0  0  0  0  0  0  0  0  0  0  0
   13.9162  -31.0601  -15.9752 O   0  0  0  0  0  0  0  0  0  0  0  0
   10.0175  -29.1225  -17.7752 O   0  5  0  0  0  0  0  0  0  0  0  0
   18.5123  -22.0531  -19.1570 N   0  0  0  0  0  0  0  0  0  0  0  0
   15.1050  -30.2706  -18.0937 O   0  0  0  0  0  0  0  0  0  0  0  0
   12.5561  -29.6031  -17.6039 O   0  0  0  0  0  0  0  0  0  0  0  0
   10.8379  -30.4426  -15.8374 O   0  0  0  0  0  0  0  0  0  0  0  0
   17.8261  -23.0430  -18.5733 C   0  0  0  0  0  0  0  0  0  0  0  0
   16.5852  -22.7629  -18.0378 C   0  0  0  0  0  0  0  0  0  0  0  0
   16.0669  -21.4558  -18.1142 C   0  0  0  0  0  0  0  0  0  0  0  0
   14.8059  -21.1401  -17.5784 O   0  0  0  0  0  0  0  0  0  0  0  0
   16.1023  -23.9033  -17.5157 N   0  0  0  0  0  0  0  0  0  0  0  0
   17.0048  -24.8472  -17.7187 C   0  0  0  0  0  0  0  0  0  0  0  0
   18.0501  -24.3478  -18.3514 N   0  0  0  0  0  0  0  0  0  0  0  0
  1  5  1  1  0  0  0
  1 14  1  0  0  0  0
  1 19  2  0  0  0  0
  1 23  1  0  0  0  0
  2 15  1  1  0  0  0
  2 20  2  0  0  0  0
  2 23  1  0  0  0  0
  2 24  1  0  0  0  0
  3 16  1  1  0  0  0
  3 21  1  0  0  0  0
  3 24  1  0  0  0  0
  3 25  2  0  0  0  0
  4  5  1  0  0  0  0
  6  4  1  1  0  0  0
  6  7  1  0  0  0  0
  6  8  1  0  0  0  0
  7 12  1  0  0  0  0
  8  9  1  6  0  0  0
  8 10  1  0  0  0  0
 10 11  1  6  0  0  0
 10 12  1  0  0  0  0
 12 32  1  1  0  0  0
 13 17  2  0  0  0  0
 13 28  1  0  0  0  0
 17 18  1  0  0  0  0
 17 22  1  0  0  0  0
 22 26  2  0  0  0  0
 26 27  1  0  0  0  0
 26 32  1  0  0  0  0
 27 28  2  0  0  0  0
 27 30  1  0  0  0  0
 28 29  1  0  0  0  0
 30 31  2  0  0  0  0
 31 32  1  0  0  0  0
M  CHG  3  14  -1  15  -1  21  -1
M  END
>  <CHROM.1>
-32.90671023,-60.43142886,62.37002581,-175.76753816,-176.56533206,-99.34392968
110.13050328,-64.19250656,15.83093200,-26.76675252,-18.06820168,-2.26321629
0.23462363,-0.02577224

>  <Name>
ligand

>  <RI>
0

>  <Rbt.Current_Directory>
/home/itssahil/PROJECTS/Mol_Feturizer/New_Systems/rnas/4Y1I

>  <Rbt.Executable>
rbdock ($Id: //depot/dev/client3/rdock/2013.1/src/exe/rbdock.cxx#4 $)

>  <Rbt.Library>
libRbt.so (2013.1, Build901 2013/11/27)

>  <Rbt.Parameter_File>
/export/apps/rDock/src/rDock_2013.1_src/data/scripts/dock_solv.prm

>  <Rbt.Receptor>
prm/pocket_docking_2.prm

>  <SCORE>
-1.05996

>  <SCORE.INTER>
3.48441

>  <SCORE.INTER.CONST>
1

>  <SCORE.INTER.POLAR>
0

>  <SCORE.INTER.ROT>
8

>  <SCORE.INTER.SOLV>
10.6187

>  <SCORE.INTER.VDW>
-10.15

>  <SCORE.INTER.norm>
0.108888

>  <SCORE.INTRA>
-4.54437

>  <SCORE.INTRA.DIHEDRAL>
-6.27208

>  <SCORE.INTRA.DIHEDRAL.0>
10.9594

>  <SCORE.INTRA.POLAR>
0

>  <SCORE.INTRA.POLAR.0>
0

>  <SCORE.INTRA.REPUL>
0

>  <SCORE.INTRA.REPUL.0>
0

>  <SCORE.INTRA.SOLV>
-4.22025

>  <SCORE.INTRA.SOLV.lig_0>
-124.914

>  <SCORE.INTRA.VDW>
0.70179

>  <SCORE.INTRA.VDW.0>
-4.69801

>  <SCORE.INTRA.norm>
-0.142012

>  <SCORE.RESTR>
0

>  <SCORE.RESTR.CAVITY>
0

>  <SCORE.RESTR.norm>
0

>  <SCORE.SYSTEM>
0

>  <SCORE.SYSTEM.CONST>
0

>  <SCORE.SYSTEM.DIHEDRAL>
0

>  <SCORE.SYSTEM.SOLV>
0

>  <SCORE.SYSTEM.norm>
0

>  <SCORE.heavy>
32

>  <SCORE.norm>
-0.0331238

>  <RMSD>
2.192

$$$$
ligand
 OpenBabel11021811513D
libRbt.so/2013.1/901 2013/11/27
 32 34  0  0  0  0  0  0  0  0999 V2000
   17.8052  -29.1916  -16.2932 P   0  0  1  0  0  0  0  0  0  0  0  0
   15.4057  -29.3997  -17.8522 P   0  0  2  0  0  0  0  0  0  0  0  0
   15.3605  -31.0610  -20.2715 P   0  0  1  0  0  0  0  0  0  0  0  0
   18.5555  -27.4887  -18.1176 C   0  0  0  0  0  0  0  0  0  0  0  0
   18.9714  -28.4386  -17.1781 O   0  0  0  0  0  0  0  0  0  0  0  0
   19.6678  -26.9307  -18.7379 C   0  0  1  0  0  0  0  0  0  0  0  0
   19.2253  -25.9606  -19.8163 O   0  0  0  0  0  0  0  0  0  0  0  0
   20.5386  -26.0731  -17.7091 C   0  0  1  0  0  0  0  0  0  0  0  0
   21.8936  -26.7212  -17.5350 O   0  0  0  0  0  0  0  0  0  0  0  0
   20.7224  -24.9787  -18.2474 C   0  0  1  0  0  0  0  0  0  0  0  0
   22.0456  -24.9759  -18.9161 O   0  0  0  0  0  0  0  0  0  0  0  0
   19.5122  -24.7997  -19.3774 C   0  0  2  0  0  0  0  0  0  0  0  0
   16.8560  -20.4617  -18.6621 N   0  0  0  0  0  0  0  0  0  0  0  0
   18.4411  -30.1635  -15.3304 O   0  5  0  0  0  0  0  0  0  0  0  0
   15.6431  -28.0903  -18.5616 O   0  5  0  0  0  0  0  0  0  0  0  0
   16.6334  -31.7893  -19.9087 O   0  0  0  0  0  0  0  0  0  0  0  0
   18.0023  -20.6224  -19.3047 C   0  0  0  0  0  0  0  0  0  0  0  0
   18.6467  -19.4733  -19.9079 N   0  0  0  0  0  0  0  0  0  0  0  0
   17.0042  -28.1437  -15.5539 O   0  0  0  0  0  0  0  0  0  0  0  0
   14.5087  -29.1740  -16.6634 O   0  0  0  0  0  0  0  0  0  0  0  0
   14.4015  -32.0337  -20.9224 O   0  5  0  0  0  0  0  0  0  0  0  0
   18.5822  -21.8001  -19.4158 N   0  0  0  0  0  0  0  0  0  0  0  0
   16.8271  -30.0234  -17.3179 O   0  0  0  0  0  0  0  0  0  0  0  0
   14.6953  -30.4702  -18.8795 O   0  0  0  0  0  0  0  0  0  0  0  0
   15.6922  -29.9328  -21.2236 O   0  0  0  0  0  0  0  0  0  0  0  0
   18.0201  -22.8868  -18.8729 C   0  0  0  0  0  0  0  0  0  0  0  0
   16.8249  -22.7468  -18.1969 C   0  0  0  0  0  0  0  0  0  0  0  0
   16.2228  -21.4782  -18.0914 C   0  0  0  0  0  0  0  0  0  0  0  0
   15.0055  -21.3045  -17.4097 O   0  0  0  0  0  0  0  0  0  0  0  0
   16.4676  -23.9627  -17.7494 N   0  0  0  0  0  0  0  0  0  0  0  0
   17.4008  -24.8171  -18.1313 C   0  0  0  0  0  0  0  0  0  0  0  0
   18.3445  -24.1876  -18.8062 N   0  0  0  0  0  0  0  0  0  0  0  0
  1  5  1  6  0  0  0
  1 14  1  0  0  0  0
  1 19  2  0  0  0  0
  1 23  1  0  0  0  0
  2 15  1  6  0  0  0
  2 20  2  0  0  0  0
  2 23  1  0  0  0  0
  2 24  1  0  0  0  0
  3 16  1  1  0  0  0
  3 21  1  0  0  0  0
  3 24  1  0  0  0  0
  3 25  2  0  0  0  0
  4  5  1  0  0  0  0
  6  4  1  1  0  0  0
  6  7  1  0  0  0  0
  6  8  1  0  0  0  0
  7 12  1  0  0  0  0
  8  9  1  6  0  0  0
  8 10  1  0  0  0  0
 10 11  1  6  0  0  0
 10 12  1  0  0  0  0
 12 32  1  1  0  0  0
 13 17  2  0  0  0  0
 13 28  1  0  0  0  0
 17 18  1  0  0  0  0
 17 22  1  0  0  0  0
 22 26  2  0  0  0  0
 26 27  1  0  0  0  0
 26 32  1  0  0  0  0
 27 28  2  0  0  0  0
 27 30  1  0  0  0  0
 28 29  1  0  0  0  0
 30 31  2  0  0  0  0
 31 32  1  0  0  0  0
M  CHG  3  14  -1  15  -1  21  -1
M  END
>  <CHROM.1>
-179.40199176,58.02576380,60.38350651,176.61410354,178.21039642,-143.47699315
-96.93410333,62.88775341,17.44556831,-26.79157749,-18.36601886,-1.84754542
-0.25205890,-0.07564603

>  <Name>
ligand

>  <RI>
0

>  <Rbt.Current_Directory>
/home/itssahil/PROJECTS/Mol_Feturizer/New_Systems/rnas/4Y1I

>  <Rbt.Executable>
rbdock ($Id: //depot/dev/client3/rdock/2013.1/src/exe/rbdock.cxx#4 $)

>  <Rbt.Library>
libRbt.so (2013.1, Build901 2013/11/27)

>  <Rbt.Parameter_File>
/export/apps/rDock/src/rDock_2013.1_src/data/scripts/dock_solv.prm

>  <Rbt.Receptor>
prm/pocket_docking_4.prm

>  <SCORE>
-4.30937

>  <SCORE.INTER>
0.989445

>  <SCORE.INTER.CONST>
1

>  <SCORE.INTER.POLAR>
0

>  <SCORE.INTER.ROT>
8

>  <SCORE.INTER.SOLV>
12.939

>  <SCORE.INTER.VDW>
-12.5867

>  <SCORE.INTER.norm>
0.0309202

>  <SCORE.INTRA>
-5.29882

>  <SCORE.INTRA.DIHEDRAL>
-8.00759

>  <SCORE.INTRA.DIHEDRAL.0>
10.9594

>  <SCORE.INTRA.POLAR>
0

>  <SCORE.INTRA.POLAR.0>
0

>  <SCORE.INTRA.REPUL>
0

>  <SCORE.INTRA.REPUL.0>
0

>  <SCORE.INTRA.SOLV>
-3.51433

>  <SCORE.INTRA.SOLV.lig_0>
-124.914

>  <SCORE.INTRA.VDW>
0.462146

>  <SCORE.INTRA.VDW.0>
-4.69801

>  <SCORE.INTRA.norm>
-0.165588

>  <SCORE.RESTR>
0

>  <SCORE.RESTR.CAVITY>
0

>  <SCORE.RESTR.norm>
0

>  <SCORE.SYSTEM>
0

>  <SCORE.SYSTEM.CONST>
0

>  <SCORE.SYSTEM.DIHEDRAL>
0

>  <SCORE.SYSTEM.SOLV>
0

>  <SCORE.SYSTEM.norm>
0

>  <SCORE.heavy>
32

>  <SCORE.norm>
-0.134668

>  <RMSD>
2.273

$$$$
ligand
 OpenBabel11021811513D
libRbt.so/2013.1/901 2013/11/27
 32 34  0  0  0  0  0  0  0  0999 V2000
   16.8045  -28.1387  -17.9731 P   0  0  1  0  0  0  0  0  0  0  0  0
   14.5629  -26.7326  -16.8644 P   0  0  2  0  0  0  0  0  0  0  0  0
   13.2601  -28.1619  -14.6564 P   0  0  1  0  0  0  0  0  0  0  0  0
   19.1453  -26.9939  -17.9338 C   0  0  0  0  0  0  0  0  0  0  0  0
   18.2465  -27.7684  -18.6757 O   0  0  0  0  0  0  0  0  0  0  0  0
   20.2714  -26.7240  -18.7035 C   0  0  1  0  0  0  0  0  0  0  0  0
   19.8687  -25.9889  -19.9675 O   0  0  0  0  0  0  0  0  0  0  0  0
   21.2815  -25.7530  -17.9362 C   0  0  1  0  0  0  0  0  0  0  0  0
   22.5716  -26.4899  -17.6553 O   0  0  0  0  0  0  0  0  0  0  0  0
   21.5443  -24.8419  -18.7250 C   0  0  1  0  0  0  0  0  0  0  0  0
   22.8208  -25.1432  -19.4162 O   0  0  0  0  0  0  0  0  0  0  0  0
   20.2961  -24.7973  -19.8268 C   0  0  2  0  0  0  0  0  0  0  0  0
   18.7509  -19.9825  -18.9235 N   0  0  0  0  0  0  0  0  0  0  0  0
   15.9376  -28.8925  -18.9510 O   0  5  0  0  0  0  0  0  0  0  0  0
   13.5214  -27.2090  -17.8456 O   0  5  0  0  0  0  0  0  0  0  0  0
   13.7485  -28.9208  -13.4449 O   0  0  0  0  0  0  0  0  0  0  0  0
   19.9267  -20.3937  -19.3719 C   0  0  0  0  0  0  0  0  0  0  0  0
   20.9564  -19.4178  -19.6664 N   0  0  0  0  0  0  0  0  0  0  0  0
   17.0661  -28.9647  -16.7339 O   0  0  0  0  0  0  0  0  0  0  0  0
   14.2452  -25.3240  -16.4357 O   0  0  0  0  0  0  0  0  0  0  0  0
   12.5121  -26.9283  -14.2000 O   0  5  0  0  0  0  0  0  0  0  0  0
   20.1955  -21.6695  -19.5611 N   0  0  0  0  0  0  0  0  0  0  0  0
   16.0482  -26.7391  -17.5632 O   0  0  0  0  0  0  0  0  0  0  0  0
   14.5790  -27.7163  -15.5461 O   0  0  0  0  0  0  0  0  0  0  0  0
   12.3501  -29.0592  -15.4665 O   0  0  0  0  0  0  0  0  0  0  0  0
   19.2722  -22.6030  -19.3010 C   0  0  0  0  0  0  0  0  0  0  0  0
   18.0378  -22.2012  -18.8320 C   0  0  0  0  0  0  0  0  0  0  0  0
   17.7726  -20.8319  -18.6380 C   0  0  0  0  0  0  0  0  0  0  0  0
   16.5248  -20.3923  -18.1621 O   0  0  0  0  0  0  0  0  0  0  0  0
   17.2947  -23.3060  -18.6488 N   0  0  0  0  0  0  0  0  0  0  0  0
   18.0368  -24.3454  -18.9889 C   0  0  0  0  0  0  0  0  0  0  0  0
   19.2308  -23.9422  -19.3814 N   0  0  0  0  0  0  0  0  0  0  0  0
  1  5  1  6  0  0  0
  1 14  1  0  0  0  0
  1 19  2  0  0  0  0
  1 23  1  0  0  0  0
  2 15  1  6  0  0  0
  2 20  2  0  0  0  0
  2 23  1  0  0  0  0
  2 24  1  0  0  0  0
  3 16  1  1  0  0  0
  3 21  1  0  0  0  0
  3 24  1  0  0  0  0
  3 25  2  0  0  0  0
  4  5  1  0  0  0  0
  6  4  1  1  0  0  0
  6  7  1  0  0  0  0
  6  8  1  0  0  0  0
  7 12  1  0  0  0  0
  8  9  1  6  0  0  0
  8 10  1  0  0  0  0
 10 11  1  6  0  0  0
 10 12  1  0  0  0  0
 12 32  1  1  0  0  0
 13 17  2  0  0  0  0
 13 28  1  0  0  0  0
 17 18  1  0  0  0  0
 17 22  1  0  0  0  0
 22 26  2  0  0  0  0
 26 27  1  0  0  0  0
 26 32  1  0  0  0  0
 27 28  2  0  0  0  0
 27 30  1  0  0  0  0
 28 29  1  0  0  0  0
 30 31  2  0  0  0  0
 31 32  1  0  0  0  0
M  CHG  3  14  -1  15  -1  21  -1
M  END
>  <CHROM.1>
176.16519742,-68.22382820,-172.91314149,58.88713377,-176.99297955,-170.51878338
178.71027881,-50.56030554,17.31665831,-25.59167945,-17.72382421,-2.43297616
0.39233454,-0.16029697

>  <Name>
ligand

>  <RI>
0

>  <Rbt.Current_Directory>
/home/itssahil/PROJECTS/Mol_Feturizer/New_Systems/rnas/4Y1I

>  <Rbt.Executable>
rbdock ($Id: //depot/dev/client3/rdock/2013.1/src/exe/rbdock.cxx#4 $)

>  <Rbt.Library>
libRbt.so (2013.1, Build901 2013/11/27)

>  <Rbt.Parameter_File>
/export/apps/rDock/src/rDock_2013.1_src/data/scripts/dock_solv.prm

>  <Rbt.Receptor>
prm/pocket_docking_3.prm

>  <SCORE>
-5.37592

>  <SCORE.INTER>
0.801115

>  <SCORE.INTER.CONST>
1

>  <SCORE.INTER.POLAR>
0

>  <SCORE.INTER.ROT>
8

>  <SCORE.INTER.SOLV>
9.12863

>  <SCORE.INTER.VDW>
-11.4421

>  <SCORE.INTER.norm>
0.0250349

>  <SCORE.INTRA>
-6.18794

>  <SCORE.INTRA.DIHEDRAL>
-9.3442

>  <SCORE.INTRA.DIHEDRAL.0>
10.9594

>  <SCORE.INTRA.POLAR>
0

>  <SCORE.INTRA.POLAR.0>
0

>  <SCORE.INTRA.REPUL>
0

>  <SCORE.INTRA.REPUL.0>
0

>  <SCORE.INTRA.SOLV>
-3.11269

>  <SCORE.INTRA.SOLV.lig_0>
-124.914

>  <SCORE.INTRA.VDW>
0.0405067

>  <SCORE.INTRA.VDW.0>
-4.69801

>  <SCORE.INTRA.norm>
-0.193373

>  <SCORE.RESTR>
0.0108966

>  <SCORE.RESTR.CAVITY>
0.0108966

>  <SCORE.RESTR.norm>
0.00034052

>  <SCORE.SYSTEM>
0

>  <SCORE.SYSTEM.CONST>
0

>  <SCORE.SYSTEM.DIHEDRAL>
0

>  <SCORE.SYSTEM.SOLV>
0

>  <SCORE.SYSTEM.norm>
0

>  <SCORE.heavy>
32

>  <SCORE.norm>
-0.167998

>  <RMSD>
2.301

$$$$
ligand
 OpenBabel11021811513D
libRbt.so/2013.1/901 2013/11/27
 32 34  0  0  0  0  0  0  0  0999 V2000
   17.9044  -28.5389  -17.9783 P   0  0  1  0  0  0  0  0  0  0  0  0
   15.1839  -27.8252  -17.4119 P   0  0  2  0  0  0  0  0  0  0  0  0
   15.0525  -27.9934  -14.4845 P   0  0  1  0  0  0  0  0  0  0  0  0
   19.8039  -26.7713  -18.2210 C   0  0  0  0  0  0  0  0  0  0  0  0
   19.1375  -27.8458  -18.8204 O   0  0  0  0  0  0  0  0  0  0  0  0
   20.7100  -26.2249  -19.1231 C   0  0  1  0  0  0  0  0  0  0  0  0
   19.9673  -25.6239  -20.3009 O   0  0  0  0  0  0  0  0  0  0  0  0
   21.5325  -25.0234  -18.4659 C   0  0  1  0  0  0  0  0  0  0  0  0
   22.9935  -25.4029  -18.3785 O   0  0  0  0  0  0  0  0  0  0  0  0
   21.4459  -24.0792  -19.2547 C   0  0  1  0  0  0  0  0  0  0  0  0
   22.6522  -24.0458  -20.1158 O   0  0  0  0  0  0  0  0  0  0  0  0
   20.0914  -24.3618  -20.1818 C   0  0  2  0  0  0  0  0  0  0  0  0
   17.7118  -20.1255  -18.5157 N   0  0  0  0  0  0  0  0  0  0  0  0
   17.3175  -29.6778  -18.7749 O   0  5  0  0  0  0  0  0  0  0  0  0
   14.6300  -28.6749  -18.5279 O   0  5  0  0  0  0  0  0  0  0  0  0
   15.2571  -29.0995  -13.4760 O   0  0  0  0  0  0  0  0  0  0  0  0
   18.9130  -20.2274  -19.0629 C   0  0  0  0  0  0  0  0  0  0  0  0
   19.7144  -19.0342  -19.2463 N   0  0  0  0  0  0  0  0  0  0  0  0
   18.4374  -29.0263  -16.6499 O   0  0  0  0  0  0  0  0  0  0  0  0
   14.3694  -26.5645  -17.2858 O   0  0  0  0  0  0  0  0  0  0  0  0
   16.1528  -26.9671  -14.3243 O   0  5  0  0  0  0  0  0  0  0  0  0
   19.4090  -21.3849  -19.4498 N   0  0  0  0  0  0  0  0  0  0  0  0
   16.7388  -27.4077  -17.7324 O   0  0  0  0  0  0  0  0  0  0  0  0
   15.1269  -28.6587  -15.9949 O   0  0  0  0  0  0  0  0  0  0  0  0
   13.7004  -27.3560  -14.2497 O   0  0  0  0  0  0  0  0  0  0  0  0
   18.7013  -22.5108  -19.2980 C   0  0  0  0  0  0  0  0  0  0  0  0
   17.4459  -22.4326  -18.7296 C   0  0  0  0  0  0  0  0  0  0  0  0
   16.9357  -21.1843  -18.3243 C   0  0  0  0  0  0  0  0  0  0  0  0
   15.6603  -21.0730  -17.7429 O   0  0  0  0  0  0  0  0  0  0  0  0
   16.9425  -23.6780  -18.6860 N   0  0  0  0  0  0  0  0  0  0  0  0
   17.8468  -24.4909  -19.2040 C   0  0  0  0  0  0  0  0  0  0  0  0
   18.9129  -23.8070  -19.5754 N   0  0  0  0  0  0  0  0  0  0  0  0
  1  5  1  6  0  0  0
  1 14  1  0  0  0  0
  1 19  2  0  0  0  0
  1 23  1  0  0  0  0
  2 15  1  6  0  0  0
  2 20  2  0  0  0  0
  2 23  1  0  0  0  0
  2 24  1  0  0  0  0
  3 16  1  1  0  0  0
  3 21  1  0  0  0  0
  3 24  1  0  0  0  0
  3 25  2  0  0  0  0
  4  5  1  0  0  0  0
  6  4  1  1  0  0  0
  6  7  1  0  0  0  0
  6  8  1  0  0  0  0
  7 12  1  0  0  0  0
  8  9  1  6  0  0  0
  8 10  1  0  0  0  0
 10 11  1  6  0  0  0
 10 12  1  0  0  0  0
 12 32  1  1  0  0  0
 13 17  2  0  0  0  0
 13 28  1  0  0  0  0
 17 18  1  0  0  0  0
 17 22  1  0  0  0  0
 22 26  2  0  0  0  0
 26 27  1  0  0  0  0
 26 32  1  0  0  0  0
 27 28  2  0  0  0  0
 27 30  1  0  0  0  0
 28 29  1  0  0  0  0
 30 31  2  0  0  0  0
 31 32  1  0  0  0  0
M  CHG  3  14  -1  15  -1  21  -1
M  END
>  <CHROM.1>
-179.63237743,-58.18347816,-170.36599262,64.93436798,-173.72838164,179.86738973
158.29933993,-154.47100117,17.75685764,-25.66595894,-17.84189348,-2.21789995
0.48788312,-0.16908630

>  <Name>
ligand

>  <RI>
0

>  <Rbt.Current_Directory>
/home/itssahil/PROJECTS/Mol_Feturizer/New_Systems/rnas/4Y1I

>  <Rbt.Executable>
rbdock ($Id: //depot/dev/client3/rdock/2013.1/src/exe/rbdock.cxx#4 $)

>  <Rbt.Library>
libRbt.so (2013.1, Build901 2013/11/27)

>  <Rbt.Parameter_File>
/export/apps/rDock/src/rDock_2013.1_src/data/scripts/dock_solv.prm

>  <Rbt.Receptor>
prm/pocket_docking_3.prm

>  <SCORE>
-4.24175

>  <SCORE.INTER>
1.13275

>  <SCORE.INTER.CONST>
1

>  <SCORE.INTER.POLAR>
0

>  <SCORE.INTER.ROT>
8

>  <SCORE.INTER.SOLV>
12.5229

>  <SCORE.INTER.VDW>
-12.3525

>  <SCORE.INTER.norm>
0.0353986

>  <SCORE.INTRA>
-5.3745

>  <SCORE.INTRA.DIHEDRAL>
-7.68164

>  <SCORE.INTRA.DIHEDRAL.0>
10.9594

>  <SCORE.INTRA.POLAR>
0

>  <SCORE.INTRA.POLAR.0>
0

>  <SCORE.INTRA.REPUL>
0

>  <SCORE.INTRA.REPUL.0>
0

>  <SCORE.INTRA.SOLV>
-2.63483

>  <SCORE.INTRA.SOLV.lig_0>
-124.914

>  <SCORE.INTRA.VDW>
-0.216269

>  <SCORE.INTRA.VDW.0>
-4.69801

>  <SCORE.INTRA.norm>
-0.167953

>  <SCORE.RESTR>
0

>  <SCORE.RESTR.CAVITY>
0

>  <SCORE.RESTR.norm>
0

>  <SCORE.SYSTEM>
0

>  <SCORE.SYSTEM.CONST>
0

>  <SCORE.SYSTEM.DIHEDRAL>
0

>  <SCORE.SYSTEM.SOLV>
0

>  <SCORE.SYSTEM.norm>
0

>  <SCORE.heavy>
32

>  <SCORE.norm>
-0.132555

>  <RMSD>
2.349

$$$$
ligand
 OpenBabel11021811513D
libRbt.so/2013.1/901 2013/11/27
 32 34  0  0  0  0  0  0  0  0999 V2000
   14.4237  -28.5420  -19.3068 P   0  0  1  0  0  0  0  0  0  0  0  0
   13.3023  -30.0325  -17.1269 P   0  0  2  0  0  0  0  0  0  0  0  0
   10.5445  -29.1759  -16.6015 P   0  0  1  0  0  0  0  0  0  0  0  0
   16.7849  -27.8537  -18.4450 C   0  0  0  0  0  0  0  0  0  0  0  0
   16.0004  -28.1458  -19.5662 O   0  0  0  0  0  0  0  0  0  0  0  0
   18.0742  -27.5288  -18.8517 C   0  0  1  0  0  0  0  0  0  0  0  0
   18.0387  -26.3138  -19.7587 O   0  0  0  0  0  0  0  0  0  0  0  0
   18.9908  -27.1198  -17.6088 C   0  0  1  0  0  0  0  0  0  0  0  0
   20.1015  -28.1331  -17.4484 O   0  0  0  0  0  0  0  0  0  0  0  0
   19.5159  -26.0455  -17.9112 C   0  0  1  0  0  0  0  0  0  0  0  0
   20.8725  -26.2970  -18.4536 O   0  0  0  0  0  0  0  0  0  0  0  0
   18.5506  -25.3623  -19.0841 C   0  0  2  0  0  0  0  0  0  0  0  0
   16.6229  -20.6396  -18.4801 N   0  0  0  0  0  0  0  0  0  0  0  0
   13.7249  -27.4150  -18.5872 O   0  5  0  0  0  0  0  0  0  0  0  0
   13.8132  -29.3086  -15.9065 O   0  5  0  0  0  0  0  0  0  0  0  0
   10.9629  -28.2712  -15.4663 O   0  0  0  0  0  0  0  0  0  0  0  0
   17.7077  -21.0012  -19.1474 C   0  0  0  0  0  0  0  0  0  0  0  0
   18.5007  -19.9901  -19.8171 N   0  0  0  0  0  0  0  0  0  0  0  0
   13.7676  -28.8217  -20.6400 O   0  0  0  0  0  0  0  0  0  0  0  0
   13.1360  -31.4961  -16.8124 O   0  0  0  0  0  0  0  0  0  0  0  0
    9.4308  -28.5108  -17.3805 O   0  5  0  0  0  0  0  0  0  0  0  0
   18.0945  -22.2582  -19.2244 N   0  0  0  0  0  0  0  0  0  0  0  0
   14.3711  -29.8864  -18.3642 O   0  0  0  0  0  0  0  0  0  0  0  0
   11.8534  -29.4019  -17.5839 O   0  0  0  0  0  0  0  0  0  0  0  0
   10.0725  -30.4958  -16.0318 O   0  0  0  0  0  0  0  0  0  0  0  0
   17.3904  -23.2227  -18.6198 C   0  0  0  0  0  0  0  0  0  0  0  0
   16.2552  -22.8728  -17.9169 C   0  0  0  0  0  0  0  0  0  0  0  0
   15.8604  -21.5227  -17.8488 C   0  0  0  0  0  0  0  0  0  0  0  0
   14.7088  -21.1358  -17.1410 O   0  0  0  0  0  0  0  0  0  0  0  0
   15.7300  -24.0003  -17.4080 N   0  0  0  0  0  0  0  0  0  0  0  0
   16.5063  -25.0035  -17.7791 C   0  0  0  0  0  0  0  0  0  0  0  0
   17.5120  -24.5547  -18.5068 N   0  0  0  0  0  0  0  0  0  0  0  0
  1  5  1  6  0  0  0
  1 14  1  0  0  0  0
  1 19  2  0  0  0  0
  1 23  1  0  0  0  0
  2 15  1  1  0  0  0
  2 20  2  0  0  0  0
  2 23  1  0  0  0  0
  2 24  1  0  0  0  0
  3 16  1  1  0  0  0
  3 21  1  0  0  0  0
  3 24  1  0  0  0  0
  3 25  2  0  0  0  0
  4  5  1  0  0  0  0
  6  4  1  1  0  0  0
  6  7  1  0  0  0  0
  6  8  1  0  0  0  0
  7 12  1  0  0  0  0
  8  9  1  6  0  0  0
  8 10  1  0  0  0  0
 10 11  1  6  0  0  0
 10 12  1  0  0  0  0
 12 32  1  1  0  0  0
 13 17  2  0  0  0  0
 13 28  1  0  0  0  0
 17 18  1  0  0  0  0
 17 22  1  0  0  0  0
 22 26  2  0  0  0  0
 26 27  1  0  0  0  0
 26 32  1  0  0  0  0
 27 28  2  0  0  0  0
 27 30  1  0  0  0  0
 28 29  1  0  0  0  0
 30 31  2  0  0  0  0
 31 32  1  0  0  0  0
M  CHG  3  14  -1  15  -1  21  -1
M  END
>  <CHROM.1>
58.62465190,-81.21561284,58.39592646,60.31609176,-179.33825196,-127.16474139
137.71104815,-51.30628905,15.25827215,-26.72551546,-18.02622237,-2.33980445
0.22467279,-0.01970263

>  <Name>
ligand

>  <RI>
0

>  <Rbt.Current_Directory>
/home/itssahil/PROJECTS/Mol_Feturizer/New_Systems/rnas/4Y1I

>  <Rbt.Executable>
rbdock ($Id: //depot/dev/client3/rdock/2013.1/src/exe/rbdock.cxx#4 $)

>  <Rbt.Library>
libRbt.so (2013.1, Build901 2013/11/27)

>  <Rbt.Parameter_File>
/export/apps/rDock/src/rDock_2013.1_src/data/scripts/dock_solv.prm

>  <Rbt.Receptor>
prm/pocket_docking_2.prm

>  <SCORE>
-0.941246

>  <SCORE.INTER>
4.22203

>  <SCORE.INTER.CONST>
1

>  <SCORE.INTER.POLAR>
0

>  <SCORE.INTER.ROT>
8

>  <SCORE.INTER.SOLV>
9.83026

>  <SCORE.INTER.VDW>
-9.3954

>  <SCORE.INTER.norm>
0.131938

>  <SCORE.INTRA>
-5.17685

>  <SCORE.INTRA.DIHEDRAL>
-7.02365

>  <SCORE.INTRA.DIHEDRAL.0>
10.9594

>  <SCORE.INTRA.POLAR>
0

>  <SCORE.INTRA.POLAR.0>
0

>  <SCORE.INTRA.REPUL>
0

>  <SCORE.INTRA.REPUL.0>
0

>  <SCORE.INTRA.SOLV>
-4.19013

>  <SCORE.INTRA.SOLV.lig_0>
-124.914

>  <SCORE.INTRA.VDW>
0.430047

>  <SCORE.INTRA.VDW.0>
-4.69801

>  <SCORE.INTRA.norm>
-0.161776

>  <SCORE.RESTR>
0.0135686

>  <SCORE.RESTR.CAVITY>
0.0135686

>  <SCORE.RESTR.norm>
0.000424019

>  <SCORE.SYSTEM>
0

>  <SCORE.SYSTEM.CONST>
0

>  <SCORE.SYSTEM.DIHEDRAL>
0

>  <SCORE.SYSTEM.SOLV>
0

>  <SCORE.SYSTEM.norm>
0

>  <SCORE.heavy>
32

>  <SCORE.norm>
-0.0294139

>  <RMSD>
2.360

$$$$
ligand
 OpenBabel11021811513D
libRbt.so/2013.1/901 2013/11/27
 32 34  0  0  0  0  0  0  0  0999 V2000
   17.8150  -28.4042  -17.1925 P   0  0  1  0  0  0  0  0  0  0  0  0
   15.7758  -28.6061  -19.2004 P   0  0  2  0  0  0  0  0  0  0  0  0
   14.3066  -26.0890  -19.5485 P   0  0  1  0  0  0  0  0  0  0  0  0
   19.7475  -26.7567  -17.7779 C   0  0  0  0  0  0  0  0  0  0  0  0
   18.8546  -27.7163  -18.2677 O   0  0  0  0  0  0  0  0  0  0  0  0
   20.5600  -26.3069  -18.8127 C   0  0  1  0  0  0  0  0  0  0  0  0
   19.7060  -25.8733  -19.9885 O   0  0  0  0  0  0  0  0  0  0  0  0
   21.3939  -25.0154  -18.3784 C   0  0  1  0  0  0  0  0  0  0  0  0
   22.8686  -25.3491  -18.3682 O   0  0  0  0  0  0  0  0  0  0  0  0
   21.2138  -24.1786  -19.2664 C   0  0  1  0  0  0  0  0  0  0  0  0
   22.3451  -24.2261  -20.2233 O   0  0  0  0  0  0  0  0  0  0  0  0
   19.7988  -24.6038  -20.0352 C   0  0  2  0  0  0  0  0  0  0  0  0
   17.5519  -20.2598  -18.4647 N   0  0  0  0  0  0  0  0  0  0  0  0
   18.5708  -29.3276  -16.2693 O   0  5  0  0  0  0  0  0  0  0  0  0
   14.6587  -29.5428  -19.5866 O   0  5  0  0  0  0  0  0  0  0  0  0
   15.1832  -25.6579  -20.7010 O   0  0  0  0  0  0  0  0  0  0  0  0
   18.7262  -20.4049  -19.0585 C   0  0  0  0  0  0  0  0  0  0  0  0
   19.5346  -19.2339  -19.3317 N   0  0  0  0  0  0  0  0  0  0  0  0
   17.1252  -27.3068  -16.4140 O   0  0  0  0  0  0  0  0  0  0  0  0
   16.6461  -28.3372  -20.4000 O   0  0  0  0  0  0  0  0  0  0  0  0
   13.0508  -26.7325  -20.0948 O   0  5  0  0  0  0  0  0  0  0  0  0
   19.1892  -21.5864  -19.4127 N   0  0  0  0  0  0  0  0  0  0  0  0
   16.7045  -29.2810  -18.0272 O   0  0  0  0  0  0  0  0  0  0  0  0
   15.1497  -27.1885  -18.6487 O   0  0  0  0  0  0  0  0  0  0  0  0
   13.9562  -24.8758  -18.7150 O   0  0  0  0  0  0  0  0  0  0  0  0
   18.4739  -22.6932  -19.1782 C   0  0  0  0  0  0  0  0  0  0  0  0
   17.2461  -22.5699  -18.5599 C   0  0  0  0  0  0  0  0  0  0  0  0
   16.7710  -21.2967  -18.1909 C   0  0  0  0  0  0  0  0  0  0  0  0
   15.5242  -21.1394  -17.5602 O   0  0  0  0  0  0  0  0  0  0  0  0
   16.7286  -23.8041  -18.4367 N   0  0  0  0  0  0  0  0  0  0  0  0
   17.5982  -24.6536  -18.9554 C   0  0  0  0  0  0  0  0  0  0  0  0
   18.6558  -24.0038  -19.4043 N   0  0  0  0  0  0  0  0  0  0  0  0
  1  5  1  6  0  0  0
  1 14  1  0  0  0  0
  1 19  2  0  0  0  0
  1 23  1  0  0  0  0
  2 15  1  6  0  0  0
  2 20  2  0  0  0  0
  2 23  1  0  0  0  0
  2 24  1  0  0  0  0
  3 16  1  6  0  0  0
  3 21  1  0  0  0  0
  3 24  1  0  0  0  0
  3 25  2  0  0  0  0
  4  5  1  0  0  0  0
  6  4  1  1  0  0  0
  6  7  1  0  0  0  0
  6  8  1  0  0  0  0
  7 12  1  0  0  0  0
  8  9  1  6  0  0  0
  8 10  1  0  0  0  0
 10 11  1  6  0  0  0
 10 12  1  0  0  0  0
 12 32  1  1  0  0  0
 13 17  2  0  0  0  0
 13 28  1  0  0  0  0
 17 18  1  0  0  0  0
 17 22  1  0  0  0  0
 22 26  2  0  0  0  0
 26 27  1  0  0  0  0
 26 32  1  0  0  0  0
 27 28  2  0  0  0  0
 27 30  1  0  0  0  0
 28 29  1  0  0  0  0
 30 31  2  0  0  0  0
 31 32  1  0  0  0  0
M  CHG  3  14  -1  15  -1  21  -1
M  END
>  <CHROM.1>
-71.10337151,-167.89536802,-57.73136296,51.76532561,178.83716453,174.36724431
-56.18639438,-66.63115563,17.61174747,-25.48981678,-18.80651810,-2.10341233
-0.08387322,-0.09445708

>  <Name>
ligand

>  <RI>
0

>  <Rbt.Current_Directory>
/home/itssahil/PROJECTS/Mol_Feturizer/New_Systems/rnas/4Y1I

>  <Rbt.Executable>
rbdock ($Id: //depot/dev/client3/rdock/2013.1/src/exe/rbdock.cxx#4 $)

>  <Rbt.Library>
libRbt.so (2013.1, Build901 2013/11/27)

>  <Rbt.Parameter_File>
/export/apps/rDock/src/rDock_2013.1_src/data/scripts/dock_solv.prm

>  <Rbt.Receptor>
prm/pocket_docking_3.prm

>  <SCORE>
-6.40115

>  <SCORE.INTER>
1.47459

>  <SCORE.INTER.CONST>
1

>  <SCORE.INTER.POLAR>
0

>  <SCORE.INTER.ROT>
8

>  <SCORE.INTER.SOLV>
13.5898

>  <SCORE.INTER.VDW>
-12.4802

>  <SCORE.INTER.norm>
0.046081

>  <SCORE.INTRA>
-7.87574

>  <SCORE.INTRA.DIHEDRAL>
-8.9834

>  <SCORE.INTRA.DIHEDRAL.0>
10.9594

>  <SCORE.INTRA.POLAR>
0

>  <SCORE.INTRA.POLAR.0>
0

>  <SCORE.INTRA.REPUL>
0

>  <SCORE.INTRA.REPUL.0>
0

>  <SCORE.INTRA.SOLV>
-3.69199

>  <SCORE.INTRA.SOLV.lig_0>
-124.914

>  <SCORE.INTRA.VDW>
-1.53804

>  <SCORE.INTRA.VDW.0>
-4.69801

>  <SCORE.INTRA.norm>
-0.246117

>  <SCORE.RESTR>
0

>  <SCORE.RESTR.CAVITY>
0

>  <SCORE.RESTR.norm>
0

>  <SCORE.SYSTEM>
0

>  <SCORE.SYSTEM.CONST>
0

>  <SCORE.SYSTEM.DIHEDRAL>
0

>  <SCORE.SYSTEM.SOLV>
0

>  <SCORE.SYSTEM.norm>
0

>  <SCORE.heavy>
32

>  <SCORE.norm>
-0.200036

>  <RMSD>
2.392

$$$$
ligand
 OpenBabel11021811513D
libRbt.so/2013.1/901 2013/11/27
 32 34  0  0  0  0  0  0  0  0999 V2000
   18.1757  -28.7840  -16.7814 P   0  0  1  0  0  0  0  0  0  0  0  0
   16.1208  -26.7911  -16.5894 P   0  0  2  0  0  0  0  0  0  0  0  0
   13.9867  -27.8723  -14.8888 P   0  0  1  0  0  0  0  0  0  0  0  0
   19.2473  -27.1593  -18.5144 C   0  0  0  0  0  0  0  0  0  0  0  0
   19.4828  -28.1545  -17.5593 O   0  0  0  0  0  0  0  0  0  0  0  0
   20.4564  -26.7457  -19.0623 C   0  0  1  0  0  0  0  0  0  0  0  0
   20.2026  -25.7801  -20.2039 O   0  0  0  0  0  0  0  0  0  0  0  0
   21.3335  -25.9415  -17.9965 C   0  0  1  0  0  0  0  0  0  0  0  0
   22.5946  -26.7189  -17.6941 O   0  0  0  0  0  0  0  0  0  0  0  0
   21.6731  -24.8951  -18.5543 C   0  0  1  0  0  0  0  0  0  0  0  0
   23.0357  -25.0572  -19.1155 O   0  0  0  0  0  0  0  0  0  0  0  0
   20.5776  -24.6382  -19.7822 C   0  0  2  0  0  0  0  0  0  0  0  0
   18.6115  -19.9879  -18.8364 N   0  0  0  0  0  0  0  0  0  0  0  0
   17.2138  -29.3669  -17.7869 O   0  5  0  0  0  0  0  0  0  0  0  0
   16.3093  -26.5612  -18.0679 O   0  5  0  0  0  0  0  0  0  0  0  0
   13.5826  -26.5002  -14.4026 O   0  0  0  0  0  0  0  0  0  0  0  0
   19.8173  -20.2889  -19.2926 C   0  0  0  0  0  0  0  0  0  0  0  0
   20.7540  -19.2224  -19.5842 N   0  0  0  0  0  0  0  0  0  0  0  0
   18.6510  -29.8419  -15.8112 O   0  0  0  0  0  0  0  0  0  0  0  0
   15.9812  -25.4662  -15.8866 O   0  0  0  0  0  0  0  0  0  0  0  0
   12.7449  -28.7149  -15.0827 O   0  5  0  0  0  0  0  0  0  0  0  0
   20.1984  -21.5340  -19.4926 N   0  0  0  0  0  0  0  0  0  0  0  0
   17.4211  -27.5746  -15.9649 O   0  0  0  0  0  0  0  0  0  0  0  0
   14.7691  -27.6928  -16.3328 O   0  0  0  0  0  0  0  0  0  0  0  0
   14.8999  -28.5093  -13.8643 O   0  0  0  0  0  0  0  0  0  0  0  0
   19.3637  -22.5483  -19.2357 C   0  0  0  0  0  0  0  0  0  0  0  0
   18.1005  -22.2622  -18.7586 C   0  0  0  0  0  0  0  0  0  0  0  0
   17.7146  -20.9236  -18.5532 C   0  0  0  0  0  0  0  0  0  0  0  0
   16.4347  -20.6009  -18.0688 O   0  0  0  0  0  0  0  0  0  0  0  0
   17.4603  -23.4304  -18.5806 N   0  0  0  0  0  0  0  0  0  0  0  0
   18.2909  -24.3966  -18.9316 C   0  0  0  0  0  0  0  0  0  0  0  0
   19.4421  -23.8853  -19.3260 N   0  0  0  0  0  0  0  0  0  0  0  0
  1  5  1  6  0  0  0
  1 14  1  0  0  0  0
  1 19  2  0  0  0  0
  1 23  1  0  0  0  0
  2 15  1  6  0  0  0
  2 20  2  0  0  0  0
  2 23  1  0  0  0  0
  2 24  1  0  0  0  0
  3 16  1  1  0  0  0
  3 21  1  0  0  0  0
  3 24  1  0  0  0  0
  3 25  2  0  0  0  0
  4  5  1  0  0  0  0
  6  4  1  1  0  0  0
  6  7  1  0  0  0  0
  6  8  1  0  0  0  0
  7 12  1  0  0  0  0
  8  9  1  6  0  0  0
  8 10  1  0  0  0  0
 10 11  1  6  0  0  0
 10 12  1  0  0  0  0
 12 32  1  1  0  0  0
 13 17  2  0  0  0  0
 13 28  1  0  0  0  0
 17 18  1  0  0  0  0
 17 22  1  0  0  0  0
 22 26  2  0  0  0  0
 26 27  1  0  0  0  0
 26 32  1  0  0  0  0
 27 28  2  0  0  0  0
 27 30  1  0  0  0  0
 28 29  1  0  0  0  0
 30 31  2  0  0  0  0
 31 32  1  0  0  0  0
M  CHG  3  14  -1  15  -1  21  -1
M  END
>  <CHROM.1>
57.90313260,-39.57298186,57.99082261,173.77744680,179.84656582,-156.54270304
97.07798909,-164.22372233,17.97740428,-25.64912917,-17.52039956,-2.24732273
0.40582064,-0.25443021

>  <Name>
ligand

>  <RI>
0

>  <Rbt.Current_Directory>
/home/itssahil/PROJECTS/Mol_Feturizer/New_Systems/rnas/4Y1I

>  <Rbt.Executable>
rbdock ($Id: //depot/dev/client3/rdock/2013.1/src/exe/rbdock.cxx#4 $)

>  <Rbt.Library>
libRbt.so (2013.1, Build901 2013/11/27)

>  <Rbt.Parameter_File>
/export/apps/rDock/src/rDock_2013.1_src/data/scripts/dock_solv.prm

>  <Rbt.Receptor>
prm/pocket_docking_3.prm

>  <SCORE>
-6.2335

>  <SCORE.INTER>
-1.14102

>  <SCORE.INTER.CONST>
1

>  <SCORE.INTER.POLAR>
0

>  <SCORE.INTER.ROT>
8

>  <SCORE.INTER.SOLV>
10.8784

>  <SCORE.INTER.VDW>
-13.3201

>  <SCORE.INTER.norm>
-0.035657

>  <SCORE.INTRA>
-5.10974

>  <SCORE.INTRA.DIHEDRAL>
-6.94384

>  <SCORE.INTRA.DIHEDRAL.0>
10.9594

>  <SCORE.INTRA.POLAR>
0

>  <SCORE.INTRA.POLAR.0>
0

>  <SCORE.INTRA.REPUL>
0

>  <SCORE.INTRA.REPUL.0>
0

>  <SCORE.INTRA.SOLV>
-3.16302

>  <SCORE.INTRA.SOLV.lig_0>
-124.914

>  <SCORE.INTRA.VDW>
-0.0563084

>  <SCORE.INTRA.VDW.0>
-4.69801

>  <SCORE.INTRA.norm>
-0.159679

>  <SCORE.RESTR>
0.0172616

>  <SCORE.RESTR.CAVITY>
0.0172616

>  <SCORE.RESTR.norm>
0.000539425

>  <SCORE.SYSTEM>
0

>  <SCORE.SYSTEM.CONST>
0

>  <SCORE.SYSTEM.DIHEDRAL>
0

>  <SCORE.SYSTEM.SOLV>
0

>  <SCORE.SYSTEM.norm>
0

>  <SCORE.heavy>
32

>  <SCORE.norm>
-0.194797

>  <RMSD>
2.402

$$$$
ligand
 OpenBabel11021811513D
libRbt.so/2013.1/901 2013/11/27
 32 34  0  0  0  0  0  0  0  0999 V2000
   17.6050  -28.2366  -17.1873 P   0  0  1  0  0  0  0  0  0  0  0  0
   16.0458  -28.7602  -19.5380 P   0  0  2  0  0  0  0  0  0  0  0  0
   14.0263  -26.7526  -18.8266 P   0  0  1  0  0  0  0  0  0  0  0  0
   19.6867  -26.7638  -17.7246 C   0  0  0  0  0  0  0  0  0  0  0  0
   18.8287  -27.7690  -18.1843 O   0  0  0  0  0  0  0  0  0  0  0  0
   20.6635  -26.5129  -18.6818 C   0  0  1  0  0  0  0  0  0  0  0  0
   20.0237  -25.9539  -19.9381 O   0  0  0  0  0  0  0  0  0  0  0  0
   21.6942  -25.3988  -18.1833 C   0  0  1  0  0  0  0  0  0  0  0  0
   23.0659  -26.0159  -18.0292 O   0  0  0  0  0  0  0  0  0  0  0  0
   21.7659  -24.5690  -19.0930 C   0  0  1  0  0  0  0  0  0  0  0  0
   22.9478  -24.8660  -19.9372 O   0  0  0  0  0  0  0  0  0  0  0  0
   20.3709  -24.7294  -19.9886 C   0  0  2  0  0  0  0  0  0  0  0  0
   18.8211  -19.9580  -18.8854 N   0  0  0  0  0  0  0  0  0  0  0  0
   18.1610  -29.0376  -16.0360 O   0  5  0  0  0  0  0  0  0  0  0  0
   14.9651  -29.7048  -20.0008 O   0  5  0  0  0  0  0  0  0  0  0  0
   14.0491  -27.1218  -17.3618 O   0  0  0  0  0  0  0  0  0  0  0  0
   19.9811  -20.3444  -19.3931 C   0  0  0  0  0  0  0  0  0  0  0  0
   20.9890  -19.3501  -19.7015 N   0  0  0  0  0  0  0  0  0  0  0  0
   16.8853  -27.0032  -16.6904 O   0  0  0  0  0  0  0  0  0  0  0  0
   17.2142  -28.8270  -20.4862 O   0  0  0  0  0  0  0  0  0  0  0  0
   13.8696  -25.2532  -18.9573 O   0  5  0  0  0  0  0  0  0  0  0  0
   20.2533  -21.6115  -19.6296 N   0  0  0  0  0  0  0  0  0  0  0  0
   16.5687  -29.1835  -18.0406 O   0  0  0  0  0  0  0  0  0  0  0  0
   15.4622  -27.2229  -19.4946 O   0  0  0  0  0  0  0  0  0  0  0  0
   12.8699  -27.4626  -19.4961 O   0  0  0  0  0  0  0  0  0  0  0  0
   19.3498  -22.5612  -19.3588 C   0  0  0  0  0  0  0  0  0  0  0  0
   18.1323  -22.1854  -18.8284 C   0  0  0  0  0  0  0  0  0  0  0  0
   17.8630  -20.8249  -18.5845 C   0  0  0  0  0  0  0  0  0  0  0  0
   16.6320  -20.4115  -18.0455 O   0  0  0  0  0  0  0  0  0  0  0  0
   17.4072  -23.3024  -18.6466 N   0  0  0  0  0  0  0  0  0  0  0  0
   18.1440  -24.3242  -19.0464 C   0  0  0  0  0  0  0  0  0  0  0  0
   19.3172  -23.8981  -19.4758 N   0  0  0  0  0  0  0  0  0  0  0  0
  1  5  1  6  0  0  0
  1 14  1  0  0  0  0
  1 19  2  0  0  0  0
  1 23  1  0  0  0  0
  2 15  1  6  0  0  0
  2 20  2  0  0  0  0
  2 23  1  0  0  0  0
  2 24  1  0  0  0  0
  3 16  1  1  0  0  0
  3 21  1  0  0  0  0
  3 24  1  0  0  0  0
  3 25  2  0  0  0  0
  4  5  1  0  0  0  0
  6  4  1  1  0  0  0
  6  7  1  0  0  0  0
  6  8  1  0  0  0  0
  7 12  1  0  0  0  0
  8  9  1  6  0  0  0
  8 10  1  0  0  0  0
 10 11  1  6  0  0  0
 10 12  1  0  0  0  0
 12 32  1  1  0  0  0
 13 17  2  0  0  0  0
 13 28  1  0  0  0  0
 17 18  1  0  0  0  0
 17 22  1  0  0  0  0
 22 26  2  0  0  0  0
 26 27  1  0  0  0  0
 26 32  1  0  0  0  0
 27 28  2  0  0  0  0
 27 30  1  0  0  0  0
 28 29  1  0  0  0  0
 30 31  2  0  0  0  0
 31 32  1  0  0  0  0
M  CHG  3  14  -1  15  -1  21  -1
M  END
>  <CHROM.1>
-72.46122212,-172.09687801,59.69300153,64.62182627,179.14896918,178.77581940
-46.37466584,47.14121301,17.92189890,-25.60632334,-18.75252849,-2.24021880
-0.01297640,-0.09193626

>  <Name>
ligand

>  <RI>
0

>  <Rbt.Current_Directory>
/home/itssahil/PROJECTS/Mol_Feturizer/New_Systems/rnas/4Y1I

>  <Rbt.Executable>
rbdock ($Id: //depot/dev/client3/rdock/2013.1/src/exe/rbdock.cxx#4 $)

>  <Rbt.Library>
libRbt.so (2013.1, Build901 2013/11/27)

>  <Rbt.Parameter_File>
/export/apps/rDock/src/rDock_2013.1_src/data/scripts/dock_solv.prm

>  <Rbt.Receptor>
prm/pocket_docking_3.prm

>  <SCORE>
-6.71763

>  <SCORE.INTER>
0.380024

>  <SCORE.INTER.CONST>
1

>  <SCORE.INTER.POLAR>
0

>  <SCORE.INTER.ROT>
8

>  <SCORE.INTER.SOLV>
9.68951

>  <SCORE.INTER.VDW>
-11.9098

>  <SCORE.INTER.norm>
0.0118758

>  <SCORE.INTRA>
-7.10434

>  <SCORE.INTRA.DIHEDRAL>
-8.77377

>  <SCORE.INTRA.DIHEDRAL.0>
10.9594

>  <SCORE.INTRA.POLAR>
0

>  <SCORE.INTRA.POLAR.0>
0

>  <SCORE.INTRA.REPUL>
0

>  <SCORE.INTRA.REPUL.0>
0

>  <SCORE.INTRA.SOLV>
-3.70016

>  <SCORE.INTRA.SOLV.lig_0>
-124.914

>  <SCORE.INTRA.VDW>
-0.867376

>  <SCORE.INTRA.VDW.0>
-4.69801

>  <SCORE.INTRA.norm>
-0.222011

>  <SCORE.RESTR>
0.00669403

>  <SCORE.RESTR.CAVITY>
0.00669403

>  <SCORE.RESTR.norm>
0.000209188

>  <SCORE.SYSTEM>
0

>  <SCORE.SYSTEM.CONST>
0

>  <SCORE.SYSTEM.DIHEDRAL>
0

>  <SCORE.SYSTEM.SOLV>
0

>  <SCORE.SYSTEM.norm>
0

>  <SCORE.heavy>
32

>  <SCORE.norm>
-0.209926

>  <RMSD>
2.406

$$$$
ligand
 OpenBabel11021811513D
libRbt.so/2013.1/901 2013/11/27
 32 34  0  0  0  0  0  0  0  0999 V2000
   16.8260  -28.2351  -18.6976 P   0  0  1  0  0  0  0  0  0  0  0  0
   15.7129  -29.6817  -16.4841 P   0  0  2  0  0  0  0  0  0  0  0  0
   13.3018  -31.2490  -17.0717 P   0  0  1  0  0  0  0  0  0  0  0  0
   19.1382  -27.0889  -18.3353 C   0  0  0  0  0  0  0  0  0  0  0  0
   18.3178  -27.7855  -19.2294 O   0  0  0  0  0  0  0  0  0  0  0  0
   20.3357  -26.7617  -18.9618 C   0  0  1  0  0  0  0  0  0  0  0  0
   20.0663  -25.8626  -20.1530 O   0  0  0  0  0  0  0  0  0  0  0  0
   21.2911  -25.9269  -17.9911 C   0  0  1  0  0  0  0  0  0  0  0  0
   22.5342  -26.7343  -17.6929 O   0  0  0  0  0  0  0  0  0  0  0  0
   21.6442  -24.9337  -18.6316 C   0  0  1  0  0  0  0  0  0  0  0  0
   22.9722  -25.1877  -19.2397 O   0  0  0  0  0  0  0  0  0  0  0  0
   20.5038  -24.7121  -19.8250 C   0  0  2  0  0  0  0  0  0  0  0  0
   18.8122  -19.9355  -18.9833 N   0  0  0  0  0  0  0  0  0  0  0  0
   16.0070  -27.0097  -18.3756 O   0  5  0  0  0  0  0  0  0  0  0  0
   14.9436  -28.5288  -15.8896 O   0  5  0  0  0  0  0  0  0  0  0  0
   12.7686  -31.9759  -18.2840 O   0  0  0  0  0  0  0  0  0  0  0  0
   19.9906  -20.3153  -19.4523 C   0  0  0  0  0  0  0  0  0  0  0  0
   20.9778  -19.3107  -19.7928 N   0  0  0  0  0  0  0  0  0  0  0  0
   16.1581  -29.0657  -19.7701 O   0  0  0  0  0  0  0  0  0  0  0  0
   16.2144  -30.5759  -15.3807 O   0  0  0  0  0  0  0  0  0  0  0  0
   13.5275  -32.2457  -15.9559 O   0  5  0  0  0  0  0  0  0  0  0  0
   20.2995  -21.5847  -19.6218 N   0  0  0  0  0  0  0  0  0  0  0  0
   17.0059  -29.1272  -17.3300 O   0  0  0  0  0  0  0  0  0  0  0  0
   14.7371  -30.5449  -17.4884 O   0  0  0  0  0  0  0  0  0  0  0  0
   12.2984  -30.1999  -16.6451 O   0  0  0  0  0  0  0  0  0  0  0  0
   19.4162  -22.5438  -19.3193 C   0  0  0  0  0  0  0  0  0  0  0  0
   18.1802  -22.1752  -18.8280 C   0  0  0  0  0  0  0  0  0  0  0  0
   17.8717  -20.8120  -18.6558 C   0  0  0  0  0  0  0  0  0  0  0  0
   16.6211  -20.4058  -18.1580 O   0  0  0  0  0  0  0  0  0  0  0  0
   17.4812  -23.3008  -18.6034 N   0  0  0  0  0  0  0  0  0  0  0  0
   18.2510  -24.3209  -18.9403 C   0  0  0  0  0  0  0  0  0  0  0  0
   19.4201  -23.8852  -19.3709 N   0  0  0  0  0  0  0  0  0  0  0  0
  1  5  1  6  0  0  0
  1 14  1  0  0  0  0
  1 19  2  0  0  0  0
  1 23  1  0  0  0  0
  2 15  1  1  0  0  0
  2 20  2  0  0  0  0
  2 23  1  0  0  0  0
  2 24  1  0  0  0  0
  3 16  1  6  0  0  0
  3 21  1  0  0  0  0
  3 24  1  0  0  0  0
  3 25  2  0  0  0  0
  4  5  1  0  0  0  0
  6  4  1  1  0  0  0
  6  7  1  0  0  0  0
  6  8  1  0  0  0  0
  7 12  1  0  0  0  0
  8  9  1  6  0  0  0
  8 10  1  0  0  0  0
 10 11  1  6  0  0  0
 10 12  1  0  0  0  0
 12 32  1  1  0  0  0
 13 17  2  0  0  0  0
 13 28  1  0  0  0  0
 17 18  1  0  0  0  0
 17 22  1  0  0  0  0
 22 26  2  0  0  0  0
 26 27  1  0  0  0  0
 26 32  1  0  0  0  0
 27 28  2  0  0  0  0
 27 30  1  0  0  0  0
 28 29  1  0  0  0  0
 30 31  2  0  0  0  0
 31 32  1  0  0  0  0
M  CHG  3  14  -1  15  -1  21  -1
M  END
>  <CHROM.1>
63.03079453,-65.93842282,-178.09043617,61.36991539,-178.41846529,-159.23427665
176.93278590,-57.02532222,17.55910281,-26.57161543,-18.21074449,-2.16233020
0.16967877,-0.13771124

>  <Name>
ligand

>  <RI>
0

>  <Rbt.Current_Directory>
/home/itssahil/PROJECTS/Mol_Feturizer/New_Systems/rnas/4Y1I

>  <Rbt.Executable>
rbdock ($Id: //depot/dev/client3/rdock/2013.1/src/exe/rbdock.cxx#4 $)

>  <Rbt.Library>
libRbt.so (2013.1, Build901 2013/11/27)

>  <Rbt.Parameter_File>
/export/apps/rDock/src/rDock_2013.1_src/data/scripts/dock_solv.prm

>  <Rbt.Receptor>
prm/pocket_docking_3.prm

>  <SCORE>
-4.9064

>  <SCORE.INTER>
1.00863

>  <SCORE.INTER.CONST>
1

>  <SCORE.INTER.POLAR>
0

>  <SCORE.INTER.ROT>
8

>  <SCORE.INTER.SOLV>
8.07414

>  <SCORE.INTER.VDW>
-10.9523

>  <SCORE.INTER.norm>
0.0315198

>  <SCORE.INTRA>
-5.91503

>  <SCORE.INTRA.DIHEDRAL>
-9.58744

>  <SCORE.INTRA.DIHEDRAL.0>
10.9594

>  <SCORE.INTRA.POLAR>
0

>  <SCORE.INTRA.POLAR.0>
0

>  <SCORE.INTRA.REPUL>
0

>  <SCORE.INTRA.REPUL.0>
0

>  <SCORE.INTRA.SOLV>
-2.91442

>  <SCORE.INTRA.SOLV.lig_0>
-124.914

>  <SCORE.INTRA.VDW>
0.335902

>  <SCORE.INTRA.VDW.0>
-4.69801

>  <SCORE.INTRA.norm>
-0.184845

>  <SCORE.RESTR>
0

>  <SCORE.RESTR.CAVITY>
0

>  <SCORE.RESTR.norm>
0

>  <SCORE.SYSTEM>
0

>  <SCORE.SYSTEM.CONST>
0

>  <SCORE.SYSTEM.DIHEDRAL>
0

>  <SCORE.SYSTEM.SOLV>
0

>  <SCORE.SYSTEM.norm>
0

>  <SCORE.heavy>
32

>  <SCORE.norm>
-0.153325

>  <RMSD>
2.465

$$$$
ligand
 OpenBabel11021811513D
libRbt.so/2013.1/901 2013/11/27
 32 34  0  0  0  0  0  0  0  0999 V2000
   18.2101  -29.4225  -16.4499 P   0  0  1  0  0  0  0  0  0  0  0  0
   15.9206  -29.0776  -14.7557 P   0  0  2  0  0  0  0  0  0  0  0  0
   14.0307  -26.9604  -15.5046 P   0  0  1  0  0  0  0  0  0  0  0  0
   18.6675  -27.4832  -18.1296 C   0  0  0  0  0  0  0  0  0  0  0  0
   19.2357  -28.4709  -17.3176 O   0  0  0  0  0  0  0  0  0  0  0  0
   19.6725  -26.8124  -18.8176 C   0  0  1  0  0  0  0  0  0  0  0  0
   19.0613  -25.7971  -19.7640 O   0  0  0  0  0  0  0  0  0  0  0  0
   20.6018  -25.9776  -17.8218 C   0  0  1  0  0  0  0  0  0  0  0  0
   22.0015  -26.5490  -17.8425 O   0  0  0  0  0  0  0  0  0  0  0  0
   20.6646  -24.8377  -18.2888 C   0  0  1  0  0  0  0  0  0  0  0  0
   21.9043  -24.7026  -19.0906 O   0  0  0  0  0  0  0  0  0  0  0  0
   19.3297  -24.6550  -19.2679 C   0  0  2  0  0  0  0  0  0  0  0  0
   15.7699  -20.9785  -18.8250 N   0  0  0  0  0  0  0  0  0  0  0  0
   17.5135  -30.3949  -17.3693 O   0  5  0  0  0  0  0  0  0  0  0  0
   16.5373  -29.6003  -13.4826 O   0  5  0  0  0  0  0  0  0  0  0  0
   15.0631  -26.2135  -16.3161 O   0  0  0  0  0  0  0  0  0  0  0  0
   16.7329  -21.0802  -19.7278 C   0  0  0  0  0  0  0  0  0  0  0  0
   16.8590  -20.0619  -20.7509 N   0  0  0  0  0  0  0  0  0  0  0  0
   19.0044  -30.1534  -15.3912 O   0  0  0  0  0  0  0  0  0  0  0  0
   15.2298  -30.2028  -15.4806 O   0  0  0  0  0  0  0  0  0  0  0  0
   13.2146  -27.8382  -16.4282 O   0  5  0  0  0  0  0  0  0  0  0  0
   17.5873  -22.0829  -19.7286 N   0  0  0  0  0  0  0  0  0  0  0  0
   17.0817  -28.4627  -15.7398 O   0  0  0  0  0  0  0  0  0  0  0  0
   14.8277  -27.8996  -14.4037 O   0  0  0  0  0  0  0  0  0  0  0  0
   13.1371  -25.9607  -14.8035 O   0  0  0  0  0  0  0  0  0  0  0  0
   17.5057  -23.0443  -18.8008 C   0  0  0  0  0  0  0  0  0  0  0  0
   16.5110  -22.9621  -17.8474 C   0  0  0  0  0  0  0  0  0  0  0  0
   15.6083  -21.8815  -17.8666 C   0  0  0  0  0  0  0  0  0  0  0  0
   14.5845  -21.7709  -16.9092 O   0  0  0  0  0  0  0  0  0  0  0  0
   16.6349  -24.0288  -17.0394 N   0  0  0  0  0  0  0  0  0  0  0  0
   17.6614  -24.7394  -17.4734 C   0  0  0  0  0  0  0  0  0  0  0  0
   18.1995  -24.1612  -18.5309 N   0  0  0  0  0  0  0  0  0  0  0  0
  1  5  1  6  0  0  0
  1 14  1  0  0  0  0
  1 19  2  0  0  0  0
  1 23  1  0  0  0  0
  2 15  1  1  0  0  0
  2 20  2  0  0  0  0
  2 23  1  0  0  0  0
  2 24  1  0  0  0  0
  3 16  1  6  0  0  0
  3 21  1  0  0  0  0
  3 24  1  0  0  0  0
  3 25  2  0  0  0  0
  4  5  1  0  0  0  0
  6  4  1  1  0  0  0
  6  7  1  0  0  0  0
  6  8  1  0  0  0  0
  7 12  1  0  0  0  0
  8  9  1  6  0  0  0
  8 10  1  0  0  0  0
 10 11  1  6  0  0  0
 10 12  1  0  0  0  0
 12 32  1  1  0  0  0
 13 17  2  0  0  0  0
 13 28  1  0  0  0  0
 17 18  1  0  0  0  0
 17 22  1  0  0  0  0
 22 26  2  0  0  0  0
 26 27  1  0  0  0  0
 26 32  1  0  0  0  0
 27 28  2  0  0  0  0
 27 30  1  0  0  0  0
 28 29  1  0  0  0  0
 30 31  2  0  0  0  0
 31 32  1  0  0  0  0
M  CHG  3  14  -1  15  -1  21  -1
M  END
>  <CHROM.1>
73.11846227,67.83951430,-59.11413371,176.55443533,-177.97407637,-118.07072124
-178.07981551,173.76716664,17.17630552,-26.18000698,-17.11701778,-1.76832585
0.38826167,-0.43010407

>  <Name>
ligand

>  <RI>
0

>  <Rbt.Current_Directory>
/home/itssahil/PROJECTS/Mol_Feturizer/New_Systems/rnas/4Y1I

>  <Rbt.Executable>
rbdock ($Id: //depot/dev/client3/rdock/2013.1/src/exe/rbdock.cxx#4 $)

>  <Rbt.Library>
libRbt.so (2013.1, Build901 2013/11/27)

>  <Rbt.Parameter_File>
/export/apps/rDock/src/rDock_2013.1_src/data/scripts/dock_solv.prm

>  <Rbt.Receptor>
prm/pocket_docking_3.prm

>  <SCORE>
-5.2589

>  <SCORE.INTER>
1.6137

>  <SCORE.INTER.CONST>
1

>  <SCORE.INTER.POLAR>
0

>  <SCORE.INTER.ROT>
8

>  <SCORE.INTER.SOLV>
9.79179

>  <SCORE.INTER.VDW>
-11.1215

>  <SCORE.INTER.norm>
0.0504281

>  <SCORE.INTRA>
-6.8726

>  <SCORE.INTRA.DIHEDRAL>
-9.18567

>  <SCORE.INTRA.DIHEDRAL.0>
10.9594

>  <SCORE.INTRA.POLAR>
0

>  <SCORE.INTRA.POLAR.0>
0

>  <SCORE.INTRA.REPUL>
0

>  <SCORE.INTRA.REPUL.0>
0

>  <SCORE.INTRA.SOLV>
-4.43753

>  <SCORE.INTRA.SOLV.lig_0>
-124.914

>  <SCORE.INTRA.VDW>
-0.0609976

>  <SCORE.INTRA.VDW.0>
-4.69801

>  <SCORE.INTRA.norm>
-0.214769

>  <SCORE.RESTR>
0

>  <SCORE.RESTR.CAVITY>
0

>  <SCORE.RESTR.norm>
0

>  <SCORE.SYSTEM>
0

>  <SCORE.SYSTEM.CONST>
0

>  <SCORE.SYSTEM.DIHEDRAL>
0

>  <SCORE.SYSTEM.SOLV>
0

>  <SCORE.SYSTEM.norm>
0

>  <SCORE.heavy>
32

>  <SCORE.norm>
-0.16434

>  <RMSD>
2.493

$$$$
ligand
 OpenBabel11021811513D
libRbt.so/2013.1/901 2013/11/27
 32 34  0  0  0  0  0  0  0  0999 V2000
   16.9130  -29.4253  -18.4662 P   0  0  1  0  0  0  0  0  0  0  0  0
   14.6788  -27.6779  -18.0352 P   0  0  2  0  0  0  0  0  0  0  0  0
   12.4955  -27.8529  -19.9891 P   0  0  1  0  0  0  0  0  0  0  0  0
   18.7229  -27.5721  -18.1808 C   0  0  0  0  0  0  0  0  0  0  0  0
   17.9268  -28.2850  -19.0842 O   0  0  0  0  0  0  0  0  0  0  0  0
   19.4712  -26.6236  -18.8690 C   0  0  1  0  0  0  0  0  0  0  0  0
   18.5495  -25.6003  -19.5041 O   0  0  0  0  0  0  0  0  0  0  0  0
   20.4207  -25.8028  -17.8807 C   0  0  1  0  0  0  0  0  0  0  0  0
   21.8663  -26.0927  -18.2160 O   0  0  0  0  0  0  0  0  0  0  0  0
   20.2197  -24.6109  -18.1262 C   0  0  1  0  0  0  0  0  0  0  0  0
   21.2597  -24.1194  -19.0615 O   0  0  0  0  0  0  0  0  0  0  0  0
   18.7197  -24.5238  -18.8448 C   0  0  2  0  0  0  0  0  0  0  0  0
   14.3806  -22.1054  -17.5373 N   0  0  0  0  0  0  0  0  0  0  0  0
   16.1515  -30.0929  -19.5845 O   0  5  0  0  0  0  0  0  0  0  0  0
   15.3054  -26.4994  -18.7373 O   0  5  0  0  0  0  0  0  0  0  0  0
   11.8058  -28.9804  -20.7208 O   0  0  0  0  0  0  0  0  0  0  0  0
   15.1135  -21.9388  -18.6272 C   0  0  0  0  0  0  0  0  0  0  0  0
   14.7000  -20.9685  -19.6208 N   0  0  0  0  0  0  0  0  0  0  0  0
   17.7310  -30.4338  -17.6915 O   0  0  0  0  0  0  0  0  0  0  0  0
   13.8565  -27.1922  -16.8704 O   0  0  0  0  0  0  0  0  0  0  0  0
   11.4965  -27.1649  -19.0845 O   0  5  0  0  0  0  0  0  0  0  0  0
   16.2144  -22.6298  -18.8418 N   0  0  0  0  0  0  0  0  0  0  0  0
   15.8426  -28.6848  -17.4639 O   0  0  0  0  0  0  0  0  0  0  0  0
   13.7137  -28.5023  -19.0816 O   0  0  0  0  0  0  0  0  0  0  0  0
   13.0495  -26.8742  -21.0015 O   0  0  0  0  0  0  0  0  0  0  0  0
   16.6314  -23.5357  -17.9490 C   0  0  0  0  0  0  0  0  0  0  0  0
   15.8858  -23.7288  -16.8036 C   0  0  0  0  0  0  0  0  0  0  0  0
   14.7120  -22.9792  -16.5957 C   0  0  0  0  0  0  0  0  0  0  0  0
   13.9316  -23.1541  -15.4393 O   0  0  0  0  0  0  0  0  0  0  0  0
   16.5005  -24.6761  -16.0748 N   0  0  0  0  0  0  0  0  0  0  0  0
   17.5791  -25.0520  -16.7398 C   0  0  0  0  0  0  0  0  0  0  0  0
   17.6759  -24.3749  -17.8687 N   0  0  0  0  0  0  0  0  0  0  0  0
  1  5  1  6  0  0  0
  1 14  1  0  0  0  0
  1 19  2  0  0  0  0
  1 23  1  0  0  0  0
  2 15  1  6  0  0  0
  2 20  2  0  0  0  0
  2 23  1  0  0  0  0
  2 24  1  0  0  0  0
  3 16  1  6  0  0  0
  3 21  1  0  0  0  0
  3 24  1  0  0  0  0
  3 25  2  0  0  0  0
  4  5  1  0  0  0  0
  6  4  1  1  0  0  0
  6  7  1  0  0  0  0
  6  8  1  0  0  0  0
  7 12  1  0  0  0  0
  8  9  1  6  0  0  0
  8 10  1  0  0  0  0
 10 11  1  6  0  0  0
 10 12  1  0  0  0  0
 12 32  1  1  0  0  0
 13 17  2  0  0  0  0
 13 28  1  0  0  0  0
 17 18  1  0  0  0  0
 17 22  1  0  0  0  0
 22 26  2  0  0  0  0
 26 27  1  0  0  0  0
 26 32  1  0  0  0  0
 27 28  2  0  0  0  0
 27 30  1  0  0  0  0
 28 29  1  0  0  0  0
 30 31  2  0  0  0  0
 31 32  1  0  0  0  0
M  CHG  3  14  -1  15  -1  21  -1
M  END
>  <CHROM.1>
-179.46921074,-61.14691668,-175.63085757,64.16763974,-177.70031037,-104.63615568
69.20547320,-53.39218123,16.15109091,-26.23721091,-18.41801130,-2.57906443
-0.08380278,0.17835604

>  <Name>
ligand

>  <RI>
0

>  <Rbt.Current_Directory>
/home/itssahil/PROJECTS/Mol_Feturizer/New_Systems/rnas/4Y1I

>  <Rbt.Executable>
rbdock ($Id: //depot/dev/client3/rdock/2013.1/src/exe/rbdock.cxx#4 $)

>  <Rbt.Library>
libRbt.so (2013.1, Build901 2013/11/27)

>  <Rbt.Parameter_File>
/export/apps/rDock/src/rDock_2013.1_src/data/scripts/dock_solv.prm

>  <Rbt.Receptor>
prm/pocket_docking_4.prm

>  <SCORE>
-3.52889

>  <SCORE.INTER>
3.39475

>  <SCORE.INTER.CONST>
1

>  <SCORE.INTER.POLAR>
0

>  <SCORE.INTER.ROT>
8

>  <SCORE.INTER.SOLV>
7.03605

>  <SCORE.INTER.VDW>
-9.01552

>  <SCORE.INTER.norm>
0.106086

>  <SCORE.INTRA>
-6.92363

>  <SCORE.INTRA.DIHEDRAL>
-9.42262

>  <SCORE.INTRA.DIHEDRAL.0>
10.9594

>  <SCORE.INTRA.POLAR>
0

>  <SCORE.INTRA.POLAR.0>
0

>  <SCORE.INTRA.REPUL>
0

>  <SCORE.INTRA.REPUL.0>
0

>  <SCORE.INTRA.SOLV>
-1.14877

>  <SCORE.INTRA.SOLV.lig_0>
-124.914

>  <SCORE.INTRA.VDW>
-1.63793

>  <SCORE.INTRA.VDW.0>
-4.69801

>  <SCORE.INTRA.norm>
-0.216363

>  <SCORE.RESTR>
0

>  <SCORE.RESTR.CAVITY>
0

>  <SCORE.RESTR.norm>
0

>  <SCORE.SYSTEM>
0

>  <SCORE.SYSTEM.CONST>
0

>  <SCORE.SYSTEM.DIHEDRAL>
0

>  <SCORE.SYSTEM.SOLV>
0

>  <SCORE.SYSTEM.norm>
0

>  <SCORE.heavy>
32

>  <SCORE.norm>
-0.110278

>  <RMSD>
2.544

$$$$
ligand
 OpenBabel11021811513D
libRbt.so/2013.1/901 2013/11/27
 32 34  0  0  0  0  0  0  0  0999 V2000
   18.0193  -28.9695  -16.9997 P   0  0  1  0  0  0  0  0  0  0  0  0
   15.7259  -29.2559  -18.6995 P   0  0  2  0  0  0  0  0  0  0  0  0
   14.1082  -26.8074  -18.7548 P   0  0  1  0  0  0  0  0  0  0  0  0
   19.4510  -26.8936  -17.6572 C   0  0  0  0  0  0  0  0  0  0  0  0
   18.6154  -27.9175  -18.1169 O   0  0  0  0  0  0  0  0  0  0  0  0
   19.7956  -26.0635  -18.7181 C   0  0  1  0  0  0  0  0  0  0  0  0
   18.5453  -25.6131  -19.4486 O   0  0  0  0  0  0  0  0  0  0  0  0
   20.5069  -24.7283  -18.2049 C   0  0  1  0  0  0  0  0  0  0  0  0
   21.9367  -24.6997  -18.6959 O   0  0  0  0  0  0  0  0  0  0  0  0
   19.9136  -23.7946  -18.7502 C   0  0  1  0  0  0  0  0  0  0  0  0
   20.6605  -23.3777  -19.9610 O   0  0  0  0  0  0  0  0  0  0  0  0
   18.4125  -24.3755  -19.1782 C   0  0  2  0  0  0  0  0  0  0  0  0
   14.1656  -21.9727  -17.5732 N   0  0  0  0  0  0  0  0  0  0  0  0
   19.1264  -29.8617  -16.4953 O   0  5  0  0  0  0  0  0  0  0  0  0
   14.5351  -30.1771  -18.7878 O   0  5  0  0  0  0  0  0  0  0  0  0
   13.9954  -25.5805  -17.8805 O   0  0  0  0  0  0  0  0  0  0  0  0
   14.7933  -21.8386  -18.7311 C   0  0  0  0  0  0  0  0  0  0  0  0
   14.2732  -20.9150  -19.7192 N   0  0  0  0  0  0  0  0  0  0  0  0
   17.4040  -28.1784  -15.8675 O   0  0  0  0  0  0  0  0  0  0  0  0
   16.3221  -29.0694  -20.0700 O   0  0  0  0  0  0  0  0  0  0  0  0
   14.5271  -26.3871  -20.1467 O   0  5  0  0  0  0  0  0  0  0  0  0
   15.8828  -22.5209  -19.0188 N   0  0  0  0  0  0  0  0  0  0  0  0
   16.8732  -29.9013  -17.7187 O   0  0  0  0  0  0  0  0  0  0  0  0
   15.2591  -27.7963  -18.1015 O   0  0  0  0  0  0  0  0  0  0  0  0
   12.7674  -27.5071  -18.7977 O   0  0  0  0  0  0  0  0  0  0  0  0
   16.3960  -23.3841  -18.1338 C   0  0  0  0  0  0  0  0  0  0  0  0
   15.7612  -23.5426  -16.9185 C   0  0  0  0  0  0  0  0  0  0  0  0
   14.5973  -22.8032  -16.6331 C   0  0  0  0  0  0  0  0  0  0  0  0
   13.9285  -22.9436  -15.4043 O   0  0  0  0  0  0  0  0  0  0  0  0
   16.4571  -24.4507  -16.2132 N   0  0  0  0  0  0  0  0  0  0  0  0
   17.4777  -24.8365  -16.9591 C   0  0  0  0  0  0  0  0  0  0  0  0
   17.4590  -24.2036  -18.1173 N   0  0  0  0  0  0  0  0  0  0  0  0
  1  5  1  6  0  0  0
  1 14  1  0  0  0  0
  1 19  2  0  0  0  0
  1 23  1  0  0  0  0
  2 15  1  6  0  0  0
  2 20  2  0  0  0  0
  2 23  1  0  0  0  0
  2 24  1  0  0  0  0
  3 16  1  1  0  0  0
  3 21  1  0  0  0  0
  3 24  1  0  0  0  0
  3 25  2  0  0  0  0
  4  5  1  0  0  0  0
  6  4  1  1  0  0  0
  6  7  1  0  0  0  0
  6  8  1  0  0  0  0
  7 12  1  0  0  0  0
  8  9  1  6  0  0  0
  8 10  1  0  0  0  0
 10 11  1  6  0  0  0
 10 12  1  0  0  0  0
 12 32  1  1  0  0  0
 13 17  2  0  0  0  0
 13 28  1  0  0  0  0
 17 18  1  0  0  0  0
 17 22  1  0  0  0  0
 22 26  2  0  0  0  0
 26 27  1  0  0  0  0
 26 32  1  0  0  0  0
 27 28  2  0  0  0  0
 27 30  1  0  0  0  0
 28 29  1  0  0  0  0
 30 31  2  0  0  0  0
 31 32  1  0  0  0  0
M  CHG  3  14  -1  15  -1  21  -1
M  END
>  <CHROM.1>
-71.02256093,-158.18822374,179.61959594,51.88348000,-176.65374769,-128.39811071
-44.91502908,-57.83907272,16.71302873,-26.03589798,-18.15536250,-1.38674622
0.01737153,-0.03043668

>  <Name>
ligand

>  <RI>
0

>  <Rbt.Current_Directory>
/home/itssahil/PROJECTS/Mol_Feturizer/New_Systems/rnas/4Y1I

>  <Rbt.Executable>
rbdock ($Id: //depot/dev/client3/rdock/2013.1/src/exe/rbdock.cxx#4 $)

>  <Rbt.Library>
libRbt.so (2013.1, Build901 2013/11/27)

>  <Rbt.Parameter_File>
/export/apps/rDock/src/rDock_2013.1_src/data/scripts/dock_solv.prm

>  <Rbt.Receptor>
prm/pocket_docking_3.prm

>  <SCORE>
-5.32348

>  <SCORE.INTER>
2.63835

>  <SCORE.INTER.CONST>
1

>  <SCORE.INTER.POLAR>
0

>  <SCORE.INTER.ROT>
8

>  <SCORE.INTER.SOLV>
7.28263

>  <SCORE.INTER.VDW>
-9.60198

>  <SCORE.INTER.norm>
0.0824485

>  <SCORE.INTRA>
-7.96183

>  <SCORE.INTRA.DIHEDRAL>
-8.21366

>  <SCORE.INTRA.DIHEDRAL.0>
10.9594

>  <SCORE.INTRA.POLAR>
0

>  <SCORE.INTRA.POLAR.0>
0

>  <SCORE.INTRA.REPUL>
0

>  <SCORE.INTRA.REPUL.0>
0

>  <SCORE.INTRA.SOLV>
-3.80587

>  <SCORE.INTRA.SOLV.lig_0>
-124.914

>  <SCORE.INTRA.VDW>
-1.95207

>  <SCORE.INTRA.VDW.0>
-4.69801

>  <SCORE.INTRA.norm>
-0.248807

>  <SCORE.RESTR>
0

>  <SCORE.RESTR.CAVITY>
0

>  <SCORE.RESTR.norm>
0

>  <SCORE.SYSTEM>
0

>  <SCORE.SYSTEM.CONST>
0

>  <SCORE.SYSTEM.DIHEDRAL>
0

>  <SCORE.SYSTEM.SOLV>
0

>  <SCORE.SYSTEM.norm>
0

>  <SCORE.heavy>
32

>  <SCORE.norm>
-0.166359

>  <RMSD>
2.569

$$$$
ligand
 OpenBabel11021811513D
libRbt.so/2013.1/901 2013/11/27
 32 34  0  0  0  0  0  0  0  0999 V2000
   18.1095  -28.6910  -17.0894 P   0  0  1  0  0  0  0  0  0  0  0  0
   16.1523  -27.7295  -15.2251 P   0  0  2  0  0  0  0  0  0  0  0  0
   13.3940  -28.7166  -15.4073 P   0  0  1  0  0  0  0  0  0  0  0  0
   19.2469  -27.0984  -18.8102 C   0  0  0  0  0  0  0  0  0  0  0  0
   19.4429  -28.1001  -17.8531 O   0  0  0  0  0  0  0  0  0  0  0  0
   20.4778  -26.6773  -19.3009 C   0  0  1  0  0  0  0  0  0  0  0  0
   20.2734  -25.6257  -20.3743 O   0  0  0  0  0  0  0  0  0  0  0  0
   21.3492  -25.9749  -18.1610 C   0  0  1  0  0  0  0  0  0  0  0  0
   22.5840  -26.8041  -17.8894 O   0  0  0  0  0  0  0  0  0  0  0  0
   21.7265  -24.9000  -18.6339 C   0  0  1  0  0  0  0  0  0  0  0  0
   23.0973  -25.0558  -19.1765 O   0  0  0  0  0  0  0  0  0  0  0  0
   20.6659  -24.5271  -19.8628 C   0  0  2  0  0  0  0  0  0  0  0  0
   18.6724  -19.8853  -18.9330 N   0  0  0  0  0  0  0  0  0  0  0  0
   17.1379  -29.2375  -18.1060 O   0  5  0  0  0  0  0  0  0  0  0  0
   15.7170  -26.4337  -14.5882 O   0  5  0  0  0  0  0  0  0  0  0  0
   12.8151  -27.4129  -14.9098 O   0  0  0  0  0  0  0  0  0  0  0  0
   19.8635  -20.1793  -19.4305 C   0  0  0  0  0  0  0  0  0  0  0  0
   20.7727  -19.1066  -19.7801 N   0  0  0  0  0  0  0  0  0  0  0  0
   18.5423  -29.7686  -16.1210 O   0  0  0  0  0  0  0  0  0  0  0  0
   16.6304  -28.6800  -14.1589 O   0  0  0  0  0  0  0  0  0  0  0  0
   12.4945  -29.2784  -16.4866 O   0  5  0  0  0  0  0  0  0  0  0  0
   20.2542  -21.4230  -19.6205 N   0  0  0  0  0  0  0  0  0  0  0  0
   17.3874  -27.4621  -16.2727 O   0  0  0  0  0  0  0  0  0  0  0  0
   14.8899  -28.4048  -16.0353 O   0  0  0  0  0  0  0  0  0  0  0  0
   13.4943  -29.6852  -14.2492 O   0  0  0  0  0  0  0  0  0  0  0  0
   19.4447  -22.4430  -19.3105 C   0  0  0  0  0  0  0  0  0  0  0  0
   18.1973  -22.1642  -18.7896 C   0  0  0  0  0  0  0  0  0  0  0  0
   17.8008  -20.8269  -18.5959 C   0  0  0  0  0  0  0  0  0  0  0  0
   16.5364  -20.5117  -18.0678 O   0  0  0  0  0  0  0  0  0  0  0  0
   17.5813  -23.3370  -18.5632 N   0  0  0  0  0  0  0  0  0  0  0  0
   18.4112  -24.2990  -18.9274 C   0  0  0  0  0  0  0  0  0  0  0  0
   19.5386  -23.7804  -19.3772 N   0  0  0  0  0  0  0  0  0  0  0  0
  1  5  1  6  0  0  0
  1 14  1  0  0  0  0
  1 19  2  0  0  0  0
  1 23  1  0  0  0  0
  2 15  1  1  0  0  0
  2 20  2  0  0  0  0
  2 23  1  0  0  0  0
  2 24  1  0  0  0  0
  3 16  1  1  0  0  0
  3 21  1  0  0  0  0
  3 24  1  0  0  0  0
  3 25  2  0  0  0  0
  4  5  1  0  0  0  0
  6  4  1  1  0  0  0
  6  7  1  0  0  0  0
  6  8  1  0  0  0  0
  7 12  1  0  0  0  0
  8  9  1  6  0  0  0
  8 10  1  0  0  0  0
 10 11  1  6  0  0  0
 10 12  1  0  0  0  0
 12 32  1  1  0  0  0
 13 17  2  0  0  0  0
 13 28  1  0  0  0  0
 17 18  1  0  0  0  0
 17 22  1  0  0  0  0
 22 26  2  0  0  0  0
 26 27  1  0  0  0  0
 26 32  1  0  0  0  0
 27 28  2  0  0  0  0
 27 30  1  0  0  0  0
 28 29  1  0  0  0  0
 30 31  2  0  0  0  0
 31 32  1  0  0  0  0
M  CHG  3  14  -1  15  -1  21  -1
M  END
>  <CHROM.1>
57.54114538,178.10193005,58.46606140,178.03043314,177.14394764,-149.78837808
-171.12701551,-53.08375229,17.89266432,-25.90422543,-17.48089885,-2.24875287
0.38449125,-0.24544335

>  <Name>
ligand

>  <RI>
0

>  <Rbt.Current_Directory>
/home/itssahil/PROJECTS/Mol_Feturizer/New_Systems/rnas/4Y1I

>  <Rbt.Executable>
rbdock ($Id: //depot/dev/client3/rdock/2013.1/src/exe/rbdock.cxx#4 $)

>  <Rbt.Library>
libRbt.so (2013.1, Build901 2013/11/27)

>  <Rbt.Parameter_File>
/export/apps/rDock/src/rDock_2013.1_src/data/scripts/dock_solv.prm

>  <Rbt.Receptor>
prm/pocket_docking_3.prm

>  <SCORE>
-7.46911

>  <SCORE.INTER>
-1.36674

>  <SCORE.INTER.CONST>
1

>  <SCORE.INTER.POLAR>
0

>  <SCORE.INTER.ROT>
8

>  <SCORE.INTER.SOLV>
9.10167

>  <SCORE.INTER.VDW>
-12.8784

>  <SCORE.INTER.norm>
-0.0427107

>  <SCORE.INTRA>
-6.10236

>  <SCORE.INTRA.DIHEDRAL>
-9.46074

>  <SCORE.INTRA.DIHEDRAL.0>
10.9594

>  <SCORE.INTRA.POLAR>
0

>  <SCORE.INTRA.POLAR.0>
0

>  <SCORE.INTRA.REPUL>
0

>  <SCORE.INTRA.REPUL.0>
0

>  <SCORE.INTRA.SOLV>
-4.44372

>  <SCORE.INTRA.SOLV.lig_0>
-124.914

>  <SCORE.INTRA.VDW>
0.849867

>  <SCORE.INTRA.VDW.0>
-4.69801

>  <SCORE.INTRA.norm>
-0.190699

>  <SCORE.RESTR>
0

>  <SCORE.RESTR.CAVITY>
0

>  <SCORE.RESTR.norm>
0

>  <SCORE.SYSTEM>
0

>  <SCORE.SYSTEM.CONST>
0

>  <SCORE.SYSTEM.DIHEDRAL>
0

>  <SCORE.SYSTEM.SOLV>
0

>  <SCORE.SYSTEM.norm>
0

>  <SCORE.heavy>
32

>  <SCORE.norm>
-0.23341

>  <RMSD>
2.571

$$$$
ligand
 OpenBabel11021811513D
libRbt.so/2013.1/901 2013/11/27
 32 34  0  0  0  0  0  0  0  0999 V2000
   16.5585  -28.4319  -19.6995 P   0  0  1  0  0  0  0  0  0  0  0  0
   14.5876  -30.2186  -18.6253 P   0  0  2  0  0  0  0  0  0  0  0  0
   14.6575  -30.8831  -15.7672 P   0  0  1  0  0  0  0  0  0  0  0  0
   18.6584  -26.9287  -20.0491 C   0  0  0  0  0  0  0  0  0  0  0  0
   18.1520  -28.0935  -19.4620 O   0  0  0  0  0  0  0  0  0  0  0  0
   19.9945  -26.7737  -19.6966 C   0  0  1  0  0  0  0  0  0  0  0  0
   20.4872  -25.4060  -20.1287 O   0  0  0  0  0  0  0  0  0  0  0  0
   20.1882  -26.8275  -18.1118 C   0  0  1  0  0  0  0  0  0  0  0  0
   21.0094  -28.0434  -17.7467 O   0  0  0  0  0  0  0  0  0  0  0  0
   20.8547  -25.8329  -17.8157 C   0  0  1  0  0  0  0  0  0  0  0  0
   22.2838  -26.2128  -17.7089 O   0  0  0  0  0  0  0  0  0  0  0  0
   20.6466  -24.7396  -19.0549 C   0  0  2  0  0  0  0  0  0  0  0  0
   18.7787  -19.9547  -19.0726 N   0  0  0  0  0  0  0  0  0  0  0  0
   15.7297  -27.1975  -19.4435 O   0  5  0  0  0  0  0  0  0  0  0  0
   14.3053  -30.9407  -19.9188 O   0  5  0  0  0  0  0  0  0  0  0  0
   13.7697  -29.7067  -15.4355 O   0  0  0  0  0  0  0  0  0  0  0  0
   20.0045  -20.3554  -19.3720 C   0  0  0  0  0  0  0  0  0  0  0  0
   20.9976  -19.3753  -19.7627 N   0  0  0  0  0  0  0  0  0  0  0  0
   16.3726  -28.9237  -21.1172 O   0  0  0  0  0  0  0  0  0  0  0  0
   13.6147  -29.0806  -18.4602 O   0  0  0  0  0  0  0  0  0  0  0  0
   14.2615  -32.0615  -14.9046 O   0  5  0  0  0  0  0  0  0  0  0  0
   20.3557  -21.6243  -19.3267 N   0  0  0  0  0  0  0  0  0  0  0  0
   16.1089  -29.6021  -18.6379 O   0  0  0  0  0  0  0  0  0  0  0  0
   14.4340  -31.2589  -17.3603 O   0  0  0  0  0  0  0  0  0  0  0  0
   16.0986  -30.5019  -15.5074 O   0  0  0  0  0  0  0  0  0  0  0  0
   19.4687  -22.5613  -18.9704 C   0  0  0  0  0  0  0  0  0  0  0  0
   18.1836  -22.1703  -18.6528 C   0  0  0  0  0  0  0  0  0  0  0  0
   17.8305  -20.8083  -18.7089 C   0  0  0  0  0  0  0  0  0  0  0  0
   16.5295  -20.3798  -18.3917 O   0  0  0  0  0  0  0  0  0  0  0  0
   17.4910  -23.2765  -18.3322 N   0  0  0  0  0  0  0  0  0  0  0  0
   18.3115  -24.3064  -18.4459 C   0  0  0  0  0  0  0  0  0  0  0  0
   19.5067  -23.8953  -18.8264 N   0  0  0  0  0  0  0  0  0  0  0  0
  1  5  1  1  0  0  0
  1 14  1  0  0  0  0
  1 19  2  0  0  0  0
  1 23  1  0  0  0  0
  2 15  1  6  0  0  0
  2 20  2  0  0  0  0
  2 23  1  0  0  0  0
  2 24  1  0  0  0  0
  3 16  1  1  0  0  0
  3 21  1  0  0  0  0
  3 24  1  0  0  0  0
  3 25  2  0  0  0  0
  4  5  1  0  0  0  0
  6  4  1  1  0  0  0
  6  7  1  0  0  0  0
  6  8  1  0  0  0  0
  7 12  1  0  0  0  0
  8  9  1  6  0  0  0
  8 10  1  0  0  0  0
 10 11  1  6  0  0  0
 10 12  1  0  0  0  0
 12 32  1  1  0  0  0
 13 17  2  0  0  0  0
 13 28  1  0  0  0  0
 17 18  1  0  0  0  0
 17 22  1  0  0  0  0
 22 26  2  0  0  0  0
 26 27  1  0  0  0  0
 26 32  1  0  0  0  0
 27 28  2  0  0  0  0
 27 30  1  0  0  0  0
 28 29  1  0  0  0  0
 30 31  2  0  0  0  0
 31 32  1  0  0  0  0
M  CHG  3  14  -1  15  -1  21  -1
M  END
>  <CHROM.1>
-47.19033169,64.42223040,54.32601336,-170.50497822,177.38425470,-107.18580546
-178.11499351,179.90764904,17.46490756,-26.70723000,-18.44125817,-2.08897836
0.15139539,-0.11141178

>  <Name>
ligand

>  <RI>
0

>  <Rbt.Current_Directory>
/home/itssahil/PROJECTS/Mol_Feturizer/New_Systems/rnas/4Y1I

>  <Rbt.Executable>
rbdock ($Id: //depot/dev/client3/rdock/2013.1/src/exe/rbdock.cxx#4 $)

>  <Rbt.Library>
libRbt.so (2013.1, Build901 2013/11/27)

>  <Rbt.Parameter_File>
/export/apps/rDock/src/rDock_2013.1_src/data/scripts/dock_solv.prm

>  <Rbt.Receptor>
prm/pocket_docking_3.prm

>  <SCORE>
-4.76297

>  <SCORE.INTER>
1.06272

>  <SCORE.INTER.CONST>
1

>  <SCORE.INTER.POLAR>
0

>  <SCORE.INTER.ROT>
8

>  <SCORE.INTER.SOLV>
9.1123

>  <SCORE.INTER.VDW>
-11.2623

>  <SCORE.INTER.norm>
0.0332099

>  <SCORE.INTRA>
-5.82569

>  <SCORE.INTRA.DIHEDRAL>
-8.99147

>  <SCORE.INTRA.DIHEDRAL.0>
10.9594

>  <SCORE.INTRA.POLAR>
0

>  <SCORE.INTRA.POLAR.0>
0

>  <SCORE.INTRA.REPUL>
0

>  <SCORE.INTRA.REPUL.0>
0

>  <SCORE.INTRA.SOLV>
-3.78097

>  <SCORE.INTRA.SOLV.lig_0>
-124.914

>  <SCORE.INTRA.VDW>
0.560528

>  <SCORE.INTRA.VDW.0>
-4.69801

>  <SCORE.INTRA.norm>
-0.182053

>  <SCORE.RESTR>
0

>  <SCORE.RESTR.CAVITY>
0

>  <SCORE.RESTR.norm>
0

>  <SCORE.SYSTEM>
0

>  <SCORE.SYSTEM.CONST>
0

>  <SCORE.SYSTEM.DIHEDRAL>
0

>  <SCORE.SYSTEM.SOLV>
0

>  <SCORE.SYSTEM.norm>
0

>  <SCORE.heavy>
32

>  <SCORE.norm>
-0.148843

>  <RMSD>
2.581

$$$$
ligand
 OpenBabel11021811513D
libRbt.so/2013.1/901 2013/11/27
 32 34  0  0  0  0  0  0  0  0999 V2000
   17.6025  -28.2259  -17.5574 P   0  0  1  0  0  0  0  0  0  0  0  0
   15.9274  -27.3075  -15.4170 P   0  0  2  0  0  0  0  0  0  0  0  0
   13.4482  -28.8653  -15.2126 P   0  0  1  0  0  0  0  0  0  0  0  0
   19.7713  -26.8127  -17.8586 C   0  0  0  0  0  0  0  0  0  0  0  0
   18.8177  -27.6202  -18.4884 O   0  0  0  0  0  0  0  0  0  0  0  0
   20.7810  -26.4965  -18.7606 C   0  0  1  0  0  0  0  0  0  0  0  0
   20.1826  -25.8808  -20.0107 O   0  0  0  0  0  0  0  0  0  0  0  0
   21.7718  -25.3953  -18.1624 C   0  0  1  0  0  0  0  0  0  0  0  0
   23.1466  -25.9991  -17.9852 O   0  0  0  0  0  0  0  0  0  0  0  0
   21.8656  -24.5171  -19.0234 C   0  0  1  0  0  0  0  0  0  0  0  0
   23.0852  -24.7509  -19.8331 O   0  0  0  0  0  0  0  0  0  0  0  0
   20.5104  -24.6503  -19.9825 C   0  0  2  0  0  0  0  0  0  0  0  0
   18.7518  -19.9450  -18.9088 N   0  0  0  0  0  0  0  0  0  0  0  0
   16.4863  -28.7304  -18.4382 O   0  5  0  0  0  0  0  0  0  0  0  0
   15.5111  -26.0132  -14.7645 O   0  5  0  0  0  0  0  0  0  0  0  0
   14.1280  -29.9355  -14.3911 O   0  0  0  0  0  0  0  0  0  0  0  0
   19.9252  -20.2827  -19.4204 C   0  0  0  0  0  0  0  0  0  0  0  0
   20.8851  -19.2463  -19.7431 N   0  0  0  0  0  0  0  0  0  0  0  0
   18.1581  -29.3387  -16.6976 O   0  0  0  0  0  0  0  0  0  0  0  0
   16.5647  -28.2075  -14.3909 O   0  0  0  0  0  0  0  0  0  0  0  0
   12.7343  -27.9069  -14.2845 O   0  5  0  0  0  0  0  0  0  0  0  0
   20.2533  -21.5381  -19.6483 N   0  0  0  0  0  0  0  0  0  0  0  0
   17.0227  -27.0193  -16.6052 O   0  0  0  0  0  0  0  0  0  0  0  0
   14.6120  -28.0561  -16.0613 O   0  0  0  0  0  0  0  0  0  0  0  0
   12.4608  -29.5194  -16.1543 O   0  0  0  0  0  0  0  0  0  0  0  0
   19.3956  -22.5255  -19.3641 C   0  0  0  0  0  0  0  0  0  0  0  0
   18.1652  -22.2009  -18.8293 C   0  0  0  0  0  0  0  0  0  0  0  0
   17.8359  -20.8520  -18.5950 C   0  0  0  0  0  0  0  0  0  0  0  0
   16.5904  -20.4904  -18.0518 O   0  0  0  0  0  0  0  0  0  0  0  0
   17.4928  -23.3481  -18.6340 N   0  0  0  0  0  0  0  0  0  0  0  0
   18.2729  -24.3387  -19.0299 C   0  0  0  0  0  0  0  0  0  0  0  0
   19.4230  -23.8634  -19.4700 N   0  0  0  0  0  0  0  0  0  0  0  0
  1  5  1  6  0  0  0
  1 14  1  0  0  0  0
  1 19  2  0  0  0  0
  1 23  1  0  0  0  0
  2 15  1  1  0  0  0
  2 20  2  0  0  0  0
  2 23  1  0  0  0  0
  2 24  1  0  0  0  0
  3 16  1  1  0  0  0
  3 21  1  0  0  0  0
  3 24  1  0  0  0  0
  3 25  2  0  0  0  0
  4  5  1  0  0  0  0
  6  4  1  1  0  0  0
  6  7  1  0  0  0  0
  6  8  1  0  0  0  0
  7 12  1  0  0  0  0
  8  9  1  6  0  0  0
  8 10  1  0  0  0  0
 10 11  1  6  0  0  0
 10 12  1  0  0  0  0
 12 32  1  1  0  0  0
 13 17  2  0  0  0  0
 13 28  1  0  0  0  0
 17 18  1  0  0  0  0
 17 22  1  0  0  0  0
 22 26  2  0  0  0  0
 26 27  1  0  0  0  0
 26 32  1  0  0  0  0
 27 28  2  0  0  0  0
 27 30  1  0  0  0  0
 28 29  1  0  0  0  0
 30 31  2  0  0  0  0
 31 32  1  0  0  0  0
M  CHG  3  14  -1  15  -1  21  -1
M  END
>  <CHROM.1>
164.26872893,-176.49786390,-55.99010152,54.12050519,174.48635790,-176.50608778
-172.36511382,-75.20406850,17.83276219,-25.75054961,-17.54834522,-2.31747458
0.40582719,-0.20846860

>  <Name>
ligand

>  <RI>
0

>  <Rbt.Current_Directory>
/home/itssahil/PROJECTS/Mol_Feturizer/New_Systems/rnas/4Y1I

>  <Rbt.Executable>
rbdock ($Id: //depot/dev/client3/rdock/2013.1/src/exe/rbdock.cxx#4 $)

>  <Rbt.Library>
libRbt.so (2013.1, Build901 2013/11/27)

>  <Rbt.Parameter_File>
/export/apps/rDock/src/rDock_2013.1_src/data/scripts/dock_solv.prm

>  <Rbt.Receptor>
prm/pocket_docking_3.prm

>  <SCORE>
-7.17974

>  <SCORE.INTER>
-0.807384

>  <SCORE.INTER.CONST>
1

>  <SCORE.INTER.POLAR>
0

>  <SCORE.INTER.ROT>
8

>  <SCORE.INTER.SOLV>
9.08656

>  <SCORE.INTER.VDW>
-12.5004

>  <SCORE.INTER.norm>
-0.0252307

>  <SCORE.INTRA>
-6.43236

>  <SCORE.INTRA.DIHEDRAL>
-8.61209

>  <SCORE.INTRA.DIHEDRAL.0>
10.9594

>  <SCORE.INTRA.POLAR>
0

>  <SCORE.INTRA.POLAR.0>
0

>  <SCORE.INTRA.REPUL>
0

>  <SCORE.INTRA.REPUL.0>
0

>  <SCORE.INTRA.SOLV>
-4.47897

>  <SCORE.INTRA.SOLV.lig_0>
-124.914

>  <SCORE.INTRA.VDW>
0.113165

>  <SCORE.INTRA.VDW.0>
-4.69801

>  <SCORE.INTRA.norm>
-0.201011

>  <SCORE.RESTR>
0.0600082

>  <SCORE.RESTR.CAVITY>
0.0600082

>  <SCORE.RESTR.norm>
0.00187526

>  <SCORE.SYSTEM>
0

>  <SCORE.SYSTEM.CONST>
0

>  <SCORE.SYSTEM.DIHEDRAL>
0

>  <SCORE.SYSTEM.SOLV>
0

>  <SCORE.SYSTEM.norm>
0

>  <SCORE.heavy>
32

>  <SCORE.norm>
-0.224367

>  <RMSD>
2.599

$$$$
ligand
 OpenBabel11021811513D
libRbt.so/2013.1/901 2013/11/27
 32 34  0  0  0  0  0  0  0  0999 V2000
   16.3364  -27.9251  -20.4026 P   0  0  1  0  0  0  0  0  0  0  0  0
   15.1541  -28.6039  -17.8782 P   0  0  2  0  0  0  0  0  0  0  0  0
   14.1949  -29.9729  -15.4655 P   0  0  1  0  0  0  0  0  0  0  0  0
   18.4948  -27.2365  -19.1148 C   0  0  0  0  0  0  0  0  0  0  0  0
   17.9614  -27.6710  -20.3333 O   0  0  0  0  0  0  0  0  0  0  0  0
   19.8495  -26.9650  -19.2711 C   0  0  1  0  0  0  0  0  0  0  0  0
   20.0338  -25.7572  -20.1695 O   0  0  0  0  0  0  0  0  0  0  0  0
   20.5305  -26.5813  -17.8778 C   0  0  1  0  0  0  0  0  0  0  0  0
   21.5501  -27.6352  -17.5094 O   0  0  0  0  0  0  0  0  0  0  0  0
   21.1452  -25.5306  -18.0765 C   0  0  1  0  0  0  0  0  0  0  0  0
   22.5688  -25.8387  -18.3527 O   0  0  0  0  0  0  0  0  0  0  0  0
   20.4463  -24.8205  -19.4112 C   0  0  2  0  0  0  0  0  0  0  0  0
   18.7062  -20.0060  -18.9888 N   0  0  0  0  0  0  0  0  0  0  0  0
   15.6046  -26.6376  -20.1144 O   0  5  0  0  0  0  0  0  0  0  0  0
   13.8087  -28.0036  -18.2005 O   0  5  0  0  0  0  0  0  0  0  0  0
   14.3518  -31.3624  -14.8936 O   0  0  0  0  0  0  0  0  0  0  0  0
   19.8939  -20.4126  -19.4093 C   0  0  0  0  0  0  0  0  0  0  0  0
   20.8779  -19.4308  -19.8184 N   0  0  0  0  0  0  0  0  0  0  0  0
   15.9853  -28.4510  -21.7760 O   0  0  0  0  0  0  0  0  0  0  0  0
   15.9984  -27.5893  -17.1526 O   0  0  0  0  0  0  0  0  0  0  0  0
   14.8384  -28.9753  -14.5273 O   0  5  0  0  0  0  0  0  0  0  0  0
   20.2149  -21.6889  -19.4694 N   0  0  0  0  0  0  0  0  0  0  0  0
   15.9315  -29.0327  -19.2590 O   0  0  0  0  0  0  0  0  0  0  0  0
   14.9591  -29.9337  -16.9297 O   0  0  0  0  0  0  0  0  0  0  0  0
   12.7213  -29.6693  -15.6260 O   0  0  0  0  0  0  0  0  0  0  0  0
   19.3350  -22.6277  -19.1005 C   0  0  0  0  0  0  0  0  0  0  0  0
   18.0895  -22.2308  -18.6577 C   0  0  0  0  0  0  0  0  0  0  0  0
   17.7681  -20.8608  -18.6026 C   0  0  0  0  0  0  0  0  0  0  0  0
   16.5075  -20.4261  -18.1566 O   0  0  0  0  0  0  0  0  0  0  0  0
   17.3961  -23.3403  -18.3502 N   0  0  0  0  0  0  0  0  0  0  0  0
   18.1784  -24.3778  -18.5917 C   0  0  0  0  0  0  0  0  0  0  0  0
   19.3501  -23.9686  -19.0413 N   0  0  0  0  0  0  0  0  0  0  0  0
  1  5  1  1  0  0  0
  1 14  1  0  0  0  0
  1 19  2  0  0  0  0
  1 23  1  0  0  0  0
  2 15  1  6  0  0  0
  2 20  2  0  0  0  0
  2 23  1  0  0  0  0
  2 24  1  0  0  0  0
  3 16  1  1  0  0  0
  3 21  1  0  0  0  0
  3 24  1  0  0  0  0
  3 25  2  0  0  0  0
  4  5  1  0  0  0  0
  6  4  1  1  0  0  0
  6  7  1  0  0  0  0
  6  8  1  0  0  0  0
  7 12  1  0  0  0  0
  8  9  1  6  0  0  0
  8 10  1  0  0  0  0
 10 11  1  6  0  0  0
 10 12  1  0  0  0  0
 12 32  1  1  0  0  0
 13 17  2  0  0  0  0
 13 28  1  0  0  0  0
 17 18  1  0  0  0  0
 17 22  1  0  0  0  0
 22 26  2  0  0  0  0
 26 27  1  0  0  0  0
 26 32  1  0  0  0  0
 27 28  2  0  0  0  0
 27 30  1  0  0  0  0
 28 29  1  0  0  0  0
 30 31  2  0  0  0  0
 31 32  1  0  0  0  0
M  CHG  3  14  -1  15  -1  21  -1
M  END
>  <CHROM.1>
61.16046197,61.57437438,-175.17733892,67.71760703,-174.89961491,-131.50103037
106.16003383,-57.28748955,17.42166090,-26.21615230,-18.37009322,-2.19456494
0.34005281,-0.06964632

>  <Name>
ligand

>  <RI>
0

>  <Rbt.Current_Directory>
/home/itssahil/PROJECTS/Mol_Feturizer/New_Systems/rnas/4Y1I

>  <Rbt.Executable>
rbdock ($Id: //depot/dev/client3/rdock/2013.1/src/exe/rbdock.cxx#4 $)

>  <Rbt.Library>
libRbt.so (2013.1, Build901 2013/11/27)

>  <Rbt.Parameter_File>
/export/apps/rDock/src/rDock_2013.1_src/data/scripts/dock_solv.prm

>  <Rbt.Receptor>
prm/pocket_docking_3.prm

>  <SCORE>
-2.67973

>  <SCORE.INTER>
1.16752

>  <SCORE.INTER.CONST>
1

>  <SCORE.INTER.POLAR>
0

>  <SCORE.INTER.ROT>
8

>  <SCORE.INTER.SOLV>
9.1247

>  <SCORE.INTER.VDW>
-11.1966

>  <SCORE.INTER.norm>
0.0364849

>  <SCORE.INTRA>
-3.84725

>  <SCORE.INTRA.DIHEDRAL>
-7.23324

>  <SCORE.INTRA.DIHEDRAL.0>
10.9594

>  <SCORE.INTRA.POLAR>
0

>  <SCORE.INTRA.POLAR.0>
0

>  <SCORE.INTRA.REPUL>
0

>  <SCORE.INTRA.REPUL.0>
0

>  <SCORE.INTRA.SOLV>
-1.22438

>  <SCORE.INTRA.SOLV.lig_0>
-124.914

>  <SCORE.INTRA.VDW>
0.381558

>  <SCORE.INTRA.VDW.0>
-4.69801

>  <SCORE.INTRA.norm>
-0.120227

>  <SCORE.RESTR>
0

>  <SCORE.RESTR.CAVITY>
0

>  <SCORE.RESTR.norm>
0

>  <SCORE.SYSTEM>
0

>  <SCORE.SYSTEM.CONST>
0

>  <SCORE.SYSTEM.DIHEDRAL>
0

>  <SCORE.SYSTEM.SOLV>
0

>  <SCORE.SYSTEM.norm>
0

>  <SCORE.heavy>
32

>  <SCORE.norm>
-0.0837417

>  <RMSD>
2.605

$$$$
ligand
 OpenBabel11021811513D
libRbt.so/2013.1/901 2013/11/27
 32 34  0  0  0  0  0  0  0  0999 V2000
   16.9583  -28.0555  -16.9890 P   0  0  1  0  0  0  0  0  0  0  0  0
   15.3911  -30.4586  -16.9915 P   0  0  2  0  0  0  0  0  0  0  0  0
   12.6198  -29.6502  -16.4607 P   0  0  1  0  0  0  0  0  0  0  0  0
   18.5421  -26.1820  -17.8681 C   0  0  0  0  0  0  0  0  0  0  0  0
   18.2885  -27.5573  -17.8212 O   0  0  0  0  0  0  0  0  0  0  0  0
   19.5317  -25.9239  -18.8102 C   0  0  1  0  0  0  0  0  0  0  0  0
   18.9418  -25.1675  -19.9848 O   0  0  0  0  0  0  0  0  0  0  0  0
   20.6731  -24.9801  -18.2113 C   0  0  1  0  0  0  0  0  0  0  0  0
   21.9770  -25.7435  -18.1522 O   0  0  0  0  0  0  0  0  0  0  0  0
   20.8209  -24.0652  -19.0252 C   0  0  1  0  0  0  0  0  0  0  0  0
   21.9604  -24.3818  -19.9192 O   0  0  0  0  0  0  0  0  0  0  0  0
   19.4100  -23.9855  -19.9066 C   0  0  2  0  0  0  0  0  0  0  0  0
   14.5986  -23.4342  -18.1940 N   0  0  0  0  0  0  0  0  0  0  0  0
   17.1071  -27.7046  -15.5292 O   0  5  0  0  0  0  0  0  0  0  0  0
   15.5008  -31.5976  -16.0092 O   0  5  0  0  0  0  0  0  0  0  0  0
   11.9361  -28.3209  -16.2418 O   0  0  0  0  0  0  0  0  0  0  0  0
   15.1480  -24.4963  -18.7623 C   0  0  0  0  0  0  0  0  0  0  0  0
   14.3509  -25.6905  -18.9579 N   0  0  0  0  0  0  0  0  0  0  0  0
   15.7369  -27.3913  -17.5832 O   0  0  0  0  0  0  0  0  0  0  0  0
   15.0049  -30.9951  -18.3449 O   0  0  0  0  0  0  0  0  0  0  0  0
   12.1786  -30.2212  -17.7907 O   0  5  0  0  0  0  0  0  0  0  0  0
   16.4042  -24.5056  -19.1592 N   0  0  0  0  0  0  0  0  0  0  0  0
   16.8333  -29.6873  -17.1321 O   0  0  0  0  0  0  0  0  0  0  0  0
   14.2510  -29.3887  -16.4803 O   0  0  0  0  0  0  0  0  0  0  0  0
   12.2448  -30.5889  -15.3348 O   0  0  0  0  0  0  0  0  0  0  0  0
   17.1746  -23.4231  -18.9971 C   0  0  0  0  0  0  0  0  0  0  0  0
   16.6264  -22.3019  -18.4078 C   0  0  0  0  0  0  0  0  0  0  0  0
   15.2814  -22.3152  -17.9905 C   0  0  0  0  0  0  0  0  0  0  0  0
   14.6953  -21.1887  -17.3867 O   0  0  0  0  0  0  0  0  0  0  0  0
   17.5846  -21.3610  -18.3571 N   0  0  0  0  0  0  0  0  0  0  0  0
   18.6775  -21.8771  -18.8921 C   0  0  0  0  0  0  0  0  0  0  0  0
   18.4493  -23.1163  -19.2853 N   0  0  0  0  0  0  0  0  0  0  0  0
  1  5  1  6  0  0  0
  1 14  1  0  0  0  0
  1 19  2  0  0  0  0
  1 23  1  0  0  0  0
  2 15  1  1  0  0  0
  2 20  2  0  0  0  0
  2 23  1  0  0  0  0
  2 24  1  0  0  0  0
  3 16  1  1  0  0  0
  3 21  1  0  0  0  0
  3 24  1  0  0  0  0
  3 25  2  0  0  0  0
  4  5  1  0  0  0  0
  6  4  1  1  0  0  0
  6  7  1  0  0  0  0
  6  8  1  0  0  0  0
  7 12  1  0  0  0  0
  8  9  1  6  0  0  0
  8 10  1  0  0  0  0
 10 11  1  6  0  0  0
 10 12  1  0  0  0  0
 12 32  1  1  0  0  0
 13 17  2  0  0  0  0
 13 28  1  0  0  0  0
 17 18  1  0  0  0  0
 17 22  1  0  0  0  0
 22 26  2  0  0  0  0
 26 27  1  0  0  0  0
 26 32  1  0  0  0  0
 27 28  2  0  0  0  0
 27 30  1  0  0  0  0
 28 29  1  0  0  0  0
 30 31  2  0  0  0  0
 31 32  1  0  0  0  0
M  CHG  3  14  -1  15  -1  21  -1
M  END
>  <CHROM.1>
-63.67283058,-129.32631714,-166.53892910,111.99759455,-168.52061108,-9.02512748
-154.55357975,-70.55882019,16.49234290,-26.60972058,-17.80268679,-2.21843964
0.17946489,-0.19972906

>  <Name>
ligand

>  <RI>
0

>  <Rbt.Current_Directory>
/home/itssahil/PROJECTS/Mol_Feturizer/New_Systems/rnas/4Y1I

>  <Rbt.Executable>
rbdock ($Id: //depot/dev/client3/rdock/2013.1/src/exe/rbdock.cxx#4 $)

>  <Rbt.Library>
libRbt.so (2013.1, Build901 2013/11/27)

>  <Rbt.Parameter_File>
/export/apps/rDock/src/rDock_2013.1_src/data/scripts/dock_solv.prm

>  <Rbt.Receptor>
prm/pocket_docking_2.prm

>  <SCORE>
3.69549

>  <SCORE.INTER>
2.96362

>  <SCORE.INTER.CONST>
1

>  <SCORE.INTER.POLAR>
0

>  <SCORE.INTER.ROT>
8

>  <SCORE.INTER.SOLV>
6.22783

>  <SCORE.INTER.VDW>
-9.03353

>  <SCORE.INTER.norm>
0.092613

>  <SCORE.INTRA>
0.589466

>  <SCORE.INTRA.DIHEDRAL>
-0.429047

>  <SCORE.INTRA.DIHEDRAL.0>
10.9594

>  <SCORE.INTRA.POLAR>
0

>  <SCORE.INTRA.POLAR.0>
0

>  <SCORE.INTRA.REPUL>
0

>  <SCORE.INTRA.REPUL.0>
0

>  <SCORE.INTRA.SOLV>
1.87648

>  <SCORE.INTRA.SOLV.lig_0>
-124.914

>  <SCORE.INTRA.VDW>
-0.134252

>  <SCORE.INTRA.VDW.0>
-4.69801

>  <SCORE.INTRA.norm>
0.0184208

>  <SCORE.RESTR>
0.142409

>  <SCORE.RESTR.CAVITY>
0.142409

>  <SCORE.RESTR.norm>
0.00445028

>  <SCORE.SYSTEM>
0

>  <SCORE.SYSTEM.CONST>
0

>  <SCORE.SYSTEM.DIHEDRAL>
0

>  <SCORE.SYSTEM.SOLV>
0

>  <SCORE.SYSTEM.norm>
0

>  <SCORE.heavy>
32

>  <SCORE.norm>
0.115484

>  <RMSD>
2.611

$$$$
ligand
 OpenBabel11021811513D
libRbt.so/2013.1/901 2013/11/27
 32 34  0  0  0  0  0  0  0  0999 V2000
   17.0945  -28.4813  -16.8368 P   0  0  1  0  0  0  0  0  0  0  0  0
   15.7150  -29.7418  -19.0137 P   0  0  2  0  0  0  0  0  0  0  0  0
   14.8583  -32.5399  -18.7851 P   0  0  1  0  0  0  0  0  0  0  0  0
   18.5919  -27.1770  -18.5244 C   0  0  0  0  0  0  0  0  0  0  0  0
   18.5433  -28.1928  -17.5633 O   0  0  0  0  0  0  0  0  0  0  0  0
   19.9058  -26.9932  -18.9403 C   0  0  1  0  0  0  0  0  0  0  0  0
   19.9572  -25.9569  -20.0464 O   0  0  0  0  0  0  0  0  0  0  0  0
   20.8148  -26.4175  -17.7594 C   0  0  1  0  0  0  0  0  0  0  0  0
   21.8648  -27.4404  -17.3888 O   0  0  0  0  0  0  0  0  0  0  0  0
   21.4043  -25.4407  -18.2280 C   0  0  1  0  0  0  0  0  0  0  0  0
   22.7572  -25.8507  -18.6744 O   0  0  0  0  0  0  0  0  0  0  0  0
   20.5046  -24.9280  -19.5325 C   0  0  2  0  0  0  0  0  0  0  0  0
   19.1838  -19.9783  -19.1566 N   0  0  0  0  0  0  0  0  0  0  0  0
   17.1171  -29.8343  -16.1698 O   0  5  0  0  0  0  0  0  0  0  0  0
   17.0289  -30.1203  -19.6498 O   0  5  0  0  0  0  0  0  0  0  0  0
   16.1850  -33.0741  -19.2717 O   0  0  0  0  0  0  0  0  0  0  0  0
   20.3151  -20.4905  -19.6154 C   0  0  0  0  0  0  0  0  0  0  0  0
   21.3577  -19.6022  -20.0883 N   0  0  0  0  0  0  0  0  0  0  0  0
   16.8301  -27.3857  -15.8288 O   0  0  0  0  0  0  0  0  0  0  0  0
   14.7366  -29.3313  -20.0829 O   0  0  0  0  0  0  0  0  0  0  0  0
   14.3302  -33.4446  -17.6932 O   0  5  0  0  0  0  0  0  0  0  0  0
   20.5279  -21.7899  -19.6575 N   0  0  0  0  0  0  0  0  0  0  0  0
   15.9226  -28.4771  -17.9880 O   0  0  0  0  0  0  0  0  0  0  0  0
   15.1092  -31.0235  -18.1793 O   0  0  0  0  0  0  0  0  0  0  0  0
   13.8890  -32.4955  -19.9461 O   0  0  0  0  0  0  0  0  0  0  0  0
   19.5907  -22.6447  -19.2301 C   0  0  0  0  0  0  0  0  0  0  0  0
   18.4019  -22.1369  -18.7464 C   0  0  0  0  0  0  0  0  0  0  0  0
   18.1963  -20.7443  -18.7116 C   0  0  0  0  0  0  0  0  0  0  0  0
   16.9958  -20.1975  -18.2250 O   0  0  0  0  0  0  0  0  0  0  0  0
   17.6340  -23.1786  -18.3838 N   0  0  0  0  0  0  0  0  0  0  0  0
   18.3177  -24.2821  -18.6317 C   0  0  0  0  0  0  0  0  0  0  0  0
   19.4985  -23.9808  -19.1388 N   0  0  0  0  0  0  0  0  0  0  0  0
  1  5  1  6  0  0  0
  1 14  1  0  0  0  0
  1 19  2  0  0  0  0
  1 23  1  0  0  0  0
  2 15  1  6  0  0  0
  2 20  2  0  0  0  0
  2 23  1  0  0  0  0
  2 24  1  0  0  0  0
  3 16  1  6  0  0  0
  3 21  1  0  0  0  0
  3 24  1  0  0  0  0
  3 25  2  0  0  0  0
  4  5  1  0  0  0  0
  6  4  1  1  0  0  0
  6  7  1  0  0  0  0
  6  8  1  0  0  0  0
  7 12  1  0  0  0  0
  8  9  1  6  0  0  0
  8 10  1  0  0  0  0
 10 11  1  6  0  0  0
 10 12  1  0  0  0  0
 12 32  1  1  0  0  0
 13 17  2  0  0  0  0
 13 28  1  0  0  0  0
 17 18  1  0  0  0  0
 17 22  1  0  0  0  0
 22 26  2  0  0  0  0
 26 27  1  0  0  0  0
 26 32  1  0  0  0  0
 27 28  2  0  0  0  0
 27 30  1  0  0  0  0
 28 29  1  0  0  0  0
 30 31  2  0  0  0  0
 31 32  1  0  0  0  0
M  CHG  3  14  -1  15  -1  21  -1
M  END
>  <CHROM.1>
162.88947463,-50.35288724,59.43339795,176.36026579,174.67552688,-142.77529401
75.87517560,-53.74220314,17.90572157,-26.96038852,-18.55282427,-2.01305499
-0.07729219,-0.08944035

>  <Name>
ligand

>  <RI>
0

>  <Rbt.Current_Directory>
/home/itssahil/PROJECTS/Mol_Feturizer/New_Systems/rnas/4Y1I

>  <Rbt.Executable>
rbdock ($Id: //depot/dev/client3/rdock/2013.1/src/exe/rbdock.cxx#4 $)

>  <Rbt.Library>
libRbt.so (2013.1, Build901 2013/11/27)

>  <Rbt.Parameter_File>
/export/apps/rDock/src/rDock_2013.1_src/data/scripts/dock_solv.prm

>  <Rbt.Receptor>
prm/pocket_docking_4.prm

>  <SCORE>
-5.28628

>  <SCORE.INTER>
0.471229

>  <SCORE.INTER.CONST>
1

>  <SCORE.INTER.POLAR>
0

>  <SCORE.INTER.ROT>
8

>  <SCORE.INTER.SOLV>
9.09657

>  <SCORE.INTER.VDW>
-11.6514

>  <SCORE.INTER.norm>
0.0147259

>  <SCORE.INTRA>
-5.75751

>  <SCORE.INTRA.DIHEDRAL>
-8.53157

>  <SCORE.INTRA.DIHEDRAL.0>
10.9594

>  <SCORE.INTRA.POLAR>
0

>  <SCORE.INTRA.POLAR.0>
0

>  <SCORE.INTRA.REPUL>
0

>  <SCORE.INTRA.REPUL.0>
0

>  <SCORE.INTRA.SOLV>
-4.11104

>  <SCORE.INTRA.SOLV.lig_0>
-124.914

>  <SCORE.INTRA.VDW>
0.563796

>  <SCORE.INTRA.VDW.0>
-4.69801

>  <SCORE.INTRA.norm>
-0.179922

>  <SCORE.RESTR>
0

>  <SCORE.RESTR.CAVITY>
0

>  <SCORE.RESTR.norm>
0

>  <SCORE.SYSTEM>
0

>  <SCORE.SYSTEM.CONST>
0

>  <SCORE.SYSTEM.DIHEDRAL>
0

>  <SCORE.SYSTEM.SOLV>
0

>  <SCORE.SYSTEM.norm>
0

>  <SCORE.heavy>
32

>  <SCORE.norm>
-0.165196

>  <RMSD>
2.624

$$$$
ligand
 OpenBabel11021811513D
libRbt.so/2013.1/901 2013/11/27
 32 34  0  0  0  0  0  0  0  0999 V2000
   18.1748  -28.8729  -16.9177 P   0  0  1  0  0  0  0  0  0  0  0  0
   16.0234  -28.1180  -15.1763 P   0  0  2  0  0  0  0  0  0  0  0  0
   13.8542  -26.6551  -16.5066 P   0  0  1  0  0  0  0  0  0  0  0  0
   19.2470  -27.1709  -18.5745 C   0  0  0  0  0  0  0  0  0  0  0  0
   19.4810  -28.0982  -17.5531 O   0  0  0  0  0  0  0  0  0  0  0  0
   20.4601  -26.7565  -19.1129 C   0  0  1  0  0  0  0  0  0  0  0  0
   20.2151  -25.7776  -20.2450 O   0  0  0  0  0  0  0  0  0  0  0  0
   21.3359  -25.9675  -18.0347 C   0  0  1  0  0  0  0  0  0  0  0  0
   22.5925  -26.7534  -17.7354 O   0  0  0  0  0  0  0  0  0  0  0  0
   21.6822  -24.9166  -18.5797 C   0  0  1  0  0  0  0  0  0  0  0  0
   23.0465  -25.0783  -19.1370 O   0  0  0  0  0  0  0  0  0  0  0  0
   20.5931  -24.6419  -19.8095 C   0  0  2  0  0  0  0  0  0  0  0  0
   18.6169  -19.9907  -18.8895 N   0  0  0  0  0  0  0  0  0  0  0  0
   17.4729  -29.6608  -17.9960 O   0  5  0  0  0  0  0  0  0  0  0  0
   16.6650  -28.1383  -13.8117 O   0  5  0  0  0  0  0  0  0  0  0  0
   13.4243  -27.9621  -17.1305 O   0  0  0  0  0  0  0  0  0  0  0  0
   19.8197  -20.2912  -19.3539 C   0  0  0  0  0  0  0  0  0  0  0  0
   20.7493  -19.2239  -19.6640 N   0  0  0  0  0  0  0  0  0  0  0  0
   18.6434  -29.7805  -15.8028 O   0  0  0  0  0  0  0  0  0  0  0  0
   15.4561  -29.4783  -15.4873 O   0  0  0  0  0  0  0  0  0  0  0  0
   12.6274  -25.8992  -16.0449 O   0  5  0  0  0  0  0  0  0  0  0  0
   20.2040  -21.5366  -19.5456 N   0  0  0  0  0  0  0  0  0  0  0  0
   17.1372  -27.7464  -16.3234 O   0  0  0  0  0  0  0  0  0  0  0  0
   14.8168  -27.0004  -15.2091 O   0  0  0  0  0  0  0  0  0  0  0  0
   14.6154  -25.8454  -17.5335 O   0  0  0  0  0  0  0  0  0  0  0  0
   19.3757  -22.5518  -19.2715 C   0  0  0  0  0  0  0  0  0  0  0  0
   18.1158  -22.2662  -18.7856 C   0  0  0  0  0  0  0  0  0  0  0  0
   17.7264  -20.9272  -18.5893 C   0  0  0  0  0  0  0  0  0  0  0  0
   16.4497  -20.6051  -18.0963 O   0  0  0  0  0  0  0  0  0  0  0  0
   17.4820  -23.4351  -18.5908 N   0  0  0  0  0  0  0  0  0  0  0  0
   18.3133  -24.4014  -18.9403 C   0  0  0  0  0  0  0  0  0  0  0  0
   19.4587  -23.8892  -19.3500 N   0  0  0  0  0  0  0  0  0  0  0  0
  1  5  1  6  0  0  0
  1 14  1  0  0  0  0
  1 19  2  0  0  0  0
  1 23  1  0  0  0  0
  2 15  1  1  0  0  0
  2 20  2  0  0  0  0
  2 23  1  0  0  0  0
  2 24  1  0  0  0  0
  3 16  1  6  0  0  0
  3 21  1  0  0  0  0
  3 24  1  0  0  0  0
  3 25  2  0  0  0  0
  4  5  1  0  0  0  0
  6  4  1  1  0  0  0
  6  7  1  0  0  0  0
  6  8  1  0  0  0  0
  7 12  1  0  0  0  0
  8  9  1  6  0  0  0
  8 10  1  0  0  0  0
 10 11  1  6  0  0  0
 10 12  1  0  0  0  0
 12 32  1  1  0  0  0
 13 17  2  0  0  0  0
 13 28  1  0  0  0  0
 17 18  1  0  0  0  0
 17 22  1  0  0  0  0
 22 26  2  0  0  0  0
 26 27  1  0  0  0  0
 26 32  1  0  0  0  0
 27 28  2  0  0  0  0
 27 30  1  0  0  0  0
 28 29  1  0  0  0  0
 30 31  2  0  0  0  0
 31 32  1  0  0  0  0
M  CHG  3  14  -1  15  -1  21  -1
M  END
>  <CHROM.1>
60.61123736,80.40129177,44.31819788,178.56072611,-171.83702336,-155.07775632
-157.95433734,-179.86001167,17.94575033,-25.70390319,-17.62679219,-2.18548353
0.30578009,-0.29228642

>  <Name>
ligand

>  <RI>
0

>  <Rbt.Current_Directory>
/home/itssahil/PROJECTS/Mol_Feturizer/New_Systems/rnas/4Y1I

>  <Rbt.Executable>
rbdock ($Id: //depot/dev/client3/rdock/2013.1/src/exe/rbdock.cxx#4 $)

>  <Rbt.Library>
libRbt.so (2013.1, Build901 2013/11/27)

>  <Rbt.Parameter_File>
/export/apps/rDock/src/rDock_2013.1_src/data/scripts/dock_solv.prm

>  <Rbt.Receptor>
prm/pocket_docking_3.prm

>  <SCORE>
-6.69292

>  <SCORE.INTER>
-1.23618

>  <SCORE.INTER.CONST>
1

>  <SCORE.INTER.POLAR>
0

>  <SCORE.INTER.ROT>
8

>  <SCORE.INTER.SOLV>
9.66902

>  <SCORE.INTER.VDW>
-12.9805

>  <SCORE.INTER.norm>
-0.0386306

>  <SCORE.INTRA>
-5.45756

>  <SCORE.INTRA.DIHEDRAL>
-7.65885

>  <SCORE.INTRA.DIHEDRAL.0>
10.9594

>  <SCORE.INTRA.POLAR>
0

>  <SCORE.INTRA.POLAR.0>
0

>  <SCORE.INTRA.REPUL>
0

>  <SCORE.INTRA.REPUL.0>
0

>  <SCORE.INTRA.SOLV>
-4.61859

>  <SCORE.INTRA.SOLV.lig_0>
-124.914

>  <SCORE.INTRA.VDW>
0.681156

>  <SCORE.INTRA.VDW.0>
-4.69801

>  <SCORE.INTRA.norm>
-0.170549

>  <SCORE.RESTR>
0.000828898

>  <SCORE.RESTR.CAVITY>
0.000828898

>  <SCORE.RESTR.norm>
2.59031e-05

>  <SCORE.SYSTEM>
0

>  <SCORE.SYSTEM.CONST>
0

>  <SCORE.SYSTEM.DIHEDRAL>
0

>  <SCORE.SYSTEM.SOLV>
0

>  <SCORE.SYSTEM.norm>
0

>  <SCORE.heavy>
32

>  <SCORE.norm>
-0.209154

>  <RMSD>
2.663

$$$$
ligand
 OpenBabel11021811513D
libRbt.so/2013.1/901 2013/11/27
 32 34  0  0  0  0  0  0  0  0999 V2000
   18.2163  -28.9410  -16.8250 P   0  0  1  0  0  0  0  0  0  0  0  0
   16.0502  -28.1685  -15.1097 P   0  0  2  0  0  0  0  0  0  0  0  0
   13.8270  -26.8449  -16.4956 P   0  0  1  0  0  0  0  0  0  0  0  0
   19.2460  -27.2119  -18.4807 C   0  0  0  0  0  0  0  0  0  0  0  0
   19.5074  -28.1699  -17.4949 O   0  0  0  0  0  0  0  0  0  0  0  0
   20.4444  -26.7787  -19.0371 C   0  0  1  0  0  0  0  0  0  0  0  0
   20.1669  -25.8167  -20.1762 O   0  0  0  0  0  0  0  0  0  0  0  0
   21.3161  -25.9611  -17.9770 C   0  0  1  0  0  0  0  0  0  0  0  0
   22.5915  -26.7184  -17.6841 O   0  0  0  0  0  0  0  0  0  0  0  0
   21.6349  -24.9092  -18.5365 C   0  0  1  0  0  0  0  0  0  0  0  0
   22.9958  -25.0491  -19.1076 O   0  0  0  0  0  0  0  0  0  0  0  0
   20.5267  -24.6692  -19.7565 C   0  0  2  0  0  0  0  0  0  0  0  0
   18.4651  -20.0494  -18.8661 N   0  0  0  0  0  0  0  0  0  0  0  0
   17.5147  -29.7689  -17.8731 O   0  5  0  0  0  0  0  0  0  0  0  0
   16.6740  -28.1276  -13.7373 O   0  5  0  0  0  0  0  0  0  0  0  0
   12.6820  -25.9630  -16.0557 O   0  0  0  0  0  0  0  0  0  0  0  0
   19.6681  -20.3303  -19.3420 C   0  0  0  0  0  0  0  0  0  0  0  0
   20.5715  -19.2477  -19.6760 N   0  0  0  0  0  0  0  0  0  0  0  0
   18.7057  -29.8094  -15.6881 O   0  0  0  0  0  0  0  0  0  0  0  0
   15.5186  -29.5514  -15.3812 O   0  0  0  0  0  0  0  0  0  0  0  0
   14.5916  -26.1498  -17.6009 O   0  5  0  0  0  0  0  0  0  0  0  0
   20.0760  -21.5697  -19.5240 N   0  0  0  0  0  0  0  0  0  0  0  0
   17.1703  -27.8098  -16.2549 O   0  0  0  0  0  0  0  0  0  0  0  0
   14.8188  -27.0812  -15.1957 O   0  0  0  0  0  0  0  0  0  0  0  0
   13.2723  -28.1636  -16.9886 O   0  0  0  0  0  0  0  0  0  0  0  0
   19.2726  -22.5985  -19.2278 C   0  0  0  0  0  0  0  0  0  0  0  0
   18.0130  -22.3333  -18.7296 C   0  0  0  0  0  0  0  0  0  0  0  0
   17.5981  -21.0005  -18.5440 C   0  0  0  0  0  0  0  0  0  0  0  0
   16.3210  -20.6991  -18.0389 O   0  0  0  0  0  0  0  0  0  0  0  0
   17.4061  -23.5128  -18.5133 N   0  0  0  0  0  0  0  0  0  0  0  0
   18.2531  -24.4657  -18.8618 C   0  0  0  0  0  0  0  0  0  0  0  0
   19.3825  -23.9348  -19.2917 N   0  0  0  0  0  0  0  0  0  0  0  0
  1  5  1  6  0  0  0
  1 14  1  0  0  0  0
  1 19  2  0  0  0  0
  1 23  1  0  0  0  0
  2 15  1  1  0  0  0
  2 20  2  0  0  0  0
  2 23  1  0  0  0  0
  2 24  1  0  0  0  0
  3 16  1  1  0  0  0
  3 21  1  0  0  0  0
  3 24  1  0  0  0  0
  3 25  2  0  0  0  0
  4  5  1  0  0  0  0
  6  4  1  1  0  0  0
  6  7  1  0  0  0  0
  6  8  1  0  0  0  0
  7 12  1  0  0  0  0
  8  9  1  6  0  0  0
  8 10  1  0  0  0  0
 10 11  1  6  0  0  0
 10 12  1  0  0  0  0
 12 32  1  1  0  0  0
 13 17  2  0  0  0  0
 13 28  1  0  0  0  0
 17 18  1  0  0  0  0
 17 22  1  0  0  0  0
 22 26  2  0  0  0  0
 26 27  1  0  0  0  0
 26 32  1  0  0  0  0
 27 28  2  0  0  0  0
 27 30  1  0  0  0  0
 28 29  1  0  0  0  0
 30 31  2  0  0  0  0
 31 32  1  0  0  0  0
M  CHG  3  14  -1  15  -1  21  -1
M  END
>  <CHROM.1>
64.69756483,81.98333287,168.99087864,175.83648300,-173.24919347,-154.96598707
-159.25943101,-177.25814191,17.91147572,-25.77073325,-17.57216069,-2.16485823
0.29482417,-0.30473330

>  <Name>
ligand

>  <RI>
0

>  <Rbt.Current_Directory>
/home/itssahil/PROJECTS/Mol_Feturizer/New_Systems/rnas/4Y1I

>  <Rbt.Executable>
rbdock ($Id: //depot/dev/client3/rdock/2013.1/src/exe/rbdock.cxx#4 $)

>  <Rbt.Library>
libRbt.so (2013.1, Build901 2013/11/27)

>  <Rbt.Parameter_File>
/export/apps/rDock/src/rDock_2013.1_src/data/scripts/dock_solv.prm

>  <Rbt.Receptor>
prm/pocket_docking_3.prm

>  <SCORE>
-5.809

>  <SCORE.INTER>
-1.07735

>  <SCORE.INTER.CONST>
1

>  <SCORE.INTER.POLAR>
0

>  <SCORE.INTER.ROT>
8

>  <SCORE.INTER.SOLV>
10.3364

>  <SCORE.INTER.VDW>
-13.097

>  <SCORE.INTER.norm>
-0.033667

>  <SCORE.INTRA>
-4.73165

>  <SCORE.INTRA.DIHEDRAL>
-7.8241

>  <SCORE.INTRA.DIHEDRAL.0>
10.9594

>  <SCORE.INTRA.POLAR>
0

>  <SCORE.INTRA.POLAR.0>
0

>  <SCORE.INTRA.REPUL>
0

>  <SCORE.INTRA.REPUL.0>
0

>  <SCORE.INTRA.SOLV>
-3.04346

>  <SCORE.INTRA.SOLV.lig_0>
-124.914

>  <SCORE.INTRA.VDW>
0.702127

>  <SCORE.INTRA.VDW.0>
-4.69801

>  <SCORE.INTRA.norm>
-0.147864

>  <SCORE.RESTR>
0

>  <SCORE.RESTR.CAVITY>
0

>  <SCORE.RESTR.norm>
0

>  <SCORE.SYSTEM>
0

>  <SCORE.SYSTEM.CONST>
0

>  <SCORE.SYSTEM.DIHEDRAL>
0

>  <SCORE.SYSTEM.SOLV>
0

>  <SCORE.SYSTEM.norm>
0

>  <SCORE.heavy>
32

>  <SCORE.norm>
-0.181531

>  <RMSD>
2.664

$$$$
ligand
 OpenBabel11021811513D
libRbt.so/2013.1/901 2013/11/27
 32 34  0  0  0  0  0  0  0  0999 V2000
   18.7621  -28.5477  -17.7758 P   0  0  1  0  0  0  0  0  0  0  0  0
   16.5104  -29.8632  -18.9717 P   0  0  2  0  0  0  0  0  0  0  0  0
   15.0512  -31.6667  -17.1735 P   0  0  1  0  0  0  0  0  0  0  0  0
   19.8987  -26.6824  -19.1972 C   0  0  0  0  0  0  0  0  0  0  0  0
   20.0967  -27.7422  -18.3052 O   0  0  0  0  0  0  0  0  0  0  0  0
   21.1296  -26.1604  -19.5792 C   0  0  1  0  0  0  0  0  0  0  0  0
   20.9269  -25.0418  -20.5830 O   0  0  0  0  0  0  0  0  0  0  0  0
   21.8926  -25.5024  -18.3395 C   0  0  1  0  0  0  0  0  0  0  0  0
   23.1554  -26.2836  -18.0543 O   0  0  0  0  0  0  0  0  0  0  0  0
   22.2341  -24.3760  -18.7082 C   0  0  1  0  0  0  0  0  0  0  0  0
   23.6404  -24.4171  -19.1757 O   0  0  0  0  0  0  0  0  0  0  0  0
   21.2260  -23.9665  -19.9691 C   0  0  2  0  0  0  0  0  0  0  0  0
   18.9111  -19.5198  -18.8495 N   0  0  0  0  0  0  0  0  0  0  0  0
   19.1678  -29.6223  -16.7978 O   0  5  0  0  0  0  0  0  0  0  0  0
   16.1733  -30.6261  -20.2281 O   0  5  0  0  0  0  0  0  0  0  0  0
   15.3883  -32.4124  -15.9037 O   0  0  0  0  0  0  0  0  0  0  0  0
   20.1423  -19.7112  -19.2969 C   0  0  0  0  0  0  0  0  0  0  0  0
   21.0027  -18.5673  -19.5228 N   0  0  0  0  0  0  0  0  0  0  0  0
   17.8208  -27.5561  -17.1302 O   0  0  0  0  0  0  0  0  0  0  0  0
   15.5483  -28.7165  -18.8043 O   0  0  0  0  0  0  0  0  0  0  0  0
   13.9443  -30.6755  -16.8870 O   0  5  0  0  0  0  0  0  0  0  0  0
   20.6164  -20.9148  -19.5462 N   0  0  0  0  0  0  0  0  0  0  0  0
   18.0317  -29.2537  -19.0668 O   0  0  0  0  0  0  0  0  0  0  0  0
   16.4061  -30.8610  -17.6680 O   0  0  0  0  0  0  0  0  0  0  0  0
   14.6086  -32.6597  -18.2258 O   0  0  0  0  0  0  0  0  0  0  0  0
   19.8544  -21.9977  -19.3506 C   0  0  0  0  0  0  0  0  0  0  0  0
   18.5668  -21.8263  -18.8841 C   0  0  0  0  0  0  0  0  0  0  0  0
   18.0810  -20.5301  -18.6254 C   0  0  0  0  0  0  0  0  0  0  0  0
   16.7738  -20.3239  -18.1502 O   0  0  0  0  0  0  0  0  0  0  0  0
   18.0111  -23.0448  -18.7709 N   0  0  0  0  0  0  0  0  0  0  0  0
   18.9154  -23.9310  -19.1501 C   0  0  0  0  0  0  0  0  0  0  0  0
   20.0318  -23.3199  -19.5000 N   0  0  0  0  0  0  0  0  0  0  0  0
  1  5  1  6  0  0  0
  1 14  1  0  0  0  0
  1 19  2  0  0  0  0
  1 23  1  0  0  0  0
  2 15  1  6  0  0  0
  2 20  2  0  0  0  0
  2 23  1  0  0  0  0
  2 24  1  0  0  0  0
  3 16  1  1  0  0  0
  3 21  1  0  0  0  0
  3 24  1  0  0  0  0
  3 25  2  0  0  0  0
  4  5  1  0  0  0  0
  6  4  1  1  0  0  0
  6  7  1  0  0  0  0
  6  8  1  0  0  0  0
  7 12  1  0  0  0  0
  8  9  1  6  0  0  0
  8 10  1  0  0  0  0
 10 11  1  6  0  0  0
 10 12  1  0  0  0  0
 12 32  1  1  0  0  0
 13 17  2  0  0  0  0
 13 28  1  0  0  0  0
 17 18  1  0  0  0  0
 17 22  1  0  0  0  0
 22 26  2  0  0  0  0
 26 27  1  0  0  0  0
 26 32  1  0  0  0  0
 27 28  2  0  0  0  0
 27 30  1  0  0  0  0
 28 29  1  0  0  0  0
 30 31  2  0  0  0  0
 31 32  1  0  0  0  0
M  CHG  3  14  -1  15  -1  21  -1
M  END
>  <CHROM.1>
-178.34909190,-171.61194730,-177.40594699,178.06927343,-177.45303185,-149.25852105
-166.57589659,-60.20257741,18.55170975,-26.46266973,-18.53068489,-2.01086092
0.11863621,-0.09523264

>  <Name>
ligand

>  <RI>
0

>  <Rbt.Current_Directory>
/home/itssahil/PROJECTS/Mol_Feturizer/New_Systems/rnas/4Y1I

>  <Rbt.Executable>
rbdock ($Id: //depot/dev/client3/rdock/2013.1/src/exe/rbdock.cxx#4 $)

>  <Rbt.Library>
libRbt.so (2013.1, Build901 2013/11/27)

>  <Rbt.Parameter_File>
/export/apps/rDock/src/rDock_2013.1_src/data/scripts/dock_solv.prm

>  <Rbt.Receptor>
prm/pocket_docking_4.prm

>  <SCORE>
-6.1376

>  <SCORE.INTER>
-0.753722

>  <SCORE.INTER.CONST>
1

>  <SCORE.INTER.POLAR>
0

>  <SCORE.INTER.ROT>
8

>  <SCORE.INTER.SOLV>
8.36366

>  <SCORE.INTER.VDW>
-12.2237

>  <SCORE.INTER.norm>
-0.0235538

>  <SCORE.INTRA>
-5.38388

>  <SCORE.INTRA.DIHEDRAL>
-9.25753

>  <SCORE.INTRA.DIHEDRAL.0>
10.9594

>  <SCORE.INTRA.POLAR>
0

>  <SCORE.INTRA.POLAR.0>
0

>  <SCORE.INTRA.REPUL>
0

>  <SCORE.INTRA.REPUL.0>
0

>  <SCORE.INTRA.SOLV>
-3.0958

>  <SCORE.INTRA.SOLV.lig_0>
-124.914

>  <SCORE.INTRA.VDW>
0.792785

>  <SCORE.INTRA.VDW.0>
-4.69801

>  <SCORE.INTRA.norm>
-0.168246

>  <SCORE.RESTR>
0

>  <SCORE.RESTR.CAVITY>
0

>  <SCORE.RESTR.norm>
0

>  <SCORE.SYSTEM>
0

>  <SCORE.SYSTEM.CONST>
0

>  <SCORE.SYSTEM.DIHEDRAL>
0

>  <SCORE.SYSTEM.SOLV>
0

>  <SCORE.SYSTEM.norm>
0

>  <SCORE.heavy>
32

>  <SCORE.norm>
-0.1918

>  <RMSD>
2.765

$$$$
ligand
 OpenBabel11021811513D
libRbt.so/2013.1/901 2013/11/27
 32 34  0  0  0  0  0  0  0  0999 V2000
   17.0838  -28.6197  -17.5754 P   0  0  1  0  0  0  0  0  0  0  0  0
   14.7466  -28.3753  -15.9294 P   0  0  2  0  0  0  0  0  0  0  0  0
   11.8705  -28.7909  -16.3423 P   0  0  1  0  0  0  0  0  0  0  0  0
   18.7103  -26.6280  -17.9987 C   0  0  0  0  0  0  0  0  0  0  0  0
   17.9698  -27.6631  -18.5804 O   0  0  0  0  0  0  0  0  0  0  0  0
   19.7291  -26.2430  -18.8630 C   0  0  1  0  0  0  0  0  0  0  0  0
   19.1475  -25.4887  -20.0432 O   0  0  0  0  0  0  0  0  0  0  0  0
   20.7422  -25.2314  -18.1542 C   0  0  1  0  0  0  0  0  0  0  0  0
   22.1030  -25.8805  -18.0398 O   0  0  0  0  0  0  0  0  0  0  0  0
   20.8574  -24.2715  -18.9201 C   0  0  1  0  0  0  0  0  0  0  0  0
   22.0738  -24.4475  -19.7492 O   0  0  0  0  0  0  0  0  0  0  0  0
   19.5022  -24.2752  -19.8881 C   0  0  2  0  0  0  0  0  0  0  0  0
   14.5443  -24.1923  -18.5473 N   0  0  0  0  0  0  0  0  0  0  0  0
   16.5175  -29.7860  -18.3469 O   0  5  0  0  0  0  0  0  0  0  0  0
   15.0578  -27.9539  -14.5153 O   0  5  0  0  0  0  0  0  0  0  0  0
   12.1035  -29.9719  -17.2550 O   0  0  0  0  0  0  0  0  0  0  0  0
   15.2177  -25.1717  -19.1304 C   0  0  0  0  0  0  0  0  0  0  0  0
   14.5344  -26.4059  -19.4613 N   0  0  0  0  0  0  0  0  0  0  0  0
   17.9734  -29.0966  -16.4496 O   0  0  0  0  0  0  0  0  0  0  0  0
   14.8156  -29.8762  -16.0353 O   0  0  0  0  0  0  0  0  0  0  0  0
   11.5973  -29.2936  -14.9415 O   0  5  0  0  0  0  0  0  0  0  0  0
   16.4977  -25.0626  -19.4225 N   0  0  0  0  0  0  0  0  0  0  0  0
   15.8418  -27.7316  -16.9692 O   0  0  0  0  0  0  0  0  0  0  0  0
   13.2389  -27.8652  -16.3448 O   0  0  0  0  0  0  0  0  0  0  0  0
   10.6896  -27.9964  -16.8557 O   0  0  0  0  0  0  0  0  0  0  0  0
   17.1659  -23.9393  -19.1338 C   0  0  0  0  0  0  0  0  0  0  0  0
   16.4873  -22.9024  -18.5261 C   0  0  0  0  0  0  0  0  0  0  0  0
   15.1193  -23.0418  -18.2223 C   0  0  0  0  0  0  0  0  0  0  0  0
   14.4016  -22.0034  -17.6030 O   0  0  0  0  0  0  0  0  0  0  0  0
   17.3619  -21.8989  -18.3411 N   0  0  0  0  0  0  0  0  0  0  0  0
   18.5300  -22.2972  -18.8141 C   0  0  0  0  0  0  0  0  0  0  0  0
   18.4310  -23.5215  -19.2975 N   0  0  0  0  0  0  0  0  0  0  0  0
  1  5  1  6  0  0  0
  1 14  1  0  0  0  0
  1 19  2  0  0  0  0
  1 23  1  0  0  0  0
  2 15  1  1  0  0  0
  2 20  2  0  0  0  0
  2 23  1  0  0  0  0
  2 24  1  0  0  0  0
  3 16  1  6  0  0  0
  3 21  1  0  0  0  0
  3 24  1  0  0  0  0
  3 25  2  0  0  0  0
  4  5  1  0  0  0  0
  6  4  1  1  0  0  0
  6  7  1  0  0  0  0
  6  8  1  0  0  0  0
  7 12  1  0  0  0  0
  8  9  1  6  0  0  0
  8 10  1  0  0  0  0
 10 11  1  6  0  0  0
 10 12  1  0  0  0  0
 12 32  1  1  0  0  0
 13 17  2  0  0  0  0
 13 28  1  0  0  0  0
 17 18  1  0  0  0  0
 17 22  1  0  0  0  0
 22 26  2  0  0  0  0
 26 27  1  0  0  0  0
 26 32  1  0  0  0  0
 27 28  2  0  0  0  0
 27 30  1  0  0  0  0
 28 29  1  0  0  0  0
 30 31  2  0  0  0  0
 31 32  1  0  0  0  0
M  CHG  3  14  -1  15  -1  21  -1
M  END
>  <CHROM.1>
-172.00127443,101.47869880,-57.69472562,72.10452636,158.97472832,-10.67193848
179.73050714,-99.62184586,16.32337228,-26.50322405,-17.75402832,-2.50144969
0.18950583,-0.30299221

>  <Name>
ligand

>  <RI>
0

>  <Rbt.Current_Directory>
/home/itssahil/PROJECTS/Mol_Feturizer/New_Systems/rnas/4Y1I

>  <Rbt.Executable>
rbdock ($Id: //depot/dev/client3/rdock/2013.1/src/exe/rbdock.cxx#4 $)

>  <Rbt.Library>
libRbt.so (2013.1, Build901 2013/11/27)

>  <Rbt.Parameter_File>
/export/apps/rDock/src/rDock_2013.1_src/data/scripts/dock_solv.prm

>  <Rbt.Receptor>
prm/pocket_docking_2.prm

>  <SCORE>
3.50683

>  <SCORE.INTER>
5.36188

>  <SCORE.INTER.CONST>
1

>  <SCORE.INTER.POLAR>
0

>  <SCORE.INTER.ROT>
8

>  <SCORE.INTER.SOLV>
4.38294

>  <SCORE.INTER.VDW>
-6.81973

>  <SCORE.INTER.norm>
0.167559

>  <SCORE.INTRA>
-1.85505

>  <SCORE.INTRA.DIHEDRAL>
-3.41468

>  <SCORE.INTRA.DIHEDRAL.0>
10.9594

>  <SCORE.INTRA.POLAR>
0

>  <SCORE.INTRA.POLAR.0>
0

>  <SCORE.INTRA.REPUL>
0

>  <SCORE.INTRA.REPUL.0>
0

>  <SCORE.INTRA.SOLV>
1.52488

>  <SCORE.INTRA.SOLV.lig_0>
-124.914

>  <SCORE.INTRA.VDW>
-0.910154

>  <SCORE.INTRA.VDW.0>
-4.69801

>  <SCORE.INTRA.norm>
-0.0579704

>  <SCORE.RESTR>
0

>  <SCORE.RESTR.CAVITY>
0

>  <SCORE.RESTR.norm>
0

>  <SCORE.SYSTEM>
0

>  <SCORE.SYSTEM.CONST>
0

>  <SCORE.SYSTEM.DIHEDRAL>
0

>  <SCORE.SYSTEM.SOLV>
0

>  <SCORE.SYSTEM.norm>
0

>  <SCORE.heavy>
32

>  <SCORE.norm>
0.109588

>  <RMSD>
2.779

$$$$
ligand
 OpenBabel11021811513D
libRbt.so/2013.1/901 2013/11/27
 32 34  0  0  0  0  0  0  0  0999 V2000
   17.7718  -28.5512  -17.3687 P   0  0  1  0  0  0  0  0  0  0  0  0
   16.7525  -29.5875  -14.8951 P   0  0  2  0  0  0  0  0  0  0  0  0
   13.8236  -29.4164  -14.8100 P   0  0  1  0  0  0  0  0  0  0  0  0
   19.1418  -27.0812  -19.0280 C   0  0  0  0  0  0  0  0  0  0  0  0
   19.1983  -27.9661  -17.9455 O   0  0  0  0  0  0  0  0  0  0  0  0
   20.4284  -26.6742  -19.3631 C   0  0  1  0  0  0  0  0  0  0  0  0
   20.3658  -25.5311  -20.3577 O   0  0  0  0  0  0  0  0  0  0  0  0
   21.2083  -26.1042  -18.0907 C   0  0  1  0  0  0  0  0  0  0  0  0
   22.3816  -27.0043  -17.7754 O   0  0  0  0  0  0  0  0  0  0  0  0
   21.6666  -25.0114  -18.4329 C   0  0  1  0  0  0  0  0  0  0  0  0
   23.0775  -25.1806  -18.8553 O   0  0  0  0  0  0  0  0  0  0  0  0
   20.7442  -24.4953  -19.7200 C   0  0  2  0  0  0  0  0  0  0  0  0
   18.6908  -19.8441  -18.9889 N   0  0  0  0  0  0  0  0  0  0  0  0
   16.6936  -27.5061  -17.5148 O   0  5  0  0  0  0  0  0  0  0  0  0
   16.9033  -29.2336  -13.4369 O   0  5  0  0  0  0  0  0  0  0  0  0
   13.7825  -28.8807  -13.3980 O   0  0  0  0  0  0  0  0  0  0  0  0
   19.8934  -20.1433  -19.4545 C   0  0  0  0  0  0  0  0  0  0  0  0
   20.7988  -19.0744  -19.8251 N   0  0  0  0  0  0  0  0  0  0  0  0
   17.4163  -29.8057  -18.1343 O   0  0  0  0  0  0  0  0  0  0  0  0
   16.8325  -31.0823  -15.0623 O   0  0  0  0  0  0  0  0  0  0  0  0
   12.7346  -28.7521  -15.6239 O   0  5  0  0  0  0  0  0  0  0  0  0
   20.2991  -21.3889  -19.5939 N   0  0  0  0  0  0  0  0  0  0  0  0
   17.9574  -28.9024  -15.7746 O   0  0  0  0  0  0  0  0  0  0  0  0
   15.3010  -29.0506  -15.4525 O   0  0  0  0  0  0  0  0  0  0  0  0
   13.6145  -30.9146  -14.7752 O   0  0  0  0  0  0  0  0  0  0  0  0
   19.4937  -22.4055  -19.2629 C   0  0  0  0  0  0  0  0  0  0  0  0
   18.2345  -22.1212  -18.7745 C   0  0  0  0  0  0  0  0  0  0  0  0
   17.8220  -20.7820  -18.6347 C   0  0  0  0  0  0  0  0  0  0  0  0
   16.5453  -20.4612  -18.1406 O   0  0  0  0  0  0  0  0  0  0  0  0
   17.6254  -23.2915  -18.5181 N   0  0  0  0  0  0  0  0  0  0  0  0
   18.4707  -24.2572  -18.8336 C   0  0  0  0  0  0  0  0  0  0  0  0
   19.6012  -23.7434  -19.2811 N   0  0  0  0  0  0  0  0  0  0  0  0
  1  5  1  6  0  0  0
  1 14  1  0  0  0  0
  1 19  2  0  0  0  0
  1 23  1  0  0  0  0
  2 15  1  1  0  0  0
  2 20  2  0  0  0  0
  2 23  1  0  0  0  0
  2 24  1  0  0  0  0
  3 16  1  1  0  0  0
  3 21  1  0  0  0  0
  3 24  1  0  0  0  0
  3 25  2  0  0  0  0
  4  5  1  0  0  0  0
  6  4  1  1  0  0  0
  6  7  1  0  0  0  0
  6  8  1  0  0  0  0
  7 12  1  0  0  0  0
  8  9  1  6  0  0  0
  8 10  1  0  0  0  0
 10 11  1  6  0  0  0
 10 12  1  0  0  0  0
 12 32  1  1  0  0  0
 13 17  2  0  0  0  0
 13 28  1  0  0  0  0
 17 18  1  0  0  0  0
 17 22  1  0  0  0  0
 22 26  2  0  0  0  0
 26 27  1  0  0  0  0
 26 32  1  0  0  0  0
 27 28  2  0  0  0  0
 27 30  1  0  0  0  0
 28 29  1  0  0  0  0
 30 31  2  0  0  0  0
 31 32  1  0  0  0  0
M  CHG  3  14  -1  15  -1  21  -1
M  END
>  <CHROM.1>
-33.25446455,-154.00156430,62.35078058,-169.70498556,178.94155266,-141.21760092
-176.55204231,-55.40671585,17.99208826,-26.28855581,-17.37112644,-2.11810833
0.40454353,-0.27334219

>  <Name>
ligand

>  <RI>
0

>  <Rbt.Current_Directory>
/home/itssahil/PROJECTS/Mol_Feturizer/New_Systems/rnas/4Y1I

>  <Rbt.Executable>
rbdock ($Id: //depot/dev/client3/rdock/2013.1/src/exe/rbdock.cxx#4 $)

>  <Rbt.Library>
libRbt.so (2013.1, Build901 2013/11/27)

>  <Rbt.Parameter_File>
/export/apps/rDock/src/rDock_2013.1_src/data/scripts/dock_solv.prm

>  <Rbt.Receptor>
prm/pocket_docking_3.prm

>  <SCORE>
-5.49767

>  <SCORE.INTER>
-1.03722

>  <SCORE.INTER.CONST>
1

>  <SCORE.INTER.POLAR>
0

>  <SCORE.INTER.ROT>
8

>  <SCORE.INTER.SOLV>
8.95198

>  <SCORE.INTER.VDW>
-12.6088

>  <SCORE.INTER.norm>
-0.0324132

>  <SCORE.INTRA>
-4.46245

>  <SCORE.INTRA.DIHEDRAL>
-7.25788

>  <SCORE.INTRA.DIHEDRAL.0>
10.9594

>  <SCORE.INTRA.POLAR>
0

>  <SCORE.INTRA.POLAR.0>
0

>  <SCORE.INTRA.REPUL>
0

>  <SCORE.INTRA.REPUL.0>
0

>  <SCORE.INTRA.SOLV>
-3.97245

>  <SCORE.INTRA.SOLV.lig_0>
-124.914

>  <SCORE.INTRA.VDW>
1.15271

>  <SCORE.INTRA.VDW.0>
-4.69801

>  <SCORE.INTRA.norm>
-0.139452

>  <SCORE.RESTR>
0.00200163

>  <SCORE.RESTR.CAVITY>
0.00200163

>  <SCORE.RESTR.norm>
6.25509e-05

>  <SCORE.SYSTEM>
0

>  <SCORE.SYSTEM.CONST>
0

>  <SCORE.SYSTEM.DIHEDRAL>
0

>  <SCORE.SYSTEM.SOLV>
0

>  <SCORE.SYSTEM.norm>
0

>  <SCORE.heavy>
32

>  <SCORE.norm>
-0.171802

>  <RMSD>
2.812

$$$$
ligand
 OpenBabel11021811513D
libRbt.so/2013.1/901 2013/11/27
 32 34  0  0  0  0  0  0  0  0999 V2000
   18.0484  -28.7125  -17.1351 P   0  0  1  0  0  0  0  0  0  0  0  0
   15.5816  -27.8160  -15.9767 P   0  0  2  0  0  0  0  0  0  0  0  0
   14.3430  -25.3659  -17.0151 P   0  0  1  0  0  0  0  0  0  0  0  0
   19.2333  -27.0987  -18.8034 C   0  0  0  0  0  0  0  0  0  0  0  0
   19.4045  -28.0395  -17.7819 O   0  0  0  0  0  0  0  0  0  0  0  0
   20.4770  -26.6890  -19.2710 C   0  0  1  0  0  0  0  0  0  0  0  0
   20.3021  -25.6447  -20.3566 O   0  0  0  0  0  0  0  0  0  0  0  0
   21.3282  -25.9827  -18.1182 C   0  0  1  0  0  0  0  0  0  0  0  0
   22.5518  -26.8172  -17.8138 O   0  0  0  0  0  0  0  0  0  0  0  0
   21.7221  -24.9139  -18.5913 C   0  0  1  0  0  0  0  0  0  0  0  0
   23.1032  -25.0823  -19.1033 O   0  0  0  0  0  0  0  0  0  0  0  0
   20.6904  -24.5445  -19.8455 C   0  0  2  0  0  0  0  0  0  0  0  0
   18.7067  -19.8835  -18.9935 N   0  0  0  0  0  0  0  0  0  0  0  0
   17.3504  -29.5554  -18.1736 O   0  5  0  0  0  0  0  0  0  0  0  0
   15.7689  -28.4724  -14.6320 O   0  5  0  0  0  0  0  0  0  0  0  0
   15.5979  -25.0317  -17.7870 O   0  0  0  0  0  0  0  0  0  0  0  0
   19.9064  -20.1886  -19.4630 C   0  0  0  0  0  0  0  0  0  0  0  0
   20.8297  -19.1242  -19.8009 N   0  0  0  0  0  0  0  0  0  0  0  0
   18.4441  -29.5471  -15.9379 O   0  0  0  0  0  0  0  0  0  0  0  0
   14.8128  -28.7387  -16.8857 O   0  0  0  0  0  0  0  0  0  0  0  0
   13.3525  -26.0328  -17.9445 O   0  5  0  0  0  0  0  0  0  0  0  0
   20.2931  -21.4362  -19.6353 N   0  0  0  0  0  0  0  0  0  0  0  0
   17.0385  -27.5047  -16.6660 O   0  0  0  0  0  0  0  0  0  0  0  0
   14.7530  -26.4061  -15.7989 O   0  0  0  0  0  0  0  0  0  0  0  0
   13.7574  -24.0904  -16.4498 O   0  0  0  0  0  0  0  0  0  0  0  0
   19.4708  -22.4487  -19.3352 C   0  0  0  0  0  0  0  0  0  0  0  0
   18.2142  -22.1583  -18.8435 C   0  0  0  0  0  0  0  0  0  0  0  0
   17.8221  -20.8172  -18.6684 C   0  0  0  0  0  0  0  0  0  0  0  0
   16.5486  -20.4901  -18.1701 O   0  0  0  0  0  0  0  0  0  0  0  0
   17.5860  -23.3255  -18.6217 N   0  0  0  0  0  0  0  0  0  0  0  0
   18.4175  -24.2953  -18.9607 C   0  0  0  0  0  0  0  0  0  0  0  0
   19.5576  -23.7871  -19.3899 N   0  0  0  0  0  0  0  0  0  0  0  0
  1  5  1  6  0  0  0
  1 14  1  0  0  0  0
  1 19  2  0  0  0  0
  1 23  1  0  0  0  0
  2 15  1  1  0  0  0
  2 20  2  0  0  0  0
  2 23  1  0  0  0  0
  2 24  1  0  0  0  0
  3 16  1  6  0  0  0
  3 21  1  0  0  0  0
  3 24  1  0  0  0  0
  3 25  2  0  0  0  0
  4  5  1  0  0  0  0
  6  4  1  1  0  0  0
  6  7  1  0  0  0  0
  6  8  1  0  0  0  0
  7 12  1  0  0  0  0
  8  9  1  6  0  0  0
  8 10  1  0  0  0  0
 10 11  1  6  0  0  0
 10 12  1  0  0  0  0
 12 32  1  1  0  0  0
 13 17  2  0  0  0  0
 13 28  1  0  0  0  0
 17 18  1  0  0  0  0
 17 22  1  0  0  0  0
 22 26  2  0  0  0  0
 26 27  1  0  0  0  0
 26 32  1  0  0  0  0
 27 28  2  0  0  0  0
 27 30  1  0  0  0  0
 28 29  1  0  0  0  0
 30 31  2  0  0  0  0
 31 32  1  0  0  0  0
M  CHG  3  14  -1  15  -1  21  -1
M  END
>  <CHROM.1>
65.98751667,66.01862924,-52.92374069,-178.68385120,-177.09687853,-149.81577328
179.90800125,179.48283711,17.97260367,-25.36711609,-17.91943449,-2.17338871
0.29630200,-0.24323050

>  <Name>
ligand

>  <RI>
0

>  <Rbt.Current_Directory>
/home/itssahil/PROJECTS/Mol_Feturizer/New_Systems/rnas/4Y1I

>  <Rbt.Executable>
rbdock ($Id: //depot/dev/client3/rdock/2013.1/src/exe/rbdock.cxx#4 $)

>  <Rbt.Library>
libRbt.so (2013.1, Build901 2013/11/27)

>  <Rbt.Parameter_File>
/export/apps/rDock/src/rDock_2013.1_src/data/scripts/dock_solv.prm

>  <Rbt.Receptor>
prm/pocket_docking_3.prm

>  <SCORE>
-7.4091

>  <SCORE.INTER>
-0.915554

>  <SCORE.INTER.CONST>
1

>  <SCORE.INTER.POLAR>
0

>  <SCORE.INTER.ROT>
8

>  <SCORE.INTER.SOLV>
8.2195

>  <SCORE.INTER.VDW>
-12.2835

>  <SCORE.INTER.norm>
-0.0286111

>  <SCORE.INTRA>
-6.49678

>  <SCORE.INTRA.DIHEDRAL>
-9.44803

>  <SCORE.INTRA.DIHEDRAL.0>
10.9594

>  <SCORE.INTRA.POLAR>
0

>  <SCORE.INTRA.POLAR.0>
0

>  <SCORE.INTRA.REPUL>
0

>  <SCORE.INTRA.REPUL.0>
0

>  <SCORE.INTRA.SOLV>
-4.38506

>  <SCORE.INTRA.SOLV.lig_0>
-124.914

>  <SCORE.INTRA.VDW>
0.419762

>  <SCORE.INTRA.VDW.0>
-4.69801

>  <SCORE.INTRA.norm>
-0.203024

>  <SCORE.RESTR>
0.00323231

>  <SCORE.RESTR.CAVITY>
0.00323231

>  <SCORE.RESTR.norm>
0.00010101

>  <SCORE.SYSTEM>
0

>  <SCORE.SYSTEM.CONST>
0

>  <SCORE.SYSTEM.DIHEDRAL>
0

>  <SCORE.SYSTEM.SOLV>
0

>  <SCORE.SYSTEM.norm>
0

>  <SCORE.heavy>
32

>  <SCORE.norm>
-0.231534

>  <RMSD>
2.863

$$$$
ligand
 OpenBabel11021811513D
libRbt.so/2013.1/901 2013/11/27
 32 34  0  0  0  0  0  0  0  0999 V2000
   16.3646  -26.6131  -20.1536 P   0  0  1  0  0  0  0  0  0  0  0  0
   13.8332  -27.0372  -18.8718 P   0  0  2  0  0  0  0  0  0  0  0  0
   14.3650  -29.7317  -17.8362 P   0  0  1  0  0  0  0  0  0  0  0  0
   18.9191  -26.4388  -20.6392 C   0  0  0  0  0  0  0  0  0  0  0  0
   17.9052  -26.2626  -19.6911 O   0  0  0  0  0  0  0  0  0  0  0  0
   20.1467  -26.1149  -20.0724 C   0  0  1  0  0  0  0  0  0  0  0  0
   20.1633  -24.6504  -19.6787 O   0  0  0  0  0  0  0  0  0  0  0  0
   20.3989  -26.9329  -18.7235 C   0  0  1  0  0  0  0  0  0  0  0  0
   21.5764  -27.8625  -18.9120 O   0  0  0  0  0  0  0  0  0  0  0  0
   20.7227  -26.0991  -17.8744 C   0  0  1  0  0  0  0  0  0  0  0  0
   22.2010  -26.0483  -17.7741 O   0  0  0  0  0  0  0  0  0  0  0  0
   20.1367  -24.6332  -18.4053 C   0  0  2  0  0  0  0  0  0  0  0  0
   15.8362  -21.8714  -18.9187 N   0  0  0  0  0  0  0  0  0  0  0  0
   15.8999  -25.6136  -21.1838 O   0  5  0  0  0  0  0  0  0  0  0  0
   13.1040  -26.4364  -20.0472 O   0  5  0  0  0  0  0  0  0  0  0  0
   15.8320  -29.4530  -17.6069 O   0  0  0  0  0  0  0  0  0  0  0  0
   16.9664  -21.7595  -19.5991 C   0  0  0  0  0  0  0  0  0  0  0  0
   17.0760  -20.7524  -20.6351 N   0  0  0  0  0  0  0  0  0  0  0  0
   16.3327  -28.0184  -20.7106 O   0  0  0  0  0  0  0  0  0  0  0  0
   13.1598  -26.6167  -17.5918 O   0  0  0  0  0  0  0  0  0  0  0  0
   13.6109  -29.5121  -16.5429 O   0  5  0  0  0  0  0  0  0  0  0  0
   18.0031  -22.5382  -19.3655 N   0  0  0  0  0  0  0  0  0  0  0  0
   15.3877  -26.5108  -18.8369 O   0  0  0  0  0  0  0  0  0  0  0  0
   13.8183  -28.6782  -18.9855 O   0  0  0  0  0  0  0  0  0  0  0  0
   14.2019  -31.1613  -18.3041 O   0  0  0  0  0  0  0  0  0  0  0  0
   17.9432  -23.4808  -18.4171 C   0  0  0  0  0  0  0  0  0  0  0  0
   16.7765  -23.6183  -17.6925 C   0  0  0  0  0  0  0  0  0  0  0  0
   15.6808  -22.7753  -17.9602 C   0  0  0  0  0  0  0  0  0  0  0  0
   14.4793  -22.8919  -17.2392 O   0  0  0  0  0  0  0  0  0  0  0  0
   16.9611  -24.6176  -16.8129 N   0  0  0  0  0  0  0  0  0  0  0  0
   18.1881  -25.0776  -16.9854 C   0  0  0  0  0  0  0  0  0  0  0  0
   18.7952  -24.4042  -17.9446 N   0  0  0  0  0  0  0  0  0  0  0  0
  1  5  1  1  0  0  0
  1 14  1  0  0  0  0
  1 19  2  0  0  0  0
  1 23  1  0  0  0  0
  2 15  1  6  0  0  0
  2 20  2  0  0  0  0
  2 23  1  0  0  0  0
  2 24  1  0  0  0  0
  3 16  1  1  0  0  0
  3 21  1  0  0  0  0
  3 24  1  0  0  0  0
  3 25  2  0  0  0  0
  4  5  1  0  0  0  0
  6  4  1  1  0  0  0
  6  7  1  0  0  0  0
  6  8  1  0  0  0  0
  7 12  1  0  0  0  0
  8  9  1  6  0  0  0
  8 10  1  0  0  0  0
 10 11  1  6  0  0  0
 10 12  1  0  0  0  0
 12 32  1  6  0  0  0
 13 17  2  0  0  0  0
 13 28  1  0  0  0  0
 17 18  1  0  0  0  0
 17 22  1  0  0  0  0
 22 26  2  0  0  0  0
 26 27  1  0  0  0  0
 26 32  1  0  0  0  0
 27 28  2  0  0  0  0
 27 30  1  0  0  0  0
 28 29  1  0  0  0  0
 30 31  2  0  0  0  0
 31 32  1  0  0  0  0
M  CHG  3  14  -1  15  -1  21  -1
M  END
>  <CHROM.1>
-68.03708562,-51.66726123,-60.12160072,-62.92289449,-179.18580729,-45.60449950
-169.62740655,-173.33819492,16.74059529,-26.07854942,-18.78487988,-2.41523233
0.04174376,-0.08290507

>  <Name>
ligand

>  <RI>
0

>  <Rbt.Current_Directory>
/home/itssahil/PROJECTS/Mol_Feturizer/New_Systems/rnas/4Y1I

>  <Rbt.Executable>
rbdock ($Id: //depot/dev/client3/rdock/2013.1/src/exe/rbdock.cxx#4 $)

>  <Rbt.Library>
libRbt.so (2013.1, Build901 2013/11/27)

>  <Rbt.Parameter_File>
/export/apps/rDock/src/rDock_2013.1_src/data/scripts/dock_solv.prm

>  <Rbt.Receptor>
prm/pocket_docking_3.prm

>  <SCORE>
-4.48377

>  <SCORE.INTER>
3.71338

>  <SCORE.INTER.CONST>
1

>  <SCORE.INTER.POLAR>
0

>  <SCORE.INTER.ROT>
8

>  <SCORE.INTER.SOLV>
5.16745

>  <SCORE.INTER.VDW>
-8.18023

>  <SCORE.INTER.norm>
0.116043

>  <SCORE.INTRA>
-8.19954

>  <SCORE.INTRA.DIHEDRAL>
-9.2575

>  <SCORE.INTRA.DIHEDRAL.0>
10.9594

>  <SCORE.INTRA.POLAR>
0

>  <SCORE.INTRA.POLAR.0>
0

>  <SCORE.INTRA.REPUL>
0

>  <SCORE.INTRA.REPUL.0>
0

>  <SCORE.INTRA.SOLV>
-2.78752

>  <SCORE.INTRA.SOLV.lig_0>
-124.914

>  <SCORE.INTRA.VDW>
-2.17703

>  <SCORE.INTRA.VDW.0>
-4.69801

>  <SCORE.INTRA.norm>
-0.256236

>  <SCORE.RESTR>
0.00237982

>  <SCORE.RESTR.CAVITY>
0.00237982

>  <SCORE.RESTR.norm>
7.43693e-05

>  <SCORE.SYSTEM>
0

>  <SCORE.SYSTEM.CONST>
0

>  <SCORE.SYSTEM.DIHEDRAL>
0

>  <SCORE.SYSTEM.SOLV>
0

>  <SCORE.SYSTEM.norm>
0

>  <SCORE.heavy>
32

>  <SCORE.norm>
-0.140118

>  <RMSD>
2.877

$$$$
ligand
 OpenBabel11021811513D
libRbt.so/2013.1/901 2013/11/27
 32 34  0  0  0  0  0  0  0  0999 V2000
   18.5033  -28.7032  -17.6891 P   0  0  1  0  0  0  0  0  0  0  0  0
   16.4000  -29.6042  -15.9584 P   0  0  2  0  0  0  0  0  0  0  0  0
   13.5954  -28.7970  -16.2714 P   0  0  1  0  0  0  0  0  0  0  0  0
   18.2969  -26.1149  -17.9113 C   0  0  0  0  0  0  0  0  0  0  0  0
   18.6637  -27.1811  -17.0827 O   0  0  0  0  0  0  0  0  0  0  0  0
   19.3180  -25.8599  -18.8199 C   0  0  1  0  0  0  0  0  0  0  0  0
   18.7834  -25.0457  -19.9823 O   0  0  0  0  0  0  0  0  0  0  0  0
   20.4748  -24.9759  -18.1623 C   0  0  1  0  0  0  0  0  0  0  0  0
   21.7505  -25.7849  -18.0976 O   0  0  0  0  0  0  0  0  0  0  0  0
   20.6735  -24.0403  -18.9411 C   0  0  1  0  0  0  0  0  0  0  0  0
   21.8239  -24.3662  -19.8175 O   0  0  0  0  0  0  0  0  0  0  0  0
   19.2886  -23.8835  -19.8531 C   0  0  2  0  0  0  0  0  0  0  0  0
   14.4785  -23.2549  -18.1642 N   0  0  0  0  0  0  0  0  0  0  0  0
   18.7886  -28.6962  -19.1706 O   0  5  0  0  0  0  0  0  0  0  0  0
   16.6492  -28.4792  -14.9854 O   0  5  0  0  0  0  0  0  0  0  0  0
   12.5191  -29.4240  -17.1263 O   0  0  0  0  0  0  0  0  0  0  0  0
   15.0094  -24.3205  -18.7432 C   0  0  0  0  0  0  0  0  0  0  0  0
   14.1890  -25.4950  -18.9601 N   0  0  0  0  0  0  0  0  0  0  0  0
   19.4583  -29.6200  -16.9587 O   0  0  0  0  0  0  0  0  0  0  0  0
   17.1276  -30.8400  -15.4977 O   0  0  0  0  0  0  0  0  0  0  0  0
   13.0027  -28.4083  -14.9346 O   0  5  0  0  0  0  0  0  0  0  0  0
   16.2678  -24.3507  -19.1321 N   0  0  0  0  0  0  0  0  0  0  0  0
   16.9562  -29.2009  -17.4492 O   0  0  0  0  0  0  0  0  0  0  0  0
   14.7878  -29.9184  -16.0472 O   0  0  0  0  0  0  0  0  0  0  0  0
   14.1396  -27.5761  -16.9805 O   0  0  0  0  0  0  0  0  0  0  0  0
   17.0595  -23.2868  -18.9505 C   0  0  0  0  0  0  0  0  0  0  0  0
   16.5307  -22.1624  -18.3495 C   0  0  0  0  0  0  0  0  0  0  0  0
   15.1830  -22.1532  -17.9411 C   0  0  0  0  0  0  0  0  0  0  0  0
   14.6165  -21.0230  -17.3258 O   0  0  0  0  0  0  0  0  0  0  0  0
   17.5080  -21.2425  -18.2799 N   0  0  0  0  0  0  0  0  0  0  0  0
   18.5934  -21.7741  -18.8148 C   0  0  0  0  0  0  0  0  0  0  0  0
   18.3421  -23.0029  -19.2263 N   0  0  0  0  0  0  0  0  0  0  0  0
  1  5  1  1  0  0  0
  1 14  1  0  0  0  0
  1 19  2  0  0  0  0
  1 23  1  0  0  0  0
  2 15  1  1  0  0  0
  2 20  2  0  0  0  0
  2 23  1  0  0  0  0
  2 24  1  0  0  0  0
  3 16  1  6  0  0  0
  3 21  1  0  0  0  0
  3 24  1  0  0  0  0
  3 25  2  0  0  0  0
  4  5  1  0  0  0  0
  6  4  1  1  0  0  0
  6  7  1  0  0  0  0
  6  8  1  0  0  0  0
  7 12  1  0  0  0  0
  8  9  1  6  0  0  0
  8 10  1  0  0  0  0
 10 11  1  6  0  0  0
 10 12  1  0  0  0  0
 12 32  1  1  0  0  0
 13 17  2  0  0  0  0
 13 28  1  0  0  0  0
 17 18  1  0  0  0  0
 17 22  1  0  0  0  0
 22 26  2  0  0  0  0
 26 27  1  0  0  0  0
 26 32  1  0  0  0  0
 27 28  2  0  0  0  0
 27 30  1  0  0  0  0
 28 29  1  0  0  0  0
 30 31  2  0  0  0  0
 31 32  1  0  0  0  0
M  CHG  3  14  -1  15  -1  21  -1
M  END
>  <CHROM.1>
34.06274347,53.91533299,144.40490976,161.74839073,-79.41053555,-7.32030234
-72.55125455,49.24998466,17.03951748,-26.36512424,-17.68649439,-2.03964499
0.23123374,-0.29523076

>  <Name>
ligand

>  <RI>
0

>  <Rbt.Current_Directory>
/home/itssahil/PROJECTS/Mol_Feturizer/New_Systems/rnas/4Y1I

>  <Rbt.Executable>
rbdock ($Id: //depot/dev/client3/rdock/2013.1/src/exe/rbdock.cxx#4 $)

>  <Rbt.Library>
libRbt.so (2013.1, Build901 2013/11/27)

>  <Rbt.Parameter_File>
/export/apps/rDock/src/rDock_2013.1_src/data/scripts/dock_solv.prm

>  <Rbt.Receptor>
prm/pocket_docking_2.prm

>  <SCORE>
1.90998

>  <SCORE.INTER>
2.2844

>  <SCORE.INTER.CONST>
1

>  <SCORE.INTER.POLAR>
0

>  <SCORE.INTER.ROT>
8

>  <SCORE.INTER.SOLV>
6.20381

>  <SCORE.INTER.VDW>
-9.47833

>  <SCORE.INTER.norm>
0.0713876

>  <SCORE.INTRA>
-1.04367

>  <SCORE.INTRA.DIHEDRAL>
-3.9803

>  <SCORE.INTRA.DIHEDRAL.0>
10.9594

>  <SCORE.INTRA.POLAR>
0

>  <SCORE.INTRA.POLAR.0>
0

>  <SCORE.INTRA.REPUL>
0

>  <SCORE.INTRA.REPUL.0>
0

>  <SCORE.INTRA.SOLV>
1.95083

>  <SCORE.INTRA.SOLV.lig_0>
-124.914

>  <SCORE.INTRA.VDW>
-0.0289297

>  <SCORE.INTRA.VDW.0>
-4.69801

>  <SCORE.INTRA.norm>
-0.0326146

>  <SCORE.RESTR>
0.669247

>  <SCORE.RESTR.CAVITY>
0.669247

>  <SCORE.RESTR.norm>
0.020914

>  <SCORE.SYSTEM>
0

>  <SCORE.SYSTEM.CONST>
0

>  <SCORE.SYSTEM.DIHEDRAL>
0

>  <SCORE.SYSTEM.SOLV>
0

>  <SCORE.SYSTEM.norm>
0

>  <SCORE.heavy>
32

>  <SCORE.norm>
0.059687

>  <RMSD>
2.915

$$$$
ligand
 OpenBabel11021811513D
libRbt.so/2013.1/901 2013/11/27
 32 34  0  0  0  0  0  0  0  0999 V2000
   18.0381  -28.3580  -18.5233 P   0  0  1  0  0  0  0  0  0  0  0  0
   16.1188  -29.6738  -16.8452 P   0  0  2  0  0  0  0  0  0  0  0  0
   13.4118  -30.3335  -17.7685 P   0  0  1  0  0  0  0  0  0  0  0  0
   18.6929  -26.0285  -17.5556 C   0  0  0  0  0  0  0  0  0  0  0  0
   17.6496  -26.8426  -18.0104 O   0  0  0  0  0  0  0  0  0  0  0  0
   19.6054  -25.8244  -18.5846 C   0  0  1  0  0  0  0  0  0  0  0  0
   18.9111  -25.1841  -19.7711 O   0  0  0  0  0  0  0  0  0  0  0  0
   20.7555  -24.8049  -18.1487 C   0  0  1  0  0  0  0  0  0  0  0  0
   22.0838  -25.5267  -18.1222 O   0  0  0  0  0  0  0  0  0  0  0  0
   20.8169  -23.9575  -19.0428 C   0  0  1  0  0  0  0  0  0  0  0  0
   21.9004  -24.3180  -19.9882 O   0  0  0  0  0  0  0  0  0  0  0  0
   19.3459  -23.9879  -19.8234 C   0  0  2  0  0  0  0  0  0  0  0  0
   14.6251  -23.4009  -17.8855 N   0  0  0  0  0  0  0  0  0  0  0  0
   18.4079  -28.3240  -19.9856 O   0  5  0  0  0  0  0  0  0  0  0  0
   15.6862  -28.4080  -16.1489 O   0  5  0  0  0  0  0  0  0  0  0  0
   12.8565  -29.0695  -17.1551 O   0  0  0  0  0  0  0  0  0  0  0  0
   15.1630  -24.4891  -18.4138 C   0  0  0  0  0  0  0  0  0  0  0  0
   14.3794  -25.7057  -18.4876 N   0  0  0  0  0  0  0  0  0  0  0  0
   19.1869  -28.8742  -17.6867 O   0  0  0  0  0  0  0  0  0  0  0  0
   17.1950  -30.3511  -16.0379 O   0  0  0  0  0  0  0  0  0  0  0  0
   13.6662  -30.0991  -19.2416 O   0  5  0  0  0  0  0  0  0  0  0  0
   16.3957  -24.5048  -18.8784 N   0  0  0  0  0  0  0  0  0  0  0  0
   16.7258  -29.3273  -18.3306 O   0  0  0  0  0  0  0  0  0  0  0  0
   14.8343  -30.6887  -17.0071 O   0  0  0  0  0  0  0  0  0  0  0  0
   12.4125  -31.4537  -17.5790 O   0  0  0  0  0  0  0  0  0  0  0  0
   17.1530  -23.4022  -18.8294 C   0  0  0  0  0  0  0  0  0  0  0  0
   16.6162  -22.2535  -18.2839 C   0  0  0  0  0  0  0  0  0  0  0  0
   15.2965  -22.2604  -17.7926 C   0  0  0  0  0  0  0  0  0  0  0  0
   14.7227  -21.1062  -17.2310 O   0  0  0  0  0  0  0  0  0  0  0  0
   17.5577  -21.2965  -18.3471 N   0  0  0  0  0  0  0  0  0  0  0  0
   18.6295  -21.8295  -18.9076 C   0  0  0  0  0  0  0  0  0  0  0  0
   18.4039  -23.0951  -19.2070 N   0  0  0  0  0  0  0  0  0  0  0  0
  1  5  1  1  0  0  0
  1 14  1  0  0  0  0
  1 19  2  0  0  0  0
  1 23  1  0  0  0  0
  2 15  1  1  0  0  0
  2 20  2  0  0  0  0
  2 23  1  0  0  0  0
  2 24  1  0  0  0  0
  3 16  1  1  0  0  0
  3 21  1  0  0  0  0
  3 24  1  0  0  0  0
  3 25  2  0  0  0  0
  4  5  1  0  0  0  0
  6  4  1  1  0  0  0
  6  7  1  0  0  0  0
  6  8  1  0  0  0  0
  7 12  1  0  0  0  0
  8  9  1  6  0  0  0
  8 10  1  0  0  0  0
 10 11  1  6  0  0  0
 10 12  1  0  0  0  0
 12 32  1  1  0  0  0
 13 17  2  0  0  0  0
 13 28  1  0  0  0  0
 17 18  1  0  0  0  0
 17 22  1  0  0  0  0
 22 26  2  0  0  0  0
 26 27  1  0  0  0  0
 26 32  1  0  0  0  0
 27 28  2  0  0  0  0
 27 30  1  0  0  0  0
 28 29  1  0  0  0  0
 30 31  2  0  0  0  0
 31 32  1  0  0  0  0
M  CHG  3  14  -1  15  -1  21  -1
M  END
>  <CHROM.1>
-87.45202029,60.37555233,-54.29839859,58.44389072,61.09370469,-10.55020121
-64.88783967,57.21111956,16.95254282,-26.58971645,-18.16502826,-2.13463959
0.15087884,-0.09106670

>  <Name>
ligand

>  <RI>
0

>  <Rbt.Current_Directory>
/home/itssahil/PROJECTS/Mol_Feturizer/New_Systems/rnas/4Y1I

>  <Rbt.Executable>
rbdock ($Id: //depot/dev/client3/rdock/2013.1/src/exe/rbdock.cxx#4 $)

>  <Rbt.Library>
libRbt.so (2013.1, Build901 2013/11/27)

>  <Rbt.Parameter_File>
/export/apps/rDock/src/rDock_2013.1_src/data/scripts/dock_solv.prm

>  <Rbt.Receptor>
prm/pocket_docking_2.prm

>  <SCORE>
-1.07549

>  <SCORE.INTER>
3.08318

>  <SCORE.INTER.CONST>
1

>  <SCORE.INTER.POLAR>
0

>  <SCORE.INTER.ROT>
8

>  <SCORE.INTER.SOLV>
6.06646

>  <SCORE.INTER.VDW>
-8.90003

>  <SCORE.INTER.norm>
0.0963494

>  <SCORE.INTRA>
-4.50654

>  <SCORE.INTRA.DIHEDRAL>
-8.61951

>  <SCORE.INTRA.DIHEDRAL.0>
10.9594

>  <SCORE.INTRA.POLAR>
0

>  <SCORE.INTRA.POLAR.0>
0

>  <SCORE.INTRA.REPUL>
0

>  <SCORE.INTRA.REPUL.0>
0

>  <SCORE.INTRA.SOLV>
0.343642

>  <SCORE.INTRA.SOLV.lig_0>
-124.914

>  <SCORE.INTRA.VDW>
-0.368607

>  <SCORE.INTRA.VDW.0>
-4.69801

>  <SCORE.INTRA.norm>
-0.140829

>  <SCORE.RESTR>
0.347867

>  <SCORE.RESTR.CAVITY>
0.347867

>  <SCORE.RESTR.norm>
0.0108708

>  <SCORE.SYSTEM>
0

>  <SCORE.SYSTEM.CONST>
0

>  <SCORE.SYSTEM.DIHEDRAL>
0

>  <SCORE.SYSTEM.SOLV>
0

>  <SCORE.SYSTEM.norm>
0

>  <SCORE.heavy>
32

>  <SCORE.norm>
-0.0336091

>  <RMSD>
2.928

$$$$
ligand
 OpenBabel11021811513D
libRbt.so/2013.1/901 2013/11/27
 32 34  0  0  0  0  0  0  0  0999 V2000
   16.6641  -26.3969  -16.9726 P   0  0  1  0  0  0  0  0  0  0  0  0
   14.2473  -27.8290  -17.5552 P   0  0  2  0  0  0  0  0  0  0  0  0
   11.7798  -26.3424  -18.1181 P   0  0  1  0  0  0  0  0  0  0  0  0
   18.7878  -24.9214  -17.2952 C   0  0  0  0  0  0  0  0  0  0  0  0
   17.4002  -25.0056  -17.4550 O   0  0  0  0  0  0  0  0  0  0  0  0
   19.4164  -25.6404  -18.3058 C   0  0  1  0  0  0  0  0  0  0  0  0
   19.1651  -24.9756  -19.6455 O   0  0  0  0  0  0  0  0  0  0  0  0
   21.0022  -25.6499  -18.1132 C   0  0  1  0  0  0  0  0  0  0  0  0
   21.4676  -27.0632  -17.8448 O   0  0  0  0  0  0  0  0  0  0  0  0
   21.4795  -25.3067  -19.1975 C   0  0  1  0  0  0  0  0  0  0  0  0
   21.8604  -26.5129  -19.9707 O   0  0  0  0  0  0  0  0  0  0  0  0
   20.2808  -24.4718  -19.9974 C   0  0  2  0  0  0  0  0  0  0  0  0
   17.5805  -20.3296  -18.6062 N   0  0  0  0  0  0  0  0  0  0  0  0
   17.5310  -27.5815  -17.3208 O   0  5  0  0  0  0  0  0  0  0  0  0
   13.9569  -28.0289  -16.0889 O   0  5  0  0  0  0  0  0  0  0  0  0
   10.5661  -26.5809  -18.9854 O   0  0  0  0  0  0  0  0  0  0  0  0
   17.1388  -21.5582  -18.8256 C   0  0  0  0  0  0  0  0  0  0  0  0
   15.7265  -21.8441  -18.6728 N   0  0  0  0  0  0  0  0  0  0  0  0
   16.4192  -26.3252  -15.4823 O   0  0  0  0  0  0  0  0  0  0  0  0
   14.9393  -29.0494  -18.1034 O   0  0  0  0  0  0  0  0  0  0  0  0
   11.3554  -26.3258  -16.6657 O   0  5  0  0  0  0  0  0  0  0  0  0
   17.9449  -22.5378  -19.1807 N   0  0  0  0  0  0  0  0  0  0  0  0
   15.2336  -26.5343  -17.7687 O   0  0  0  0  0  0  0  0  0  0  0  0
   12.8421  -27.5816  -18.3738 O   0  0  0  0  0  0  0  0  0  0  0  0
   12.4051  -25.0182  -18.4985 O   0  0  0  0  0  0  0  0  0  0  0  0
   19.2560  -22.3158  -19.3329 C   0  0  0  0  0  0  0  0  0  0  0  0
   19.7427  -21.0435  -19.1108 C   0  0  0  0  0  0  0  0  0  0  0  0
   18.8624  -20.0119  -18.7311 C   0  0  0  0  0  0  0  0  0  0  0  0
   19.3286  -18.7062  -18.4973 O   0  0  0  0  0  0  0  0  0  0  0  0
   21.0692  -21.0739  -19.3243 N   0  0  0  0  0  0  0  0  0  0  0  0
   21.3891  -22.3104  -19.6642 C   0  0  0  0  0  0  0  0  0  0  0  0
   20.3107  -23.0714  -19.6773 N   0  0  0  0  0  0  0  0  0  0  0  0
  1  5  1  6  0  0  0
  1 14  1  0  0  0  0
  1 19  2  0  0  0  0
  1 23  1  0  0  0  0
  2 15  1  1  0  0  0
  2 20  2  0  0  0  0
  2 23  1  0  0  0  0
  2 24  1  0  0  0  0
  3 16  1  6  0  0  0
  3 21  1  0  0  0  0
  3 24  1  0  0  0  0
  3 25  2  0  0  0  0
  4  5  1  0  0  0  0
  6  4  1  1  0  0  0
  6  7  1  0  0  0  0
  6  8  1  0  0  0  0
  7 12  1  0  0  0  0
  8  9  1  6  0  0  0
  8 10  1  0  0  0  0
 10 11  1  6  0  0  0
 10 12  1  0  0  0  0
 12 32  1  1  0  0  0
 13 17  2  0  0  0  0
 13 28  1  0  0  0  0
 17 18  1  0  0  0  0
 17 22  1  0  0  0  0
 22 26  2  0  0  0  0
 26 27  1  0  0  0  0
 26 32  1  0  0  0  0
 27 28  2  0  0  0  0
 27 30  1  0  0  0  0
 28 29  1  0  0  0  0
 30 31  2  0  0  0  0
 31 32  1  0  0  0  0
M  CHG  3  14  -1  15  -1  21  -1
M  END
>  <CHROM.1>
-38.60691535,53.47320927,-174.22158005,66.55693230,77.85819876,-13.48432026
178.54202511,60.69358655,16.96011891,-24.98143866,-18.23186024,-2.58099380
0.09071287,-0.16953137

>  <Name>
ligand

>  <RI>
0

>  <Rbt.Current_Directory>
/home/itssahil/PROJECTS/Mol_Feturizer/New_Systems/rnas/4Y1I

>  <Rbt.Executable>
rbdock ($Id: //depot/dev/client3/rdock/2013.1/src/exe/rbdock.cxx#4 $)

>  <Rbt.Library>
libRbt.so (2013.1, Build901 2013/11/27)

>  <Rbt.Parameter_File>
/export/apps/rDock/src/rDock_2013.1_src/data/scripts/dock_solv.prm

>  <Rbt.Receptor>
prm/pocket_docking_4.prm

>  <SCORE>
-5.53652

>  <SCORE.INTER>
-1.73374

>  <SCORE.INTER.CONST>
1

>  <SCORE.INTER.POLAR>
0

>  <SCORE.INTER.ROT>
8

>  <SCORE.INTER.SOLV>
11.0168

>  <SCORE.INTER.VDW>
-13.7614

>  <SCORE.INTER.norm>
-0.0541793

>  <SCORE.INTRA>
-3.80278

>  <SCORE.INTRA.DIHEDRAL>
-7.25337

>  <SCORE.INTRA.DIHEDRAL.0>
10.9594

>  <SCORE.INTRA.POLAR>
0

>  <SCORE.INTRA.POLAR.0>
0

>  <SCORE.INTRA.REPUL>
0

>  <SCORE.INTRA.REPUL.0>
0

>  <SCORE.INTRA.SOLV>
-0.114613

>  <SCORE.INTRA.SOLV.lig_0>
-124.914

>  <SCORE.INTRA.VDW>
-0.118794

>  <SCORE.INTRA.VDW.0>
-4.69801

>  <SCORE.INTRA.norm>
-0.118837

>  <SCORE.RESTR>
0

>  <SCORE.RESTR.CAVITY>
0

>  <SCORE.RESTR.norm>
0

>  <SCORE.SYSTEM>
0

>  <SCORE.SYSTEM.CONST>
0

>  <SCORE.SYSTEM.DIHEDRAL>
0

>  <SCORE.SYSTEM.SOLV>
0

>  <SCORE.SYSTEM.norm>
0

>  <SCORE.heavy>
32

>  <SCORE.norm>
-0.173016

>  <RMSD>
3.156

$$$$
ligand
 OpenBabel11021811513D
libRbt.so/2013.1/901 2013/11/27
 32 34  0  0  0  0  0  0  0  0999 V2000
   16.9389  -28.6738  -19.8382 P   0  0  1  0  0  0  0  0  0  0  0  0
   16.7395  -27.9115  -17.0796 P   0  0  2  0  0  0  0  0  0  0  0  0
   15.6715  -27.4972  -14.3772 P   0  0  1  0  0  0  0  0  0  0  0  0
   18.8286  -26.9063  -20.1484 C   0  0  0  0  0  0  0  0  0  0  0  0
   18.5186  -28.2161  -19.7661 O   0  0  0  0  0  0  0  0  0  0  0  0
   20.1855  -26.6740  -19.9532 C   0  0  1  0  0  0  0  0  0  0  0  0
   20.5478  -25.2859  -20.4449 O   0  0  0  0  0  0  0  0  0  0  0  0
   20.5629  -26.7003  -18.4011 C   0  0  1  0  0  0  0  0  0  0  0  0
   21.4876  -27.8650  -18.1281 O   0  0  0  0  0  0  0  0  0  0  0  0
   21.2022  -25.6672  -18.1881 C   0  0  1  0  0  0  0  0  0  0  0  0
   22.6531  -25.9664  -18.2453 O   0  0  0  0  0  0  0  0  0  0  0  0
   20.7920  -24.6004  -19.3995 C   0  0  2  0  0  0  0  0  0  0  0  0
   18.7464  -19.9039  -19.0199 N   0  0  0  0  0  0  0  0  0  0  0  0
   16.3347  -28.2225  -21.1449 O   0  5  0  0  0  0  0  0  0  0  0  0
   17.7281  -26.7808  -16.9437 O   0  5  0  0  0  0  0  0  0  0  0  0
   16.8190  -28.3599  -13.9068 O   0  0  0  0  0  0  0  0  0  0  0  0
   19.9615  -20.2364  -19.4270 C   0  0  0  0  0  0  0  0  0  0  0  0
   20.8853  -19.1962  -19.8321 N   0  0  0  0  0  0  0  0  0  0  0  0
   16.8621  -30.1774  -19.6975 O   0  0  0  0  0  0  0  0  0  0  0  0
   17.4309  -29.2216  -16.8073 O   0  0  0  0  0  0  0  0  0  0  0  0
   15.9869  -26.0476  -14.0794 O   0  5  0  0  0  0  0  0  0  0  0  0
   20.3633  -21.4901  -19.4770 N   0  0  0  0  0  0  0  0  0  0  0  0
   16.1295  -27.9542  -18.6030 O   0  0  0  0  0  0  0  0  0  0  0  0
   15.5084  -27.7082  -16.0076 O   0  0  0  0  0  0  0  0  0  0  0  0
   14.4096  -27.9196  -13.6570 O   0  0  0  0  0  0  0  0  0  0  0  0
   19.5410  -22.4809  -19.1113 C   0  0  0  0  0  0  0  0  0  0  0  0
   18.2686  -22.1616  -18.6824 C   0  0  0  0  0  0  0  0  0  0  0  0
   17.8605  -20.8146  -18.6380 C   0  0  0  0  0  0  0  0  0  0  0  0
   16.5707  -20.4584  -18.2062 O   0  0  0  0  0  0  0  0  0  0  0  0
   17.6439  -23.3113  -18.3754 N   0  0  0  0  0  0  0  0  0  0  0  0
   18.4927  -24.2983  -18.6038 C   0  0  0  0  0  0  0  0  0  0  0  0
   19.6404  -23.8179  -19.0446 N   0  0  0  0  0  0  0  0  0  0  0  0
  1  5  1  1  0  0  0
  1 14  1  0  0  0  0
  1 19  2  0  0  0  0
  1 23  1  0  0  0  0
  2 15  1  1  0  0  0
  2 20  2  0  0  0  0
  2 23  1  0  0  0  0
  2 24  1  0  0  0  0
  3 16  1  1  0  0  0
  3 21  1  0  0  0  0
  3 24  1  0  0  0  0
  3 25  2  0  0  0  0
  4  5  1  0  0  0  0
  6  4  1  1  0  0  0
  6  7  1  0  0  0  0
  6  8  1  0  0  0  0
  7 12  1  0  0  0  0
  8  9  1  6  0  0  0
  8 10  1  0  0  0  0
 10 11  1  6  0  0  0
 10 12  1  0  0  0  0
 12 32  1  1  0  0  0
 13 17  2  0  0  0  0
 13 28  1  0  0  0  0
 17 18  1  0  0  0  0
 17 22  1  0  0  0  0
 22 26  2  0  0  0  0
 26 27  1  0  0  0  0
 26 32  1  0  0  0  0
 27 28  2  0  0  0  0
 27 30  1  0  0  0  0
 28 29  1  0  0  0  0
 30 31  2  0  0  0  0
 31 32  1  0  0  0  0
M  CHG  3  14  -1  15  -1  21  -1
M  END
>  <CHROM.1>
45.59418280,82.12883301,-36.86262278,176.50885449,176.65877516,-111.59319173
-44.83247742,-54.05196771,18.15345533,-25.81093609,-18.05847021,-2.25736574
0.83697328,0.15481351

>  <Name>
ligand

>  <RI>
0

>  <Rbt.Current_Directory>
/home/itssahil/PROJECTS/Mol_Feturizer/New_Systems/rnas/4Y1I

>  <Rbt.Executable>
rbdock ($Id: //depot/dev/client3/rdock/2013.1/src/exe/rbdock.cxx#4 $)

>  <Rbt.Library>
libRbt.so (2013.1, Build901 2013/11/27)

>  <Rbt.Parameter_File>
/export/apps/rDock/src/rDock_2013.1_src/data/scripts/dock_solv.prm

>  <Rbt.Receptor>
prm/pocket_docking_3.prm

>  <SCORE>
-5.80578

>  <SCORE.INTER>
-0.479532

>  <SCORE.INTER.CONST>
1

>  <SCORE.INTER.POLAR>
0

>  <SCORE.INTER.ROT>
8

>  <SCORE.INTER.SOLV>
9.72063

>  <SCORE.INTER.VDW>
-12.4932

>  <SCORE.INTER.norm>
-0.0149854

>  <SCORE.INTRA>
-5.32625

>  <SCORE.INTRA.DIHEDRAL>
-7.45055

>  <SCORE.INTRA.DIHEDRAL.0>
10.9594

>  <SCORE.INTRA.POLAR>
0

>  <SCORE.INTRA.POLAR.0>
0

>  <SCORE.INTRA.REPUL>
0

>  <SCORE.INTRA.REPUL.0>
0

>  <SCORE.INTRA.SOLV>
-1.98094

>  <SCORE.INTRA.SOLV.lig_0>
-124.914

>  <SCORE.INTRA.VDW>
-0.610507

>  <SCORE.INTRA.VDW.0>
-4.69801

>  <SCORE.INTRA.norm>
-0.166445

>  <SCORE.RESTR>
0

>  <SCORE.RESTR.CAVITY>
0

>  <SCORE.RESTR.norm>
0

>  <SCORE.SYSTEM>
0

>  <SCORE.SYSTEM.CONST>
0

>  <SCORE.SYSTEM.DIHEDRAL>
0

>  <SCORE.SYSTEM.SOLV>
0

>  <SCORE.SYSTEM.norm>
0

>  <SCORE.heavy>
32

>  <SCORE.norm>
-0.181431

>  <RMSD>
3.158

$$$$
ligand
 OpenBabel11021811513D
libRbt.so/2013.1/901 2013/11/27
 32 34  0  0  0  0  0  0  0  0999 V2000
   19.3502  -27.8986  -17.5783 P   0  0  1  0  0  0  0  0  0  0  0  0
   16.8638  -26.5063  -17.9102 P   0  0  2  0  0  0  0  0  0  0  0  0
   15.0856  -28.0607  -16.1675 P   0  0  1  0  0  0  0  0  0  0  0  0
   21.0916  -26.0289  -18.0916 C   0  0  0  0  0  0  0  0  0  0  0  0
   20.3920  -27.1308  -18.5959 O   0  0  0  0  0  0  0  0  0  0  0  0
   21.9711  -25.5548  -19.0584 C   0  0  1  0  0  0  0  0  0  0  0  0
   21.1986  -25.1072  -20.2843 O   0  0  0  0  0  0  0  0  0  0  0  0
   22.7606  -24.2646  -18.5442 C   0  0  1  0  0  0  0  0  0  0  0  0
   24.2338  -24.5871  -18.4353 O   0  0  0  0  0  0  0  0  0  0  0  0
   22.6363  -23.4138  -19.4285 C   0  0  1  0  0  0  0  0  0  0  0  0
   23.8329  -23.4358  -20.3035 O   0  0  0  0  0  0  0  0  0  0  0  0
   21.2831  -23.8364  -20.3027 C   0  0  2  0  0  0  0  0  0  0  0  0
   18.9009  -19.5406  -18.8002 N   0  0  0  0  0  0  0  0  0  0  0  0
   18.6434  -29.0105  -18.3134 O   0  5  0  0  0  0  0  0  0  0  0  0
   17.1715  -26.4322  -19.3847 O   0  5  0  0  0  0  0  0  0  0  0  0
   16.1985  -28.2395  -15.1616 O   0  0  0  0  0  0  0  0  0  0  0  0
   20.1169  -19.6667  -19.3084 C   0  0  0  0  0  0  0  0  0  0  0  0
   20.9366  -18.4862  -19.4928 N   0  0  0  0  0  0  0  0  0  0  0  0
   20.1306  -28.4388  -16.4013 O   0  0  0  0  0  0  0  0  0  0  0  0
   16.2993  -25.1892  -17.4460 O   0  0  0  0  0  0  0  0  0  0  0  0
   14.1972  -26.9183  -15.7255 O   0  5  0  0  0  0  0  0  0  0  0  0
   20.6116  -20.8374  -19.6553 N   0  0  0  0  0  0  0  0  0  0  0  0
   18.2327  -26.8127  -17.0578 O   0  0  0  0  0  0  0  0  0  0  0  0
   15.7695  -27.7016  -17.6278 O   0  0  0  0  0  0  0  0  0  0  0  0
   14.2885  -29.3438  -16.2542 O   0  0  0  0  0  0  0  0  0  0  0  0
   19.8873  -21.9524  -19.5011 C   0  0  0  0  0  0  0  0  0  0  0  0
   18.6163  -21.8490  -18.9729 C   0  0  0  0  0  0  0  0  0  0  0  0
   18.1079  -20.5870  -18.6100 C   0  0  0  0  0  0  0  0  0  0  0  0
   16.8169  -20.4500  -18.0701 O   0  0  0  0  0  0  0  0  0  0  0  0
   18.0983  -23.0879  -18.9180 N   0  0  0  0  0  0  0  0  0  0  0  0
   19.0088  -23.9211  -19.3909 C   0  0  0  0  0  0  0  0  0  0  0  0
   20.0930  -23.2564  -19.7443 N   0  0  0  0  0  0  0  0  0  0  0  0
  1  5  1  6  0  0  0
  1 14  1  0  0  0  0
  1 19  2  0  0  0  0
  1 23  1  0  0  0  0
  2 15  1  6  0  0  0
  2 20  2  0  0  0  0
  2 23  1  0  0  0  0
  2 24  1  0  0  0  0
  3 16  1  1  0  0  0
  3 21  1  0  0  0  0
  3 24  1  0  0  0  0
  3 25  2  0  0  0  0
  4  5  1  0  0  0  0
  6  4  1  1  0  0  0
  6  7  1  0  0  0  0
  6  8  1  0  0  0  0
  7 12  1  0  0  0  0
  8  9  1  6  0  0  0
  8 10  1  0  0  0  0
 10 11  1  6  0  0  0
 10 12  1  0  0  0  0
 12 32  1  1  0  0  0
 13 17  2  0  0  0  0
 13 28  1  0  0  0  0
 17 18  1  0  0  0  0
 17 22  1  0  0  0  0
 22 26  2  0  0  0  0
 26 27  1  0  0  0  0
 26 32  1  0  0  0  0
 27 28  2  0  0  0  0
 27 30  1  0  0  0  0
 28 29  1  0  0  0  0
 30 31  2  0  0  0  0
 31 32  1  0  0  0  0
M  CHG  3  14  -1  15  -1  21  -1
M  END
>  <CHROM.1>
177.24408533,-41.37374403,-52.39004619,61.16510833,176.80192669,173.88590440
86.61476369,-175.88934293,18.88269585,-25.05182554,-18.22054312,-2.22273121
0.27686773,-0.20550053

>  <Name>
ligand

>  <RI>
0

>  <Rbt.Current_Directory>
/home/itssahil/PROJECTS/Mol_Feturizer/New_Systems/rnas/4Y1I

>  <Rbt.Executable>
rbdock ($Id: //depot/dev/client3/rdock/2013.1/src/exe/rbdock.cxx#4 $)

>  <Rbt.Library>
libRbt.so (2013.1, Build901 2013/11/27)

>  <Rbt.Parameter_File>
/export/apps/rDock/src/rDock_2013.1_src/data/scripts/dock_solv.prm

>  <Rbt.Receptor>
prm/pocket_docking_4.prm

>  <SCORE>
-8.48069

>  <SCORE.INTER>
-1.55763

>  <SCORE.INTER.CONST>
1

>  <SCORE.INTER.POLAR>
0

>  <SCORE.INTER.ROT>
8

>  <SCORE.INTER.SOLV>
12.9488

>  <SCORE.INTER.VDW>
-14.288

>  <SCORE.INTER.norm>
-0.048676

>  <SCORE.INTRA>
-6.92306

>  <SCORE.INTRA.DIHEDRAL>
-8.04621

>  <SCORE.INTRA.DIHEDRAL.0>
10.9594

>  <SCORE.INTRA.POLAR>
0

>  <SCORE.INTRA.POLAR.0>
0

>  <SCORE.INTRA.REPUL>
0

>  <SCORE.INTRA.REPUL.0>
0

>  <SCORE.INTRA.SOLV>
-3.64335

>  <SCORE.INTRA.SOLV.lig_0>
-124.914

>  <SCORE.INTRA.VDW>
-1.07828

>  <SCORE.INTRA.VDW.0>
-4.69801

>  <SCORE.INTRA.norm>
-0.216346

>  <SCORE.RESTR>
0

>  <SCORE.RESTR.CAVITY>
0

>  <SCORE.RESTR.norm>
0

>  <SCORE.SYSTEM>
0

>  <SCORE.SYSTEM.CONST>
0

>  <SCORE.SYSTEM.DIHEDRAL>
0

>  <SCORE.SYSTEM.SOLV>
0

>  <SCORE.SYSTEM.norm>
0

>  <SCORE.heavy>
32

>  <SCORE.norm>
-0.265022

>  <RMSD>
3.166

$$$$
ligand
 OpenBabel11021811513D
libRbt.so/2013.1/901 2013/11/27
 32 34  0  0  0  0  0  0  0  0999 V2000
   16.5678  -28.7344  -19.8822 P   0  0  1  0  0  0  0  0  0  0  0  0
   15.9498  -27.9397  -17.1957 P   0  0  2  0  0  0  0  0  0  0  0  0
   17.2084  -29.8021  -15.3081 P   0  0  1  0  0  0  0  0  0  0  0  0
   18.5412  -27.0339  -19.9583 C   0  0  0  0  0  0  0  0  0  0  0  0
   18.1445  -28.3345  -19.6283 O   0  0  0  0  0  0  0  0  0  0  0  0
   19.8858  -26.8651  -19.6471 C   0  0  1  0  0  0  0  0  0  0  0  0
   20.3621  -25.5099  -20.1334 O   0  0  0  0  0  0  0  0  0  0  0  0
   20.1224  -26.8705  -18.0672 C   0  0  1  0  0  0  0  0  0  0  0  0
   20.9572  -28.0728  -17.6880 O   0  0  0  0  0  0  0  0  0  0  0  0
   20.7935  -25.8658  -17.8194 C   0  0  1  0  0  0  0  0  0  0  0  0
   22.2261  -26.2388  -17.7401 O   0  0  0  0  0  0  0  0  0  0  0  0
   20.5484  -24.8110  -19.0849 C   0  0  2  0  0  0  0  0  0  0  0  0
   18.6889  -20.0229  -19.1191 N   0  0  0  0  0  0  0  0  0  0  0  0
   16.1595  -28.3421  -21.2806 O   0  5  0  0  0  0  0  0  0  0  0  0
   14.6664  -27.8148  -16.4137 O   0  5  0  0  0  0  0  0  0  0  0  0
   17.8447  -28.5992  -14.6519 O   0  0  0  0  0  0  0  0  0  0  0  0
   19.9108  -20.4281  -19.4278 C   0  0  0  0  0  0  0  0  0  0  0  0
   20.9016  -19.4527  -19.8359 N   0  0  0  0  0  0  0  0  0  0  0  0
   16.4036  -30.2221  -19.6681 O   0  0  0  0  0  0  0  0  0  0  0  0
   16.8573  -26.7843  -16.8636 O   0  0  0  0  0  0  0  0  0  0  0  0
   16.0222  -30.2480  -14.4813 O   0  5  0  0  0  0  0  0  0  0  0  0
   20.2603  -21.6973  -19.3767 N   0  0  0  0  0  0  0  0  0  0  0  0
   15.6397  -27.9086  -18.8074 O   0  0  0  0  0  0  0  0  0  0  0  0
   16.7001  -29.3531  -16.8146 O   0  0  0  0  0  0  0  0  0  0  0  0
   18.2322  -30.9123  -15.4007 O   0  0  0  0  0  0  0  0  0  0  0  0
   19.3753  -22.6299  -19.0046 C   0  0  0  0  0  0  0  0  0  0  0  0
   18.0942  -22.2343  -18.6769 C   0  0  0  0  0  0  0  0  0  0  0  0
   17.7429  -20.8720  -18.7395 C   0  0  0  0  0  0  0  0  0  0  0  0
   16.4459  -20.4388  -18.4123 O   0  0  0  0  0  0  0  0  0  0  0  0
   17.4029  -23.3368  -18.3411 N   0  0  0  0  0  0  0  0  0  0  0  0
   18.2204  -24.3690  -18.4556 C   0  0  0  0  0  0  0  0  0  0  0  0
   19.4124  -23.9629  -18.8512 N   0  0  0  0  0  0  0  0  0  0  0  0
  1  5  1  1  0  0  0
  1 14  1  0  0  0  0
  1 19  2  0  0  0  0
  1 23  1  0  0  0  0
  2 15  1  1  0  0  0
  2 20  2  0  0  0  0
  2 23  1  0  0  0  0
  2 24  1  0  0  0  0
  3 16  1  1  0  0  0
  3 21  1  0  0  0  0
  3 24  1  0  0  0  0
  3 25  2  0  0  0  0
  4  5  1  0  0  0  0
  6  4  1  1  0  0  0
  6  7  1  0  0  0  0
  6  8  1  0  0  0  0
  7 12  1  0  0  0  0
  8  9  1  6  0  0  0
  8 10  1  0  0  0  0
 10 11  1  6  0  0  0
 10 12  1  0  0  0  0
 12 32  1  1  0  0  0
 13 17  2  0  0  0  0
 13 28  1  0  0  0  0
 17 18  1  0  0  0  0
 17 22  1  0  0  0  0
 22 26  2  0  0  0  0
 26 27  1  0  0  0  0
 26 32  1  0  0  0  0
 27 28  2  0  0  0  0
 27 30  1  0  0  0  0
 28 29  1  0  0  0  0
 30 31  2  0  0  0  0
 31 32  1  0  0  0  0
M  CHG  3  14  -1  15  -1  21  -1
M  END
>  <CHROM.1>
49.71490768,-148.38920081,-42.08626976,174.10517774,178.45757851,-108.83721148
-52.11308776,-59.52076042,18.08780369,-26.27972909,-18.14885888,1.87446122
-0.13264550,2.89856021

>  <Name>
ligand

>  <RI>
0

>  <Rbt.Current_Directory>
/home/itssahil/PROJECTS/Mol_Feturizer/New_Systems/rnas/4Y1I

>  <Rbt.Executable>
rbdock ($Id: //depot/dev/client3/rdock/2013.1/src/exe/rbdock.cxx#4 $)

>  <Rbt.Library>
libRbt.so (2013.1, Build901 2013/11/27)

>  <Rbt.Parameter_File>
/export/apps/rDock/src/rDock_2013.1_src/data/scripts/dock_solv.prm

>  <Rbt.Receptor>
prm/pocket_docking_3.prm

>  <SCORE>
-6.53044

>  <SCORE.INTER>
0.20082

>  <SCORE.INTER.CONST>
1

>  <SCORE.INTER.POLAR>
0

>  <SCORE.INTER.ROT>
8

>  <SCORE.INTER.SOLV>
9.41973

>  <SCORE.INTER.VDW>
-11.9394

>  <SCORE.INTER.norm>
0.00627562

>  <SCORE.INTRA>
-6.73394

>  <SCORE.INTRA.DIHEDRAL>
-7.5731

>  <SCORE.INTRA.DIHEDRAL.0>
10.9594

>  <SCORE.INTRA.POLAR>
0

>  <SCORE.INTRA.POLAR.0>
0

>  <SCORE.INTRA.REPUL>
0

>  <SCORE.INTRA.REPUL.0>
0

>  <SCORE.INTRA.SOLV>
-4.06964

>  <SCORE.INTRA.SOLV.lig_0>
-124.914

>  <SCORE.INTRA.VDW>
-0.912578

>  <SCORE.INTRA.VDW.0>
-4.69801

>  <SCORE.INTRA.norm>
-0.210436

>  <SCORE.RESTR>
0.00268276

>  <SCORE.RESTR.CAVITY>
0.00268276

>  <SCORE.RESTR.norm>
8.38363e-05

>  <SCORE.SYSTEM>
0

>  <SCORE.SYSTEM.CONST>
0

>  <SCORE.SYSTEM.DIHEDRAL>
0

>  <SCORE.SYSTEM.SOLV>
0

>  <SCORE.SYSTEM.norm>
0

>  <SCORE.heavy>
32

>  <SCORE.norm>
-0.204076

>  <RMSD>
3.180

$$$$
ligand
 OpenBabel11021811513D
libRbt.so/2013.1/901 2013/11/27
 32 34  0  0  0  0  0  0  0  0999 V2000
   15.8386  -26.0444  -15.3802 P   0  0  1  0  0  0  0  0  0  0  0  0
   14.1502  -27.9817  -16.6558 P   0  0  2  0  0  0  0  0  0  0  0  0
   15.5906  -29.6645  -18.5816 P   0  0  1  0  0  0  0  0  0  0  0  0
   17.3687  -25.8136  -17.4771 C   0  0  0  0  0  0  0  0  0  0  0  0
   16.9910  -26.6258  -16.4021 O   0  0  0  0  0  0  0  0  0  0  0  0
   18.1567  -26.5458  -18.3582 C   0  0  1  0  0  0  0  0  0  0  0  0
   18.1823  -25.8672  -19.7142 O   0  0  0  0  0  0  0  0  0  0  0  0
   19.6765  -26.6033  -17.8694 C   0  0  1  0  0  0  0  0  0  0  0  0
   20.0428  -28.0311  -17.5329 O   0  0  0  0  0  0  0  0  0  0  0  0
   20.3599  -26.2689  -18.8403 C   0  0  1  0  0  0  0  0  0  0  0  0
   20.8461  -27.4820  -19.5403 O   0  0  0  0  0  0  0  0  0  0  0  0
   19.3582  -25.3948  -19.8435 C   0  0  2  0  0  0  0  0  0  0  0  0
   16.5606  -21.2291  -18.7457 N   0  0  0  0  0  0  0  0  0  0  0  0
   16.4107  -25.9028  -13.9915 O   0  5  0  0  0  0  0  0  0  0  0  0
   13.8041  -27.0572  -17.7959 O   0  5  0  0  0  0  0  0  0  0  0  0
   15.8129  -28.5589  -19.5869 O   0  0  0  0  0  0  0  0  0  0  0  0
   16.1337  -22.4500  -19.0281 C   0  0  0  0  0  0  0  0  0  0  0  0
   14.7099  -22.7186  -19.0481 N   0  0  0  0  0  0  0  0  0  0  0  0
   15.3532  -24.7115  -15.9037 O   0  0  0  0  0  0  0  0  0  0  0  0
   12.9465  -28.8133  -16.2974 O   0  0  0  0  0  0  0  0  0  0  0  0
   16.8043  -30.5680  -18.5622 O   0  5  0  0  0  0  0  0  0  0  0  0
   16.9647  -23.4372  -19.2936 N   0  0  0  0  0  0  0  0  0  0  0  0
   14.5931  -27.1145  -15.3342 O   0  0  0  0  0  0  0  0  0  0  0  0
   15.3886  -28.9710  -17.0958 O   0  0  0  0  0  0  0  0  0  0  0  0
   14.3576  -30.4482  -18.9753 O   0  0  0  0  0  0  0  0  0  0  0  0
   18.2872  -23.2311  -19.2857 C   0  0  0  0  0  0  0  0  0  0  0  0
   18.7590  -21.9670  -18.9948 C   0  0  0  0  0  0  0  0  0  0  0  0
   17.8520  -20.9272  -18.7133 C   0  0  0  0  0  0  0  0  0  0  0  0
   18.3026  -19.6296  -18.4129 O   0  0  0  0  0  0  0  0  0  0  0  0
   20.1011  -22.0131  -19.0484 N   0  0  0  0  0  0  0  0  0  0  0  0
   20.4444  -23.2509  -19.3594 C   0  0  0  0  0  0  0  0  0  0  0  0
   19.3663  -23.9976  -19.5087 N   0  0  0  0  0  0  0  0  0  0  0  0
  1  5  1  6  0  0  0
  1 14  1  0  0  0  0
  1 19  2  0  0  0  0
  1 23  1  0  0  0  0
  2 15  1  6  0  0  0
  2 20  2  0  0  0  0
  2 23  1  0  0  0  0
  2 24  1  0  0  0  0
  3 16  1  6  0  0  0
  3 21  1  0  0  0  0
  3 24  1  0  0  0  0
  3 25  2  0  0  0  0
  4  5  1  0  0  0  0
  6  4  1  1  0  0  0
  6  7  1  0  0  0  0
  6  8  1  0  0  0  0
  7 12  1  0  0  0  0
  8  9  1  6  0  0  0
  8 10  1  0  0  0  0
 10 11  1  6  0  0  0
 10 12  1  0  0  0  0
 12 32  1  1  0  0  0
 13 17  2  0  0  0  0
 13 28  1  0  0  0  0
 17 18  1  0  0  0  0
 17 22  1  0  0  0  0
 22 26  2  0  0  0  0
 26 27  1  0  0  0  0
 26 32  1  0  0  0  0
 27 28  2  0  0  0  0
 27 30  1  0  0  0  0
 28 29  1  0  0  0  0
 30 31  2  0  0  0  0
 31 32  1  0  0  0  0
M  CHG  3  14  -1  15  -1  21  -1
M  END
>  <CHROM.1>
-118.17144672,-57.46962099,64.47614177,160.90961184,-169.32816406,-9.34372692
-34.46072333,-38.98283945,16.89600016,-25.97244598,-17.92170444,2.14475166
-0.49925521,-3.09073462

>  <Name>
ligand

>  <RI>
0

>  <Rbt.Current_Directory>
/home/itssahil/PROJECTS/Mol_Feturizer/New_Systems/rnas/4Y1I

>  <Rbt.Executable>
rbdock ($Id: //depot/dev/client3/rdock/2013.1/src/exe/rbdock.cxx#4 $)

>  <Rbt.Library>
libRbt.so (2013.1, Build901 2013/11/27)

>  <Rbt.Parameter_File>
/export/apps/rDock/src/rDock_2013.1_src/data/scripts/dock_solv.prm

>  <Rbt.Receptor>
prm/pocket_docking_3.prm

>  <SCORE>
-2.20311

>  <SCORE.INTER>
2.02593

>  <SCORE.INTER.CONST>
1

>  <SCORE.INTER.POLAR>
0

>  <SCORE.INTER.ROT>
8

>  <SCORE.INTER.SOLV>
7.63827

>  <SCORE.INTER.VDW>
-10.1288

>  <SCORE.INTER.norm>
0.0633104

>  <SCORE.INTRA>
-4.2338

>  <SCORE.INTRA.DIHEDRAL>
-4.01271

>  <SCORE.INTRA.DIHEDRAL.0>
10.9594

>  <SCORE.INTRA.POLAR>
0

>  <SCORE.INTRA.POLAR.0>
0

>  <SCORE.INTRA.REPUL>
0

>  <SCORE.INTRA.REPUL.0>
0

>  <SCORE.INTRA.SOLV>
-2.52101

>  <SCORE.INTRA.SOLV.lig_0>
-124.914

>  <SCORE.INTRA.VDW>
-0.966946

>  <SCORE.INTRA.VDW.0>
-4.69801

>  <SCORE.INTRA.norm>
-0.132306

>  <SCORE.RESTR>
0.00476378

>  <SCORE.RESTR.CAVITY>
0.00476378

>  <SCORE.RESTR.norm>
0.000148868

>  <SCORE.SYSTEM>
0

>  <SCORE.SYSTEM.CONST>
0

>  <SCORE.SYSTEM.DIHEDRAL>
0

>  <SCORE.SYSTEM.SOLV>
0

>  <SCORE.SYSTEM.norm>
0

>  <SCORE.heavy>
32

>  <SCORE.norm>
-0.0688471

>  <RMSD>
3.187

$$$$
ligand
 OpenBabel11021811513D
libRbt.so/2013.1/901 2013/11/27
 32 34  0  0  0  0  0  0  0  0999 V2000
   15.5544  -29.3802  -17.5397 P   0  0  1  0  0  0  0  0  0  0  0  0
   14.6974  -30.4211  -20.0721 P   0  0  2  0  0  0  0  0  0  0  0  0
   16.7798  -30.9657  -22.0676 P   0  0  1  0  0  0  0  0  0  0  0  0
   17.1137  -27.6872  -18.7619 C   0  0  0  0  0  0  0  0  0  0  0  0
   17.0343  -28.9102  -18.0867 O   0  0  0  0  0  0  0  0  0  0  0  0
   18.4483  -27.3508  -18.9587 C   0  0  1  0  0  0  0  0  0  0  0  0
   18.5444  -26.0378  -19.7115 O   0  0  0  0  0  0  0  0  0  0  0  0
   19.1997  -27.1138  -17.5689 C   0  0  1  0  0  0  0  0  0  0  0  0
   20.2690  -28.1675  -17.3894 O   0  0  0  0  0  0  0  0  0  0  0  0
   19.7712  -26.0256  -17.6714 C   0  0  1  0  0  0  0  0  0  0  0  0
   21.1841  -26.2473  -18.0618 O   0  0  0  0  0  0  0  0  0  0  0  0
   18.9743  -25.1852  -18.8683 C   0  0  2  0  0  0  0  0  0  0  0  0
   16.5828  -20.6419  -18.7112 N   0  0  0  0  0  0  0  0  0  0  0  0
   15.6399  -30.7725  -16.9651 O   0  5  0  0  0  0  0  0  0  0  0  0
   13.5492  -30.2766  -21.0391 O   0  5  0  0  0  0  0  0  0  0  0  0
   15.7649  -31.0472  -23.1837 O   0  0  0  0  0  0  0  0  0  0  0  0
   17.6745  -20.9688  -19.3850 C   0  0  0  0  0  0  0  0  0  0  0  0
   18.3315  -19.9692  -20.2028 N   0  0  0  0  0  0  0  0  0  0  0  0
   15.0863  -28.3919  -16.4954 O   0  0  0  0  0  0  0  0  0  0  0  0
   14.7336  -31.8294  -19.5389 O   0  0  0  0  0  0  0  0  0  0  0  0
   18.0227  -30.2696  -22.5779 O   0  5  0  0  0  0  0  0  0  0  0  0
   18.1886  -22.1809  -19.3376 N   0  0  0  0  0  0  0  0  0  0  0  0
   14.5088  -29.3926  -18.8067 O   0  0  0  0  0  0  0  0  0  0  0  0
   16.1156  -30.0876  -20.8359 O   0  0  0  0  0  0  0  0  0  0  0  0
   17.1147  -32.3661  -21.6026 O   0  0  0  0  0  0  0  0  0  0  0  0
   17.6126  -23.1332  -18.5941 C   0  0  0  0  0  0  0  0  0  0  0  0
   16.4734  -22.8188  -17.8812 C   0  0  0  0  0  0  0  0  0  0  0  0
   15.9412  -21.5167  -17.9476 C   0  0  0  0  0  0  0  0  0  0  0  0
   14.7818  -21.1667  -17.2332 O   0  0  0  0  0  0  0  0  0  0  0  0
   16.0889  -23.9255  -17.2227 N   0  0  0  0  0  0  0  0  0  0  0  0
   16.9526  -24.8823  -17.5149 C   0  0  0  0  0  0  0  0  0  0  0  0
   17.8781  -24.4236  -18.3367 N   0  0  0  0  0  0  0  0  0  0  0  0
  1  5  1  6  0  0  0
  1 14  1  0  0  0  0
  1 19  2  0  0  0  0
  1 23  1  0  0  0  0
  2 15  1  6  0  0  0
  2 20  2  0  0  0  0
  2 23  1  0  0  0  0
  2 24  1  0  0  0  0
  3 16  1  6  0  0  0
  3 21  1  0  0  0  0
  3 24  1  0  0  0  0
  3 25  2  0  0  0  0
  4  5  1  0  0  0  0
  6  4  1  1  0  0  0
  6  7  1  0  0  0  0
  6  8  1  0  0  0  0
  7 12  1  0  0  0  0
  8  9  1  6  0  0  0
  8 10  1  0  0  0  0
 10 11  1  6  0  0  0
 10 12  1  0  0  0  0
 12 32  1  1  0  0  0
 13 17  2  0  0  0  0
 13 28  1  0  0  0  0
 17 18  1  0  0  0  0
 17 22  1  0  0  0  0
 22 26  2  0  0  0  0
 26 27  1  0  0  0  0
 26 32  1  0  0  0  0
 27 28  2  0  0  0  0
 27 30  1  0  0  0  0
 28 29  1  0  0  0  0
 30 31  2  0  0  0  0
 31 32  1  0  0  0  0
M  CHG  3  14  -1  15  -1  21  -1
M  END
>  <CHROM.1>
174.41694378,176.28275046,56.28631296,179.02311214,170.50370125,-109.07541484
64.44122540,-65.24723172,16.84872213,-27.23136041,-19.13466143,1.76339537
-0.33371285,-2.83589491

>  <Name>
ligand

>  <RI>
0

>  <Rbt.Current_Directory>
/home/itssahil/PROJECTS/Mol_Feturizer/New_Systems/rnas/4Y1I

>  <Rbt.Executable>
rbdock ($Id: //depot/dev/client3/rdock/2013.1/src/exe/rbdock.cxx#4 $)

>  <Rbt.Library>
libRbt.so (2013.1, Build901 2013/11/27)

>  <Rbt.Parameter_File>
/export/apps/rDock/src/rDock_2013.1_src/data/scripts/dock_solv.prm

>  <Rbt.Receptor>
prm/pocket_docking_5.prm

>  <SCORE>
-3.78803

>  <SCORE.INTER>
3.53807

>  <SCORE.INTER.CONST>
1

>  <SCORE.INTER.POLAR>
0

>  <SCORE.INTER.ROT>
8

>  <SCORE.INTER.SOLV>
9.96203

>  <SCORE.INTER.VDW>
-9.89529

>  <SCORE.INTER.norm>
0.110565

>  <SCORE.INTRA>
-7.3261

>  <SCORE.INTRA.DIHEDRAL>
-9.14569

>  <SCORE.INTRA.DIHEDRAL.0>
10.9594

>  <SCORE.INTRA.POLAR>
0

>  <SCORE.INTRA.POLAR.0>
0

>  <SCORE.INTRA.REPUL>
0

>  <SCORE.INTRA.REPUL.0>
0

>  <SCORE.INTRA.SOLV>
-5.05836

>  <SCORE.INTRA.SOLV.lig_0>
-124.914

>  <SCORE.INTRA.VDW>
-0.224079

>  <SCORE.INTRA.VDW.0>
-4.69801

>  <SCORE.INTRA.norm>
-0.228941

>  <SCORE.RESTR>
0

>  <SCORE.RESTR.CAVITY>
0

>  <SCORE.RESTR.norm>
0

>  <SCORE.SYSTEM>
0

>  <SCORE.SYSTEM.CONST>
0

>  <SCORE.SYSTEM.DIHEDRAL>
0

>  <SCORE.SYSTEM.SOLV>
0

>  <SCORE.SYSTEM.norm>
0

>  <SCORE.heavy>
32

>  <SCORE.norm>
-0.118376

>  <RMSD>
3.228

$$$$
ligand
 OpenBabel11021811513D
libRbt.so/2013.1/901 2013/11/27
 32 34  0  0  0  0  0  0  0  0999 V2000
   19.0677  -28.6595  -17.7962 P   0  0  1  0  0  0  0  0  0  0  0  0
   16.8305  -28.2867  -16.0393 P   0  0  2  0  0  0  0  0  0  0  0  0
   15.0607  -27.3968  -13.8734 P   0  0  1  0  0  0  0  0  0  0  0  0
   20.0746  -26.6574  -19.1263 C   0  0  0  0  0  0  0  0  0  0  0  0
   20.3497  -27.7799  -18.3375 O   0  0  0  0  0  0  0  0  0  0  0  0
   21.2677  -26.0944  -19.5654 C   0  0  1  0  0  0  0  0  0  0  0  0
   20.9833  -25.0268  -20.6043 O   0  0  0  0  0  0  0  0  0  0  0  0
   22.0340  -25.3533  -18.3756 C   0  0  1  0  0  0  0  0  0  0  0  0
   23.3402  -26.0632  -18.0996 O   0  0  0  0  0  0  0  0  0  0  0  0
   22.3108  -24.2277  -18.7970 C   0  0  1  0  0  0  0  0  0  0  0  0
   23.7034  -24.2218  -19.3054 O   0  0  0  0  0  0  0  0  0  0  0  0
   21.2484  -23.9154  -20.0411 C   0  0  2  0  0  0  0  0  0  0  0  0
   18.8268  -19.5484  -18.8368 N   0  0  0  0  0  0  0  0  0  0  0  0
   18.1987  -29.0666  -18.9604 O   0  5  0  0  0  0  0  0  0  0  0  0
   17.0910  -29.6445  -15.4369 O   0  5  0  0  0  0  0  0  0  0  0  0
   15.1456  -26.3340  -12.8030 O   0  0  0  0  0  0  0  0  0  0  0  0
   20.0625  -19.7013  -19.2867 C   0  0  0  0  0  0  0  0  0  0  0  0
   20.8953  -18.5329  -19.4893 N   0  0  0  0  0  0  0  0  0  0  0  0
   19.5879  -29.8730  -17.0592 O   0  0  0  0  0  0  0  0  0  0  0  0
   15.7368  -28.3933  -17.0694 O   0  0  0  0  0  0  0  0  0  0  0  0
   13.7919  -27.1948  -14.6726 O   0  5  0  0  0  0  0  0  0  0  0  0
   20.5655  -20.8880  -19.5590 N   0  0  0  0  0  0  0  0  0  0  0  0
   18.1839  -27.7221  -16.7770 O   0  0  0  0  0  0  0  0  0  0  0  0
   16.3740  -27.2322  -14.8621 O   0  0  0  0  0  0  0  0  0  0  0  0
   15.0569  -28.7596  -13.2159 O   0  0  0  0  0  0  0  0  0  0  0  0
   19.8296  -21.9926  -19.3855 C   0  0  0  0  0  0  0  0  0  0  0  0
   18.5380  -21.8613  -18.9170 C   0  0  0  0  0  0  0  0  0  0  0  0
   18.0211  -20.5825  -18.6333 C   0  0  0  0  0  0  0  0  0  0  0  0
   16.7092  -20.4170  -18.1555 O   0  0  0  0  0  0  0  0  0  0  0  0
   18.0118  -23.0947  -18.8282 N   0  0  0  0  0  0  0  0  0  0  0  0
   18.9372  -23.9514  -19.2238 C   0  0  0  0  0  0  0  0  0  0  0  0
   20.0388  -23.3069  -19.5606 N   0  0  0  0  0  0  0  0  0  0  0  0
  1  5  1  6  0  0  0
  1 14  1  0  0  0  0
  1 19  2  0  0  0  0
  1 23  1  0  0  0  0
  2 15  1  1  0  0  0
  2 20  2  0  0  0  0
  2 23  1  0  0  0  0
  2 24  1  0  0  0  0
  3 16  1  1  0  0  0
  3 21  1  0  0  0  0
  3 24  1  0  0  0  0
  3 25  2  0  0  0  0
  4  5  1  0  0  0  0
  6  4  1  1  0  0  0
  6  7  1  0  0  0  0
  6  8  1  0  0  0  0
  7 12  1  0  0  0  0
  8  9  1  6  0  0  0
  8 10  1  0  0  0  0
 10 11  1  6  0  0  0
 10 12  1  0  0  0  0
 12 32  1  1  0  0  0
 13 17  2  0  0  0  0
 13 28  1  0  0  0  0
 17 18  1  0  0  0  0
 17 22  1  0  0  0  0
 22 26  2  0  0  0  0
 26 27  1  0  0  0  0
 26 32  1  0  0  0  0
 27 28  2  0  0  0  0
 27 30  1  0  0  0  0
 28 29  1  0  0  0  0
 30 31  2  0  0  0  0
 31 32  1  0  0  0  0
M  CHG  3  14  -1  15  -1  21  -1
M  END
>  <CHROM.1>
54.23134472,47.26649652,170.83229512,170.48241062,-175.97901759,-153.25283789
-179.55849399,-59.26682678,18.67418757,-25.53186864,-17.55212565,-2.20592003
0.58456981,-0.19866348

>  <Name>
ligand

>  <RI>
0

>  <Rbt.Current_Directory>
/home/itssahil/PROJECTS/Mol_Feturizer/New_Systems/rnas/4Y1I

>  <Rbt.Executable>
rbdock ($Id: //depot/dev/client3/rdock/2013.1/src/exe/rbdock.cxx#4 $)

>  <Rbt.Library>
libRbt.so (2013.1, Build901 2013/11/27)

>  <Rbt.Parameter_File>
/export/apps/rDock/src/rDock_2013.1_src/data/scripts/dock_solv.prm

>  <Rbt.Receptor>
prm/pocket_docking_7.prm

>  <SCORE>
-7.18775

>  <SCORE.INTER>
-2.81937

>  <SCORE.INTER.CONST>
1

>  <SCORE.INTER.POLAR>
0

>  <SCORE.INTER.ROT>
8

>  <SCORE.INTER.SOLV>
9.43888

>  <SCORE.INTER.VDW>
-13.9592

>  <SCORE.INTER.norm>
-0.0881053

>  <SCORE.INTRA>
-4.36839

>  <SCORE.INTRA.DIHEDRAL>
-8.90567

>  <SCORE.INTRA.DIHEDRAL.0>
10.9594

>  <SCORE.INTRA.POLAR>
0

>  <SCORE.INTRA.POLAR.0>
0

>  <SCORE.INTRA.REPUL>
0

>  <SCORE.INTRA.REPUL.0>
0

>  <SCORE.INTRA.SOLV>
-1.65341

>  <SCORE.INTRA.SOLV.lig_0>
-124.914

>  <SCORE.INTRA.VDW>
0.911154

>  <SCORE.INTRA.VDW.0>
-4.69801

>  <SCORE.INTRA.norm>
-0.136512

>  <SCORE.RESTR>
0

>  <SCORE.RESTR.CAVITY>
0

>  <SCORE.RESTR.norm>
0

>  <SCORE.SYSTEM>
0

>  <SCORE.SYSTEM.CONST>
0

>  <SCORE.SYSTEM.DIHEDRAL>
0

>  <SCORE.SYSTEM.SOLV>
0

>  <SCORE.SYSTEM.norm>
0

>  <SCORE.heavy>
32

>  <SCORE.norm>
-0.224617

>  <RMSD>
3.243

$$$$
ligand
 OpenBabel11021811513D
libRbt.so/2013.1/901 2013/11/27
 32 34  0  0  0  0  0  0  0  0999 V2000
   18.0041  -27.9386  -17.3852 P   0  0  1  0  0  0  0  0  0  0  0  0
   16.2691  -27.9125  -15.1004 P   0  0  2  0  0  0  0  0  0  0  0  0
   13.6629  -26.5970  -15.4040 P   0  0  1  0  0  0  0  0  0  0  0  0
   19.2277  -25.7604  -18.1266 C   0  0  0  0  0  0  0  0  0  0  0  0
   18.5039  -26.8825  -18.5450 O   0  0  0  0  0  0  0  0  0  0  0  0
   20.0820  -25.3524  -19.1450 C   0  0  1  0  0  0  0  0  0  0  0  0
   19.2872  -24.6779  -20.2465 O   0  0  0  0  0  0  0  0  0  0  0  0
   21.1250  -24.2592  -18.6263 C   0  0  1  0  0  0  0  0  0  0  0  0
   22.5249  -24.8261  -18.6979 O   0  0  0  0  0  0  0  0  0  0  0  0
   21.0668  -23.3245  -19.4290 C   0  0  1  0  0  0  0  0  0  0  0  0
   22.1556  -23.4639  -20.4255 O   0  0  0  0  0  0  0  0  0  0  0  0
   19.5861  -23.4414  -20.1825 C   0  0  2  0  0  0  0  0  0  0  0  0
   14.7289  -23.4086  -18.5116 N   0  0  0  0  0  0  0  0  0  0  0  0
   17.3184  -29.1183  -18.0289 O   0  5  0  0  0  0  0  0  0  0  0  0
   17.3015  -28.0769  -14.0134 O   0  5  0  0  0  0  0  0  0  0  0  0
   14.0799  -25.6358  -16.4925 O   0  0  0  0  0  0  0  0  0  0  0  0
   15.3446  -24.3436  -19.2183 C   0  0  0  0  0  0  0  0  0  0  0  0
   14.6184  -25.5363  -19.6052 N   0  0  0  0  0  0  0  0  0  0  0  0
   19.2061  -28.3833  -16.5829 O   0  0  0  0  0  0  0  0  0  0  0  0
   15.7658  -29.2666  -15.5269 O   0  0  0  0  0  0  0  0  0  0  0  0
   13.0630  -27.8331  -16.0377 O   0  5  0  0  0  0  0  0  0  0  0  0
   16.6045  -24.2266  -19.5851 N   0  0  0  0  0  0  0  0  0  0  0  0
   16.9311  -27.1707  -16.4066 O   0  0  0  0  0  0  0  0  0  0  0  0
   15.0112  -27.0106  -14.5436 O   0  0  0  0  0  0  0  0  0  0  0  0
   12.6481  -25.9189  -14.5098 O   0  0  0  0  0  0  0  0  0  0  0  0
   17.3108  -23.1406  -19.2485 C   0  0  0  0  0  0  0  0  0  0  0  0
   16.6927  -22.1503  -18.5121 C   0  0  0  0  0  0  0  0  0  0  0  0
   15.3451  -22.2973  -18.1305 C   0  0  0  0  0  0  0  0  0  0  0  0
   14.6887  -21.3060  -17.3799 O   0  0  0  0  0  0  0  0  0  0  0  0
   17.5959  -21.1775  -18.3025 N   0  0  0  0  0  0  0  0  0  0  0  0
   18.7230  -21.5493  -18.8840 C   0  0  0  0  0  0  0  0  0  0  0  0
   18.5700  -22.7267  -19.4607 N   0  0  0  0  0  0  0  0  0  0  0  0
  1  5  1  6  0  0  0
  1 14  1  0  0  0  0
  1 19  2  0  0  0  0
  1 23  1  0  0  0  0
  2 15  1  1  0  0  0
  2 20  2  0  0  0  0
  2 23  1  0  0  0  0
  2 24  1  0  0  0  0
  3 16  1  6  0  0  0
  3 21  1  0  0  0  0
  3 24  1  0  0  0  0
  3 25  2  0  0  0  0
  4  5  1  0  0  0  0
  6  4  1  1  0  0  0
  6  7  1  0  0  0  0
  6  8  1  0  0  0  0
  7 12  1  0  0  0  0
  8  9  1  6  0  0  0
  8 10  1  0  0  0  0
 10 11  1  6  0  0  0
 10 12  1  0  0  0  0
 12 32  1  1  0  0  0
 13 17  2  0  0  0  0
 13 28  1  0  0  0  0
 17 18  1  0  0  0  0
 17 22  1  0  0  0  0
 22 26  2  0  0  0  0
 26 27  1  0  0  0  0
 26 32  1  0  0  0  0
 27 28  2  0  0  0  0
 27 30  1  0  0  0  0
 28 29  1  0  0  0  0
 30 31  2  0  0  0  0
 31 32  1  0  0  0  0
M  CHG  3  14  -1  15  -1  21  -1
M  END
>  <CHROM.1>
-176.58595369,71.65019879,-68.14678773,73.92665234,151.73410730,-20.01378312
-177.63893780,-179.66115169,17.12699271,-25.50278956,-17.55974856,-2.37249476
0.34033481,-0.46211466

>  <Name>
ligand

>  <RI>
0

>  <Rbt.Current_Directory>
/home/itssahil/PROJECTS/Mol_Feturizer/New_Systems/rnas/4Y1I

>  <Rbt.Executable>
rbdock ($Id: //depot/dev/client3/rdock/2013.1/src/exe/rbdock.cxx#4 $)

>  <Rbt.Library>
libRbt.so (2013.1, Build901 2013/11/27)

>  <Rbt.Parameter_File>
/export/apps/rDock/src/rDock_2013.1_src/data/scripts/dock_solv.prm

>  <Rbt.Receptor>
prm/pocket_docking_3.prm

>  <SCORE>
-3.46659

>  <SCORE.INTER>
1.5919

>  <SCORE.INTER.CONST>
1

>  <SCORE.INTER.POLAR>
0

>  <SCORE.INTER.ROT>
8

>  <SCORE.INTER.SOLV>
7.95208

>  <SCORE.INTER.VDW>
-10.5228

>  <SCORE.INTER.norm>
0.0497468

>  <SCORE.INTRA>
-5.05848

>  <SCORE.INTRA.DIHEDRAL>
-5.39306

>  <SCORE.INTRA.DIHEDRAL.0>
10.9594

>  <SCORE.INTRA.POLAR>
0

>  <SCORE.INTRA.POLAR.0>
0

>  <SCORE.INTRA.REPUL>
0

>  <SCORE.INTRA.REPUL.0>
0

>  <SCORE.INTRA.SOLV>
-2.64509

>  <SCORE.INTRA.SOLV.lig_0>
-124.914

>  <SCORE.INTRA.VDW>
-1.03941

>  <SCORE.INTRA.VDW.0>
-4.69801

>  <SCORE.INTRA.norm>
-0.158078

>  <SCORE.RESTR>
0

>  <SCORE.RESTR.CAVITY>
0

>  <SCORE.RESTR.norm>
0

>  <SCORE.SYSTEM>
0

>  <SCORE.SYSTEM.CONST>
0

>  <SCORE.SYSTEM.DIHEDRAL>
0

>  <SCORE.SYSTEM.SOLV>
0

>  <SCORE.SYSTEM.norm>
0

>  <SCORE.heavy>
32

>  <SCORE.norm>
-0.108331

>  <RMSD>
3.286

$$$$
ligand
 OpenBabel11021811513D
libRbt.so/2013.1/901 2013/11/27
 32 34  0  0  0  0  0  0  0  0999 V2000
   18.2304  -28.6752  -17.1438 P   0  0  1  0  0  0  0  0  0  0  0  0
   18.1407  -30.5685  -19.2975 P   0  0  2  0  0  0  0  0  0  0  0  0
   15.9568  -30.4289  -21.2536 P   0  0  1  0  0  0  0  0  0  0  0  0
   19.3826  -27.0202  -18.7945 C   0  0  0  0  0  0  0  0  0  0  0  0
   19.5737  -27.9877  -17.8018 O   0  0  0  0  0  0  0  0  0  0  0  0
   20.6168  -26.6009  -19.2785 C   0  0  1  0  0  0  0  0  0  0  0  0
   20.4194  -25.5572  -20.3609 O   0  0  0  0  0  0  0  0  0  0  0  0
   21.4782  -25.8892  -18.1369 C   0  0  1  0  0  0  0  0  0  0  0  0
   22.7120  -26.7147  -17.8496 O   0  0  0  0  0  0  0  0  0  0  0  0
   21.8578  -24.8171  -18.6144 C   0  0  1  0  0  0  0  0  0  0  0  0
   23.2330  -24.9749  -19.1451 O   0  0  0  0  0  0  0  0  0  0  0  0
   20.8064  -24.4545  -19.8542 C   0  0  2  0  0  0  0  0  0  0  0  0
   18.8146  -19.8097  -18.9355 N   0  0  0  0  0  0  0  0  0  0  0  0
   18.6325  -29.6739  -16.0869 O   0  5  0  0  0  0  0  0  0  0  0  0
   18.8005  -31.6369  -18.4624 O   0  5  0  0  0  0  0  0  0  0  0  0
   16.7499  -29.4696  -22.1098 O   0  0  0  0  0  0  0  0  0  0  0  0
   20.0122  -20.1058  -19.4159 C   0  0  0  0  0  0  0  0  0  0  0  0
   20.9303  -19.0347  -19.7470 N   0  0  0  0  0  0  0  0  0  0  0  0
   17.3650  -27.5839  -16.5554 O   0  0  0  0  0  0  0  0  0  0  0  0
   19.1808  -29.8632  -20.1279 O   0  0  0  0  0  0  0  0  0  0  0  0
   15.2244  -31.4036  -22.1498 O   0  5  0  0  0  0  0  0  0  0  0  0
   20.4015  -21.3500  -19.6052 N   0  0  0  0  0  0  0  0  0  0  0  0
   17.4105  -29.4606  -18.3311 O   0  0  0  0  0  0  0  0  0  0  0  0
   17.0174  -31.2488  -20.2882 O   0  0  0  0  0  0  0  0  0  0  0  0
   14.9722  -29.6432  -20.4154 O   0  0  0  0  0  0  0  0  0  0  0  0
   19.5839  -22.3685  -19.3119 C   0  0  0  0  0  0  0  0  0  0  0  0
   18.3297  -22.0875  -18.8091 C   0  0  0  0  0  0  0  0  0  0  0  0
   17.9347  -20.7497  -18.6158 C   0  0  0  0  0  0  0  0  0  0  0  0
   16.6635  -20.4323  -18.1058 O   0  0  0  0  0  0  0  0  0  0  0  0
   17.7063  -23.2591  -18.5970 N   0  0  0  0  0  0  0  0  0  0  0  0
   18.5384  -24.2224  -18.9525 C   0  0  0  0  0  0  0  0  0  0  0  0
   19.6743  -23.7059  -19.3828 N   0  0  0  0  0  0  0  0  0  0  0  0
  1  5  1  6  0  0  0
  1 14  1  0  0  0  0
  1 19  2  0  0  0  0
  1 23  1  0  0  0  0
  2 15  1  1  0  0  0
  2 20  2  0  0  0  0
  2 23  1  0  0  0  0
  2 24  1  0  0  0  0
  3 16  1  6  0  0  0
  3 21  1  0  0  0  0
  3 24  1  0  0  0  0
  3 25  2  0  0  0  0
  4  5  1  0  0  0  0
  6  4  1  1  0  0  0
  6  7  1  0  0  0  0
  6  8  1  0  0  0  0
  7 12  1  0  0  0  0
  8  9  1  6  0  0  0
  8 10  1  0  0  0  0
 10 11  1  6  0  0  0
 10 12  1  0  0  0  0
 12 32  1  1  0  0  0
 13 17  2  0  0  0  0
 13 28  1  0  0  0  0
 17 18  1  0  0  0  0
 17 22  1  0  0  0  0
 22 26  2  0  0  0  0
 26 27  1  0  0  0  0
 26 32  1  0  0  0  0
 27 28  2  0  0  0  0
 27 30  1  0  0  0  0
 28 29  1  0  0  0  0
 30 31  2  0  0  0  0
 31 32  1  0  0  0  0
M  CHG  3  14  -1  15  -1  21  -1
M  END
>  <CHROM.1>
-179.27539509,54.57578214,53.31214756,179.68885007,-177.05787338,-150.61316700
53.13050296,173.26998311,18.75470589,-26.56006900,-19.12626810,-1.88007475
-0.40879401,-0.04201523

>  <Name>
ligand

>  <RI>
0

>  <Rbt.Current_Directory>
/home/itssahil/PROJECTS/Mol_Feturizer/New_Systems/rnas/4Y1I

>  <Rbt.Executable>
rbdock ($Id: //depot/dev/client3/rdock/2013.1/src/exe/rbdock.cxx#4 $)

>  <Rbt.Library>
libRbt.so (2013.1, Build901 2013/11/27)

>  <Rbt.Parameter_File>
/export/apps/rDock/src/rDock_2013.1_src/data/scripts/dock_solv.prm

>  <Rbt.Receptor>
prm/pocket_docking_4.prm

>  <SCORE>
-6.96305

>  <SCORE.INTER>
-0.44568

>  <SCORE.INTER.CONST>
1

>  <SCORE.INTER.POLAR>
0

>  <SCORE.INTER.ROT>
8

>  <SCORE.INTER.SOLV>
9.1705

>  <SCORE.INTER.VDW>
-12.2873

>  <SCORE.INTER.norm>
-0.0139275

>  <SCORE.INTRA>
-6.51737

>  <SCORE.INTRA.DIHEDRAL>
-9.39172

>  <SCORE.INTRA.DIHEDRAL.0>
10.9594

>  <SCORE.INTRA.POLAR>
0

>  <SCORE.INTRA.POLAR.0>
0

>  <SCORE.INTRA.REPUL>
0

>  <SCORE.INTRA.REPUL.0>
0

>  <SCORE.INTRA.SOLV>
-4.45074

>  <SCORE.INTRA.SOLV.lig_0>
-124.914

>  <SCORE.INTRA.VDW>
0.403861

>  <SCORE.INTRA.VDW.0>
-4.69801

>  <SCORE.INTRA.norm>
-0.203668

>  <SCORE.RESTR>
0

>  <SCORE.RESTR.CAVITY>
0

>  <SCORE.RESTR.norm>
0

>  <SCORE.SYSTEM>
0

>  <SCORE.SYSTEM.CONST>
0

>  <SCORE.SYSTEM.DIHEDRAL>
0

>  <SCORE.SYSTEM.SOLV>
0

>  <SCORE.SYSTEM.norm>
0

>  <SCORE.heavy>
32

>  <SCORE.norm>
-0.217595

>  <RMSD>
3.335

$$$$
ligand
 OpenBabel11021811513D
libRbt.so/2013.1/901 2013/11/27
 32 34  0  0  0  0  0  0  0  0999 V2000
   18.5805  -27.7731  -17.6362 P   0  0  1  0  0  0  0  0  0  0  0  0
   16.9698  -28.4166  -19.9215 P   0  0  2  0  0  0  0  0  0  0  0  0
   14.9979  -29.6052  -21.7420 P   0  0  1  0  0  0  0  0  0  0  0  0
   20.6259  -26.2102  -18.0418 C   0  0  0  0  0  0  0  0  0  0  0  0
   19.7916  -27.1919  -18.5877 O   0  0  0  0  0  0  0  0  0  0  0  0
   21.5386  -25.7891  -19.0026 C   0  0  1  0  0  0  0  0  0  0  0  0
   20.8018  -25.2788  -20.2260 O   0  0  0  0  0  0  0  0  0  0  0  0
   22.4135  -24.5609  -18.4753 C   0  0  1  0  0  0  0  0  0  0  0  0
   23.8608  -24.9848  -18.3663 O   0  0  0  0  0  0  0  0  0  0  0  0
   22.3503  -23.6958  -19.3522 C   0  0  1  0  0  0  0  0  0  0  0  0
   23.5448  -23.7924  -20.2250 O   0  0  0  0  0  0  0  0  0  0  0  0
   20.9735  -24.0167  -20.2328 C   0  0  2  0  0  0  0  0  0  0  0  0
   18.8442  -19.5656  -18.8049 N   0  0  0  0  0  0  0  0  0  0  0  0
   19.1654  -28.4862  -16.4422 O   0  5  0  0  0  0  0  0  0  0  0  0
   18.0066  -28.1415  -20.9815 O   0  5  0  0  0  0  0  0  0  0  0  0
   14.2673  -30.9256  -21.8124 O   0  0  0  0  0  0  0  0  0  0  0  0
   20.0434  -19.7681  -19.3279 C   0  0  0  0  0  0  0  0  0  0  0  0
   20.9207  -18.6373  -19.5546 N   0  0  0  0  0  0  0  0  0  0  0  0
   17.7072  -26.6177  -17.2018 O   0  0  0  0  0  0  0  0  0  0  0  0
   16.1549  -27.1734  -19.6781 O   0  0  0  0  0  0  0  0  0  0  0  0
   13.9879  -28.4866  -21.6064 O   0  5  0  0  0  0  0  0  0  0  0  0
   20.4705  -20.9714  -19.6522 N   0  0  0  0  0  0  0  0  0  0  0  0
   17.6957  -28.8444  -18.5127 O   0  0  0  0  0  0  0  0  0  0  0  0
   15.9787  -29.6341  -20.4129 O   0  0  0  0  0  0  0  0  0  0  0  0
   15.8151  -29.4260  -23.0028 O   0  0  0  0  0  0  0  0  0  0  0  0
   19.6915  -22.0425  -19.4588 C   0  0  0  0  0  0  0  0  0  0  0  0
   18.4364  -21.8593  -18.9145 C   0  0  0  0  0  0  0  0  0  0  0  0
   18.0007  -20.5636  -18.5762 C   0  0  0  0  0  0  0  0  0  0  0  0
   16.7276  -20.3455  -18.0208 O   0  0  0  0  0  0  0  0  0  0  0  0
   17.8552  -23.0674  -18.8203 N   0  0  0  0  0  0  0  0  0  0  0  0
   18.7130  -23.9588  -19.2853 C   0  0  0  0  0  0  0  0  0  0  0  0
   19.8247  -23.3612  -19.6717 N   0  0  0  0  0  0  0  0  0  0  0  0
  1  5  1  6  0  0  0
  1 14  1  0  0  0  0
  1 19  2  0  0  0  0
  1 23  1  0  0  0  0
  2 15  1  6  0  0  0
  2 20  2  0  0  0  0
  2 23  1  0  0  0  0
  2 24  1  0  0  0  0
  3 16  1  6  0  0  0
  3 21  1  0  0  0  0
  3 24  1  0  0  0  0
  3 25  2  0  0  0  0
  4  5  1  0  0  0  0
  6  4  1  1  0  0  0
  6  7  1  0  0  0  0
  6  8  1  0  0  0  0
  7 12  1  0  0  0  0
  8  9  1  6  0  0  0
  8 10  1  0  0  0  0
 10 11  1  6  0  0  0
 10 12  1  0  0  0  0
 12 32  1  1  0  0  0
 13 17  2  0  0  0  0
 13 28  1  0  0  0  0
 17 18  1  0  0  0  0
 17 22  1  0  0  0  0
 22 26  2  0  0  0  0
 26 27  1  0  0  0  0
 26 32  1  0  0  0  0
 27 28  2  0  0  0  0
 27 30  1  0  0  0  0
 28 29  1  0  0  0  0
 30 31  2  0  0  0  0
 31 32  1  0  0  0  0
M  CHG  3  14  -1  15  -1  21  -1
M  END
>  <CHROM.1>
-64.10808678,68.16904931,-179.93205701,57.04557546,-176.85277716,176.27442710
-57.76754055,-61.93000543,18.62836481,-25.62715341,-19.47683347,-2.13941133
-0.31274666,0.01700963

>  <Name>
ligand

>  <RI>
0

>  <Rbt.Current_Directory>
/home/itssahil/PROJECTS/Mol_Feturizer/New_Systems/rnas/4Y1I

>  <Rbt.Executable>
rbdock ($Id: //depot/dev/client3/rdock/2013.1/src/exe/rbdock.cxx#4 $)

>  <Rbt.Library>
libRbt.so (2013.1, Build901 2013/11/27)

>  <Rbt.Parameter_File>
/export/apps/rDock/src/rDock_2013.1_src/data/scripts/dock_solv.prm

>  <Rbt.Receptor>
prm/pocket_docking_4.prm

>  <SCORE>
-6.05099

>  <SCORE.INTER>
-0.0676163

>  <SCORE.INTER.CONST>
1

>  <SCORE.INTER.POLAR>
0

>  <SCORE.INTER.ROT>
8

>  <SCORE.INTER.SOLV>
11.918

>  <SCORE.INTER.VDW>
-12.9511

>  <SCORE.INTER.norm>
-0.00211301

>  <SCORE.INTRA>
-5.98338

>  <SCORE.INTRA.DIHEDRAL>
-9.51276

>  <SCORE.INTRA.DIHEDRAL.0>
10.9594

>  <SCORE.INTRA.POLAR>
0

>  <SCORE.INTRA.POLAR.0>
0

>  <SCORE.INTRA.REPUL>
0

>  <SCORE.INTRA.REPUL.0>
0

>  <SCORE.INTRA.SOLV>
-2.08416

>  <SCORE.INTRA.SOLV.lig_0>
-124.914

>  <SCORE.INTRA.VDW>
-0.184915

>  <SCORE.INTRA.VDW.0>
-4.69801

>  <SCORE.INTRA.norm>
-0.186981

>  <SCORE.RESTR>
0

>  <SCORE.RESTR.CAVITY>
0

>  <SCORE.RESTR.norm>
0

>  <SCORE.SYSTEM>
0

>  <SCORE.SYSTEM.CONST>
0

>  <SCORE.SYSTEM.DIHEDRAL>
0

>  <SCORE.SYSTEM.SOLV>
0

>  <SCORE.SYSTEM.norm>
0

>  <SCORE.heavy>
32

>  <SCORE.norm>
-0.189094

>  <RMSD>
3.370

$$$$
ligand
 OpenBabel11021811513D
libRbt.so/2013.1/901 2013/11/27
 32 34  0  0  0  0  0  0  0  0999 V2000
   18.8820  -27.6045  -17.8736 P   0  0  1  0  0  0  0  0  0  0  0  0
   16.6388  -26.5635  -16.4190 P   0  0  2  0  0  0  0  0  0  0  0  0
   15.8144  -28.0930  -14.0534 P   0  0  1  0  0  0  0  0  0  0  0  0
   20.9565  -26.0592  -18.1898 C   0  0  0  0  0  0  0  0  0  0  0  0
   20.1194  -27.0109  -18.7827 O   0  0  0  0  0  0  0  0  0  0  0  0
   21.8567  -25.5793  -19.1345 C   0  0  1  0  0  0  0  0  0  0  0  0
   21.1076  -25.0827  -20.3560 O   0  0  0  0  0  0  0  0  0  0  0  0
   22.6684  -24.3208  -18.5780 C   0  0  1  0  0  0  0  0  0  0  0  0
   24.1329  -24.6784  -18.4622 O   0  0  0  0  0  0  0  0  0  0  0  0
   22.5723  -23.4445  -19.4406 C   0  0  1  0  0  0  0  0  0  0  0  0
   23.7777  -23.4698  -20.3033 O   0  0  0  0  0  0  0  0  0  0  0  0
   21.2200  -23.8139  -20.3397 C   0  0  2  0  0  0  0  0  0  0  0  0
   18.8963  -19.5007  -18.7964 N   0  0  0  0  0  0  0  0  0  0  0  0
   17.9670  -28.4377  -18.7366 O   0  5  0  0  0  0  0  0  0  0  0  0
   15.5483  -27.0659  -17.3315 O   0  5  0  0  0  0  0  0  0  0  0  0
   15.4374  -26.8562  -13.2721 O   0  0  0  0  0  0  0  0  0  0  0  0
   20.1119  -19.6390  -19.3022 C   0  0  0  0  0  0  0  0  0  0  0  0
   20.9495  -18.4686  -19.4706 N   0  0  0  0  0  0  0  0  0  0  0  0
   19.4602  -28.4287  -16.7454 O   0  0  0  0  0  0  0  0  0  0  0  0
   16.2281  -25.2433  -15.8214 O   0  0  0  0  0  0  0  0  0  0  0  0
   14.5747  -28.6630  -14.7075 O   0  5  0  0  0  0  0  0  0  0  0  0
   20.5906  -20.8129  -19.6607 N   0  0  0  0  0  0  0  0  0  0  0  0
   18.0291  -26.3403  -17.2628 O   0  0  0  0  0  0  0  0  0  0  0  0
   16.9039  -27.6518  -15.2143 O   0  0  0  0  0  0  0  0  0  0  0  0
   16.4239  -29.1060  -13.1090 O   0  0  0  0  0  0  0  0  0  0  0  0
   19.8494  -21.9187  -19.5214 C   0  0  0  0  0  0  0  0  0  0  0  0
   18.5784  -21.8026  -18.9960 C   0  0  0  0  0  0  0  0  0  0  0  0
   18.0873  -20.5373  -18.6204 C   0  0  0  0  0  0  0  0  0  0  0  0
   16.7967  -20.3874  -18.0831 O   0  0  0  0  0  0  0  0  0  0  0  0
   18.0419  -23.0342  -18.9567 N   0  0  0  0  0  0  0  0  0  0  0  0
   18.9417  -23.8753  -19.4361 C   0  0  0  0  0  0  0  0  0  0  0  0
   20.0367  -23.2228  -19.7786 N   0  0  0  0  0  0  0  0  0  0  0  0
  1  5  1  6  0  0  0
  1 14  1  0  0  0  0
  1 19  2  0  0  0  0
  1 23  1  0  0  0  0
  2 15  1  6  0  0  0
  2 20  2  0  0  0  0
  2 23  1  0  0  0  0
  2 24  1  0  0  0  0
  3 16  1  1  0  0  0
  3 21  1  0  0  0  0
  3 24  1  0  0  0  0
  3 25  2  0  0  0  0
  4  5  1  0  0  0  0
  6  4  1  1  0  0  0
  6  7  1  0  0  0  0
  6  8  1  0  0  0  0
  7 12  1  0  0  0  0
  8  9  1  6  0  0  0
  8 10  1  0  0  0  0
 10 11  1  6  0  0  0
 10 12  1  0  0  0  0
 12 32  1  1  0  0  0
 13 17  2  0  0  0  0
 13 28  1  0  0  0  0
 17 18  1  0  0  0  0
 17 22  1  0  0  0  0
 22 26  2  0  0  0  0
 26 27  1  0  0  0  0
 26 32  1  0  0  0  0
 27 28  2  0  0  0  0
 27 30  1  0  0  0  0
 28 29  1  0  0  0  0
 30 31  2  0  0  0  0
 31 32  1  0  0  0  0
M  CHG  3  14  -1  15  -1  21  -1
M  END
>  <CHROM.1>
170.96021572,-68.80621891,-60.13197044,53.44036967,-174.32858330,174.94019376
174.24076899,-63.60567949,18.83731639,-25.02146025,-17.69199474,-2.22765330
0.51560587,-0.26711621

>  <Name>
ligand

>  <RI>
0

>  <Rbt.Current_Directory>
/home/itssahil/PROJECTS/Mol_Feturizer/New_Systems/rnas/4Y1I

>  <Rbt.Executable>
rbdock ($Id: //depot/dev/client3/rdock/2013.1/src/exe/rbdock.cxx#4 $)

>  <Rbt.Library>
libRbt.so (2013.1, Build901 2013/11/27)

>  <Rbt.Parameter_File>
/export/apps/rDock/src/rDock_2013.1_src/data/scripts/dock_solv.prm

>  <Rbt.Receptor>
prm/pocket_docking_4.prm

>  <SCORE>
-10.2672

>  <SCORE.INTER>
-3.14017

>  <SCORE.INTER.CONST>
1

>  <SCORE.INTER.POLAR>
0

>  <SCORE.INTER.ROT>
8

>  <SCORE.INTER.SOLV>
14.0013

>  <SCORE.INTER.VDW>
-15.6939

>  <SCORE.INTER.norm>
-0.0981302

>  <SCORE.INTRA>
-7.12708

>  <SCORE.INTRA.DIHEDRAL>
-9.12626

>  <SCORE.INTRA.DIHEDRAL.0>
10.9594

>  <SCORE.INTRA.POLAR>
0

>  <SCORE.INTRA.POLAR.0>
0

>  <SCORE.INTRA.REPUL>
0

>  <SCORE.INTRA.REPUL.0>
0

>  <SCORE.INTRA.SOLV>
-4.60487

>  <SCORE.INTRA.SOLV.lig_0>
-124.914

>  <SCORE.INTRA.VDW>
-0.261516

>  <SCORE.INTRA.VDW.0>
-4.69801

>  <SCORE.INTRA.norm>
-0.222721

>  <SCORE.RESTR>
0

>  <SCORE.RESTR.CAVITY>
0

>  <SCORE.RESTR.norm>
0

>  <SCORE.SYSTEM>
0

>  <SCORE.SYSTEM.CONST>
0

>  <SCORE.SYSTEM.DIHEDRAL>
0

>  <SCORE.SYSTEM.SOLV>
0

>  <SCORE.SYSTEM.norm>
0

>  <SCORE.heavy>
32

>  <SCORE.norm>
-0.320851

>  <RMSD>
3.452

$$$$
ligand
 OpenBabel11021811513D
libRbt.so/2013.1/901 2013/11/27
 32 34  0  0  0  0  0  0  0  0999 V2000
   19.0286  -28.6296  -17.7239 P   0  0  1  0  0  0  0  0  0  0  0  0
   16.7763  -28.0145  -16.0567 P   0  0  2  0  0  0  0  0  0  0  0  0
   15.8639  -25.2267  -15.9524 P   0  0  1  0  0  0  0  0  0  0  0  0
   20.0826  -26.7388  -19.1749 C   0  0  0  0  0  0  0  0  0  0  0  0
   20.3314  -27.8384  -18.3461 O   0  0  0  0  0  0  0  0  0  0  0  0
   21.2894  -26.1751  -19.5737 C   0  0  1  0  0  0  0  0  0  0  0  0
   21.0348  -25.0640  -20.5740 O   0  0  0  0  0  0  0  0  0  0  0  0
   22.0466  -25.4914  -18.3444 C   0  0  1  0  0  0  0  0  0  0  0  0
   23.3392  -26.2289  -18.0770 O   0  0  0  0  0  0  0  0  0  0  0  0
   22.3442  -24.3539  -18.7171 C   0  0  1  0  0  0  0  0  0  0  0  0
   23.7445  -24.3469  -19.2041 O   0  0  0  0  0  0  0  0  0  0  0  0
   21.3053  -23.9792  -19.9638 C   0  0  2  0  0  0  0  0  0  0  0  0
   18.8027  -19.6104  -18.9461 N   0  0  0  0  0  0  0  0  0  0  0  0
   18.2063  -29.2197  -18.8427 O   0  5  0  0  0  0  0  0  0  0  0  0
   17.1404  -29.0797  -15.0531 O   0  5  0  0  0  0  0  0  0  0  0  0
   17.1880  -24.6706  -16.4212 O   0  0  0  0  0  0  0  0  0  0  0  0
   20.0257  -19.7586  -19.4308 C   0  0  0  0  0  0  0  0  0  0  0  0
   20.8168  -18.5838  -19.7365 N   0  0  0  0  0  0  0  0  0  0  0  0
   19.5189  -29.7091  -16.7855 O   0  0  0  0  0  0  0  0  0  0  0  0
   15.7641  -28.5619  -17.0285 O   0  0  0  0  0  0  0  0  0  0  0  0
   14.9380  -25.3699  -17.1407 O   0  5  0  0  0  0  0  0  0  0  0  0
   20.5528  -20.9465  -19.6469 N   0  0  0  0  0  0  0  0  0  0  0  0
   18.1055  -27.5490  -16.9001 O   0  0  0  0  0  0  0  0  0  0  0  0
   16.1417  -26.7102  -15.2807 O   0  0  0  0  0  0  0  0  0  0  0  0
   15.2668  -24.2833  -14.9311 O   0  0  0  0  0  0  0  0  0  0  0  0
   19.8556  -22.0570  -19.3777 C   0  0  0  0  0  0  0  0  0  0  0  0
   18.5780  -21.9306  -18.8709 C   0  0  0  0  0  0  0  0  0  0  0  0
   18.0348  -20.6505  -18.6488 C   0  0  0  0  0  0  0  0  0  0  0  0
   16.7362  -20.4900  -18.1342 O   0  0  0  0  0  0  0  0  0  0  0  0
   18.0910  -23.1695  -18.6859 N   0  0  0  0  0  0  0  0  0  0  0  0
   19.0263  -24.0246  -19.0611 C   0  0  0  0  0  0  0  0  0  0  0  0
   20.0963  -23.3738  -19.4779 N   0  0  0  0  0  0  0  0  0  0  0  0
  1  5  1  6  0  0  0
  1 14  1  0  0  0  0
  1 19  2  0  0  0  0
  1 23  1  0  0  0  0
  2 15  1  1  0  0  0
  2 20  2  0  0  0  0
  2 23  1  0  0  0  0
  2 24  1  0  0  0  0
  3 16  1  6  0  0  0
  3 21  1  0  0  0  0
  3 24  1  0  0  0  0
  3 25  2  0  0  0  0
  4  5  1  0  0  0  0
  6  4  1  1  0  0  0
  6  7  1  0  0  0  0
  6  8  1  0  0  0  0
  7 12  1  0  0  0  0
  8  9  1  6  0  0  0
  8 10  1  0  0  0  0
 10 11  1  6  0  0  0
 10 12  1  0  0  0  0
 12 32  1  1  0  0  0
 13 17  2  0  0  0  0
 13 28  1  0  0  0  0
 17 18  1  0  0  0  0
 17 22  1  0  0  0  0
 22 26  2  0  0  0  0
 26 27  1  0  0  0  0
 26 32  1  0  0  0  0
 27 28  2  0  0  0  0
 27 30  1  0  0  0  0
 28 29  1  0  0  0  0
 30 31  2  0  0  0  0
 31 32  1  0  0  0  0
M  CHG  3  14  -1  15  -1  21  -1
M  END
>  <CHROM.1>
62.53757260,55.74242647,-61.01744701,174.75855868,178.27908910,-146.29910593
-175.58495176,168.26841391,18.82397453,-25.14316671,-17.90523495,-2.00959845
0.45326264,-0.19684338

>  <Name>
ligand

>  <RI>
0

>  <Rbt.Current_Directory>
/home/itssahil/PROJECTS/Mol_Feturizer/New_Systems/rnas/4Y1I

>  <Rbt.Executable>
rbdock ($Id: //depot/dev/client3/rdock/2013.1/src/exe/rbdock.cxx#4 $)

>  <Rbt.Library>
libRbt.so (2013.1, Build901 2013/11/27)

>  <Rbt.Parameter_File>
/export/apps/rDock/src/rDock_2013.1_src/data/scripts/dock_solv.prm

>  <Rbt.Receptor>
prm/pocket_docking_4.prm

>  <SCORE>
-10.5984

>  <SCORE.INTER>
-3.94023

>  <SCORE.INTER.CONST>
1

>  <SCORE.INTER.POLAR>
0

>  <SCORE.INTER.ROT>
8

>  <SCORE.INTER.SOLV>
10.2966

>  <SCORE.INTER.VDW>
-14.9924

>  <SCORE.INTER.norm>
-0.123132

>  <SCORE.INTRA>
-6.65818

>  <SCORE.INTRA.DIHEDRAL>
-9.30681

>  <SCORE.INTRA.DIHEDRAL.0>
10.9594

>  <SCORE.INTRA.POLAR>
0

>  <SCORE.INTRA.POLAR.0>
0

>  <SCORE.INTRA.REPUL>
0

>  <SCORE.INTRA.REPUL.0>
0

>  <SCORE.INTRA.SOLV>
-4.35223

>  <SCORE.INTRA.SOLV.lig_0>
-124.914

>  <SCORE.INTRA.VDW>
0.171341

>  <SCORE.INTRA.VDW.0>
-4.69801

>  <SCORE.INTRA.norm>
-0.208068

>  <SCORE.RESTR>
0

>  <SCORE.RESTR.CAVITY>
0

>  <SCORE.RESTR.norm>
0

>  <SCORE.SYSTEM>
0

>  <SCORE.SYSTEM.CONST>
0

>  <SCORE.SYSTEM.DIHEDRAL>
0

>  <SCORE.SYSTEM.SOLV>
0

>  <SCORE.SYSTEM.norm>
0

>  <SCORE.heavy>
32

>  <SCORE.norm>
-0.3312

>  <RMSD>
3.490

$$$$
ligand
 OpenBabel11021811513D
libRbt.so/2013.1/901 2013/11/27
 32 34  0  0  0  0  0  0  0  0999 V2000
   18.1471  -28.1621  -21.3200 P   0  0  1  0  0  0  0  0  0  0  0  0
   16.9622  -27.6471  -18.7584 P   0  0  2  0  0  0  0  0  0  0  0  0
   16.9164  -29.8949  -16.8715 P   0  0  1  0  0  0  0  0  0  0  0  0
   19.8252  -26.2096  -20.9160 C   0  0  0  0  0  0  0  0  0  0  0  0
   19.6155  -27.5911  -20.8425 O   0  0  0  0  0  0  0  0  0  0  0  0
   21.1043  -25.9089  -20.4614 C   0  0  1  0  0  0  0  0  0  0  0  0
   21.3697  -24.4234  -20.6115 O   0  0  0  0  0  0  0  0  0  0  0  0
   21.2571  -26.2249  -18.9029 C   0  0  1  0  0  0  0  0  0  0  0  0
   22.2620  -27.3383  -18.7118 O   0  0  0  0  0  0  0  0  0  0  0  0
   21.7356  -25.2083  -18.3941 C   0  0  1  0  0  0  0  0  0  0  0  0
   23.2046  -25.3651  -18.2706 O   0  0  0  0  0  0  0  0  0  0  0  0
   21.3814  -23.9518  -19.4283 C   0  0  2  0  0  0  0  0  0  0  0  0
   18.6601  -19.6187  -18.9767 N   0  0  0  0  0  0  0  0  0  0  0  0
   17.9003  -27.7958  -22.7626 O   0  5  0  0  0  0  0  0  0  0  0  0
   15.7422  -26.9788  -18.1758 O   0  5  0  0  0  0  0  0  0  0  0  0
   15.7332  -29.3062  -16.1395 O   0  0  0  0  0  0  0  0  0  0  0  0
   19.9346  -19.7533  -19.3086 C   0  0  0  0  0  0  0  0  0  0  0  0
   20.7236  -18.5721  -19.5946 N   0  0  0  0  0  0  0  0  0  0  0  0
   18.1247  -29.6622  -21.1315 O   0  0  0  0  0  0  0  0  0  0  0  0
   18.2046  -27.0132  -18.1897 O   0  0  0  0  0  0  0  0  0  0  0  0
   16.7493  -31.3964  -16.9567 O   0  5  0  0  0  0  0  0  0  0  0  0
   20.5152  -20.9332  -19.3887 N   0  0  0  0  0  0  0  0  0  0  0  0
   16.9872  -27.4639  -20.3895 O   0  0  0  0  0  0  0  0  0  0  0  0
   16.9484  -29.2508  -18.3925 O   0  0  0  0  0  0  0  0  0  0  0  0
   18.1832  -29.5485  -16.1201 O   0  0  0  0  0  0  0  0  0  0  0  0
   19.8219  -22.0490  -19.1322 C   0  0  0  0  0  0  0  0  0  0  0  0
   18.4912  -21.9368  -18.7834 C   0  0  0  0  0  0  0  0  0  0  0  0
   17.8914  -20.6652  -18.7048 C   0  0  0  0  0  0  0  0  0  0  0  0
   16.5380  -20.5191  -18.3526 O   0  0  0  0  0  0  0  0  0  0  0  0
   18.0198  -23.1785  -18.5784 N   0  0  0  0  0  0  0  0  0  0  0  0
   19.0151  -24.0218  -18.7905 C   0  0  0  0  0  0  0  0  0  0  0  0
   20.1082  -23.3604  -19.1222 N   0  0  0  0  0  0  0  0  0  0  0  0
  1  5  1  1  0  0  0
  1 14  1  0  0  0  0
  1 19  2  0  0  0  0
  1 23  1  0  0  0  0
  2 15  1  1  0  0  0
  2 20  2  0  0  0  0
  2 23  1  0  0  0  0
  2 24  1  0  0  0  0
  3 16  1  1  0  0  0
  3 21  1  0  0  0  0
  3 24  1  0  0  0  0
  3 25  2  0  0  0  0
  4  5  1  0  0  0  0
  6  4  1  1  0  0  0
  6  7  1  0  0  0  0
  6  8  1  0  0  0  0
  7 12  1  0  0  0  0
  8  9  1  6  0  0  0
  8 10  1  0  0  0  0
 10 11  1  6  0  0  0
 10 12  1  0  0  0  0
 12 32  1  1  0  0  0
 13 17  2  0  0  0  0
 13 28  1  0  0  0  0
 17 18  1  0  0  0  0
 17 22  1  0  0  0  0
 22 26  2  0  0  0  0
 26 27  1  0  0  0  0
 26 32  1  0  0  0  0
 27 28  2  0  0  0  0
 27 30  1  0  0  0  0
 28 29  1  0  0  0  0
 30 31  2  0  0  0  0
 31 32  1  0  0  0  0
M  CHG  3  14  -1  15  -1  21  -1
M  END
>  <CHROM.1>
59.66103979,-176.20482478,54.62217961,176.77321377,179.29592810,-101.48385401
-59.98793504,-58.63860694,18.78593463,-25.84558250,-19.06122132,-1.91069627
0.48192075,0.05834665

>  <Name>
ligand

>  <RI>
0

>  <Rbt.Current_Directory>
/home/itssahil/PROJECTS/Mol_Feturizer/New_Systems/rnas/4Y1I

>  <Rbt.Executable>
rbdock ($Id: //depot/dev/client3/rdock/2013.1/src/exe/rbdock.cxx#4 $)

>  <Rbt.Library>
libRbt.so (2013.1, Build901 2013/11/27)

>  <Rbt.Parameter_File>
/export/apps/rDock/src/rDock_2013.1_src/data/scripts/dock_solv.prm

>  <Rbt.Receptor>
prm/pocket_docking_7.prm

>  <SCORE>
-7.0536

>  <SCORE.INTER>
0.159713

>  <SCORE.INTER.CONST>
1

>  <SCORE.INTER.POLAR>
0

>  <SCORE.INTER.ROT>
8

>  <SCORE.INTER.SOLV>
7.49444

>  <SCORE.INTER.VDW>
-11.325

>  <SCORE.INTER.norm>
0.00499104

>  <SCORE.INTRA>
-7.21332

>  <SCORE.INTRA.DIHEDRAL>
-9.63015

>  <SCORE.INTRA.DIHEDRAL.0>
10.9594

>  <SCORE.INTRA.POLAR>
0

>  <SCORE.INTRA.POLAR.0>
0

>  <SCORE.INTRA.REPUL>
0

>  <SCORE.INTRA.REPUL.0>
0

>  <SCORE.INTRA.SOLV>
-3.09687

>  <SCORE.INTRA.SOLV.lig_0>
-124.914

>  <SCORE.INTRA.VDW>
-0.849808

>  <SCORE.INTRA.VDW.0>
-4.69801

>  <SCORE.INTRA.norm>
-0.225416

>  <SCORE.RESTR>
0

>  <SCORE.RESTR.CAVITY>
0

>  <SCORE.RESTR.norm>
0

>  <SCORE.SYSTEM>
0

>  <SCORE.SYSTEM.CONST>
0

>  <SCORE.SYSTEM.DIHEDRAL>
0

>  <SCORE.SYSTEM.SOLV>
0

>  <SCORE.SYSTEM.norm>
0

>  <SCORE.heavy>
32

>  <SCORE.norm>
-0.220425

>  <RMSD>
3.608

$$$$
ligand
 OpenBabel11021811513D
libRbt.so/2013.1/901 2013/11/27
 32 34  0  0  0  0  0  0  0  0999 V2000
   18.1235  -27.8607  -21.6845 P   0  0  1  0  0  0  0  0  0  0  0  0
   15.4461  -27.5362  -20.7061 P   0  0  2  0  0  0  0  0  0  0  0  0
   15.1198  -26.5694  -17.9540 P   0  0  1  0  0  0  0  0  0  0  0  0
   19.9080  -26.0343  -21.1632 C   0  0  0  0  0  0  0  0  0  0  0  0
   19.6389  -27.4059  -21.2296 O   0  0  0  0  0  0  0  0  0  0  0  0
   21.1471  -25.8322  -20.5657 C   0  0  1  0  0  0  0  0  0  0  0  0
   21.4657  -24.3501  -20.5262 O   0  0  0  0  0  0  0  0  0  0  0  0
   21.1459  -26.3198  -19.0444 C   0  0  1  0  0  0  0  0  0  0  0  0
   22.0981  -27.4840  -18.8888 O   0  0  0  0  0  0  0  0  0  0  0  0
   21.6027  -25.3824  -18.3855 C   0  0  1  0  0  0  0  0  0  0  0  0
   23.0491  -25.6063  -18.1496 O   0  0  0  0  0  0  0  0  0  0  0  0
   21.3804  -24.0095  -19.3018 C   0  0  2  0  0  0  0  0  0  0  0  0
   18.6529  -19.6630  -19.0693 N   0  0  0  0  0  0  0  0  0  0  0  0
   17.8564  -27.4077  -23.0985 O   0  5  0  0  0  0  0  0  0  0  0  0
   15.2718  -29.0157  -20.4717 O   0  5  0  0  0  0  0  0  0  0  0  0
   15.3838  -27.9642  -17.4373 O   0  0  0  0  0  0  0  0  0  0  0  0
   19.9347  -19.8094  -19.3662 C   0  0  0  0  0  0  0  0  0  0  0  0
   20.7313  -18.6392  -19.6756 N   0  0  0  0  0  0  0  0  0  0  0  0
   18.0123  -29.3641  -21.5680 O   0  0  0  0  0  0  0  0  0  0  0  0
   14.8846  -27.1695  -22.0548 O   0  0  0  0  0  0  0  0  0  0  0  0
   16.3910  -25.7548  -17.8533 O   0  5  0  0  0  0  0  0  0  0  0  0
   20.5161  -20.9914  -19.3904 N   0  0  0  0  0  0  0  0  0  0  0  0
   17.0390  -27.1401  -20.6829 O   0  0  0  0  0  0  0  0  0  0  0  0
   14.6591  -26.6893  -19.5360 O   0  0  0  0  0  0  0  0  0  0  0  0
   14.0225  -25.9365  -17.1266 O   0  0  0  0  0  0  0  0  0  0  0  0
   19.8160  -22.0974  -19.1105 C   0  0  0  0  0  0  0  0  0  0  0  0
   18.4776  -21.9727  -18.7972 C   0  0  0  0  0  0  0  0  0  0  0  0
   17.8771  -20.6991  -18.7783 C   0  0  0  0  0  0  0  0  0  0  0  0
   16.5160  -20.5405  -18.4634 O   0  0  0  0  0  0  0  0  0  0  0  0
   18.0005  -23.2063  -18.5591 N   0  0  0  0  0  0  0  0  0  0  0  0
   18.9998  -24.0567  -18.7175 C   0  0  0  0  0  0  0  0  0  0  0  0
   20.1009  -23.4076  -19.0469 N   0  0  0  0  0  0  0  0  0  0  0  0
  1  5  1  1  0  0  0
  1 14  1  0  0  0  0
  1 19  2  0  0  0  0
  1 23  1  0  0  0  0
  2 15  1  1  0  0  0
  2 20  2  0  0  0  0
  2 23  1  0  0  0  0
  2 24  1  0  0  0  0
  3 16  1  1  0  0  0
  3 21  1  0  0  0  0
  3 24  1  0  0  0  0
  3 25  2  0  0  0  0
  4  5  1  0  0  0  0
  6  4  1  1  0  0  0
  6  7  1  0  0  0  0
  6  8  1  0  0  0  0
  7 12  1  0  0  0  0
  8  9  1  6  0  0  0
  8 10  1  0  0  0  0
 10 11  1  6  0  0  0
 10 12  1  0  0  0  0
 12 32  1  6  0  0  0
 13 17  2  0  0  0  0
 13 28  1  0  0  0  0
 17 18  1  0  0  0  0
 17 22  1  0  0  0  0
 22 26  2  0  0  0  0
 26 27  1  0  0  0  0
 26 32  1  0  0  0  0
 27 28  2  0  0  0  0
 27 30  1  0  0  0  0
 28 29  1  0  0  0  0
 30 31  2  0  0  0  0
 31 32  1  0  0  0  0
M  CHG  3  14  -1  15  -1  21  -1
M  END
>  <CHROM.1>
63.53492672,56.38059819,-49.91431864,178.34571062,170.60359774,-92.11088078
-171.05865422,71.35653174,18.22826562,-25.26436965,-19.65450726,-2.15558277
0.17436675,0.29838623

>  <Name>
ligand

>  <RI>
0

>  <Rbt.Current_Directory>
/home/itssahil/PROJECTS/Mol_Feturizer/New_Systems/rnas/4Y1I

>  <Rbt.Executable>
rbdock ($Id: //depot/dev/client3/rdock/2013.1/src/exe/rbdock.cxx#4 $)

>  <Rbt.Library>
libRbt.so (2013.1, Build901 2013/11/27)

>  <Rbt.Parameter_File>
/export/apps/rDock/src/rDock_2013.1_src/data/scripts/dock_solv.prm

>  <Rbt.Receptor>
prm/pocket_docking_5.prm

>  <SCORE>
-6.0677

>  <SCORE.INTER>
0.474269

>  <SCORE.INTER.CONST>
1

>  <SCORE.INTER.POLAR>
0

>  <SCORE.INTER.ROT>
8

>  <SCORE.INTER.SOLV>
6.71212

>  <SCORE.INTER.VDW>
-10.8545

>  <SCORE.INTER.norm>
0.0148209

>  <SCORE.INTRA>
-6.54197

>  <SCORE.INTRA.DIHEDRAL>
-8.78442

>  <SCORE.INTRA.DIHEDRAL.0>
10.9594

>  <SCORE.INTRA.POLAR>
0

>  <SCORE.INTRA.POLAR.0>
0

>  <SCORE.INTRA.REPUL>
0

>  <SCORE.INTRA.REPUL.0>
0

>  <SCORE.INTRA.SOLV>
-3.93591

>  <SCORE.INTRA.SOLV.lig_0>
-124.914

>  <SCORE.INTRA.VDW>
-0.181811

>  <SCORE.INTRA.VDW.0>
-4.69801

>  <SCORE.INTRA.norm>
-0.204437

>  <SCORE.RESTR>
0

>  <SCORE.RESTR.CAVITY>
0

>  <SCORE.RESTR.norm>
0

>  <SCORE.SYSTEM>
0

>  <SCORE.SYSTEM.CONST>
0

>  <SCORE.SYSTEM.DIHEDRAL>
0

>  <SCORE.SYSTEM.SOLV>
0

>  <SCORE.SYSTEM.norm>
0

>  <SCORE.heavy>
32

>  <SCORE.norm>
-0.189616

>  <RMSD>
3.637

$$$$
ligand
 OpenBabel11021811513D
libRbt.so/2013.1/901 2013/11/27
 32 34  0  0  0  0  0  0  0  0999 V2000
   16.9508  -26.2909  -17.1651 P   0  0  1  0  0  0  0  0  0  0  0  0
   17.6197  -29.0721  -16.9452 P   0  0  2  0  0  0  0  0  0  0  0  0
   16.8377  -30.4020  -14.4481 P   0  0  1  0  0  0  0  0  0  0  0  0
   19.1021  -24.8385  -17.3976 C   0  0  0  0  0  0  0  0  0  0  0  0
   17.7145  -24.8900  -17.5708 O   0  0  0  0  0  0  0  0  0  0  0  0
   19.7264  -25.5026  -18.4476 C   0  0  1  0  0  0  0  0  0  0  0  0
   19.4121  -24.8071  -19.7581 O   0  0  0  0  0  0  0  0  0  0  0  0
   21.3165  -25.4592  -18.3000 C   0  0  1  0  0  0  0  0  0  0  0  0
   21.8404  -26.8618  -18.0895 O   0  0  0  0  0  0  0  0  0  0  0  0
   21.7492  -25.0657  -19.3860 C   0  0  1  0  0  0  0  0  0  0  0  0
   22.1506  -26.2328  -20.2073 O   0  0  0  0  0  0  0  0  0  0  0  0
   20.4981  -24.2518  -20.1252 C   0  0  2  0  0  0  0  0  0  0  0  0
   17.6715  -20.2273  -18.6421 N   0  0  0  0  0  0  0  0  0  0  0  0
   16.5612  -26.2577  -15.7080 O   0  5  0  0  0  0  0  0  0  0  0  0
   18.7454  -30.0111  -17.2996 O   0  5  0  0  0  0  0  0  0  0  0  0
   17.7428  -31.5697  -14.7636 O   0  0  0  0  0  0  0  0  0  0  0  0
   17.2655  -21.4598  -18.9045 C   0  0  0  0  0  0  0  0  0  0  0  0
   15.8597  -21.7875  -18.7784 N   0  0  0  0  0  0  0  0  0  0  0  0
   15.7334  -26.4532  -18.0470 O   0  0  0  0  0  0  0  0  0  0  0  0
   16.3645  -29.4963  -17.6616 O   0  0  0  0  0  0  0  0  0  0  0  0
   16.9249  -30.0929  -12.9695 O   0  5  0  0  0  0  0  0  0  0  0  0
   18.1017  -22.4064  -19.2792 N   0  0  0  0  0  0  0  0  0  0  0  0
   17.9885  -27.5410  -17.4083 O   0  0  0  0  0  0  0  0  0  0  0  0
   17.3599  -29.1002  -15.3211 O   0  0  0  0  0  0  0  0  0  0  0  0
   15.4179  -30.7622  -14.8274 O   0  0  0  0  0  0  0  0  0  0  0  0
   19.4082  -22.1452  -19.4081 C   0  0  0  0  0  0  0  0  0  0  0  0
   19.8579  -20.8679  -19.1410 C   0  0  0  0  0  0  0  0  0  0  0  0
   18.9459  -19.8722  -18.7411 C   0  0  0  0  0  0  0  0  0  0  0  0
   19.3741  -18.5625  -18.4617 O   0  0  0  0  0  0  0  0  0  0  0  0
   21.1872  -20.8566  -19.3387 N   0  0  0  0  0  0  0  0  0  0  0  0
   21.5440  -22.0732  -19.7121 C   0  0  0  0  0  0  0  0  0  0  0  0
   20.4867  -22.8617  -19.7621 N   0  0  0  0  0  0  0  0  0  0  0  0
  1  5  1  6  0  0  0
  1 14  1  0  0  0  0
  1 19  2  0  0  0  0
  1 23  1  0  0  0  0
  2 15  1  6  0  0  0
  2 20  2  0  0  0  0
  2 23  1  0  0  0  0
  2 24  1  0  0  0  0
  3 16  1  6  0  0  0
  3 21  1  0  0  0  0
  3 24  1  0  0  0  0
  3 25  2  0  0  0  0
  4  5  1  0  0  0  0
  6  4  1  1  0  0  0
  6  7  1  0  0  0  0
  6  8  1  0  0  0  0
  7 12  1  0  0  0  0
  8  9  1  6  0  0  0
  8 10  1  0  0  0  0
 10 11  1  6  0  0  0
 10 12  1  0  0  0  0
 12 32  1  1  0  0  0
 13 17  2  0  0  0  0
 13 28  1  0  0  0  0
 17 18  1  0  0  0  0
 17 22  1  0  0  0  0
 22 26  2  0  0  0  0
 26 27  1  0  0  0  0
 26 32  1  0  0  0  0
 27 28  2  0  0  0  0
 27 30  1  0  0  0  0
 28 29  1  0  0  0  0
 30 31  2  0  0  0  0
 31 32  1  0  0  0  0
M  CHG  3  14  -1  15  -1  21  -1
M  END
>  <CHROM.1>
88.59221563,179.59973133,52.58746482,62.48792902,78.54950766,-15.89773450
172.89834637,-64.45678714,18.45624596,-25.77501821,-17.62607614,1.87561489
-0.45554280,2.85169932

>  <Name>
ligand

>  <RI>
0

>  <Rbt.Current_Directory>
/home/itssahil/PROJECTS/Mol_Feturizer/New_Systems/rnas/4Y1I

>  <Rbt.Executable>
rbdock ($Id: //depot/dev/client3/rdock/2013.1/src/exe/rbdock.cxx#4 $)

>  <Rbt.Library>
libRbt.so (2013.1, Build901 2013/11/27)

>  <Rbt.Parameter_File>
/export/apps/rDock/src/rDock_2013.1_src/data/scripts/dock_solv.prm

>  <Rbt.Receptor>
prm/pocket_docking_4.prm

>  <SCORE>
-8.22681

>  <SCORE.INTER>
-2.93885

>  <SCORE.INTER.CONST>
1

>  <SCORE.INTER.POLAR>
0

>  <SCORE.INTER.ROT>
8

>  <SCORE.INTER.SOLV>
10.9981

>  <SCORE.INTER.VDW>
-14.5586

>  <SCORE.INTER.norm>
-0.0918391

>  <SCORE.INTRA>
-5.28796

>  <SCORE.INTRA.DIHEDRAL>
-6.74574

>  <SCORE.INTRA.DIHEDRAL.0>
10.9594

>  <SCORE.INTRA.POLAR>
0

>  <SCORE.INTRA.POLAR.0>
0

>  <SCORE.INTRA.REPUL>
0

>  <SCORE.INTRA.REPUL.0>
0

>  <SCORE.INTRA.SOLV>
-2.92161

>  <SCORE.INTRA.SOLV.lig_0>
-124.914

>  <SCORE.INTRA.VDW>
-0.454281

>  <SCORE.INTRA.VDW.0>
-4.69801

>  <SCORE.INTRA.norm>
-0.165249

>  <SCORE.RESTR>
0

>  <SCORE.RESTR.CAVITY>
0

>  <SCORE.RESTR.norm>
0

>  <SCORE.SYSTEM>
0

>  <SCORE.SYSTEM.CONST>
0

>  <SCORE.SYSTEM.DIHEDRAL>
0

>  <SCORE.SYSTEM.SOLV>
0

>  <SCORE.SYSTEM.norm>
0

>  <SCORE.heavy>
32

>  <SCORE.norm>
-0.257088

>  <RMSD>
3.774

$$$$
ligand
 OpenBabel11021811513D
libRbt.so/2013.1/901 2013/11/27
 32 34  0  0  0  0  0  0  0  0999 V2000
   15.7195  -25.9270  -16.4280 P   0  0  1  0  0  0  0  0  0  0  0  0
   15.3533  -26.8645  -13.7414 P   0  0  2  0  0  0  0  0  0  0  0  0
   12.6679  -27.7202  -12.9218 P   0  0  1  0  0  0  0  0  0  0  0  0
   18.1525  -25.6747  -17.3271 C   0  0  0  0  0  0  0  0  0  0  0  0
   16.8430  -26.0691  -17.6230 O   0  0  0  0  0  0  0  0  0  0  0  0
   19.0070  -26.1072  -18.3351 C   0  0  1  0  0  0  0  0  0  0  0  0
   18.6477  -25.4287  -19.6429 O   0  0  0  0  0  0  0  0  0  0  0  0
   20.5205  -25.6963  -18.0309 C   0  0  1  0  0  0  0  0  0  0  0  0
   21.3482  -26.9445  -17.8231 O   0  0  0  0  0  0  0  0  0  0  0  0
   20.9369  -25.1468  -19.0536 C   0  0  1  0  0  0  0  0  0  0  0  0
   21.6780  -26.1336  -19.8750 O   0  0  0  0  0  0  0  0  0  0  0  0
   19.5944  -24.6103  -19.8806 C   0  0  2  0  0  0  0  0  0  0  0  0
   21.0115  -19.6970  -19.3937 N   0  0  0  0  0  0  0  0  0  0  0  0
   15.6101  -24.4852  -15.9975 O   0  5  0  0  0  0  0  0  0  0  0  0
   15.3340  -25.4969  -13.1061 O   0  5  0  0  0  0  0  0  0  0  0  0
   11.3475  -27.8959  -13.6344 O   0  0  0  0  0  0  0  0  0  0  0  0
   21.7230  -20.7111  -19.8606 C   0  0  0  0  0  0  0  0  0  0  0  0
   23.0812  -20.4800  -20.3093 N   0  0  0  0  0  0  0  0  0  0  0  0
   14.3939  -26.4394  -16.9445 O   0  0  0  0  0  0  0  0  0  0  0  0
   16.0141  -27.8449  -12.8081 O   0  0  0  0  0  0  0  0  0  0  0  0
   13.0309  -29.0134  -12.2250 O   0  5  0  0  0  0  0  0  0  0  0  0
   21.2353  -21.9329  -19.9323 N   0  0  0  0  0  0  0  0  0  0  0  0
   16.2058  -26.8286  -15.1438 O   0  0  0  0  0  0  0  0  0  0  0  0
   13.8150  -27.3564  -14.0537 O   0  0  0  0  0  0  0  0  0  0  0  0
   12.5393  -26.5982  -11.9148 O   0  0  0  0  0  0  0  0  0  0  0  0
   19.9853  -22.1889  -19.5280 C   0  0  0  0  0  0  0  0  0  0  0  0
   19.2219  -21.1494  -19.0364 C   0  0  0  0  0  0  0  0  0  0  0  0
   19.7639  -19.8513  -18.9699 C   0  0  0  0  0  0  0  0  0  0  0  0
   19.0106  -18.7724  -18.4745 O   0  0  0  0  0  0  0  0  0  0  0  0
   18.0214  -21.6516  -18.7007 N   0  0  0  0  0  0  0  0  0  0  0  0
   18.0413  -22.9449  -18.9721 C   0  0  0  0  0  0  0  0  0  0  0  0
   19.2157  -23.2871  -19.4682 N   0  0  0  0  0  0  0  0  0  0  0  0
  1  5  1  6  0  0  0
  1 14  1  0  0  0  0
  1 19  2  0  0  0  0
  1 23  1  0  0  0  0
  2 15  1  1  0  0  0
  2 20  2  0  0  0  0
  2 23  1  0  0  0  0
  2 24  1  0  0  0  0
  3 16  1  6  0  0  0
  3 21  1  0  0  0  0
  3 24  1  0  0  0  0
  3 25  2  0  0  0  0
  4  5  1  0  0  0  0
  6  4  1  1  0  0  0
  6  7  1  0  0  0  0
  6  8  1  0  0  0  0
  7 12  1  0  0  0  0
  8  9  1  6  0  0  0
  8 10  1  0  0  0  0
 10 11  1  6  0  0  0
 10 12  1  0  0  0  0
 12 32  1  1  0  0  0
 13 17  2  0  0  0  0
 13 28  1  0  0  0  0
 17 18  1  0  0  0  0
 17 22  1  0  0  0  0
 22 26  2  0  0  0  0
 26 27  1  0  0  0  0
 26 32  1  0  0  0  0
 27 28  2  0  0  0  0
 27 30  1  0  0  0  0
 28 29  1  0  0  0  0
 30 31  2  0  0  0  0
 31 32  1  0  0  0  0
M  CHG  3  14  -1  15  -1  21  -1
M  END
>  <CHROM.1>
59.94801677,-63.60756654,170.54898806,63.76384527,168.08739296,177.58730257
177.16304896,-67.14600727,17.32041843,-24.95307132,-16.74821439,-2.51842237
0.63631850,-0.16238237

>  <Name>
ligand

>  <RI>
0

>  <Rbt.Current_Directory>
/home/itssahil/PROJECTS/Mol_Feturizer/New_Systems/rnas/4Y1I

>  <Rbt.Executable>
rbdock ($Id: //depot/dev/client3/rdock/2013.1/src/exe/rbdock.cxx#4 $)

>  <Rbt.Library>
libRbt.so (2013.1, Build901 2013/11/27)

>  <Rbt.Parameter_File>
/export/apps/rDock/src/rDock_2013.1_src/data/scripts/dock_solv.prm

>  <Rbt.Receptor>
prm/pocket_docking_5.prm

>  <SCORE>
-7.20032

>  <SCORE.INTER>
-1.41972

>  <SCORE.INTER.CONST>
1

>  <SCORE.INTER.POLAR>
0

>  <SCORE.INTER.ROT>
8

>  <SCORE.INTER.SOLV>
14.938

>  <SCORE.INTER.VDW>
-14.8592

>  <SCORE.INTER.norm>
-0.0443662

>  <SCORE.INTRA>
-5.7806

>  <SCORE.INTRA.DIHEDRAL>
-8.73232

>  <SCORE.INTRA.DIHEDRAL.0>
10.9594

>  <SCORE.INTRA.POLAR>
0

>  <SCORE.INTRA.POLAR.0>
0

>  <SCORE.INTRA.REPUL>
0

>  <SCORE.INTRA.REPUL.0>
0

>  <SCORE.INTRA.SOLV>
-3.21963

>  <SCORE.INTRA.SOLV.lig_0>
-124.914

>  <SCORE.INTRA.VDW>
0.195376

>  <SCORE.INTRA.VDW.0>
-4.69801

>  <SCORE.INTRA.norm>
-0.180644

>  <SCORE.RESTR>
0

>  <SCORE.RESTR.CAVITY>
0

>  <SCORE.RESTR.norm>
0

>  <SCORE.SYSTEM>
0

>  <SCORE.SYSTEM.CONST>
0

>  <SCORE.SYSTEM.DIHEDRAL>
0

>  <SCORE.SYSTEM.SOLV>
0

>  <SCORE.SYSTEM.norm>
0

>  <SCORE.heavy>
32

>  <SCORE.norm>
-0.22501

>  <RMSD>
3.780

$$$$
ligand
 OpenBabel11021811513D
libRbt.so/2013.1/901 2013/11/27
 32 34  0  0  0  0  0  0  0  0999 V2000
   16.4804  -29.5187  -16.9901 P   0  0  1  0  0  0  0  0  0  0  0  0
   14.1248  -29.4082  -15.3561 P   0  0  2  0  0  0  0  0  0  0  0  0
   12.3277  -29.0707  -17.6522 P   0  0  1  0  0  0  0  0  0  0  0  0
   17.0406  -27.5204  -18.5664 C   0  0  0  0  0  0  0  0  0  0  0  0
   17.5466  -28.4571  -17.6583 O   0  0  0  0  0  0  0  0  0  0  0  0
   16.2554  -26.5940  -17.8892 C   0  0  1  0  0  0  0  0  0  0  0  0
   17.0473  -25.9798  -16.7510 O   0  0  0  0  0  0  0  0  0  0  0  0
   15.8405  -25.3782  -18.8389 C   0  0  1  0  0  0  0  0  0  0  0  0
   14.3415  -25.3839  -19.0371 O   0  0  0  0  0  0  0  0  0  0  0  0
   16.1243  -24.3498  -18.2200 C   0  0  1  0  0  0  0  0  0  0  0  0
   14.9141  -23.8410  -17.5311 O   0  0  0  0  0  0  0  0  0  0  0  0
   17.2805  -24.7772  -17.1000 C   0  0  2  0  0  0  0  0  0  0  0  0
   20.5258  -22.0400  -19.9915 N   0  0  0  0  0  0  0  0  0  0  0  0
   15.7422  -30.2563  -18.0796 O   0  5  0  0  0  0  0  0  0  0  0  0
   13.4071  -28.4339  -14.4561 O   0  5  0  0  0  0  0  0  0  0  0  0
   13.3847  -28.3345  -18.4415 O   0  0  0  0  0  0  0  0  0  0  0  0
   19.2603  -21.7745  -19.7074 C   0  0  0  0  0  0  0  0  0  0  0  0
   18.6467  -20.5772  -20.2456 N   0  0  0  0  0  0  0  0  0  0  0  0
   17.2420  -30.4802  -16.1061 O   0  0  0  0  0  0  0  0  0  0  0  0
   14.6500  -30.5582  -14.5374 O   0  0  0  0  0  0  0  0  0  0  0  0
   11.5535  -29.9762  -18.5850 O   0  5  0  0  0  0  0  0  0  0  0  0
   18.5336  -22.5671  -18.9463 N   0  0  0  0  0  0  0  0  0  0  0  0
   15.3947  -28.6735  -16.0924 O   0  0  0  0  0  0  0  0  0  0  0  0
   13.0893  -29.9777  -16.5003 O   0  0  0  0  0  0  0  0  0  0  0  0
   11.4012  -28.0622  -17.0088 O   0  0  0  0  0  0  0  0  0  0  0  0
   19.0623  -23.6829  -18.4295 C   0  0  0  0  0  0  0  0  0  0  0  0
   20.3797  -23.9835  -18.7105 C   0  0  0  0  0  0  0  0  0  0  0  0
   21.1377  -23.1211  -19.5259 C   0  0  0  0  0  0  0  0  0  0  0  0
   22.4819  -23.4004  -19.8293 O   0  0  0  0  0  0  0  0  0  0  0  0
   20.6744  -25.1366  -18.0863 N   0  0  0  0  0  0  0  0  0  0  0  0
   19.5870  -25.5323  -17.4476 C   0  0  0  0  0  0  0  0  0  0  0  0
   18.6058  -24.6715  -17.6446 N   0  0  0  0  0  0  0  0  0  0  0  0
  1  5  1  6  0  0  0
  1 14  1  0  0  0  0
  1 19  2  0  0  0  0
  1 23  1  0  0  0  0
  2 15  1  1  0  0  0
  2 20  2  0  0  0  0
  2 23  1  0  0  0  0
  2 24  1  0  0  0  0
  3 16  1  6  0  0  0
  3 21  1  0  0  0  0
  3 24  1  0  0  0  0
  3 25  2  0  0  0  0
  4  5  1  0  0  0  0
  6  4  1  6  0  0  0
  6  7  1  0  0  0  0
  6  8  1  0  0  0  0
  7 12  1  0  0  0  0
  8  9  1  1  0  0  0
  8 10  1  0  0  0  0
 10 11  1  1  0  0  0
 10 12  1  0  0  0  0
 12 32  1  6  0  0  0
 13 17  2  0  0  0  0
 13 28  1  0  0  0  0
 17 18  1  0  0  0  0
 17 22  1  0  0  0  0
 22 26  2  0  0  0  0
 26 27  1  0  0  0  0
 26 32  1  0  0  0  0
 27 28  2  0  0  0  0
 27 30  1  0  0  0  0
 28 29  1  0  0  0  0
 30 31  2  0  0  0  0
 31 32  1  0  0  0  0
M  CHG  3  14  -1  15  -1  21  -1
M  END
>  <CHROM.1>
55.36458237,172.34933164,56.41377488,54.18488762,69.87621416,160.65037144
176.07214511,62.14276574,16.31101324,-26.75042355,-17.64369968,-2.30695318
-0.05414426,-0.42505533

>  <Name>
ligand

>  <RI>
0

>  <Rbt.Current_Directory>
/home/itssahil/PROJECTS/Mol_Feturizer/New_Systems/rnas/4Y1I

>  <Rbt.Executable>
rbdock ($Id: //depot/dev/client3/rdock/2013.1/src/exe/rbdock.cxx#4 $)

>  <Rbt.Library>
libRbt.so (2013.1, Build901 2013/11/27)

>  <Rbt.Parameter_File>
/export/apps/rDock/src/rDock_2013.1_src/data/scripts/dock_solv.prm

>  <Rbt.Receptor>
prm/pocket_docking_3.prm

>  <SCORE>
-4.10033

>  <SCORE.INTER>
2.67485

>  <SCORE.INTER.CONST>
1

>  <SCORE.INTER.POLAR>
0

>  <SCORE.INTER.ROT>
8

>  <SCORE.INTER.SOLV>
3.00562

>  <SCORE.INTER.VDW>
-8.15197

>  <SCORE.INTER.norm>
0.0835891

>  <SCORE.INTRA>
-6.77518

>  <SCORE.INTRA.DIHEDRAL>
-8.9936

>  <SCORE.INTRA.DIHEDRAL.0>
10.9594

>  <SCORE.INTRA.POLAR>
0

>  <SCORE.INTRA.POLAR.0>
0

>  <SCORE.INTRA.REPUL>
0

>  <SCORE.INTRA.REPUL.0>
0

>  <SCORE.INTRA.SOLV>
-2.3175

>  <SCORE.INTRA.SOLV.lig_0>
-124.914

>  <SCORE.INTRA.VDW>
-1.11963

>  <SCORE.INTRA.VDW.0>
-4.69801

>  <SCORE.INTRA.norm>
-0.211724

>  <SCORE.RESTR>
0

>  <SCORE.RESTR.CAVITY>
0

>  <SCORE.RESTR.norm>
0

>  <SCORE.SYSTEM>
0

>  <SCORE.SYSTEM.CONST>
0

>  <SCORE.SYSTEM.DIHEDRAL>
0

>  <SCORE.SYSTEM.SOLV>
0

>  <SCORE.SYSTEM.norm>
0

>  <SCORE.heavy>
32

>  <SCORE.norm>
-0.128135

>  <RMSD>
3.802

$$$$
ligand
 OpenBabel11021811513D
libRbt.so/2013.1/901 2013/11/27
 32 34  0  0  0  0  0  0  0  0999 V2000
   17.5218  -30.0958  -18.1457 P   0  0  1  0  0  0  0  0  0  0  0  0
   15.0511  -31.4544  -18.6754 P   0  0  2  0  0  0  0  0  0  0  0  0
   13.4619  -31.9500  -16.2579 P   0  0  1  0  0  0  0  0  0  0  0  0
   17.2878  -27.6319  -17.3298 C   0  0  0  0  0  0  0  0  0  0  0  0
   16.6664  -28.6979  -17.9897 O   0  0  0  0  0  0  0  0  0  0  0  0
   16.4168  -26.5496  -17.2728 C   0  0  1  0  0  0  0  0  0  0  0  0
   17.0608  -25.4082  -16.5096 O   0  0  0  0  0  0  0  0  0  0  0  0
   16.1027  -25.9781  -18.7312 C   0  0  1  0  0  0  0  0  0  0  0  0
   14.6380  -26.1816  -19.0462 O   0  0  0  0  0  0  0  0  0  0  0  0
   16.2988  -24.7619  -18.6703 C   0  0  1  0  0  0  0  0  0  0  0  0
   15.0095  -24.0670  -18.4403 O   0  0  0  0  0  0  0  0  0  0  0  0
   17.3192  -24.5127  -17.3778 C   0  0  2  0  0  0  0  0  0  0  0  0
   21.2365  -22.2197  -19.7823 N   0  0  0  0  0  0  0  0  0  0  0  0
   18.8136  -29.8262  -18.8770 O   0  5  0  0  0  0  0  0  0  0  0  0
   14.5793  -32.6919  -19.3967 O   0  5  0  0  0  0  0  0  0  0  0  0
   12.8177  -33.1634  -16.8864 O   0  0  0  0  0  0  0  0  0  0  0  0
   20.0001  -21.7737  -19.6239 C   0  0  0  0  0  0  0  0  0  0  0  0
   19.6339  -20.4831  -20.1717 N   0  0  0  0  0  0  0  0  0  0  0  0
   17.7878  -30.6587  -16.7677 O   0  0  0  0  0  0  0  0  0  0  0  0
   14.2367  -30.2687  -19.1223 O   0  0  0  0  0  0  0  0  0  0  0  0
   13.7436  -32.2380  -14.7994 O   0  5  0  0  0  0  0  0  0  0  0  0
   19.0837  -22.4678  -18.9805 N   0  0  0  0  0  0  0  0  0  0  0  0
   16.6284  -31.1601  -19.0219 O   0  0  0  0  0  0  0  0  0  0  0  0
   14.8806  -31.6558  -17.0517 O   0  0  0  0  0  0  0  0  0  0  0  0
   12.5238  -30.7700  -16.3894 O   0  0  0  0  0  0  0  0  0  0  0  0
   19.3808  -23.6644  -18.4596 C   0  0  0  0  0  0  0  0  0  0  0  0
   20.6627  -24.1531  -18.6109 C   0  0  0  0  0  0  0  0  0  0  0  0
   21.6262  -23.3932  -19.3019 C   0  0  0  0  0  0  0  0  0  0  0  0
   22.9401  -23.8643  -19.4716 O   0  0  0  0  0  0  0  0  0  0  0  0
   20.7122  -25.3541  -18.0100 N   0  0  0  0  0  0  0  0  0  0  0  0
   19.5136  -25.5981  -17.5094 C   0  0  0  0  0  0  0  0  0  0  0  0
   18.6984  -24.5938  -17.7723 N   0  0  0  0  0  0  0  0  0  0  0  0
  1  5  1  1  0  0  0
  1 14  1  0  0  0  0
  1 19  2  0  0  0  0
  1 23  1  0  0  0  0
  2 15  1  6  0  0  0
  2 20  2  0  0  0  0
  2 23  1  0  0  0  0
  2 24  1  0  0  0  0
  3 16  1  6  0  0  0
  3 21  1  0  0  0  0
  3 24  1  0  0  0  0
  3 25  2  0  0  0  0
  4  5  1  0  0  0  0
  6  4  1  6  0  0  0
  6  7  1  0  0  0  0
  6  8  1  0  0  0  0
  7 12  1  0  0  0  0
  8  9  1  1  0  0  0
  8 10  1  0  0  0  0
 10 11  1  1  0  0  0
 10 12  1  0  0  0  0
 12 32  1  6  0  0  0
 13 17  2  0  0  0  0
 13 28  1  0  0  0  0
 17 18  1  0  0  0  0
 17 22  1  0  0  0  0
 22 26  2  0  0  0  0
 26 27  1  0  0  0  0
 26 32  1  0  0  0  0
 27 28  2  0  0  0  0
 27 30  1  0  0  0  0
 28 29  1  0  0  0  0
 30 31  2  0  0  0  0
 31 32  1  0  0  0  0
M  CHG  3  14  -1  15  -1  21  -1
M  END
>  <CHROM.1>
-57.87845659,-166.14638591,54.38788263,177.71231683,-179.05188259,-166.23109156
-48.48940525,-59.82933682,16.94309523,-27.70571754,-18.06868545,-2.15638645
0.20452799,-0.05860327

>  <Name>
ligand

>  <RI>
0

>  <Rbt.Current_Directory>
/home/itssahil/PROJECTS/Mol_Feturizer/New_Systems/rnas/4Y1I

>  <Rbt.Executable>
rbdock ($Id: //depot/dev/client3/rdock/2013.1/src/exe/rbdock.cxx#4 $)

>  <Rbt.Library>
libRbt.so (2013.1, Build901 2013/11/27)

>  <Rbt.Parameter_File>
/export/apps/rDock/src/rDock_2013.1_src/data/scripts/dock_solv.prm

>  <Rbt.Receptor>
prm/pocket_docking_4.prm

>  <SCORE>
-4.90224

>  <SCORE.INTER>
1.88797

>  <SCORE.INTER.CONST>
1

>  <SCORE.INTER.POLAR>
0

>  <SCORE.INTER.ROT>
8

>  <SCORE.INTER.SOLV>
2.97792

>  <SCORE.INTER.VDW>
-8.66733

>  <SCORE.INTER.norm>
0.0589989

>  <SCORE.INTRA>
-6.79021

>  <SCORE.INTRA.DIHEDRAL>
-9.1168

>  <SCORE.INTRA.DIHEDRAL.0>
10.9594

>  <SCORE.INTRA.POLAR>
0

>  <SCORE.INTRA.POLAR.0>
0

>  <SCORE.INTRA.REPUL>
0

>  <SCORE.INTRA.REPUL.0>
0

>  <SCORE.INTRA.SOLV>
-5.28989

>  <SCORE.INTRA.SOLV.lig_0>
-124.914

>  <SCORE.INTRA.VDW>
0.413138

>  <SCORE.INTRA.VDW.0>
-4.69801

>  <SCORE.INTRA.norm>
-0.212194

>  <SCORE.RESTR>
0

>  <SCORE.RESTR.CAVITY>
0

>  <SCORE.RESTR.norm>
0

>  <SCORE.SYSTEM>
0

>  <SCORE.SYSTEM.CONST>
0

>  <SCORE.SYSTEM.DIHEDRAL>
0

>  <SCORE.SYSTEM.SOLV>
0

>  <SCORE.SYSTEM.norm>
0

>  <SCORE.heavy>
32

>  <SCORE.norm>
-0.153195

>  <RMSD>
3.869

$$$$
ligand
 OpenBabel11021811513D
libRbt.so/2013.1/901 2013/11/27
 32 34  0  0  0  0  0  0  0  0999 V2000
   18.1415  -26.9539  -20.6482 P   0  0  1  0  0  0  0  0  0  0  0  0
   15.4865  -25.9378  -21.0345 P   0  0  2  0  0  0  0  0  0  0  0  0
   13.5202  -28.0516  -21.5645 P   0  0  1  0  0  0  0  0  0  0  0  0
   20.4670  -25.9854  -21.3155 C   0  0  0  0  0  0  0  0  0  0  0  0
   19.5820  -26.2546  -20.2657 O   0  0  0  0  0  0  0  0  0  0  0  0
   21.6359  -25.4300  -20.8069 C   0  0  1  0  0  0  0  0  0  0  0  0
   21.3331  -24.0922  -20.1600 O   0  0  0  0  0  0  0  0  0  0  0  0
   22.2595  -26.3423  -19.6532 C   0  0  1  0  0  0  0  0  0  0  0  0
   23.5988  -26.8789  -20.1053 O   0  0  0  0  0  0  0  0  0  0  0  0
   22.4697  -25.5892  -18.6992 C   0  0  1  0  0  0  0  0  0  0  0  0
   23.8873  -25.1557  -18.7183 O   0  0  0  0  0  0  0  0  0  0  0  0
   21.4686  -24.2744  -18.9067 C   0  0  2  0  0  0  0  0  0  0  0  0
   16.6007  -22.6891  -18.4886 N   0  0  0  0  0  0  0  0  0  0  0  0
   18.3390  -27.9592  -21.7556 O   0  5  0  0  0  0  0  0  0  0  0  0
   14.7919  -24.8004  -21.7404 O   0  5  0  0  0  0  0  0  0  0  0  0
   12.5128  -27.0691  -22.1144 O   0  0  0  0  0  0  0  0  0  0  0  0
   17.5706  -22.1675  -19.2234 C   0  0  0  0  0  0  0  0  0  0  0  0
   17.2967  -21.0010  -20.0383 N   0  0  0  0  0  0  0  0  0  0  0  0
   17.5794  -27.6161  -19.4105 O   0  0  0  0  0  0  0  0  0  0  0  0
   15.1283  -25.9175  -19.5717 O   0  0  0  0  0  0  0  0  0  0  0  0
   13.4661  -29.3253  -22.3797 O   0  5  0  0  0  0  0  0  0  0  0  0
   18.7857  -22.6761  -19.2400 N   0  0  0  0  0  0  0  0  0  0  0  0
   17.1150  -25.7831  -21.1716 O   0  0  0  0  0  0  0  0  0  0  0  0
   15.0202  -27.3712  -21.6931 O   0  0  0  0  0  0  0  0  0  0  0  0
   13.1886  -28.3393  -20.1165 O   0  0  0  0  0  0  0  0  0  0  0  0
   19.0803  -23.7529  -18.5016 C   0  0  0  0  0  0  0  0  0  0  0  0
   18.0873  -24.3162  -17.7259 C   0  0  0  0  0  0  0  0  0  0  0  0
   16.7954  -23.7560  -17.7246 C   0  0  0  0  0  0  0  0  0  0  0  0
   15.7633  -24.3078  -16.9453 O   0  0  0  0  0  0  0  0  0  0  0  0
   18.6216  -25.3707  -17.0865 N   0  0  0  0  0  0  0  0  0  0  0  0
   19.8894  -25.4558  -17.4502 C   0  0  0  0  0  0  0  0  0  0  0  0
   20.1844  -24.4892  -18.2993 N   0  0  0  0  0  0  0  0  0  0  0  0
  1  5  1  1  0  0  0
  1 14  1  0  0  0  0
  1 19  2  0  0  0  0
  1 23  1  0  0  0  0
  2 15  1  6  0  0  0
  2 20  2  0  0  0  0
  2 23  1  0  0  0  0
  2 24  1  0  0  0  0
  3 16  1  6  0  0  0
  3 21  1  0  0  0  0
  3 24  1  0  0  0  0
  3 25  2  0  0  0  0
  4  5  1  0  0  0  0
  6  4  1  1  0  0  0
  6  7  1  0  0  0  0
  6  8  1  0  0  0  0
  7 12  1  0  0  0  0
  8  9  1  6  0  0  0
  8 10  1  0  0  0  0
 10 11  1  6  0  0  0
 10 12  1  0  0  0  0
 12 32  1  6  0  0  0
 13 17  2  0  0  0  0
 13 28  1  0  0  0  0
 17 18  1  0  0  0  0
 17 22  1  0  0  0  0
 22 26  2  0  0  0  0
 26 27  1  0  0  0  0
 26 32  1  0  0  0  0
 27 28  2  0  0  0  0
 27 30  1  0  0  0  0
 28 29  1  0  0  0  0
 30 31  2  0  0  0  0
 31 32  1  0  0  0  0
M  CHG  3  14  -1  15  -1  21  -1
M  END
>  <CHROM.1>
37.59327128,-173.20628578,57.63152870,-63.86471904,-178.54254918,-47.17187013
-153.46591152,-69.30275738,17.79606492,-25.70853325,-19.96827427,-2.75010790
-0.08040821,0.54145533

>  <Name>
ligand

>  <RI>
0

>  <Rbt.Current_Directory>
/home/itssahil/PROJECTS/Mol_Feturizer/New_Systems/rnas/4Y1I

>  <Rbt.Executable>
rbdock ($Id: //depot/dev/client3/rdock/2013.1/src/exe/rbdock.cxx#4 $)

>  <Rbt.Library>
libRbt.so (2013.1, Build901 2013/11/27)

>  <Rbt.Parameter_File>
/export/apps/rDock/src/rDock_2013.1_src/data/scripts/dock_solv.prm

>  <Rbt.Receptor>
prm/pocket_docking_4.prm

>  <SCORE>
-4.70123

>  <SCORE.INTER>
2.73874

>  <SCORE.INTER.CONST>
1

>  <SCORE.INTER.POLAR>
0

>  <SCORE.INTER.ROT>
8

>  <SCORE.INTER.SOLV>
3.23798

>  <SCORE.INTER.VDW>
-8.18684

>  <SCORE.INTER.norm>
0.0855856

>  <SCORE.INTRA>
-7.43997

>  <SCORE.INTRA.DIHEDRAL>
-7.77376

>  <SCORE.INTRA.DIHEDRAL.0>
10.9594

>  <SCORE.INTRA.POLAR>
0

>  <SCORE.INTRA.POLAR.0>
0

>  <SCORE.INTRA.REPUL>
0

>  <SCORE.INTRA.REPUL.0>
0

>  <SCORE.INTRA.SOLV>
-2.58062

>  <SCORE.INTRA.SOLV.lig_0>
-124.914

>  <SCORE.INTRA.VDW>
-2.26278

>  <SCORE.INTRA.VDW.0>
-4.69801

>  <SCORE.INTRA.norm>
-0.232499

>  <SCORE.RESTR>
0

>  <SCORE.RESTR.CAVITY>
0

>  <SCORE.RESTR.norm>
0

>  <SCORE.SYSTEM>
0

>  <SCORE.SYSTEM.CONST>
0

>  <SCORE.SYSTEM.DIHEDRAL>
0

>  <SCORE.SYSTEM.SOLV>
0

>  <SCORE.SYSTEM.norm>
0

>  <SCORE.heavy>
32

>  <SCORE.norm>
-0.146914

>  <RMSD>
3.895

$$$$
ligand
 OpenBabel11021811513D
libRbt.so/2013.1/901 2013/11/27
 32 34  0  0  0  0  0  0  0  0999 V2000
   18.5944  -29.5421  -16.4955 P   0  0  1  0  0  0  0  0  0  0  0  0
   17.0109  -31.0207  -18.3763 P   0  0  2  0  0  0  0  0  0  0  0  0
   14.3554  -30.3183  -19.4107 P   0  0  1  0  0  0  0  0  0  0  0  0
   17.2278  -27.6712  -17.6886 C   0  0  0  0  0  0  0  0  0  0  0  0
   17.5378  -28.2801  -16.4674 O   0  0  0  0  0  0  0  0  0  0  0  0
   16.3817  -26.5903  -17.4673 C   0  0  1  0  0  0  0  0  0  0  0  0
   17.0600  -25.5806  -16.5615 O   0  0  0  0  0  0  0  0  0  0  0  0
   16.0627  -25.8133  -18.8263 C   0  0  1  0  0  0  0  0  0  0  0  0
   14.5901  -25.9410  -19.1446 O   0  0  0  0  0  0  0  0  0  0  0  0
   16.2864  -24.6219  -18.5985 C   0  0  1  0  0  0  0  0  0  0  0  0
   15.0157  -23.9404  -18.2539 O   0  0  0  0  0  0  0  0  0  0  0  0
   17.3276  -24.5774  -17.2994 C   0  0  2  0  0  0  0  0  0  0  0  0
   21.1351  -22.2233  -19.8187 N   0  0  0  0  0  0  0  0  0  0  0  0
   19.6772  -29.2802  -17.5129 O   0  5  0  0  0  0  0  0  0  0  0  0
   16.7749  -32.4693  -18.7229 O   0  5  0  0  0  0  0  0  0  0  0  0
   14.0106  -31.7764  -19.6037 O   0  0  0  0  0  0  0  0  0  0  0  0
   19.8915  -21.8057  -19.6401 C   0  0  0  0  0  0  0  0  0  0  0  0
   19.4819  -20.5326  -20.1976 N   0  0  0  0  0  0  0  0  0  0  0  0
   19.1817  -29.7146  -15.1129 O   0  0  0  0  0  0  0  0  0  0  0  0
   17.8808  -30.3854  -19.4291 O   0  0  0  0  0  0  0  0  0  0  0  0
   13.1364  -29.5849  -18.8951 O   0  5  0  0  0  0  0  0  0  0  0  0
   19.0065  -22.5129  -18.9676 N   0  0  0  0  0  0  0  0  0  0  0  0
   17.7762  -30.8991  -16.9292 O   0  0  0  0  0  0  0  0  0  0  0  0
   15.5738  -30.2241  -18.2989 O   0  0  0  0  0  0  0  0  0  0  0  0
   14.7978  -29.7367  -20.7357 O   0  0  0  0  0  0  0  0  0  0  0  0
   19.3442  -23.6943  -18.4368 C   0  0  0  0  0  0  0  0  0  0  0  0
   20.6345  -24.1533  -18.6087 C   0  0  0  0  0  0  0  0  0  0  0  0
   21.5639  -23.3799  -19.3306 C   0  0  0  0  0  0  0  0  0  0  0  0
   22.8853  -23.8208  -19.5218 O   0  0  0  0  0  0  0  0  0  0  0  0
   20.7265  -25.3440  -17.9924 N   0  0  0  0  0  0  0  0  0  0  0  0
   19.5452  -25.6102  -17.4630 C   0  0  0  0  0  0  0  0  0  0  0  0
   18.6998  -24.6302  -17.7222 N   0  0  0  0  0  0  0  0  0  0  0  0
  1  5  1  1  0  0  0
  1 14  1  0  0  0  0
  1 19  2  0  0  0  0
  1 23  1  0  0  0  0
  2 15  1  6  0  0  0
  2 20  2  0  0  0  0
  2 23  1  0  0  0  0
  2 24  1  0  0  0  0
  3 16  1  6  0  0  0
  3 21  1  0  0  0  0
  3 24  1  0  0  0  0
  3 25  2  0  0  0  0
  4  5  1  0  0  0  0
  6  4  1  6  0  0  0
  6  7  1  0  0  0  0
  6  8  1  0  0  0  0
  7 12  1  0  0  0  0
  8  9  1  1  0  0  0
  8 10  1  0  0  0  0
 10 11  1  1  0  0  0
 10 12  1  0  0  0  0
 12 32  1  6  0  0  0
 13 17  2  0  0  0  0
 13 28  1  0  0  0  0
 17 18  1  0  0  0  0
 17 22  1  0  0  0  0
 22 26  2  0  0  0  0
 26 27  1  0  0  0  0
 26 32  1  0  0  0  0
 27 28  2  0  0  0  0
 27 30  1  0  0  0  0
 28 29  1  0  0  0  0
 30 31  2  0  0  0  0
 31 32  1  0  0  0  0
M  CHG  3  14  -1  15  -1  21  -1
M  END
>  <CHROM.1>
37.61687684,160.01210955,53.85034383,59.90149031,-176.97087102,-175.49706483
60.68757125,-46.69411966,17.58627004,-27.26725765,-18.32255735,-2.08874540
-0.28846531,-0.21296823

>  <Name>
ligand

>  <RI>
0

>  <Rbt.Current_Directory>
/home/itssahil/PROJECTS/Mol_Feturizer/New_Systems/rnas/4Y1I

>  <Rbt.Executable>
rbdock ($Id: //depot/dev/client3/rdock/2013.1/src/exe/rbdock.cxx#4 $)

>  <Rbt.Library>
libRbt.so (2013.1, Build901 2013/11/27)

>  <Rbt.Parameter_File>
/export/apps/rDock/src/rDock_2013.1_src/data/scripts/dock_solv.prm

>  <Rbt.Receptor>
prm/pocket_docking_4.prm

>  <SCORE>
-5.28203

>  <SCORE.INTER>
0.964166

>  <SCORE.INTER.CONST>
1

>  <SCORE.INTER.POLAR>
0

>  <SCORE.INTER.ROT>
8

>  <SCORE.INTER.SOLV>
4.4238

>  <SCORE.INTER.VDW>
-9.76516

>  <SCORE.INTER.norm>
0.0301302

>  <SCORE.INTRA>
-6.2462

>  <SCORE.INTRA.DIHEDRAL>
-8.08595

>  <SCORE.INTRA.DIHEDRAL.0>
10.9594

>  <SCORE.INTRA.POLAR>
0

>  <SCORE.INTRA.POLAR.0>
0

>  <SCORE.INTRA.REPUL>
0

>  <SCORE.INTRA.REPUL.0>
0

>  <SCORE.INTRA.SOLV>
-2.97984

>  <SCORE.INTRA.SOLV.lig_0>
-124.914

>  <SCORE.INTRA.VDW>
-0.713308

>  <SCORE.INTRA.VDW.0>
-4.69801

>  <SCORE.INTRA.norm>
-0.195194

>  <SCORE.RESTR>
0

>  <SCORE.RESTR.CAVITY>
0

>  <SCORE.RESTR.norm>
0

>  <SCORE.SYSTEM>
0

>  <SCORE.SYSTEM.CONST>
0

>  <SCORE.SYSTEM.DIHEDRAL>
0

>  <SCORE.SYSTEM.SOLV>
0

>  <SCORE.SYSTEM.norm>
0

>  <SCORE.heavy>
32

>  <SCORE.norm>
-0.165064

>  <RMSD>
4.017

$$$$
ligand
 OpenBabel11021811513D
libRbt.so/2013.1/901 2013/11/27
 32 34  0  0  0  0  0  0  0  0999 V2000
   18.1193  -29.3526  -19.3241 P   0  0  1  0  0  0  0  0  0  0  0  0
   15.7088  -29.9983  -20.7396 P   0  0  2  0  0  0  0  0  0  0  0  0
   13.0562  -29.0397  -19.9273 P   0  0  1  0  0  0  0  0  0  0  0  0
   16.8594  -27.1094  -18.9093 C   0  0  0  0  0  0  0  0  0  0  0  0
   17.2744  -28.3251  -18.3543 O   0  0  0  0  0  0  0  0  0  0  0  0
   16.2635  -26.3287  -17.9250 C   0  0  1  0  0  0  0  0  0  0  0  0
   17.2371  -26.1042  -16.7842 O   0  0  0  0  0  0  0  0  0  0  0  0
   15.8957  -24.8758  -18.4781 C   0  0  1  0  0  0  0  0  0  0  0  0
   14.3939  -24.7008  -18.4721 O   0  0  0  0  0  0  0  0  0  0  0  0
   16.3613  -24.0735  -17.6652 C   0  0  1  0  0  0  0  0  0  0  0  0
   15.2982  -23.6609  -16.7178 O   0  0  0  0  0  0  0  0  0  0  0  0
   17.5712  -24.8768  -16.8497 C   0  0  2  0  0  0  0  0  0  0  0  0
   20.4722  -22.0737  -20.0296 N   0  0  0  0  0  0  0  0  0  0  0  0
   18.7546  -28.5823  -20.4551 O   0  5  0  0  0  0  0  0  0  0  0  0
   15.0660  -31.1895  -21.4045 O   0  5  0  0  0  0  0  0  0  0  0  0
   12.4242  -30.3244  -20.4093 O   0  0  0  0  0  0  0  0  0  0  0  0
   19.2362  -21.8310  -19.6220 C   0  0  0  0  0  0  0  0  0  0  0  0
   18.5529  -20.6426  -20.0914 N   0  0  0  0  0  0  0  0  0  0  0  0
   19.1683  -30.0540  -18.4912 O   0  0  0  0  0  0  0  0  0  0  0  0
   16.0788  -28.9769  -21.7830 O   0  0  0  0  0  0  0  0  0  0  0  0
   12.3941  -28.6165  -18.6341 O   0  5  0  0  0  0  0  0  0  0  0  0
   18.6007  -22.6387  -18.7978 N   0  0  0  0  0  0  0  0  0  0  0  0
   17.0757  -30.4543  -19.9531 O   0  0  0  0  0  0  0  0  0  0  0  0
   14.6614  -29.3275  -19.6631 O   0  0  0  0  0  0  0  0  0  0  0  0
   12.8737  -27.9733  -20.9851 O   0  0  0  0  0  0  0  0  0  0  0  0
   19.1960  -23.7472  -18.3410 C   0  0  0  0  0  0  0  0  0  0  0  0
   20.4845  -24.0240  -18.7508 C   0  0  0  0  0  0  0  0  0  0  0  0
   21.1446  -23.1458  -19.6318 C   0  0  0  0  0  0  0  0  0  0  0  0
   22.4572  -23.4009  -20.0663 O   0  0  0  0  0  0  0  0  0  0  0  0
   20.8580  -25.1742  -18.1644 N   0  0  0  0  0  0  0  0  0  0  0  0
   19.8450  -25.5908  -17.4248 C   0  0  0  0  0  0  0  0  0  0  0  0
   18.8350  -24.7464  -17.5205 N   0  0  0  0  0  0  0  0  0  0  0  0
  1  5  1  1  0  0  0
  1 14  1  0  0  0  0
  1 19  2  0  0  0  0
  1 23  1  0  0  0  0
  2 15  1  6  0  0  0
  2 20  2  0  0  0  0
  2 23  1  0  0  0  0
  2 24  1  0  0  0  0
  3 16  1  6  0  0  0
  3 21  1  0  0  0  0
  3 24  1  0  0  0  0
  3 25  2  0  0  0  0
  4  5  1  0  0  0  0
  6  4  1  6  0  0  0
  6  7  1  0  0  0  0
  6  8  1  0  0  0  0
  7 12  1  0  0  0  0
  8  9  1  1  0  0  0
  8 10  1  0  0  0  0
 10 11  1  1  0  0  0
 10 12  1  0  0  0  0
 12 32  1  6  0  0  0
 13 17  2  0  0  0  0
 13 28  1  0  0  0  0
 17 18  1  0  0  0  0
 17 22  1  0  0  0  0
 22 26  2  0  0  0  0
 26 27  1  0  0  0  0
 26 32  1  0  0  0  0
 27 28  2  0  0  0  0
 27 30  1  0  0  0  0
 28 29  1  0  0  0  0
 30 31  2  0  0  0  0
 31 32  1  0  0  0  0
M  CHG  3  14  -1  15  -1  21  -1
M  END
>  <CHROM.1>
22.33614849,170.59749467,52.43086945,57.67226582,-175.09075024,144.45240365
52.93975445,-44.34877355,16.98405017,-26.74852376,-19.20201827,-2.23856334
0.06988662,0.26296266

>  <Name>
ligand

>  <RI>
0

>  <Rbt.Current_Directory>
/home/itssahil/PROJECTS/Mol_Feturizer/New_Systems/rnas/4Y1I

>  <Rbt.Executable>
rbdock ($Id: //depot/dev/client3/rdock/2013.1/src/exe/rbdock.cxx#4 $)

>  <Rbt.Library>
libRbt.so (2013.1, Build901 2013/11/27)

>  <Rbt.Parameter_File>
/export/apps/rDock/src/rDock_2013.1_src/data/scripts/dock_solv.prm

>  <Rbt.Receptor>
prm/pocket_docking_3.prm

>  <SCORE>
-3.75837

>  <SCORE.INTER>
2.47712

>  <SCORE.INTER.CONST>
1

>  <SCORE.INTER.POLAR>
0

>  <SCORE.INTER.ROT>
8

>  <SCORE.INTER.SOLV>
4.34152

>  <SCORE.INTER.VDW>
-8.72909

>  <SCORE.INTER.norm>
0.07741

>  <SCORE.INTRA>
-6.23549

>  <SCORE.INTRA.DIHEDRAL>
-7.31226

>  <SCORE.INTRA.DIHEDRAL.0>
10.9594

>  <SCORE.INTRA.POLAR>
0

>  <SCORE.INTRA.POLAR.0>
0

>  <SCORE.INTRA.REPUL>
0

>  <SCORE.INTRA.REPUL.0>
0

>  <SCORE.INTRA.SOLV>
-4.19786

>  <SCORE.INTRA.SOLV.lig_0>
-124.914

>  <SCORE.INTRA.VDW>
-0.480427

>  <SCORE.INTRA.VDW.0>
-4.69801

>  <SCORE.INTRA.norm>
-0.194859

>  <SCORE.RESTR>
0

>  <SCORE.RESTR.CAVITY>
0

>  <SCORE.RESTR.norm>
0

>  <SCORE.SYSTEM>
0

>  <SCORE.SYSTEM.CONST>
0

>  <SCORE.SYSTEM.DIHEDRAL>
0

>  <SCORE.SYSTEM.SOLV>
0

>  <SCORE.SYSTEM.norm>
0

>  <SCORE.heavy>
32

>  <SCORE.norm>
-0.117449

>  <RMSD>
4.035

$$$$
ligand
 OpenBabel11021811513D
libRbt.so/2013.1/901 2013/11/27
 32 34  0  0  0  0  0  0  0  0999 V2000
   17.5491  -29.2344  -15.7884 P   0  0  1  0  0  0  0  0  0  0  0  0
   15.1597  -30.7442  -15.2962 P   0  0  2  0  0  0  0  0  0  0  0  0
   12.6531  -29.2682  -14.9036 P   0  0  1  0  0  0  0  0  0  0  0  0
   16.3050  -27.4947  -17.2774 C   0  0  0  0  0  0  0  0  0  0  0  0
   16.6882  -27.8440  -15.9778 O   0  0  0  0  0  0  0  0  0  0  0  0
   15.6392  -26.2743  -17.2535 C   0  0  1  0  0  0  0  0  0  0  0  0
   16.4310  -25.2700  -16.4384 O   0  0  0  0  0  0  0  0  0  0  0  0
   15.5171  -25.6492  -18.7185 C   0  0  1  0  0  0  0  0  0  0  0  0
   14.0603  -25.5860  -19.1184 O   0  0  0  0  0  0  0  0  0  0  0  0
   15.9231  -24.4880  -18.6287 C   0  0  1  0  0  0  0  0  0  0  0  0
   14.7673  -23.5748  -18.4612 O   0  0  0  0  0  0  0  0  0  0  0  0
   16.8949  -24.4312  -17.2773 C   0  0  2  0  0  0  0  0  0  0  0  0
   21.2487  -22.9220  -19.5471 N   0  0  0  0  0  0  0  0  0  0  0  0
   18.7068  -29.2550  -16.7556 O   0  5  0  0  0  0  0  0  0  0  0  0
   15.4359  -30.9278  -13.8251 O   0  5  0  0  0  0  0  0  0  0  0  0
   12.7376  -29.4179  -13.4027 O   0  0  0  0  0  0  0  0  0  0  0  0
   20.0983  -22.2715  -19.4701 C   0  0  0  0  0  0  0  0  0  0  0  0
   19.9791  -20.9627  -20.0805 N   0  0  0  0  0  0  0  0  0  0  0  0
   18.0368  -29.3127  -14.3593 O   0  0  0  0  0  0  0  0  0  0  0  0
   14.4936  -31.9798  -15.8425 O   0  0  0  0  0  0  0  0  0  0  0  0
   12.1256  -27.8893  -15.2352 O   0  5  0  0  0  0  0  0  0  0  0  0
   19.0496  -22.7764  -18.8530 N   0  0  0  0  0  0  0  0  0  0  0  0
   16.5634  -30.5077  -16.1137 O   0  0  0  0  0  0  0  0  0  0  0  0
   14.1751  -29.4458  -15.5213 O   0  0  0  0  0  0  0  0  0  0  0  0
   11.7280  -30.3317  -15.4539 O   0  0  0  0  0  0  0  0  0  0  0  0
   19.1176  -23.9824  -18.2763 C   0  0  0  0  0  0  0  0  0  0  0  0
   20.3055  -24.6822  -18.3424 C   0  0  0  0  0  0  0  0  0  0  0  0
   21.4137  -24.1223  -19.0067 C   0  0  0  0  0  0  0  0  0  0  0  0
   22.6368  -24.8108  -19.0900 O   0  0  0  0  0  0  0  0  0  0  0  0
   20.1252  -25.8482  -17.6988 N   0  0  0  0  0  0  0  0  0  0  0  0
   18.8806  -25.8691  -17.2547 C   0  0  0  0  0  0  0  0  0  0  0  0
   18.2580  -24.7560  -17.5948 N   0  0  0  0  0  0  0  0  0  0  0  0
  1  5  1  6  0  0  0
  1 14  1  0  0  0  0
  1 19  2  0  0  0  0
  1 23  1  0  0  0  0
  2 15  1  1  0  0  0
  2 20  2  0  0  0  0
  2 23  1  0  0  0  0
  2 24  1  0  0  0  0
  3 16  1  1  0  0  0
  3 21  1  0  0  0  0
  3 24  1  0  0  0  0
  3 25  2  0  0  0  0
  4  5  1  0  0  0  0
  6  4  1  6  0  0  0
  6  7  1  0  0  0  0
  6  8  1  0  0  0  0
  7 12  1  0  0  0  0
  8  9  1  1  0  0  0
  8 10  1  0  0  0  0
 10 11  1  1  0  0  0
 10 12  1  0  0  0  0
 12 32  1  6  0  0  0
 13 17  2  0  0  0  0
 13 28  1  0  0  0  0
 17 18  1  0  0  0  0
 17 22  1  0  0  0  0
 22 26  2  0  0  0  0
 26 27  1  0  0  0  0
 26 32  1  0  0  0  0
 27 28  2  0  0  0  0
 27 30  1  0  0  0  0
 28 29  1  0  0  0  0
 30 31  2  0  0  0  0
 31 32  1  0  0  0  0
M  CHG  3  14  -1  15  -1  21  -1
M  END
>  <CHROM.1>
49.86723872,-60.63330285,56.24025814,48.20131360,-177.60046248,-169.12135282
-57.30499159,-60.00840795,16.65287252,-27.08227454,-16.82820656,-2.22873613
0.09001173,-0.47009796

>  <Name>
ligand

>  <RI>
0

>  <Rbt.Current_Directory>
/home/itssahil/PROJECTS/Mol_Feturizer/New_Systems/rnas/4Y1I

>  <Rbt.Executable>
rbdock ($Id: //depot/dev/client3/rdock/2013.1/src/exe/rbdock.cxx#4 $)

>  <Rbt.Library>
libRbt.so (2013.1, Build901 2013/11/27)

>  <Rbt.Parameter_File>
/export/apps/rDock/src/rDock_2013.1_src/data/scripts/dock_solv.prm

>  <Rbt.Receptor>
prm/pocket_docking_3.prm

>  <SCORE>
-5.50786

>  <SCORE.INTER>
1.84899

>  <SCORE.INTER.CONST>
1

>  <SCORE.INTER.POLAR>
0

>  <SCORE.INTER.ROT>
8

>  <SCORE.INTER.SOLV>
4.94124

>  <SCORE.INTER.VDW>
-9.34776

>  <SCORE.INTER.norm>
0.0577808

>  <SCORE.INTRA>
-7.35685

>  <SCORE.INTRA.DIHEDRAL>
-9.05197

>  <SCORE.INTRA.DIHEDRAL.0>
10.9594

>  <SCORE.INTRA.POLAR>
0

>  <SCORE.INTRA.POLAR.0>
0

>  <SCORE.INTRA.REPUL>
0

>  <SCORE.INTRA.REPUL.0>
0

>  <SCORE.INTRA.SOLV>
-4.88661

>  <SCORE.INTRA.SOLV.lig_0>
-124.914

>  <SCORE.INTRA.VDW>
-0.38756

>  <SCORE.INTRA.VDW.0>
-4.69801

>  <SCORE.INTRA.norm>
-0.229902

>  <SCORE.RESTR>
0

>  <SCORE.RESTR.CAVITY>
0

>  <SCORE.RESTR.norm>
0

>  <SCORE.SYSTEM>
0

>  <SCORE.SYSTEM.CONST>
0

>  <SCORE.SYSTEM.DIHEDRAL>
0

>  <SCORE.SYSTEM.SOLV>
0

>  <SCORE.SYSTEM.norm>
0

>  <SCORE.heavy>
32

>  <SCORE.norm>
-0.172121

>  <RMSD>
4.088

$$$$
ligand
 OpenBabel11021811513D
libRbt.so/2013.1/901 2013/11/27
 32 34  0  0  0  0  0  0  0  0999 V2000
   17.5379  -29.1539  -19.9913 P   0  0  1  0  0  0  0  0  0  0  0  0
   15.9830  -31.3265  -18.9458 P   0  0  2  0  0  0  0  0  0  0  0  0
   13.4349  -30.4643  -17.7713 P   0  0  1  0  0  0  0  0  0  0  0  0
   16.7759  -26.7254  -19.4317 C   0  0  0  0  0  0  0  0  0  0  0  0
   16.9328  -28.0302  -18.9514 O   0  0  0  0  0  0  0  0  0  0  0  0
   16.1946  -25.9345  -18.4469 C   0  0  1  0  0  0  0  0  0  0  0  0
   17.0633  -25.9360  -17.2039 O   0  0  0  0  0  0  0  0  0  0  0  0
   16.0958  -24.4085  -18.9093 C   0  0  1  0  0  0  0  0  0  0  0  0
   14.6414  -24.0134  -19.0316 O   0  0  0  0  0  0  0  0  0  0  0  0
   16.5805  -23.7420  -17.9916 C   0  0  1  0  0  0  0  0  0  0  0  0
   15.4915  -23.2423  -17.1186 O   0  0  0  0  0  0  0  0  0  0  0  0
   17.5718  -24.7701  -17.1346 C   0  0  2  0  0  0  0  0  0  0  0  0
   21.1411  -22.2383  -19.8244 N   0  0  0  0  0  0  0  0  0  0  0  0
   16.7258  -29.1638  -21.2628 O   0  5  0  0  0  0  0  0  0  0  0  0
   16.1708  -32.5107  -18.0311 O   0  5  0  0  0  0  0  0  0  0  0  0
   12.8858  -29.1540  -17.2574 O   0  0  0  0  0  0  0  0  0  0  0  0
   19.9126  -21.8468  -19.5240 C   0  0  0  0  0  0  0  0  0  0  0  0
   19.4478  -20.5518  -19.9783 N   0  0  0  0  0  0  0  0  0  0  0  0
   18.9852  -28.8221  -20.2764 O   0  0  0  0  0  0  0  0  0  0  0  0
   15.3616  -31.7823  -20.2400 O   0  0  0  0  0  0  0  0  0  0  0  0
   12.6195  -30.9088  -18.9660 O   0  5  0  0  0  0  0  0  0  0  0  0
   19.0913  -22.5996  -18.8209 N   0  0  0  0  0  0  0  0  0  0  0  0
   17.4318  -30.6322  -19.2828 O   0  0  0  0  0  0  0  0  0  0  0  0
   15.0032  -30.2169  -18.2283 O   0  0  0  0  0  0  0  0  0  0  0  0
   13.3585  -31.4974  -16.6685 O   0  0  0  0  0  0  0  0  0  0  0  0
   19.4814  -23.8026  -18.3824 C   0  0  0  0  0  0  0  0  0  0  0  0
   20.7574  -24.2351  -18.6821 C   0  0  0  0  0  0  0  0  0  0  0  0
   21.6183  -23.4131  -19.4345 C   0  0  0  0  0  0  0  0  0  0  0  0
   22.9236  -23.8261  -19.7548 O   0  0  0  0  0  0  0  0  0  0  0  0
   20.9097  -25.4551  -18.1393 N   0  0  0  0  0  0  0  0  0  0  0  0
   19.7777  -25.7640  -17.5311 C   0  0  0  0  0  0  0  0  0  0  0  0
   18.9055  -24.7829  -17.6689 N   0  0  0  0  0  0  0  0  0  0  0  0
  1  5  1  1  0  0  0
  1 14  1  0  0  0  0
  1 19  2  0  0  0  0
  1 23  1  0  0  0  0
  2 15  1  1  0  0  0
  2 20  2  0  0  0  0
  2 23  1  0  0  0  0
  2 24  1  0  0  0  0
  3 16  1  1  0  0  0
  3 21  1  0  0  0  0
  3 24  1  0  0  0  0
  3 25  2  0  0  0  0
  4  5  1  0  0  0  0
  6  4  1  6  0  0  0
  6  7  1  0  0  0  0
  6  8  1  0  0  0  0
  7 12  1  0  0  0  0
  8  9  1  1  0  0  0
  8 10  1  0  0  0  0
 10 11  1  1  0  0  0
 10 12  1  0  0  0  0
 12 32  1  6  0  0  0
 13 17  2  0  0  0  0
 13 28  1  0  0  0  0
 17 18  1  0  0  0  0
 17 22  1  0  0  0  0
 22 26  2  0  0  0  0
 26 27  1  0  0  0  0
 26 32  1  0  0  0  0
 27 28  2  0  0  0  0
 27 30  1  0  0  0  0
 28 29  1  0  0  0  0
 30 31  2  0  0  0  0
 31 32  1  0  0  0  0
M  CHG  3  14  -1  15  -1  21  -1
M  END
>  <CHROM.1>
-53.22672306,-167.18223617,-175.56521840,58.70655896,177.00524970,143.36390485
65.63026109,-61.36723153,17.10645205,-27.13663240,-18.73938897,-2.18920500
0.31522407,0.16341321

>  <Name>
ligand

>  <RI>
0

>  <Rbt.Current_Directory>
/home/itssahil/PROJECTS/Mol_Feturizer/New_Systems/rnas/4Y1I

>  <Rbt.Executable>
rbdock ($Id: //depot/dev/client3/rdock/2013.1/src/exe/rbdock.cxx#4 $)

>  <Rbt.Library>
libRbt.so (2013.1, Build901 2013/11/27)

>  <Rbt.Parameter_File>
/export/apps/rDock/src/rDock_2013.1_src/data/scripts/dock_solv.prm

>  <Rbt.Receptor>
prm/pocket_docking_4.prm

>  <SCORE>
-4.87759

>  <SCORE.INTER>
1.7806

>  <SCORE.INTER.CONST>
1

>  <SCORE.INTER.POLAR>
0

>  <SCORE.INTER.ROT>
8

>  <SCORE.INTER.SOLV>
4.37566

>  <SCORE.INTER.VDW>
-9.20482

>  <SCORE.INTER.norm>
0.0556436

>  <SCORE.INTRA>
-6.65818

>  <SCORE.INTRA.DIHEDRAL>
-9.24966

>  <SCORE.INTRA.DIHEDRAL.0>
10.9594

>  <SCORE.INTRA.POLAR>
0

>  <SCORE.INTRA.POLAR.0>
0

>  <SCORE.INTRA.REPUL>
0

>  <SCORE.INTRA.REPUL.0>
0

>  <SCORE.INTRA.SOLV>
-3.89295

>  <SCORE.INTRA.SOLV.lig_0>
-124.914

>  <SCORE.INTRA.VDW>
-0.0868783

>  <SCORE.INTRA.VDW.0>
-4.69801

>  <SCORE.INTRA.norm>
-0.208068

>  <SCORE.RESTR>
0

>  <SCORE.RESTR.CAVITY>
0

>  <SCORE.RESTR.norm>
0

>  <SCORE.SYSTEM>
0

>  <SCORE.SYSTEM.CONST>
0

>  <SCORE.SYSTEM.DIHEDRAL>
0

>  <SCORE.SYSTEM.SOLV>
0

>  <SCORE.SYSTEM.norm>
0

>  <SCORE.heavy>
32

>  <SCORE.norm>
-0.152425

>  <RMSD>
4.132

$$$$
ligand
 OpenBabel11021811513D
libRbt.so/2013.1/901 2013/11/27
 32 34  0  0  0  0  0  0  0  0999 V2000
   15.5270  -24.3911  -14.7133 P   0  0  1  0  0  0  0  0  0  0  0  0
   13.3003  -26.1998  -14.6761 P   0  0  2  0  0  0  0  0  0  0  0  0
   13.4829  -28.9156  -13.5778 P   0  0  1  0  0  0  0  0  0  0  0  0
   16.3792  -24.0343  -17.1501 C   0  0  0  0  0  0  0  0  0  0  0  0
   16.1650  -24.9580  -16.1211 O   0  0  0  0  0  0  0  0  0  0  0  0
   16.9369  -24.6817  -18.2470 C   0  0  1  0  0  0  0  0  0  0  0  0
   16.7975  -23.8151  -19.4838 O   0  0  0  0  0  0  0  0  0  0  0  0
   18.5052  -24.9137  -18.0504 C   0  0  1  0  0  0  0  0  0  0  0  0
   18.7886  -26.3970  -17.9767 O   0  0  0  0  0  0  0  0  0  0  0  0
   19.0440  -24.4882  -19.0750 C   0  0  1  0  0  0  0  0  0  0  0  0
   19.2912  -25.6160  -20.0050 O   0  0  0  0  0  0  0  0  0  0  0  0
   17.9737  -23.4103  -19.7581 C   0  0  2  0  0  0  0  0  0  0  0  0
   21.2108  -19.4631  -19.1872 N   0  0  0  0  0  0  0  0  0  0  0  0
   16.6365  -23.9671  -13.7831 O   0  5  0  0  0  0  0  0  0  0  0  0
   13.5726  -26.6777  -16.0803 O   0  5  0  0  0  0  0  0  0  0  0  0
   14.9415  -28.6710  -13.2693 O   0  0  0  0  0  0  0  0  0  0  0  0
   21.4383  -20.6299  -19.7701 C   0  0  0  0  0  0  0  0  0  0  0  0
   22.7427  -20.8970  -20.3418 N   0  0  0  0  0  0  0  0  0  0  0  0
   14.6116  -23.2297  -15.0281 O   0  0  0  0  0  0  0  0  0  0  0  0
   12.2680  -25.1033  -14.7077 O   0  0  0  0  0  0  0  0  0  0  0  0
   12.8513  -29.6644  -12.4246 O   0  5  0  0  0  0  0  0  0  0  0  0
   20.5126  -21.5639  -19.8494 N   0  0  0  0  0  0  0  0  0  0  0  0
   14.6722  -25.6007  -14.0027 O   0  0  0  0  0  0  0  0  0  0  0  0
   12.7460  -27.4482  -13.7594 O   0  0  0  0  0  0  0  0  0  0  0  0
   13.3775  -29.7254  -14.8516 O   0  0  0  0  0  0  0  0  0  0  0  0
   19.2948  -21.3573  -19.3339 C   0  0  0  0  0  0  0  0  0  0  0  0
   19.0314  -20.1495  -18.7201 C   0  0  0  0  0  0  0  0  0  0  0  0
   20.0360  -19.1653  -18.6478 C   0  0  0  0  0  0  0  0  0  0  0  0
   19.7973  -17.9253  -18.0295 O   0  0  0  0  0  0  0  0  0  0  0  0
   17.7588  -20.1828  -18.2892 N   0  0  0  0  0  0  0  0  0  0  0  0
   17.2571  -21.3596  -18.6213 C   0  0  0  0  0  0  0  0  0  0  0  0
   18.1675  -22.0810  -19.2484 N   0  0  0  0  0  0  0  0  0  0  0  0
  1  5  1  6  0  0  0
  1 14  1  0  0  0  0
  1 19  2  0  0  0  0
  1 23  1  0  0  0  0
  2 15  1  6  0  0  0
  2 20  2  0  0  0  0
  2 23  1  0  0  0  0
  2 24  1  0  0  0  0
  3 16  1  1  0  0  0
  3 21  1  0  0  0  0
  3 24  1  0  0  0  0
  3 25  2  0  0  0  0
  4  5  1  0  0  0  0
  6  4  1  1  0  0  0
  6  7  1  0  0  0  0
  6  8  1  0  0  0  0
  7 12  1  0  0  0  0
  8  9  1  6  0  0  0
  8 10  1  0  0  0  0
 10 11  1  6  0  0  0
 10 12  1  0  0  0  0
 12 32  1  1  0  0  0
 13 17  2  0  0  0  0
 13 28  1  0  0  0  0
 17 18  1  0  0  0  0
 17 22  1  0  0  0  0
 22 26  2  0  0  0  0
 26 27  1  0  0  0  0
 26 32  1  0  0  0  0
 27 28  2  0  0  0  0
 27 30  1  0  0  0  0
 28 29  1  0  0  0  0
 30 31  2  0  0  0  0
 31 32  1  0  0  0  0
M  CHG  3  14  -1  15  -1  21  -1
M  END
>  <CHROM.1>
-89.93762088,56.01654323,48.07591460,163.35610041,179.12350024,178.64089315
-66.62135334,53.09378102,16.60416632,-24.36539312,-16.68551897,2.54947590
-0.76745494,-3.00503240

>  <Name>
ligand

>  <RI>
0

>  <Rbt.Current_Directory>
/home/itssahil/PROJECTS/Mol_Feturizer/New_Systems/rnas/4Y1I

>  <Rbt.Executable>
rbdock ($Id: //depot/dev/client3/rdock/2013.1/src/exe/rbdock.cxx#4 $)

>  <Rbt.Library>
libRbt.so (2013.1, Build901 2013/11/27)

>  <Rbt.Parameter_File>
/export/apps/rDock/src/rDock_2013.1_src/data/scripts/dock_solv.prm

>  <Rbt.Receptor>
prm/pocket_docking_5.prm

>  <SCORE>
-8.62178

>  <SCORE.INTER>
-3.08049

>  <SCORE.INTER.CONST>
1

>  <SCORE.INTER.POLAR>
0

>  <SCORE.INTER.ROT>
8

>  <SCORE.INTER.SOLV>
13.3509

>  <SCORE.INTER.VDW>
-15.4373

>  <SCORE.INTER.norm>
-0.0962654

>  <SCORE.INTRA>
-5.54128

>  <SCORE.INTRA.DIHEDRAL>
-7.26113

>  <SCORE.INTRA.DIHEDRAL.0>
10.9594

>  <SCORE.INTRA.POLAR>
0

>  <SCORE.INTRA.POLAR.0>
0

>  <SCORE.INTRA.REPUL>
0

>  <SCORE.INTRA.REPUL.0>
0

>  <SCORE.INTRA.SOLV>
-4.76558

>  <SCORE.INTRA.SOLV.lig_0>
-124.914

>  <SCORE.INTRA.VDW>
0.472074

>  <SCORE.INTRA.VDW.0>
-4.69801

>  <SCORE.INTRA.norm>
-0.173165

>  <SCORE.RESTR>
0

>  <SCORE.RESTR.CAVITY>
0

>  <SCORE.RESTR.norm>
0

>  <SCORE.SYSTEM>
0

>  <SCORE.SYSTEM.CONST>
0

>  <SCORE.SYSTEM.DIHEDRAL>
0

>  <SCORE.SYSTEM.SOLV>
0

>  <SCORE.SYSTEM.norm>
0

>  <SCORE.heavy>
32

>  <SCORE.norm>
-0.269431

>  <RMSD>
4.142

$$$$
ligand
 OpenBabel11021811513D
libRbt.so/2013.1/901 2013/11/27
 32 34  0  0  0  0  0  0  0  0999 V2000
   16.0128  -29.2295  -17.8850 P   0  0  1  0  0  0  0  0  0  0  0  0
   14.5017  -28.9816  -15.4589 P   0  0  2  0  0  0  0  0  0  0  0  0
   12.4955  -29.3606  -13.3501 P   0  0  1  0  0  0  0  0  0  0  0  0
   16.2623  -26.6710  -17.4568 C   0  0  0  0  0  0  0  0  0  0  0  0
   15.5805  -27.6660  -18.1660 O   0  0  0  0  0  0  0  0  0  0  0  0
   15.6985  -25.4313  -17.7371 C   0  0  1  0  0  0  0  0  0  0  0  0
   16.4748  -24.3386  -17.0277 O   0  0  0  0  0  0  0  0  0  0  0  0
   15.7882  -25.0902  -19.2952 C   0  0  1  0  0  0  0  0  0  0  0  0
   14.3938  -25.0188  -19.8754 O   0  0  0  0  0  0  0  0  0  0  0  0
   16.2742  -23.9590  -19.3692 C   0  0  1  0  0  0  0  0  0  0  0  0
   15.1844  -22.9644  -19.5137 O   0  0  0  0  0  0  0  0  0  0  0  0
   17.0938  -23.7034  -17.9420 C   0  0  2  0  0  0  0  0  0  0  0  0
   21.8860  -22.6668  -19.4732 N   0  0  0  0  0  0  0  0  0  0  0  0
   15.8835  -30.0322  -19.1558 O   0  5  0  0  0  0  0  0  0  0  0  0
   13.7525  -27.7540  -15.9128 O   0  5  0  0  0  0  0  0  0  0  0  0
   13.2752  -28.4524  -12.4283 O   0  0  0  0  0  0  0  0  0  0  0  0
   20.8067  -21.9099  -19.5949 C   0  0  0  0  0  0  0  0  0  0  0  0
   20.9160  -20.6120  -20.2298 N   0  0  0  0  0  0  0  0  0  0  0  0
   17.4347  -29.2553  -17.3713 O   0  0  0  0  0  0  0  0  0  0  0  0
   15.7168  -28.5683  -14.6706 O   0  0  0  0  0  0  0  0  0  0  0  0
   11.3756  -28.5714  -13.9923 O   0  5  0  0  0  0  0  0  0  0  0  0
   19.6272  -22.2985  -19.1552 N   0  0  0  0  0  0  0  0  0  0  0  0
   14.9983  -29.8571  -16.7556 O   0  0  0  0  0  0  0  0  0  0  0  0
   13.5274  -29.9131  -14.5160 O   0  0  0  0  0  0  0  0  0  0  0  0
   11.9335  -30.5133  -12.5471 O   0  0  0  0  0  0  0  0  0  0  0  0
   19.4831  -23.4902  -18.5629 C   0  0  0  0  0  0  0  0  0  0  0  0
   20.5926  -24.2993  -18.4238 C   0  0  0  0  0  0  0  0  0  0  0  0
   21.8436  -23.8627  -18.9007 C   0  0  0  0  0  0  0  0  0  0  0  0
   22.9917  -24.6644  -18.7729 O   0  0  0  0  0  0  0  0  0  0  0  0
   20.1977  -25.4262  -17.8072 N   0  0  0  0  0  0  0  0  0  0  0  0
   18.9009  -25.3193  -17.5755 C   0  0  0  0  0  0  0  0  0  0  0  0
   18.4528  -24.1622  -18.0256 N   0  0  0  0  0  0  0  0  0  0  0  0
  1  5  1  6  0  0  0
  1 14  1  0  0  0  0
  1 19  2  0  0  0  0
  1 23  1  0  0  0  0
  2 15  1  6  0  0  0
  2 20  2  0  0  0  0
  2 23  1  0  0  0  0
  2 24  1  0  0  0  0
  3 16  1  1  0  0  0
  3 21  1  0  0  0  0
  3 24  1  0  0  0  0
  3 25  2  0  0  0  0
  4  5  1  0  0  0  0
  6  4  1  6  0  0  0
  6  7  1  0  0  0  0
  6  8  1  0  0  0  0
  7 12  1  0  0  0  0
  8  9  1  1  0  0  0
  8 10  1  0  0  0  0
 10 11  1  1  0  0  0
 10 12  1  0  0  0  0
 12 32  1  6  0  0  0
 13 17  2  0  0  0  0
 13 28  1  0  0  0  0
 17 18  1  0  0  0  0
 17 22  1  0  0  0  0
 22 26  2  0  0  0  0
 26 27  1  0  0  0  0
 26 32  1  0  0  0  0
 27 28  2  0  0  0  0
 27 30  1  0  0  0  0
 28 29  1  0  0  0  0
 30 31  2  0  0  0  0
 31 32  1  0  0  0  0
M  CHG  3  14  -1  15  -1  21  -1
M  END
>  <CHROM.1>
-145.83691021,60.43089106,-51.76348887,-177.15811342,-175.26999785,-158.91978973
-39.90329933,-41.81845834,16.45142353,-26.51828586,-17.13920852,-2.32205755
0.24713567,-0.42284127

>  <Name>
ligand

>  <RI>
0

>  <Rbt.Current_Directory>
/home/itssahil/PROJECTS/Mol_Feturizer/New_Systems/rnas/4Y1I

>  <Rbt.Executable>
rbdock ($Id: //depot/dev/client3/rdock/2013.1/src/exe/rbdock.cxx#4 $)

>  <Rbt.Library>
libRbt.so (2013.1, Build901 2013/11/27)

>  <Rbt.Parameter_File>
/export/apps/rDock/src/rDock_2013.1_src/data/scripts/dock_solv.prm

>  <Rbt.Receptor>
prm/pocket_docking_4.prm

>  <SCORE>
-3.48894

>  <SCORE.INTER>
0.422704

>  <SCORE.INTER.CONST>
1

>  <SCORE.INTER.POLAR>
0

>  <SCORE.INTER.ROT>
8

>  <SCORE.INTER.SOLV>
7.93343

>  <SCORE.INTER.VDW>
-11.296

>  <SCORE.INTER.norm>
0.0132095

>  <SCORE.INTRA>
-3.91164

>  <SCORE.INTRA.DIHEDRAL>
-6.87484

>  <SCORE.INTRA.DIHEDRAL.0>
10.9594

>  <SCORE.INTRA.POLAR>
0

>  <SCORE.INTRA.POLAR.0>
0

>  <SCORE.INTRA.REPUL>
0

>  <SCORE.INTRA.REPUL.0>
0

>  <SCORE.INTRA.SOLV>
-2.45305

>  <SCORE.INTRA.SOLV.lig_0>
-124.914

>  <SCORE.INTRA.VDW>
0.752302

>  <SCORE.INTRA.VDW.0>
-4.69801

>  <SCORE.INTRA.norm>
-0.122239

>  <SCORE.RESTR>
0

>  <SCORE.RESTR.CAVITY>
0

>  <SCORE.RESTR.norm>
0

>  <SCORE.SYSTEM>
0

>  <SCORE.SYSTEM.CONST>
0

>  <SCORE.SYSTEM.DIHEDRAL>
0

>  <SCORE.SYSTEM.SOLV>
0

>  <SCORE.SYSTEM.norm>
0

>  <SCORE.heavy>
32

>  <SCORE.norm>
-0.109029

>  <RMSD>
4.167

$$$$
ligand
 OpenBabel11021811513D
libRbt.so/2013.1/901 2013/11/27
 32 34  0  0  0  0  0  0  0  0999 V2000
   14.3552  -28.2152  -19.8423 P   0  0  1  0  0  0  0  0  0  0  0  0
   12.7973  -29.7286  -17.9678 P   0  0  2  0  0  0  0  0  0  0  0  0
   11.7379  -30.7873  -15.4435 P   0  0  1  0  0  0  0  0  0  0  0  0
   15.7223  -25.9979  -19.9203 C   0  0  0  0  0  0  0  0  0  0  0  0
   15.7667  -27.3795  -19.7028 O   0  0  0  0  0  0  0  0  0  0  0  0
   15.0740  -25.3806  -18.8564 C   0  0  1  0  0  0  0  0  0  0  0  0
   15.7989  -25.6896  -17.5606 O   0  0  0  0  0  0  0  0  0  0  0  0
   15.0998  -23.7901  -19.0032 C   0  0  1  0  0  0  0  0  0  0  0  0
   13.6884  -23.2789  -19.1845 O   0  0  0  0  0  0  0  0  0  0  0  0
   15.5113  -23.3547  -17.9250 C   0  0  1  0  0  0  0  0  0  0  0  0
   14.3575  -22.9647  -17.0798 O   0  0  0  0  0  0  0  0  0  0  0  0
   16.3515  -24.5988  -17.2038 C   0  0  2  0  0  0  0  0  0  0  0  0
   20.0996  -22.1348  -19.7069 N   0  0  0  0  0  0  0  0  0  0  0  0
   13.3764  -27.4299  -20.6798 O   0  5  0  0  0  0  0  0  0  0  0  0
   13.6149  -30.9923  -18.0622 O   0  5  0  0  0  0  0  0  0  0  0  0
   11.0327  -30.1797  -14.2536 O   0  0  0  0  0  0  0  0  0  0  0  0
   18.8338  -21.7728  -19.5672 C   0  0  0  0  0  0  0  0  0  0  0  0
   18.3770  -20.5367  -20.1699 N   0  0  0  0  0  0  0  0  0  0  0  0
   14.6469  -29.5597  -20.4697 O   0  0  0  0  0  0  0  0  0  0  0  0
   11.6515  -29.7950  -18.9432 O   0  0  0  0  0  0  0  0  0  0  0  0
   10.7779  -31.6994  -16.1757 O   0  5  0  0  0  0  0  0  0  0  0  0
   17.9681  -22.5028  -18.8940 N   0  0  0  0  0  0  0  0  0  0  0  0
   13.7210  -28.4240  -18.3414 O   0  0  0  0  0  0  0  0  0  0  0  0
   12.2085  -29.5576  -16.4414 O   0  0  0  0  0  0  0  0  0  0  0  0
   12.9394  -31.5686  -14.9585 O   0  0  0  0  0  0  0  0  0  0  0  0
   18.3494  -23.6514  -18.3222 C   0  0  0  0  0  0  0  0  0  0  0  0
   19.6636  -24.0524  -18.4530 C   0  0  0  0  0  0  0  0  0  0  0  0
   20.5716  -23.2554  -19.1766 C   0  0  0  0  0  0  0  0  0  0  0  0
   21.9164  -23.6373  -19.3265 O   0  0  0  0  0  0  0  0  0  0  0  0
   19.7980  -25.2198  -17.8009 N   0  0  0  0  0  0  0  0  0  0  0  0
   18.6188  -25.5278  -17.2896 C   0  0  0  0  0  0  0  0  0  0  0  0
   17.7340  -24.5972  -17.5951 N   0  0  0  0  0  0  0  0  0  0  0  0
  1  5  1  1  0  0  0
  1 14  1  0  0  0  0
  1 19  2  0  0  0  0
  1 23  1  0  0  0  0
  2 15  1  6  0  0  0
  2 20  2  0  0  0  0
  2 23  1  0  0  0  0
  2 24  1  0  0  0  0
  3 16  1  1  0  0  0
  3 21  1  0  0  0  0
  3 24  1  0  0  0  0
  3 25  2  0  0  0  0
  4  5  1  0  0  0  0
  6  4  1  6  0  0  0
  6  7  1  0  0  0  0
  6  8  1  0  0  0  0
  7 12  1  0  0  0  0
  8  9  1  1  0  0  0
  8 10  1  0  0  0  0
 10 11  1  1  0  0  0
 10 12  1  0  0  0  0
 12 32  1  6  0  0  0
 13 17  2  0  0  0  0
 13 28  1  0  0  0  0
 17 18  1  0  0  0  0
 17 22  1  0  0  0  0
 22 26  2  0  0  0  0
 26 27  1  0  0  0  0
 26 32  1  0  0  0  0
 27 28  2  0  0  0  0
 27 30  1  0  0  0  0
 28 29  1  0  0  0  0
 30 31  2  0  0  0  0
 31 32  1  0  0  0  0
M  CHG  3  14  -1  15  -1  21  -1
M  END
>  <CHROM.1>
21.45264728,64.57804689,-169.70066473,58.51004974,71.63530211,126.24488307
-150.14434301,-34.33446608,15.26084706,-26.66671688,-18.18643055,2.28355010
0.07673719,2.79065107

>  <Name>
ligand

>  <RI>
0

>  <Rbt.Current_Directory>
/home/itssahil/PROJECTS/Mol_Feturizer/New_Systems/rnas/4Y1I

>  <Rbt.Executable>
rbdock ($Id: //depot/dev/client3/rdock/2013.1/src/exe/rbdock.cxx#4 $)

>  <Rbt.Library>
libRbt.so (2013.1, Build901 2013/11/27)

>  <Rbt.Parameter_File>
/export/apps/rDock/src/rDock_2013.1_src/data/scripts/dock_solv.prm

>  <Rbt.Receptor>
prm/pocket_docking_3.prm

>  <SCORE>
1.36184

>  <SCORE.INTER>
3.45466

>  <SCORE.INTER.CONST>
1

>  <SCORE.INTER.POLAR>
0

>  <SCORE.INTER.ROT>
8

>  <SCORE.INTER.SOLV>
3.56536

>  <SCORE.INTER.VDW>
-7.81868

>  <SCORE.INTER.norm>
0.107958

>  <SCORE.INTRA>
-2.09282

>  <SCORE.INTRA.DIHEDRAL>
-5.12336

>  <SCORE.INTRA.DIHEDRAL.0>
10.9594

>  <SCORE.INTRA.POLAR>
0

>  <SCORE.INTRA.POLAR.0>
0

>  <SCORE.INTRA.REPUL>
0

>  <SCORE.INTRA.REPUL.0>
0

>  <SCORE.INTRA.SOLV>
-0.565584

>  <SCORE.INTRA.SOLV.lig_0>
-124.914

>  <SCORE.INTRA.VDW>
0.751652

>  <SCORE.INTRA.VDW.0>
-4.69801

>  <SCORE.INTRA.norm>
-0.0654006

>  <SCORE.RESTR>
0

>  <SCORE.RESTR.CAVITY>
0

>  <SCORE.RESTR.norm>
0

>  <SCORE.SYSTEM>
0

>  <SCORE.SYSTEM.CONST>
0

>  <SCORE.SYSTEM.DIHEDRAL>
0

>  <SCORE.SYSTEM.SOLV>
0

>  <SCORE.SYSTEM.norm>
0

>  <SCORE.heavy>
32

>  <SCORE.norm>
0.0425576

>  <RMSD>
4.197

$$$$
ligand
 OpenBabel11021811513D
libRbt.so/2013.1/901 2013/11/27
 32 34  0  0  0  0  0  0  0  0999 V2000
   15.6341  -28.7821  -17.4259 P   0  0  1  0  0  0  0  0  0  0  0  0
   13.2583  -29.2996  -15.9031 P   0  0  2  0  0  0  0  0  0  0  0  0
   13.2225  -27.9810  -13.2810 P   0  0  1  0  0  0  0  0  0  0  0  0
   15.5353  -26.4450  -18.5745 C   0  0  0  0  0  0  0  0  0  0  0  0
   15.0501  -27.2468  -17.5355 O   0  0  0  0  0  0  0  0  0  0  0  0
   15.1070  -25.1352  -18.3895 C   0  0  1  0  0  0  0  0  0  0  0  0
   15.8127  -24.5252  -17.1938 O   0  0  0  0  0  0  0  0  0  0  0  0
   15.4897  -24.2159  -19.6387 C   0  0  1  0  0  0  0  0  0  0  0  0
   14.2259  -23.7409  -20.3193 O   0  0  0  0  0  0  0  0  0  0  0  0
   16.0500  -23.2214  -19.1714 C   0  0  1  0  0  0  0  0  0  0  0  0
   15.0660  -22.1208  -19.0363 O   0  0  0  0  0  0  0  0  0  0  0  0
   16.6205  -23.6633  -17.6703 C   0  0  2  0  0  0  0  0  0  0  0  0
   21.4138  -23.0999  -19.4288 N   0  0  0  0  0  0  0  0  0  0  0  0
   16.1537  -29.2290  -18.7699 O   0  5  0  0  0  0  0  0  0  0  0  0
   12.5002  -30.4948  -15.3825 O   0  5  0  0  0  0  0  0  0  0  0  0
   12.7129  -29.1917  -12.5348 O   0  0  0  0  0  0  0  0  0  0  0  0
   20.3835  -22.2835  -19.5861 C   0  0  0  0  0  0  0  0  0  0  0  0
   20.5564  -21.0570  -20.3380 N   0  0  0  0  0  0  0  0  0  0  0  0
   16.7306  -28.8114  -16.3852 O   0  0  0  0  0  0  0  0  0  0  0  0
   12.3083  -28.3678  -16.6087 O   0  0  0  0  0  0  0  0  0  0  0  0
   14.2113  -27.2404  -12.4074 O   0  5  0  0  0  0  0  0  0  0  0  0
   19.1971  -22.5493  -19.0787 N   0  0  0  0  0  0  0  0  0  0  0  0
   14.4073  -29.7768  -16.9741 O   0  0  0  0  0  0  0  0  0  0  0  0
   13.9768  -28.5069  -14.6536 O   0  0  0  0  0  0  0  0  0  0  0  0
   12.0523  -27.0861  -13.6264 O   0  0  0  0  0  0  0  0  0  0  0  0
   18.9952  -23.6716  -18.3779 C   0  0  0  0  0  0  0  0  0  0  0  0
   20.0527  -24.5405  -18.1994 C   0  0  0  0  0  0  0  0  0  0  0  0
   21.3122  -24.2353  -18.7502 C   0  0  0  0  0  0  0  0  0  0  0  0
   22.4082  -25.1005  -18.5848 O   0  0  0  0  0  0  0  0  0  0  0  0
   19.6057  -25.5790  -17.4728 N   0  0  0  0  0  0  0  0  0  0  0  0
   18.3280  -25.3624  -17.2136 C   0  0  0  0  0  0  0  0  0  0  0  0
   17.9422  -24.2208  -17.7523 N   0  0  0  0  0  0  0  0  0  0  0  0
  1  5  1  6  0  0  0
  1 14  1  0  0  0  0
  1 19  2  0  0  0  0
  1 23  1  0  0  0  0
  2 15  1  1  0  0  0
  2 20  2  0  0  0  0
  2 23  1  0  0  0  0
  2 24  1  0  0  0  0
  3 16  1  1  0  0  0
  3 21  1  0  0  0  0
  3 24  1  0  0  0  0
  3 25  2  0  0  0  0
  4  5  1  0  0  0  0
  6  4  1  6  0  0  0
  6  7  1  0  0  0  0
  6  8  1  0  0  0  0
  7 12  1  0  0  0  0
  8  9  1  1  0  0  0
  8 10  1  0  0  0  0
 10 11  1  1  0  0  0
 10 12  1  0  0  0  0
 12 32  1  6  0  0  0
 13 17  2  0  0  0  0
 13 28  1  0  0  0  0
 17 18  1  0  0  0  0
 17 22  1  0  0  0  0
 22 26  2  0  0  0  0
 26 27  1  0  0  0  0
 26 32  1  0  0  0  0
 27 28  2  0  0  0  0
 27 30  1  0  0  0  0
 28 29  1  0  0  0  0
 30 31  2  0  0  0  0
 31 32  1  0  0  0  0
M  CHG  3  14  -1  15  -1  21  -1
M  END
>  <CHROM.1>
-23.18732425,-164.28438930,63.90277018,69.70387651,-170.47511170,169.78729512
-37.07333134,-52.67589196,16.05989108,-26.24541090,-17.11771705,-2.30739006
0.13847618,-0.54378540

>  <Name>
ligand

>  <RI>
0

>  <Rbt.Current_Directory>
/home/itssahil/PROJECTS/Mol_Feturizer/New_Systems/rnas/4Y1I

>  <Rbt.Executable>
rbdock ($Id: //depot/dev/client3/rdock/2013.1/src/exe/rbdock.cxx#4 $)

>  <Rbt.Library>
libRbt.so (2013.1, Build901 2013/11/27)

>  <Rbt.Parameter_File>
/export/apps/rDock/src/rDock_2013.1_src/data/scripts/dock_solv.prm

>  <Rbt.Receptor>
prm/pocket_docking_4.prm

>  <SCORE>
-4.7758

>  <SCORE.INTER>
0.891136

>  <SCORE.INTER.CONST>
1

>  <SCORE.INTER.POLAR>
0

>  <SCORE.INTER.ROT>
8

>  <SCORE.INTER.SOLV>
6.41415

>  <SCORE.INTER.VDW>
-10.4773

>  <SCORE.INTER.norm>
0.027848

>  <SCORE.INTRA>
-5.66693

>  <SCORE.INTRA.DIHEDRAL>
-6.03924

>  <SCORE.INTRA.DIHEDRAL.0>
10.9594

>  <SCORE.INTRA.POLAR>
0

>  <SCORE.INTRA.POLAR.0>
0

>  <SCORE.INTRA.REPUL>
0

>  <SCORE.INTRA.REPUL.0>
0

>  <SCORE.INTRA.SOLV>
-5.47661

>  <SCORE.INTRA.SOLV.lig_0>
-124.914

>  <SCORE.INTRA.VDW>
0.0909885

>  <SCORE.INTRA.VDW.0>
-4.69801

>  <SCORE.INTRA.norm>
-0.177092

>  <SCORE.RESTR>
0

>  <SCORE.RESTR.CAVITY>
0

>  <SCORE.RESTR.norm>
0

>  <SCORE.SYSTEM>
0

>  <SCORE.SYSTEM.CONST>
0

>  <SCORE.SYSTEM.DIHEDRAL>
0

>  <SCORE.SYSTEM.SOLV>
0

>  <SCORE.SYSTEM.norm>
0

>  <SCORE.heavy>
32

>  <SCORE.norm>
-0.149244

>  <RMSD>
4.281

$$$$
ligand
 OpenBabel11021811513D
libRbt.so/2013.1/901 2013/11/27
 32 34  0  0  0  0  0  0  0  0999 V2000
   18.1626  -26.0427  -21.1589 P   0  0  1  0  0  0  0  0  0  0  0  0
   18.3302  -28.8264  -20.4851 P   0  0  2  0  0  0  0  0  0  0  0  0
   15.9527  -30.3601  -21.2668 P   0  0  1  0  0  0  0  0  0  0  0  0
   20.7194  -25.6429  -21.4654 C   0  0  0  0  0  0  0  0  0  0  0  0
   19.6595  -25.7189  -20.5551 O   0  0  0  0  0  0  0  0  0  0  0  0
   21.8893  -25.3136  -20.7900 C   0  0  1  0  0  0  0  0  0  0  0  0
   21.6876  -24.0338  -20.0017 O   0  0  0  0  0  0  0  0  0  0  0  0
   22.2759  -26.4318  -19.7166 C   0  0  1  0  0  0  0  0  0  0  0  0
   23.5787  -27.0854  -20.1184 O   0  0  0  0  0  0  0  0  0  0  0  0
   22.4779  -25.8326  -18.6576 C   0  0  1  0  0  0  0  0  0  0  0  0
   23.9323  -25.5937  -18.4978 O   0  0  0  0  0  0  0  0  0  0  0  0
   21.6713  -24.3803  -18.7760 C   0  0  2  0  0  0  0  0  0  0  0  0
   16.9779  -22.2942  -18.7044 N   0  0  0  0  0  0  0  0  0  0  0  0
   17.1175  -25.7817  -20.1027 O   0  5  0  0  0  0  0  0  0  0  0  0
   17.7772  -28.4170  -19.1431 O   0  5  0  0  0  0  0  0  0  0  0  0
   15.5268  -29.3042  -22.2597 O   0  0  0  0  0  0  0  0  0  0  0  0
   18.0683  -21.8346  -19.2980 C   0  0  0  0  0  0  0  0  0  0  0  0
   18.0041  -20.5914  -20.0395 N   0  0  0  0  0  0  0  0  0  0  0  0
   17.9312  -25.1744  -22.3750 O   0  0  0  0  0  0  0  0  0  0  0  0
   19.8090  -29.0855  -20.3636 O   0  0  0  0  0  0  0  0  0  0  0  0
   15.6681  -31.7287  -21.8461 O   0  5  0  0  0  0  0  0  0  0  0  0
   19.2190  -22.4733  -19.2378 N   0  0  0  0  0  0  0  0  0  0  0  0
   18.1025  -27.6284  -21.5841 O   0  0  0  0  0  0  0  0  0  0  0  0
   17.5755  -30.1919  -21.0066 O   0  0  0  0  0  0  0  0  0  0  0  0
   15.1840  -30.1640  -19.9783 O   0  0  0  0  0  0  0  0  0  0  0  0
   19.3211  -23.6247  -18.5630 C   0  0  0  0  0  0  0  0  0  0  0  0
   18.1991  -24.1259  -17.9344 C   0  0  0  0  0  0  0  0  0  0  0  0
   16.9795  -23.4264  -18.0129 C   0  0  0  0  0  0  0  0  0  0  0  0
   15.8198  -23.9120  -17.3836 O   0  0  0  0  0  0  0  0  0  0  0  0
   18.5509  -25.2751  -17.3328 N   0  0  0  0  0  0  0  0  0  0  0  0
   19.8340  -25.4758  -17.5781 C   0  0  0  0  0  0  0  0  0  0  0  0
   20.3152  -24.4918  -18.3147 N   0  0  0  0  0  0  0  0  0  0  0  0
  1  5  1  1  0  0  0
  1 14  1  0  0  0  0
  1 19  2  0  0  0  0
  1 23  1  0  0  0  0
  2 15  1  1  0  0  0
  2 20  2  0  0  0  0
  2 23  1  0  0  0  0
  2 24  1  0  0  0  0
  3 16  1  6  0  0  0
  3 21  1  0  0  0  0
  3 24  1  0  0  0  0
  3 25  2  0  0  0  0
  4  5  1  0  0  0  0
  6  4  1  1  0  0  0
  6  7  1  0  0  0  0
  6  8  1  0  0  0  0
  7 12  1  0  0  0  0
  8  9  1  6  0  0  0
  8 10  1  0  0  0  0
 10 11  1  6  0  0  0
 10 12  1  0  0  0  0
 12 32  1  6  0  0  0
 13 17  2  0  0  0  0
 13 28  1  0  0  0  0
 17 18  1  0  0  0  0
 17 22  1  0  0  0  0
 22 26  2  0  0  0  0
 26 27  1  0  0  0  0
 26 32  1  0  0  0  0
 27 28  2  0  0  0  0
 27 30  1  0  0  0  0
 28 29  1  0  0  0  0
 30 31  2  0  0  0  0
 31 32  1  0  0  0  0
M  CHG  3  14  -1  15  -1  21  -1
M  END
>  <CHROM.1>
-167.32804116,33.99382339,56.70041015,-55.11559854,177.73437384,-44.00265172
60.62937298,59.18018238,18.76418749,-26.31731656,-19.95061686,2.08712891
0.03392108,-2.82837231

>  <Name>
ligand

>  <RI>
0

>  <Rbt.Current_Directory>
/home/itssahil/PROJECTS/Mol_Feturizer/New_Systems/rnas/4Y1I

>  <Rbt.Executable>
rbdock ($Id: //depot/dev/client3/rdock/2013.1/src/exe/rbdock.cxx#4 $)

>  <Rbt.Library>
libRbt.so (2013.1, Build901 2013/11/27)

>  <Rbt.Parameter_File>
/export/apps/rDock/src/rDock_2013.1_src/data/scripts/dock_solv.prm

>  <Rbt.Receptor>
prm/pocket_docking_4.prm

>  <SCORE>
-5.12368

>  <SCORE.INTER>
2.33649

>  <SCORE.INTER.CONST>
1

>  <SCORE.INTER.POLAR>
0

>  <SCORE.INTER.ROT>
8

>  <SCORE.INTER.SOLV>
3.75055

>  <SCORE.INTER.VDW>
-8.62586

>  <SCORE.INTER.norm>
0.0730153

>  <SCORE.INTRA>
-7.46017

>  <SCORE.INTRA.DIHEDRAL>
-8.36267

>  <SCORE.INTRA.DIHEDRAL.0>
10.9594

>  <SCORE.INTRA.POLAR>
0

>  <SCORE.INTRA.POLAR.0>
0

>  <SCORE.INTRA.REPUL>
0

>  <SCORE.INTRA.REPUL.0>
0

>  <SCORE.INTRA.SOLV>
-1.54228

>  <SCORE.INTRA.SOLV.lig_0>
-124.914

>  <SCORE.INTRA.VDW>
-2.5077

>  <SCORE.INTRA.VDW.0>
-4.69801

>  <SCORE.INTRA.norm>
-0.23313

>  <SCORE.RESTR>
0

>  <SCORE.RESTR.CAVITY>
0

>  <SCORE.RESTR.norm>
0

>  <SCORE.SYSTEM>
0

>  <SCORE.SYSTEM.CONST>
0

>  <SCORE.SYSTEM.DIHEDRAL>
0

>  <SCORE.SYSTEM.SOLV>
0

>  <SCORE.SYSTEM.norm>
0

>  <SCORE.heavy>
32

>  <SCORE.norm>
-0.160115

>  <RMSD>
4.307

$$$$
ligand
 OpenBabel11021811513D
libRbt.so/2013.1/901 2013/11/27
 32 34  0  0  0  0  0  0  0  0999 V2000
   18.8116  -28.4695  -19.8161 P   0  0  1  0  0  0  0  0  0  0  0  0
   19.4843  -29.9699  -17.4651 P   0  0  2  0  0  0  0  0  0  0  0  0
   18.2754  -32.6218  -17.1176 P   0  0  1  0  0  0  0  0  0  0  0  0
   20.2620  -26.3616  -20.3106 C   0  0  0  0  0  0  0  0  0  0  0  0
   20.2459  -27.6617  -19.7936 O   0  0  0  0  0  0  0  0  0  0  0  0
   21.5472  -25.8396  -20.2155 C   0  0  1  0  0  0  0  0  0  0  0  0
   21.5744  -24.4296  -20.7735 O   0  0  0  0  0  0  0  0  0  0  0  0
   22.0138  -25.7161  -18.6927 C   0  0  1  0  0  0  0  0  0  0  0  0
   23.1806  -26.6459  -18.4474 O   0  0  0  0  0  0  0  0  0  0  0  0
   22.4293  -24.5629  -18.5557 C   0  0  1  0  0  0  0  0  0  0  0  0
   23.9045  -24.5513  -18.7024 O   0  0  0  0  0  0  0  0  0  0  0  0
   21.7288  -23.6620  -19.7688 C   0  0  2  0  0  0  0  0  0  0  0  0
   18.9389  -19.4398  -18.8884 N   0  0  0  0  0  0  0  0  0  0  0  0
   17.7582  -27.6616  -19.0993 O   0  5  0  0  0  0  0  0  0  0  0  0
   18.5381  -29.1817  -16.5946 O   0  5  0  0  0  0  0  0  0  0  0  0
   17.0400  -31.9980  -16.5118 O   0  0  0  0  0  0  0  0  0  0  0  0
   20.1975  -19.5193  -19.2910 C   0  0  0  0  0  0  0  0  0  0  0  0
   20.9448  -18.3018  -19.5340 N   0  0  0  0  0  0  0  0  0  0  0  0
   18.4168  -28.7180  -21.2544 O   0  0  0  0  0  0  0  0  0  0  0  0
   20.8686  -29.3847  -17.3642 O   0  0  0  0  0  0  0  0  0  0  0  0
   18.0171  -32.9133  -18.5797 O   0  5  0  0  0  0  0  0  0  0  0  0
   20.7993  -20.6759  -19.4802 N   0  0  0  0  0  0  0  0  0  0  0  0
   19.0057  -29.9009  -19.0339 O   0  0  0  0  0  0  0  0  0  0  0  0
   19.5160  -31.5401  -16.9759 O   0  0  0  0  0  0  0  0  0  0  0  0
   18.5967  -33.9005  -16.3751 O   0  0  0  0  0  0  0  0  0  0  0  0
   20.1447  -21.8238  -19.2668 C   0  0  0  0  0  0  0  0  0  0  0  0
   18.8313  -21.7692  -18.8461 C   0  0  0  0  0  0  0  0  0  0  0  0
   18.2083  -20.5214  -18.6513 C   0  0  0  0  0  0  0  0  0  0  0  0
   16.8717  -20.4339  -18.2238 O   0  0  0  0  0  0  0  0  0  0  0  0
   18.3985  -23.0336  -18.7037 N   0  0  0  0  0  0  0  0  0  0  0  0
   19.4001  -23.8350  -19.0217 C   0  0  0  0  0  0  0  0  0  0  0  0
   20.4600  -23.1252  -19.3607 N   0  0  0  0  0  0  0  0  0  0  0  0
  1  5  1  1  0  0  0
  1 14  1  0  0  0  0
  1 19  2  0  0  0  0
  1 23  1  0  0  0  0
  2 15  1  1  0  0  0
  2 20  2  0  0  0  0
  2 23  1  0  0  0  0
  2 24  1  0  0  0  0
  3 16  1  1  0  0  0
  3 21  1  0  0  0  0
  3 24  1  0  0  0  0
  3 25  2  0  0  0  0
  4  5  1  0  0  0  0
  6  4  1  1  0  0  0
  6  7  1  0  0  0  0
  6  8  1  0  0  0  0
  7 12  1  0  0  0  0
  8  9  1  6  0  0  0
  8 10  1  0  0  0  0
 10 11  1  6  0  0  0
 10 12  1  0  0  0  0
 12 32  1  1  0  0  0
 13 17  2  0  0  0  0
 13 28  1  0  0  0  0
 17 18  1  0  0  0  0
 17 22  1  0  0  0  0
 22 26  2  0  0  0  0
 26 27  1  0  0  0  0
 26 32  1  0  0  0  0
 27 28  2  0  0  0  0
 27 30  1  0  0  0  0
 28 29  1  0  0  0  0
 30 31  2  0  0  0  0
 31 32  1  0  0  0  0
M  CHG  3  14  -1  15  -1  21  -1
M  END
>  <CHROM.1>
-55.72253801,56.77199400,-52.30435930,-179.98454845,-179.76541909,-122.62869488
59.11757090,68.63359503,19.70657484,-26.55875688,-18.68039237,1.70975376
-0.19201447,3.01419491

>  <Name>
ligand

>  <RI>
0

>  <Rbt.Current_Directory>
/home/itssahil/PROJECTS/Mol_Feturizer/New_Systems/rnas/4Y1I

>  <Rbt.Executable>
rbdock ($Id: //depot/dev/client3/rdock/2013.1/src/exe/rbdock.cxx#4 $)

>  <Rbt.Library>
libRbt.so (2013.1, Build901 2013/11/27)

>  <Rbt.Parameter_File>
/export/apps/rDock/src/rDock_2013.1_src/data/scripts/dock_solv.prm

>  <Rbt.Receptor>
prm/pocket_docking_5.prm

>  <SCORE>
-6.55772

>  <SCORE.INTER>
0.0926639

>  <SCORE.INTER.CONST>
1

>  <SCORE.INTER.POLAR>
0

>  <SCORE.INTER.ROT>
8

>  <SCORE.INTER.SOLV>
7.57001

>  <SCORE.INTER.VDW>
-11.3949

>  <SCORE.INTER.norm>
0.00289575

>  <SCORE.INTRA>
-6.65039

>  <SCORE.INTRA.DIHEDRAL>
-9.46477

>  <SCORE.INTRA.DIHEDRAL.0>
10.9594

>  <SCORE.INTRA.POLAR>
0

>  <SCORE.INTRA.POLAR.0>
0

>  <SCORE.INTRA.REPUL>
0

>  <SCORE.INTRA.REPUL.0>
0

>  <SCORE.INTRA.SOLV>
-4.52418

>  <SCORE.INTRA.SOLV.lig_0>
-124.914

>  <SCORE.INTRA.VDW>
0.344087

>  <SCORE.INTRA.VDW.0>
-4.69801

>  <SCORE.INTRA.norm>
-0.207825

>  <SCORE.RESTR>
0

>  <SCORE.RESTR.CAVITY>
0

>  <SCORE.RESTR.norm>
0

>  <SCORE.SYSTEM>
0

>  <SCORE.SYSTEM.CONST>
0

>  <SCORE.SYSTEM.DIHEDRAL>
0

>  <SCORE.SYSTEM.SOLV>
0

>  <SCORE.SYSTEM.norm>
0

>  <SCORE.heavy>
32

>  <SCORE.norm>
-0.204929

>  <RMSD>
4.317

$$$$
ligand
 OpenBabel11021811513D
libRbt.so/2013.1/901 2013/11/27
 32 34  0  0  0  0  0  0  0  0999 V2000
   17.5221  -28.1762  -17.8455 P   0  0  1  0  0  0  0  0  0  0  0  0
   19.4490  -29.7705  -16.4396 P   0  0  2  0  0  0  0  0  0  0  0  0
   18.8135  -29.3279  -13.6085 P   0  0  1  0  0  0  0  0  0  0  0  0
   17.6318  -25.5994  -17.4720 C   0  0  0  0  0  0  0  0  0  0  0  0
   17.9411  -26.8602  -16.9496 O   0  0  0  0  0  0  0  0  0  0  0  0
   18.5106  -25.2966  -18.5060 C   0  0  1  0  0  0  0  0  0  0  0  0
   17.7672  -24.5961  -19.6270 O   0  0  0  0  0  0  0  0  0  0  0  0
   19.6424  -24.2757  -18.0275 C   0  0  1  0  0  0  0  0  0  0  0  0
   20.9909  -24.9573  -18.0844 O   0  0  0  0  0  0  0  0  0  0  0  0
   19.6560  -23.3665  -18.8608 C   0  0  1  0  0  0  0  0  0  0  0  0
   20.7240  -23.6273  -19.8554 O   0  0  0  0  0  0  0  0  0  0  0  0
   18.1664  -23.3867  -19.6053 C   0  0  2  0  0  0  0  0  0  0  0  0
   13.4603  -23.0576  -17.5731 N   0  0  0  0  0  0  0  0  0  0  0  0
   16.0324  -28.1793  -18.0843 O   0  5  0  0  0  0  0  0  0  0  0  0
   20.4640  -29.2599  -17.4313 O   0  5  0  0  0  0  0  0  0  0  0  0
   19.2333  -28.3203  -12.5640 O   0  0  0  0  0  0  0  0  0  0  0  0
   14.0112  -24.0863  -18.1983 C   0  0  0  0  0  0  0  0  0  0  0  0
   13.2490  -25.3070  -18.3673 N   0  0  0  0  0  0  0  0  0  0  0  0
   18.2794  -28.1344  -19.1535 O   0  0  0  0  0  0  0  0  0  0  0  0
   19.6492  -31.2484  -16.2285 O   0  0  0  0  0  0  0  0  0  0  0  0
   17.3230  -29.2090  -13.8409 O   0  5  0  0  0  0  0  0  0  0  0  0
   15.2381  -24.0387  -18.6759 N   0  0  0  0  0  0  0  0  0  0  0  0
   17.9276  -29.5296  -17.0072 O   0  0  0  0  0  0  0  0  0  0  0  0
   19.6244  -28.9832  -15.0060 O   0  0  0  0  0  0  0  0  0  0  0  0
   19.1606  -30.7175  -13.1206 O   0  0  0  0  0  0  0  0  0  0  0  0
   15.9758  -22.9300  -18.5411 C   0  0  0  0  0  0  0  0  0  0  0  0
   15.4251  -21.8425  -17.8935 C   0  0  0  0  0  0  0  0  0  0  0  0
   14.1120  -21.9165  -17.3903 C   0  0  0  0  0  0  0  0  0  0  0  0
   13.5244  -20.8256  -16.7259 O   0  0  0  0  0  0  0  0  0  0  0  0
   16.3482  -20.8658  -17.8850 N   0  0  0  0  0  0  0  0  0  0  0  0
   17.4224  -21.3283  -18.5006 C   0  0  0  0  0  0  0  0  0  0  0  0
   17.2162  -22.5679  -18.9047 N   0  0  0  0  0  0  0  0  0  0  0  0
  1  5  1  1  0  0  0
  1 14  1  0  0  0  0
  1 19  2  0  0  0  0
  1 23  1  0  0  0  0
  2 15  1  6  0  0  0
  2 20  2  0  0  0  0
  2 23  1  0  0  0  0
  2 24  1  0  0  0  0
  3 16  1  1  0  0  0
  3 21  1  0  0  0  0
  3 24  1  0  0  0  0
  3 25  2  0  0  0  0
  4  5  1  0  0  0  0
  6  4  1  1  0  0  0
  6  7  1  0  0  0  0
  6  8  1  0  0  0  0
  7 12  1  0  0  0  0
  8  9  1  6  0  0  0
  8 10  1  0  0  0  0
 10 11  1  6  0  0  0
 10 12  1  0  0  0  0
 12 32  1  1  0  0  0
 13 17  2  0  0  0  0
 13 28  1  0  0  0  0
 17 18  1  0  0  0  0
 17 22  1  0  0  0  0
 22 26  2  0  0  0  0
 26 27  1  0  0  0  0
 26 32  1  0  0  0  0
 27 28  2  0  0  0  0
 27 30  1  0  0  0  0
 28 29  1  0  0  0  0
 30 31  2  0  0  0  0
 31 32  1  0  0  0  0
M  CHG  3  14  -1  15  -1  21  -1
M  END
>  <CHROM.1>
-58.85854851,-37.74541299,-177.36639964,140.78802482,-74.48835882,-11.87362130
-53.98599567,-174.00823070,17.70456002,-26.18625865,-17.17240204,1.14120300
-0.42487180,2.54149047

>  <Name>
ligand

>  <RI>
0

>  <Rbt.Current_Directory>
/home/itssahil/PROJECTS/Mol_Feturizer/New_Systems/rnas/4Y1I

>  <Rbt.Executable>
rbdock ($Id: //depot/dev/client3/rdock/2013.1/src/exe/rbdock.cxx#4 $)

>  <Rbt.Library>
libRbt.so (2013.1, Build901 2013/11/27)

>  <Rbt.Parameter_File>
/export/apps/rDock/src/rDock_2013.1_src/data/scripts/dock_solv.prm

>  <Rbt.Receptor>
prm/pocket_docking_5.prm

>  <SCORE>
-4.7725

>  <SCORE.INTER>
-1.84838

>  <SCORE.INTER.CONST>
1

>  <SCORE.INTER.POLAR>
0

>  <SCORE.INTER.ROT>
8

>  <SCORE.INTER.SOLV>
10.1946

>  <SCORE.INTER.VDW>
-13.5638

>  <SCORE.INTER.norm>
-0.0577619

>  <SCORE.INTRA>
-2.92412

>  <SCORE.INTRA.DIHEDRAL>
-4.05344

>  <SCORE.INTRA.DIHEDRAL.0>
10.9594

>  <SCORE.INTRA.POLAR>
0

>  <SCORE.INTRA.POLAR.0>
0

>  <SCORE.INTRA.REPUL>
0

>  <SCORE.INTRA.REPUL.0>
0

>  <SCORE.INTRA.SOLV>
-0.744249

>  <SCORE.INTRA.SOLV.lig_0>
-124.914

>  <SCORE.INTRA.VDW>
-0.525275

>  <SCORE.INTRA.VDW.0>
-4.69801

>  <SCORE.INTRA.norm>
-0.0913787

>  <SCORE.RESTR>
0

>  <SCORE.RESTR.CAVITY>
0

>  <SCORE.RESTR.norm>
0

>  <SCORE.SYSTEM>
0

>  <SCORE.SYSTEM.CONST>
0

>  <SCORE.SYSTEM.DIHEDRAL>
0

>  <SCORE.SYSTEM.SOLV>
0

>  <SCORE.SYSTEM.norm>
0

>  <SCORE.heavy>
32

>  <SCORE.norm>
-0.149141

>  <RMSD>
4.362

$$$$
ligand
 OpenBabel11021811513D
libRbt.so/2013.1/901 2013/11/27
 32 34  0  0  0  0  0  0  0  0999 V2000
   18.9851  -26.3180  -18.2556 P   0  0  1  0  0  0  0  0  0  0  0  0
   16.6439  -26.4751  -16.6047 P   0  0  2  0  0  0  0  0  0  0  0  0
   14.8447  -24.8531  -18.2623 P   0  0  1  0  0  0  0  0  0  0  0  0
   18.9521  -24.1853  -19.7528 C   0  0  0  0  0  0  0  0  0  0  0  0
   19.7468  -25.0778  -19.0250 O   0  0  0  0  0  0  0  0  0  0  0  0
   19.7641  -23.2551  -20.3921 C   0  0  1  0  0  0  0  0  0  0  0  0
   18.9120  -22.2904  -21.1940 O   0  0  0  0  0  0  0  0  0  0  0  0
   20.5643  -22.3597  -19.3385 C   0  0  1  0  0  0  0  0  0  0  0  0
   22.0460  -22.6296  -19.4720 O   0  0  0  0  0  0  0  0  0  0  0  0
   20.3738  -21.1878  -19.6728 C   0  0  1  0  0  0  0  0  0  0  0  0
   21.5152  -20.7195  -20.4948 O   0  0  0  0  0  0  0  0  0  0  0  0
   18.9764  -21.1769  -20.5788 C   0  0  2  0  0  0  0  0  0  0  0  0
   13.8552  -21.4283  -20.2692 N   0  0  0  0  0  0  0  0  0  0  0  0
   18.1505  -27.0966  -19.2423 O   0  5  0  0  0  0  0  0  0  0  0  0
   16.1772  -25.9232  -15.2812 O   0  5  0  0  0  0  0  0  0  0  0  0
   15.9534  -24.0951  -18.9541 O   0  0  0  0  0  0  0  0  0  0  0  0
   14.6253  -21.6892  -21.3139 C   0  0  0  0  0  0  0  0  0  0  0  0
   14.0153  -22.1037  -22.5612 N   0  0  0  0  0  0  0  0  0  0  0  0
   20.0278  -27.2036  -17.6118 O   0  0  0  0  0  0  0  0  0  0  0  0
   16.9715  -27.9376  -16.4541 O   0  0  0  0  0  0  0  0  0  0  0  0
   13.7280  -25.1093  -19.2507 O   0  5  0  0  0  0  0  0  0  0  0  0
   15.9374  -21.5846  -21.2588 N   0  0  0  0  0  0  0  0  0  0  0  0
   17.9962  -25.6898  -17.1039 O   0  0  0  0  0  0  0  0  0  0  0  0
   15.4618  -26.2917  -17.7339 O   0  0  0  0  0  0  0  0  0  0  0  0
   14.3379  -24.0313  -17.0973 O   0  0  0  0  0  0  0  0  0  0  0  0
   16.5404  -21.2046  -20.1258 C   0  0  0  0  0  0  0  0  0  0  0  0
   15.7606  -20.9260  -19.0215 C   0  0  0  0  0  0  0  0  0  0  0  0
   14.3599  -21.0455  -19.1035 C   0  0  0  0  0  0  0  0  0  0  0  0
   13.5395  -20.7691  -17.9956 O   0  0  0  0  0  0  0  0  0  0  0  0
   16.5858  -20.5712  -18.0218 N   0  0  0  0  0  0  0  0  0  0  0  0
   17.8215  -20.6273  -18.4872 C   0  0  0  0  0  0  0  0  0  0  0  0
   17.8140  -21.0040  -19.7522 N   0  0  0  0  0  0  0  0  0  0  0  0
  1  5  1  6  0  0  0
  1 14  1  0  0  0  0
  1 19  2  0  0  0  0
  1 23  1  0  0  0  0
  2 15  1  1  0  0  0
  2 20  2  0  0  0  0
  2 23  1  0  0  0  0
  2 24  1  0  0  0  0
  3 16  1  6  0  0  0
  3 21  1  0  0  0  0
  3 24  1  0  0  0  0
  3 25  2  0  0  0  0
  4  5  1  0  0  0  0
  6  4  1  1  0  0  0
  6  7  1  0  0  0  0
  6  8  1  0  0  0  0
  7 12  1  0  0  0  0
  8  9  1  6  0  0  0
  8 10  1  0  0  0  0
 10 11  1  6  0  0  0
 10 12  1  0  0  0  0
 12 32  1  1  0  0  0
 13 17  2  0  0  0  0
 13 28  1  0  0  0  0
 17 18  1  0  0  0  0
 17 22  1  0  0  0  0
 22 26  2  0  0  0  0
 26 27  1  0  0  0  0
 26 32  1  0  0  0  0
 27 28  2  0  0  0  0
 27 30  1  0  0  0  0
 28 29  1  0  0  0  0
 30 31  2  0  0  0  0
 31 32  1  0  0  0  0
M  CHG  3  14  -1  15  -1  21  -1
M  END
>  <CHROM.1>
54.78738314,162.10676995,64.00102808,179.49653200,-176.66642611,-47.30203032
152.68200757,62.52240348,17.19923761,-23.71594448,-18.86292491,-1.57835237
0.11004713,-0.49778806

>  <Name>
ligand

>  <RI>
0

>  <Rbt.Current_Directory>
/home/itssahil/PROJECTS/Mol_Feturizer/New_Systems/rnas/4Y1I

>  <Rbt.Executable>
rbdock ($Id: //depot/dev/client3/rdock/2013.1/src/exe/rbdock.cxx#4 $)

>  <Rbt.Library>
libRbt.so (2013.1, Build901 2013/11/27)

>  <Rbt.Parameter_File>
/export/apps/rDock/src/rDock_2013.1_src/data/scripts/dock_solv.prm

>  <Rbt.Receptor>
prm/pocket_docking_8.prm

>  <SCORE>
-7.30417

>  <SCORE.INTER>
0.37705

>  <SCORE.INTER.CONST>
1

>  <SCORE.INTER.POLAR>
0

>  <SCORE.INTER.ROT>
8

>  <SCORE.INTER.SOLV>
7.82564

>  <SCORE.INTER.VDW>
-11.2905

>  <SCORE.INTER.norm>
0.0117828

>  <SCORE.INTRA>
-7.68122

>  <SCORE.INTRA.DIHEDRAL>
-8.0859

>  <SCORE.INTRA.DIHEDRAL.0>
10.9594

>  <SCORE.INTRA.POLAR>
0

>  <SCORE.INTRA.POLAR.0>
0

>  <SCORE.INTRA.REPUL>
0

>  <SCORE.INTRA.REPUL.0>
0

>  <SCORE.INTRA.SOLV>
-2.9772

>  <SCORE.INTRA.SOLV.lig_0>
-124.914

>  <SCORE.INTRA.VDW>
-2.14967

>  <SCORE.INTRA.VDW.0>
-4.69801

>  <SCORE.INTRA.norm>
-0.240038

>  <SCORE.RESTR>
0

>  <SCORE.RESTR.CAVITY>
0

>  <SCORE.RESTR.norm>
0

>  <SCORE.SYSTEM>
0

>  <SCORE.SYSTEM.CONST>
0

>  <SCORE.SYSTEM.DIHEDRAL>
0

>  <SCORE.SYSTEM.SOLV>
0

>  <SCORE.SYSTEM.norm>
0

>  <SCORE.heavy>
32

>  <SCORE.norm>
-0.228255

>  <RMSD>
4.371

$$$$
ligand
 OpenBabel11021811513D
libRbt.so/2013.1/901 2013/11/27
 32 34  0  0  0  0  0  0  0  0999 V2000
   16.1890  -27.0761  -19.9841 P   0  0  1  0  0  0  0  0  0  0  0  0
   15.4895  -29.5192  -18.6524 P   0  0  2  0  0  0  0  0  0  0  0  0
   13.0038  -29.6009  -17.0938 P   0  0  1  0  0  0  0  0  0  0  0  0
   14.8699  -24.8310  -19.8801 C   0  0  0  0  0  0  0  0  0  0  0  0
   16.1019  -25.4617  -19.6741 O   0  0  0  0  0  0  0  0  0  0  0  0
   14.8725  -23.5901  -19.2529 C   0  0  1  0  0  0  0  0  0  0  0  0
   15.0154  -23.7695  -17.7538 O   0  0  0  0  0  0  0  0  0  0  0  0
   16.1253  -22.7102  -19.7092 C   0  0  1  0  0  0  0  0  0  0  0  0
   15.6374  -21.4928  -20.4615 O   0  0  0  0  0  0  0  0  0  0  0  0
   16.6574  -22.3101  -18.6708 C   0  0  1  0  0  0  0  0  0  0  0  0
   16.1776  -20.9403  -18.3688 O   0  0  0  0  0  0  0  0  0  0  0  0
   16.1858  -23.3580  -17.4652 C   0  0  2  0  0  0  0  0  0  0  0  0
   20.8781  -25.1997  -18.4534 N   0  0  0  0  0  0  0  0  0  0  0  0
   15.4907  -27.3856  -21.2852 O   0  5  0  0  0  0  0  0  0  0  0  0
   16.9145  -29.9799  -18.4748 O   0  5  0  0  0  0  0  0  0  0  0  0
   12.1946  -30.0368  -18.2928 O   0  0  0  0  0  0  0  0  0  0  0  0
   20.3886  -24.0060  -18.7503 C   0  0  0  0  0  0  0  0  0  0  0  0
   21.2256  -23.0458  -19.4410 N   0  0  0  0  0  0  0  0  0  0  0  0
   17.6445  -27.4817  -20.0416 O   0  0  0  0  0  0  0  0  0  0  0  0
   14.9232  -30.1077  -19.9180 O   0  0  0  0  0  0  0  0  0  0  0  0
   12.4989  -30.3256  -15.8652 O   0  5  0  0  0  0  0  0  0  0  0  0
   19.1573  -23.6577  -18.4371 N   0  0  0  0  0  0  0  0  0  0  0  0
   15.4309  -27.8829  -18.7704 O   0  0  0  0  0  0  0  0  0  0  0  0
   14.5822  -30.0037  -17.3687 O   0  0  0  0  0  0  0  0  0  0  0  0
   12.8590  -28.1049  -16.9187 O   0  0  0  0  0  0  0  0  0  0  0  0
   18.3514  -24.5151  -17.7991 C   0  0  0  0  0  0  0  0  0  0  0  0
   18.8367  -25.7667  -17.4782 C   0  0  0  0  0  0  0  0  0  0  0  0
   20.1566  -26.1168  -17.8223 C   0  0  0  0  0  0  0  0  0  0  0  0
   20.6791  -27.3838  -17.5082 O   0  0  0  0  0  0  0  0  0  0  0  0
   17.8534  -26.4341  -16.8507 N   0  0  0  0  0  0  0  0  0  0  0  0
   16.8056  -25.6310  -16.7867 C   0  0  0  0  0  0  0  0  0  0  0  0
   17.0855  -24.4728  -17.3545 N   0  0  0  0  0  0  0  0  0  0  0  0
  1  5  1  1  0  0  0
  1 14  1  0  0  0  0
  1 19  2  0  0  0  0
  1 23  1  0  0  0  0
  2 15  1  1  0  0  0
  2 20  2  0  0  0  0
  2 23  1  0  0  0  0
  2 24  1  0  0  0  0
  3 16  1  6  0  0  0
  3 21  1  0  0  0  0
  3 24  1  0  0  0  0
  3 25  2  0  0  0  0
  4  5  1  0  0  0  0
  6  4  1  6  0  0  0
  6  7  1  0  0  0  0
  6  8  1  0  0  0  0
  7 12  1  0  0  0  0
  8  9  1  6  0  0  0
  8 10  1  0  0  0  0
 10 11  1  1  0  0  0
 10 12  1  0  0  0  0
 12 32  1  6  0  0  0
 13 17  2  0  0  0  0
 13 28  1  0  0  0  0
 17 18  1  0  0  0  0
 17 22  1  0  0  0  0
 22 26  2  0  0  0  0
 26 27  1  0  0  0  0
 26 32  1  0  0  0  0
 27 28  2  0  0  0  0
 27 30  1  0  0  0  0
 28 29  1  0  0  0  0
 30 31  2  0  0  0  0
 31 32  1  0  0  0  0
M  CHG  3  14  -1  15  -1  21  -1
M  END
>  <CHROM.1>
44.22538500,61.43807679,57.00987684,-63.48596178,164.51246414,139.78162196
-172.07253047,174.33269574,16.30257780,-26.37850730,-18.48852623,-2.17854708
0.00094976,-0.13120400

>  <Name>
ligand

>  <RI>
0

>  <Rbt.Current_Directory>
/home/itssahil/PROJECTS/Mol_Feturizer/New_Systems/rnas/4Y1I

>  <Rbt.Executable>
rbdock ($Id: //depot/dev/client3/rdock/2013.1/src/exe/rbdock.cxx#4 $)

>  <Rbt.Library>
libRbt.so (2013.1, Build901 2013/11/27)

>  <Rbt.Parameter_File>
/export/apps/rDock/src/rDock_2013.1_src/data/scripts/dock_solv.prm

>  <Rbt.Receptor>
prm/pocket_docking_3.prm

>  <SCORE>
-3.11925

>  <SCORE.INTER>
4.01943

>  <SCORE.INTER.CONST>
1

>  <SCORE.INTER.POLAR>
0

>  <SCORE.INTER.ROT>
8

>  <SCORE.INTER.SOLV>
8.37494

>  <SCORE.INTER.VDW>
-9.04536

>  <SCORE.INTER.norm>
0.125607

>  <SCORE.INTRA>
-7.13868

>  <SCORE.INTRA.DIHEDRAL>
-8.0667

>  <SCORE.INTRA.DIHEDRAL.0>
10.9594

>  <SCORE.INTRA.POLAR>
0

>  <SCORE.INTRA.POLAR.0>
0

>  <SCORE.INTRA.REPUL>
0

>  <SCORE.INTRA.REPUL.0>
0

>  <SCORE.INTRA.SOLV>
-2.48608

>  <SCORE.INTRA.SOLV.lig_0>
-124.914

>  <SCORE.INTRA.VDW>
-1.86229

>  <SCORE.INTRA.VDW.0>
-4.69801

>  <SCORE.INTRA.norm>
-0.223084

>  <SCORE.RESTR>
0

>  <SCORE.RESTR.CAVITY>
0

>  <SCORE.RESTR.norm>
0

>  <SCORE.SYSTEM>
0

>  <SCORE.SYSTEM.CONST>
0

>  <SCORE.SYSTEM.DIHEDRAL>
0

>  <SCORE.SYSTEM.SOLV>
0

>  <SCORE.SYSTEM.norm>
0

>  <SCORE.heavy>
32

>  <SCORE.norm>
-0.0974764

>  <RMSD>
4.375

$$$$
ligand
 OpenBabel11021811513D
libRbt.so/2013.1/901 2013/11/27
 32 34  0  0  0  0  0  0  0  0999 V2000
   15.8312  -27.0735  -19.9836 P   0  0  1  0  0  0  0  0  0  0  0  0
   14.4971  -29.1460  -18.5154 P   0  0  2  0  0  0  0  0  0  0  0  0
   11.6207  -28.8902  -17.9900 P   0  0  1  0  0  0  0  0  0  0  0  0
   17.4794  -25.2508  -20.8515 C   0  0  0  0  0  0  0  0  0  0  0  0
   17.1621  -26.1214  -19.8029 O   0  0  0  0  0  0  0  0  0  0  0  0
   18.5798  -24.4784  -20.4972 C   0  0  1  0  0  0  0  0  0  0  0  0
   18.2249  -23.5793  -19.3286 O   0  0  0  0  0  0  0  0  0  0  0  0
   19.7927  -25.3890  -19.9954 C   0  0  1  0  0  0  0  0  0  0  0  0
   20.9521  -25.2566  -20.9569 O   0  0  0  0  0  0  0  0  0  0  0  0
   20.1545  -24.9114  -18.9173 C   0  0  1  0  0  0  0  0  0  0  0  0
   21.3094  -24.0094  -19.1422 O   0  0  0  0  0  0  0  0  0  0  0  0
   18.8605  -24.0445  -18.3275 C   0  0  2  0  0  0  0  0  0  0  0  0
   17.9450  -28.7283  -16.4277 N   0  0  0  0  0  0  0  0  0  0  0  0
   14.5870  -26.2202  -19.9759 O   0  5  0  0  0  0  0  0  0  0  0  0
   14.7311  -30.0337  -17.3189 O   0  5  0  0  0  0  0  0  0  0  0  0
   11.7251  -29.7797  -16.7733 O   0  0  0  0  0  0  0  0  0  0  0  0
   18.9512  -28.3391  -17.1951 C   0  0  0  0  0  0  0  0  0  0  0  0
   19.9596  -29.3025  -17.5884 N   0  0  0  0  0  0  0  0  0  0  0  0
   15.9543  -27.8387  -21.2818 O   0  0  0  0  0  0  0  0  0  0  0  0
   14.3654  -29.9932  -19.7539 O   0  0  0  0  0  0  0  0  0  0  0  0
   10.6541  -27.7632  -17.6984 O   0  5  0  0  0  0  0  0  0  0  0  0
   19.0687  -27.0966  -17.6170 N   0  0  0  0  0  0  0  0  0  0  0  0
   15.7633  -28.1217  -18.7205 O   0  0  0  0  0  0  0  0  0  0  0  0
   13.1206  -28.2713  -18.3007 O   0  0  0  0  0  0  0  0  0  0  0  0
   11.1313  -29.7130  -19.1617 O   0  0  0  0  0  0  0  0  0  0  0  0
   18.1587  -26.1759  -17.2766 C   0  0  0  0  0  0  0  0  0  0  0  0
   17.0992  -26.5554  -16.4775 C   0  0  0  0  0  0  0  0  0  0  0  0
   16.9945  -27.8890  -16.0377 C   0  0  0  0  0  0  0  0  0  0  0  0
   15.9271  -28.3052  -15.2226 O   0  0  0  0  0  0  0  0  0  0  0  0
   16.3333  -25.4693  -16.2772 N   0  0  0  0  0  0  0  0  0  0  0  0
   16.8940  -24.4624  -16.9243 C   0  0  0  0  0  0  0  0  0  0  0  0
   17.9919  -24.8690  -17.5337 N   0  0  0  0  0  0  0  0  0  0  0  0
  1  5  1  1  0  0  0
  1 14  1  0  0  0  0
  1 19  2  0  0  0  0
  1 23  1  0  0  0  0
  2 15  1  1  0  0  0
  2 20  2  0  0  0  0
  2 23  1  0  0  0  0
  2 24  1  0  0  0  0
  3 16  1  1  0  0  0
  3 21  1  0  0  0  0
  3 24  1  0  0  0  0
  3 25  2  0  0  0  0
  4  5  1  0  0  0  0
  6  4  1  1  0  0  0
  6  7  1  0  0  0  0
  6  8  1  0  0  0  0
  7 12  1  0  0  0  0
  8  9  1  6  0  0  0
  8 10  1  0  0  0  0
 10 11  1  6  0  0  0
 10 12  1  0  0  0  0
 12 32  1  6  0  0  0
 13 17  2  0  0  0  0
 13 28  1  0  0  0  0
 17 18  1  0  0  0  0
 17 22  1  0  0  0  0
 22 26  2  0  0  0  0
 26 27  1  0  0  0  0
 26 32  1  0  0  0  0
 27 28  2  0  0  0  0
 27 30  1  0  0  0  0
 28 29  1  0  0  0  0
 30 31  2  0  0  0  0
 31 32  1  0  0  0  0
M  CHG  3  14  -1  15  -1  21  -1
M  END
>  <CHROM.1>
-67.66401209,177.26533782,54.60429296,-64.93585494,176.70523180,118.86507940
175.17815591,-55.93591841,16.25113445,-27.16167717,-18.46354876,2.76564334
0.37980778,2.14310049

>  <Name>
ligand

>  <RI>
0

>  <Rbt.Current_Directory>
/home/itssahil/PROJECTS/Mol_Feturizer/New_Systems/rnas/4Y1I

>  <Rbt.Executable>
rbdock ($Id: //depot/dev/client3/rdock/2013.1/src/exe/rbdock.cxx#4 $)

>  <Rbt.Library>
libRbt.so (2013.1, Build901 2013/11/27)

>  <Rbt.Parameter_File>
/export/apps/rDock/src/rDock_2013.1_src/data/scripts/dock_solv.prm

>  <Rbt.Receptor>
prm/pocket_docking_3.prm

>  <SCORE>
-2.71974

>  <SCORE.INTER>
5.3142

>  <SCORE.INTER.CONST>
1

>  <SCORE.INTER.POLAR>
0

>  <SCORE.INTER.ROT>
8

>  <SCORE.INTER.SOLV>
1.16525

>  <SCORE.INTER.VDW>
-5.77895

>  <SCORE.INTER.norm>
0.166069

>  <SCORE.INTRA>
-8.03394

>  <SCORE.INTRA.DIHEDRAL>
-9.39759

>  <SCORE.INTRA.DIHEDRAL.0>
10.9594

>  <SCORE.INTRA.POLAR>
0

>  <SCORE.INTRA.POLAR.0>
0

>  <SCORE.INTRA.REPUL>
0

>  <SCORE.INTRA.REPUL.0>
0

>  <SCORE.INTRA.SOLV>
-1.55134

>  <SCORE.INTRA.SOLV.lig_0>
-124.914

>  <SCORE.INTRA.VDW>
-2.55948

>  <SCORE.INTRA.VDW.0>
-4.69801

>  <SCORE.INTRA.norm>
-0.251061

>  <SCORE.RESTR>
0

>  <SCORE.RESTR.CAVITY>
0

>  <SCORE.RESTR.norm>
0

>  <SCORE.SYSTEM>
0

>  <SCORE.SYSTEM.CONST>
0

>  <SCORE.SYSTEM.DIHEDRAL>
0

>  <SCORE.SYSTEM.SOLV>
0

>  <SCORE.SYSTEM.norm>
0

>  <SCORE.heavy>
32

>  <SCORE.norm>
-0.0849918

>  <RMSD>
4.377

$$$$
ligand
 OpenBabel11021811513D
libRbt.so/2013.1/901 2013/11/27
 32 34  0  0  0  0  0  0  0  0999 V2000
   13.9454  -28.0731  -18.6728 P   0  0  1  0  0  0  0  0  0  0  0  0
   13.8809  -30.0711  -16.6149 P   0  0  2  0  0  0  0  0  0  0  0  0
   15.3902  -29.3111  -14.2150 P   0  0  1  0  0  0  0  0  0  0  0  0
   15.8480  -26.4140  -19.3201 C   0  0  0  0  0  0  0  0  0  0  0  0
   15.5159  -27.5818  -18.6245 O   0  0  0  0  0  0  0  0  0  0  0  0
   15.3142  -25.3125  -18.6605 C   0  0  1  0  0  0  0  0  0  0  0  0
   15.9576  -25.1668  -17.2949 O   0  0  0  0  0  0  0  0  0  0  0  0
   15.6335  -23.9558  -19.4411 C   0  0  1  0  0  0  0  0  0  0  0  0
   14.3420  -23.3440  -19.9349 O   0  0  0  0  0  0  0  0  0  0  0  0
   16.1078  -23.1842  -18.6039 C   0  0  1  0  0  0  0  0  0  0  0  0
   15.0374  -22.2946  -18.0932 O   0  0  0  0  0  0  0  0  0  0  0  0
   16.6980  -24.1330  -17.3689 C   0  0  2  0  0  0  0  0  0  0  0  0
   21.2037  -22.8860  -19.4970 N   0  0  0  0  0  0  0  0  0  0  0  0
   13.1198  -27.2413  -17.7228 O   0  5  0  0  0  0  0  0  0  0  0  0
   14.1293  -31.5517  -16.4725 O   0  5  0  0  0  0  0  0  0  0  0  0
   14.1418  -28.9182  -13.4605 O   0  0  0  0  0  0  0  0  0  0  0  0
   20.0763  -22.1920  -19.5029 C   0  0  0  0  0  0  0  0  0  0  0  0
   20.0343  -20.9093  -20.1755 N   0  0  0  0  0  0  0  0  0  0  0  0
   13.4379  -27.9385  -20.0907 O   0  0  0  0  0  0  0  0  0  0  0  0
   12.5389  -29.7257  -16.0245 O   0  0  0  0  0  0  0  0  0  0  0  0
   15.7689  -30.7280  -13.8426 O   0  5  0  0  0  0  0  0  0  0  0  0
   18.9825  -22.6303  -18.9137 N   0  0  0  0  0  0  0  0  0  0  0  0
   13.8749  -29.6448  -18.2001 O   0  0  0  0  0  0  0  0  0  0  0  0
   15.0574  -29.2300  -15.8311 O   0  0  0  0  0  0  0  0  0  0  0  0
   16.5064  -28.3560  -13.8528 O   0  0  0  0  0  0  0  0  0  0  0  0
   18.9789  -23.8101  -18.2816 C   0  0  0  0  0  0  0  0  0  0  0  0
   20.1413  -24.5542  -18.2609 C   0  0  0  0  0  0  0  0  0  0  0  0
   21.2987  -24.0653  -18.8967 C   0  0  0  0  0  0  0  0  0  0  0  0
   22.4975  -24.8001  -18.8920 O   0  0  0  0  0  0  0  0  0  0  0  0
   19.8883  -25.6821  -17.5754 N   0  0  0  0  0  0  0  0  0  0  0  0
   18.6250  -25.6382  -17.1895 C   0  0  0  0  0  0  0  0  0  0  0  0
   18.0608  -24.5204  -17.6075 N   0  0  0  0  0  0  0  0  0  0  0  0
  1  5  1  1  0  0  0
  1 14  1  0  0  0  0
  1 19  2  0  0  0  0
  1 23  1  0  0  0  0
  2 15  1  1  0  0  0
  2 20  2  0  0  0  0
  2 23  1  0  0  0  0
  2 24  1  0  0  0  0
  3 16  1  1  0  0  0
  3 21  1  0  0  0  0
  3 24  1  0  0  0  0
  3 25  2  0  0  0  0
  4  5  1  0  0  0  0
  6  4  1  6  0  0  0
  6  7  1  0  0  0  0
  6  8  1  0  0  0  0
  7 12  1  0  0  0  0
  8  9  1  1  0  0  0
  8 10  1  0  0  0  0
 10 11  1  1  0  0  0
 10 12  1  0  0  0  0
 12 32  1  6  0  0  0
 13 17  2  0  0  0  0
 13 28  1  0  0  0  0
 17 18  1  0  0  0  0
 17 22  1  0  0  0  0
 22 26  2  0  0  0  0
 26 27  1  0  0  0  0
 26 32  1  0  0  0  0
 27 28  2  0  0  0  0
 27 30  1  0  0  0  0
 28 29  1  0  0  0  0
 30 31  2  0  0  0  0
 31 32  1  0  0  0  0
M  CHG  3  14  -1  15  -1  21  -1
M  END
>  <CHROM.1>
-78.00407201,-166.94054760,-58.66801884,64.56796181,71.17411405,149.57340582
81.32179796,-60.79333928,16.26790100,-26.50320295,-17.54398700,2.24332887
0.32967535,2.44807482

>  <Name>
ligand

>  <RI>
0

>  <Rbt.Current_Directory>
/home/itssahil/PROJECTS/Mol_Feturizer/New_Systems/rnas/4Y1I

>  <Rbt.Executable>
rbdock ($Id: //depot/dev/client3/rdock/2013.1/src/exe/rbdock.cxx#4 $)

>  <Rbt.Library>
libRbt.so (2013.1, Build901 2013/11/27)

>  <Rbt.Parameter_File>
/export/apps/rDock/src/rDock_2013.1_src/data/scripts/dock_solv.prm

>  <Rbt.Receptor>
prm/pocket_docking_3.prm

>  <SCORE>
-2.9554

>  <SCORE.INTER>
2.32047

>  <SCORE.INTER.CONST>
1

>  <SCORE.INTER.POLAR>
0

>  <SCORE.INTER.ROT>
8

>  <SCORE.INTER.SOLV>
5.13322

>  <SCORE.INTER.VDW>
-9.09743

>  <SCORE.INTER.norm>
0.0725147

>  <SCORE.INTRA>
-5.28986

>  <SCORE.INTRA.DIHEDRAL>
-7.67631

>  <SCORE.INTRA.DIHEDRAL.0>
10.9594

>  <SCORE.INTRA.POLAR>
0

>  <SCORE.INTRA.POLAR.0>
0

>  <SCORE.INTRA.REPUL>
0.00511551

>  <SCORE.INTRA.REPUL.0>
0

>  <SCORE.INTRA.SOLV>
-3.24955

>  <SCORE.INTRA.SOLV.lig_0>
-124.914

>  <SCORE.INTRA.VDW>
0.147496

>  <SCORE.INTRA.VDW.0>
-4.69801

>  <SCORE.INTRA.norm>
-0.165308

>  <SCORE.RESTR>
0.0139828

>  <SCORE.RESTR.CAVITY>
0.0139828

>  <SCORE.RESTR.norm>
0.000436962

>  <SCORE.SYSTEM>
0

>  <SCORE.SYSTEM.CONST>
0

>  <SCORE.SYSTEM.DIHEDRAL>
0

>  <SCORE.SYSTEM.SOLV>
0

>  <SCORE.SYSTEM.norm>
0

>  <SCORE.heavy>
32

>  <SCORE.norm>
-0.0923564

>  <RMSD>
4.397

$$$$
ligand
 OpenBabel11021811513D
libRbt.so/2013.1/901 2013/11/27
 32 34  0  0  0  0  0  0  0  0999 V2000
   15.2374  -29.3667  -19.5152 P   0  0  1  0  0  0  0  0  0  0  0  0
   13.3681  -30.4287  -17.6154 P   0  0  2  0  0  0  0  0  0  0  0  0
   12.1074  -28.3809  -15.9325 P   0  0  1  0  0  0  0  0  0  0  0  0
   15.5085  -26.7811  -19.6957 C   0  0  0  0  0  0  0  0  0  0  0  0
   14.6868  -27.8336  -19.2773 O   0  0  0  0  0  0  0  0  0  0  0  0
   15.2037  -25.6362  -18.9681 C   0  0  1  0  0  0  0  0  0  0  0  0
   15.5294  -25.8535  -17.5030 O   0  0  0  0  0  0  0  0  0  0  0  0
   16.0955  -24.3956  -19.4348 C   0  0  1  0  0  0  0  0  0  0  0  0
   15.2047  -23.3379  -20.0464 O   0  0  0  0  0  0  0  0  0  0  0  0
   16.5791  -23.9171  -18.4060 C   0  0  1  0  0  0  0  0  0  0  0  0
   15.7478  -22.7746  -17.9573 O   0  0  0  0  0  0  0  0  0  0  0  0
   16.5485  -25.1280  -17.2629 C   0  0  2  0  0  0  0  0  0  0  0  0
   21.4271  -25.4650  -18.8351 N   0  0  0  0  0  0  0  0  0  0  0  0
   15.5903  -29.5638  -20.9687 O   0  5  0  0  0  0  0  0  0  0  0  0
   14.4383  -30.5549  -16.5604 O   0  5  0  0  0  0  0  0  0  0  0  0
   10.9948  -27.3863  -16.1673 O   0  0  0  0  0  0  0  0  0  0  0  0
   20.5779  -24.4648  -19.0118 C   0  0  0  0  0  0  0  0  0  0  0  0
   21.0104  -23.2832  -19.7305 N   0  0  0  0  0  0  0  0  0  0  0  0
   16.4427  -29.5925  -18.6306 O   0  0  0  0  0  0  0  0  0  0  0  0
   12.4290  -31.6028  -17.5243 O   0  0  0  0  0  0  0  0  0  0  0  0
   11.6103  -29.4716  -15.0089 O   0  5  0  0  0  0  0  0  0  0  0  0
   19.3435  -24.5064  -18.5534 N   0  0  0  0  0  0  0  0  0  0  0  0
   14.0425  -30.4195  -19.1120 O   0  0  0  0  0  0  0  0  0  0  0  0
   12.5253  -29.0339  -17.3913 O   0  0  0  0  0  0  0  0  0  0  0  0
   13.2870  -27.6640  -15.3128 O   0  0  0  0  0  0  0  0  0  0  0  0
   18.9043  -25.5794  -17.8845 C   0  0  0  0  0  0  0  0  0  0  0  0
   19.7694  -26.6366  -17.6867 C   0  0  0  0  0  0  0  0  0  0  0  0
   21.0847  -26.5696  -18.1851 C   0  0  0  0  0  0  0  0  0  0  0  0
   21.9887  -27.6303  -17.9989 O   0  0  0  0  0  0  0  0  0  0  0  0
   19.1047  -27.5809  -16.9991 N   0  0  0  0  0  0  0  0  0  0  0  0
   17.8823  -27.1281  -16.7815 C   0  0  0  0  0  0  0  0  0  0  0  0
   17.7422  -25.9264  -17.3092 N   0  0  0  0  0  0  0  0  0  0  0  0
  1  5  1  1  0  0  0
  1 14  1  0  0  0  0
  1 19  2  0  0  0  0
  1 23  1  0  0  0  0
  2 15  1  1  0  0  0
  2 20  2  0  0  0  0
  2 23  1  0  0  0  0
  2 24  1  0  0  0  0
  3 16  1  6  0  0  0
  3 21  1  0  0  0  0
  3 24  1  0  0  0  0
  3 25  2  0  0  0  0
  4  5  1  0  0  0  0
  6  4  1  6  0  0  0
  6  7  1  0  0  0  0
  6  8  1  0  0  0  0
  7 12  1  0  0  0  0
  8  9  1  1  0  0  0
  8 10  1  0  0  0  0
 10 11  1  1  0  0  0
 10 12  1  0  0  0  0
 12 32  1  6  0  0  0
 13 17  2  0  0  0  0
 13 28  1  0  0  0  0
 17 18  1  0  0  0  0
 17 22  1  0  0  0  0
 22 26  2  0  0  0  0
 26 27  1  0  0  0  0
 26 32  1  0  0  0  0
 27 28  2  0  0  0  0
 27 30  1  0  0  0  0
 28 29  1  0  0  0  0
 30 31  2  0  0  0  0
 31 32  1  0  0  0  0
M  CHG  3  14  -1  15  -1  21  -1
M  END
>  <CHROM.1>
-54.61291731,-53.60154311,-161.99176170,64.29702737,-155.60737062,137.25278834
-57.66210017,-37.69817757,15.88498467,-27.32672198,-17.99155763,-2.58653351
0.23087234,0.01563725

>  <Name>
ligand

>  <RI>
0

>  <Rbt.Current_Directory>
/home/itssahil/PROJECTS/Mol_Feturizer/New_Systems/rnas/4Y1I

>  <Rbt.Executable>
rbdock ($Id: //depot/dev/client3/rdock/2013.1/src/exe/rbdock.cxx#4 $)

>  <Rbt.Library>
libRbt.so (2013.1, Build901 2013/11/27)

>  <Rbt.Parameter_File>
/export/apps/rDock/src/rDock_2013.1_src/data/scripts/dock_solv.prm

>  <Rbt.Receptor>
prm/pocket_docking_2.prm

>  <SCORE>
2.75022

>  <SCORE.INTER>
6.32228

>  <SCORE.INTER.CONST>
1

>  <SCORE.INTER.POLAR>
0

>  <SCORE.INTER.ROT>
8

>  <SCORE.INTER.SOLV>
4.60399

>  <SCORE.INTER.VDW>
-6.25315

>  <SCORE.INTER.norm>
0.197571

>  <SCORE.INTRA>
-4.93281

>  <SCORE.INTRA.DIHEDRAL>
-5.77042

>  <SCORE.INTRA.DIHEDRAL.0>
10.9594

>  <SCORE.INTRA.POLAR>
0

>  <SCORE.INTRA.POLAR.0>
0

>  <SCORE.INTRA.REPUL>
0

>  <SCORE.INTRA.REPUL.0>
0

>  <SCORE.INTRA.SOLV>
-2.76505

>  <SCORE.INTRA.SOLV.lig_0>
-124.914

>  <SCORE.INTRA.VDW>
-0.665079

>  <SCORE.INTRA.VDW.0>
-4.69801

>  <SCORE.INTRA.norm>
-0.15415

>  <SCORE.RESTR>
1.36075

>  <SCORE.RESTR.CAVITY>
1.36075

>  <SCORE.RESTR.norm>
0.0425235

>  <SCORE.SYSTEM>
0

>  <SCORE.SYSTEM.CONST>
0

>  <SCORE.SYSTEM.DIHEDRAL>
0

>  <SCORE.SYSTEM.SOLV>
0

>  <SCORE.SYSTEM.norm>
0

>  <SCORE.heavy>
32

>  <SCORE.norm>
0.0859443

>  <RMSD>
4.409

$$$$
ligand
 OpenBabel11021811513D
libRbt.so/2013.1/901 2013/11/27
 32 34  0  0  0  0  0  0  0  0999 V2000
   15.6347  -26.8010  -19.9991 P   0  0  1  0  0  0  0  0  0  0  0  0
   13.8025  -27.7370  -17.9995 P   0  0  2  0  0  0  0  0  0  0  0  0
   12.4865  -29.1557  -15.7926 P   0  0  1  0  0  0  0  0  0  0  0  0
   14.4215  -24.5126  -19.7112 C   0  0  0  0  0  0  0  0  0  0  0  0
   15.6164  -25.2203  -19.5394 O   0  0  0  0  0  0  0  0  0  0  0  0
   14.5612  -23.2314  -19.1893 C   0  0  1  0  0  0  0  0  0  0  0  0
   14.7417  -23.3034  -17.6853 O   0  0  0  0  0  0  0  0  0  0  0  0
   15.8722  -22.5133  -19.7530 C   0  0  1  0  0  0  0  0  0  0  0  0
   15.4712  -21.3191  -20.5892 O   0  0  0  0  0  0  0  0  0  0  0  0
   16.4764  -22.0839  -18.7672 C   0  0  1  0  0  0  0  0  0  0  0  0
   16.1360  -20.6551  -18.5660 O   0  0  0  0  0  0  0  0  0  0  0  0
   15.9547  -22.9829  -17.4657 C   0  0  2  0  0  0  0  0  0  0  0  0
   20.3698  -25.3812  -18.5337 N   0  0  0  0  0  0  0  0  0  0  0  0
   14.5821  -27.0395  -21.0533 O   0  5  0  0  0  0  0  0  0  0  0  0
   12.7545  -28.0926  -19.0240 O   0  5  0  0  0  0  0  0  0  0  0  0
   11.3248  -29.5612  -16.6693 O   0  0  0  0  0  0  0  0  0  0  0  0
   19.9744  -24.1812  -18.9290 C   0  0  0  0  0  0  0  0  0  0  0  0
   20.8458  -23.3870  -19.7713 N   0  0  0  0  0  0  0  0  0  0  0  0
   17.0120  -27.1382  -20.5240 O   0  0  0  0  0  0  0  0  0  0  0  0
   13.5259  -26.3615  -17.4514 O   0  0  0  0  0  0  0  0  0  0  0  0
   12.8271  -30.2987  -14.8614 O   0  5  0  0  0  0  0  0  0  0  0  0
   18.8070  -23.6798  -18.5805 N   0  0  0  0  0  0  0  0  0  0  0  0
   15.2926  -27.7303  -18.6883 O   0  0  0  0  0  0  0  0  0  0  0  0
   13.7770  -28.8316  -16.7719 O   0  0  0  0  0  0  0  0  0  0  0  0
   12.0994  -27.9275  -14.9982 O   0  0  0  0  0  0  0  0  0  0  0  0
   17.9724  -24.3810  -17.8037 C   0  0  0  0  0  0  0  0  0  0  0  0
   18.3600  -25.6354  -17.3779 C   0  0  0  0  0  0  0  0  0  0  0  0
   19.6129  -26.1507  -17.7623 C   0  0  0  0  0  0  0  0  0  0  0  0
   20.0356  -27.4248  -17.3439 O   0  0  0  0  0  0  0  0  0  0  0  0
   17.3663  -26.1317  -16.6214 N   0  0  0  0  0  0  0  0  0  0  0  0
   16.4059  -25.2246  -16.5813 C   0  0  0  0  0  0  0  0  0  0  0  0
   16.7515  -24.1654  -17.2891 N   0  0  0  0  0  0  0  0  0  0  0  0
  1  5  1  1  0  0  0
  1 14  1  0  0  0  0
  1 19  2  0  0  0  0
  1 23  1  0  0  0  0
  2 15  1  6  0  0  0
  2 20  2  0  0  0  0
  2 23  1  0  0  0  0
  2 24  1  0  0  0  0
  3 16  1  6  0  0  0
  3 21  1  0  0  0  0
  3 24  1  0  0  0  0
  3 25  2  0  0  0  0
  4  5  1  0  0  0  0
  6  4  1  6  0  0  0
  6  7  1  0  0  0  0
  6  8  1  0  0  0  0
  7 12  1  0  0  0  0
  8  9  1  6  0  0  0
  8 10  1  0  0  0  0
 10 11  1  1  0  0  0
 10 12  1  0  0  0  0
 12 32  1  6  0  0  0
 13 17  2  0  0  0  0
 13 28  1  0  0  0  0
 17 18  1  0  0  0  0
 17 22  1  0  0  0  0
 22 26  2  0  0  0  0
 26 27  1  0  0  0  0
 26 32  1  0  0  0  0
 27 28  2  0  0  0  0
 27 30  1  0  0  0  0
 28 29  1  0  0  0  0
 30 31  2  0  0  0  0
 31 32  1  0  0  0  0
M  CHG  3  14  -1  15  -1  21  -1
M  END
>  <CHROM.1>
24.81076441,55.97519130,56.69533304,-65.95310298,175.97787418,137.31777405
68.86616787,-59.69976958,15.64942390,-25.88201717,-18.15532322,-2.30406727
0.02013008,-0.39068581

>  <Name>
ligand

>  <RI>
0

>  <Rbt.Current_Directory>
/home/itssahil/PROJECTS/Mol_Feturizer/New_Systems/rnas/4Y1I

>  <Rbt.Executable>
rbdock ($Id: //depot/dev/client3/rdock/2013.1/src/exe/rbdock.cxx#4 $)

>  <Rbt.Library>
libRbt.so (2013.1, Build901 2013/11/27)

>  <Rbt.Parameter_File>
/export/apps/rDock/src/rDock_2013.1_src/data/scripts/dock_solv.prm

>  <Rbt.Receptor>
prm/pocket_docking_3.prm

>  <SCORE>
-2.10044

>  <SCORE.INTER>
4.33957

>  <SCORE.INTER.CONST>
1

>  <SCORE.INTER.POLAR>
0

>  <SCORE.INTER.ROT>
8

>  <SCORE.INTER.SOLV>
6.296

>  <SCORE.INTER.VDW>
-8.13896

>  <SCORE.INTER.norm>
0.135611

>  <SCORE.INTRA>
-6.44001

>  <SCORE.INTRA.DIHEDRAL>
-7.91673

>  <SCORE.INTRA.DIHEDRAL.0>
10.9594

>  <SCORE.INTRA.POLAR>
0

>  <SCORE.INTRA.POLAR.0>
0

>  <SCORE.INTRA.REPUL>
0

>  <SCORE.INTRA.REPUL.0>
0

>  <SCORE.INTRA.SOLV>
-0.811513

>  <SCORE.INTRA.SOLV.lig_0>
-124.914

>  <SCORE.INTRA.VDW>
-2.07589

>  <SCORE.INTRA.VDW.0>
-4.69801

>  <SCORE.INTRA.norm>
-0.20125

>  <SCORE.RESTR>
0

>  <SCORE.RESTR.CAVITY>
0

>  <SCORE.RESTR.norm>
0

>  <SCORE.SYSTEM>
0

>  <SCORE.SYSTEM.CONST>
0

>  <SCORE.SYSTEM.DIHEDRAL>
0

>  <SCORE.SYSTEM.SOLV>
0

>  <SCORE.SYSTEM.norm>
0

>  <SCORE.heavy>
32

>  <SCORE.norm>
-0.0656388

>  <RMSD>
4.443

$$$$
ligand
 OpenBabel11021811513D
libRbt.so/2013.1/901 2013/11/27
 32 34  0  0  0  0  0  0  0  0999 V2000
   17.4115  -26.1465  -21.0506 P   0  0  1  0  0  0  0  0  0  0  0  0
   15.3005  -28.0246  -20.5531 P   0  0  2  0  0  0  0  0  0  0  0  0
   16.5488  -30.6774  -20.6946 P   0  0  1  0  0  0  0  0  0  0  0  0
   19.0543  -28.0115  -20.2669 C   0  0  0  0  0  0  0  0  0  0  0  0
   18.3327  -26.8718  -19.8950 O   0  0  0  0  0  0  0  0  0  0  0  0
   19.7283  -28.5163  -19.1605 C   0  0  1  0  0  0  0  0  0  0  0  0
   20.7814  -27.5262  -18.7014 O   0  0  0  0  0  0  0  0  0  0  0  0
   18.7427  -28.7133  -17.9188 C   0  0  1  0  0  0  0  0  0  0  0  0
   18.6379  -30.1851  -17.5887 O   0  0  0  0  0  0  0  0  0  0  0  0
   19.2874  -28.1608  -16.9600 C   0  0  1  0  0  0  0  0  0  0  0  0
   20.0215  -29.1718  -16.1620 O   0  0  0  0  0  0  0  0  0  0  0  0
   20.3552  -27.0533  -17.5981 C   0  0  2  0  0  0  0  0  0  0  0  0
   20.8243  -22.3058  -19.5026 N   0  0  0  0  0  0  0  0  0  0  0  0
   16.6923  -24.9587  -20.4604 O   0  5  0  0  0  0  0  0  0  0  0  0
   14.0745  -28.5137  -21.2824 O   0  5  0  0  0  0  0  0  0  0  0  0
   17.3975  -31.5066  -19.7595 O   0  0  0  0  0  0  0  0  0  0  0  0
   21.7260  -23.2751  -19.4903 C   0  0  0  0  0  0  0  0  0  0  0  0
   23.0327  -23.0381  -20.0700 N   0  0  0  0  0  0  0  0  0  0  0  0
   18.3085  -25.7233  -22.1918 O   0  0  0  0  0  0  0  0  0  0  0  0
   14.8910  -27.0733  -19.4596 O   0  0  0  0  0  0  0  0  0  0  0  0
   15.3149  -31.4664  -21.0749 O   0  5  0  0  0  0  0  0  0  0  0  0
   21.4748  -24.4570  -18.9654 N   0  0  0  0  0  0  0  0  0  0  0  0
   16.2975  -27.2286  -21.5861 O   0  0  0  0  0  0  0  0  0  0  0  0
   16.1054  -29.3003  -19.8968 O   0  0  0  0  0  0  0  0  0  0  0  0
   17.3586  -30.3408  -21.9277 O   0  0  0  0  0  0  0  0  0  0  0  0
   20.2806  -24.7167  -18.4196 C   0  0  0  0  0  0  0  0  0  0  0  0
   19.3223  -23.7233  -18.4189 C   0  0  0  0  0  0  0  0  0  0  0  0
   19.6130  -22.4677  -18.9864 C   0  0  0  0  0  0  0  0  0  0  0  0
   18.6573  -21.4365  -19.0009 O   0  0  0  0  0  0  0  0  0  0  0  0
   18.2244  -24.2197  -17.8236 N   0  0  0  0  0  0  0  0  0  0  0  0
   18.4917  -25.4651  -17.4712 C   0  0  0  0  0  0  0  0  0  0  0  0
   19.7251  -25.7811  -17.8192 N   0  0  0  0  0  0  0  0  0  0  0  0
  1  5  1  1  0  0  0
  1 14  1  0  0  0  0
  1 19  2  0  0  0  0
  1 23  1  0  0  0  0
  2 15  1  6  0  0  0
  2 20  2  0  0  0  0
  2 23  1  0  0  0  0
  2 24  1  0  0  0  0
  3 16  1  1  0  0  0
  3 21  1  0  0  0  0
  3 24  1  0  0  0  0
  3 25  2  0  0  0  0
  4  5  1  0  0  0  0
  6  4  1  6  0  0  0
  6  7  1  0  0  0  0
  6  8  1  0  0  0  0
  7 12  1  0  0  0  0
  8  9  1  1  0  0  0
  8 10  1  0  0  0  0
 10 11  1  6  0  0  0
 10 12  1  0  0  0  0
 12 32  1  6  0  0  0
 13 17  2  0  0  0  0
 13 28  1  0  0  0  0
 17 18  1  0  0  0  0
 17 22  1  0  0  0  0
 22 26  2  0  0  0  0
 26 27  1  0  0  0  0
 26 32  1  0  0  0  0
 27 28  2  0  0  0  0
 27 30  1  0  0  0  0
 28 29  1  0  0  0  0
 30 31  2  0  0  0  0
 31 32  1  0  0  0  0
M  CHG  3  14  -1  15  -1  21  -1
M  END
>  <CHROM.1>
178.92277076,158.11012629,173.66540651,-65.47183484,-177.71185706,-55.20539845
53.21008009,50.60681317,18.19657252,-27.01329101,-19.57456351,2.29754821
0.61113633,2.90957223

>  <Name>
ligand

>  <RI>
0

>  <Rbt.Current_Directory>
/home/itssahil/PROJECTS/Mol_Feturizer/New_Systems/rnas/4Y1I

>  <Rbt.Executable>
rbdock ($Id: //depot/dev/client3/rdock/2013.1/src/exe/rbdock.cxx#4 $)

>  <Rbt.Library>
libRbt.so (2013.1, Build901 2013/11/27)

>  <Rbt.Parameter_File>
/export/apps/rDock/src/rDock_2013.1_src/data/scripts/dock_solv.prm

>  <Rbt.Receptor>
prm/pocket_docking_4.prm

>  <SCORE>
-4.9065

>  <SCORE.INTER>
2.64139

>  <SCORE.INTER.CONST>
1

>  <SCORE.INTER.POLAR>
0

>  <SCORE.INTER.ROT>
8

>  <SCORE.INTER.SOLV>
5.93431

>  <SCORE.INTER.VDW>
-9.15051

>  <SCORE.INTER.norm>
0.0825433

>  <SCORE.INTRA>
-7.54789

>  <SCORE.INTRA.DIHEDRAL>
-8.61605

>  <SCORE.INTRA.DIHEDRAL.0>
10.9594

>  <SCORE.INTRA.POLAR>
0

>  <SCORE.INTRA.POLAR.0>
0

>  <SCORE.INTRA.REPUL>
0

>  <SCORE.INTRA.REPUL.0>
0

>  <SCORE.INTRA.SOLV>
-0.241389

>  <SCORE.INTRA.SOLV.lig_0>
-124.914

>  <SCORE.INTRA.VDW>
-3.11917

>  <SCORE.INTRA.VDW.0>
-4.69801

>  <SCORE.INTRA.norm>
-0.235872

>  <SCORE.RESTR>
0

>  <SCORE.RESTR.CAVITY>
0

>  <SCORE.RESTR.norm>
0

>  <SCORE.SYSTEM>
0

>  <SCORE.SYSTEM.CONST>
0

>  <SCORE.SYSTEM.DIHEDRAL>
0

>  <SCORE.SYSTEM.SOLV>
0

>  <SCORE.SYSTEM.norm>
0

>  <SCORE.heavy>
32

>  <SCORE.norm>
-0.153328

>  <RMSD>
4.454

$$$$
ligand
 OpenBabel11021811513D
libRbt.so/2013.1/901 2013/11/27
 32 34  0  0  0  0  0  0  0  0999 V2000
   16.5136  -27.4720  -15.9711 P   0  0  1  0  0  0  0  0  0  0  0  0
   18.3650  -29.2849  -14.7395 P   0  0  2  0  0  0  0  0  0  0  0  0
   20.0615  -29.4184  -17.1310 P   0  0  1  0  0  0  0  0  0  0  0  0
   17.2685  -25.6926  -17.7190 C   0  0  0  0  0  0  0  0  0  0  0  0
   17.6395  -26.8222  -16.9813 O   0  0  0  0  0  0  0  0  0  0  0  0
   18.2855  -25.3639  -18.6084 C   0  0  1  0  0  0  0  0  0  0  0  0
   17.7310  -24.5144  -19.7357 O   0  0  0  0  0  0  0  0  0  0  0  0
   19.4100  -24.4747  -17.9034 C   0  0  1  0  0  0  0  0  0  0  0  0
   20.7107  -25.2449  -17.8674 O   0  0  0  0  0  0  0  0  0  0  0  0
   19.5826  -23.4984  -18.6372 C   0  0  1  0  0  0  0  0  0  0  0  0
   20.7474  -23.7469  -19.5200 O   0  0  0  0  0  0  0  0  0  0  0  0
   18.1981  -23.3439  -19.5500 C   0  0  2  0  0  0  0  0  0  0  0  0
   13.3552  -22.9377  -17.8866 N   0  0  0  0  0  0  0  0  0  0  0  0
   16.4222  -26.6491  -14.7099 O   0  5  0  0  0  0  0  0  0  0  0  0
   18.4772  -30.7512  -14.4052 O   0  5  0  0  0  0  0  0  0  0  0  0
   18.9486  -29.0748  -18.0932 O   0  0  0  0  0  0  0  0  0  0  0  0
   13.9220  -23.9567  -18.5135 C   0  0  0  0  0  0  0  0  0  0  0  0
   13.1375  -25.1408  -18.8000 N   0  0  0  0  0  0  0  0  0  0  0  0
   15.1832  -27.5121  -16.6884 O   0  0  0  0  0  0  0  0  0  0  0  0
   18.3275  -28.4790  -13.4676 O   0  0  0  0  0  0  0  0  0  0  0  0
   21.3453  -28.7748  -17.6080 O   0  5  0  0  0  0  0  0  0  0  0  0
   15.1846  -23.9317  -18.8890 N   0  0  0  0  0  0  0  0  0  0  0  0
   16.9830  -28.9962  -15.5770 O   0  0  0  0  0  0  0  0  0  0  0  0
   19.6563  -28.8189  -15.6459 O   0  0  0  0  0  0  0  0  0  0  0  0
   20.2168  -30.9224  -17.0736 O   0  0  0  0  0  0  0  0  0  0  0  0
   15.9439  -22.8570  -18.6437 C   0  0  0  0  0  0  0  0  0  0  0  0
   15.3774  -21.7804  -17.9919 C   0  0  0  0  0  0  0  0  0  0  0  0
   14.0259  -21.8298  -17.5991 C   0  0  0  0  0  0  0  0  0  0  0  0
   13.4213  -20.7491  -16.9331 O   0  0  0  0  0  0  0  0  0  0  0  0
   16.3274  -20.8384  -17.8638 N   0  0  0  0  0  0  0  0  0  0  0  0
   17.4328  -21.3112  -18.4128 C   0  0  0  0  0  0  0  0  0  0  0  0
   17.2207  -22.5236  -18.8898 N   0  0  0  0  0  0  0  0  0  0  0  0
  1  5  1  6  0  0  0
  1 14  1  0  0  0  0
  1 19  2  0  0  0  0
  1 23  1  0  0  0  0
  2 15  1  1  0  0  0
  2 20  2  0  0  0  0
  2 23  1  0  0  0  0
  2 24  1  0  0  0  0
  3 16  1  6  0  0  0
  3 21  1  0  0  0  0
  3 24  1  0  0  0  0
  3 25  2  0  0  0  0
  4  5  1  0  0  0  0
  6  4  1  1  0  0  0
  6  7  1  0  0  0  0
  6  8  1  0  0  0  0
  7 12  1  0  0  0  0
  8  9  1  6  0  0  0
  8 10  1  0  0  0  0
 10 11  1  6  0  0  0
 10 12  1  0  0  0  0
 12 32  1  1  0  0  0
 13 17  2  0  0  0  0
 13 28  1  0  0  0  0
 17 18  1  0  0  0  0
 17 22  1  0  0  0  0
 22 26  2  0  0  0  0
 26 27  1  0  0  0  0
 26 32  1  0  0  0  0
 27 28  2  0  0  0  0
 27 30  1  0  0  0  0
 28 29  1  0  0  0  0
 30 31  2  0  0  0  0
 31 32  1  0  0  0  0
M  CHG  3  14  -1  15  -1  21  -1
M  END
>  <CHROM.1>
-78.11661005,174.58501375,63.52312675,158.99170220,-174.08269427,-7.80399484
63.42930778,60.96541195,17.52916817,-26.00437591,-17.22808664,1.08188591
-0.34967954,2.63286085

>  <Name>
ligand

>  <RI>
0

>  <Rbt.Current_Directory>
/home/itssahil/PROJECTS/Mol_Feturizer/New_Systems/rnas/4Y1I

>  <Rbt.Executable>
rbdock ($Id: //depot/dev/client3/rdock/2013.1/src/exe/rbdock.cxx#4 $)

>  <Rbt.Library>
libRbt.so (2013.1, Build901 2013/11/27)

>  <Rbt.Parameter_File>
/export/apps/rDock/src/rDock_2013.1_src/data/scripts/dock_solv.prm

>  <Rbt.Receptor>
prm/pocket_docking_6.prm

>  <SCORE>
-7.08887

>  <SCORE.INTER>
-0.562578

>  <SCORE.INTER.CONST>
1

>  <SCORE.INTER.POLAR>
0

>  <SCORE.INTER.ROT>
8

>  <SCORE.INTER.SOLV>
12.1659

>  <SCORE.INTER.VDW>
-13.3637

>  <SCORE.INTER.norm>
-0.0175806

>  <SCORE.INTRA>
-6.52629

>  <SCORE.INTRA.DIHEDRAL>
-7.60801

>  <SCORE.INTRA.DIHEDRAL.0>
10.9594

>  <SCORE.INTRA.POLAR>
0

>  <SCORE.INTRA.POLAR.0>
0

>  <SCORE.INTRA.REPUL>
0

>  <SCORE.INTRA.REPUL.0>
0

>  <SCORE.INTRA.SOLV>
-3.03777

>  <SCORE.INTRA.SOLV.lig_0>
-124.914

>  <SCORE.INTRA.VDW>
-1.2034

>  <SCORE.INTRA.VDW.0>
-4.69801

>  <SCORE.INTRA.norm>
-0.203947

>  <SCORE.RESTR>
0

>  <SCORE.RESTR.CAVITY>
0

>  <SCORE.RESTR.norm>
0

>  <SCORE.SYSTEM>
0

>  <SCORE.SYSTEM.CONST>
0

>  <SCORE.SYSTEM.DIHEDRAL>
0

>  <SCORE.SYSTEM.SOLV>
0

>  <SCORE.SYSTEM.norm>
0

>  <SCORE.heavy>
32

>  <SCORE.norm>
-0.221527

>  <RMSD>
4.507

$$$$
ligand
 OpenBabel11021811513D
libRbt.so/2013.1/901 2013/11/27
 32 34  0  0  0  0  0  0  0  0999 V2000
   19.1581  -26.0316  -18.2263 P   0  0  1  0  0  0  0  0  0  0  0  0
   18.8996  -28.0710  -20.2276 P   0  0  2  0  0  0  0  0  0  0  0  0
   17.1659  -30.3761  -19.6834 P   0  0  1  0  0  0  0  0  0  0  0  0
   20.3051  -23.8007  -18.9326 C   0  0  0  0  0  0  0  0  0  0  0  0
   19.6228  -24.9416  -19.3692 O   0  0  0  0  0  0  0  0  0  0  0  0
   20.7044  -23.0489  -20.0320 C   0  0  1  0  0  0  0  0  0  0  0  0
   19.4955  -22.6732  -20.8670 O   0  0  0  0  0  0  0  0  0  0  0  0
   21.3708  -21.6685  -19.5818 C   0  0  1  0  0  0  0  0  0  0  0  0
   22.8269  -21.6569  -19.9889 O   0  0  0  0  0  0  0  0  0  0  0  0
   20.8019  -20.7875  -20.2311 C   0  0  1  0  0  0  0  0  0  0  0  0
   21.6156  -20.4533  -21.4244 O   0  0  0  0  0  0  0  0  0  0  0  0
   19.3347  -21.4206  -20.7007 C   0  0  2  0  0  0  0  0  0  0  0  0
   14.9321  -23.0300  -18.6002 N   0  0  0  0  0  0  0  0  0  0  0  0
   20.3753  -26.6421  -17.5768 O   0  5  0  0  0  0  0  0  0  0  0  0
   20.2078  -28.7179  -19.8476 O   0  5  0  0  0  0  0  0  0  0  0  0
   16.2644  -31.2558  -20.5174 O   0  0  0  0  0  0  0  0  0  0  0  0
   15.6150  -23.5811  -19.5915 C   0  0  0  0  0  0  0  0  0  0  0  0
   15.1174  -24.7932  -20.2102 N   0  0  0  0  0  0  0  0  0  0  0  0
   18.2963  -25.3257  -17.2040 O   0  0  0  0  0  0  0  0  0  0  0  0
   19.1214  -27.1200  -21.3744 O   0  0  0  0  0  0  0  0  0  0  0  0
   18.2719  -31.2213  -19.0899 O   0  5  0  0  0  0  0  0  0  0  0  0
   16.7402  -23.0618  -20.0386 N   0  0  0  0  0  0  0  0  0  0  0  0
   18.2951  -27.2217  -18.9595 O   0  0  0  0  0  0  0  0  0  0  0  0
   17.8154  -29.2247  -20.6743 O   0  0  0  0  0  0  0  0  0  0  0  0
   16.3482  -29.7330  -18.5847 O   0  0  0  0  0  0  0  0  0  0  0  0
   17.2340  -21.9429  -19.4948 C   0  0  0  0  0  0  0  0  0  0  0  0
   16.5413  -21.3477  -18.4599 C   0  0  0  0  0  0  0  0  0  0  0  0
   15.3410  -21.9210  -17.9978 C   0  0  0  0  0  0  0  0  0  0  0  0
   14.6137  -21.3380  -16.9451 O   0  0  0  0  0  0  0  0  0  0  0  0
   17.2287  -20.2543  -18.0882 N   0  0  0  0  0  0  0  0  0  0  0  0
   18.2992  -20.1762  -18.8595 C   0  0  0  0  0  0  0  0  0  0  0  0
   18.3180  -21.1822  -19.7138 N   0  0  0  0  0  0  0  0  0  0  0  0
  1  5  1  6  0  0  0
  1 14  1  0  0  0  0
  1 19  2  0  0  0  0
  1 23  1  0  0  0  0
  2 15  1  1  0  0  0
  2 20  2  0  0  0  0
  2 23  1  0  0  0  0
  2 24  1  0  0  0  0
  3 16  1  6  0  0  0
  3 21  1  0  0  0  0
  3 24  1  0  0  0  0
  3 25  2  0  0  0  0
  4  5  1  0  0  0  0
  6  4  1  1  0  0  0
  6  7  1  0  0  0  0
  6  8  1  0  0  0  0
  7 12  1  0  0  0  0
  8  9  1  6  0  0  0
  8 10  1  0  0  0  0
 10 11  1  6  0  0  0
 10 12  1  0  0  0  0
 12 32  1  1  0  0  0
 13 17  2  0  0  0  0
 13 28  1  0  0  0  0
 17 18  1  0  0  0  0
 17 22  1  0  0  0  0
 22 26  2  0  0  0  0
 26 27  1  0  0  0  0
 26 32  1  0  0  0  0
 27 28  2  0  0  0  0
 27 30  1  0  0  0  0
 28 29  1  0  0  0  0
 30 31  2  0  0  0  0
 31 32  1  0  0  0  0
M  CHG  3  14  -1  15  -1  21  -1
M  END
>  <CHROM.1>
-64.90637171,56.53406647,-177.79460531,57.79313610,175.57942800,-33.11180860
54.77661391,66.22745661,18.37194657,-25.03277812,-19.41353265,-1.69785398
0.26599882,0.05883719

>  <Name>
ligand

>  <RI>
0

>  <Rbt.Current_Directory>
/home/itssahil/PROJECTS/Mol_Feturizer/New_Systems/rnas/4Y1I

>  <Rbt.Executable>
rbdock ($Id: //depot/dev/client3/rdock/2013.1/src/exe/rbdock.cxx#4 $)

>  <Rbt.Library>
libRbt.so (2013.1, Build901 2013/11/27)

>  <Rbt.Parameter_File>
/export/apps/rDock/src/rDock_2013.1_src/data/scripts/dock_solv.prm

>  <Rbt.Receptor>
prm/pocket_docking_7.prm

>  <SCORE>
-6.73454

>  <SCORE.INTER>
0.421424

>  <SCORE.INTER.CONST>
1

>  <SCORE.INTER.POLAR>
0

>  <SCORE.INTER.ROT>
8

>  <SCORE.INTER.SOLV>
10.5231

>  <SCORE.INTER.VDW>
-12.1601

>  <SCORE.INTER.norm>
0.0131695

>  <SCORE.INTRA>
-7.15597

>  <SCORE.INTRA.DIHEDRAL>
-9.45096

>  <SCORE.INTRA.DIHEDRAL.0>
10.9594

>  <SCORE.INTRA.POLAR>
0

>  <SCORE.INTRA.POLAR.0>
0

>  <SCORE.INTRA.REPUL>
0

>  <SCORE.INTRA.REPUL.0>
0

>  <SCORE.INTRA.SOLV>
-3.41963

>  <SCORE.INTRA.SOLV.lig_0>
-124.914

>  <SCORE.INTRA.VDW>
-0.720671

>  <SCORE.INTRA.VDW.0>
-4.69801

>  <SCORE.INTRA.norm>
-0.223624

>  <SCORE.RESTR>
0

>  <SCORE.RESTR.CAVITY>
0

>  <SCORE.RESTR.norm>
0

>  <SCORE.SYSTEM>
0

>  <SCORE.SYSTEM.CONST>
0

>  <SCORE.SYSTEM.DIHEDRAL>
0

>  <SCORE.SYSTEM.SOLV>
0

>  <SCORE.SYSTEM.norm>
0

>  <SCORE.heavy>
32

>  <SCORE.norm>
-0.210454

>  <RMSD>
4.529

$$$$
ligand
 OpenBabel11021811513D
libRbt.so/2013.1/901 2013/11/27
 32 34  0  0  0  0  0  0  0  0999 V2000
   14.2158  -28.1070  -19.1415 P   0  0  1  0  0  0  0  0  0  0  0  0
   11.8684  -28.5582  -17.5549 P   0  0  2  0  0  0  0  0  0  0  0  0
   11.4065  -31.1994  -16.3608 P   0  0  1  0  0  0  0  0  0  0  0  0
   15.0616  -25.6569  -19.4113 C   0  0  0  0  0  0  0  0  0  0  0  0
   14.3204  -26.5470  -18.6262 O   0  0  0  0  0  0  0  0  0  0  0  0
   15.0826  -24.4070  -18.8025 C   0  0  1  0  0  0  0  0  0  0  0  0
   15.5469  -24.5406  -17.3650 O   0  0  0  0  0  0  0  0  0  0  0  0
   16.1308  -23.4320  -19.5116 C   0  0  1  0  0  0  0  0  0  0  0  0
   15.3916  -22.2782  -20.1506 O   0  0  0  0  0  0  0  0  0  0  0  0
   16.8276  -22.9648  -18.6074 C   0  0  1  0  0  0  0  0  0  0  0  0
   16.3001  -21.6354  -18.2172 O   0  0  0  0  0  0  0  0  0  0  0  0
   16.7102  -24.0230  -17.3267 C   0  0  2  0  0  0  0  0  0  0  0  0
   21.4892  -25.2715  -18.7365 N   0  0  0  0  0  0  0  0  0  0  0  0
   13.4677  -28.1644  -20.4503 O   0  5  0  0  0  0  0  0  0  0  0  0
   10.9158  -28.6770  -18.7180 O   0  5  0  0  0  0  0  0  0  0  0  0
   12.8103  -31.6419  -16.7012 O   0  0  0  0  0  0  0  0  0  0  0  0
   20.8816  -24.1010  -18.8523 C   0  0  0  0  0  0  0  0  0  0  0  0
   21.5939  -22.9853  -19.4418 N   0  0  0  0  0  0  0  0  0  0  0  0
   15.6137  -28.6632  -19.2927 O   0  0  0  0  0  0  0  0  0  0  0  0
   11.8933  -27.1334  -17.0669 O   0  0  0  0  0  0  0  0  0  0  0  0
   11.0346  -31.7373  -14.9963 O   0  5  0  0  0  0  0  0  0  0  0  0
   19.6422  -23.9136  -18.4469 N   0  0  0  0  0  0  0  0  0  0  0  0
   13.3873  -28.9738  -18.0185 O   0  0  0  0  0  0  0  0  0  0  0  0
   11.3839  -29.5477  -16.3334 O   0  0  0  0  0  0  0  0  0  0  0  0
   10.4546  -31.7273  -17.4117 O   0  0  0  0  0  0  0  0  0  0  0  0
   18.9492  -24.9181  -17.8972 C   0  0  0  0  0  0  0  0  0  0  0  0
   19.5590  -26.1493  -17.7651 C   0  0  0  0  0  0  0  0  0  0  0  0
   20.8851  -26.3262  -18.2048 C   0  0  0  0  0  0  0  0  0  0  0  0
   21.5329  -27.5682  -18.0831 O   0  0  0  0  0  0  0  0  0  0  0  0
   18.6721  -26.9816  -17.1934 N   0  0  0  0  0  0  0  0  0  0  0  0
   17.5624  -26.2958  -16.9816 C   0  0  0  0  0  0  0  0  0  0  0  0
   17.7092  -25.0529  -17.4010 N   0  0  0  0  0  0  0  0  0  0  0  0
  1  5  1  1  0  0  0
  1 14  1  0  0  0  0
  1 19  2  0  0  0  0
  1 23  1  0  0  0  0
  2 15  1  6  0  0  0
  2 20  2  0  0  0  0
  2 23  1  0  0  0  0
  2 24  1  0  0  0  0
  3 16  1  6  0  0  0
  3 21  1  0  0  0  0
  3 24  1  0  0  0  0
  3 25  2  0  0  0  0
  4  5  1  0  0  0  0
  6  4  1  6  0  0  0
  6  7  1  0  0  0  0
  6  8  1  0  0  0  0
  7 12  1  0  0  0  0
  8  9  1  1  0  0  0
  8 10  1  0  0  0  0
 10 11  1  1  0  0  0
 10 12  1  0  0  0  0
 12 32  1  6  0  0  0
 13 17  2  0  0  0  0
 13 28  1  0  0  0  0
 17 18  1  0  0  0  0
 17 22  1  0  0  0  0
 22 26  2  0  0  0  0
 26 27  1  0  0  0  0
 26 32  1  0  0  0  0
 27 28  2  0  0  0  0
 27 30  1  0  0  0  0
 28 29  1  0  0  0  0
 30 31  2  0  0  0  0
 31 32  1  0  0  0  0
M  CHG  3  14  -1  15  -1  21  -1
M  END
>  <CHROM.1>
-64.75497545,64.01522655,54.68868751,52.50318413,-177.80140808,152.22352924
57.19096234,68.35358701,15.36432366,-26.91784118,-18.04727067,2.47320749
0.03983295,2.85511947

>  <Name>
ligand

>  <RI>
0

>  <Rbt.Current_Directory>
/home/itssahil/PROJECTS/Mol_Feturizer/New_Systems/rnas/4Y1I

>  <Rbt.Executable>
rbdock ($Id: //depot/dev/client3/rdock/2013.1/src/exe/rbdock.cxx#4 $)

>  <Rbt.Library>
libRbt.so (2013.1, Build901 2013/11/27)

>  <Rbt.Parameter_File>
/export/apps/rDock/src/rDock_2013.1_src/data/scripts/dock_solv.prm

>  <Rbt.Receptor>
prm/pocket_docking_3.prm

>  <SCORE>
-2.90871

>  <SCORE.INTER>
4.36382

>  <SCORE.INTER.CONST>
1

>  <SCORE.INTER.POLAR>
0

>  <SCORE.INTER.ROT>
8

>  <SCORE.INTER.SOLV>
6.87814

>  <SCORE.INTER.VDW>
-8.31683

>  <SCORE.INTER.norm>
0.136369

>  <SCORE.INTRA>
-7.27253

>  <SCORE.INTRA.DIHEDRAL>
-9.30871

>  <SCORE.INTRA.DIHEDRAL.0>
10.9594

>  <SCORE.INTRA.POLAR>
0

>  <SCORE.INTRA.POLAR.0>
0

>  <SCORE.INTRA.REPUL>
0

>  <SCORE.INTRA.REPUL.0>
0

>  <SCORE.INTRA.SOLV>
-4.94354

>  <SCORE.INTRA.SOLV.lig_0>
-124.914

>  <SCORE.INTRA.VDW>
-0.146401

>  <SCORE.INTRA.VDW.0>
-4.69801

>  <SCORE.INTRA.norm>
-0.227266

>  <SCORE.RESTR>
0

>  <SCORE.RESTR.CAVITY>
0

>  <SCORE.RESTR.norm>
0

>  <SCORE.SYSTEM>
0

>  <SCORE.SYSTEM.CONST>
0

>  <SCORE.SYSTEM.DIHEDRAL>
0

>  <SCORE.SYSTEM.SOLV>
0

>  <SCORE.SYSTEM.norm>
0

>  <SCORE.heavy>
32

>  <SCORE.norm>
-0.0908971

>  <RMSD>
4.539

$$$$
ligand
 OpenBabel11021811513D
libRbt.so/2013.1/901 2013/11/27
 32 34  0  0  0  0  0  0  0  0999 V2000
   15.3998  -27.0863  -17.5267 P   0  0  1  0  0  0  0  0  0  0  0  0
   14.9286  -25.0270  -19.4680 P   0  0  2  0  0  0  0  0  0  0  0  0
   15.1035  -22.2533  -18.5238 P   0  0  1  0  0  0  0  0  0  0  0  0
   17.8278  -27.9533  -17.1469 C   0  0  0  0  0  0  0  0  0  0  0  0
   16.8103  -27.7292  -18.0810 O   0  0  0  0  0  0  0  0  0  0  0  0
   18.8991  -28.5845  -17.7693 C   0  0  1  0  0  0  0  0  0  0  0  0
   19.1756  -27.9310  -19.1096 O   0  0  0  0  0  0  0  0  0  0  0  0
   20.2423  -28.4243  -16.9194 C   0  0  1  0  0  0  0  0  0  0  0  0
   20.6938  -29.7825  -16.4320 O   0  0  0  0  0  0  0  0  0  0  0  0
   21.0980  -28.0150  -17.7079 C   0  0  1  0  0  0  0  0  0  0  0  0
   21.8964  -29.1609  -18.2051 O   0  0  0  0  0  0  0  0  0  0  0  0
   20.2753  -27.3036  -18.9692 C   0  0  2  0  0  0  0  0  0  0  0  0
   20.1958  -22.5334  -20.8729 N   0  0  0  0  0  0  0  0  0  0  0  0
   14.5726  -28.1611  -16.8658 O   0  5  0  0  0  0  0  0  0  0  0  0
   13.9195  -24.6670  -20.5293 O   0  5  0  0  0  0  0  0  0  0  0  0
   13.9647  -21.7849  -19.3991 O   0  0  0  0  0  0  0  0  0  0  0  0
   20.5264  -23.6558  -21.4922 C   0  0  0  0  0  0  0  0  0  0  0  0
   20.9267  -23.6089  -22.8840 N   0  0  0  0  0  0  0  0  0  0  0  0
   15.7220  -25.9759  -16.5524 O   0  0  0  0  0  0  0  0  0  0  0  0
   16.2997  -25.1167  -20.0852 O   0  0  0  0  0  0  0  0  0  0  0  0
   15.0335  -21.5357  -17.1935 O   0  5  0  0  0  0  0  0  0  0  0  0
   20.5038  -24.8234  -20.8824 N   0  0  0  0  0  0  0  0  0  0  0  0
   14.5624  -26.4834  -18.8051 O   0  0  0  0  0  0  0  0  0  0  0  0
   14.9321  -23.8796  -18.2892 O   0  0  0  0  0  0  0  0  0  0  0  0
   16.4143  -21.9507  -19.2164 O   0  0  0  0  0  0  0  0  0  0  0  0
   20.1402  -24.9104  -19.5972 C   0  0  0  0  0  0  0  0  0  0  0  0
   19.7911  -23.7549  -18.9278 C   0  0  0  0  0  0  0  0  0  0  0  0
   19.8218  -22.5180  -19.6002 C   0  0  0  0  0  0  0  0  0  0  0  0
   19.4712  -21.3243  -18.9451 O   0  0  0  0  0  0  0  0  0  0  0  0
   19.4690  -24.0975  -17.6688 N   0  0  0  0  0  0  0  0  0  0  0  0
   19.6130  -25.4070  -17.5637 C   0  0  0  0  0  0  0  0  0  0  0  0
   20.0188  -25.9132  -18.7132 N   0  0  0  0  0  0  0  0  0  0  0  0
  1  5  1  6  0  0  0
  1 14  1  0  0  0  0
  1 19  2  0  0  0  0
  1 23  1  0  0  0  0
  2 15  1  6  0  0  0
  2 20  2  0  0  0  0
  2 23  1  0  0  0  0
  2 24  1  0  0  0  0
  3 16  1  6  0  0  0
  3 21  1  0  0  0  0
  3 24  1  0  0  0  0
  3 25  2  0  0  0  0
  4  5  1  0  0  0  0
  6  4  1  1  0  0  0
  6  7  1  0  0  0  0
  6  8  1  0  0  0  0
  7 12  1  0  0  0  0
  8  9  1  6  0  0  0
  8 10  1  0  0  0  0
 10 11  1  6  0  0  0
 10 12  1  0  0  0  0
 12 32  1  1  0  0  0
 13 17  2  0  0  0  0
 13 28  1  0  0  0  0
 17 18  1  0  0  0  0
 17 22  1  0  0  0  0
 22 26  2  0  0  0  0
 26 27  1  0  0  0  0
 26 32  1  0  0  0  0
 27 28  2  0  0  0  0
 27 30  1  0  0  0  0
 28 29  1  0  0  0  0
 30 31  2  0  0  0  0
 31 32  1  0  0  0  0
M  CHG  3  14  -1  15  -1  21  -1
M  END
>  <CHROM.1>
-78.66365677,-174.42330076,60.35212750,43.74947420,175.70296102,-103.08587350
-79.42693337,-52.53787352,17.65122274,-25.30513508,-18.69922061,2.41285305
0.21194181,-0.40001064

>  <Name>
ligand

>  <RI>
0

>  <Rbt.Current_Directory>
/home/itssahil/PROJECTS/Mol_Feturizer/New_Systems/rnas/4Y1I

>  <Rbt.Executable>
rbdock ($Id: //depot/dev/client3/rdock/2013.1/src/exe/rbdock.cxx#4 $)

>  <Rbt.Library>
libRbt.so (2013.1, Build901 2013/11/27)

>  <Rbt.Parameter_File>
/export/apps/rDock/src/rDock_2013.1_src/data/scripts/dock_solv.prm

>  <Rbt.Receptor>
prm/pocket_docking_5.prm

>  <SCORE>
-1.70974

>  <SCORE.INTER>
4.42536

>  <SCORE.INTER.CONST>
1

>  <SCORE.INTER.POLAR>
0

>  <SCORE.INTER.ROT>
8

>  <SCORE.INTER.SOLV>
10.1223

>  <SCORE.INTER.VDW>
-9.3572

>  <SCORE.INTER.norm>
0.138293

>  <SCORE.INTRA>
-6.1351

>  <SCORE.INTRA.DIHEDRAL>
-7.57301

>  <SCORE.INTRA.DIHEDRAL.0>
10.9594

>  <SCORE.INTRA.POLAR>
0

>  <SCORE.INTRA.POLAR.0>
0

>  <SCORE.INTRA.REPUL>
0.00797663

>  <SCORE.INTRA.REPUL.0>
0

>  <SCORE.INTRA.SOLV>
-3.13089

>  <SCORE.INTRA.SOLV.lig_0>
-124.914

>  <SCORE.INTRA.VDW>
-0.823038

>  <SCORE.INTRA.VDW.0>
-4.69801

>  <SCORE.INTRA.norm>
-0.191722

>  <SCORE.RESTR>
0

>  <SCORE.RESTR.CAVITY>
0

>  <SCORE.RESTR.norm>
0

>  <SCORE.SYSTEM>
0

>  <SCORE.SYSTEM.CONST>
0

>  <SCORE.SYSTEM.DIHEDRAL>
0

>  <SCORE.SYSTEM.SOLV>
0

>  <SCORE.SYSTEM.norm>
0

>  <SCORE.heavy>
32

>  <SCORE.norm>
-0.0534294

>  <RMSD>
4.592

$$$$
ligand
 OpenBabel11021811513D
libRbt.so/2013.1/901 2013/11/27
 32 34  0  0  0  0  0  0  0  0999 V2000
   14.5242  -27.9933  -18.8941 P   0  0  1  0  0  0  0  0  0  0  0  0
   13.5735  -30.0886  -17.1804 P   0  0  2  0  0  0  0  0  0  0  0  0
   10.6541  -29.8101  -17.0589 P   0  0  1  0  0  0  0  0  0  0  0  0
   15.4411  -25.6665  -19.6270 C   0  0  0  0  0  0  0  0  0  0  0  0
   14.4842  -26.3477  -18.8664 O   0  0  0  0  0  0  0  0  0  0  0  0
   15.6690  -24.4123  -19.0718 C   0  0  1  0  0  0  0  0  0  0  0  0
   15.9510  -24.5480  -17.5879 O   0  0  0  0  0  0  0  0  0  0  0  0
   16.9656  -23.7239  -19.7020 C   0  0  1  0  0  0  0  0  0  0  0  0
   16.5561  -22.4845  -20.4651 O   0  0  0  0  0  0  0  0  0  0  0  0
   17.6542  -23.3555  -18.7473 C   0  0  1  0  0  0  0  0  0  0  0  0
   17.3872  -21.9234  -18.4724 O   0  0  0  0  0  0  0  0  0  0  0  0
   17.1885  -24.2825  -17.4443 C   0  0  2  0  0  0  0  0  0  0  0  0
   21.7109  -26.5806  -18.2520 N   0  0  0  0  0  0  0  0  0  0  0  0
   14.1033  -28.4924  -20.2541 O   0  5  0  0  0  0  0  0  0  0  0  0
   14.4042  -30.1069  -15.9219 O   0  5  0  0  0  0  0  0  0  0  0  0
   10.7785  -28.5063  -16.3059 O   0  0  0  0  0  0  0  0  0  0  0  0
   21.3827  -25.3182  -18.4789 C   0  0  0  0  0  0  0  0  0  0  0  0
   22.3742  -24.4124  -19.0231 N   0  0  0  0  0  0  0  0  0  0  0  0
   15.9262  -28.4506  -18.5602 O   0  0  0  0  0  0  0  0  0  0  0  0
   14.2216  -30.9585  -18.2254 O   0  0  0  0  0  0  0  0  0  0  0  0
   10.4396  -29.5156  -18.5275 O   0  5  0  0  0  0  0  0  0  0  0  0
   20.1766  -24.8530  -18.2250 N   0  0  0  0  0  0  0  0  0  0  0  0
   13.4682  -28.5605  -17.7707 O   0  0  0  0  0  0  0  0  0  0  0  0
   12.0616  -30.6517  -16.8593 O   0  0  0  0  0  0  0  0  0  0  0  0
    9.4835  -30.5910  -16.5026 O   0  0  0  0  0  0  0  0  0  0  0  0
   19.2317  -25.6566  -17.7222 C   0  0  0  0  0  0  0  0  0  0  0  0
   19.5474  -26.9777  -17.4766 C   0  0  0  0  0  0  0  0  0  0  0  0
   20.8435  -27.4527  -17.7550 C   0  0  0  0  0  0  0  0  0  0  0  0
   21.1949  -28.7928  -17.5151 O   0  0  0  0  0  0  0  0  0  0  0  0
   18.4487  -27.5715  -16.9803 N   0  0  0  0  0  0  0  0  0  0  0  0
   17.4951  -26.6582  -16.9219 C   0  0  0  0  0  0  0  0  0  0  0  0
   17.9468  -25.5004  -17.3665 N   0  0  0  0  0  0  0  0  0  0  0  0
  1  5  1  1  0  0  0
  1 14  1  0  0  0  0
  1 19  2  0  0  0  0
  1 23  1  0  0  0  0
  2 15  1  1  0  0  0
  2 20  2  0  0  0  0
  2 23  1  0  0  0  0
  2 24  1  0  0  0  0
  3 16  1  1  0  0  0
  3 21  1  0  0  0  0
  3 24  1  0  0  0  0
  3 25  2  0  0  0  0
  4  5  1  0  0  0  0
  6  4  1  6  0  0  0
  6  7  1  0  0  0  0
  6  8  1  0  0  0  0
  7 12  1  0  0  0  0
  8  9  1  6  0  0  0
  8 10  1  0  0  0  0
 10 11  1  1  0  0  0
 10 12  1  0  0  0  0
 12 32  1  6  0  0  0
 13 17  2  0  0  0  0
 13 28  1  0  0  0  0
 17 18  1  0  0  0  0
 17 22  1  0  0  0  0
 22 26  2  0  0  0  0
 26 27  1  0  0  0  0
 26 32  1  0  0  0  0
 27 28  2  0  0  0  0
 27 30  1  0  0  0  0
 28 29  1  0  0  0  0
 30 31  2  0  0  0  0
 31 32  1  0  0  0  0
M  CHG  3  14  -1  15  -1  21  -1
M  END
>  <CHROM.1>
-69.35353101,92.75278220,-53.86528712,50.64230505,-153.77798006,152.64511095
-160.21926917,119.68737103,15.77763169,-27.20661395,-18.01954752,2.58677650
0.05446746,2.83674252

>  <Name>
ligand

>  <RI>
0

>  <Rbt.Current_Directory>
/home/itssahil/PROJECTS/Mol_Feturizer/New_Systems/rnas/4Y1I

>  <Rbt.Executable>
rbdock ($Id: //depot/dev/client3/rdock/2013.1/src/exe/rbdock.cxx#4 $)

>  <Rbt.Library>
libRbt.so (2013.1, Build901 2013/11/27)

>  <Rbt.Parameter_File>
/export/apps/rDock/src/rDock_2013.1_src/data/scripts/dock_solv.prm

>  <Rbt.Receptor>
prm/pocket_docking_2.prm

>  <SCORE>
3.56987

>  <SCORE.INTER>
4.86606

>  <SCORE.INTER.CONST>
1

>  <SCORE.INTER.POLAR>
0

>  <SCORE.INTER.ROT>
8

>  <SCORE.INTER.SOLV>
6.28096

>  <SCORE.INTER.VDW>
-7.78295

>  <SCORE.INTER.norm>
0.152064

>  <SCORE.INTRA>
-2.76758

>  <SCORE.INTRA.DIHEDRAL>
-2.01928

>  <SCORE.INTRA.DIHEDRAL.0>
10.9594

>  <SCORE.INTRA.POLAR>
0

>  <SCORE.INTRA.POLAR.0>
0

>  <SCORE.INTRA.REPUL>
0

>  <SCORE.INTRA.REPUL.0>
0

>  <SCORE.INTRA.SOLV>
-2.67794

>  <SCORE.INTRA.SOLV.lig_0>
-124.914

>  <SCORE.INTRA.VDW>
-0.418971

>  <SCORE.INTRA.VDW.0>
-4.69801

>  <SCORE.INTRA.norm>
-0.0864869

>  <SCORE.RESTR>
1.4714

>  <SCORE.RESTR.CAVITY>
1.4714

>  <SCORE.RESTR.norm>
0.0459811

>  <SCORE.SYSTEM>
0

>  <SCORE.SYSTEM.CONST>
0

>  <SCORE.SYSTEM.DIHEDRAL>
0

>  <SCORE.SYSTEM.SOLV>
0

>  <SCORE.SYSTEM.norm>
0

>  <SCORE.heavy>
32

>  <SCORE.norm>
0.111559

>  <RMSD>
4.602

$$$$
ligand
 OpenBabel11021811513D
libRbt.so/2013.1/901 2013/11/27
 32 34  0  0  0  0  0  0  0  0999 V2000
   17.8082  -29.0867  -19.4044 P   0  0  1  0  0  0  0  0  0  0  0  0
   19.2011  -29.9107  -17.0354 P   0  0  2  0  0  0  0  0  0  0  0  0
   16.9975  -29.0679  -15.2892 P   0  0  1  0  0  0  0  0  0  0  0  0
   16.6618  -26.7470  -19.3502 C   0  0  0  0  0  0  0  0  0  0  0  0
   16.9807  -27.8982  -18.6215 O   0  0  0  0  0  0  0  0  0  0  0  0
   16.0238  -25.8329  -18.5191 C   0  0  1  0  0  0  0  0  0  0  0  0
   16.8029  -25.6784  -17.2272 O   0  0  0  0  0  0  0  0  0  0  0  0
   15.9792  -24.3788  -19.1793 C   0  0  1  0  0  0  0  0  0  0  0  0
   14.5428  -23.9957  -19.4549 O   0  0  0  0  0  0  0  0  0  0  0  0
   16.4076  -23.6020  -18.3223 C   0  0  1  0  0  0  0  0  0  0  0  0
   15.2670  -22.9886  -17.6008 O   0  0  0  0  0  0  0  0  0  0  0  0
   17.3216  -24.5158  -17.2719 C   0  0  2  0  0  0  0  0  0  0  0  0
   21.1807  -22.2477  -19.7915 N   0  0  0  0  0  0  0  0  0  0  0  0
   16.9308  -29.7097  -20.4618 O   0  5  0  0  0  0  0  0  0  0  0  0
   20.5102  -29.3354  -17.5148 O   0  5  0  0  0  0  0  0  0  0  0  0
   15.9332  -29.1819  -16.3553 O   0  0  0  0  0  0  0  0  0  0  0  0
   19.9507  -21.7964  -19.6014 C   0  0  0  0  0  0  0  0  0  0  0  0
   19.5745  -20.5067  -20.1444 N   0  0  0  0  0  0  0  0  0  0  0  0
   19.0533  -28.4878  -20.0187 O   0  0  0  0  0  0  0  0  0  0  0  0
   19.4572  -31.1931  -16.2880 O   0  0  0  0  0  0  0  0  0  0  0  0
   17.0357  -30.3509  -14.4880 O   0  5  0  0  0  0  0  0  0  0  0  0
   19.0495  -22.4843  -18.9304 N   0  0  0  0  0  0  0  0  0  0  0  0
   18.2232  -30.2412  -18.3118 O   0  0  0  0  0  0  0  0  0  0  0  0
   18.4507  -28.8369  -16.0405 O   0  0  0  0  0  0  0  0  0  0  0  0
   16.6711  -27.8957  -14.3899 O   0  0  0  0  0  0  0  0  0  0  0  0
   19.3561  -23.6799  -18.4128 C   0  0  0  0  0  0  0  0  0  0  0  0
   20.6317  -24.1741  -18.5968 C   0  0  0  0  0  0  0  0  0  0  0  0
   21.5788  -23.4208  -19.3169 C   0  0  0  0  0  0  0  0  0  0  0  0
   22.8859  -23.8976  -19.5202 O   0  0  0  0  0  0  0  0  0  0  0  0
   20.6930  -25.3729  -17.9924 N   0  0  0  0  0  0  0  0  0  0  0  0
   19.5075  -25.6102  -17.4584 C   0  0  0  0  0  0  0  0  0  0  0  0
   18.6892  -24.6039  -17.7033 N   0  0  0  0  0  0  0  0  0  0  0  0
  1  5  1  1  0  0  0
  1 14  1  0  0  0  0
  1 19  2  0  0  0  0
  1 23  1  0  0  0  0
  2 15  1  6  0  0  0
  2 20  2  0  0  0  0
  2 23  1  0  0  0  0
  2 24  1  0  0  0  0
  3 16  1  6  0  0  0
  3 21  1  0  0  0  0
  3 24  1  0  0  0  0
  3 25  2  0  0  0  0
  4  5  1  0  0  0  0
  6  4  1  6  0  0  0
  6  7  1  0  0  0  0
  6  8  1  0  0  0  0
  7 12  1  0  0  0  0
  8  9  1  1  0  0  0
  8 10  1  0  0  0  0
 10 11  1  1  0  0  0
 10 12  1  0  0  0  0
 12 32  1  6  0  0  0
 13 17  2  0  0  0  0
 13 28  1  0  0  0  0
 17 18  1  0  0  0  0
 17 22  1  0  0  0  0
 22 26  2  0  0  0  0
 26 27  1  0  0  0  0
 26 32  1  0  0  0  0
 27 28  2  0  0  0  0
 27 30  1  0  0  0  0
 28 29  1  0  0  0  0
 30 31  2  0  0  0  0
 31 32  1  0  0  0  0
M  CHG  3  14  -1  15  -1  21  -1
M  END
>  <CHROM.1>
-67.90392215,-56.29709545,-64.20736672,48.20243239,-177.24784609,148.52098367
-61.63557988,-179.66097225,18.21214732,-26.61669767,-17.95847716,-1.77323699
0.22975564,-0.29089480

>  <Name>
ligand

>  <RI>
0

>  <Rbt.Current_Directory>
/home/itssahil/PROJECTS/Mol_Feturizer/New_Systems/rnas/4Y1I

>  <Rbt.Executable>
rbdock ($Id: //depot/dev/client3/rdock/2013.1/src/exe/rbdock.cxx#4 $)

>  <Rbt.Library>
libRbt.so (2013.1, Build901 2013/11/27)

>  <Rbt.Parameter_File>
/export/apps/rDock/src/rDock_2013.1_src/data/scripts/dock_solv.prm

>  <Rbt.Receptor>
prm/pocket_docking_4.prm

>  <SCORE>
-8.09965

>  <SCORE.INTER>
0.396301

>  <SCORE.INTER.CONST>
1

>  <SCORE.INTER.POLAR>
0

>  <SCORE.INTER.ROT>
8

>  <SCORE.INTER.SOLV>
4.93677

>  <SCORE.INTER.VDW>
-10.3147

>  <SCORE.INTER.norm>
0.0123844

>  <SCORE.INTRA>
-8.49595

>  <SCORE.INTRA.DIHEDRAL>
-9.09633

>  <SCORE.INTRA.DIHEDRAL.0>
10.9594

>  <SCORE.INTRA.POLAR>
0

>  <SCORE.INTRA.POLAR.0>
0

>  <SCORE.INTRA.REPUL>
0

>  <SCORE.INTRA.REPUL.0>
0

>  <SCORE.INTRA.SOLV>
-4.15144

>  <SCORE.INTRA.SOLV.lig_0>
-124.914

>  <SCORE.INTRA.VDW>
-1.87207

>  <SCORE.INTRA.VDW.0>
-4.69801

>  <SCORE.INTRA.norm>
-0.265499

>  <SCORE.RESTR>
0

>  <SCORE.RESTR.CAVITY>
0

>  <SCORE.RESTR.norm>
0

>  <SCORE.SYSTEM>
0

>  <SCORE.SYSTEM.CONST>
0

>  <SCORE.SYSTEM.DIHEDRAL>
0

>  <SCORE.SYSTEM.SOLV>
0

>  <SCORE.SYSTEM.norm>
0

>  <SCORE.heavy>
32

>  <SCORE.norm>
-0.253114

>  <RMSD>
4.611

$$$$
ligand
 OpenBabel11021811513D
libRbt.so/2013.1/901 2013/11/27
 32 34  0  0  0  0  0  0  0  0999 V2000
   14.3212  -27.9996  -16.4789 P   0  0  1  0  0  0  0  0  0  0  0  0
   12.5796  -27.5492  -14.2440 P   0  0  2  0  0  0  0  0  0  0  0  0
   11.9500  -30.3968  -13.9118 P   0  0  1  0  0  0  0  0  0  0  0  0
   15.1405  -25.5443  -16.7821 C   0  0  0  0  0  0  0  0  0  0  0  0
   14.1837  -26.4994  -17.1428 O   0  0  0  0  0  0  0  0  0  0  0  0
   14.8516  -24.3374  -17.4091 C   0  0  1  0  0  0  0  0  0  0  0  0
   15.8754  -23.2913  -17.0122 O   0  0  0  0  0  0  0  0  0  0  0  0
   14.9537  -24.4681  -18.9980 C   0  0  1  0  0  0  0  0  0  0  0  0
   13.5875  -24.2528  -19.6089 O   0  0  0  0  0  0  0  0  0  0  0  0
   15.6726  -23.5379  -19.3712 C   0  0  1  0  0  0  0  0  0  0  0  0
   14.8225  -22.4063  -19.8125 O   0  0  0  0  0  0  0  0  0  0  0  0
   16.5828  -23.0864  -18.0515 C   0  0  2  0  0  0  0  0  0  0  0  0
   21.5120  -23.4294  -19.4552 N   0  0  0  0  0  0  0  0  0  0  0  0
   13.2812  -28.9183  -17.0707 O   0  5  0  0  0  0  0  0  0  0  0  0
   11.9726  -26.3631  -14.9503 O   0  5  0  0  0  0  0  0  0  0  0  0
   13.2094  -30.8559  -14.6087 O   0  0  0  0  0  0  0  0  0  0  0  0
   20.6343  -22.4906  -19.7732 C   0  0  0  0  0  0  0  0  0  0  0  0
   21.0460  -21.3900  -20.6210 N   0  0  0  0  0  0  0  0  0  0  0  0
   15.7160  -28.5209  -16.7419 O   0  0  0  0  0  0  0  0  0  0  0  0
   12.7319  -27.2396  -12.7778 O   0  0  0  0  0  0  0  0  0  0  0  0
   12.1849  -30.3907  -12.4171 O   0  5  0  0  0  0  0  0  0  0  0  0
   19.3898  -22.5223  -19.3423 N   0  0  0  0  0  0  0  0  0  0  0  0
   14.0644  -27.8803  -14.8607 O   0  0  0  0  0  0  0  0  0  0  0  0
   11.6096  -28.8649  -14.4284 O   0  0  0  0  0  0  0  0  0  0  0  0
   10.8204  -31.3403  -14.2630 O   0  0  0  0  0  0  0  0  0  0  0  0
   18.9691  -23.5216  -18.5574 C   0  0  0  0  0  0  0  0  0  0  0  0
   19.8640  -24.5138  -18.2111 C   0  0  0  0  0  0  0  0  0  0  0  0
   21.1897  -24.4588  -18.6829 C   0  0  0  0  0  0  0  0  0  0  0  0
   22.1239  -25.4543  -18.3467 O   0  0  0  0  0  0  0  0  0  0  0  0
   19.2131  -25.3915  -17.4287 N   0  0  0  0  0  0  0  0  0  0  0  0
   17.9703  -24.9617  -17.2972 C   0  0  0  0  0  0  0  0  0  0  0  0
   17.8039  -23.8392  -17.9714 N   0  0  0  0  0  0  0  0  0  0  0  0
  1  5  1  6  0  0  0
  1 14  1  0  0  0  0
  1 19  2  0  0  0  0
  1 23  1  0  0  0  0
  2 15  1  6  0  0  0
  2 20  2  0  0  0  0
  2 23  1  0  0  0  0
  2 24  1  0  0  0  0
  3 16  1  6  0  0  0
  3 21  1  0  0  0  0
  3 24  1  0  0  0  0
  3 25  2  0  0  0  0
  4  5  1  0  0  0  0
  6  4  1  1  0  0  0
  6  7  1  0  0  0  0
  6  8  1  0  0  0  0
  7 12  1  0  0  0  0
  8  9  1  6  0  0  0
  8 10  1  0  0  0  0
 10 11  1  1  0  0  0
 10 12  1  0  0  0  0
 12 32  1  1  0  0  0
 13 17  2  0  0  0  0
 13 28  1  0  0  0  0
 17 18  1  0  0  0  0
 17 22  1  0  0  0  0
 22 26  2  0  0  0  0
 26 27  1  0  0  0  0
 26 32  1  0  0  0  0
 27 28  2  0  0  0  0
 27 30  1  0  0  0  0
 28 29  1  0  0  0  0
 30 31  2  0  0  0  0
 31 32  1  0  0  0  0
M  CHG  3  14  -1  15  -1  21  -1
M  END
>  <CHROM.1>
-175.19550918,-48.95869275,-60.67173691,179.39375006,-178.63073721,-152.71197419
70.04220675,175.19343415,15.46135550,-26.21779948,-16.76656781,-2.32533172
0.10646220,-0.57541670

>  <Name>
ligand

>  <RI>
0

>  <Rbt.Current_Directory>
/home/itssahil/PROJECTS/Mol_Feturizer/New_Systems/rnas/4Y1I

>  <Rbt.Executable>
rbdock ($Id: //depot/dev/client3/rdock/2013.1/src/exe/rbdock.cxx#4 $)

>  <Rbt.Library>
libRbt.so (2013.1, Build901 2013/11/27)

>  <Rbt.Parameter_File>
/export/apps/rDock/src/rDock_2013.1_src/data/scripts/dock_solv.prm

>  <Rbt.Receptor>
prm/pocket_docking_4.prm

>  <SCORE>
-5.01796

>  <SCORE.INTER>
1.36157

>  <SCORE.INTER.CONST>
1

>  <SCORE.INTER.POLAR>
0

>  <SCORE.INTER.ROT>
8

>  <SCORE.INTER.SOLV>
6.90422

>  <SCORE.INTER.VDW>
-10.327

>  <SCORE.INTER.norm>
0.042549

>  <SCORE.INTRA>
-6.37953

>  <SCORE.INTRA.DIHEDRAL>
-9.25295

>  <SCORE.INTRA.DIHEDRAL.0>
10.9594

>  <SCORE.INTRA.POLAR>
0

>  <SCORE.INTRA.POLAR.0>
0

>  <SCORE.INTRA.REPUL>
0

>  <SCORE.INTRA.REPUL.0>
0

>  <SCORE.INTRA.SOLV>
-3.5819

>  <SCORE.INTRA.SOLV.lig_0>
-124.914

>  <SCORE.INTRA.VDW>
0.037894

>  <SCORE.INTRA.VDW.0>
-4.69801

>  <SCORE.INTRA.norm>
-0.19936

>  <SCORE.RESTR>
0

>  <SCORE.RESTR.CAVITY>
0

>  <SCORE.RESTR.norm>
0

>  <SCORE.SYSTEM>
0

>  <SCORE.SYSTEM.CONST>
0

>  <SCORE.SYSTEM.DIHEDRAL>
0

>  <SCORE.SYSTEM.SOLV>
0

>  <SCORE.SYSTEM.norm>
0

>  <SCORE.heavy>
32

>  <SCORE.norm>
-0.156811

>  <RMSD>
4.619

$$$$
ligand
 OpenBabel11021811513D
libRbt.so/2013.1/901 2013/11/27
 32 34  0  0  0  0  0  0  0  0999 V2000
   16.3488  -27.3663  -21.1261 P   0  0  1  0  0  0  0  0  0  0  0  0
   15.9888  -29.1290  -18.8912 P   0  0  2  0  0  0  0  0  0  0  0  0
   14.0064  -31.2897  -19.0213 P   0  0  1  0  0  0  0  0  0  0  0  0
   16.2002  -24.8227  -20.5788 C   0  0  0  0  0  0  0  0  0  0  0  0
   15.7256  -26.1032  -20.2738 O   0  0  0  0  0  0  0  0  0  0  0  0
   15.6676  -23.9038  -19.6815 C   0  0  1  0  0  0  0  0  0  0  0  0
   15.8993  -24.3768  -18.2594 O   0  0  0  0  0  0  0  0  0  0  0  0
   16.3987  -22.4880  -19.7959 C   0  0  1  0  0  0  0  0  0  0  0  0
   15.4133  -21.4514  -20.2862 O   0  0  0  0  0  0  0  0  0  0  0  0
   16.7178  -22.1752  -18.6462 C   0  0  1  0  0  0  0  0  0  0  0  0
   15.6900  -21.2691  -18.0801 O   0  0  0  0  0  0  0  0  0  0  0  0
   16.7744  -23.5908  -17.7707 C   0  0  2  0  0  0  0  0  0  0  0  0
   21.6544  -23.1320  -19.3071 N   0  0  0  0  0  0  0  0  0  0  0  0
   15.9052  -27.2806  -22.5655 O   0  5  0  0  0  0  0  0  0  0  0  0
   15.2049  -28.1726  -18.0280 O   0  5  0  0  0  0  0  0  0  0  0  0
   12.9457  -30.3661  -18.4696 O   0  0  0  0  0  0  0  0  0  0  0  0
   20.6660  -22.2631  -19.4519 C   0  0  0  0  0  0  0  0  0  0  0  0
   20.9200  -21.0017  -20.1183 N   0  0  0  0  0  0  0  0  0  0  0  0
   17.8566  -27.3258  -21.0215 O   0  0  0  0  0  0  0  0  0  0  0  0
   17.4552  -29.0160  -18.5661 O   0  0  0  0  0  0  0  0  0  0  0  0
   13.8743  -31.3524  -20.5274 O   0  5  0  0  0  0  0  0  0  0  0  0
   19.4500  -22.5070  -19.0076 N   0  0  0  0  0  0  0  0  0  0  0  0
   15.7803  -28.7649  -20.4783 O   0  0  0  0  0  0  0  0  0  0  0  0
   15.4837  -30.6703  -18.6171 O   0  0  0  0  0  0  0  0  0  0  0  0
   13.8235  -32.6658  -18.4195 O   0  0  0  0  0  0  0  0  0  0  0  0
   19.1735  -23.6601  -18.3867 C   0  0  0  0  0  0  0  0  0  0  0  0
   20.1859  -24.5838  -18.2230 C   0  0  0  0  0  0  0  0  0  0  0  0
   21.4784  -24.3011  -18.7054 C   0  0  0  0  0  0  0  0  0  0  0  0
   22.5299  -25.2219  -18.5530 O   0  0  0  0  0  0  0  0  0  0  0  0
   19.6672  -25.6441  -17.5803 N   0  0  0  0  0  0  0  0  0  0  0  0
   18.3900  -25.3878  -17.3568 C   0  0  0  0  0  0  0  0  0  0  0  0
   18.0741  -24.1997  -17.8372 N   0  0  0  0  0  0  0  0  0  0  0  0
  1  5  1  1  0  0  0
  1 14  1  0  0  0  0
  1 19  2  0  0  0  0
  1 23  1  0  0  0  0
  2 15  1  1  0  0  0
  2 20  2  0  0  0  0
  2 23  1  0  0  0  0
  2 24  1  0  0  0  0
  3 16  1  1  0  0  0
  3 21  1  0  0  0  0
  3 24  1  0  0  0  0
  3 25  2  0  0  0  0
  4  5  1  0  0  0  0
  6  4  1  6  0  0  0
  6  7  1  0  0  0  0
  6  8  1  0  0  0  0
  7 12  1  0  0  0  0
  8  9  1  1  0  0  0
  8 10  1  0  0  0  0
 10 11  1  1  0  0  0
 10 12  1  0  0  0  0
 12 32  1  6  0  0  0
 13 17  2  0  0  0  0
 13 28  1  0  0  0  0
 17 18  1  0  0  0  0
 17 22  1  0  0  0  0
 22 26  2  0  0  0  0
 26 27  1  0  0  0  0
 26 32  1  0  0  0  0
 27 28  2  0  0  0  0
 27 30  1  0  0  0  0
 28 29  1  0  0  0  0
 30 31  2  0  0  0  0
 31 32  1  0  0  0  0
M  CHG  3  14  -1  15  -1  21  -1
M  END
>  <CHROM.1>
-67.72141265,66.60407965,-51.76104616,51.48675443,-174.20955710,126.54839266
-56.10682268,68.02436777,16.93742328,-26.28437629,-19.25646063,2.11735781
0.15195769,3.09137697

>  <Name>
ligand

>  <RI>
0

>  <Rbt.Current_Directory>
/home/itssahil/PROJECTS/Mol_Feturizer/New_Systems/rnas/4Y1I

>  <Rbt.Executable>
rbdock ($Id: //depot/dev/client3/rdock/2013.1/src/exe/rbdock.cxx#4 $)

>  <Rbt.Library>
libRbt.so (2013.1, Build901 2013/11/27)

>  <Rbt.Parameter_File>
/export/apps/rDock/src/rDock_2013.1_src/data/scripts/dock_solv.prm

>  <Rbt.Receptor>
prm/pocket_docking_4.prm

>  <SCORE>
-5.69211

>  <SCORE.INTER>
1.50918

>  <SCORE.INTER.CONST>
1

>  <SCORE.INTER.POLAR>
0

>  <SCORE.INTER.ROT>
8

>  <SCORE.INTER.SOLV>
5.2698

>  <SCORE.INTER.VDW>
-9.68381

>  <SCORE.INTER.norm>
0.0471619

>  <SCORE.INTRA>
-7.20129

>  <SCORE.INTRA.DIHEDRAL>
-8.94755

>  <SCORE.INTRA.DIHEDRAL.0>
10.9594

>  <SCORE.INTRA.POLAR>
0

>  <SCORE.INTRA.POLAR.0>
0

>  <SCORE.INTRA.REPUL>
0

>  <SCORE.INTRA.REPUL.0>
0

>  <SCORE.INTRA.SOLV>
-4.94474

>  <SCORE.INTRA.SOLV.lig_0>
-124.914

>  <SCORE.INTRA.VDW>
-0.25515

>  <SCORE.INTRA.VDW.0>
-4.69801

>  <SCORE.INTRA.norm>
-0.22504

>  <SCORE.RESTR>
0

>  <SCORE.RESTR.CAVITY>
0

>  <SCORE.RESTR.norm>
0

>  <SCORE.SYSTEM>
0

>  <SCORE.SYSTEM.CONST>
0

>  <SCORE.SYSTEM.DIHEDRAL>
0

>  <SCORE.SYSTEM.SOLV>
0

>  <SCORE.SYSTEM.norm>
0

>  <SCORE.heavy>
32

>  <SCORE.norm>
-0.177879

>  <RMSD>
4.621

$$$$
ligand
 OpenBabel11021811513D
libRbt.so/2013.1/901 2013/11/27
 32 34  0  0  0  0  0  0  0  0999 V2000
   16.3252  -27.9037  -20.6736 P   0  0  1  0  0  0  0  0  0  0  0  0
   14.1277  -29.3972  -19.5914 P   0  0  2  0  0  0  0  0  0  0  0  0
   11.6314  -29.2331  -21.1266 P   0  0  1  0  0  0  0  0  0  0  0  0
   16.2050  -25.3171  -20.3800 C   0  0  0  0  0  0  0  0  0  0  0  0
   15.7595  -26.5583  -19.9121 O   0  0  0  0  0  0  0  0  0  0  0  0
   15.6720  -24.3043  -19.5903 C   0  0  1  0  0  0  0  0  0  0  0  0
   16.0062  -24.5562  -18.1326 O   0  0  0  0  0  0  0  0  0  0  0  0
   16.3170  -22.8872  -19.9480 C   0  0  1  0  0  0  0  0  0  0  0  0
   15.2510  -21.9791  -20.5182 O   0  0  0  0  0  0  0  0  0  0  0  0
   16.6803  -22.3975  -18.8759 C   0  0  1  0  0  0  0  0  0  0  0  0
   15.6364  -21.4683  -18.3811 O   0  0  0  0  0  0  0  0  0  0  0  0
   16.8620  -23.6680  -17.8144 C   0  0  2  0  0  0  0  0  0  0  0  0
   21.7219  -22.9993  -19.3374 N   0  0  0  0  0  0  0  0  0  0  0  0
   15.8520  -27.9178  -22.1061 O   0  5  0  0  0  0  0  0  0  0  0  0
   13.6881  -28.3899  -18.5588 O   0  5  0  0  0  0  0  0  0  0  0  0
   11.0420  -28.2698  -20.1230 O   0  0  0  0  0  0  0  0  0  0  0  0
   20.6965  -22.1758  -19.4891 C   0  0  0  0  0  0  0  0  0  0  0  0
   20.8964  -20.9072  -20.1602 N   0  0  0  0  0  0  0  0  0  0  0  0
   17.8356  -27.9027  -20.6029 O   0  0  0  0  0  0  0  0  0  0  0  0
   13.8895  -30.7903  -19.0705 O   0  0  0  0  0  0  0  0  0  0  0  0
   11.2275  -28.8050  -22.5206 O   0  5  0  0  0  0  0  0  0  0  0  0
   19.4910  -22.4717  -19.0476 N   0  0  0  0  0  0  0  0  0  0  0  0
   15.7300  -29.2282  -19.9053 O   0  0  0  0  0  0  0  0  0  0  0  0
   13.2762  -29.1789  -20.9818 O   0  0  0  0  0  0  0  0  0  0  0  0
   11.1169  -30.6256  -20.8342 O   0  0  0  0  0  0  0  0  0  0  0  0
   19.2638  -23.6333  -18.4226 C   0  0  0  0  0  0  0  0  0  0  0  0
   20.3157  -24.5104  -18.2517 C   0  0  0  0  0  0  0  0  0  0  0  0
   21.5960  -24.1726  -18.7311 C   0  0  0  0  0  0  0  0  0  0  0  0
   22.6869  -25.0451  -18.5714 O   0  0  0  0  0  0  0  0  0  0  0  0
   19.8425  -25.5899  -17.6060 N   0  0  0  0  0  0  0  0  0  0  0  0
   18.5544  -25.3898  -17.3877 C   0  0  0  0  0  0  0  0  0  0  0  0
   18.1876  -24.2189  -17.8742 N   0  0  0  0  0  0  0  0  0  0  0  0
  1  5  1  1  0  0  0
  1 14  1  0  0  0  0
  1 19  2  0  0  0  0
  1 23  1  0  0  0  0
  2 15  1  1  0  0  0
  2 20  2  0  0  0  0
  2 23  1  0  0  0  0
  2 24  1  0  0  0  0
  3 16  1  1  0  0  0
  3 21  1  0  0  0  0
  3 24  1  0  0  0  0
  3 25  2  0  0  0  0
  4  5  1  0  0  0  0
  6  4  1  6  0  0  0
  6  7  1  0  0  0  0
  6  8  1  0  0  0  0
  7 12  1  0  0  0  0
  8  9  1  1  0  0  0
  8 10  1  0  0  0  0
 10 11  1  1  0  0  0
 10 12  1  0  0  0  0
 12 32  1  6  0  0  0
 13 17  2  0  0  0  0
 13 28  1  0  0  0  0
 17 18  1  0  0  0  0
 17 22  1  0  0  0  0
 22 26  2  0  0  0  0
 26 27  1  0  0  0  0
 26 32  1  0  0  0  0
 27 28  2  0  0  0  0
 27 30  1  0  0  0  0
 28 29  1  0  0  0  0
 30 31  2  0  0  0  0
 31 32  1  0  0  0  0
M  CHG  3  14  -1  15  -1  21  -1
M  END
>  <CHROM.1>
-64.03377412,-68.28692551,53.76236571,54.67931269,-177.57695812,135.25929630
51.02430627,-57.77411907,16.24746778,-26.13120117,-19.66176153,-2.42703935
-0.18666218,0.06846733

>  <Name>
ligand

>  <RI>
0

>  <Rbt.Current_Directory>
/home/itssahil/PROJECTS/Mol_Feturizer/New_Systems/rnas/4Y1I

>  <Rbt.Executable>
rbdock ($Id: //depot/dev/client3/rdock/2013.1/src/exe/rbdock.cxx#4 $)

>  <Rbt.Library>
libRbt.so (2013.1, Build901 2013/11/27)

>  <Rbt.Parameter_File>
/export/apps/rDock/src/rDock_2013.1_src/data/scripts/dock_solv.prm

>  <Rbt.Receptor>
prm/pocket_docking_5.prm

>  <SCORE>
-5.38274

>  <SCORE.INTER>
1.99788

>  <SCORE.INTER.CONST>
1

>  <SCORE.INTER.POLAR>
0

>  <SCORE.INTER.ROT>
8

>  <SCORE.INTER.SOLV>
4.70784

>  <SCORE.INTER.VDW>
-9.17069

>  <SCORE.INTER.norm>
0.0624338

>  <SCORE.INTRA>
-7.38062

>  <SCORE.INTRA.DIHEDRAL>
-9.29102

>  <SCORE.INTRA.DIHEDRAL.0>
10.9594

>  <SCORE.INTRA.POLAR>
0

>  <SCORE.INTRA.POLAR.0>
0

>  <SCORE.INTRA.REPUL>
0

>  <SCORE.INTRA.REPUL.0>
0

>  <SCORE.INTRA.SOLV>
-5.33546

>  <SCORE.INTRA.SOLV.lig_0>
-124.914

>  <SCORE.INTRA.VDW>
-0.0673854

>  <SCORE.INTRA.VDW.0>
-4.69801

>  <SCORE.INTRA.norm>
-0.230644

>  <SCORE.RESTR>
0

>  <SCORE.RESTR.CAVITY>
0

>  <SCORE.RESTR.norm>
0

>  <SCORE.SYSTEM>
0

>  <SCORE.SYSTEM.CONST>
0

>  <SCORE.SYSTEM.DIHEDRAL>
0

>  <SCORE.SYSTEM.SOLV>
0

>  <SCORE.SYSTEM.norm>
0

>  <SCORE.heavy>
32

>  <SCORE.norm>
-0.168211

>  <RMSD>
4.640

$$$$
ligand
 OpenBabel11021811513D
libRbt.so/2013.1/901 2013/11/27
 32 34  0  0  0  0  0  0  0  0999 V2000
   13.7960  -24.6673  -17.8911 P   0  0  1  0  0  0  0  0  0  0  0  0
   13.2020  -24.2804  -15.1110 P   0  0  2  0  0  0  0  0  0  0  0  0
   12.7943  -26.5702  -13.3206 P   0  0  1  0  0  0  0  0  0  0  0  0
   16.1231  -23.5585  -17.5081 C   0  0  0  0  0  0  0  0  0  0  0  0
   14.8072  -23.3693  -17.9447 O   0  0  0  0  0  0  0  0  0  0  0  0
   16.8309  -24.2782  -18.4642 C   0  0  1  0  0  0  0  0  0  0  0  0
   16.9767  -23.4531  -19.7283 O   0  0  0  0  0  0  0  0  0  0  0  0
   18.3183  -24.5920  -17.9731 C   0  0  1  0  0  0  0  0  0  0  0  0
   18.4888  -26.0852  -17.8079 O   0  0  0  0  0  0  0  0  0  0  0  0
   19.0624  -24.2376  -18.8907 C   0  0  1  0  0  0  0  0  0  0  0  0
   19.4046  -25.4125  -19.7276 O   0  0  0  0  0  0  0  0  0  0  0  0
   18.2066  -23.1271  -19.7898 C   0  0  2  0  0  0  0  0  0  0  0  0
   21.4692  -19.2324  -19.0337 N   0  0  0  0  0  0  0  0  0  0  0  0
   12.4081  -24.2522  -18.3125 O   0  5  0  0  0  0  0  0  0  0  0  0
   11.7440  -23.9464  -15.3028 O   0  5  0  0  0  0  0  0  0  0  0  0
   13.1705  -26.8905  -11.8929 O   0  0  0  0  0  0  0  0  0  0  0  0
   21.7175  -20.4137  -19.5772 C   0  0  0  0  0  0  0  0  0  0  0  0
   23.0569  -20.7162  -20.0402 N   0  0  0  0  0  0  0  0  0  0  0  0
   14.3390  -25.7438  -18.8034 O   0  0  0  0  0  0  0  0  0  0  0  0
   14.0124  -23.0109  -15.0941 O   0  0  0  0  0  0  0  0  0  0  0  0
   11.2862  -26.5439  -13.4415 O   0  5  0  0  0  0  0  0  0  0  0  0
   20.7820  -21.3314  -19.7130 N   0  0  0  0  0  0  0  0  0  0  0  0
   13.7377  -25.2207  -16.3454 O   0  0  0  0  0  0  0  0  0  0  0  0
   13.4087  -25.0816  -13.6893 O   0  0  0  0  0  0  0  0  0  0  0  0
   13.3768  -27.6274  -14.2330 O   0  0  0  0  0  0  0  0  0  0  0  0
   19.5321  -21.0921  -19.2981 C   0  0  0  0  0  0  0  0  0  0  0  0
   19.2463  -19.8684  -18.7273 C   0  0  0  0  0  0  0  0  0  0  0  0
   20.2621  -18.9024  -18.5932 C   0  0  0  0  0  0  0  0  0  0  0  0
   20.0013  -17.6468  -18.0165 O   0  0  0  0  0  0  0  0  0  0  0  0
   17.9436  -19.8695  -18.3971 N   0  0  0  0  0  0  0  0  0  0  0  0
   17.4455  -21.0425  -18.7476 C   0  0  0  0  0  0  0  0  0  0  0  0
   18.3871  -21.7926  -19.2890 N   0  0  0  0  0  0  0  0  0  0  0  0
  1  5  1  6  0  0  0
  1 14  1  0  0  0  0
  1 19  2  0  0  0  0
  1 23  1  0  0  0  0
  2 15  1  6  0  0  0
  2 20  2  0  0  0  0
  2 23  1  0  0  0  0
  2 24  1  0  0  0  0
  3 16  1  1  0  0  0
  3 21  1  0  0  0  0
  3 24  1  0  0  0  0
  3 25  2  0  0  0  0
  4  5  1  0  0  0  0
  6  4  1  1  0  0  0
  6  7  1  0  0  0  0
  6  8  1  0  0  0  0
  7 12  1  0  0  0  0
  8  9  1  6  0  0  0
  8 10  1  0  0  0  0
 10 11  1  6  0  0  0
 10 12  1  0  0  0  0
 12 32  1  1  0  0  0
 13 17  2  0  0  0  0
 13 28  1  0  0  0  0
 17 18  1  0  0  0  0
 17 22  1  0  0  0  0
 22 26  2  0  0  0  0
 26 27  1  0  0  0  0
 26 32  1  0  0  0  0
 27 28  2  0  0  0  0
 27 30  1  0  0  0  0
 28 29  1  0  0  0  0
 30 31  2  0  0  0  0
 31 32  1  0  0  0  0
M  CHG  3  14  -1  15  -1  21  -1
M  END
>  <CHROM.1>
176.35485238,64.58244633,-177.23751225,66.24399933,74.24991909,-174.68681758
60.74316543,64.36294399,16.21325471,-23.56163670,-17.21922731,-2.79659382
0.67893655,0.29888665

>  <Name>
ligand

>  <RI>
0

>  <Rbt.Current_Directory>
/home/itssahil/PROJECTS/Mol_Feturizer/New_Systems/rnas/4Y1I

>  <Rbt.Executable>
rbdock ($Id: //depot/dev/client3/rdock/2013.1/src/exe/rbdock.cxx#4 $)

>  <Rbt.Library>
libRbt.so (2013.1, Build901 2013/11/27)

>  <Rbt.Parameter_File>
/export/apps/rDock/src/rDock_2013.1_src/data/scripts/dock_solv.prm

>  <Rbt.Receptor>
prm/pocket_docking_6.prm

>  <SCORE>
-8.21569

>  <SCORE.INTER>
-3.2788

>  <SCORE.INTER.CONST>
1

>  <SCORE.INTER.POLAR>
0

>  <SCORE.INTER.ROT>
8

>  <SCORE.INTER.SOLV>
6.8749

>  <SCORE.INTER.VDW>
-13.4108

>  <SCORE.INTER.norm>
-0.102463

>  <SCORE.INTRA>
-4.9398

>  <SCORE.INTRA.DIHEDRAL>
-8.5381

>  <SCORE.INTRA.DIHEDRAL.0>
10.9594

>  <SCORE.INTRA.POLAR>
0

>  <SCORE.INTRA.POLAR.0>
0

>  <SCORE.INTRA.REPUL>
0

>  <SCORE.INTRA.REPUL.0>
0

>  <SCORE.INTRA.SOLV>
-1.5757

>  <SCORE.INTRA.SOLV.lig_0>
-124.914

>  <SCORE.INTRA.VDW>
0.117096

>  <SCORE.INTRA.VDW.0>
-4.69801

>  <SCORE.INTRA.norm>
-0.154369

>  <SCORE.RESTR>
0.00291638

>  <SCORE.RESTR.CAVITY>
0.00291638

>  <SCORE.RESTR.norm>
9.11368e-05

>  <SCORE.SYSTEM>
0

>  <SCORE.SYSTEM.CONST>
0

>  <SCORE.SYSTEM.DIHEDRAL>
0

>  <SCORE.SYSTEM.SOLV>
0

>  <SCORE.SYSTEM.norm>
0

>  <SCORE.heavy>
32

>  <SCORE.norm>
-0.25674

>  <RMSD>
4.682

$$$$
ligand
 OpenBabel11021811513D
libRbt.so/2013.1/901 2013/11/27
 32 34  0  0  0  0  0  0  0  0999 V2000
   19.3092  -26.2332  -18.2382 P   0  0  1  0  0  0  0  0  0  0  0  0
   19.4411  -28.3772  -20.1400 P   0  0  2  0  0  0  0  0  0  0  0  0
   17.8541  -30.8061  -19.6960 P   0  0  1  0  0  0  0  0  0  0  0  0
   20.4092  -23.9654  -18.9007 C   0  0  0  0  0  0  0  0  0  0  0  0
   19.7975  -25.1356  -19.3639 O   0  0  0  0  0  0  0  0  0  0  0  0
   20.8573  -23.2158  -19.9827 C   0  0  1  0  0  0  0  0  0  0  0  0
   19.6829  -22.8126  -20.8533 O   0  0  0  0  0  0  0  0  0  0  0  0
   21.5354  -21.8509  -19.5038 C   0  0  1  0  0  0  0  0  0  0  0  0
   23.0037  -21.8653  -19.8646 O   0  0  0  0  0  0  0  0  0  0  0  0
   21.0044  -20.9558  -20.1657 C   0  0  1  0  0  0  0  0  0  0  0  0
   21.8617  -20.6312  -21.3308 O   0  0  0  0  0  0  0  0  0  0  0  0
   19.5410  -21.5580  -20.6850 C   0  0  2  0  0  0  0  0  0  0  0  0
   15.1087  -23.1634  -18.6445 N   0  0  0  0  0  0  0  0  0  0  0  0
   20.5001  -26.7257  -17.4538 O   0  5  0  0  0  0  0  0  0  0  0  0
   20.7241  -28.9121  -19.5552 O   0  5  0  0  0  0  0  0  0  0  0  0
   17.0207  -30.1386  -18.6273 O   0  0  0  0  0  0  0  0  0  0  0  0
   15.8215  -23.7331  -19.6037 C   0  0  0  0  0  0  0  0  0  0  0  0
   15.3532  -24.9680  -20.1998 N   0  0  0  0  0  0  0  0  0  0  0  0
   18.2958  -25.5770  -17.3279 O   0  0  0  0  0  0  0  0  0  0  0  0
   19.7552  -27.4735  -21.3034 O   0  0  0  0  0  0  0  0  0  0  0  0
   16.9661  -31.7071  -20.5262 O   0  5  0  0  0  0  0  0  0  0  0  0
   16.9509  -23.2125  -20.0386 N   0  0  0  0  0  0  0  0  0  0  0  0
   18.6218  -27.5073  -19.0146 O   0  0  0  0  0  0  0  0  0  0  0  0
   18.4992  -29.6243  -20.6534 O   0  0  0  0  0  0  0  0  0  0  0  0
   18.9502  -31.6126  -19.0345 O   0  0  0  0  0  0  0  0  0  0  0  0
   17.4183  -22.0729  -19.5148 C   0  0  0  0  0  0  0  0  0  0  0  0
   16.6942  -21.4579  -18.5135 C   0  0  0  0  0  0  0  0  0  0  0  0
   15.4900  -22.0332  -18.0639 C   0  0  0  0  0  0  0  0  0  0  0  0
   14.7310  -21.4304  -17.0453 O   0  0  0  0  0  0  0  0  0  0  0  0
   17.3596  -20.3462  -18.1564 N   0  0  0  0  0  0  0  0  0  0  0  0
   18.4472  -20.2762  -18.9041 C   0  0  0  0  0  0  0  0  0  0  0  0
   18.4983  -21.3051  -19.7294 N   0  0  0  0  0  0  0  0  0  0  0  0
  1  5  1  6  0  0  0
  1 14  1  0  0  0  0
  1 19  2  0  0  0  0
  1 23  1  0  0  0  0
  2 15  1  1  0  0  0
  2 20  2  0  0  0  0
  2 23  1  0  0  0  0
  2 24  1  0  0  0  0
  3 16  1  1  0  0  0
  3 21  1  0  0  0  0
  3 24  1  0  0  0  0
  3 25  2  0  0  0  0
  4  5  1  0  0  0  0
  6  4  1  1  0  0  0
  6  7  1  0  0  0  0
  6  8  1  0  0  0  0
  7 12  1  0  0  0  0
  8  9  1  6  0  0  0
  8 10  1  0  0  0  0
 10 11  1  6  0  0  0
 10 12  1  0  0  0  0
 12 32  1  1  0  0  0
 13 17  2  0  0  0  0
 13 28  1  0  0  0  0
 17 18  1  0  0  0  0
 17 22  1  0  0  0  0
 22 26  2  0  0  0  0
 26 27  1  0  0  0  0
 26 32  1  0  0  0  0
 27 28  2  0  0  0  0
 27 30  1  0  0  0  0
 28 29  1  0  0  0  0
 30 31  2  0  0  0  0
 31 32  1  0  0  0  0
M  CHG  3  14  -1  15  -1  21  -1
M  END
>  <CHROM.1>
-61.34405463,55.94725414,56.92836381,61.71269137,174.84699722,-30.45672166
57.69614882,63.13887575,18.68514242,-25.25618967,-19.39676668,-1.61405004
0.25564768,0.03898399

>  <Name>
ligand

>  <RI>
0

>  <Rbt.Current_Directory>
/home/itssahil/PROJECTS/Mol_Feturizer/New_Systems/rnas/4Y1I

>  <Rbt.Executable>
rbdock ($Id: //depot/dev/client3/rdock/2013.1/src/exe/rbdock.cxx#4 $)

>  <Rbt.Library>
libRbt.so (2013.1, Build901 2013/11/27)

>  <Rbt.Parameter_File>
/export/apps/rDock/src/rDock_2013.1_src/data/scripts/dock_solv.prm

>  <Rbt.Receptor>
prm/pocket_docking_6.prm

>  <SCORE>
-7.26287

>  <SCORE.INTER>
0.363659

>  <SCORE.INTER.CONST>
1

>  <SCORE.INTER.POLAR>
0

>  <SCORE.INTER.ROT>
8

>  <SCORE.INTER.SOLV>
10.2103

>  <SCORE.INTER.VDW>
-12.0943

>  <SCORE.INTER.norm>
0.0113644

>  <SCORE.INTRA>
-7.63221

>  <SCORE.INTRA.DIHEDRAL>
-9.51166

>  <SCORE.INTRA.DIHEDRAL.0>
10.9594

>  <SCORE.INTRA.POLAR>
0

>  <SCORE.INTRA.POLAR.0>
0

>  <SCORE.INTRA.REPUL>
0

>  <SCORE.INTRA.REPUL.0>
0

>  <SCORE.INTRA.SOLV>
-4.32974

>  <SCORE.INTRA.SOLV.lig_0>
-124.914

>  <SCORE.INTRA.VDW>
-0.711515

>  <SCORE.INTRA.VDW.0>
-4.69801

>  <SCORE.INTRA.norm>
-0.238507

>  <SCORE.RESTR>
0.00568128

>  <SCORE.RESTR.CAVITY>
0.00568128

>  <SCORE.RESTR.norm>
0.00017754

>  <SCORE.SYSTEM>
0

>  <SCORE.SYSTEM.CONST>
0

>  <SCORE.SYSTEM.DIHEDRAL>
0

>  <SCORE.SYSTEM.SOLV>
0

>  <SCORE.SYSTEM.norm>
0

>  <SCORE.heavy>
32

>  <SCORE.norm>
-0.226965

>  <RMSD>
4.690

$$$$
ligand
 OpenBabel11021811513D
libRbt.so/2013.1/901 2013/11/27
 32 34  0  0  0  0  0  0  0  0999 V2000
   15.6685  -26.4566  -19.8445 P   0  0  1  0  0  0  0  0  0  0  0  0
   14.6361  -28.5404  -18.1643 P   0  0  2  0  0  0  0  0  0  0  0  0
   16.3610  -30.8336  -17.5468 P   0  0  1  0  0  0  0  0  0  0  0  0
   14.6876  -24.0542  -20.0848 C   0  0  0  0  0  0  0  0  0  0  0  0
   15.8221  -24.8184  -19.7899 O   0  0  0  0  0  0  0  0  0  0  0  0
   14.8690  -22.7556  -19.6221 C   0  0  1  0  0  0  0  0  0  0  0  0
   14.9431  -22.7528  -18.1073 O   0  0  0  0  0  0  0  0  0  0  0  0
   16.2560  -22.1459  -20.1286 C   0  0  1  0  0  0  0  0  0  0  0  0
   15.9852  -20.9799  -21.0523 O   0  0  0  0  0  0  0  0  0  0  0  0
   16.8173  -21.6965  -19.1264 C   0  0  1  0  0  0  0  0  0  0  0  0
   16.5512  -20.2416  -19.0247 O   0  0  0  0  0  0  0  0  0  0  0  0
   16.1558  -22.4897  -17.8198 C   0  0  2  0  0  0  0  0  0  0  0  0
   20.4524  -25.2205  -18.5031 N   0  0  0  0  0  0  0  0  0  0  0  0
   14.8849  -26.8563  -21.0702 O   0  5  0  0  0  0  0  0  0  0  0  0
   13.9330  -29.2317  -19.3054 O   0  5  0  0  0  0  0  0  0  0  0  0
   15.8291  -31.6628  -18.6922 O   0  0  0  0  0  0  0  0  0  0  0  0
   20.1537  -24.0286  -18.9959 C   0  0  0  0  0  0  0  0  0  0  0  0
   21.1124  -23.3487  -19.8433 N   0  0  0  0  0  0  0  0  0  0  0  0
   17.0489  -27.0735  -19.8601 O   0  0  0  0  0  0  0  0  0  0  0  0
   13.7996  -28.6488  -16.9164 O   0  0  0  0  0  0  0  0  0  0  0  0
   17.8453  -31.0875  -17.3986 O   0  5  0  0  0  0  0  0  0  0  0  0
   19.0060  -23.4342  -18.7406 N   0  0  0  0  0  0  0  0  0  0  0  0
   14.8504  -26.9496  -18.5079 O   0  0  0  0  0  0  0  0  0  0  0  0
   16.1012  -29.2418  -17.9047 O   0  0  0  0  0  0  0  0  0  0  0  0
   15.6320  -31.2198  -16.2784 O   0  0  0  0  0  0  0  0  0  0  0  0
   18.0929  -24.0282  -17.9627 C   0  0  0  0  0  0  0  0  0  0  0  0
   18.3790  -25.2717  -17.4364 C   0  0  0  0  0  0  0  0  0  0  0  0
   19.6127  -25.8876  -17.7222 C   0  0  0  0  0  0  0  0  0  0  0  0
   19.9328  -27.1533  -17.2002 O   0  0  0  0  0  0  0  0  0  0  0  0
   17.3214  -25.6533  -16.7001 N   0  0  0  0  0  0  0  0  0  0  0  0
   16.4205  -24.6887  -16.7684 C   0  0  0  0  0  0  0  0  0  0  0  0
   16.8659  -23.7037  -17.5258 N   0  0  0  0  0  0  0  0  0  0  0  0
  1  5  1  1  0  0  0
  1 14  1  0  0  0  0
  1 19  2  0  0  0  0
  1 23  1  0  0  0  0
  2 15  1  6  0  0  0
  2 20  2  0  0  0  0
  2 23  1  0  0  0  0
  2 24  1  0  0  0  0
  3 16  1  6  0  0  0
  3 21  1  0  0  0  0
  3 24  1  0  0  0  0
  3 25  2  0  0  0  0
  4  5  1  0  0  0  0
  6  4  1  6  0  0  0
  6  7  1  0  0  0  0
  6  8  1  0  0  0  0
  7 12  1  0  0  0  0
  8  9  1  6  0  0  0
  8 10  1  0  0  0  0
 10 11  1  1  0  0  0
 10 12  1  0  0  0  0
 12 32  1  6  0  0  0
 13 17  2  0  0  0  0
 13 28  1  0  0  0  0
 17 18  1  0  0  0  0
 17 22  1  0  0  0  0
 22 26  2  0  0  0  0
 26 27  1  0  0  0  0
 26 32  1  0  0  0  0
 27 28  2  0  0  0  0
 27 30  1  0  0  0  0
 28 29  1  0  0  0  0
 30 31  2  0  0  0  0
 31 32  1  0  0  0  0
M  CHG  3  14  -1  15  -1  21  -1
M  END
>  <CHROM.1>
43.67342489,-57.52344567,60.47000733,-65.82894236,162.68616400,135.91236661
-174.27607689,-58.11982559,16.55901482,-26.09660228,-18.56384339,1.74545812
0.23451245,2.92377603

>  <Name>
ligand

>  <RI>
0

>  <Rbt.Current_Directory>
/home/itssahil/PROJECTS/Mol_Feturizer/New_Systems/rnas/4Y1I

>  <Rbt.Executable>
rbdock ($Id: //depot/dev/client3/rdock/2013.1/src/exe/rbdock.cxx#4 $)

>  <Rbt.Library>
libRbt.so (2013.1, Build901 2013/11/27)

>  <Rbt.Parameter_File>
/export/apps/rDock/src/rDock_2013.1_src/data/scripts/dock_solv.prm

>  <Rbt.Receptor>
prm/pocket_docking_3.prm

>  <SCORE>
-3.42022

>  <SCORE.INTER>
3.74685

>  <SCORE.INTER.CONST>
1

>  <SCORE.INTER.POLAR>
0

>  <SCORE.INTER.ROT>
8

>  <SCORE.INTER.SOLV>
6.71621

>  <SCORE.INTER.VDW>
-8.67417

>  <SCORE.INTER.norm>
0.117089

>  <SCORE.INTRA>
-7.16762

>  <SCORE.INTRA.DIHEDRAL>
-7.81216

>  <SCORE.INTRA.DIHEDRAL.0>
10.9594

>  <SCORE.INTRA.POLAR>
0

>  <SCORE.INTRA.POLAR.0>
0

>  <SCORE.INTRA.REPUL>
0

>  <SCORE.INTRA.REPUL.0>
0

>  <SCORE.INTRA.SOLV>
-2.53395

>  <SCORE.INTRA.SOLV.lig_0>
-124.914

>  <SCORE.INTRA.VDW>
-1.99456

>  <SCORE.INTRA.VDW.0>
-4.69801

>  <SCORE.INTRA.norm>
-0.223988

>  <SCORE.RESTR>
0.000551803

>  <SCORE.RESTR.CAVITY>
0.000551803

>  <SCORE.RESTR.norm>
1.72438e-05

>  <SCORE.SYSTEM>
0

>  <SCORE.SYSTEM.CONST>
0

>  <SCORE.SYSTEM.DIHEDRAL>
0

>  <SCORE.SYSTEM.SOLV>
0

>  <SCORE.SYSTEM.norm>
0

>  <SCORE.heavy>
32

>  <SCORE.norm>
-0.106882

>  <RMSD>
4.744

$$$$
ligand
 OpenBabel11021811513D
libRbt.so/2013.1/901 2013/11/27
 32 34  0  0  0  0  0  0  0  0999 V2000
   17.0247  -29.3633  -16.0440 P   0  0  1  0  0  0  0  0  0  0  0  0
   16.6396  -28.6973  -13.2801 P   0  0  2  0  0  0  0  0  0  0  0  0
   14.7116  -26.5826  -12.6276 P   0  0  1  0  0  0  0  0  0  0  0  0
   16.9767  -26.8057  -16.5417 C   0  0  0  0  0  0  0  0  0  0  0  0
   16.2627  -28.0083  -16.5858 O   0  0  0  0  0  0  0  0  0  0  0  0
   16.2035  -25.7861  -17.0856 C   0  0  1  0  0  0  0  0  0  0  0  0
   16.8679  -24.4457  -16.8373 O   0  0  0  0  0  0  0  0  0  0  0  0
   16.0860  -25.9283  -18.6725 C   0  0  1  0  0  0  0  0  0  0  0  0
   14.6470  -26.2020  -19.0475 O   0  0  0  0  0  0  0  0  0  0  0  0
   16.3820  -24.8246  -19.1367 C   0  0  1  0  0  0  0  0  0  0  0  0
   15.1429  -24.0570  -19.4077 O   0  0  0  0  0  0  0  0  0  0  0  0
   17.2885  -24.0513  -17.9730 C   0  0  2  0  0  0  0  0  0  0  0  0
   21.9064  -22.3789  -19.4778 N   0  0  0  0  0  0  0  0  0  0  0  0
   16.0405  -30.5034  -15.9568 O   0  5  0  0  0  0  0  0  0  0  0  0
   17.4504  -28.5243  -12.0203 O   0  5  0  0  0  0  0  0  0  0  0  0
   15.3539  -26.3695  -11.2769 O   0  0  0  0  0  0  0  0  0  0  0  0
   20.7490  -21.7379  -19.5250 C   0  0  0  0  0  0  0  0  0  0  0  0
   20.7034  -20.3905  -20.0559 N   0  0  0  0  0  0  0  0  0  0  0  0
   18.1554  -29.6961  -16.9912 O   0  0  0  0  0  0  0  0  0  0  0  0
   15.6596  -29.8265  -13.0981 O   0  0  0  0  0  0  0  0  0  0  0  0
   14.3176  -25.2410  -13.2061 O   0  5  0  0  0  0  0  0  0  0  0  0
   19.6282  -22.2867  -19.1026 N   0  0  0  0  0  0  0  0  0  0  0  0
   17.6221  -29.0623  -14.5436 O   0  0  0  0  0  0  0  0  0  0  0  0
   15.8214  -27.3094  -13.6122 O   0  0  0  0  0  0  0  0  0  0  0  0
   13.4917  -27.4620  -12.4603 O   0  0  0  0  0  0  0  0  0  0  0  0
   19.6269  -23.5294  -18.6054 C   0  0  0  0  0  0  0  0  0  0  0  0
   20.8203  -24.2202  -18.5452 C   0  0  0  0  0  0  0  0  0  0  0  0
   22.0061  -23.6132  -19.0018 C   0  0  0  0  0  0  0  0  0  0  0  0
   23.2367  -24.2915  -18.9528 O   0  0  0  0  0  0  0  0  0  0  0  0
   20.5631  -25.4282  -18.0153 N   0  0  0  0  0  0  0  0  0  0  0  0
   19.2676  -25.4826  -17.7594 C   0  0  0  0  0  0  0  0  0  0  0  0
   18.6872  -24.3502  -18.1102 N   0  0  0  0  0  0  0  0  0  0  0  0
  1  5  1  6  0  0  0
  1 14  1  0  0  0  0
  1 19  2  0  0  0  0
  1 23  1  0  0  0  0
  2 15  1  1  0  0  0
  2 20  2  0  0  0  0
  2 23  1  0  0  0  0
  2 24  1  0  0  0  0
  3 16  1  1  0  0  0
  3 21  1  0  0  0  0
  3 24  1  0  0  0  0
  3 25  2  0  0  0  0
  4  5  1  0  0  0  0
  6  4  1  6  0  0  0
  6  7  1  0  0  0  0
  6  8  1  0  0  0  0
  7 12  1  0  0  0  0
  8  9  1  1  0  0  0
  8 10  1  0  0  0  0
 10 11  1  1  0  0  0
 10 12  1  0  0  0  0
 12 32  1  6  0  0  0
 13 17  2  0  0  0  0
 13 28  1  0  0  0  0
 17 18  1  0  0  0  0
 17 22  1  0  0  0  0
 22 26  2  0  0  0  0
 26 27  1  0  0  0  0
 26 32  1  0  0  0  0
 27 28  2  0  0  0  0
 27 30  1  0  0  0  0
 28 29  1  0  0  0  0
 30 31  2  0  0  0  0
 31 32  1  0  0  0  0
M  CHG  3  14  -1  15  -1  21  -1
M  END
>  <CHROM.1>
170.84295919,177.77586275,53.94534114,170.70895521,177.54790656,-136.18766217
62.35580223,-59.63454725,17.40095202,-26.18535996,-16.28026408,-2.19505468
0.46860286,-0.53719436

>  <Name>
ligand

>  <RI>
0

>  <Rbt.Current_Directory>
/home/itssahil/PROJECTS/Mol_Feturizer/New_Systems/rnas/4Y1I

>  <Rbt.Executable>
rbdock ($Id: //depot/dev/client3/rdock/2013.1/src/exe/rbdock.cxx#4 $)

>  <Rbt.Library>
libRbt.so (2013.1, Build901 2013/11/27)

>  <Rbt.Parameter_File>
/export/apps/rDock/src/rDock_2013.1_src/data/scripts/dock_solv.prm

>  <Rbt.Receptor>
prm/pocket_docking_6.prm

>  <SCORE>
-8.16818

>  <SCORE.INTER>
-1.20586

>  <SCORE.INTER.CONST>
1

>  <SCORE.INTER.POLAR>
0

>  <SCORE.INTER.ROT>
8

>  <SCORE.INTER.SOLV>
9.47919

>  <SCORE.INTER.VDW>
-12.897

>  <SCORE.INTER.norm>
-0.037683

>  <SCORE.INTRA>
-6.96233

>  <SCORE.INTRA.DIHEDRAL>
-9.21152

>  <SCORE.INTRA.DIHEDRAL.0>
10.9594

>  <SCORE.INTRA.POLAR>
0

>  <SCORE.INTRA.POLAR.0>
0

>  <SCORE.INTRA.REPUL>
0

>  <SCORE.INTRA.REPUL.0>
0

>  <SCORE.INTRA.SOLV>
-4.96874

>  <SCORE.INTRA.SOLV.lig_0>
-124.914

>  <SCORE.INTRA.VDW>
0.127801

>  <SCORE.INTRA.VDW.0>
-4.69801

>  <SCORE.INTRA.norm>
-0.217573

>  <SCORE.RESTR>
0

>  <SCORE.RESTR.CAVITY>
0

>  <SCORE.RESTR.norm>
0

>  <SCORE.SYSTEM>
0

>  <SCORE.SYSTEM.CONST>
0

>  <SCORE.SYSTEM.DIHEDRAL>
0

>  <SCORE.SYSTEM.SOLV>
0

>  <SCORE.SYSTEM.norm>
0

>  <SCORE.heavy>
32

>  <SCORE.norm>
-0.255256

>  <RMSD>
4.755

$$$$
ligand
 OpenBabel11021811513D
libRbt.so/2013.1/901 2013/11/27
 32 34  0  0  0  0  0  0  0  0999 V2000
   15.7561  -27.8530  -20.3272 P   0  0  1  0  0  0  0  0  0  0  0  0
   15.0702  -29.2965  -17.9447 P   0  0  2  0  0  0  0  0  0  0  0  0
   17.8473  -30.0907  -17.4233 P   0  0  1  0  0  0  0  0  0  0  0  0
   15.5902  -25.2678  -20.0434 C   0  0  0  0  0  0  0  0  0  0  0  0
   15.1630  -26.5147  -19.5738 O   0  0  0  0  0  0  0  0  0  0  0  0
   15.1088  -24.2666  -19.2072 C   0  0  1  0  0  0  0  0  0  0  0  0
   15.5248  -24.5451  -17.7757 O   0  0  0  0  0  0  0  0  0  0  0  0
   15.7396  -22.8462  -19.5772 C   0  0  1  0  0  0  0  0  0  0  0  0
   14.6473  -21.9239  -20.0696 O   0  0  0  0  0  0  0  0  0  0  0  0
   16.1664  -22.3767  -18.5196 C   0  0  1  0  0  0  0  0  0  0  0  0
   15.1575  -21.4518  -17.9498 O   0  0  0  0  0  0  0  0  0  0  0  0
   16.4021  -23.6662  -17.4922 C   0  0  2  0  0  0  0  0  0  0  0  0
   21.1064  -23.0921  -19.4733 N   0  0  0  0  0  0  0  0  0  0  0  0
   15.3191  -27.8630  -21.7712 O   0  5  0  0  0  0  0  0  0  0  0  0
   14.5581  -30.6554  -17.5378 O   0  5  0  0  0  0  0  0  0  0  0  0
   17.3742  -31.4621  -17.0017 O   0  0  0  0  0  0  0  0  0  0  0  0
   20.0687  -22.2769  -19.5803 C   0  0  0  0  0  0  0  0  0  0  0  0
   20.2042  -21.0487  -20.3370 N   0  0  0  0  0  0  0  0  0  0  0  0
   17.2642  -27.8431  -20.2186 O   0  0  0  0  0  0  0  0  0  0  0  0
   14.1313  -28.2320  -17.4406 O   0  0  0  0  0  0  0  0  0  0  0  0
   18.3297  -30.1519  -18.8562 O   0  5  0  0  0  0  0  0  0  0  0  0
   18.9079  -22.5455  -19.0181 N   0  0  0  0  0  0  0  0  0  0  0  0
   15.1500  -29.1848  -19.5805 O   0  0  0  0  0  0  0  0  0  0  0  0
   16.5680  -29.0516  -17.3102 O   0  0  0  0  0  0  0  0  0  0  0  0
   18.9705  -29.6537  -16.5084 O   0  0  0  0  0  0  0  0  0  0  0  0
   18.7408  -23.6695  -18.3108 C   0  0  0  0  0  0  0  0  0  0  0  0
   19.8068  -24.5372  -18.1841 C   0  0  0  0  0  0  0  0  0  0  0  0
   21.0386  -24.2290  -18.7930 C   0  0  0  0  0  0  0  0  0  0  0  0
   22.1423  -25.0927  -18.6811 O   0  0  0  0  0  0  0  0  0  0  0  0
   19.3960  -25.5777  -17.4393 N   0  0  0  0  0  0  0  0  0  0  0  0
   18.1316  -25.3636  -17.1198 C   0  0  0  0  0  0  0  0  0  0  0  0
   17.7192  -24.2216  -17.6375 N   0  0  0  0  0  0  0  0  0  0  0  0
  1  5  1  1  0  0  0
  1 14  1  0  0  0  0
  1 19  2  0  0  0  0
  1 23  1  0  0  0  0
  2 15  1  1  0  0  0
  2 20  2  0  0  0  0
  2 23  1  0  0  0  0
  2 24  1  0  0  0  0
  3 16  1  1  0  0  0
  3 21  1  0  0  0  0
  3 24  1  0  0  0  0
  3 25  2  0  0  0  0
  4  5  1  0  0  0  0
  6  4  1  6  0  0  0
  6  7  1  0  0  0  0
  6  8  1  0  0  0  0
  7 12  1  0  0  0  0
  8  9  1  1  0  0  0
  8 10  1  0  0  0  0
 10 11  1  1  0  0  0
 10 12  1  0  0  0  0
 12 32  1  6  0  0  0
 13 17  2  0  0  0  0
 13 28  1  0  0  0  0
 17 18  1  0  0  0  0
 17 22  1  0  0  0  0
 22 26  2  0  0  0  0
 26 27  1  0  0  0  0
 26 32  1  0  0  0  0
 27 28  2  0  0  0  0
 27 30  1  0  0  0  0
 28 29  1  0  0  0  0
 30 31  2  0  0  0  0
 31 32  1  0  0  0  0
M  CHG  3  14  -1  15  -1  21  -1
M  END
>  <CHROM.1>
-62.68564628,-176.30343316,-50.20659555,54.82758243,-173.60788295,130.66171483
-43.42594460,50.64278055,17.10063883,-26.27337969,-18.64031103,1.85857510
0.15929110,2.96913321

>  <Name>
ligand

>  <RI>
0

>  <Rbt.Current_Directory>
/home/itssahil/PROJECTS/Mol_Feturizer/New_Systems/rnas/4Y1I

>  <Rbt.Executable>
rbdock ($Id: //depot/dev/client3/rdock/2013.1/src/exe/rbdock.cxx#4 $)

>  <Rbt.Library>
libRbt.so (2013.1, Build901 2013/11/27)

>  <Rbt.Parameter_File>
/export/apps/rDock/src/rDock_2013.1_src/data/scripts/dock_solv.prm

>  <Rbt.Receptor>
prm/pocket_docking_3.prm

>  <SCORE>
-4.34477

>  <SCORE.INTER>
2.19415

>  <SCORE.INTER.CONST>
1

>  <SCORE.INTER.POLAR>
0

>  <SCORE.INTER.ROT>
8

>  <SCORE.INTER.SOLV>
4.51868

>  <SCORE.INTER.VDW>
-8.9768

>  <SCORE.INTER.norm>
0.0685671

>  <SCORE.INTRA>
-6.53892

>  <SCORE.INTRA.DIHEDRAL>
-8.70841

>  <SCORE.INTRA.DIHEDRAL.0>
10.9594

>  <SCORE.INTRA.POLAR>
0

>  <SCORE.INTRA.POLAR.0>
0

>  <SCORE.INTRA.REPUL>
0

>  <SCORE.INTRA.REPUL.0>
0

>  <SCORE.INTRA.SOLV>
-2.57614

>  <SCORE.INTRA.SOLV.lig_0>
-124.914

>  <SCORE.INTRA.VDW>
-0.896649

>  <SCORE.INTRA.VDW.0>
-4.69801

>  <SCORE.INTRA.norm>
-0.204341

>  <SCORE.RESTR>
0

>  <SCORE.RESTR.CAVITY>
0

>  <SCORE.RESTR.norm>
0

>  <SCORE.SYSTEM>
0

>  <SCORE.SYSTEM.CONST>
0

>  <SCORE.SYSTEM.DIHEDRAL>
0

>  <SCORE.SYSTEM.SOLV>
0

>  <SCORE.SYSTEM.norm>
0

>  <SCORE.heavy>
32

>  <SCORE.norm>
-0.135774

>  <RMSD>
4.760

$$$$
ligand
 OpenBabel11021811513D
libRbt.so/2013.1/901 2013/11/27
 32 34  0  0  0  0  0  0  0  0999 V2000
   13.2884  -28.7815  -17.9748 P   0  0  1  0  0  0  0  0  0  0  0  0
   11.9196  -29.5013  -15.5583 P   0  0  2  0  0  0  0  0  0  0  0  0
   12.8226  -27.9188  -13.2571 P   0  0  1  0  0  0  0  0  0  0  0  0
   15.8696  -29.0536  -17.7406 C   0  0  0  0  0  0  0  0  0  0  0  0
   14.6151  -29.4374  -17.2538 O   0  0  0  0  0  0  0  0  0  0  0  0
   16.8650  -29.7302  -17.0444 C   0  0  1  0  0  0  0  0  0  0  0  0
   18.2219  -29.4085  -17.6406 O   0  0  0  0  0  0  0  0  0  0  0  0
   16.9338  -29.2563  -15.5203 C   0  0  1  0  0  0  0  0  0  0  0  0
   16.5604  -30.4105  -14.6177 O   0  0  0  0  0  0  0  0  0  0  0  0
   18.1171  -28.9870  -15.3000 C   0  0  1  0  0  0  0  0  0  0  0  0
   18.7757  -30.1517  -14.6616 O   0  0  0  0  0  0  0  0  0  0  0  0
   18.8143  -28.6789  -16.7808 C   0  0  2  0  0  0  0  0  0  0  0  0
   21.1831  -24.4815  -18.5574 N   0  0  0  0  0  0  0  0  0  0  0  0
   13.3432  -27.2771  -17.8751 O   0  5  0  0  0  0  0  0  0  0  0  0
   12.4715  -30.8515  -15.1751 O   0  5  0  0  0  0  0  0  0  0  0  0
   12.9559  -29.1968  -12.4624 O   0  0  0  0  0  0  0  0  0  0  0  0
   21.6985  -25.6814  -18.3400 C   0  0  0  0  0  0  0  0  0  0  0  0
   23.1020  -25.9131  -18.6157 N   0  0  0  0  0  0  0  0  0  0  0  0
   13.2507  -29.2269  -19.4193 O   0  0  0  0  0  0  0  0  0  0  0  0
   10.4917  -29.3892  -15.0923 O   0  0  0  0  0  0  0  0  0  0  0  0
   14.0034  -27.0221  -12.9550 O   0  5  0  0  0  0  0  0  0  0  0  0
   20.9741  -26.6802  -17.8781 N   0  0  0  0  0  0  0  0  0  0  0  0
   11.9486  -29.3166  -17.1892 O   0  0  0  0  0  0  0  0  0  0  0  0
   12.8185  -28.3128  -14.8615 O   0  0  0  0  0  0  0  0  0  0  0  0
   11.5295  -27.2327  -12.8742 O   0  0  0  0  0  0  0  0  0  0  0  0
   19.6741  -26.5080  -17.6103 C   0  0  0  0  0  0  0  0  0  0  0  0
   19.1116  -25.2664  -17.8276 C   0  0  0  0  0  0  0  0  0  0  0  0
   19.9051  -24.2136  -18.3227 C   0  0  0  0  0  0  0  0  0  0  0  0
   19.3605  -22.9383  -18.5546 O   0  0  0  0  0  0  0  0  0  0  0  0
   17.8134  -25.3446  -17.4889 N   0  0  0  0  0  0  0  0  0  0  0  0
   17.5830  -26.5800  -17.0795 C   0  0  0  0  0  0  0  0  0  0  0  0
   18.6913  -27.2939  -17.1430 N   0  0  0  0  0  0  0  0  0  0  0  0
  1  5  1  1  0  0  0
  1 14  1  0  0  0  0
  1 19  2  0  0  0  0
  1 23  1  0  0  0  0
  2 15  1  1  0  0  0
  2 20  2  0  0  0  0
  2 23  1  0  0  0  0
  2 24  1  0  0  0  0
  3 16  1  1  0  0  0
  3 21  1  0  0  0  0
  3 24  1  0  0  0  0
  3 25  2  0  0  0  0
  4  5  1  0  0  0  0
  6  4  1  6  0  0  0
  6  7  1  0  0  0  0
  6  8  1  0  0  0  0
  7 12  1  0  0  0  0
  8  9  1  1  0  0  0
  8 10  1  0  0  0  0
 10 11  1  6  0  0  0
 10 12  1  0  0  0  0
 12 32  1  6  0  0  0
 13 17  2  0  0  0  0
 13 28  1  0  0  0  0
 17 18  1  0  0  0  0
 17 22  1  0  0  0  0
 22 26  2  0  0  0  0
 26 27  1  0  0  0  0
 26 32  1  0  0  0  0
 27 28  2  0  0  0  0
 27 30  1  0  0  0  0
 28 29  1  0  0  0  0
 30 31  2  0  0  0  0
 31 32  1  0  0  0  0
M  CHG  3  14  -1  15  -1  21  -1
M  END
>  <CHROM.1>
-58.25096559,-85.13012895,47.49544151,175.33639219,-178.30489840,-108.37503348
38.25756838,-72.24620868,15.84265364,-27.97870099,-16.36514041,2.71952043
0.26312565,1.84755968

>  <Name>
ligand

>  <RI>
0

>  <Rbt.Current_Directory>
/home/itssahil/PROJECTS/Mol_Feturizer/New_Systems/rnas/4Y1I

>  <Rbt.Executable>
rbdock ($Id: //depot/dev/client3/rdock/2013.1/src/exe/rbdock.cxx#4 $)

>  <Rbt.Library>
libRbt.so (2013.1, Build901 2013/11/27)

>  <Rbt.Parameter_File>
/export/apps/rDock/src/rDock_2013.1_src/data/scripts/dock_solv.prm

>  <Rbt.Receptor>
prm/pocket_docking_4.prm

>  <SCORE>
-5.36799

>  <SCORE.INTER>
1.61561

>  <SCORE.INTER.CONST>
1

>  <SCORE.INTER.POLAR>
0

>  <SCORE.INTER.ROT>
8

>  <SCORE.INTER.SOLV>
8.20926

>  <SCORE.INTER.VDW>
-10.5927

>  <SCORE.INTER.norm>
0.0504879

>  <SCORE.INTRA>
-6.98361

>  <SCORE.INTRA.DIHEDRAL>
-7.55322

>  <SCORE.INTRA.DIHEDRAL.0>
10.9594

>  <SCORE.INTRA.POLAR>
0

>  <SCORE.INTRA.POLAR.0>
0

>  <SCORE.INTRA.REPUL>
0

>  <SCORE.INTRA.REPUL.0>
0

>  <SCORE.INTRA.SOLV>
-5.9461

>  <SCORE.INTRA.SOLV.lig_0>
-124.914

>  <SCORE.INTRA.VDW>
-0.233948

>  <SCORE.INTRA.VDW.0>
-4.69801

>  <SCORE.INTRA.norm>
-0.218238

>  <SCORE.RESTR>
0

>  <SCORE.RESTR.CAVITY>
0

>  <SCORE.RESTR.norm>
0

>  <SCORE.SYSTEM>
0

>  <SCORE.SYSTEM.CONST>
0

>  <SCORE.SYSTEM.DIHEDRAL>
0

>  <SCORE.SYSTEM.SOLV>
0

>  <SCORE.SYSTEM.norm>
0

>  <SCORE.heavy>
32

>  <SCORE.norm>
-0.16775

>  <RMSD>
4.795

$$$$
ligand
 OpenBabel11021811513D
libRbt.so/2013.1/901 2013/11/27
 32 34  0  0  0  0  0  0  0  0999 V2000
   16.1038  -27.7064  -13.8142 P   0  0  1  0  0  0  0  0  0  0  0  0
   17.5966  -29.2080  -15.7501 P   0  0  2  0  0  0  0  0  0  0  0  0
   17.5941  -28.6595  -18.6335 P   0  0  1  0  0  0  0  0  0  0  0  0
   16.2116  -25.6625  -15.4274 C   0  0  0  0  0  0  0  0  0  0  0  0
   15.4488  -26.7473  -14.9810 O   0  0  0  0  0  0  0  0  0  0  0  0
   15.4973  -24.9565  -16.3889 C   0  0  1  0  0  0  0  0  0  0  0  0
   16.2691  -23.7171  -16.7990 O   0  0  0  0  0  0  0  0  0  0  0  0
   15.3101  -25.8160  -17.7224 C   0  0  1  0  0  0  0  0  0  0  0  0
   13.8417  -26.1120  -17.9279 O   0  0  0  0  0  0  0  0  0  0  0  0
   15.6705  -25.0882  -18.6507 C   0  0  1  0  0  0  0  0  0  0  0  0
   14.4832  -24.4367  -19.2538 O   0  0  0  0  0  0  0  0  0  0  0  0
   16.6754  -23.9384  -17.9858 C   0  0  2  0  0  0  0  0  0  0  0  0
   21.5202  -22.9901  -19.4048 N   0  0  0  0  0  0  0  0  0  0  0  0
   16.3792  -26.8898  -12.5759 O   0  5  0  0  0  0  0  0  0  0  0  0
   16.5044  -30.2478  -15.7579 O   0  5  0  0  0  0  0  0  0  0  0  0
   17.3437  -27.4403  -19.4897 O   0  0  0  0  0  0  0  0  0  0  0  0
   20.4394  -22.2658  -19.6498 C   0  0  0  0  0  0  0  0  0  0  0  0
   20.5634  -21.0375  -20.4084 N   0  0  0  0  0  0  0  0  0  0  0  0
   15.1415  -28.8338  -13.5157 O   0  0  0  0  0  0  0  0  0  0  0  0
   18.9400  -29.8871  -15.8050 O   0  0  0  0  0  0  0  0  0  0  0  0
   19.0012  -29.1582  -18.8808 O   0  5  0  0  0  0  0  0  0  0  0  0
   19.2456  -22.6256  -19.2245 N   0  0  0  0  0  0  0  0  0  0  0  0
   17.5229  -28.3155  -14.3743 O   0  0  0  0  0  0  0  0  0  0  0  0
   17.4309  -28.2148  -17.0508 O   0  0  0  0  0  0  0  0  0  0  0  0
   16.5862  -29.7294  -18.9924 O   0  0  0  0  0  0  0  0  0  0  0  0
   19.0878  -23.7531  -18.5207 C   0  0  0  0  0  0  0  0  0  0  0  0
   20.1984  -24.5271  -18.2516 C   0  0  0  0  0  0  0  0  0  0  0  0
   21.4649  -24.1223  -18.7157 C   0  0  0  0  0  0  0  0  0  0  0  0
   22.6144  -24.8895  -18.4570 O   0  0  0  0  0  0  0  0  0  0  0  0
   19.7882  -25.5916  -17.5411 N   0  0  0  0  0  0  0  0  0  0  0  0
   18.4813  -25.4813  -17.3782 C   0  0  0  0  0  0  0  0  0  0  0  0
   18.0416  -24.3827  -17.9630 N   0  0  0  0  0  0  0  0  0  0  0  0
  1  5  1  6  0  0  0
  1 14  1  0  0  0  0
  1 19  2  0  0  0  0
  1 23  1  0  0  0  0
  2 15  1  6  0  0  0
  2 20  2  0  0  0  0
  2 23  1  0  0  0  0
  2 24  1  0  0  0  0
  3 16  1  6  0  0  0
  3 21  1  0  0  0  0
  3 24  1  0  0  0  0
  3 25  2  0  0  0  0
  4  5  1  0  0  0  0
  6  4  1  1  0  0  0
  6  7  1  0  0  0  0
  6  8  1  0  0  0  0
  7 12  1  0  0  0  0
  8  9  1  6  0  0  0
  8 10  1  0  0  0  0
 10 11  1  1  0  0  0
 10 12  1  0  0  0  0
 12 32  1  1  0  0  0
 13 17  2  0  0  0  0
 13 28  1  0  0  0  0
 17 18  1  0  0  0  0
 17 22  1  0  0  0  0
 22 26  2  0  0  0  0
 26 27  1  0  0  0  0
 26 32  1  0  0  0  0
 27 28  2  0  0  0  0
 27 30  1  0  0  0  0
 28 29  1  0  0  0  0
 30 31  2  0  0  0  0
 31 32  1  0  0  0  0
M  CHG  3  14  -1  15  -1  21  -1
M  END
>  <CHROM.1>
60.30851234,-46.34663789,179.35599792,175.53054094,-179.00177569,-117.67042291
-58.04008792,-65.40287092,17.58783840,-26.38872094,-17.16492270,2.14451125
-0.47455339,2.77465194

>  <Name>
ligand

>  <RI>
0

>  <Rbt.Current_Directory>
/home/itssahil/PROJECTS/Mol_Feturizer/New_Systems/rnas/4Y1I

>  <Rbt.Executable>
rbdock ($Id: //depot/dev/client3/rdock/2013.1/src/exe/rbdock.cxx#4 $)

>  <Rbt.Library>
libRbt.so (2013.1, Build901 2013/11/27)

>  <Rbt.Parameter_File>
/export/apps/rDock/src/rDock_2013.1_src/data/scripts/dock_solv.prm

>  <Rbt.Receptor>
prm/pocket_docking_5.prm

>  <SCORE>
-8.46058

>  <SCORE.INTER>
-0.056466

>  <SCORE.INTER.CONST>
1

>  <SCORE.INTER.POLAR>
0

>  <SCORE.INTER.ROT>
8

>  <SCORE.INTER.SOLV>
6.98777

>  <SCORE.INTER.VDW>
-11.3002

>  <SCORE.INTER.norm>
-0.00176456

>  <SCORE.INTRA>
-8.40411

>  <SCORE.INTRA.DIHEDRAL>
-9.29723

>  <SCORE.INTRA.DIHEDRAL.0>
10.9594

>  <SCORE.INTRA.POLAR>
0

>  <SCORE.INTRA.POLAR.0>
0

>  <SCORE.INTRA.REPUL>
0

>  <SCORE.INTRA.REPUL.0>
0

>  <SCORE.INTRA.SOLV>
-2.59737

>  <SCORE.INTRA.SOLV.lig_0>
-124.914

>  <SCORE.INTRA.VDW>
-2.45681

>  <SCORE.INTRA.VDW.0>
-4.69801

>  <SCORE.INTRA.norm>
-0.262629

>  <SCORE.RESTR>
0

>  <SCORE.RESTR.CAVITY>
0

>  <SCORE.RESTR.norm>
0

>  <SCORE.SYSTEM>
0

>  <SCORE.SYSTEM.CONST>
0

>  <SCORE.SYSTEM.DIHEDRAL>
0

>  <SCORE.SYSTEM.SOLV>
0

>  <SCORE.SYSTEM.norm>
0

>  <SCORE.heavy>
32

>  <SCORE.norm>
-0.264393

>  <RMSD>
4.798

$$$$
ligand
 OpenBabel11021811513D
libRbt.so/2013.1/901 2013/11/27
 32 34  0  0  0  0  0  0  0  0999 V2000
   15.6562  -29.2211  -18.0492 P   0  0  1  0  0  0  0  0  0  0  0  0
   17.4645  -31.3745  -17.4801 P   0  0  2  0  0  0  0  0  0  0  0  0
   19.2405  -29.6316  -15.9235 P   0  0  1  0  0  0  0  0  0  0  0  0
   16.8565  -27.1140  -19.0036 C   0  0  0  0  0  0  0  0  0  0  0  0
   17.0079  -28.3167  -18.3046 O   0  0  0  0  0  0  0  0  0  0  0  0
   16.2249  -26.1800  -18.1899 C   0  0  1  0  0  0  0  0  0  0  0  0
   17.0750  -25.9038  -16.9648 O   0  0  0  0  0  0  0  0  0  0  0  0
   16.0615  -24.7759  -18.9341 C   0  0  1  0  0  0  0  0  0  0  0  0
   14.5922  -24.4822  -19.1366 O   0  0  0  0  0  0  0  0  0  0  0  0
   16.5015  -23.9249  -18.1573 C   0  0  1  0  0  0  0  0  0  0  0  0
   15.3781  -23.3223  -17.4006 O   0  0  0  0  0  0  0  0  0  0  0  0
   17.5274  -24.7227  -17.1156 C   0  0  2  0  0  0  0  0  0  0  0  0
   21.1912  -22.3018  -19.7804 N   0  0  0  0  0  0  0  0  0  0  0  0
   14.6486  -28.4232  -17.2591 O   0  5  0  0  0  0  0  0  0  0  0  0
   17.4410  -31.9567  -18.8711 O   0  5  0  0  0  0  0  0  0  0  0  0
   20.2177  -28.5366  -16.2819 O   0  0  0  0  0  0  0  0  0  0  0  0
   19.9680  -21.8791  -19.5014 C   0  0  0  0  0  0  0  0  0  0  0  0
   19.5396  -20.5785  -19.9752 N   0  0  0  0  0  0  0  0  0  0  0  0
   15.0885  -29.6347  -19.3882 O   0  0  0  0  0  0  0  0  0  0  0  0
   17.5850  -32.4855  -16.4702 O   0  0  0  0  0  0  0  0  0  0  0  0
   18.0515  -29.0217  -15.2135 O   0  5  0  0  0  0  0  0  0  0  0  0
   19.1199  -22.6054  -18.8023 N   0  0  0  0  0  0  0  0  0  0  0  0
   16.0746  -30.5530  -17.1834 O   0  0  0  0  0  0  0  0  0  0  0  0
   18.7433  -30.3515  -17.3248 O   0  0  0  0  0  0  0  0  0  0  0  0
   19.9315  -30.6347  -15.0258 O   0  0  0  0  0  0  0  0  0  0  0  0
   19.4760  -23.8124  -18.3462 C   0  0  0  0  0  0  0  0  0  0  0  0
   20.7457  -24.2772  -18.6235 C   0  0  0  0  0  0  0  0  0  0  0  0
   21.6357  -23.4831  -19.3721 C   0  0  0  0  0  0  0  0  0  0  0  0
   22.9353  -23.9294  -19.6699 O   0  0  0  0  0  0  0  0  0  0  0  0
   20.8622  -25.4947  -18.0663 N   0  0  0  0  0  0  0  0  0  0  0  0
   19.7150  -25.7711  -17.4710 C   0  0  0  0  0  0  0  0  0  0  0  0
   18.8677  -24.7717  -17.6309 N   0  0  0  0  0  0  0  0  0  0  0  0
  1  5  1  6  0  0  0
  1 14  1  0  0  0  0
  1 19  2  0  0  0  0
  1 23  1  0  0  0  0
  2 15  1  6  0  0  0
  2 20  2  0  0  0  0
  2 23  1  0  0  0  0
  2 24  1  0  0  0  0
  3 16  1  6  0  0  0
  3 21  1  0  0  0  0
  3 24  1  0  0  0  0
  3 25  2  0  0  0  0
  4  5  1  0  0  0  0
  6  4  1  6  0  0  0
  6  7  1  0  0  0  0
  6  8  1  0  0  0  0
  7 12  1  0  0  0  0
  8  9  1  1  0  0  0
  8 10  1  0  0  0  0
 10 11  1  1  0  0  0
 10 12  1  0  0  0  0
 12 32  1  6  0  0  0
 13 17  2  0  0  0  0
 13 28  1  0  0  0  0
 17 18  1  0  0  0  0
 17 22  1  0  0  0  0
 22 26  2  0  0  0  0
 26 27  1  0  0  0  0
 26 32  1  0  0  0  0
 27 28  2  0  0  0  0
 27 30  1  0  0  0  0
 28 29  1  0  0  0  0
 30 31  2  0  0  0  0
 31 32  1  0  0  0  0
M  CHG  3  14  -1  15  -1  21  -1
M  END
>  <CHROM.1>
-59.68062318,-63.21010621,-166.60108431,61.60626686,72.70050217,154.48649439
-40.21873958,-172.75800422,18.03180460,-27.06200334,-17.84343668,1.85032514
0.12113237,2.86958877

>  <Name>
ligand

>  <RI>
0

>  <Rbt.Current_Directory>
/home/itssahil/PROJECTS/Mol_Feturizer/New_Systems/rnas/4Y1I

>  <Rbt.Executable>
rbdock ($Id: //depot/dev/client3/rdock/2013.1/src/exe/rbdock.cxx#4 $)

>  <Rbt.Library>
libRbt.so (2013.1, Build901 2013/11/27)

>  <Rbt.Parameter_File>
/export/apps/rDock/src/rDock_2013.1_src/data/scripts/dock_solv.prm

>  <Rbt.Receptor>
prm/pocket_docking_4.prm

>  <SCORE>
-4.89607

>  <SCORE.INTER>
0.657345

>  <SCORE.INTER.CONST>
1

>  <SCORE.INTER.POLAR>
0

>  <SCORE.INTER.ROT>
8

>  <SCORE.INTER.SOLV>
7.27648

>  <SCORE.INTER.VDW>
-10.9206

>  <SCORE.INTER.norm>
0.020542

>  <SCORE.INTRA>
-5.55342

>  <SCORE.INTRA.DIHEDRAL>
-8.02159

>  <SCORE.INTRA.DIHEDRAL.0>
10.9594

>  <SCORE.INTRA.POLAR>
0

>  <SCORE.INTRA.POLAR.0>
0

>  <SCORE.INTRA.REPUL>
0

>  <SCORE.INTRA.REPUL.0>
0

>  <SCORE.INTRA.SOLV>
-0.420544

>  <SCORE.INTRA.SOLV.lig_0>
-124.914

>  <SCORE.INTRA.VDW>
-1.33235

>  <SCORE.INTRA.VDW.0>
-4.69801

>  <SCORE.INTRA.norm>
-0.173544

>  <SCORE.RESTR>
0

>  <SCORE.RESTR.CAVITY>
0

>  <SCORE.RESTR.norm>
0

>  <SCORE.SYSTEM>
0

>  <SCORE.SYSTEM.CONST>
0

>  <SCORE.SYSTEM.DIHEDRAL>
0

>  <SCORE.SYSTEM.SOLV>
0

>  <SCORE.SYSTEM.norm>
0

>  <SCORE.heavy>
32

>  <SCORE.norm>
-0.153002

>  <RMSD>
4.809

$$$$
ligand
 OpenBabel11021811513D
libRbt.so/2013.1/901 2013/11/27
 32 34  0  0  0  0  0  0  0  0999 V2000
   17.0609  -26.3272  -21.0814 P   0  0  1  0  0  0  0  0  0  0  0  0
   15.1380  -28.0029  -19.7677 P   0  0  2  0  0  0  0  0  0  0  0  0
   14.6891  -27.7801  -16.8756 P   0  0  1  0  0  0  0  0  0  0  0  0
   16.8324  -23.7340  -20.9620 C   0  0  0  0  0  0  0  0  0  0  0  0
   17.7043  -24.8253  -20.8801 O   0  0  0  0  0  0  0  0  0  0  0  0
   15.9659  -23.7489  -19.8747 C   0  0  1  0  0  0  0  0  0  0  0  0
   16.7539  -23.6262  -18.5848 O   0  0  0  0  0  0  0  0  0  0  0  0
   14.9755  -22.4956  -19.9027 C   0  0  1  0  0  0  0  0  0  0  0  0
   13.5554  -22.9811  -20.0868 O   0  0  0  0  0  0  0  0  0  0  0  0
   15.0447  -21.9813  -18.7838 C   0  0  1  0  0  0  0  0  0  0  0  0
   13.9255  -22.4747  -17.9460 O   0  0  0  0  0  0  0  0  0  0  0  0
   16.4998  -22.4629  -18.1324 C   0  0  2  0  0  0  0  0  0  0  0  0
   21.3384  -21.9501  -19.7786 N   0  0  0  0  0  0  0  0  0  0  0  0
   16.3114  -26.3916  -22.3891 O   0  5  0  0  0  0  0  0  0  0  0  0
   16.0596  -29.1943  -19.6931 O   0  5  0  0  0  0  0  0  0  0  0  0
   13.4780  -27.8378  -15.9744 O   0  0  0  0  0  0  0  0  0  0  0  0
   20.6635  -23.0675  -19.5581 C   0  0  0  0  0  0  0  0  0  0  0  0
   21.3076  -24.3447  -19.7892 N   0  0  0  0  0  0  0  0  0  0  0  0
   18.1802  -27.3433  -21.0489 O   0  0  0  0  0  0  0  0  0  0  0  0
   14.2822  -28.1037  -21.0030 O   0  0  0  0  0  0  0  0  0  0  0  0
   15.6287  -28.9103  -16.5159 O   0  5  0  0  0  0  0  0  0  0  0  0
   19.4167  -23.0587  -19.1327 N   0  0  0  0  0  0  0  0  0  0  0  0
   16.0090  -26.6140  -19.8526 O   0  0  0  0  0  0  0  0  0  0  0  0
   14.1743  -27.9586  -18.4353 O   0  0  0  0  0  0  0  0  0  0  0  0
   15.3773  -26.4452  -16.6918 O   0  0  0  0  0  0  0  0  0  0  0  0
   18.7854  -21.9003  -18.9067 C   0  0  0  0  0  0  0  0  0  0  0  0
   19.4665  -20.7204  -19.1283 C   0  0  0  0  0  0  0  0  0  0  0  0
   20.7985  -20.7541  -19.5839 C   0  0  0  0  0  0  0  0  0  0  0  0
   21.5177  -19.5690  -19.8190 O   0  0  0  0  0  0  0  0  0  0  0  0
   18.6315  -19.7091  -18.8344 N   0  0  0  0  0  0  0  0  0  0  0  0
   17.4846  -20.2399  -18.4476 C   0  0  0  0  0  0  0  0  0  0  0  0
   17.5590  -21.5573  -18.4821 N   0  0  0  0  0  0  0  0  0  0  0  0
  1  5  1  1  0  0  0
  1 14  1  0  0  0  0
  1 19  2  0  0  0  0
  1 23  1  0  0  0  0
  2 15  1  1  0  0  0
  2 20  2  0  0  0  0
  2 23  1  0  0  0  0
  2 24  1  0  0  0  0
  3 16  1  1  0  0  0
  3 21  1  0  0  0  0
  3 24  1  0  0  0  0
  3 25  2  0  0  0  0
  4  5  1  0  0  0  0
  6  4  1  6  0  0  0
  6  7  1  0  0  0  0
  6  8  1  0  0  0  0
  7 12  1  0  0  0  0
  8  9  1  1  0  0  0
  8 10  1  0  0  0  0
 10 11  1  1  0  0  0
 10 12  1  0  0  0  0
 12 32  1  6  0  0  0
 13 17  2  0  0  0  0
 13 28  1  0  0  0  0
 17 18  1  0  0  0  0
 17 22  1  0  0  0  0
 22 26  2  0  0  0  0
 26 27  1  0  0  0  0
 26 32  1  0  0  0  0
 27 28  2  0  0  0  0
 27 30  1  0  0  0  0
 28 29  1  0  0  0  0
 30 31  2  0  0  0  0
 31 32  1  0  0  0  0
M  CHG  3  14  -1  15  -1  21  -1
M  END
>  <CHROM.1>
54.62844268,60.00193860,-178.23661768,61.39393609,68.12052122,-16.01316213
177.64359680,62.67908977,16.78555965,-24.71977111,-19.24843666,-2.27253620
0.51519019,0.27769449

>  <Name>
ligand

>  <RI>
0

>  <Rbt.Current_Directory>
/home/itssahil/PROJECTS/Mol_Feturizer/New_Systems/rnas/4Y1I

>  <Rbt.Executable>
rbdock ($Id: //depot/dev/client3/rdock/2013.1/src/exe/rbdock.cxx#4 $)

>  <Rbt.Library>
libRbt.so (2013.1, Build901 2013/11/27)

>  <Rbt.Parameter_File>
/export/apps/rDock/src/rDock_2013.1_src/data/scripts/dock_solv.prm

>  <Rbt.Receptor>
prm/pocket_docking_4.prm

>  <SCORE>
-5.22091

>  <SCORE.INTER>
0.460935

>  <SCORE.INTER.CONST>
1

>  <SCORE.INTER.POLAR>
0

>  <SCORE.INTER.ROT>
8

>  <SCORE.INTER.SOLV>
2.96396

>  <SCORE.INTER.VDW>
-9.61403

>  <SCORE.INTER.norm>
0.0144042

>  <SCORE.INTRA>
-5.68185

>  <SCORE.INTRA.DIHEDRAL>
-9.33569

>  <SCORE.INTRA.DIHEDRAL.0>
10.9594

>  <SCORE.INTRA.POLAR>
0

>  <SCORE.INTRA.POLAR.0>
0

>  <SCORE.INTRA.REPUL>
0

>  <SCORE.INTRA.REPUL.0>
0

>  <SCORE.INTRA.SOLV>
-0.590539

>  <SCORE.INTRA.SOLV.lig_0>
-124.914

>  <SCORE.INTRA.VDW>
-0.71873

>  <SCORE.INTRA.VDW.0>
-4.69801

>  <SCORE.INTRA.norm>
-0.177558

>  <SCORE.RESTR>
0

>  <SCORE.RESTR.CAVITY>
0

>  <SCORE.RESTR.norm>
0

>  <SCORE.SYSTEM>
0

>  <SCORE.SYSTEM.CONST>
0

>  <SCORE.SYSTEM.DIHEDRAL>
0

>  <SCORE.SYSTEM.SOLV>
0

>  <SCORE.SYSTEM.norm>
0

>  <SCORE.heavy>
32

>  <SCORE.norm>
-0.163153

>  <RMSD>
4.838

$$$$
ligand
 OpenBabel11021811513D
libRbt.so/2013.1/901 2013/11/27
 32 34  0  0  0  0  0  0  0  0999 V2000
   14.4089  -26.8884  -20.0141 P   0  0  1  0  0  0  0  0  0  0  0  0
   15.4546  -29.0624  -18.4612 P   0  0  2  0  0  0  0  0  0  0  0  0
   18.1664  -28.8354  -17.3614 P   0  0  1  0  0  0  0  0  0  0  0  0
   15.9465  -24.8412  -20.5005 C   0  0  0  0  0  0  0  0  0  0  0  0
   14.9963  -25.7264  -21.0216 O   0  0  0  0  0  0  0  0  0  0  0  0
   15.3405  -24.0036  -19.5707 C   0  0  1  0  0  0  0  0  0  0  0  0
   15.6070  -24.5118  -18.1670 O   0  0  0  0  0  0  0  0  0  0  0  0
   15.9561  -22.5305  -19.6266 C   0  0  1  0  0  0  0  0  0  0  0  0
   14.8916  -21.5576  -20.0810 O   0  0  0  0  0  0  0  0  0  0  0  0
   16.2473  -22.2383  -18.4642 C   0  0  1  0  0  0  0  0  0  0  0  0
   15.1493  -21.4401  -17.8682 O   0  0  0  0  0  0  0  0  0  0  0  0
   16.4156  -23.6780  -17.6439 C   0  0  2  0  0  0  0  0  0  0  0  0
   21.1483  -22.9699  -19.5108 N   0  0  0  0  0  0  0  0  0  0  0  0
   13.6397  -26.2463  -18.8862 O   0  5  0  0  0  0  0  0  0  0  0  0
   14.6623  -30.0961  -19.2214 O   0  5  0  0  0  0  0  0  0  0  0  0
   19.2033  -29.8288  -16.8920 O   0  0  0  0  0  0  0  0  0  0  0  0
   20.0792  -22.2080  -19.6815 C   0  0  0  0  0  0  0  0  0  0  0  0
   20.1831  -21.0064  -20.4845 N   0  0  0  0  0  0  0  0  0  0  0  0
   13.5237  -27.8198  -20.8110 O   0  0  0  0  0  0  0  0  0  0  0  0
   14.7028  -28.6643  -17.2182 O   0  0  0  0  0  0  0  0  0  0  0  0
   18.7877  -27.9221  -18.3955 O   0  5  0  0  0  0  0  0  0  0  0  0
   18.9148  -22.5065  -19.1424 N   0  0  0  0  0  0  0  0  0  0  0  0
   15.6759  -27.7230  -19.3843 O   0  0  0  0  0  0  0  0  0  0  0  0
   16.9201  -29.6803  -18.0412 O   0  0  0  0  0  0  0  0  0  0  0  0
   17.6802  -28.0324  -16.1746 O   0  0  0  0  0  0  0  0  0  0  0  0
   18.7762  -23.6075  -18.3940 C   0  0  0  0  0  0  0  0  0  0  0  0
   19.8753  -24.4197  -18.2005 C   0  0  0  0  0  0  0  0  0  0  0  0
   21.1102  -24.0803  -18.7859 C   0  0  0  0  0  0  0  0  0  0  0  0
   22.2474  -24.8876  -18.6063 O   0  0  0  0  0  0  0  0  0  0  0  0
   19.4886  -25.4470  -17.4251 N   0  0  0  0  0  0  0  0  0  0  0  0
   18.2066  -25.2782  -17.1514 C   0  0  0  0  0  0  0  0  0  0  0  0
   17.7600  -24.1780  -17.7279 N   0  0  0  0  0  0  0  0  0  0  0  0
  1  5  1  6  0  0  0
  1 14  1  0  0  0  0
  1 19  2  0  0  0  0
  1 23  1  0  0  0  0
  2 15  1  6  0  0  0
  2 20  2  0  0  0  0
  2 23  1  0  0  0  0
  2 24  1  0  0  0  0
  3 16  1  1  0  0  0
  3 21  1  0  0  0  0
  3 24  1  0  0  0  0
  3 25  2  0  0  0  0
  4  5  1  0  0  0  0
  6  4  1  6  0  0  0
  6  7  1  0  0  0  0
  6  8  1  0  0  0  0
  7 12  1  0  0  0  0
  8  9  1  1  0  0  0
  8 10  1  0  0  0  0
 10 11  1  1  0  0  0
 10 12  1  0  0  0  0
 12 32  1  6  0  0  0
 13 17  2  0  0  0  0
 13 28  1  0  0  0  0
 17 18  1  0  0  0  0
 17 22  1  0  0  0  0
 22 26  2  0  0  0  0
 26 27  1  0  0  0  0
 26 32  1  0  0  0  0
 27 28  2  0  0  0  0
 27 30  1  0  0  0  0
 28 29  1  0  0  0  0
 30 31  2  0  0  0  0
 31 32  1  0  0  0  0
M  CHG  3  14  -1  15  -1  21  -1
M  END
>  <CHROM.1>
64.63402164,57.15871095,168.91285287,98.97914008,-69.45870515,117.74403629
-173.29583122,172.21246675,17.01431812,-25.77818206,-18.70544785,2.05601670
0.24959689,2.91903909

>  <Name>
ligand

>  <RI>
0

>  <Rbt.Current_Directory>
/home/itssahil/PROJECTS/Mol_Feturizer/New_Systems/rnas/4Y1I

>  <Rbt.Executable>
rbdock ($Id: //depot/dev/client3/rdock/2013.1/src/exe/rbdock.cxx#4 $)

>  <Rbt.Library>
libRbt.so (2013.1, Build901 2013/11/27)

>  <Rbt.Parameter_File>
/export/apps/rDock/src/rDock_2013.1_src/data/scripts/dock_solv.prm

>  <Rbt.Receptor>
prm/pocket_docking_3.prm

>  <SCORE>
-1.52537

>  <SCORE.INTER>
1.17464

>  <SCORE.INTER.CONST>
1

>  <SCORE.INTER.POLAR>
0

>  <SCORE.INTER.ROT>
8

>  <SCORE.INTER.SOLV>
5.65323

>  <SCORE.INTER.VDW>
-10.0347

>  <SCORE.INTER.norm>
0.0367074

>  <SCORE.INTRA>
-2.70001

>  <SCORE.INTRA.DIHEDRAL>
-5.044

>  <SCORE.INTRA.DIHEDRAL.0>
10.9594

>  <SCORE.INTRA.POLAR>
0

>  <SCORE.INTRA.POLAR.0>
0

>  <SCORE.INTRA.REPUL>
0

>  <SCORE.INTRA.REPUL.0>
0

>  <SCORE.INTRA.SOLV>
1.64716

>  <SCORE.INTRA.SOLV.lig_0>
-124.914

>  <SCORE.INTRA.VDW>
-1.00159

>  <SCORE.INTRA.VDW.0>
-4.69801

>  <SCORE.INTRA.norm>
-0.0843754

>  <SCORE.RESTR>
0

>  <SCORE.RESTR.CAVITY>
0

>  <SCORE.RESTR.norm>
0

>  <SCORE.SYSTEM>
0

>  <SCORE.SYSTEM.CONST>
0

>  <SCORE.SYSTEM.DIHEDRAL>
0

>  <SCORE.SYSTEM.SOLV>
0

>  <SCORE.SYSTEM.norm>
0

>  <SCORE.heavy>
32

>  <SCORE.norm>
-0.047668

>  <RMSD>
4.893

$$$$
ligand
 OpenBabel11021811513D
libRbt.so/2013.1/901 2013/11/27
 32 34  0  0  0  0  0  0  0  0999 V2000
   18.3399  -29.4653  -19.1697 P   0  0  1  0  0  0  0  0  0  0  0  0
   17.8273  -31.4069  -17.1207 P   0  0  2  0  0  0  0  0  0  0  0  0
   18.0368  -33.4673  -15.0407 P   0  0  1  0  0  0  0  0  0  0  0  0
   17.0821  -27.1852  -19.0657 C   0  0  0  0  0  0  0  0  0  0  0  0
   17.4836  -28.3206  -18.3532 O   0  0  0  0  0  0  0  0  0  0  0  0
   16.4238  -26.3086  -18.2104 C   0  0  1  0  0  0  0  0  0  0  0  0
   17.2830  -26.0338  -16.9913 O   0  0  0  0  0  0  0  0  0  0  0  0
   16.1828  -24.8899  -18.9041 C   0  0  1  0  0  0  0  0  0  0  0  0
   14.6982  -24.6578  -19.0716 O   0  0  0  0  0  0  0  0  0  0  0  0
   16.5979  -24.0454  -18.1066 C   0  0  1  0  0  0  0  0  0  0  0  0
   15.4623  -23.5206  -17.3111 O   0  0  0  0  0  0  0  0  0  0  0  0
   17.6782  -24.8287  -17.1100 C   0  0  2  0  0  0  0  0  0  0  0  0
   21.1302  -22.2162  -19.8747 N   0  0  0  0  0  0  0  0  0  0  0  0
   17.4520  -30.1406  -20.1854 O   0  5  0  0  0  0  0  0  0  0  0  0
   16.8192  -32.1628  -17.9492 O   0  5  0  0  0  0  0  0  0  0  0  0
   17.0182  -34.3525  -15.7200 O   0  0  0  0  0  0  0  0  0  0  0  0
   19.8874  -21.8691  -19.5787 C   0  0  0  0  0  0  0  0  0  0  0  0
   19.3675  -20.6059  -20.0621 N   0  0  0  0  0  0  0  0  0  0  0  0
   19.5213  -28.8014  -19.8404 O   0  0  0  0  0  0  0  0  0  0  0  0
   17.1146  -30.4109  -16.2439 O   0  0  0  0  0  0  0  0  0  0  0  0
   19.1314  -34.3316  -14.4538 O   0  5  0  0  0  0  0  0  0  0  0  0
   19.1004  -22.6382  -18.8543 N   0  0  0  0  0  0  0  0  0  0  0  0
   18.8663  -30.5900  -18.0943 O   0  0  0  0  0  0  0  0  0  0  0  0
   18.6761  -32.4563  -16.1803 O   0  0  0  0  0  0  0  0  0  0  0  0
   17.3512  -32.6739  -13.9499 O   0  0  0  0  0  0  0  0  0  0  0  0
   19.5418  -23.8130  -18.3887 C   0  0  0  0  0  0  0  0  0  0  0  0
   20.8338  -24.1991  -18.6831 C   0  0  0  0  0  0  0  0  0  0  0  0
   21.6573  -23.3604  -19.4587 C   0  0  0  0  0  0  0  0  0  0  0  0
   22.9776  -23.7263  -19.7745 O   0  0  0  0  0  0  0  0  0  0  0  0
   21.0386  -25.3982  -18.1118 N   0  0  0  0  0  0  0  0  0  0  0  0
   19.9224  -25.7391  -17.4917 C   0  0  0  0  0  0  0  0  0  0  0  0
   19.0096  -24.7989  -17.6493 N   0  0  0  0  0  0  0  0  0  0  0  0
  1  5  1  1  0  0  0
  1 14  1  0  0  0  0
  1 19  2  0  0  0  0
  1 23  1  0  0  0  0
  2 15  1  6  0  0  0
  2 20  2  0  0  0  0
  2 23  1  0  0  0  0
  2 24  1  0  0  0  0
  3 16  1  6  0  0  0
  3 21  1  0  0  0  0
  3 24  1  0  0  0  0
  3 25  2  0  0  0  0
  4  5  1  0  0  0  0
  6  4  1  6  0  0  0
  6  7  1  0  0  0  0
  6  8  1  0  0  0  0
  7 12  1  0  0  0  0
  8  9  1  1  0  0  0
  8 10  1  0  0  0  0
 10 11  1  1  0  0  0
 10 12  1  0  0  0  0
 12 32  1  6  0  0  0
 13 17  2  0  0  0  0
 13 28  1  0  0  0  0
 17 18  1  0  0  0  0
 17 22  1  0  0  0  0
 22 26  2  0  0  0  0
 26 27  1  0  0  0  0
 26 32  1  0  0  0  0
 27 28  2  0  0  0  0
 27 30  1  0  0  0  0
 28 29  1  0  0  0  0
 30 31  2  0  0  0  0
 31 32  1  0  0  0  0
M  CHG  3  14  -1  15  -1  21  -1
M  END
>  <CHROM.1>
-68.59296066,58.80651607,57.70091980,52.56724610,-177.57458221,151.56991967
56.52627720,-59.69688809,18.33103128,-27.77194385,-17.83922692,-1.71656273
0.14220045,-0.28031023

>  <Name>
ligand

>  <RI>
0

>  <Rbt.Current_Directory>
/home/itssahil/PROJECTS/Mol_Feturizer/New_Systems/rnas/4Y1I

>  <Rbt.Executable>
rbdock ($Id: //depot/dev/client3/rdock/2013.1/src/exe/rbdock.cxx#4 $)

>  <Rbt.Library>
libRbt.so (2013.1, Build901 2013/11/27)

>  <Rbt.Parameter_File>
/export/apps/rDock/src/rDock_2013.1_src/data/scripts/dock_solv.prm

>  <Rbt.Receptor>
prm/pocket_docking_7.prm

>  <SCORE>
-4.67083

>  <SCORE.INTER>
1.93414

>  <SCORE.INTER.CONST>
1

>  <SCORE.INTER.POLAR>
0

>  <SCORE.INTER.ROT>
8

>  <SCORE.INTER.SOLV>
4.18626

>  <SCORE.INTER.VDW>
-9.03933

>  <SCORE.INTER.norm>
0.0604419

>  <SCORE.INTRA>
-6.60497

>  <SCORE.INTRA.DIHEDRAL>
-9.40185

>  <SCORE.INTRA.DIHEDRAL.0>
10.9594

>  <SCORE.INTRA.POLAR>
0

>  <SCORE.INTRA.POLAR.0>
0

>  <SCORE.INTRA.REPUL>
0

>  <SCORE.INTRA.REPUL.0>
0

>  <SCORE.INTRA.SOLV>
-3.80091

>  <SCORE.INTRA.SOLV.lig_0>
-124.914

>  <SCORE.INTRA.VDW>
-0.00358812

>  <SCORE.INTRA.VDW.0>
-4.69801

>  <SCORE.INTRA.norm>
-0.206405

>  <SCORE.RESTR>
0

>  <SCORE.RESTR.CAVITY>
0

>  <SCORE.RESTR.norm>
0

>  <SCORE.SYSTEM>
0

>  <SCORE.SYSTEM.CONST>
0

>  <SCORE.SYSTEM.DIHEDRAL>
0

>  <SCORE.SYSTEM.SOLV>
0

>  <SCORE.SYSTEM.norm>
0

>  <SCORE.heavy>
32

>  <SCORE.norm>
-0.145963

>  <RMSD>
4.901

$$$$
ligand
 OpenBabel11021811513D
libRbt.so/2013.1/901 2013/11/27
 32 34  0  0  0  0  0  0  0  0999 V2000
   15.8228  -25.8942  -17.7762 P   0  0  1  0  0  0  0  0  0  0  0  0
   14.9070  -28.5924  -18.1114 P   0  0  2  0  0  0  0  0  0  0  0  0
   15.6913  -30.5098  -16.0320 P   0  0  1  0  0  0  0  0  0  0  0  0
   16.1238  -23.3057  -17.7992 C   0  0  0  0  0  0  0  0  0  0  0  0
   15.2691  -24.3754  -18.0874 O   0  0  0  0  0  0  0  0  0  0  0  0
   15.5152  -22.1118  -18.1696 C   0  0  1  0  0  0  0  0  0  0  0  0
   16.3940  -20.9403  -17.7755 O   0  0  0  0  0  0  0  0  0  0  0  0
   15.3417  -22.0144  -19.7547 C   0  0  1  0  0  0  0  0  0  0  0  0
   13.8696  -22.0028  -20.0995 O   0  0  0  0  0  0  0  0  0  0  0  0
   15.8031  -20.9182  -20.0815 C   0  0  1  0  0  0  0  0  0  0  0  0
   14.6998  -19.9344  -20.1946 O   0  0  0  0  0  0  0  0  0  0  0  0
   16.8484  -20.4652  -18.8666 C   0  0  2  0  0  0  0  0  0  0  0  0
   21.8622  -19.3681  -19.0748 N   0  0  0  0  0  0  0  0  0  0  0  0
   17.0604  -26.1654  -18.5954 O   0  5  0  0  0  0  0  0  0  0  0  0
   16.0164  -29.0040  -19.0464 O   0  5  0  0  0  0  0  0  0  0  0  0
   14.5871  -31.4520  -16.4507 O   0  0  0  0  0  0  0  0  0  0  0  0
   20.8570  -18.5519  -18.7989 C   0  0  0  0  0  0  0  0  0  0  0  0
   21.1310  -17.1589  -18.5089 N   0  0  0  0  0  0  0  0  0  0  0  0
   16.1168  -26.0104  -16.2976 O   0  0  0  0  0  0  0  0  0  0  0  0
   13.6317  -29.2916  -18.5030 O   0  0  0  0  0  0  0  0  0  0  0  0
   16.9905  -30.9556  -16.6668 O   0  5  0  0  0  0  0  0  0  0  0  0
   19.6063  -18.9652  -18.7786 N   0  0  0  0  0  0  0  0  0  0  0  0
   14.6585  -26.9723  -18.2015 O   0  0  0  0  0  0  0  0  0  0  0  0
   15.3011  -28.9959  -16.5661 O   0  0  0  0  0  0  0  0  0  0  0  0
   15.8094  -30.5280  -14.5236 O   0  0  0  0  0  0  0  0  0  0  0  0
   19.3103  -20.2439  -19.0409 C   0  0  0  0  0  0  0  0  0  0  0  0
   20.3397  -21.1160  -19.3321 C   0  0  0  0  0  0  0  0  0  0  0  0
   21.6692  -20.6519  -19.3474 C   0  0  0  0  0  0  0  0  0  0  0  0
   22.7387  -21.5165  -19.6399 O   0  0  0  0  0  0  0  0  0  0  0  0
   19.7960  -22.3245  -19.5559 N   0  0  0  0  0  0  0  0  0  0  0  0
   18.4879  -22.2053  -19.4101 C   0  0  0  0  0  0  0  0  0  0  0  0
   18.1765  -20.9599  -19.1027 N   0  0  0  0  0  0  0  0  0  0  0  0
  1  5  1  6  0  0  0
  1 14  1  0  0  0  0
  1 19  2  0  0  0  0
  1 23  1  0  0  0  0
  2 15  1  6  0  0  0
  2 20  2  0  0  0  0
  2 23  1  0  0  0  0
  2 24  1  0  0  0  0
  3 16  1  6  0  0  0
  3 21  1  0  0  0  0
  3 24  1  0  0  0  0
  3 25  2  0  0  0  0
  4  5  1  0  0  0  0
  6  4  1  6  0  0  0
  6  7  1  0  0  0  0
  6  8  1  0  0  0  0
  7 12  1  0  0  0  0
  8  9  1  1  0  0  0
  8 10  1  0  0  0  0
 10 11  1  1  0  0  0
 10 12  1  0  0  0  0
 12 32  1  6  0  0  0
 13 17  2  0  0  0  0
 13 28  1  0  0  0  0
 17 18  1  0  0  0  0
 17 22  1  0  0  0  0
 22 26  2  0  0  0  0
 26 27  1  0  0  0  0
 26 32  1  0  0  0  0
 27 28  2  0  0  0  0
 27 30  1  0  0  0  0
 28 29  1  0  0  0  0
 30 31  2  0  0  0  0
 31 32  1  0  0  0  0
M  CHG  3  14  -1  15  -1  21  -1
M  END
>  <CHROM.1>
-60.74029699,-62.83829571,-53.06672708,176.19893820,177.77396686,-109.96258637
176.21564314,-56.42520077,16.91415955,-24.51900386,-18.22624784,1.96493900
0.13553665,2.85683579

>  <Name>
ligand

>  <RI>
0

>  <Rbt.Current_Directory>
/home/itssahil/PROJECTS/Mol_Feturizer/New_Systems/rnas/4Y1I

>  <Rbt.Executable>
rbdock ($Id: //depot/dev/client3/rdock/2013.1/src/exe/rbdock.cxx#4 $)

>  <Rbt.Library>
libRbt.so (2013.1, Build901 2013/11/27)

>  <Rbt.Parameter_File>
/export/apps/rDock/src/rDock_2013.1_src/data/scripts/dock_solv.prm

>  <Rbt.Receptor>
prm/pocket_docking_5.prm

>  <SCORE>
-7.83391

>  <SCORE.INTER>
-1.42577

>  <SCORE.INTER.CONST>
1

>  <SCORE.INTER.POLAR>
0

>  <SCORE.INTER.ROT>
8

>  <SCORE.INTER.SOLV>
8.17352

>  <SCORE.INTER.VDW>
-12.6084

>  <SCORE.INTER.norm>
-0.0445552

>  <SCORE.INTRA>
-6.40814

>  <SCORE.INTRA.DIHEDRAL>
-9.53841

>  <SCORE.INTRA.DIHEDRAL.0>
10.9594

>  <SCORE.INTRA.POLAR>
0

>  <SCORE.INTRA.POLAR.0>
0

>  <SCORE.INTRA.REPUL>
0

>  <SCORE.INTRA.REPUL.0>
0

>  <SCORE.INTRA.SOLV>
-4.11482

>  <SCORE.INTRA.SOLV.lig_0>
-124.914

>  <SCORE.INTRA.VDW>
0.418476

>  <SCORE.INTRA.VDW.0>
-4.69801

>  <SCORE.INTRA.norm>
-0.200254

>  <SCORE.RESTR>
0

>  <SCORE.RESTR.CAVITY>
0

>  <SCORE.RESTR.norm>
0

>  <SCORE.SYSTEM>
0

>  <SCORE.SYSTEM.CONST>
0

>  <SCORE.SYSTEM.DIHEDRAL>
0

>  <SCORE.SYSTEM.SOLV>
0

>  <SCORE.SYSTEM.norm>
0

>  <SCORE.heavy>
32

>  <SCORE.norm>
-0.24481

>  <RMSD>
4.902

$$$$
ligand
 OpenBabel11021811513D
libRbt.so/2013.1/901 2013/11/27
 32 34  0  0  0  0  0  0  0  0999 V2000
   19.7340  -25.1423  -18.1751 P   0  0  1  0  0  0  0  0  0  0  0  0
   18.7849  -27.8272  -18.5236 P   0  0  2  0  0  0  0  0  0  0  0  0
   17.6201  -29.0815  -16.1393 P   0  0  1  0  0  0  0  0  0  0  0  0
   18.6825  -23.2573  -19.6354 C   0  0  0  0  0  0  0  0  0  0  0  0
   19.8583  -23.7705  -19.0768 O   0  0  0  0  0  0  0  0  0  0  0  0
   18.9457  -22.0232  -20.2195 C   0  0  1  0  0  0  0  0  0  0  0  0
   17.6787  -21.4635  -20.8371 O   0  0  0  0  0  0  0  0  0  0  0  0
   19.4113  -20.9514  -19.1302 C   0  0  1  0  0  0  0  0  0  0  0  0
   20.8418  -20.5453  -19.4039 O   0  0  0  0  0  0  0  0  0  0  0  0
   18.7069  -19.9549  -19.3094 C   0  0  1  0  0  0  0  0  0  0  0  0
   19.4394  -18.9805  -20.1530 O   0  0  0  0  0  0  0  0  0  0  0  0
   17.3394  -20.4803  -20.1018 C   0  0  2  0  0  0  0  0  0  0  0  0
   12.3416  -20.3996  -18.9186 N   0  0  0  0  0  0  0  0  0  0  0  0
   21.1097  -25.6299  -17.7934 O   0  5  0  0  0  0  0  0  0  0  0  0
   20.1136  -28.5337  -18.4247 O   0  5  0  0  0  0  0  0  0  0  0  0
   16.6628  -29.9115  -16.9621 O   0  0  0  0  0  0  0  0  0  0  0  0
   12.9448  -19.8470  -19.9595 C   0  0  0  0  0  0  0  0  0  0  0  0
   12.1585  -19.1110  -20.9289 N   0  0  0  0  0  0  0  0  0  0  0  0
   18.9063  -24.8420  -16.9459 O   0  0  0  0  0  0  0  0  0  0  0  0
   17.8917  -28.5649  -19.4863 O   0  0  0  0  0  0  0  0  0  0  0  0
   18.8385  -29.9148  -15.8065 O   0  5  0  0  0  0  0  0  0  0  0  0
   14.2453  -19.9438  -20.1463 N   0  0  0  0  0  0  0  0  0  0  0  0
   18.9941  -26.2969  -19.0796 O   0  0  0  0  0  0  0  0  0  0  0  0
   18.0697  -27.7738  -17.0432 O   0  0  0  0  0  0  0  0  0  0  0  0
   16.9238  -28.6380  -14.8712 O   0  0  0  0  0  0  0  0  0  0  0  0
   15.0076  -20.6146  -19.2743 C   0  0  0  0  0  0  0  0  0  0  0  0
   14.4039  -21.2000  -18.1799 C   0  0  0  0  0  0  0  0  0  0  0  0
   13.0119  -21.0842  -18.0010 C   0  0  0  0  0  0  0  0  0  0  0  0
   12.3685  -21.6700  -16.8966 O   0  0  0  0  0  0  0  0  0  0  0  0
   15.3652  -21.8067  -17.4629 N   0  0  0  0  0  0  0  0  0  0  0  0
   16.5132  -21.6050  -18.0861 C   0  0  0  0  0  0  0  0  0  0  0  0
   16.3183  -20.8875  -19.1767 N   0  0  0  0  0  0  0  0  0  0  0  0
  1  5  1  6  0  0  0
  1 14  1  0  0  0  0
  1 19  2  0  0  0  0
  1 23  1  0  0  0  0
  2 15  1  1  0  0  0
  2 20  2  0  0  0  0
  2 23  1  0  0  0  0
  2 24  1  0  0  0  0
  3 16  1  6  0  0  0
  3 21  1  0  0  0  0
  3 24  1  0  0  0  0
  3 25  2  0  0  0  0
  4  5  1  0  0  0  0
  6  4  1  1  0  0  0
  6  7  1  0  0  0  0
  6  8  1  0  0  0  0
  7 12  1  0  0  0  0
  8  9  1  6  0  0  0
  8 10  1  0  0  0  0
 10 11  1  6  0  0  0
 10 12  1  0  0  0  0
 12 32  1  1  0  0  0
 13 17  2  0  0  0  0
 13 28  1  0  0  0  0
 17 18  1  0  0  0  0
 17 22  1  0  0  0  0
 22 26  2  0  0  0  0
 26 27  1  0  0  0  0
 26 32  1  0  0  0  0
 27 28  2  0  0  0  0
 27 30  1  0  0  0  0
 28 29  1  0  0  0  0
 30 31  2  0  0  0  0
 31 32  1  0  0  0  0
M  CHG  3  14  -1  15  -1  21  -1
M  END
>  <CHROM.1>
173.50221031,-68.98112424,-57.58759690,179.57668152,172.81602963,-103.19725663
176.29403614,-61.37688091,17.42802678,-24.05368882,-18.43345319,-1.19400833
0.19698551,-0.34691265

>  <Name>
ligand

>  <RI>
0

>  <Rbt.Current_Directory>
/home/itssahil/PROJECTS/Mol_Feturizer/New_Systems/rnas/4Y1I

>  <Rbt.Executable>
rbdock ($Id: //depot/dev/client3/rdock/2013.1/src/exe/rbdock.cxx#4 $)

>  <Rbt.Library>
libRbt.so (2013.1, Build901 2013/11/27)

>  <Rbt.Parameter_File>
/export/apps/rDock/src/rDock_2013.1_src/data/scripts/dock_solv.prm

>  <Rbt.Receptor>
prm/pocket_docking_5.prm

>  <SCORE>
-9.14437

>  <SCORE.INTER>
-2.60078

>  <SCORE.INTER.CONST>
1

>  <SCORE.INTER.POLAR>
0

>  <SCORE.INTER.ROT>
8

>  <SCORE.INTER.SOLV>
15.7253

>  <SCORE.INTER.VDW>
-15.9089

>  <SCORE.INTER.norm>
-0.0812744

>  <SCORE.INTRA>
-6.54359

>  <SCORE.INTRA.DIHEDRAL>
-9.28194

>  <SCORE.INTRA.DIHEDRAL.0>
10.9594

>  <SCORE.INTRA.POLAR>
0

>  <SCORE.INTRA.POLAR.0>
0

>  <SCORE.INTRA.REPUL>
0

>  <SCORE.INTRA.REPUL.0>
0

>  <SCORE.INTRA.SOLV>
-4.40938

>  <SCORE.INTRA.SOLV.lig_0>
-124.914

>  <SCORE.INTRA.VDW>
0.302071

>  <SCORE.INTRA.VDW.0>
-4.69801

>  <SCORE.INTRA.norm>
-0.204487

>  <SCORE.RESTR>
0

>  <SCORE.RESTR.CAVITY>
0

>  <SCORE.RESTR.norm>
0

>  <SCORE.SYSTEM>
0

>  <SCORE.SYSTEM.CONST>
0

>  <SCORE.SYSTEM.DIHEDRAL>
0

>  <SCORE.SYSTEM.SOLV>
0

>  <SCORE.SYSTEM.norm>
0

>  <SCORE.heavy>
32

>  <SCORE.norm>
-0.285762

>  <RMSD>
4.951

$$$$
ligand
 OpenBabel11021811513D
libRbt.so/2013.1/901 2013/11/27
 32 34  0  0  0  0  0  0  0  0999 V2000
   19.5619  -25.1308  -18.4398 P   0  0  1  0  0  0  0  0  0  0  0  0
   17.1854  -25.3146  -16.8431 P   0  0  2  0  0  0  0  0  0  0  0  0
   16.0093  -27.8132  -15.8485 P   0  0  1  0  0  0  0  0  0  0  0  0
   19.3885  -22.5775  -18.9316 C   0  0  0  0  0  0  0  0  0  0  0  0
   19.3106  -23.8683  -19.4660 O   0  0  0  0  0  0  0  0  0  0  0  0
   19.3037  -21.6436  -19.9582 C   0  0  1  0  0  0  0  0  0  0  0  0
   17.9809  -21.7935  -20.6846 O   0  0  0  0  0  0  0  0  0  0  0  0
   19.3235  -20.1507  -19.3898 C   0  0  1  0  0  0  0  0  0  0  0  0
   20.5754  -19.4484  -19.8650 O   0  0  0  0  0  0  0  0  0  0  0  0
   18.3624  -19.5762  -19.9070 C   0  0  1  0  0  0  0  0  0  0  0  0
   18.8239  -18.8178  -21.0943 O   0  0  0  0  0  0  0  0  0  0  0  0
   17.2947  -20.7672  -20.3710 C   0  0  2  0  0  0  0  0  0  0  0  0
   12.4990  -20.3651  -18.5754 N   0  0  0  0  0  0  0  0  0  0  0  0
   19.0370  -26.4037  -19.0566 O   0  5  0  0  0  0  0  0  0  0  0  0
   16.3480  -24.8706  -18.0161 O   0  5  0  0  0  0  0  0  0  0  0  0
   16.0491  -27.3351  -14.4160 O   0  0  0  0  0  0  0  0  0  0  0  0
   12.9958  -19.8718  -19.6990 C   0  0  0  0  0  0  0  0  0  0  0  0
   12.1359  -19.1115  -20.5834 N   0  0  0  0  0  0  0  0  0  0  0  0
   21.0431  -25.2382  -18.1557 O   0  0  0  0  0  0  0  0  0  0  0  0
   16.6573  -24.6867  -15.5799 O   0  0  0  0  0  0  0  0  0  0  0  0
   14.6294  -27.5623  -16.4165 O   0  5  0  0  0  0  0  0  0  0  0  0
   14.2548  -20.0494  -20.0440 N   0  0  0  0  0  0  0  0  0  0  0  0
   18.7441  -24.8410  -17.0448 O   0  0  0  0  0  0  0  0  0  0  0  0
   17.1293  -26.9529  -16.7057 O   0  0  0  0  0  0  0  0  0  0  0  0
   16.3321  -29.2910  -15.8842 O   0  0  0  0  0  0  0  0  0  0  0  0
   15.0824  -20.7453  -19.2552 C   0  0  0  0  0  0  0  0  0  0  0  0
   14.5899  -21.2702  -18.0774 C   0  0  0  0  0  0  0  0  0  0  0  0
   13.2404  -21.0683  -17.7295 C   0  0  0  0  0  0  0  0  0  0  0  0
   12.7100  -21.5911  -16.5369 O   0  0  0  0  0  0  0  0  0  0  0  0
   15.5986  -21.9173  -17.4691 N   0  0  0  0  0  0  0  0  0  0  0  0
   16.6681  -21.7975  -18.2363 C   0  0  0  0  0  0  0  0  0  0  0  0
   16.3775  -21.0932  -19.3142 N   0  0  0  0  0  0  0  0  0  0  0  0
  1  5  1  6  0  0  0
  1 14  1  0  0  0  0
  1 19  2  0  0  0  0
  1 23  1  0  0  0  0
  2 15  1  6  0  0  0
  2 20  2  0  0  0  0
  2 23  1  0  0  0  0
  2 24  1  0  0  0  0
  3 16  1  1  0  0  0
  3 21  1  0  0  0  0
  3 24  1  0  0  0  0
  3 25  2  0  0  0  0
  4  5  1  0  0  0  0
  6  4  1  1  0  0  0
  6  7  1  0  0  0  0
  6  8  1  0  0  0  0
  7 12  1  0  0  0  0
  8  9  1  6  0  0  0
  8 10  1  0  0  0  0
 10 11  1  6  0  0  0
 10 12  1  0  0  0  0
 12 32  1  1  0  0  0
 13 17  2  0  0  0  0
 13 28  1  0  0  0  0
 17 18  1  0  0  0  0
 17 22  1  0  0  0  0
 22 26  2  0  0  0  0
 26 27  1  0  0  0  0
 26 32  1  0  0  0  0
 27 28  2  0  0  0  0
 27 30  1  0  0  0  0
 28 29  1  0  0  0  0
 30 31  2  0  0  0  0
 31 32  1  0  0  0  0
M  CHG  3  14  -1  15  -1  21  -1
M  END
>  <CHROM.1>
162.80681720,-49.82408541,-57.19049278,60.48847055,173.24314553,-135.10963001
88.97295743,-88.64826669,16.88395092,-23.36250787,-18.18339908,-1.46143706
0.24814152,-0.47369024

>  <Name>
ligand

>  <RI>
0

>  <Rbt.Current_Directory>
/home/itssahil/PROJECTS/Mol_Feturizer/New_Systems/rnas/4Y1I

>  <Rbt.Executable>
rbdock ($Id: //depot/dev/client3/rdock/2013.1/src/exe/rbdock.cxx#4 $)

>  <Rbt.Library>
libRbt.so (2013.1, Build901 2013/11/27)

>  <Rbt.Parameter_File>
/export/apps/rDock/src/rDock_2013.1_src/data/scripts/dock_solv.prm

>  <Rbt.Receptor>
prm/pocket_docking_6.prm

>  <SCORE>
-10.2307

>  <SCORE.INTER>
-4.75677

>  <SCORE.INTER.CONST>
1

>  <SCORE.INTER.POLAR>
0

>  <SCORE.INTER.ROT>
8

>  <SCORE.INTER.SOLV>
13.2424

>  <SCORE.INTER.VDW>
-16.5187

>  <SCORE.INTER.norm>
-0.148649

>  <SCORE.INTRA>
-5.4739

>  <SCORE.INTRA.DIHEDRAL>
-6.64993

>  <SCORE.INTRA.DIHEDRAL.0>
10.9594

>  <SCORE.INTRA.POLAR>
0

>  <SCORE.INTRA.POLAR.0>
0

>  <SCORE.INTRA.REPUL>
0

>  <SCORE.INTRA.REPUL.0>
0

>  <SCORE.INTRA.SOLV>
-3.60843

>  <SCORE.INTRA.SOLV.lig_0>
-124.914

>  <SCORE.INTRA.VDW>
-0.344725

>  <SCORE.INTRA.VDW.0>
-4.69801

>  <SCORE.INTRA.norm>
-0.17106

>  <SCORE.RESTR>
0

>  <SCORE.RESTR.CAVITY>
0

>  <SCORE.RESTR.norm>
0

>  <SCORE.SYSTEM>
0

>  <SCORE.SYSTEM.CONST>
0

>  <SCORE.SYSTEM.DIHEDRAL>
0

>  <SCORE.SYSTEM.SOLV>
0

>  <SCORE.SYSTEM.norm>
0

>  <SCORE.heavy>
32

>  <SCORE.norm>
-0.319709

>  <RMSD>
4.953

$$$$
ligand
 OpenBabel11021811513D
libRbt.so/2013.1/901 2013/11/27
 32 34  0  0  0  0  0  0  0  0999 V2000
   16.7112  -29.4106  -19.6879 P   0  0  1  0  0  0  0  0  0  0  0  0
   13.8537  -29.6526  -19.7740 P   0  0  2  0  0  0  0  0  0  0  0  0
   12.7633  -30.6057  -17.2209 P   0  0  1  0  0  0  0  0  0  0  0  0
   16.4608  -26.8930  -19.0631 C   0  0  0  0  0  0  0  0  0  0  0  0
   16.4592  -28.2099  -18.5901 O   0  0  0  0  0  0  0  0  0  0  0  0
   15.9833  -26.0428  -18.0719 C   0  0  1  0  0  0  0  0  0  0  0  0
   16.9035  -26.0860  -16.8672 O   0  0  0  0  0  0  0  0  0  0  0  0
   15.9770  -24.5225  -18.5628 C   0  0  1  0  0  0  0  0  0  0  0  0
   14.5518  -24.0224  -18.6316 O   0  0  0  0  0  0  0  0  0  0  0  0
   16.5496  -23.8772  -17.6813 C   0  0  1  0  0  0  0  0  0  0  0  0
   15.5399  -23.2815  -16.7738 O   0  0  0  0  0  0  0  0  0  0  0  0
   17.4991  -24.9602  -16.8451 C   0  0  2  0  0  0  0  0  0  0  0  0
   21.4417  -28.0671  -17.9354 N   0  0  0  0  0  0  0  0  0  0  0  0
   17.7898  -28.9980  -20.6587 O   0  5  0  0  0  0  0  0  0  0  0  0
   12.8335  -30.3749  -20.6176 O   0  5  0  0  0  0  0  0  0  0  0  0
   11.6745  -31.4057  -17.8968 O   0  0  0  0  0  0  0  0  0  0  0  0
   20.3109  -28.3671  -17.3157 C   0  0  0  0  0  0  0  0  0  0  0  0
   20.0885  -29.7242  -16.8593 N   0  0  0  0  0  0  0  0  0  0  0  0
   17.1019  -30.6703  -18.9485 O   0  0  0  0  0  0  0  0  0  0  0  0
   13.4257  -28.2215  -19.5800 O   0  0  0  0  0  0  0  0  0  0  0  0
   13.2752  -31.3776  -16.0244 O   0  5  0  0  0  0  0  0  0  0  0  0
   19.3733  -27.4677  -17.0977 N   0  0  0  0  0  0  0  0  0  0  0  0
   15.3163  -29.6596  -20.5192 O   0  0  0  0  0  0  0  0  0  0  0  0
   13.9876  -30.3880  -18.3087 O   0  0  0  0  0  0  0  0  0  0  0  0
   12.1965  -29.2726  -16.7838 O   0  0  0  0  0  0  0  0  0  0  0  0
   19.5394  -26.2029  -17.5030 C   0  0  0  0  0  0  0  0  0  0  0  0
   20.7096  -25.8632  -18.1513 C   0  0  0  0  0  0  0  0  0  0  0  0
   21.6977  -26.8416  -18.3741 C   0  0  0  0  0  0  0  0  0  0  0  0
   22.8995  -26.5259  -19.0321 O   0  0  0  0  0  0  0  0  0  0  0  0
   20.6401  -24.5558  -18.4548 N   0  0  0  0  0  0  0  0  0  0  0  0
   19.4783  -24.1063  -18.0132 C   0  0  0  0  0  0  0  0  0  0  0  0
   18.8034  -25.0824  -17.4353 N   0  0  0  0  0  0  0  0  0  0  0  0
  1  5  1  1  0  0  0
  1 14  1  0  0  0  0
  1 19  2  0  0  0  0
  1 23  1  0  0  0  0
  2 15  1  6  0  0  0
  2 20  2  0  0  0  0
  2 23  1  0  0  0  0
  2 24  1  0  0  0  0
  3 16  1  6  0  0  0
  3 21  1  0  0  0  0
  3 24  1  0  0  0  0
  3 25  2  0  0  0  0
  4  5  1  0  0  0  0
  6  4  1  6  0  0  0
  6  7  1  0  0  0  0
  6  8  1  0  0  0  0
  7 12  1  0  0  0  0
  8  9  1  1  0  0  0
  8 10  1  0  0  0  0
 10 11  1  1  0  0  0
 10 12  1  0  0  0  0
 12 32  1  6  0  0  0
 13 17  2  0  0  0  0
 13 28  1  0  0  0  0
 17 18  1  0  0  0  0
 17 22  1  0  0  0  0
 22 26  2  0  0  0  0
 26 27  1  0  0  0  0
 26 32  1  0  0  0  0
 27 28  2  0  0  0  0
 27 30  1  0  0  0  0
 28 29  1  0  0  0  0
 30 31  2  0  0  0  0
 31 32  1  0  0  0  0
M  CHG  3  14  -1  15  -1  21  -1
M  END
>  <CHROM.1>
40.81018253,-159.60863183,58.63637295,62.55763620,168.57301341,-25.70574799
-40.88263264,-58.85341121,16.53256085,-27.85376514,-18.31967788,-2.57412303
0.04995616,0.17748749

>  <Name>
ligand

>  <RI>
0

>  <Rbt.Current_Directory>
/home/itssahil/PROJECTS/Mol_Feturizer/New_Systems/rnas/4Y1I

>  <Rbt.Executable>
rbdock ($Id: //depot/dev/client3/rdock/2013.1/src/exe/rbdock.cxx#4 $)

>  <Rbt.Library>
libRbt.so (2013.1, Build901 2013/11/27)

>  <Rbt.Parameter_File>
/export/apps/rDock/src/rDock_2013.1_src/data/scripts/dock_solv.prm

>  <Rbt.Receptor>
prm/pocket_docking_3.prm

>  <SCORE>
-3.70698

>  <SCORE.INTER>
2.86156

>  <SCORE.INTER.CONST>
1

>  <SCORE.INTER.POLAR>
0

>  <SCORE.INTER.ROT>
8

>  <SCORE.INTER.SOLV>
4.31272

>  <SCORE.INTER.VDW>
-8.4632

>  <SCORE.INTER.norm>
0.0894236

>  <SCORE.INTRA>
-6.56854

>  <SCORE.INTRA.DIHEDRAL>
-7.37624

>  <SCORE.INTRA.DIHEDRAL.0>
10.9594

>  <SCORE.INTRA.POLAR>
0

>  <SCORE.INTRA.POLAR.0>
0

>  <SCORE.INTRA.REPUL>
0

>  <SCORE.INTRA.REPUL.0>
0

>  <SCORE.INTRA.SOLV>
-3.59766

>  <SCORE.INTRA.SOLV.lig_0>
-124.914

>  <SCORE.INTRA.VDW>
-1.08159

>  <SCORE.INTRA.VDW.0>
-4.69801

>  <SCORE.INTRA.norm>
-0.205267

>  <SCORE.RESTR>
0

>  <SCORE.RESTR.CAVITY>
0

>  <SCORE.RESTR.norm>
0

>  <SCORE.SYSTEM>
0

>  <SCORE.SYSTEM.CONST>
0

>  <SCORE.SYSTEM.DIHEDRAL>
0

>  <SCORE.SYSTEM.SOLV>
0

>  <SCORE.SYSTEM.norm>
0

>  <SCORE.heavy>
32

>  <SCORE.norm>
-0.115843

>  <RMSD>
4.955

$$$$
ligand
 OpenBabel11021811513D
libRbt.so/2013.1/901 2013/11/27
 32 34  0  0  0  0  0  0  0  0999 V2000
   14.9753  -28.8760  -19.1780 P   0  0  1  0  0  0  0  0  0  0  0  0
   14.4752  -29.0287  -16.3571 P   0  0  2  0  0  0  0  0  0  0  0  0
   11.6960  -29.9642  -16.2292 P   0  0  1  0  0  0  0  0  0  0  0  0
   16.4368  -26.7582  -19.5909 C   0  0  0  0  0  0  0  0  0  0  0  0
   16.3758  -28.0279  -19.0060 O   0  0  0  0  0  0  0  0  0  0  0  0
   15.7988  -25.8365  -18.7683 C   0  0  1  0  0  0  0  0  0  0  0  0
   16.4784  -25.7965  -17.4132 O   0  0  0  0  0  0  0  0  0  0  0  0
   15.9108  -24.3557  -19.3573 C   0  0  1  0  0  0  0  0  0  0  0  0
   14.5322  -23.8555  -19.7256 O   0  0  0  0  0  0  0  0  0  0  0  0
   16.3211  -23.6508  -18.4320 C   0  0  1  0  0  0  0  0  0  0  0  0
   15.1712  -22.9867  -17.7728 O   0  0  0  0  0  0  0  0  0  0  0  0
   17.0795  -24.6748  -17.3595 C   0  0  2  0  0  0  0  0  0  0  0  0
   21.0389  -27.9289  -17.7039 N   0  0  0  0  0  0  0  0  0  0  0  0
   13.8206  -27.9237  -19.3674 O   0  5  0  0  0  0  0  0  0  0  0  0
   14.1853  -27.5607  -16.5450 O   0  5  0  0  0  0  0  0  0  0  0  0
   11.8446  -30.3585  -17.6800 O   0  0  0  0  0  0  0  0  0  0  0  0
   19.7985  -28.1876  -17.3203 C   0  0  0  0  0  0  0  0  0  0  0  0
   19.4402  -29.5376  -16.9346 N   0  0  0  0  0  0  0  0  0  0  0  0
   15.1118  -29.8033  -20.3644 O   0  0  0  0  0  0  0  0  0  0  0  0
   15.7201  -29.1946  -15.5256 O   0  0  0  0  0  0  0  0  0  0  0  0
   10.9821  -31.0717  -15.4853 O   0  5  0  0  0  0  0  0  0  0  0  0
   18.8710  -27.2530  -17.2768 N   0  0  0  0  0  0  0  0  0  0  0  0
   14.7227  -29.7505  -17.8105 O   0  0  0  0  0  0  0  0  0  0  0  0
   13.2088  -29.7550  -15.5990 O   0  0  0  0  0  0  0  0  0  0  0  0
   10.9026  -28.6785  -16.1464 O   0  0  0  0  0  0  0  0  0  0  0  0
   19.1606  -25.9934  -17.6246 C   0  0  0  0  0  0  0  0  0  0  0  0
   20.4467  -25.6965  -18.0280 C   0  0  0  0  0  0  0  0  0  0  0  0
   21.4217  -26.7118  -18.0675 C   0  0  0  0  0  0  0  0  0  0  0  0
   22.7398  -26.4401  -18.4745 O   0  0  0  0  0  0  0  0  0  0  0  0
   20.4871  -24.3855  -18.3212 N   0  0  0  0  0  0  0  0  0  0  0  0
   19.2793  -23.8930  -18.1082 C   0  0  0  0  0  0  0  0  0  0  0  0
   18.4683  -24.8450  -17.6861 N   0  0  0  0  0  0  0  0  0  0  0  0
  1  5  1  1  0  0  0
  1 14  1  0  0  0  0
  1 19  2  0  0  0  0
  1 23  1  0  0  0  0
  2 15  1  6  0  0  0
  2 20  2  0  0  0  0
  2 23  1  0  0  0  0
  2 24  1  0  0  0  0
  3 16  1  6  0  0  0
  3 21  1  0  0  0  0
  3 24  1  0  0  0  0
  3 25  2  0  0  0  0
  4  5  1  0  0  0  0
  6  4  1  6  0  0  0
  6  7  1  0  0  0  0
  6  8  1  0  0  0  0
  7 12  1  0  0  0  0
  8  9  1  1  0  0  0
  8 10  1  0  0  0  0
 10 11  1  1  0  0  0
 10 12  1  0  0  0  0
 12 32  1  6  0  0  0
 13 17  2  0  0  0  0
 13 28  1  0  0  0  0
 17 18  1  0  0  0  0
 17 22  1  0  0  0  0
 22 26  2  0  0  0  0
 26 27  1  0  0  0  0
 26 32  1  0  0  0  0
 27 28  2  0  0  0  0
 27 30  1  0  0  0  0
 28 29  1  0  0  0  0
 30 31  2  0  0  0  0
 31 32  1  0  0  0  0
M  CHG  3  14  -1  15  -1  21  -1
M  END
>  <CHROM.1>
-26.35773086,13.75841221,40.78405359,59.93925078,80.29534493,-20.74420367
63.62943794,66.94174456,16.02912331,-27.44472680,-17.72199724,-2.61548536
0.02235288,-0.29454519

>  <Name>
ligand

>  <RI>
0

>  <Rbt.Current_Directory>
/home/itssahil/PROJECTS/Mol_Feturizer/New_Systems/rnas/4Y1I

>  <Rbt.Executable>
rbdock ($Id: //depot/dev/client3/rdock/2013.1/src/exe/rbdock.cxx#4 $)

>  <Rbt.Library>
libRbt.so (2013.1, Build901 2013/11/27)

>  <Rbt.Parameter_File>
/export/apps/rDock/src/rDock_2013.1_src/data/scripts/dock_solv.prm

>  <Rbt.Receptor>
prm/pocket_docking_2.prm

>  <SCORE>
0.739977

>  <SCORE.INTER>
2.92142

>  <SCORE.INTER.CONST>
1

>  <SCORE.INTER.POLAR>
0

>  <SCORE.INTER.ROT>
8

>  <SCORE.INTER.SOLV>
3.04548

>  <SCORE.INTER.VDW>
-8.00088

>  <SCORE.INTER.norm>
0.0912945

>  <SCORE.INTRA>
-2.92249

>  <SCORE.INTRA.DIHEDRAL>
-3.64449

>  <SCORE.INTRA.DIHEDRAL.0>
10.9594

>  <SCORE.INTRA.POLAR>
0

>  <SCORE.INTRA.POLAR.0>
0

>  <SCORE.INTRA.REPUL>
0

>  <SCORE.INTRA.REPUL.0>
0

>  <SCORE.INTRA.SOLV>
0.183713

>  <SCORE.INTRA.SOLV.lig_0>
-124.914

>  <SCORE.INTRA.VDW>
-1.1921

>  <SCORE.INTRA.VDW.0>
-4.69801

>  <SCORE.INTRA.norm>
-0.0913278

>  <SCORE.RESTR>
0.741042

>  <SCORE.RESTR.CAVITY>
0.741042

>  <SCORE.RESTR.norm>
0.0231575

>  <SCORE.SYSTEM>
0

>  <SCORE.SYSTEM.CONST>
0

>  <SCORE.SYSTEM.DIHEDRAL>
0

>  <SCORE.SYSTEM.SOLV>
0

>  <SCORE.SYSTEM.norm>
0

>  <SCORE.heavy>
32

>  <SCORE.norm>
0.0231243

>  <RMSD>
4.967

$$$$
ligand
 OpenBabel11021811513D
libRbt.so/2013.1/901 2013/11/27
 32 34  0  0  0  0  0  0  0  0999 V2000
   14.7080  -25.6346  -16.4365 P   0  0  1  0  0  0  0  0  0  0  0  0
   16.6423  -27.7458  -16.6162 P   0  0  2  0  0  0  0  0  0  0  0  0
   15.6803  -30.5133  -16.7909 P   0  0  1  0  0  0  0  0  0  0  0  0
   15.4272  -23.2288  -17.1339 C   0  0  0  0  0  0  0  0  0  0  0  0
   14.4123  -24.1913  -17.1713 O   0  0  0  0  0  0  0  0  0  0  0  0
   14.9650  -22.0441  -17.6963 C   0  0  1  0  0  0  0  0  0  0  0  0
   16.0163  -20.9604  -17.5541 O   0  0  0  0  0  0  0  0  0  0  0  0
   14.7122  -22.2047  -19.2655 C   0  0  1  0  0  0  0  0  0  0  0  0
   13.2373  -22.0424  -19.5563 O   0  0  0  0  0  0  0  0  0  0  0  0
   15.2976  -21.2617  -19.8034 C   0  0  1  0  0  0  0  0  0  0  0  0
   14.3330  -20.1650  -20.0576 O   0  0  0  0  0  0  0  0  0  0  0  0
   16.4651  -20.7563  -18.7285 C   0  0  2  0  0  0  0  0  0  0  0  0
   21.5434  -20.4420  -19.4337 N   0  0  0  0  0  0  0  0  0  0  0  0
   14.8937  -25.4253  -14.9540 O   0  5  0  0  0  0  0  0  0  0  0  0
   16.8588  -27.7973  -15.1246 O   0  5  0  0  0  0  0  0  0  0  0  0
   14.4564  -31.1854  -17.3678 O   0  0  0  0  0  0  0  0  0  0  0  0
   20.6738  -19.4532  -19.2975 C   0  0  0  0  0  0  0  0  0  0  0  0
   21.1423  -18.0828  -19.3424 N   0  0  0  0  0  0  0  0  0  0  0  0
   13.5484  -26.5655  -16.7103 O   0  0  0  0  0  0  0  0  0  0  0  0
   17.9473  -27.9994  -17.3244 O   0  0  0  0  0  0  0  0  0  0  0  0
   16.9131  -31.0462  -17.4879 O   0  5  0  0  0  0  0  0  0  0  0  0
   19.3869  -19.6734  -19.1209 N   0  0  0  0  0  0  0  0  0  0  0  0
   16.0908  -26.2649  -17.0605 O   0  0  0  0  0  0  0  0  0  0  0  0
   15.5462  -28.8890  -17.0608 O   0  0  0  0  0  0  0  0  0  0  0  0
   15.7484  -30.8026  -15.3073 O   0  0  0  0  0  0  0  0  0  0  0  0
   18.9131  -20.9243  -19.0737 C   0  0  0  0  0  0  0  0  0  0  0  0
   19.7985  -21.9738  -19.2135 C   0  0  0  0  0  0  0  0  0  0  0  0
   21.1700  -21.7146  -19.4005 C   0  0  0  0  0  0  0  0  0  0  0  0
   22.0959  -22.7627  -19.5455 O   0  0  0  0  0  0  0  0  0  0  0  0
   19.0918  -23.1140  -19.1318 N   0  0  0  0  0  0  0  0  0  0  0  0
   17.8248  -22.7844  -18.9500 C   0  0  0  0  0  0  0  0  0  0  0  0
   17.6975  -21.4711  -18.9150 N   0  0  0  0  0  0  0  0  0  0  0  0
  1  5  1  6  0  0  0
  1 14  1  0  0  0  0
  1 19  2  0  0  0  0
  1 23  1  0  0  0  0
  2 15  1  1  0  0  0
  2 20  2  0  0  0  0
  2 23  1  0  0  0  0
  2 24  1  0  0  0  0
  3 16  1  6  0  0  0
  3 21  1  0  0  0  0
  3 24  1  0  0  0  0
  3 25  2  0  0  0  0
  4  5  1  0  0  0  0
  6  4  1  6  0  0  0
  6  7  1  0  0  0  0
  6  8  1  0  0  0  0
  7 12  1  0  0  0  0
  8  9  1  1  0  0  0
  8 10  1  0  0  0  0
 10 11  1  1  0  0  0
 10 12  1  0  0  0  0
 12 32  1  6  0  0  0
 13 17  2  0  0  0  0
 13 28  1  0  0  0  0
 17 18  1  0  0  0  0
 17 22  1  0  0  0  0
 22 26  2  0  0  0  0
 26 27  1  0  0  0  0
 26 32  1  0  0  0  0
 27 28  2  0  0  0  0
 27 30  1  0  0  0  0
 28 29  1  0  0  0  0
 30 31  2  0  0  0  0
 31 32  1  0  0  0  0
M  CHG  3  14  -1  15  -1  21  -1
M  END
>  <CHROM.1>
63.91254226,-57.87952150,-179.76745287,175.20550728,-174.89457524,-112.59868840
-176.44264755,-57.91372737,16.74670208,-24.61063370,-17.81223858,1.90865123
-0.12641132,2.88568473

>  <Name>
ligand

>  <RI>
0

>  <Rbt.Current_Directory>
/home/itssahil/PROJECTS/Mol_Feturizer/New_Systems/rnas/4Y1I

>  <Rbt.Executable>
rbdock ($Id: //depot/dev/client3/rdock/2013.1/src/exe/rbdock.cxx#4 $)

>  <Rbt.Library>
libRbt.so (2013.1, Build901 2013/11/27)

>  <Rbt.Parameter_File>
/export/apps/rDock/src/rDock_2013.1_src/data/scripts/dock_solv.prm

>  <Rbt.Receptor>
prm/pocket_docking_4.prm

>  <SCORE>
-7.22005

>  <SCORE.INTER>
-1.44976

>  <SCORE.INTER.CONST>
1

>  <SCORE.INTER.POLAR>
0

>  <SCORE.INTER.ROT>
8

>  <SCORE.INTER.SOLV>
8.53341

>  <SCORE.INTER.VDW>
-12.7443

>  <SCORE.INTER.norm>
-0.045305

>  <SCORE.INTRA>
-5.77029

>  <SCORE.INTRA.DIHEDRAL>
-9.46295

>  <SCORE.INTRA.DIHEDRAL.0>
10.9594

>  <SCORE.INTRA.POLAR>
0

>  <SCORE.INTRA.POLAR.0>
0

>  <SCORE.INTRA.REPUL>
0

>  <SCORE.INTRA.REPUL.0>
0

>  <SCORE.INTRA.SOLV>
-2.91212

>  <SCORE.INTRA.SOLV.lig_0>
-124.914

>  <SCORE.INTRA.VDW>
0.417247

>  <SCORE.INTRA.VDW.0>
-4.69801

>  <SCORE.INTRA.norm>
-0.180322

>  <SCORE.RESTR>
0

>  <SCORE.RESTR.CAVITY>
0

>  <SCORE.RESTR.norm>
0

>  <SCORE.SYSTEM>
0

>  <SCORE.SYSTEM.CONST>
0

>  <SCORE.SYSTEM.DIHEDRAL>
0

>  <SCORE.SYSTEM.SOLV>
0

>  <SCORE.SYSTEM.norm>
0

>  <SCORE.heavy>
32

>  <SCORE.norm>
-0.225627

>  <RMSD>
4.986

$$$$
ligand
 OpenBabel11021811513D
libRbt.so/2013.1/901 2013/11/27
 32 34  0  0  0  0  0  0  0  0999 V2000
   15.2770  -25.7941  -17.3969 P   0  0  1  0  0  0  0  0  0  0  0  0
   14.8282  -27.8709  -15.4690 P   0  0  2  0  0  0  0  0  0  0  0  0
   12.5801  -27.5765  -13.6051 P   0  0  1  0  0  0  0  0  0  0  0  0
   15.0509  -23.6485  -18.8586 C   0  0  0  0  0  0  0  0  0  0  0  0
   14.8098  -24.2298  -17.6089 O   0  0  0  0  0  0  0  0  0  0  0  0
   14.7213  -22.2984  -18.8144 C   0  0  1  0  0  0  0  0  0  0  0  0
   15.6446  -21.5727  -17.8549 O   0  0  0  0  0  0  0  0  0  0  0  0
   14.9328  -21.6011  -20.2361 C   0  0  1  0  0  0  0  0  0  0  0  0
   13.5967  -21.1411  -20.7741 O   0  0  0  0  0  0  0  0  0  0  0  0
   15.6092  -20.5918  -20.0237 C   0  0  1  0  0  0  0  0  0  0  0  0
   14.7142  -19.4156  -19.9079 O   0  0  0  0  0  0  0  0  0  0  0  0
   16.4010  -20.8497  -18.5813 C   0  0  2  0  0  0  0  0  0  0  0  0
   21.4350  -20.3007  -19.4433 N   0  0  0  0  0  0  0  0  0  0  0  0
   14.9725  -26.5919  -18.6406 O   0  5  0  0  0  0  0  0  0  0  0  0
   16.0127  -27.7107  -14.5495 O   0  5  0  0  0  0  0  0  0  0  0  0
   11.9832  -26.4330  -14.3914 O   0  0  0  0  0  0  0  0  0  0  0  0
   20.5198  -19.3534  -19.3099 C   0  0  0  0  0  0  0  0  0  0  0  0
   20.9160  -17.9630  -19.4076 N   0  0  0  0  0  0  0  0  0  0  0  0
   16.7564  -25.8211  -17.0856 O   0  0  0  0  0  0  0  0  0  0  0  0
   15.1759  -28.8303  -16.5770 O   0  0  0  0  0  0  0  0  0  0  0  0
   11.4637  -28.4523  -13.0794 O   0  5  0  0  0  0  0  0  0  0  0  0
   19.2514  -19.6328  -19.0896 N   0  0  0  0  0  0  0  0  0  0  0  0
   14.4292  -26.4269  -16.1401 O   0  0  0  0  0  0  0  0  0  0  0  0
   13.5411  -28.4514  -14.6251 O   0  0  0  0  0  0  0  0  0  0  0  0
   13.3927  -27.0155  -12.4587 O   0  0  0  0  0  0  0  0  0  0  0  0
   18.8439  -20.9041  -18.9929 C   0  0  0  0  0  0  0  0  0  0  0  0
   19.7778  -21.9113  -19.1286 C   0  0  0  0  0  0  0  0  0  0  0  0
   21.1284  -21.5889  -19.3630 C   0  0  0  0  0  0  0  0  0  0  0  0
   22.1025  -22.5928  -19.5050 O   0  0  0  0  0  0  0  0  0  0  0  0
   19.1330  -23.0828  -18.9939 N   0  0  0  0  0  0  0  0  0  0  0  0
   17.8564  -22.8123  -18.7845 C   0  0  0  0  0  0  0  0  0  0  0  0
   17.6628  -21.5066  -18.7832 N   0  0  0  0  0  0  0  0  0  0  0  0
  1  5  1  6  0  0  0
  1 14  1  0  0  0  0
  1 19  2  0  0  0  0
  1 23  1  0  0  0  0
  2 15  1  1  0  0  0
  2 20  2  0  0  0  0
  2 23  1  0  0  0  0
  2 24  1  0  0  0  0
  3 16  1  6  0  0  0
  3 21  1  0  0  0  0
  3 24  1  0  0  0  0
  3 25  2  0  0  0  0
  4  5  1  0  0  0  0
  6  4  1  6  0  0  0
  6  7  1  0  0  0  0
  6  8  1  0  0  0  0
  7 12  1  0  0  0  0
  8  9  1  1  0  0  0
  8 10  1  0  0  0  0
 10 11  1  1  0  0  0
 10 12  1  0  0  0  0
 12 32  1  6  0  0  0
 13 17  2  0  0  0  0
 13 28  1  0  0  0  0
 17 18  1  0  0  0  0
 17 22  1  0  0  0  0
 22 26  2  0  0  0  0
 26 27  1  0  0  0  0
 26 32  1  0  0  0  0
 27 28  2  0  0  0  0
 27 30  1  0  0  0  0
 28 29  1  0  0  0  0
 30 31  2  0  0  0  0
 31 32  1  0  0  0  0
M  CHG  3  14  -1  15  -1  21  -1
M  END
>  <CHROM.1>
-40.15795622,78.26667759,58.23593876,64.95327653,-173.95104778,-151.11657951
-168.52837773,76.79166788,16.04015504,-24.06797446,-17.41287473,-2.13897812
0.04619175,-0.57251941

>  <Name>
ligand

>  <RI>
0

>  <Rbt.Current_Directory>
/home/itssahil/PROJECTS/Mol_Feturizer/New_Systems/rnas/4Y1I

>  <Rbt.Executable>
rbdock ($Id: //depot/dev/client3/rdock/2013.1/src/exe/rbdock.cxx#4 $)

>  <Rbt.Library>
libRbt.so (2013.1, Build901 2013/11/27)

>  <Rbt.Parameter_File>
/export/apps/rDock/src/rDock_2013.1_src/data/scripts/dock_solv.prm

>  <Rbt.Receptor>
prm/pocket_docking_4.prm

>  <SCORE>
-6.44828

>  <SCORE.INTER>
-1.26373

>  <SCORE.INTER.CONST>
1

>  <SCORE.INTER.POLAR>
0

>  <SCORE.INTER.ROT>
8

>  <SCORE.INTER.SOLV>
10.9493

>  <SCORE.INTER.VDW>
-13.4256

>  <SCORE.INTER.norm>
-0.0394917

>  <SCORE.INTRA>
-5.18454

>  <SCORE.INTRA.DIHEDRAL>
-7.65362

>  <SCORE.INTRA.DIHEDRAL.0>
10.9594

>  <SCORE.INTRA.POLAR>
0

>  <SCORE.INTRA.POLAR.0>
0

>  <SCORE.INTRA.REPUL>
0

>  <SCORE.INTRA.REPUL.0>
0

>  <SCORE.INTRA.SOLV>
-4.00671

>  <SCORE.INTRA.SOLV.lig_0>
-124.914

>  <SCORE.INTRA.VDW>
0.64562

>  <SCORE.INTRA.VDW.0>
-4.69801

>  <SCORE.INTRA.norm>
-0.162017

>  <SCORE.RESTR>
0

>  <SCORE.RESTR.CAVITY>
0

>  <SCORE.RESTR.norm>
0

>  <SCORE.SYSTEM>
0

>  <SCORE.SYSTEM.CONST>
0

>  <SCORE.SYSTEM.DIHEDRAL>
0

>  <SCORE.SYSTEM.SOLV>
0

>  <SCORE.SYSTEM.norm>
0

>  <SCORE.heavy>
32

>  <SCORE.norm>
-0.201509

>  <RMSD>
5.001

$$$$
ligand
 OpenBabel11021811513D
libRbt.so/2013.1/901 2013/11/27
 32 34  0  0  0  0  0  0  0  0999 V2000
   18.8080  -29.8060  -17.3347 P   0  0  1  0  0  0  0  0  0  0  0  0
   19.6000  -29.9584  -20.0879 P   0  0  2  0  0  0  0  0  0  0  0  0
   17.5508  -30.2338  -22.1713 P   0  0  1  0  0  0  0  0  0  0  0  0
   17.4487  -27.7238  -18.1147 C   0  0  0  0  0  0  0  0  0  0  0  0
   17.7842  -28.5515  -17.0375 O   0  0  0  0  0  0  0  0  0  0  0  0
   16.6335  -26.6892  -17.6694 C   0  0  1  0  0  0  0  0  0  0  0  0
   17.3713  -25.8580  -16.6376 O   0  0  0  0  0  0  0  0  0  0  0  0
   16.2657  -25.6859  -18.8570 C   0  0  1  0  0  0  0  0  0  0  0  0
   14.7779  -25.7423  -19.1201 O   0  0  0  0  0  0  0  0  0  0  0  0
   16.5212  -24.5541  -18.4387 C   0  0  1  0  0  0  0  0  0  0  0  0
   15.2804  -23.9301  -17.9201 O   0  0  0  0  0  0  0  0  0  0  0  0
   17.6224  -24.7450  -17.2038 C   0  0  2  0  0  0  0  0  0  0  0  0
   21.2031  -22.2043  -19.8700 N   0  0  0  0  0  0  0  0  0  0  0  0
   20.2374  -29.3422  -17.2016 O   0  5  0  0  0  0  0  0  0  0  0  0
   20.9653  -30.5313  -19.8017 O   0  5  0  0  0  0  0  0  0  0  0  0
   17.5109  -30.8545  -23.5481 O   0  0  0  0  0  0  0  0  0  0  0  0
   19.9552  -21.8387  -19.6217 C   0  0  0  0  0  0  0  0  0  0  0  0
   19.4689  -20.5741  -20.1355 N   0  0  0  0  0  0  0  0  0  0  0  0
   18.5075  -30.9199  -16.3573 O   0  0  0  0  0  0  0  0  0  0  0  0
   19.6940  -28.4588  -20.1926 O   0  0  0  0  0  0  0  0  0  0  0  0
   16.4532  -30.8384  -21.3232 O   0  5  0  0  0  0  0  0  0  0  0  0
   19.1333  -22.5904  -18.9180 N   0  0  0  0  0  0  0  0  0  0  0  0
   18.5610  -30.3290  -18.8722 O   0  0  0  0  0  0  0  0  0  0  0  0
   19.0226  -30.5714  -21.5011 O   0  0  0  0  0  0  0  0  0  0  0  0
   17.3542  -28.7389  -22.2986 O   0  0  0  0  0  0  0  0  0  0  0  0
   19.5429  -23.7657  -18.4256 C   0  0  0  0  0  0  0  0  0  0  0  0
   20.8394  -24.1710  -18.6703 C   0  0  0  0  0  0  0  0  0  0  0  0
   21.7004  -23.3506  -19.4244 C   0  0  0  0  0  0  0  0  0  0  0  0
   23.0263  -23.7362  -19.6896 O   0  0  0  0  0  0  0  0  0  0  0  0
   21.0085  -25.3666  -18.0803 N   0  0  0  0  0  0  0  0  0  0  0  0
   19.8667  -25.6872  -17.4969 C   0  0  0  0  0  0  0  0  0  0  0  0
   18.9722  -24.7373  -17.6960 N   0  0  0  0  0  0  0  0  0  0  0  0
  1  5  1  1  0  0  0
  1 14  1  0  0  0  0
  1 19  2  0  0  0  0
  1 23  1  0  0  0  0
  2 15  1  1  0  0  0
  2 20  2  0  0  0  0
  2 23  1  0  0  0  0
  2 24  1  0  0  0  0
  3 16  1  6  0  0  0
  3 21  1  0  0  0  0
  3 24  1  0  0  0  0
  3 25  2  0  0  0  0
  4  5  1  0  0  0  0
  6  4  1  6  0  0  0
  6  7  1  0  0  0  0
  6  8  1  0  0  0  0
  7 12  1  0  0  0  0
  8  9  1  1  0  0  0
  8 10  1  0  0  0  0
 10 11  1  1  0  0  0
 10 12  1  0  0  0  0
 12 32  1  6  0  0  0
 13 17  2  0  0  0  0
 13 28  1  0  0  0  0
 17 18  1  0  0  0  0
 17 22  1  0  0  0  0
 22 26  2  0  0  0  0
 26 27  1  0  0  0  0
 26 32  1  0  0  0  0
 27 28  2  0  0  0  0
 27 30  1  0  0  0  0
 28 29  1  0  0  0  0
 30 31  2  0  0  0  0
 31 32  1  0  0  0  0
M  CHG  3  14  -1  15  -1  21  -1
M  END
>  <CHROM.1>
87.04553386,61.93628641,172.30163038,60.97123716,-177.17967222,175.01380445
103.48086082,178.68823899,18.66494936,-27.12668799,-19.16665207,1.75168986
-0.47435725,-2.84718802

>  <Name>
ligand

>  <RI>
0

>  <Rbt.Current_Directory>
/home/itssahil/PROJECTS/Mol_Feturizer/New_Systems/rnas/4Y1I

>  <Rbt.Executable>
rbdock ($Id: //depot/dev/client3/rdock/2013.1/src/exe/rbdock.cxx#4 $)

>  <Rbt.Library>
libRbt.so (2013.1, Build901 2013/11/27)

>  <Rbt.Parameter_File>
/export/apps/rDock/src/rDock_2013.1_src/data/scripts/dock_solv.prm

>  <Rbt.Receptor>
prm/pocket_docking_7.prm

>  <SCORE>
-3.2381

>  <SCORE.INTER>
1.42869

>  <SCORE.INTER.CONST>
1

>  <SCORE.INTER.POLAR>
0

>  <SCORE.INTER.ROT>
8

>  <SCORE.INTER.SOLV>
4.11613

>  <SCORE.INTER.VDW>
-9.35292

>  <SCORE.INTER.norm>
0.0446465

>  <SCORE.INTRA>
-4.66679

>  <SCORE.INTRA.DIHEDRAL>
-6.54619

>  <SCORE.INTRA.DIHEDRAL.0>
10.9594

>  <SCORE.INTRA.POLAR>
0

>  <SCORE.INTRA.POLAR.0>
0

>  <SCORE.INTRA.REPUL>
0

>  <SCORE.INTRA.REPUL.0>
0

>  <SCORE.INTRA.SOLV>
-2.10241

>  <SCORE.INTRA.SOLV.lig_0>
-124.914

>  <SCORE.INTRA.VDW>
-0.342493

>  <SCORE.INTRA.VDW.0>
-4.69801

>  <SCORE.INTRA.norm>
-0.145837

>  <SCORE.RESTR>
0

>  <SCORE.RESTR.CAVITY>
0

>  <SCORE.RESTR.norm>
0

>  <SCORE.SYSTEM>
0

>  <SCORE.SYSTEM.CONST>
0

>  <SCORE.SYSTEM.DIHEDRAL>
0

>  <SCORE.SYSTEM.SOLV>
0

>  <SCORE.SYSTEM.norm>
0

>  <SCORE.heavy>
32

>  <SCORE.norm>
-0.101191

>  <RMSD>
5.006

$$$$
ligand
 OpenBabel11021811513D
libRbt.so/2013.1/901 2013/11/27
 32 34  0  0  0  0  0  0  0  0999 V2000
   15.0560  -27.4849  -19.0591 P   0  0  1  0  0  0  0  0  0  0  0  0
   12.4933  -28.1086  -17.9300 P   0  0  2  0  0  0  0  0  0  0  0  0
   12.8930  -30.7277  -16.6667 P   0  0  1  0  0  0  0  0  0  0  0  0
   14.4167  -24.9607  -19.1641 C   0  0  0  0  0  0  0  0  0  0  0  0
   15.4603  -25.8893  -19.0836 O   0  0  0  0  0  0  0  0  0  0  0  0
   14.7733  -23.8009  -18.4852 C   0  0  1  0  0  0  0  0  0  0  0  0
   15.8065  -24.1217  -17.4223 O   0  0  0  0  0  0  0  0  0  0  0  0
   15.4656  -22.7440  -19.4628 C   0  0  1  0  0  0  0  0  0  0  0  0
   14.5917  -21.5152  -19.5747 O   0  0  0  0  0  0  0  0  0  0  0  0
   16.5118  -22.4001  -18.9074 C   0  0  1  0  0  0  0  0  0  0  0  0
   16.2851  -21.1318  -18.1740 O   0  0  0  0  0  0  0  0  0  0  0  0
   16.8994  -23.6159  -17.8372 C   0  0  2  0  0  0  0  0  0  0  0  0
   18.7577  -28.3964  -17.5546 N   0  0  0  0  0  0  0  0  0  0  0  0
   14.2983  -27.8400  -20.3145 O   0  5  0  0  0  0  0  0  0  0  0  0
   11.9845  -27.5994  -19.2552 O   0  5  0  0  0  0  0  0  0  0  0  0
   14.3012  -31.1066  -17.0616 O   0  0  0  0  0  0  0  0  0  0  0  0
   17.9764  -27.7699  -16.6887 C   0  0  0  0  0  0  0  0  0  0  0  0
   17.5519  -28.4583  -15.4864 N   0  0  0  0  0  0  0  0  0  0  0  0
   16.3209  -28.3047  -18.9406 O   0  0  0  0  0  0  0  0  0  0  0  0
   11.7384  -27.4419  -16.8099 O   0  0  0  0  0  0  0  0  0  0  0  0
   12.9301  -29.9909  -15.3456 O   0  5  0  0  0  0  0  0  0  0  0  0
   17.5679  -26.5327  -16.8835 N   0  0  0  0  0  0  0  0  0  0  0  0
   14.0881  -27.7587  -17.7602 O   0  0  0  0  0  0  0  0  0  0  0  0
   12.2823  -29.7375  -17.8397 O   0  0  0  0  0  0  0  0  0  0  0  0
   12.0600  -31.9849  -16.5447 O   0  0  0  0  0  0  0  0  0  0  0  0
   17.9375  -25.8614  -17.9810 C   0  0  0  0  0  0  0  0  0  0  0  0
   18.7523  -26.4912  -18.8998 C   0  0  0  0  0  0  0  0  0  0  0  0
   19.1760  -27.8145  -18.6710 C   0  0  0  0  0  0  0  0  0  0  0  0
   20.0057  -28.4823  -19.5889 O   0  0  0  0  0  0  0  0  0  0  0  0
   18.9808  -25.6237  -19.9006 N   0  0  0  0  0  0  0  0  0  0  0  0
   18.3361  -24.5062  -19.6132 C   0  0  0  0  0  0  0  0  0  0  0  0
   17.7047  -24.6295  -18.4607 N   0  0  0  0  0  0  0  0  0  0  0  0
  1  5  1  6  0  0  0
  1 14  1  0  0  0  0
  1 19  2  0  0  0  0
  1 23  1  0  0  0  0
  2 15  1  6  0  0  0
  2 20  2  0  0  0  0
  2 23  1  0  0  0  0
  2 24  1  0  0  0  0
  3 16  1  6  0  0  0
  3 21  1  0  0  0  0
  3 24  1  0  0  0  0
  3 25  2  0  0  0  0
  4  5  1  0  0  0  0
  6  4  1  6  0  0  0
  6  7  1  0  0  0  0
  6  8  1  0  0  0  0
  7 12  1  0  0  0  0
  8  9  1  1  0  0  0
  8 10  1  0  0  0  0
 10 11  1  1  0  0  0
 10 12  1  0  0  0  0
 12 32  1  6  0  0  0
 13 17  2  0  0  0  0
 13 28  1  0  0  0  0
 17 18  1  0  0  0  0
 17 22  1  0  0  0  0
 22 26  2  0  0  0  0
 26 27  1  0  0  0  0
 26 32  1  0  0  0  0
 27 28  2  0  0  0  0
 27 30  1  0  0  0  0
 28 29  1  0  0  0  0
 30 31  2  0  0  0  0
 31 32  1  0  0  0  0
M  CHG  3  14  -1  15  -1  21  -1
M  END
>  <CHROM.1>
59.60244981,-22.91738764,-85.05472256,-25.09083852,148.11035486,-45.31959531
110.04295575,170.53227034,15.38381200,-26.92971469,-18.12945591,2.15018302
-0.06214249,2.90763703

>  <Name>
ligand

>  <RI>
0

>  <Rbt.Current_Directory>
/home/itssahil/PROJECTS/Mol_Feturizer/New_Systems/rnas/4Y1I

>  <Rbt.Executable>
rbdock ($Id: //depot/dev/client3/rdock/2013.1/src/exe/rbdock.cxx#4 $)

>  <Rbt.Library>
libRbt.so (2013.1, Build901 2013/11/27)

>  <Rbt.Parameter_File>
/export/apps/rDock/src/rDock_2013.1_src/data/scripts/dock_solv.prm

>  <Rbt.Receptor>
prm/pocket_docking_2.prm

>  <SCORE>
11.3646

>  <SCORE.INTER>
9.06815

>  <SCORE.INTER.CONST>
1

>  <SCORE.INTER.POLAR>
0

>  <SCORE.INTER.ROT>
8

>  <SCORE.INTER.SOLV>
4.29098

>  <SCORE.INTER.VDW>
-4.31823

>  <SCORE.INTER.norm>
0.28338

>  <SCORE.INTRA>
0.554168

>  <SCORE.INTRA.DIHEDRAL>
2.46937

>  <SCORE.INTRA.DIHEDRAL.0>
10.9594

>  <SCORE.INTRA.POLAR>
0

>  <SCORE.INTRA.POLAR.0>
0

>  <SCORE.INTRA.REPUL>
0

>  <SCORE.INTRA.REPUL.0>
0

>  <SCORE.INTRA.SOLV>
1.00399

>  <SCORE.INTRA.SOLV.lig_0>
-124.914

>  <SCORE.INTRA.VDW>
-1.18251

>  <SCORE.INTRA.VDW.0>
-4.69801

>  <SCORE.INTRA.norm>
0.0173177

>  <SCORE.RESTR>
1.74233

>  <SCORE.RESTR.CAVITY>
1.74233

>  <SCORE.RESTR.norm>
0.0544479

>  <SCORE.SYSTEM>
0

>  <SCORE.SYSTEM.CONST>
0

>  <SCORE.SYSTEM.DIHEDRAL>
0

>  <SCORE.SYSTEM.SOLV>
0

>  <SCORE.SYSTEM.norm>
0

>  <SCORE.heavy>
32

>  <SCORE.norm>
0.355145

>  <RMSD>
5.030

$$$$
ligand
 OpenBabel11021811513D
libRbt.so/2013.1/901 2013/11/27
 32 34  0  0  0  0  0  0  0  0999 V2000
   18.4751  -25.9890  -19.0237 P   0  0  1  0  0  0  0  0  0  0  0  0
   18.1800  -27.9844  -16.9835 P   0  0  2  0  0  0  0  0  0  0  0  0
   15.8995  -28.0452  -15.1366 P   0  0  1  0  0  0  0  0  0  0  0  0
   17.0206  -24.1155  -17.9439 C   0  0  0  0  0  0  0  0  0  0  0  0
   17.0168  -25.3426  -18.6164 O   0  0  0  0  0  0  0  0  0  0  0  0
   15.7120  -23.6852  -17.7549 C   0  0  1  0  0  0  0  0  0  0  0  0
   15.7077  -22.2760  -17.1945 O   0  0  0  0  0  0  0  0  0  0  0  0
   14.9194  -23.6073  -19.1398 C   0  0  1  0  0  0  0  0  0  0  0  0
   13.7951  -24.6182  -19.1332 O   0  0  0  0  0  0  0  0  0  0  0  0
   14.4046  -22.4870  -19.1755 C   0  0  1  0  0  0  0  0  0  0  0  0
   12.9989  -22.5771  -18.7130 O   0  0  0  0  0  0  0  0  0  0  0  0
   15.2863  -21.5294  -18.1366 C   0  0  2  0  0  0  0  0  0  0  0  0
   16.8115  -18.3498  -21.8714 N   0  0  0  0  0  0  0  0  0  0  0  0
   18.3061  -26.9454  -20.1782 O   0  5  0  0  0  0  0  0  0  0  0  0
   19.0366  -28.7292  -15.9906 O   0  5  0  0  0  0  0  0  0  0  0  0
   15.2983  -29.2486  -15.8242 O   0  0  0  0  0  0  0  0  0  0  0  0
   15.5760  -18.6983  -21.5476 C   0  0  0  0  0  0  0  0  0  0  0  0
   14.4633  -18.1527  -22.2984 N   0  0  0  0  0  0  0  0  0  0  0  0
   19.4201  -24.8656  -19.3859 O   0  0  0  0  0  0  0  0  0  0  0  0
   17.6735  -28.9413  -18.0306 O   0  0  0  0  0  0  0  0  0  0  0  0
   16.6930  -28.5069  -13.9337 O   0  5  0  0  0  0  0  0  0  0  0  0
   15.3209  -19.5305  -20.5587 N   0  0  0  0  0  0  0  0  0  0  0  0
   19.0593  -26.8167  -17.7305 O   0  0  0  0  0  0  0  0  0  0  0  0
   16.9038  -27.2918  -16.2105 O   0  0  0  0  0  0  0  0  0  0  0  0
   14.7859  -27.1154  -14.7069 O   0  0  0  0  0  0  0  0  0  0  0  0
   16.3201  -20.0570  -19.8405 C   0  0  0  0  0  0  0  0  0  0  0  0
   17.6180  -19.7106  -20.1575 C   0  0  0  0  0  0  0  0  0  0  0  0
   17.8669  -18.8185  -21.2184 C   0  0  0  0  0  0  0  0  0  0  0  0
   19.1779  -18.4466  -21.5645 O   0  0  0  0  0  0  0  0  0  0  0  0
   18.4303  -20.3593  -19.3057 N   0  0  0  0  0  0  0  0  0  0  0  0
   17.6685  -21.0760  -18.4977 C   0  0  0  0  0  0  0  0  0  0  0  0
   16.3960  -20.9089  -18.8059 N   0  0  0  0  0  0  0  0  0  0  0  0
  1  5  1  1  0  0  0
  1 14  1  0  0  0  0
  1 19  2  0  0  0  0
  1 23  1  0  0  0  0
  2 15  1  1  0  0  0
  2 20  2  0  0  0  0
  2 23  1  0  0  0  0
  2 24  1  0  0  0  0
  3 16  1  6  0  0  0
  3 21  1  0  0  0  0
  3 24  1  0  0  0  0
  3 25  2  0  0  0  0
  4  5  1  0  0  0  0
  6  4  1  6  0  0  0
  6  7  1  0  0  0  0
  6  8  1  0  0  0  0
  7 12  1  0  0  0  0
  8  9  1  1  0  0  0
  8 10  1  0  0  0  0
 10 11  1  1  0  0  0
 10 12  1  0  0  0  0
 12 32  1  6  0  0  0
 13 17  2  0  0  0  0
 13 28  1  0  0  0  0
 17 18  1  0  0  0  0
 17 22  1  0  0  0  0
 22 26  2  0  0  0  0
 26 27  1  0  0  0  0
 26 32  1  0  0  0  0
 27 28  2  0  0  0  0
 27 30  1  0  0  0  0
 28 29  1  0  0  0  0
 30 31  2  0  0  0  0
 31 32  1  0  0  0  0
M  CHG  3  14  -1  15  -1  21  -1
M  END
>  <CHROM.1>
-156.85900125,170.48906162,-56.88074485,-172.52920710,176.37710754,-179.70978864
53.89567269,-48.40704456,16.73676550,-24.16478542,-18.34688498,-1.50197817
0.37462943,-0.49953902

>  <Name>
ligand

>  <RI>
0

>  <Rbt.Current_Directory>
/home/itssahil/PROJECTS/Mol_Feturizer/New_Systems/rnas/4Y1I

>  <Rbt.Executable>
rbdock ($Id: //depot/dev/client3/rdock/2013.1/src/exe/rbdock.cxx#4 $)

>  <Rbt.Library>
libRbt.so (2013.1, Build901 2013/11/27)

>  <Rbt.Parameter_File>
/export/apps/rDock/src/rDock_2013.1_src/data/scripts/dock_solv.prm

>  <Rbt.Receptor>
prm/pocket_docking_6.prm

>  <SCORE>
-9.05768

>  <SCORE.INTER>
-2.62325

>  <SCORE.INTER.CONST>
1

>  <SCORE.INTER.POLAR>
0

>  <SCORE.INTER.ROT>
8

>  <SCORE.INTER.SOLV>
8.15847

>  <SCORE.INTER.VDW>
-13.4017

>  <SCORE.INTER.norm>
-0.0819765

>  <SCORE.INTRA>
-6.43443

>  <SCORE.INTRA.DIHEDRAL>
-8.2106

>  <SCORE.INTRA.DIHEDRAL.0>
10.9594

>  <SCORE.INTRA.POLAR>
0

>  <SCORE.INTRA.POLAR.0>
0

>  <SCORE.INTRA.REPUL>
0

>  <SCORE.INTRA.REPUL.0>
0

>  <SCORE.INTRA.SOLV>
-5.29475

>  <SCORE.INTRA.SOLV.lig_0>
-124.914

>  <SCORE.INTRA.VDW>
0.318242

>  <SCORE.INTRA.VDW.0>
-4.69801

>  <SCORE.INTRA.norm>
-0.201076

>  <SCORE.RESTR>
0

>  <SCORE.RESTR.CAVITY>
0

>  <SCORE.RESTR.norm>
0

>  <SCORE.SYSTEM>
0

>  <SCORE.SYSTEM.CONST>
0

>  <SCORE.SYSTEM.DIHEDRAL>
0

>  <SCORE.SYSTEM.SOLV>
0

>  <SCORE.SYSTEM.norm>
0

>  <SCORE.heavy>
32

>  <SCORE.norm>
-0.283052

>  <RMSD>
5.045

$$$$
ligand
 OpenBabel11021811513D
libRbt.so/2013.1/901 2013/11/27
 32 34  0  0  0  0  0  0  0  0999 V2000
   14.3293  -23.6892  -16.0402 P   0  0  1  0  0  0  0  0  0  0  0  0
   14.8613  -25.3937  -13.7946 P   0  0  2  0  0  0  0  0  0  0  0  0
   12.8428  -25.8155  -11.7058 P   0  0  1  0  0  0  0  0  0  0  0  0
   16.0571  -23.4254  -17.9732 C   0  0  0  0  0  0  0  0  0  0  0  0
   15.5948  -24.2428  -16.9359 O   0  0  0  0  0  0  0  0  0  0  0  0
   16.9214  -24.1504  -18.7861 C   0  0  1  0  0  0  0  0  0  0  0  0
   17.3113  -23.3211  -19.9944 O   0  0  0  0  0  0  0  0  0  0  0  0
   18.2868  -24.4879  -18.0285 C   0  0  1  0  0  0  0  0  0  0  0  0
   18.4038  -25.9842  -17.8459 O   0  0  0  0  0  0  0  0  0  0  0  0
   19.1936  -24.1396  -18.7886 C   0  0  1  0  0  0  0  0  0  0  0  0
   19.6704  -25.3150  -19.5560 O   0  0  0  0  0  0  0  0  0  0  0  0
   18.5352  -23.0124  -19.8230 C   0  0  2  0  0  0  0  0  0  0  0  0
   21.5702  -18.9654  -18.9312 N   0  0  0  0  0  0  0  0  0  0  0  0
   14.7545  -22.4775  -15.2482 O   0  5  0  0  0  0  0  0  0  0  0  0
   16.2036  -24.7129  -13.8902 O   0  5  0  0  0  0  0  0  0  0  0  0
   13.1872  -27.2714  -11.4962 O   0  0  0  0  0  0  0  0  0  0  0  0
   21.8890  -20.1173  -19.5007 C   0  0  0  0  0  0  0  0  0  0  0  0
   23.2479  -20.3341  -19.9548 N   0  0  0  0  0  0  0  0  0  0  0  0
   13.1860  -23.3532  -16.9708 O   0  0  0  0  0  0  0  0  0  0  0  0
   15.0394  -26.8824  -13.9385 O   0  0  0  0  0  0  0  0  0  0  0  0
   12.4906  -25.1926  -10.3725 O   0  5  0  0  0  0  0  0  0  0  0  0
   21.0070  -21.0810  -19.6705 N   0  0  0  0  0  0  0  0  0  0  0  0
   13.8716  -24.8716  -14.9957 O   0  0  0  0  0  0  0  0  0  0  0  0
   14.1700  -25.0625  -12.3392 O   0  0  0  0  0  0  0  0  0  0  0  0
   11.6708  -25.7182  -12.6578 O   0  0  0  0  0  0  0  0  0  0  0  0
   19.7414  -20.9211  -19.2650 C   0  0  0  0  0  0  0  0  0  0  0  0
   19.3826  -19.7297  -18.6677 C   0  0  0  0  0  0  0  0  0  0  0  0
   20.3422  -18.7133  -18.4973 C   0  0  0  0  0  0  0  0  0  0  0  0
   20.0065  -17.4890  -17.8929 O   0  0  0  0  0  0  0  0  0  0  0  0
   18.0784  -19.8106  -18.3534 N   0  0  0  0  0  0  0  0  0  0  0  0
   17.6494  -20.9998  -18.7388 C   0  0  0  0  0  0  0  0  0  0  0  0
   18.6366  -21.6832  -19.2872 N   0  0  0  0  0  0  0  0  0  0  0  0
  1  5  1  6  0  0  0
  1 14  1  0  0  0  0
  1 19  2  0  0  0  0
  1 23  1  0  0  0  0
  2 15  1  6  0  0  0
  2 20  2  0  0  0  0
  2 23  1  0  0  0  0
  2 24  1  0  0  0  0
  3 16  1  1  0  0  0
  3 21  1  0  0  0  0
  3 24  1  0  0  0  0
  3 25  2  0  0  0  0
  4  5  1  0  0  0  0
  6  4  1  1  0  0  0
  6  7  1  0  0  0  0
  6  8  1  0  0  0  0
  7 12  1  0  0  0  0
  8  9  1  6  0  0  0
  8 10  1  0  0  0  0
 10 11  1  6  0  0  0
 10 12  1  0  0  0  0
 12 32  1  1  0  0  0
 13 17  2  0  0  0  0
 13 28  1  0  0  0  0
 17 18  1  0  0  0  0
 17 22  1  0  0  0  0
 22 26  2  0  0  0  0
 26 27  1  0  0  0  0
 26 32  1  0  0  0  0
 27 28  2  0  0  0  0
 27 30  1  0  0  0  0
 28 29  1  0  0  0  0
 30 31  2  0  0  0  0
 31 32  1  0  0  0  0
M  CHG  3  14  -1  15  -1  21  -1
M  END
>  <CHROM.1>
-66.76714307,-4.08257860,63.17808098,173.97820021,-167.68880080,-163.79995070
65.08183922,-168.11767957,16.66512952,-23.38603048,-16.43182637,2.89978666
-0.84560477,-2.81291779

>  <Name>
ligand

>  <RI>
0

>  <Rbt.Current_Directory>
/home/itssahil/PROJECTS/Mol_Feturizer/New_Systems/rnas/4Y1I

>  <Rbt.Executable>
rbdock ($Id: //depot/dev/client3/rdock/2013.1/src/exe/rbdock.cxx#4 $)

>  <Rbt.Library>
libRbt.so (2013.1, Build901 2013/11/27)

>  <Rbt.Parameter_File>
/export/apps/rDock/src/rDock_2013.1_src/data/scripts/dock_solv.prm

>  <Rbt.Receptor>
prm/pocket_docking_7.prm

>  <SCORE>
-10.1934

>  <SCORE.INTER>
-5.38489

>  <SCORE.INTER.CONST>
1

>  <SCORE.INTER.POLAR>
0

>  <SCORE.INTER.ROT>
8

>  <SCORE.INTER.SOLV>
11.6123

>  <SCORE.INTER.VDW>
-16.394

>  <SCORE.INTER.norm>
-0.168278

>  <SCORE.INTRA>
-4.80848

>  <SCORE.INTRA.DIHEDRAL>
-6.17563

>  <SCORE.INTRA.DIHEDRAL.0>
10.9594

>  <SCORE.INTRA.POLAR>
0

>  <SCORE.INTRA.POLAR.0>
0

>  <SCORE.INTRA.REPUL>
0

>  <SCORE.INTRA.REPUL.0>
0

>  <SCORE.INTRA.SOLV>
-5.05353

>  <SCORE.INTRA.SOLV.lig_0>
-124.914

>  <SCORE.INTRA.VDW>
0.806099

>  <SCORE.INTRA.VDW.0>
-4.69801

>  <SCORE.INTRA.norm>
-0.150265

>  <SCORE.RESTR>
0

>  <SCORE.RESTR.CAVITY>
0

>  <SCORE.RESTR.norm>
0

>  <SCORE.SYSTEM>
0

>  <SCORE.SYSTEM.CONST>
0

>  <SCORE.SYSTEM.DIHEDRAL>
0

>  <SCORE.SYSTEM.SOLV>
0

>  <SCORE.SYSTEM.norm>
0

>  <SCORE.heavy>
32

>  <SCORE.norm>
-0.318543

>  <RMSD>
5.049

$$$$
ligand
 OpenBabel11021811513D
libRbt.so/2013.1/901 2013/11/27
 32 34  0  0  0  0  0  0  0  0999 V2000
   14.8768  -28.9392  -18.8042 P   0  0  1  0  0  0  0  0  0  0  0  0
   14.7819  -30.5144  -16.4082 P   0  0  2  0  0  0  0  0  0  0  0  0
   11.9039  -30.0726  -16.0373 P   0  0  1  0  0  0  0  0  0  0  0  0
   16.6271  -27.0230  -19.0406 C   0  0  0  0  0  0  0  0  0  0  0  0
   16.3965  -28.3354  -18.6138 O   0  0  0  0  0  0  0  0  0  0  0  0
   16.1106  -26.1328  -18.1057 C   0  0  1  0  0  0  0  0  0  0  0  0
   17.0012  -26.0984  -16.8786 O   0  0  0  0  0  0  0  0  0  0  0  0
   16.0906  -24.6396  -18.6732 C   0  0  1  0  0  0  0  0  0  0  0  0
   14.6592  -24.1697  -18.8015 O   0  0  0  0  0  0  0  0  0  0  0  0
   16.6299  -23.9403  -17.8121 C   0  0  1  0  0  0  0  0  0  0  0  0
   15.5879  -23.3182  -16.9606 O   0  0  0  0  0  0  0  0  0  0  0  0
   17.5767  -24.9623  -16.8994 C   0  0  2  0  0  0  0  0  0  0  0  0
   21.4899  -28.1096  -17.9791 N   0  0  0  0  0  0  0  0  0  0  0  0
   13.8727  -28.0043  -18.1767 O   0  5  0  0  0  0  0  0  0  0  0  0
   16.0602  -29.9577  -15.8337 O   0  5  0  0  0  0  0  0  0  0  0  0
   11.6406  -30.1199  -17.5242 O   0  0  0  0  0  0  0  0  0  0  0  0
   20.3333  -28.4084  -17.4084 C   0  0  0  0  0  0  0  0  0  0  0  0
   20.0685  -29.7767  -17.0118 N   0  0  0  0  0  0  0  0  0  0  0  0
   14.6047  -29.1127  -20.2814 O   0  0  0  0  0  0  0  0  0  0  0  0
   14.6547  -31.9693  -16.0395 O   0  0  0  0  0  0  0  0  0  0  0  0
   11.6227  -31.4345  -15.4408 O   0  5  0  0  0  0  0  0  0  0  0  0
   19.4073  -27.4980  -17.1868 N   0  0  0  0  0  0  0  0  0  0  0  0
   14.7936  -30.3938  -18.0453 O   0  0  0  0  0  0  0  0  0  0  0  0
   13.4936  -29.6833  -15.8120 O   0  0  0  0  0  0  0  0  0  0  0  0
   11.0062  -29.0283  -15.4106 O   0  0  0  0  0  0  0  0  0  0  0  0
   19.6123  -26.2227  -17.5377 C   0  0  0  0  0  0  0  0  0  0  0  0
   20.8101  -25.8841  -18.1342 C   0  0  0  0  0  0  0  0  0  0  0  0
   21.7851  -26.8742  -18.3620 C   0  0  0  0  0  0  0  0  0  0  0  0
   23.0143  -26.5599  -18.9680 O   0  0  0  0  0  0  0  0  0  0  0  0
   20.7770  -24.5650  -18.3895 N   0  0  0  0  0  0  0  0  0  0  0  0
   19.6105  -24.1076  -17.9690 C   0  0  0  0  0  0  0  0  0  0  0  0
   18.8971  -25.0900  -17.4511 N   0  0  0  0  0  0  0  0  0  0  0  0
  1  5  1  1  0  0  0
  1 14  1  0  0  0  0
  1 19  2  0  0  0  0
  1 23  1  0  0  0  0
  2 15  1  1  0  0  0
  2 20  2  0  0  0  0
  2 23  1  0  0  0  0
  2 24  1  0  0  0  0
  3 16  1  6  0  0  0
  3 21  1  0  0  0  0
  3 24  1  0  0  0  0
  3 25  2  0  0  0  0
  4  5  1  0  0  0  0
  6  4  1  6  0  0  0
  6  7  1  0  0  0  0
  6  8  1  0  0  0  0
  7 12  1  0  0  0  0
  8  9  1  1  0  0  0
  8 10  1  0  0  0  0
 10 11  1  1  0  0  0
 10 12  1  0  0  0  0
 12 32  1  6  0  0  0
 13 17  2  0  0  0  0
 13 28  1  0  0  0  0
 17 18  1  0  0  0  0
 17 22  1  0  0  0  0
 22 26  2  0  0  0  0
 26 27  1  0  0  0  0
 26 32  1  0  0  0  0
 27 28  2  0  0  0  0
 27 30  1  0  0  0  0
 28 29  1  0  0  0  0
 30 31  2  0  0  0  0
 31 32  1  0  0  0  0
M  CHG  3  14  -1  15  -1  21  -1
M  END
>  <CHROM.1>
-53.13074631,-61.85441137,-57.26798585,74.11660930,77.26604773,-20.15188295
72.00429748,-172.36783427,16.28539353,-27.85258372,-17.49432536,-2.59446664
0.09126521,-0.18902550

>  <Name>
ligand

>  <RI>
0

>  <Rbt.Current_Directory>
/home/itssahil/PROJECTS/Mol_Feturizer/New_Systems/rnas/4Y1I

>  <Rbt.Executable>
rbdock ($Id: //depot/dev/client3/rdock/2013.1/src/exe/rbdock.cxx#4 $)

>  <Rbt.Library>
libRbt.so (2013.1, Build901 2013/11/27)

>  <Rbt.Parameter_File>
/export/apps/rDock/src/rDock_2013.1_src/data/scripts/dock_solv.prm

>  <Rbt.Receptor>
prm/pocket_docking_3.prm

>  <SCORE>
-2.57406

>  <SCORE.INTER>
2.63464

>  <SCORE.INTER.CONST>
1

>  <SCORE.INTER.POLAR>
0

>  <SCORE.INTER.ROT>
8

>  <SCORE.INTER.SOLV>
3.91843

>  <SCORE.INTER.VDW>
-8.48305

>  <SCORE.INTER.norm>
0.0823326

>  <SCORE.INTRA>
-5.2096

>  <SCORE.INTRA.DIHEDRAL>
-7.22888

>  <SCORE.INTRA.DIHEDRAL.0>
10.9594

>  <SCORE.INTRA.POLAR>
0

>  <SCORE.INTRA.POLAR.0>
0

>  <SCORE.INTRA.REPUL>
0

>  <SCORE.INTRA.REPUL.0>
0

>  <SCORE.INTRA.SOLV>
-1.10074

>  <SCORE.INTRA.SOLV.lig_0>
-124.914

>  <SCORE.INTRA.VDW>
-1.04479

>  <SCORE.INTRA.VDW.0>
-4.69801

>  <SCORE.INTRA.norm>
-0.1628

>  <SCORE.RESTR>
0.000898892

>  <SCORE.RESTR.CAVITY>
0.000898892

>  <SCORE.RESTR.norm>
2.80904e-05

>  <SCORE.SYSTEM>
0

>  <SCORE.SYSTEM.CONST>
0

>  <SCORE.SYSTEM.DIHEDRAL>
0

>  <SCORE.SYSTEM.SOLV>
0

>  <SCORE.SYSTEM.norm>
0

>  <SCORE.heavy>
32

>  <SCORE.norm>
-0.0804393

>  <RMSD>
5.067

$$$$
ligand
 OpenBabel11021811513D
libRbt.so/2013.1/901 2013/11/27
 32 34  0  0  0  0  0  0  0  0999 V2000
   14.8233  -26.0625  -17.4460 P   0  0  1  0  0  0  0  0  0  0  0  0
   13.6806  -26.1881  -14.8174 P   0  0  2  0  0  0  0  0  0  0  0  0
   13.4378  -28.8690  -13.6473 P   0  0  1  0  0  0  0  0  0  0  0  0
   15.3326  -23.5100  -17.3168 C   0  0  0  0  0  0  0  0  0  0  0  0
   14.3687  -24.4868  -17.5900 O   0  0  0  0  0  0  0  0  0  0  0  0
   14.8693  -22.2691  -17.7396 C   0  0  1  0  0  0  0  0  0  0  0  0
   15.9018  -21.2010  -17.4341 O   0  0  0  0  0  0  0  0  0  0  0  0
   14.6601  -22.2347  -19.3230 C   0  0  1  0  0  0  0  0  0  0  0  0
   13.1914  -22.0522  -19.6322 O   0  0  0  0  0  0  0  0  0  0  0  0
   15.2467  -21.2259  -19.7226 C   0  0  1  0  0  0  0  0  0  0  0  0
   14.2743  -20.1158  -19.8647 O   0  0  0  0  0  0  0  0  0  0  0  0
   16.3786  -20.8471  -18.5610 C   0  0  2  0  0  0  0  0  0  0  0  0
   21.4158  -20.3646  -19.4436 N   0  0  0  0  0  0  0  0  0  0  0  0
   14.6580  -26.7657  -18.7705 O   0  5  0  0  0  0  0  0  0  0  0  0
   12.8639  -24.9206  -14.8446 O   0  5  0  0  0  0  0  0  0  0  0  0
   14.8739  -28.8356  -13.1795 O   0  0  0  0  0  0  0  0  0  0  0  0
   20.5213  -19.4054  -19.2633 C   0  0  0  0  0  0  0  0  0  0  0  0
   20.9452  -18.0204  -19.3071 N   0  0  0  0  0  0  0  0  0  0  0  0
   16.2618  -26.1125  -16.9829 O   0  0  0  0  0  0  0  0  0  0  0  0
   15.0503  -25.8939  -14.2641 O   0  0  0  0  0  0  0  0  0  0  0  0
   12.5861  -29.5302  -12.5856 O   0  5  0  0  0  0  0  0  0  0  0  0
   19.2492  -19.6680  -19.0436 N   0  0  0  0  0  0  0  0  0  0  0  0
   13.8528  -26.7870  -16.3361 O   0  0  0  0  0  0  0  0  0  0  0  0
   12.9373  -27.3107  -13.8723 O   0  0  0  0  0  0  0  0  0  0  0  0
   13.3594  -29.6456  -14.9435 O   0  0  0  0  0  0  0  0  0  0  0  0
   18.8165  -20.9338  -18.9958 C   0  0  0  0  0  0  0  0  0  0  0  0
   19.7284  -21.9531  -19.1810 C   0  0  0  0  0  0  0  0  0  0  0  0
   21.0835  -21.6486  -19.4136 C   0  0  0  0  0  0  0  0  0  0  0  0
   22.0356  -22.6653  -19.6054 O   0  0  0  0  0  0  0  0  0  0  0  0
   19.0608  -23.1159  -19.0890 N   0  0  0  0  0  0  0  0  0  0  0  0
   17.7917  -22.8286  -18.8576 C   0  0  0  0  0  0  0  0  0  0  0  0
   17.6250  -21.5204  -18.8008 N   0  0  0  0  0  0  0  0  0  0  0  0
  1  5  1  6  0  0  0
  1 14  1  0  0  0  0
  1 19  2  0  0  0  0
  1 23  1  0  0  0  0
  2 15  1  6  0  0  0
  2 20  2  0  0  0  0
  2 23  1  0  0  0  0
  2 24  1  0  0  0  0
  3 16  1  1  0  0  0
  3 21  1  0  0  0  0
  3 24  1  0  0  0  0
  3 25  2  0  0  0  0
  4  5  1  0  0  0  0
  6  4  1  6  0  0  0
  6  7  1  0  0  0  0
  6  8  1  0  0  0  0
  7 12  1  0  0  0  0
  8  9  1  1  0  0  0
  8 10  1  0  0  0  0
 10 11  1  1  0  0  0
 10 12  1  0  0  0  0
 12 32  1  6  0  0  0
 13 17  2  0  0  0  0
 13 28  1  0  0  0  0
 17 18  1  0  0  0  0
 17 22  1  0  0  0  0
 22 26  2  0  0  0  0
 26 27  1  0  0  0  0
 26 32  1  0  0  0  0
 27 28  2  0  0  0  0
 27 30  1  0  0  0  0
 28 29  1  0  0  0  0
 30 31  2  0  0  0  0
 31 32  1  0  0  0  0
M  CHG  3  14  -1  15  -1  21  -1
M  END
>  <CHROM.1>
-119.88513161,72.08599400,54.51276809,179.40184624,168.21675831,-120.08511014
-54.81745963,175.74925793,15.90871209,-24.14949510,-17.17781975,2.13910921
-0.01754460,2.55849486

>  <Name>
ligand

>  <RI>
0

>  <Rbt.Current_Directory>
/home/itssahil/PROJECTS/Mol_Feturizer/New_Systems/rnas/4Y1I

>  <Rbt.Executable>
rbdock ($Id: //depot/dev/client3/rdock/2013.1/src/exe/rbdock.cxx#4 $)

>  <Rbt.Library>
libRbt.so (2013.1, Build901 2013/11/27)

>  <Rbt.Parameter_File>
/export/apps/rDock/src/rDock_2013.1_src/data/scripts/dock_solv.prm

>  <Rbt.Receptor>
prm/pocket_docking_4.prm

>  <SCORE>
-6.34779

>  <SCORE.INTER>
-1.7303

>  <SCORE.INTER.CONST>
1

>  <SCORE.INTER.POLAR>
0

>  <SCORE.INTER.ROT>
8

>  <SCORE.INTER.SOLV>
10.8613

>  <SCORE.INTER.VDW>
-13.7073

>  <SCORE.INTER.norm>
-0.054072

>  <SCORE.INTRA>
-4.61749

>  <SCORE.INTRA.DIHEDRAL>
-6.30431

>  <SCORE.INTRA.DIHEDRAL.0>
10.9594

>  <SCORE.INTRA.POLAR>
0

>  <SCORE.INTRA.POLAR.0>
0

>  <SCORE.INTRA.REPUL>
0

>  <SCORE.INTRA.REPUL.0>
0

>  <SCORE.INTRA.SOLV>
-4.20781

>  <SCORE.INTRA.SOLV.lig_0>
-124.914

>  <SCORE.INTRA.VDW>
0.638571

>  <SCORE.INTRA.VDW.0>
-4.69801

>  <SCORE.INTRA.norm>
-0.144297

>  <SCORE.RESTR>
0

>  <SCORE.RESTR.CAVITY>
0

>  <SCORE.RESTR.norm>
0

>  <SCORE.SYSTEM>
0

>  <SCORE.SYSTEM.CONST>
0

>  <SCORE.SYSTEM.DIHEDRAL>
0

>  <SCORE.SYSTEM.SOLV>
0

>  <SCORE.SYSTEM.norm>
0

>  <SCORE.heavy>
32

>  <SCORE.norm>
-0.198369

>  <RMSD>
5.072

$$$$
ligand
 OpenBabel11021811513D
libRbt.so/2013.1/901 2013/11/27
 32 34  0  0  0  0  0  0  0  0999 V2000
   16.4650  -24.9645  -15.6524 P   0  0  1  0  0  0  0  0  0  0  0  0
   16.4085  -27.4978  -16.9979 P   0  0  2  0  0  0  0  0  0  0  0  0
   13.8982  -29.0030  -16.7785 P   0  0  1  0  0  0  0  0  0  0  0  0
   14.8138  -24.0885  -17.4683 C   0  0  0  0  0  0  0  0  0  0  0  0
   15.1849  -24.0410  -16.1199 O   0  0  0  0  0  0  0  0  0  0  0  0
   13.6683  -23.3245  -17.6621 C   0  0  1  0  0  0  0  0  0  0  0  0
   13.9072  -21.9053  -17.1841 O   0  0  0  0  0  0  0  0  0  0  0  0
   13.3024  -23.2077  -19.2128 C   0  0  1  0  0  0  0  0  0  0  0  0
   11.9812  -23.8961  -19.4708 O   0  0  0  0  0  0  0  0  0  0  0  0
   13.1386  -22.0056  -19.4349 C   0  0  1  0  0  0  0  0  0  0  0  0
   11.6923  -21.6864  -19.3704 O   0  0  0  0  0  0  0  0  0  0  0  0
   13.9567  -21.1887  -18.2360 C   0  0  2  0  0  0  0  0  0  0  0  0
   17.1817  -18.8472  -21.4767 N   0  0  0  0  0  0  0  0  0  0  0  0
   17.6247  -24.7445  -16.5920 O   0  5  0  0  0  0  0  0  0  0  0  0
   17.8835  -27.8114  -16.9886 O   0  5  0  0  0  0  0  0  0  0  0  0
   13.2795  -28.1095  -17.8278 O   0  0  0  0  0  0  0  0  0  0  0  0
   15.8581  -18.8210  -21.4785 C   0  0  0  0  0  0  0  0  0  0  0  0
   15.1633  -18.0553  -22.4936 N   0  0  0  0  0  0  0  0  0  0  0  0
   16.8393  -24.5937  -14.2351 O   0  0  0  0  0  0  0  0  0  0  0  0
   16.0575  -26.7605  -18.2636 O   0  0  0  0  0  0  0  0  0  0  0  0
   13.4601  -30.4307  -17.0225 O   0  5  0  0  0  0  0  0  0  0  0  0
   15.1448  -19.4719  -20.5823 N   0  0  0  0  0  0  0  0  0  0  0  0
   16.0212  -26.5448  -15.7186 O   0  0  0  0  0  0  0  0  0  0  0  0
   15.5408  -28.8930  -16.9177 O   0  0  0  0  0  0  0  0  0  0  0  0
   13.4479  -28.5412  -15.4098 O   0  0  0  0  0  0  0  0  0  0  0  0
   15.7477  -20.1912  -19.6279 C   0  0  0  0  0  0  0  0  0  0  0  0
   17.1270  -20.2357  -19.6036 C   0  0  0  0  0  0  0  0  0  0  0  0
   17.8689  -19.5313  -20.5713 C   0  0  0  0  0  0  0  0  0  0  0  0
   19.2747  -19.5572  -20.5719 O   0  0  0  0  0  0  0  0  0  0  0  0
   17.4893  -21.0109  -18.5673 N   0  0  0  0  0  0  0  0  0  0  0  0
   16.3829  -21.4280  -17.9767 C   0  0  0  0  0  0  0  0  0  0  0  0
   15.3248  -20.9471  -18.6024 N   0  0  0  0  0  0  0  0  0  0  0  0
  1  5  1  6  0  0  0
  1 14  1  0  0  0  0
  1 19  2  0  0  0  0
  1 23  1  0  0  0  0
  2 15  1  1  0  0  0
  2 20  2  0  0  0  0
  2 23  1  0  0  0  0
  2 24  1  0  0  0  0
  3 16  1  6  0  0  0
  3 21  1  0  0  0  0
  3 24  1  0  0  0  0
  3 25  2  0  0  0  0
  4  5  1  0  0  0  0
  6  4  1  6  0  0  0
  6  7  1  0  0  0  0
  6  8  1  0  0  0  0
  7 12  1  0  0  0  0
  8  9  1  1  0  0  0
  8 10  1  0  0  0  0
 10 11  1  1  0  0  0
 10 12  1  0  0  0  0
 12 32  1  6  0  0  0
 13 17  2  0  0  0  0
 13 28  1  0  0  0  0
 17 18  1  0  0  0  0
 17 22  1  0  0  0  0
 22 26  2  0  0  0  0
 26 27  1  0  0  0  0
 26 32  1  0  0  0  0
 27 28  2  0  0  0  0
 27 30  1  0  0  0  0
 28 29  1  0  0  0  0
 30 31  2  0  0  0  0
 31 32  1  0  0  0  0
M  CHG  3  14  -1  15  -1  21  -1
M  END
>  <CHROM.1>
49.01540547,71.97039771,49.54225002,56.35146563,175.98921610,-177.39477978
98.59138505,174.67265738,15.35143388,-24.03070465,-17.98942343,-1.68689158
-0.26942511,-0.45343512

>  <Name>
ligand

>  <RI>
0

>  <Rbt.Current_Directory>
/home/itssahil/PROJECTS/Mol_Feturizer/New_Systems/rnas/4Y1I

>  <Rbt.Executable>
rbdock ($Id: //depot/dev/client3/rdock/2013.1/src/exe/rbdock.cxx#4 $)

>  <Rbt.Library>
libRbt.so (2013.1, Build901 2013/11/27)

>  <Rbt.Parameter_File>
/export/apps/rDock/src/rDock_2013.1_src/data/scripts/dock_solv.prm

>  <Rbt.Receptor>
prm/pocket_docking_7.prm

>  <SCORE>
-5.76806

>  <SCORE.INTER>
-0.0198042

>  <SCORE.INTER.CONST>
1

>  <SCORE.INTER.POLAR>
0

>  <SCORE.INTER.ROT>
8

>  <SCORE.INTER.SOLV>
11.9175

>  <SCORE.INTER.VDW>
-12.919

>  <SCORE.INTER.norm>
-0.00061888

>  <SCORE.INTRA>
-5.74826

>  <SCORE.INTRA.DIHEDRAL>
-7.2687

>  <SCORE.INTRA.DIHEDRAL.0>
10.9594

>  <SCORE.INTRA.POLAR>
0

>  <SCORE.INTRA.POLAR.0>
0

>  <SCORE.INTRA.REPUL>
0

>  <SCORE.INTRA.REPUL.0>
0

>  <SCORE.INTRA.SOLV>
-4.04597

>  <SCORE.INTRA.SOLV.lig_0>
-124.914

>  <SCORE.INTRA.VDW>
-0.0909246

>  <SCORE.INTRA.VDW.0>
-4.69801

>  <SCORE.INTRA.norm>
-0.179633

>  <SCORE.RESTR>
0

>  <SCORE.RESTR.CAVITY>
0

>  <SCORE.RESTR.norm>
0

>  <SCORE.SYSTEM>
0

>  <SCORE.SYSTEM.CONST>
0

>  <SCORE.SYSTEM.DIHEDRAL>
0

>  <SCORE.SYSTEM.SOLV>
0

>  <SCORE.SYSTEM.norm>
0

>  <SCORE.heavy>
32

>  <SCORE.norm>
-0.180252

>  <RMSD>
5.073

$$$$
ligand
 OpenBabel11021811513D
libRbt.so/2013.1/901 2013/11/27
 32 34  0  0  0  0  0  0  0  0999 V2000
   18.1776  -26.9228  -20.2899 P   0  0  1  0  0  0  0  0  0  0  0  0
   19.3463  -28.8502  -18.5149 P   0  0  2  0  0  0  0  0  0  0  0  0
   17.9533  -29.3406  -15.9783 P   0  0  1  0  0  0  0  0  0  0  0  0
   15.9950  -25.5053  -20.1550 C   0  0  0  0  0  0  0  0  0  0  0  0
   17.3941  -25.4812  -20.1557 O   0  0  0  0  0  0  0  0  0  0  0  0
   15.5103  -24.3237  -19.6053 C   0  0  1  0  0  0  0  0  0  0  0  0
   15.8304  -24.2739  -18.1238 O   0  0  0  0  0  0  0  0  0  0  0  0
   16.2226  -23.0471  -20.2495 C   0  0  1  0  0  0  0  0  0  0  0  0
   15.2018  -22.2331  -21.0121 O   0  0  0  0  0  0  0  0  0  0  0  0
   16.6077  -22.3573  -19.3024 C   0  0  1  0  0  0  0  0  0  0  0  0
   15.6089  -21.2964  -19.0288 O   0  0  0  0  0  0  0  0  0  0  0  0
   16.7273  -23.3791  -17.9926 C   0  0  2  0  0  0  0  0  0  0  0  0
   21.6224  -23.2594  -19.5448 N   0  0  0  0  0  0  0  0  0  0  0  0
   17.3463  -27.8830  -21.1043 O   0  5  0  0  0  0  0  0  0  0  0  0
   20.7628  -28.5523  -18.9380 O   0  5  0  0  0  0  0  0  0  0  0  0
   17.2709  -27.9928  -15.9826 O   0  0  0  0  0  0  0  0  0  0  0  0
   20.6387  -22.4378  -19.8766 C   0  0  0  0  0  0  0  0  0  0  0  0
   20.9033  -21.3433  -20.7885 N   0  0  0  0  0  0  0  0  0  0  0  0
   19.5222  -26.6860  -20.9396 O   0  0  0  0  0  0  0  0  0  0  0  0
   18.8130  -30.0079  -19.3174 O   0  0  0  0  0  0  0  0  0  0  0  0
   17.0139  -30.3735  -16.5616 O   0  5  0  0  0  0  0  0  0  0  0  0
   19.4179  -22.5816  -19.4028 N   0  0  0  0  0  0  0  0  0  0  0  0
   18.3857  -27.5466  -18.7845 O   0  0  0  0  0  0  0  0  0  0  0  0
   19.3099  -29.2295  -16.9147 O   0  0  0  0  0  0  0  0  0  0  0  0
   18.3171  -29.7045  -14.5554 O   0  0  0  0  0  0  0  0  0  0  0  0
   19.1315  -23.5797  -18.5581 C   0  0  0  0  0  0  0  0  0  0  0  0
   20.1389  -24.4510  -18.1961 C   0  0  0  0  0  0  0  0  0  0  0  0
   21.4366  -24.2773  -18.7146 C   0  0  0  0  0  0  0  0  0  0  0  0
   22.4832  -25.1483  -18.3639 O   0  0  0  0  0  0  0  0  0  0  0  0
   19.6105  -25.3532  -17.3518 N   0  0  0  0  0  0  0  0  0  0  0  0
   18.3323  -25.0537  -17.1985 C   0  0  0  0  0  0  0  0  0  0  0  0
   18.0252  -23.9910  -17.9187 N   0  0  0  0  0  0  0  0  0  0  0  0
  1  5  1  1  0  0  0
  1 14  1  0  0  0  0
  1 19  2  0  0  0  0
  1 23  1  0  0  0  0
  2 15  1  6  0  0  0
  2 20  2  0  0  0  0
  2 23  1  0  0  0  0
  2 24  1  0  0  0  0
  3 16  1  1  0  0  0
  3 21  1  0  0  0  0
  3 24  1  0  0  0  0
  3 25  2  0  0  0  0
  4  5  1  0  0  0  0
  6  4  1  6  0  0  0
  6  7  1  0  0  0  0
  6  8  1  0  0  0  0
  7 12  1  0  0  0  0
  8  9  1  1  0  0  0
  8 10  1  0  0  0  0
 10 11  1  1  0  0  0
 10 12  1  0  0  0  0
 12 32  1  6  0  0  0
 13 17  2  0  0  0  0
 13 28  1  0  0  0  0
 17 18  1  0  0  0  0
 17 22  1  0  0  0  0
 22 26  2  0  0  0  0
 26 27  1  0  0  0  0
 26 32  1  0  0  0  0
 27 28  2  0  0  0  0
 27 30  1  0  0  0  0
 28 29  1  0  0  0  0
 30 31  2  0  0  0  0
 31 32  1  0  0  0  0
M  CHG  3  14  -1  15  -1  21  -1
M  END
>  <CHROM.1>
30.70607388,60.27462463,-60.52354237,-68.49200455,160.46862977,135.87381168
-169.66815523,167.59048487,18.38581021,-25.91992776,-18.67573126,1.48181172
-0.05068365,2.76923538

>  <Name>
ligand

>  <RI>
0

>  <Rbt.Current_Directory>
/home/itssahil/PROJECTS/Mol_Feturizer/New_Systems/rnas/4Y1I

>  <Rbt.Executable>
rbdock ($Id: //depot/dev/client3/rdock/2013.1/src/exe/rbdock.cxx#4 $)

>  <Rbt.Library>
libRbt.so (2013.1, Build901 2013/11/27)

>  <Rbt.Parameter_File>
/export/apps/rDock/src/rDock_2013.1_src/data/scripts/dock_solv.prm

>  <Rbt.Receptor>
prm/pocket_docking_5.prm

>  <SCORE>
-6.20277

>  <SCORE.INTER>
0.550376

>  <SCORE.INTER.CONST>
1

>  <SCORE.INTER.POLAR>
0

>  <SCORE.INTER.ROT>
8

>  <SCORE.INTER.SOLV>
4.19196

>  <SCORE.INTER.VDW>
-9.96373

>  <SCORE.INTER.norm>
0.0171992

>  <SCORE.INTRA>
-6.75315

>  <SCORE.INTRA.DIHEDRAL>
-6.25672

>  <SCORE.INTRA.DIHEDRAL.0>
10.9594

>  <SCORE.INTRA.POLAR>
0

>  <SCORE.INTRA.POLAR.0>
0

>  <SCORE.INTRA.REPUL>
0

>  <SCORE.INTRA.REPUL.0>
0

>  <SCORE.INTRA.SOLV>
-2.3773

>  <SCORE.INTRA.SOLV.lig_0>
-124.914

>  <SCORE.INTRA.VDW>
-2.43613

>  <SCORE.INTRA.VDW.0>
-4.69801

>  <SCORE.INTRA.norm>
-0.211036

>  <SCORE.RESTR>
0

>  <SCORE.RESTR.CAVITY>
0

>  <SCORE.RESTR.norm>
0

>  <SCORE.SYSTEM>
0

>  <SCORE.SYSTEM.CONST>
0

>  <SCORE.SYSTEM.DIHEDRAL>
0

>  <SCORE.SYSTEM.SOLV>
0

>  <SCORE.SYSTEM.norm>
0

>  <SCORE.heavy>
32

>  <SCORE.norm>
-0.193837

>  <RMSD>
5.086

$$$$
ligand
 OpenBabel11021811513D
libRbt.so/2013.1/901 2013/11/27
 32 34  0  0  0  0  0  0  0  0999 V2000
   14.5303  -22.8917  -16.4984 P   0  0  1  0  0  0  0  0  0  0  0  0
   15.2253  -24.4765  -14.2100 P   0  0  2  0  0  0  0  0  0  0  0  0
   14.7308  -27.3208  -14.7397 P   0  0  1  0  0  0  0  0  0  0  0  0
   16.2835  -22.9042  -18.4264 C   0  0  0  0  0  0  0  0  0  0  0  0
   15.8042  -23.5683  -17.2919 O   0  0  0  0  0  0  0  0  0  0  0  0
   17.2352  -23.6951  -19.0604 C   0  0  1  0  0  0  0  0  0  0  0  0
   17.8637  -22.9273  -20.2074 O   0  0  0  0  0  0  0  0  0  0  0  0
   18.4352  -24.0655  -18.0730 C   0  0  1  0  0  0  0  0  0  0  0  0
   18.4454  -25.5582  -17.8320 O   0  0  0  0  0  0  0  0  0  0  0  0
   19.4731  -23.7849  -18.6773 C   0  0  1  0  0  0  0  0  0  0  0  0
   20.0134  -25.0068  -19.3199 O   0  0  0  0  0  0  0  0  0  0  0  0
   19.0550  -22.6672  -19.8392 C   0  0  2  0  0  0  0  0  0  0  0  0
   22.0562  -18.6203  -18.8388 N   0  0  0  0  0  0  0  0  0  0  0  0
   14.4365  -21.4249  -16.8383 O   0  5  0  0  0  0  0  0  0  0  0  0
   14.7754  -24.5413  -12.7721 O   0  5  0  0  0  0  0  0  0  0  0  0
   13.9621  -28.0960  -15.7841 O   0  0  0  0  0  0  0  0  0  0  0  0
   22.4037  -19.7885  -19.3560 C   0  0  0  0  0  0  0  0  0  0  0  0
   23.7888  -20.0263  -19.7088 N   0  0  0  0  0  0  0  0  0  0  0  0
   13.2672  -23.6211  -16.8968 O   0  0  0  0  0  0  0  0  0  0  0  0
   16.7263  -24.5848  -14.2743 O   0  0  0  0  0  0  0  0  0  0  0  0
   16.1944  -27.6961  -14.8217 O   0  5  0  0  0  0  0  0  0  0  0  0
   21.5271  -20.7499  -19.5628 N   0  0  0  0  0  0  0  0  0  0  0  0
   14.7797  -23.0466  -14.8820 O   0  0  0  0  0  0  0  0  0  0  0  0
   14.5497  -25.7107  -15.0623 O   0  0  0  0  0  0  0  0  0  0  0  0
   14.1780  -27.6550  -13.3715 O   0  0  0  0  0  0  0  0  0  0  0  0
   20.2379  -20.5710  -19.2506 C   0  0  0  0  0  0  0  0  0  0  0  0
   19.8489  -19.3623  -18.7094 C   0  0  0  0  0  0  0  0  0  0  0  0
   20.8033  -18.3486  -18.4979 C   0  0  0  0  0  0  0  0  0  0  0  0
   20.4372  -17.1071  -17.9489 O   0  0  0  0  0  0  0  0  0  0  0  0
   18.5254  -19.4260  -18.4848 N   0  0  0  0  0  0  0  0  0  0  0  0
   18.1138  -20.6215  -18.8696 C   0  0  0  0  0  0  0  0  0  0  0  0
   19.1306  -21.3255  -19.3307 N   0  0  0  0  0  0  0  0  0  0  0  0
  1  5  1  6  0  0  0
  1 14  1  0  0  0  0
  1 19  2  0  0  0  0
  1 23  1  0  0  0  0
  2 15  1  1  0  0  0
  2 20  2  0  0  0  0
  2 23  1  0  0  0  0
  2 24  1  0  0  0  0
  3 16  1  6  0  0  0
  3 21  1  0  0  0  0
  3 24  1  0  0  0  0
  3 25  2  0  0  0  0
  4  5  1  0  0  0  0
  6  4  1  1  0  0  0
  6  7  1  0  0  0  0
  6  8  1  0  0  0  0
  7 12  1  0  0  0  0
  8  9  1  6  0  0  0
  8 10  1  0  0  0  0
 10 11  1  6  0  0  0
 10 12  1  0  0  0  0
 12 32  1  1  0  0  0
 13 17  2  0  0  0  0
 13 28  1  0  0  0  0
 17 18  1  0  0  0  0
 17 22  1  0  0  0  0
 22 26  2  0  0  0  0
 26 27  1  0  0  0  0
 26 32  1  0  0  0  0
 27 28  2  0  0  0  0
 27 30  1  0  0  0  0
 28 29  1  0  0  0  0
 30 31  2  0  0  0  0
 31 32  1  0  0  0  0
M  CHG  3  14  -1  15  -1  21  -1
M  END
>  <CHROM.1>
-21.05865194,-153.60062413,-178.95378064,-174.19701717,-172.44853963,-157.61382780
-48.13848083,-58.92596149,17.28343711,-23.18802494,-17.08933133,2.44682433
-0.59431253,3.10541203

>  <Name>
ligand

>  <RI>
0

>  <Rbt.Current_Directory>
/home/itssahil/PROJECTS/Mol_Feturizer/New_Systems/rnas/4Y1I

>  <Rbt.Executable>
rbdock ($Id: //depot/dev/client3/rdock/2013.1/src/exe/rbdock.cxx#4 $)

>  <Rbt.Library>
libRbt.so (2013.1, Build901 2013/11/27)

>  <Rbt.Parameter_File>
/export/apps/rDock/src/rDock_2013.1_src/data/scripts/dock_solv.prm

>  <Rbt.Receptor>
prm/pocket_docking_7.prm

>  <SCORE>
-9.21673

>  <SCORE.INTER>
-5.03005

>  <SCORE.INTER.CONST>
1

>  <SCORE.INTER.POLAR>
0

>  <SCORE.INTER.ROT>
8

>  <SCORE.INTER.SOLV>
13.1297

>  <SCORE.INTER.VDW>
-16.6633

>  <SCORE.INTER.norm>
-0.157189

>  <SCORE.INTRA>
-4.18668

>  <SCORE.INTRA.DIHEDRAL>
-6.31534

>  <SCORE.INTRA.DIHEDRAL.0>
10.9594

>  <SCORE.INTRA.POLAR>
0

>  <SCORE.INTRA.POLAR.0>
0

>  <SCORE.INTRA.REPUL>
0

>  <SCORE.INTRA.REPUL.0>
0

>  <SCORE.INTRA.SOLV>
-3.65326

>  <SCORE.INTRA.SOLV.lig_0>
-124.914

>  <SCORE.INTRA.VDW>
0.797621

>  <SCORE.INTRA.VDW.0>
-4.69801

>  <SCORE.INTRA.norm>
-0.130834

>  <SCORE.RESTR>
0

>  <SCORE.RESTR.CAVITY>
0

>  <SCORE.RESTR.norm>
0

>  <SCORE.SYSTEM>
0

>  <SCORE.SYSTEM.CONST>
0

>  <SCORE.SYSTEM.DIHEDRAL>
0

>  <SCORE.SYSTEM.SOLV>
0

>  <SCORE.SYSTEM.norm>
0

>  <SCORE.heavy>
32

>  <SCORE.norm>
-0.288023

>  <RMSD>
5.113

$$$$
ligand
 OpenBabel11021811513D
libRbt.so/2013.1/901 2013/11/27
 32 34  0  0  0  0  0  0  0  0999 V2000
   18.6347  -25.5868  -21.4851 P   0  0  1  0  0  0  0  0  0  0  0  0
   16.6608  -27.6657  -21.6011 P   0  0  2  0  0  0  0  0  0  0  0  0
   15.8597  -28.1145  -18.8133 P   0  0  1  0  0  0  0  0  0  0  0  0
   16.4105  -24.4171  -20.7950 C   0  0  0  0  0  0  0  0  0  0  0  0
   17.7489  -24.6512  -20.4604 O   0  0  0  0  0  0  0  0  0  0  0  0
   15.8424  -23.5557  -19.8631 C   0  0  1  0  0  0  0  0  0  0  0  0
   15.9467  -24.1559  -18.4743 O   0  0  0  0  0  0  0  0  0  0  0  0
   16.6291  -22.1668  -19.7991 C   0  0  1  0  0  0  0  0  0  0  0  0
   15.7213  -21.0527  -20.2690 O   0  0  0  0  0  0  0  0  0  0  0  0
   16.8690  -21.9653  -18.6062 C   0  0  1  0  0  0  0  0  0  0  0  0
   15.8326  -21.0684  -18.0411 O   0  0  0  0  0  0  0  0  0  0  0  0
   16.8083  -23.4508  -17.8554 C   0  0  2  0  0  0  0  0  0  0  0  0
   21.7351  -23.1935  -19.2857 N   0  0  0  0  0  0  0  0  0  0  0  0
   18.3590  -25.1843  -22.9127 O   0  5  0  0  0  0  0  0  0  0  0  0
   16.6610  -29.1373  -21.9308 O   0  5  0  0  0  0  0  0  0  0  0  0
   17.2240  -27.7725  -18.2619 O   0  0  0  0  0  0  0  0  0  0  0  0
   20.7811  -22.2947  -19.4723 C   0  0  0  0  0  0  0  0  0  0  0  0
   21.0939  -21.0578  -20.1593 N   0  0  0  0  0  0  0  0  0  0  0  0
   20.0998  -25.4214  -21.1498 O   0  0  0  0  0  0  0  0  0  0  0  0
   16.1353  -26.8853  -22.7774 O   0  0  0  0  0  0  0  0  0  0  0  0
   14.7985  -27.5859  -17.8730 O   0  5  0  0  0  0  0  0  0  0  0  0
   19.5475  -22.4869  -19.0517 N   0  0  0  0  0  0  0  0  0  0  0  0
   18.1873  -27.1542  -21.2802 O   0  0  0  0  0  0  0  0  0  0  0  0
   15.7082  -27.3877  -20.2892 O   0  0  0  0  0  0  0  0  0  0  0  0
   15.7439  -29.6173  -18.9457 O   0  0  0  0  0  0  0  0  0  0  0  0
   19.2170  -23.6158  -18.4130 C   0  0  0  0  0  0  0  0  0  0  0  0
   20.1927  -24.5698  -18.2057 C   0  0  0  0  0  0  0  0  0  0  0  0
   21.5049  -24.3423  -18.6634 C   0  0  0  0  0  0  0  0  0  0  0  0
   22.5200  -25.2949  -18.4666 O   0  0  0  0  0  0  0  0  0  0  0  0
   19.6229  -25.5971  -17.5530 N   0  0  0  0  0  0  0  0  0  0  0  0
   18.3506  -25.2924  -17.3652 C   0  0  0  0  0  0  0  0  0  0  0  0
   18.0872  -24.1051  -17.8782 N   0  0  0  0  0  0  0  0  0  0  0  0
  1  5  1  1  0  0  0
  1 14  1  0  0  0  0
  1 19  2  0  0  0  0
  1 23  1  0  0  0  0
  2 15  1  6  0  0  0
  2 20  2  0  0  0  0
  2 23  1  0  0  0  0
  2 24  1  0  0  0  0
  3 16  1  1  0  0  0
  3 21  1  0  0  0  0
  3 24  1  0  0  0  0
  3 25  2  0  0  0  0
  4  5  1  0  0  0  0
  6  4  1  6  0  0  0
  6  7  1  0  0  0  0
  6  8  1  0  0  0  0
  7 12  1  0  0  0  0
  8  9  1  1  0  0  0
  8 10  1  0  0  0  0
 10 11  1  1  0  0  0
 10 12  1  0  0  0  0
 12 32  1  6  0  0  0
 13 17  2  0  0  0  0
 13 28  1  0  0  0  0
 17 18  1  0  0  0  0
 17 22  1  0  0  0  0
 22 26  2  0  0  0  0
 26 27  1  0  0  0  0
 26 32  1  0  0  0  0
 27 28  2  0  0  0  0
 27 30  1  0  0  0  0
 28 29  1  0  0  0  0
 30 31  2  0  0  0  0
 31 32  1  0  0  0  0
M  CHG  3  14  -1  15  -1  21  -1
M  END
>  <CHROM.1>
43.86273272,154.72572735,60.93969394,-58.36804127,-176.81625088,119.68031409
62.77261129,55.46619856,17.79408910,-25.18125642,-19.72312908,-2.10888625
0.10912430,0.28996486

>  <Name>
ligand

>  <RI>
0

>  <Rbt.Current_Directory>
/home/itssahil/PROJECTS/Mol_Feturizer/New_Systems/rnas/4Y1I

>  <Rbt.Executable>
rbdock ($Id: //depot/dev/client3/rdock/2013.1/src/exe/rbdock.cxx#4 $)

>  <Rbt.Library>
libRbt.so (2013.1, Build901 2013/11/27)

>  <Rbt.Parameter_File>
/export/apps/rDock/src/rDock_2013.1_src/data/scripts/dock_solv.prm

>  <Rbt.Receptor>
prm/pocket_docking_6.prm

>  <SCORE>
-6.83754

>  <SCORE.INTER>
1.07612

>  <SCORE.INTER.CONST>
1

>  <SCORE.INTER.POLAR>
0

>  <SCORE.INTER.ROT>
8

>  <SCORE.INTER.SOLV>
5.66981

>  <SCORE.INTER.VDW>
-10.1059

>  <SCORE.INTER.norm>
0.0336287

>  <SCORE.INTRA>
-7.91366

>  <SCORE.INTRA.DIHEDRAL>
-8.37304

>  <SCORE.INTRA.DIHEDRAL.0>
10.9594

>  <SCORE.INTRA.POLAR>
0

>  <SCORE.INTRA.POLAR.0>
0

>  <SCORE.INTRA.REPUL>
0

>  <SCORE.INTRA.REPUL.0>
0

>  <SCORE.INTRA.SOLV>
-0.915301

>  <SCORE.INTRA.SOLV.lig_0>
-124.914

>  <SCORE.INTRA.VDW>
-3.26949

>  <SCORE.INTRA.VDW.0>
-4.69801

>  <SCORE.INTRA.norm>
-0.247302

>  <SCORE.RESTR>
0

>  <SCORE.RESTR.CAVITY>
0

>  <SCORE.RESTR.norm>
0

>  <SCORE.SYSTEM>
0

>  <SCORE.SYSTEM.CONST>
0

>  <SCORE.SYSTEM.DIHEDRAL>
0

>  <SCORE.SYSTEM.SOLV>
0

>  <SCORE.SYSTEM.norm>
0

>  <SCORE.heavy>
32

>  <SCORE.norm>
-0.213673

>  <RMSD>
5.121

$$$$
ligand
 OpenBabel11021811513D
libRbt.so/2013.1/901 2013/11/27
 32 34  0  0  0  0  0  0  0  0999 V2000
   16.2664  -28.5804  -19.0025 P   0  0  1  0  0  0  0  0  0  0  0  0
   17.2500  -28.8354  -16.3195 P   0  0  2  0  0  0  0  0  0  0  0  0
   19.9547  -29.3314  -17.3462 P   0  0  1  0  0  0  0  0  0  0  0  0
   16.0514  -26.0629  -19.6408 C   0  0  0  0  0  0  0  0  0  0  0  0
   15.8412  -27.0293  -18.6509 O   0  0  0  0  0  0  0  0  0  0  0  0
   15.5789  -24.8328  -19.1970 C   0  0  1  0  0  0  0  0  0  0  0  0
   16.0941  -24.5561  -17.7977 O   0  0  0  0  0  0  0  0  0  0  0  0
   16.1227  -23.6378  -20.1072 C   0  0  1  0  0  0  0  0  0  0  0  0
   14.9626  -22.9821  -20.8217 O   0  0  0  0  0  0  0  0  0  0  0  0
   16.5928  -22.8037  -19.3297 C   0  0  1  0  0  0  0  0  0  0  0  0
   15.5812  -21.7523  -19.0663 O   0  0  0  0  0  0  0  0  0  0  0  0
   16.9477  -23.6188  -17.9214 C   0  0  2  0  0  0  0  0  0  0  0  0
   21.8361  -22.9405  -19.3457 N   0  0  0  0  0  0  0  0  0  0  0  0
   15.1996  -29.2226  -19.8544 O   0  5  0  0  0  0  0  0  0  0  0  0
   17.4040  -29.9007  -15.2633 O   0  5  0  0  0  0  0  0  0  0  0  0
   19.4198  -30.2000  -18.4606 O   0  0  0  0  0  0  0  0  0  0  0  0
   20.8108  -22.1223  -19.5248 C   0  0  0  0  0  0  0  0  0  0  0  0
   21.0199  -20.8575  -20.2003 N   0  0  0  0  0  0  0  0  0  0  0  0
   17.5971  -28.5683  -19.7203 O   0  0  0  0  0  0  0  0  0  0  0  0
   16.5034  -27.6600  -15.7455 O   0  0  0  0  0  0  0  0  0  0  0  0
   21.0991  -28.4950  -17.8757 O   0  5  0  0  0  0  0  0  0  0  0  0
   19.5975  -22.4201  -19.1069 N   0  0  0  0  0  0  0  0  0  0  0  0
   16.3972  -29.4181  -17.5954 O   0  0  0  0  0  0  0  0  0  0  0  0
   18.7323  -28.3438  -16.8365 O   0  0  0  0  0  0  0  0  0  0  0  0
   20.4299  -30.2173  -16.2154 O   0  0  0  0  0  0  0  0  0  0  0  0
   19.3618  -23.5783  -18.4788 C   0  0  0  0  0  0  0  0  0  0  0  0
   20.4133  -24.4499  -18.2795 C   0  0  0  0  0  0  0  0  0  0  0  0
   21.7021  -24.1101  -18.7341 C   0  0  0  0  0  0  0  0  0  0  0  0
   22.7928  -24.9770  -18.5453 O   0  0  0  0  0  0  0  0  0  0  0  0
   19.9307  -25.5269  -17.6366 N   0  0  0  0  0  0  0  0  0  0  0  0
   18.6376  -25.3306  -17.4470 C   0  0  0  0  0  0  0  0  0  0  0  0
   18.2765  -24.1646  -17.9493 N   0  0  0  0  0  0  0  0  0  0  0  0
  1  5  1  1  0  0  0
  1 14  1  0  0  0  0
  1 19  2  0  0  0  0
  1 23  1  0  0  0  0
  2 15  1  1  0  0  0
  2 20  2  0  0  0  0
  2 23  1  0  0  0  0
  2 24  1  0  0  0  0
  3 16  1  6  0  0  0
  3 21  1  0  0  0  0
  3 24  1  0  0  0  0
  3 25  2  0  0  0  0
  4  5  1  0  0  0  0
  6  4  1  6  0  0  0
  6  7  1  0  0  0  0
  6  8  1  0  0  0  0
  7 12  1  0  0  0  0
  8  9  1  1  0  0  0
  8 10  1  0  0  0  0
 10 11  1  1  0  0  0
 10 12  1  0  0  0  0
 12 32  1  6  0  0  0
 13 17  2  0  0  0  0
 13 28  1  0  0  0  0
 17 18  1  0  0  0  0
 17 22  1  0  0  0  0
 22 26  2  0  0  0  0
 26 27  1  0  0  0  0
 26 32  1  0  0  0  0
 27 28  2  0  0  0  0
 27 30  1  0  0  0  0
 28 29  1  0  0  0  0
 30 31  2  0  0  0  0
 31 32  1  0  0  0  0
M  CHG  3  14  -1  15  -1  21  -1
M  END
>  <CHROM.1>
-79.26998767,-170.12699103,55.21594291,48.30764778,177.17220948,157.21817052
-48.56459767,50.99479795,18.16705486,-26.27290880,-18.26744529,1.68587266
0.14430194,2.83053189

>  <Name>
ligand

>  <RI>
0

>  <Rbt.Current_Directory>
/home/itssahil/PROJECTS/Mol_Feturizer/New_Systems/rnas/4Y1I

>  <Rbt.Executable>
rbdock ($Id: //depot/dev/client3/rdock/2013.1/src/exe/rbdock.cxx#4 $)

>  <Rbt.Library>
libRbt.so (2013.1, Build901 2013/11/27)

>  <Rbt.Parameter_File>
/export/apps/rDock/src/rDock_2013.1_src/data/scripts/dock_solv.prm

>  <Rbt.Receptor>
prm/pocket_docking_4.prm

>  <SCORE>
-6.41692

>  <SCORE.INTER>
0.763302

>  <SCORE.INTER.CONST>
1

>  <SCORE.INTER.POLAR>
0

>  <SCORE.INTER.ROT>
8

>  <SCORE.INTER.SOLV>
6.18341

>  <SCORE.INTER.VDW>
-10.4856

>  <SCORE.INTER.norm>
0.0238532

>  <SCORE.INTRA>
-7.18022

>  <SCORE.INTRA.DIHEDRAL>
-8.18662

>  <SCORE.INTRA.DIHEDRAL.0>
10.9594

>  <SCORE.INTRA.POLAR>
0

>  <SCORE.INTRA.POLAR.0>
0

>  <SCORE.INTRA.REPUL>
0

>  <SCORE.INTRA.REPUL.0>
0

>  <SCORE.INTRA.SOLV>
-2.3832

>  <SCORE.INTRA.SOLV.lig_0>
-124.914

>  <SCORE.INTRA.VDW>
-1.89531

>  <SCORE.INTRA.VDW.0>
-4.69801

>  <SCORE.INTRA.norm>
-0.224382

>  <SCORE.RESTR>
0

>  <SCORE.RESTR.CAVITY>
0

>  <SCORE.RESTR.norm>
0

>  <SCORE.SYSTEM>
0

>  <SCORE.SYSTEM.CONST>
0

>  <SCORE.SYSTEM.DIHEDRAL>
0

>  <SCORE.SYSTEM.SOLV>
0

>  <SCORE.SYSTEM.norm>
0

>  <SCORE.heavy>
32

>  <SCORE.norm>
-0.200529

>  <RMSD>
5.148

$$$$
ligand
 OpenBabel11021811513D
libRbt.so/2013.1/901 2013/11/27
 32 34  0  0  0  0  0  0  0  0999 V2000
   18.1271  -24.9926  -18.1783 P   0  0  1  0  0  0  0  0  0  0  0  0
   16.2688  -26.0051  -16.2412 P   0  0  2  0  0  0  0  0  0  0  0  0
   13.6969  -27.0646  -17.1782 P   0  0  1  0  0  0  0  0  0  0  0  0
   16.4091  -23.8862  -19.7957 C   0  0  0  0  0  0  0  0  0  0  0  0
   17.0086  -25.0813  -19.3830 O   0  0  0  0  0  0  0  0  0  0  0  0
   15.5778  -23.4110  -18.7876 C   0  0  1  0  0  0  0  0  0  0  0  0
   16.3719  -22.5447  -17.8290 O   0  0  0  0  0  0  0  0  0  0  0  0
   14.4281  -22.4709  -19.3763 C   0  0  1  0  0  0  0  0  0  0  0  0
   13.0820  -23.1214  -19.1504 O   0  0  0  0  0  0  0  0  0  0  0  0
   14.4536  -21.4382  -18.7023 C   0  0  1  0  0  0  0  0  0  0  0  0
   13.4304  -21.5238  -17.6330 O   0  0  0  0  0  0  0  0  0  0  0  0
   15.9749  -21.3512  -18.0300 C   0  0  2  0  0  0  0  0  0  0  0  0
   16.5560  -18.2972  -22.1191 N   0  0  0  0  0  0  0  0  0  0  0  0
   18.9653  -26.2468  -18.1652 O   0  5  0  0  0  0  0  0  0  0  0  0
   15.7649  -25.6766  -14.8582 O   0  5  0  0  0  0  0  0  0  0  0  0
   14.2003  -28.4701  -16.9471 O   0  0  0  0  0  0  0  0  0  0  0  0
   15.4301  -18.7496  -21.5894 C   0  0  0  0  0  0  0  0  0  0  0  0
   14.1634  -18.3768  -22.1860 N   0  0  0  0  0  0  0  0  0  0  0  0
   18.9871  -23.7695  -18.4034 O   0  0  0  0  0  0  0  0  0  0  0  0
   16.9687  -27.3387  -16.2195 O   0  0  0  0  0  0  0  0  0  0  0  0
   12.8392  -26.6461  -16.0039 O   0  5  0  0  0  0  0  0  0  0  0  0
   15.4212  -19.5330  -20.5303 N   0  0  0  0  0  0  0  0  0  0  0  0
   17.3393  -24.8660  -16.7423 O   0  0  0  0  0  0  0  0  0  0  0  0
   15.0072  -26.0652  -17.2951 O   0  0  0  0  0  0  0  0  0  0  0  0
   12.8887  -27.0344  -18.4570 O   0  0  0  0  0  0  0  0  0  0  0  0
   16.5695  -19.9009  -19.9492 C   0  0  0  0  0  0  0  0  0  0  0  0
   17.7578  -19.4436  -20.4818 C   0  0  0  0  0  0  0  0  0  0  0  0
   17.7431  -18.6064  -21.6140 C   0  0  0  0  0  0  0  0  0  0  0  0
   18.9371  -18.1244  -22.1787 O   0  0  0  0  0  0  0  0  0  0  0  0
   18.7562  -19.9430  -19.7334 N   0  0  0  0  0  0  0  0  0  0  0  0
   18.2096  -20.6774  -18.7801 C   0  0  0  0  0  0  0  0  0  0  0  0
   16.8948  -20.6661  -18.8953 N   0  0  0  0  0  0  0  0  0  0  0  0
  1  5  1  6  0  0  0
  1 14  1  0  0  0  0
  1 19  2  0  0  0  0
  1 23  1  0  0  0  0
  2 15  1  1  0  0  0
  2 20  2  0  0  0  0
  2 23  1  0  0  0  0
  2 24  1  0  0  0  0
  3 16  1  1  0  0  0
  3 21  1  0  0  0  0
  3 24  1  0  0  0  0
  3 25  2  0  0  0  0
  4  5  1  0  0  0  0
  6  4  1  6  0  0  0
  6  7  1  0  0  0  0
  6  8  1  0  0  0  0
  7 12  1  0  0  0  0
  8  9  1  1  0  0  0
  8 10  1  0  0  0  0
 10 11  1  1  0  0  0
 10 12  1  0  0  0  0
 12 32  1  6  0  0  0
 13 17  2  0  0  0  0
 13 28  1  0  0  0  0
 17 18  1  0  0  0  0
 17 22  1  0  0  0  0
 22 26  2  0  0  0  0
 26 27  1  0  0  0  0
 26 32  1  0  0  0  0
 27 28  2  0  0  0  0
 27 30  1  0  0  0  0
 28 29  1  0  0  0  0
 30 31  2  0  0  0  0
 31 32  1  0  0  0  0
M  CHG  3  14  -1  15  -1  21  -1
M  END
>  <CHROM.1>
-162.08473784,176.52457456,-49.53436126,87.62997836,-69.21381795,134.47889120
58.23404966,-58.67464548,16.03999484,-23.34216947,-18.55044649,-1.76129806
-0.01787250,-0.50178172

>  <Name>
ligand

>  <RI>
0

>  <Rbt.Current_Directory>
/home/itssahil/PROJECTS/Mol_Feturizer/New_Systems/rnas/4Y1I

>  <Rbt.Executable>
rbdock ($Id: //depot/dev/client3/rdock/2013.1/src/exe/rbdock.cxx#4 $)

>  <Rbt.Library>
libRbt.so (2013.1, Build901 2013/11/27)

>  <Rbt.Parameter_File>
/export/apps/rDock/src/rDock_2013.1_src/data/scripts/dock_solv.prm

>  <Rbt.Receptor>
prm/pocket_docking_6.prm

>  <SCORE>
-9.62722

>  <SCORE.INTER>
-4.2822

>  <SCORE.INTER.CONST>
1

>  <SCORE.INTER.POLAR>
0

>  <SCORE.INTER.ROT>
8

>  <SCORE.INTER.SOLV>
8.76733

>  <SCORE.INTER.VDW>
-14.7106

>  <SCORE.INTER.norm>
-0.133819

>  <SCORE.INTRA>
-5.34502

>  <SCORE.INTRA.DIHEDRAL>
-6.28782

>  <SCORE.INTRA.DIHEDRAL.0>
10.9594

>  <SCORE.INTRA.POLAR>
0

>  <SCORE.INTRA.POLAR.0>
0

>  <SCORE.INTRA.REPUL>
0

>  <SCORE.INTRA.REPUL.0>
0

>  <SCORE.INTRA.SOLV>
-1.47509

>  <SCORE.INTRA.SOLV.lig_0>
-124.914

>  <SCORE.INTRA.VDW>
-1.46357

>  <SCORE.INTRA.VDW.0>
-4.69801

>  <SCORE.INTRA.norm>
-0.167032

>  <SCORE.RESTR>
0

>  <SCORE.RESTR.CAVITY>
0

>  <SCORE.RESTR.norm>
0

>  <SCORE.SYSTEM>
0

>  <SCORE.SYSTEM.CONST>
0

>  <SCORE.SYSTEM.DIHEDRAL>
0

>  <SCORE.SYSTEM.SOLV>
0

>  <SCORE.SYSTEM.norm>
0

>  <SCORE.heavy>
32

>  <SCORE.norm>
-0.300851

>  <RMSD>
5.156

$$$$
ligand
 OpenBabel11021811513D
libRbt.so/2013.1/901 2013/11/27
 32 34  0  0  0  0  0  0  0  0999 V2000
   15.7471  -25.5197  -15.7571 P   0  0  1  0  0  0  0  0  0  0  0  0
   16.3152  -28.2077  -14.9306 P   0  0  2  0  0  0  0  0  0  0  0  0
   15.2450  -30.4441  -16.5018 P   0  0  1  0  0  0  0  0  0  0  0  0
   14.6557  -23.3288  -16.6517 C   0  0  0  0  0  0  0  0  0  0  0  0
   14.5527  -24.7213  -16.5610 O   0  0  0  0  0  0  0  0  0  0  0  0
   13.6589  -22.8428  -17.4903 C   0  0  1  0  0  0  0  0  0  0  0  0
   13.8019  -21.3410  -17.6461 O   0  0  0  0  0  0  0  0  0  0  0  0
   13.7900  -23.4493  -18.9624 C   0  0  1  0  0  0  0  0  0  0  0  0
   12.5821  -24.3082  -19.2616 O   0  0  0  0  0  0  0  0  0  0  0  0
   13.7546  -22.4864  -19.7324 C   0  0  1  0  0  0  0  0  0  0  0  0
   12.3732  -22.3156  -20.2427 O   0  0  0  0  0  0  0  0  0  0  0  0
   14.2018  -21.1527  -18.8407 C   0  0  2  0  0  0  0  0  0  0  0  0
   18.1976  -18.8788  -21.1316 N   0  0  0  0  0  0  0  0  0  0  0  0
   17.0376  -25.4249  -16.5327 O   0  5  0  0  0  0  0  0  0  0  0  0
   16.5199  -27.8830  -13.4722 O   0  5  0  0  0  0  0  0  0  0  0  0
   14.3188  -29.5230  -17.2607 O   0  0  0  0  0  0  0  0  0  0  0  0
   16.9157  -18.7972  -21.4523 C   0  0  0  0  0  0  0  0  0  0  0  0
   16.5155  -17.9812  -22.5808 N   0  0  0  0  0  0  0  0  0  0  0  0
   15.8970  -24.9111  -14.3811 O   0  0  0  0  0  0  0  0  0  0  0  0
   17.6403  -28.1733  -15.6459 O   0  0  0  0  0  0  0  0  0  0  0  0
   16.4914  -30.6825  -17.3260 O   0  5  0  0  0  0  0  0  0  0  0  0
   15.9838  -19.4369  -20.7757 N   0  0  0  0  0  0  0  0  0  0  0  0
   15.3220  -27.1011  -15.6261 O   0  0  0  0  0  0  0  0  0  0  0  0
   15.6499  -29.7046  -15.0810 O   0  0  0  0  0  0  0  0  0  0  0  0
   14.5316  -31.7518  -16.2368 O   0  0  0  0  0  0  0  0  0  0  0  0
   16.3112  -20.2013  -19.7269 C   0  0  0  0  0  0  0  0  0  0  0  0
   17.6409  -20.3041  -19.3715 C   0  0  0  0  0  0  0  0  0  0  0  0
   18.6199  -19.6106  -20.1088 C   0  0  0  0  0  0  0  0  0  0  0  0
   19.9820  -19.6954  -19.7706 O   0  0  0  0  0  0  0  0  0  0  0  0
   17.7132  -21.1161  -18.3030 N   0  0  0  0  0  0  0  0  0  0  0  0
   16.4826  -21.4991  -18.0105 C   0  0  0  0  0  0  0  0  0  0  0  0
   15.6257  -20.9609  -18.8580 N   0  0  0  0  0  0  0  0  0  0  0  0
  1  5  1  6  0  0  0
  1 14  1  0  0  0  0
  1 19  2  0  0  0  0
  1 23  1  0  0  0  0
  2 15  1  1  0  0  0
  2 20  2  0  0  0  0
  2 23  1  0  0  0  0
  2 24  1  0  0  0  0
  3 16  1  6  0  0  0
  3 21  1  0  0  0  0
  3 24  1  0  0  0  0
  3 25  2  0  0  0  0
  4  5  1  0  0  0  0
  6  4  1  1  0  0  0
  6  7  1  0  0  0  0
  6  8  1  0  0  0  0
  7 12  1  0  0  0  0
  8  9  1  6  0  0  0
  8 10  1  0  0  0  0
 10 11  1  1  0  0  0
 10 12  1  0  0  0  0
 12 32  1  1  0  0  0
 13 17  2  0  0  0  0
 13 28  1  0  0  0  0
 17 18  1  0  0  0  0
 17 22  1  0  0  0  0
 22 26  2  0  0  0  0
 26 27  1  0  0  0  0
 26 32  1  0  0  0  0
 27 28  2  0  0  0  0
 27 30  1  0  0  0  0
 28 29  1  0  0  0  0
 30 31  2  0  0  0  0
 31 32  1  0  0  0  0
M  CHG  3  14  -1  15  -1  21  -1
M  END
>  <CHROM.1>
-67.82706463,64.15709478,-55.04562824,-177.38507446,172.98833589,-148.81120789
177.43062603,179.25363781,15.72567764,-24.49692290,-17.62104414,-1.65799737
-0.31778099,-0.46919027

>  <Name>
ligand

>  <RI>
0

>  <Rbt.Current_Directory>
/home/itssahil/PROJECTS/Mol_Feturizer/New_Systems/rnas/4Y1I

>  <Rbt.Executable>
rbdock ($Id: //depot/dev/client3/rdock/2013.1/src/exe/rbdock.cxx#4 $)

>  <Rbt.Library>
libRbt.so (2013.1, Build901 2013/11/27)

>  <Rbt.Parameter_File>
/export/apps/rDock/src/rDock_2013.1_src/data/scripts/dock_solv.prm

>  <Rbt.Receptor>
prm/pocket_docking_5.prm

>  <SCORE>
-5.64842

>  <SCORE.INTER>
-0.118645

>  <SCORE.INTER.CONST>
1

>  <SCORE.INTER.POLAR>
0

>  <SCORE.INTER.ROT>
8

>  <SCORE.INTER.SOLV>
10.7831

>  <SCORE.INTER.VDW>
-12.6068

>  <SCORE.INTER.norm>
-0.00370765

>  <SCORE.INTRA>
-5.52978

>  <SCORE.INTRA.DIHEDRAL>
-9.28885

>  <SCORE.INTRA.DIHEDRAL.0>
10.9594

>  <SCORE.INTRA.POLAR>
0

>  <SCORE.INTRA.POLAR.0>
0

>  <SCORE.INTRA.REPUL>
0

>  <SCORE.INTRA.REPUL.0>
0

>  <SCORE.INTRA.SOLV>
-3.65962

>  <SCORE.INTRA.SOLV.lig_0>
-124.914

>  <SCORE.INTRA.VDW>
0.944456

>  <SCORE.INTRA.VDW.0>
-4.69801

>  <SCORE.INTRA.norm>
-0.172806

>  <SCORE.RESTR>
0

>  <SCORE.RESTR.CAVITY>
0

>  <SCORE.RESTR.norm>
0

>  <SCORE.SYSTEM>
0

>  <SCORE.SYSTEM.CONST>
0

>  <SCORE.SYSTEM.DIHEDRAL>
0

>  <SCORE.SYSTEM.SOLV>
0

>  <SCORE.SYSTEM.norm>
0

>  <SCORE.heavy>
32

>  <SCORE.norm>
-0.176513

>  <RMSD>
5.157

$$$$
ligand
 OpenBabel11021811513D
libRbt.so/2013.1/901 2013/11/27
 32 34  0  0  0  0  0  0  0  0999 V2000
   19.1051  -29.8154  -16.5839 P   0  0  1  0  0  0  0  0  0  0  0  0
   19.8654  -29.8695  -13.8180 P   0  0  2  0  0  0  0  0  0  0  0  0
   17.5351  -28.6177  -12.5460 P   0  0  1  0  0  0  0  0  0  0  0  0
   17.7178  -27.8835  -17.6490 C   0  0  0  0  0  0  0  0  0  0  0  0
   18.0624  -28.5469  -16.4661 O   0  0  0  0  0  0  0  0  0  0  0  0
   16.8211  -26.8600  -17.3633 C   0  0  1  0  0  0  0  0  0  0  0  0
   17.4880  -25.8195  -16.4843 O   0  0  0  0  0  0  0  0  0  0  0  0
   16.3749  -26.0901  -18.6901 C   0  0  1  0  0  0  0  0  0  0  0  0
   14.8967  -26.3062  -18.9237 O   0  0  0  0  0  0  0  0  0  0  0  0
   16.5375  -24.8896  -18.4588 C   0  0  1  0  0  0  0  0  0  0  0  0
   15.2498  -24.2925  -18.0310 O   0  0  0  0  0  0  0  0  0  0  0  0
   17.6490  -24.7938  -17.2222 C   0  0  2  0  0  0  0  0  0  0  0  0
   21.1744  -22.1405  -19.8522 N   0  0  0  0  0  0  0  0  0  0  0  0
   18.6071  -30.7924  -17.6201 O   0  5  0  0  0  0  0  0  0  0  0  0
   21.2727  -29.4349  -14.1419 O   0  5  0  0  0  0  0  0  0  0  0  0
   17.7896  -29.2449  -11.1953 O   0  0  0  0  0  0  0  0  0  0  0  0
   19.9240  -21.7974  -19.5845 C   0  0  0  0  0  0  0  0  0  0  0  0
   19.4174  -20.5267  -20.0621 N   0  0  0  0  0  0  0  0  0  0  0  0
   20.4731  -29.2870  -16.9520 O   0  0  0  0  0  0  0  0  0  0  0  0
   19.8934  -30.8747  -12.6966 O   0  0  0  0  0  0  0  0  0  0  0  0
   17.0101  -27.2124  -12.3488 O   0  5  0  0  0  0  0  0  0  0  0  0
   19.1179  -22.5773  -18.8935 N   0  0  0  0  0  0  0  0  0  0  0  0
   19.1715  -30.5741  -15.1283 O   0  0  0  0  0  0  0  0  0  0  0  0
   18.9695  -28.5667  -13.3641 O   0  0  0  0  0  0  0  0  0  0  0  0
   16.5239  -29.4566  -13.2964 O   0  0  0  0  0  0  0  0  0  0  0  0
   19.5465  -23.7592  -18.4344 C   0  0  0  0  0  0  0  0  0  0  0  0
   20.8459  -24.1414  -18.6999 C   0  0  0  0  0  0  0  0  0  0  0  0
   21.6900  -23.2912  -19.4399 C   0  0  0  0  0  0  0  0  0  0  0  0
   23.0184  -23.6528  -19.7256 O   0  0  0  0  0  0  0  0  0  0  0  0
   21.0352  -25.3493  -18.1418 N   0  0  0  0  0  0  0  0  0  0  0  0
   19.9027  -25.6992  -17.5573 C   0  0  0  0  0  0  0  0  0  0  0  0
   18.9944  -24.7562  -17.7250 N   0  0  0  0  0  0  0  0  0  0  0  0
  1  5  1  1  0  0  0
  1 14  1  0  0  0  0
  1 19  2  0  0  0  0
  1 23  1  0  0  0  0
  2 15  1  6  0  0  0
  2 20  2  0  0  0  0
  2 23  1  0  0  0  0
  2 24  1  0  0  0  0
  3 16  1  1  0  0  0
  3 21  1  0  0  0  0
  3 24  1  0  0  0  0
  3 25  2  0  0  0  0
  4  5  1  0  0  0  0
  6  4  1  6  0  0  0
  6  7  1  0  0  0  0
  6  8  1  0  0  0  0
  7 12  1  0  0  0  0
  8  9  1  1  0  0  0
  8 10  1  0  0  0  0
 10 11  1  1  0  0  0
 10 12  1  0  0  0  0
 12 32  1  6  0  0  0
 13 17  2  0  0  0  0
 13 28  1  0  0  0  0
 17 18  1  0  0  0  0
 17 22  1  0  0  0  0
 22 26  2  0  0  0  0
 26 27  1  0  0  0  0
 26 32  1  0  0  0  0
 27 28  2  0  0  0  0
 27 30  1  0  0  0  0
 28 29  1  0  0  0  0
 30 31  2  0  0  0  0
 31 32  1  0  0  0  0
M  CHG  3  14  -1  15  -1  21  -1
M  END
>  <CHROM.1>
-52.24880589,-54.06485220,62.61346509,64.12013130,179.16598801,-173.72916110
-69.11644863,-162.35020912,18.77138991,-26.91141960,-16.42021750,-1.68722167
0.15641711,-0.69713110

>  <Name>
ligand

>  <RI>
0

>  <Rbt.Current_Directory>
/home/itssahil/PROJECTS/Mol_Feturizer/New_Systems/rnas/4Y1I

>  <Rbt.Executable>
rbdock ($Id: //depot/dev/client3/rdock/2013.1/src/exe/rbdock.cxx#4 $)

>  <Rbt.Library>
libRbt.so (2013.1, Build901 2013/11/27)

>  <Rbt.Parameter_File>
/export/apps/rDock/src/rDock_2013.1_src/data/scripts/dock_solv.prm

>  <Rbt.Receptor>
prm/pocket_docking_6.prm

>  <SCORE>
-8.49134

>  <SCORE.INTER>
-1.47243

>  <SCORE.INTER.CONST>
1

>  <SCORE.INTER.POLAR>
0

>  <SCORE.INTER.ROT>
8

>  <SCORE.INTER.SOLV>
13.3698

>  <SCORE.INTER.VDW>
-14.3716

>  <SCORE.INTER.norm>
-0.0460134

>  <SCORE.INTRA>
-7.01891

>  <SCORE.INTRA.DIHEDRAL>
-8.86187

>  <SCORE.INTRA.DIHEDRAL.0>
10.9594

>  <SCORE.INTRA.POLAR>
0

>  <SCORE.INTRA.POLAR.0>
0

>  <SCORE.INTRA.REPUL>
0

>  <SCORE.INTRA.REPUL.0>
0

>  <SCORE.INTRA.SOLV>
-4.73168

>  <SCORE.INTRA.SOLV.lig_0>
-124.914

>  <SCORE.INTRA.VDW>
-0.222138

>  <SCORE.INTRA.VDW.0>
-4.69801

>  <SCORE.INTRA.norm>
-0.219341

>  <SCORE.RESTR>
0

>  <SCORE.RESTR.CAVITY>
0

>  <SCORE.RESTR.norm>
0

>  <SCORE.SYSTEM>
0

>  <SCORE.SYSTEM.CONST>
0

>  <SCORE.SYSTEM.DIHEDRAL>
0

>  <SCORE.SYSTEM.SOLV>
0

>  <SCORE.SYSTEM.norm>
0

>  <SCORE.heavy>
32

>  <SCORE.norm>
-0.265354

>  <RMSD>
5.162

$$$$
ligand
 OpenBabel11021811513D
libRbt.so/2013.1/901 2013/11/27
 32 34  0  0  0  0  0  0  0  0999 V2000
   16.5620  -25.4450  -22.5782 P   0  0  1  0  0  0  0  0  0  0  0  0
   16.1260  -27.1464  -20.3096 P   0  0  2  0  0  0  0  0  0  0  0  0
   13.6784  -28.7630  -20.2041 P   0  0  1  0  0  0  0  0  0  0  0  0
   17.6903  -23.3474  -21.5207 C   0  0  0  0  0  0  0  0  0  0  0  0
   16.4815  -23.9722  -21.8472 O   0  0  0  0  0  0  0  0  0  0  0  0
   17.4322  -22.1660  -20.8344 C   0  0  1  0  0  0  0  0  0  0  0  0
   16.6260  -22.4608  -19.5842 O   0  0  0  0  0  0  0  0  0  0  0  0
   18.7835  -21.4784  -20.3311 C   0  0  1  0  0  0  0  0  0  0  0  0
   18.9648  -20.1521  -21.0341 O   0  0  0  0  0  0  0  0  0  0  0  0
   18.6180  -21.2382  -19.1327 C   0  0  1  0  0  0  0  0  0  0  0  0
   18.1855  -19.8296  -18.9689 O   0  0  0  0  0  0  0  0  0  0  0  0
   17.4191  -22.2675  -18.6064 C   0  0  2  0  0  0  0  0  0  0  0  0
   21.4998  -25.3853  -18.4936 N   0  0  0  0  0  0  0  0  0  0  0  0
   15.1888  -25.8596  -23.0460 O   0  5  0  0  0  0  0  0  0  0  0  0
   15.5546  -26.0258  -19.4777 O   0  5  0  0  0  0  0  0  0  0  0  0
   14.2922  -29.6844  -19.1762 O   0  0  0  0  0  0  0  0  0  0  0  0
   21.3920  -24.1996  -19.0727 C   0  0  0  0  0  0  0  0  0  0  0  0
   22.5289  -23.6487  -19.7823 N   0  0  0  0  0  0  0  0  0  0  0  0
   17.5259  -25.3586  -23.7399 O   0  0  0  0  0  0  0  0  0  0  0  0
   16.9429  -28.0593  -19.4333 O   0  0  0  0  0  0  0  0  0  0  0  0
   12.8172  -27.7378  -19.4992 O   0  5  0  0  0  0  0  0  0  0  0  0
   20.2783  -23.4974  -19.0258 N   0  0  0  0  0  0  0  0  0  0  0  0
   17.1031  -26.5432  -21.4827 O   0  0  0  0  0  0  0  0  0  0  0  0
   14.9061  -28.0022  -21.0062 O   0  0  0  0  0  0  0  0  0  0  0  0
   12.8427  -29.5818  -21.1636 O   0  0  0  0  0  0  0  0  0  0  0  0
   19.2050  -23.9703  -18.3809 C   0  0  0  0  0  0  0  0  0  0  0  0
   19.2905  -25.2045  -17.7688 C   0  0  0  0  0  0  0  0  0  0  0  0
   20.4915  -25.9370  -17.8312 C   0  0  0  0  0  0  0  0  0  0  0  0
   20.6089  -27.1964  -17.2172 O   0  0  0  0  0  0  0  0  0  0  0  0
   18.1010  -25.4560  -17.1960 N   0  0  0  0  0  0  0  0  0  0  0  0
   17.3142  -24.4232  -17.4433 C   0  0  0  0  0  0  0  0  0  0  0  0
   17.9603  -23.5204  -18.1573 N   0  0  0  0  0  0  0  0  0  0  0  0
  1  5  1  1  0  0  0
  1 14  1  0  0  0  0
  1 19  2  0  0  0  0
  1 23  1  0  0  0  0
  2 15  1  1  0  0  0
  2 20  2  0  0  0  0
  2 23  1  0  0  0  0
  2 24  1  0  0  0  0
  3 16  1  1  0  0  0
  3 21  1  0  0  0  0
  3 24  1  0  0  0  0
  3 25  2  0  0  0  0
  4  5  1  0  0  0  0
  6  4  1  1  0  0  0
  6  7  1  0  0  0  0
  6  8  1  0  0  0  0
  7 12  1  0  0  0  0
  8  9  1  6  0  0  0
  8 10  1  0  0  0  0
 10 11  1  6  0  0  0
 10 12  1  0  0  0  0
 12 32  1  6  0  0  0
 13 17  2  0  0  0  0
 13 28  1  0  0  0  0
 17 18  1  0  0  0  0
 17 22  1  0  0  0  0
 22 26  2  0  0  0  0
 26 27  1  0  0  0  0
 26 32  1  0  0  0  0
 27 28  2  0  0  0  0
 27 30  1  0  0  0  0
 28 29  1  0  0  0  0
 30 31  2  0  0  0  0
 31 32  1  0  0  0  0
M  CHG  3  14  -1  15  -1  21  -1
M  END
>  <CHROM.1>
-171.16208646,-56.86210977,-54.02264654,58.16807182,-175.98052298,105.04203916
76.73653851,-57.87241406,17.25313955,-25.21370342,-19.98565127,2.53311860
0.62732123,2.67044595

>  <Name>
ligand

>  <RI>
0

>  <Rbt.Current_Directory>
/home/itssahil/PROJECTS/Mol_Feturizer/New_Systems/rnas/4Y1I

>  <Rbt.Executable>
rbdock ($Id: //depot/dev/client3/rdock/2013.1/src/exe/rbdock.cxx#4 $)

>  <Rbt.Library>
libRbt.so (2013.1, Build901 2013/11/27)

>  <Rbt.Parameter_File>
/export/apps/rDock/src/rDock_2013.1_src/data/scripts/dock_solv.prm

>  <Rbt.Receptor>
prm/pocket_docking_5.prm

>  <SCORE>
-5.59726

>  <SCORE.INTER>
1.55014

>  <SCORE.INTER.CONST>
1

>  <SCORE.INTER.POLAR>
0

>  <SCORE.INTER.ROT>
8

>  <SCORE.INTER.SOLV>
7.21972

>  <SCORE.INTER.VDW>
-10.3065

>  <SCORE.INTER.norm>
0.048442

>  <SCORE.INTRA>
-7.14741

>  <SCORE.INTRA.DIHEDRAL>
-8.97922

>  <SCORE.INTRA.DIHEDRAL.0>
10.9594

>  <SCORE.INTRA.POLAR>
0

>  <SCORE.INTRA.POLAR.0>
0

>  <SCORE.INTRA.REPUL>
0.0228511

>  <SCORE.INTRA.REPUL.0>
0

>  <SCORE.INTRA.SOLV>
-3.11148

>  <SCORE.INTRA.SOLV.lig_0>
-124.914

>  <SCORE.INTRA.VDW>
-1.21631

>  <SCORE.INTRA.VDW.0>
-4.69801

>  <SCORE.INTRA.norm>
-0.223357

>  <SCORE.RESTR>
0

>  <SCORE.RESTR.CAVITY>
0

>  <SCORE.RESTR.norm>
0

>  <SCORE.SYSTEM>
0

>  <SCORE.SYSTEM.CONST>
0

>  <SCORE.SYSTEM.DIHEDRAL>
0

>  <SCORE.SYSTEM.SOLV>
0

>  <SCORE.SYSTEM.norm>
0

>  <SCORE.heavy>
32

>  <SCORE.norm>
-0.174915

>  <RMSD>
5.224

$$$$
ligand
 OpenBabel11021811513D
libRbt.so/2013.1/901 2013/11/27
 32 34  0  0  0  0  0  0  0  0999 V2000
   16.0558  -25.3807  -15.9001 P   0  0  1  0  0  0  0  0  0  0  0  0
   14.4326  -27.6859  -16.4314 P   0  0  2  0  0  0  0  0  0  0  0  0
   14.7981  -28.9567  -19.0519 P   0  0  1  0  0  0  0  0  0  0  0  0
   17.6607  -24.7159  -17.8427 C   0  0  0  0  0  0  0  0  0  0  0  0
   17.4662  -24.7399  -16.4572 O   0  0  0  0  0  0  0  0  0  0  0  0
   18.8952  -24.1437  -18.1287 C   0  0  1  0  0  0  0  0  0  0  0  0
   19.9888  -24.8680  -17.3676 O   0  0  0  0  0  0  0  0  0  0  0  0
   19.2636  -24.2977  -19.6756 C   0  0  1  0  0  0  0  0  0  0  0  0
   19.3214  -22.9299  -20.3173 O   0  0  0  0  0  0  0  0  0  0  0  0
   20.4038  -24.7667  -19.7095 C   0  0  1  0  0  0  0  0  0  0  0  0
   21.3824  -23.6674  -19.8876 O   0  0  0  0  0  0  0  0  0  0  0  0
   20.6494  -25.5165  -18.2427 C   0  0  2  0  0  0  0  0  0  0  0  0
   18.6357  -29.3208  -21.0458 N   0  0  0  0  0  0  0  0  0  0  0  0
   16.1348  -25.5692  -14.4053 O   0  5  0  0  0  0  0  0  0  0  0  0
   13.2505  -26.8064  -16.7533 O   0  5  0  0  0  0  0  0  0  0  0  0
   16.1913  -28.3968  -19.2189 O   0  0  0  0  0  0  0  0  0  0  0  0
   18.9047  -28.0807  -21.4232 C   0  0  0  0  0  0  0  0  0  0  0  0
   18.6215  -27.6744  -22.7850 N   0  0  0  0  0  0  0  0  0  0  0  0
   14.9213  -24.4516  -16.2689 O   0  0  0  0  0  0  0  0  0  0  0  0
   14.3375  -28.1561  -15.0036 O   0  0  0  0  0  0  0  0  0  0  0  0
   14.7591  -30.3629  -19.6091 O   0  5  0  0  0  0  0  0  0  0  0  0
   19.4252  -27.1960  -20.5974 N   0  0  0  0  0  0  0  0  0  0  0  0
   15.8318  -26.8459  -16.6084 O   0  0  0  0  0  0  0  0  0  0  0  0
   14.4500  -28.9874  -17.4372 O   0  0  0  0  0  0  0  0  0  0  0  0
   13.8189  -28.0708  -19.7907 O   0  0  0  0  0  0  0  0  0  0  0  0
   19.7015  -27.5306  -19.3312 C   0  0  0  0  0  0  0  0  0  0  0  0
   19.4302  -28.8173  -18.9117 C   0  0  0  0  0  0  0  0  0  0  0  0
   18.8746  -29.7464  -19.8123 C   0  0  0  0  0  0  0  0  0  0  0  0
   18.5879  -31.0641  -19.4143 O   0  0  0  0  0  0  0  0  0  0  0  0
   19.7901  -28.9068  -17.6199 N   0  0  0  0  0  0  0  0  0  0  0  0
   20.2626  -27.7273  -17.2561 C   0  0  0  0  0  0  0  0  0  0  0  0
   20.2148  -26.8857  -18.2717 N   0  0  0  0  0  0  0  0  0  0  0  0
  1  5  1  6  0  0  0
  1 14  1  0  0  0  0
  1 19  2  0  0  0  0
  1 23  1  0  0  0  0
  2 15  1  6  0  0  0
  2 20  2  0  0  0  0
  2 23  1  0  0  0  0
  2 24  1  0  0  0  0
  3 16  1  6  0  0  0
  3 21  1  0  0  0  0
  3 24  1  0  0  0  0
  3 25  2  0  0  0  0
  4  5  1  0  0  0  0
  6  4  1  6  0  0  0
  6  7  1  0  0  0  0
  6  8  1  0  0  0  0
  7 12  1  0  0  0  0
  8  9  1  6  0  0  0
  8 10  1  0  0  0  0
 10 11  1  1  0  0  0
 10 12  1  0  0  0  0
 12 32  1  6  0  0  0
 13 17  2  0  0  0  0
 13 28  1  0  0  0  0
 17 18  1  0  0  0  0
 17 22  1  0  0  0  0
 22 26  2  0  0  0  0
 26 27  1  0  0  0  0
 26 32  1  0  0  0  0
 27 28  2  0  0  0  0
 27 30  1  0  0  0  0
 28 29  1  0  0  0  0
 30 31  2  0  0  0  0
 31 32  1  0  0  0  0
M  CHG  3  14  -1  15  -1  21  -1
M  END
>  <CHROM.1>
169.02135184,50.84247054,59.03420927,54.17832033,179.94357385,120.63706252
-172.08099667,70.64980635,17.32596458,-26.96544474,-18.26450708,3.12738961
-0.53696347,-2.52754211

>  <Name>
ligand

>  <RI>
0

>  <Rbt.Current_Directory>
/home/itssahil/PROJECTS/Mol_Feturizer/New_Systems/rnas/4Y1I

>  <Rbt.Executable>
rbdock ($Id: //depot/dev/client3/rdock/2013.1/src/exe/rbdock.cxx#4 $)

>  <Rbt.Library>
libRbt.so (2013.1, Build901 2013/11/27)

>  <Rbt.Parameter_File>
/export/apps/rDock/src/rDock_2013.1_src/data/scripts/dock_solv.prm

>  <Rbt.Receptor>
prm/pocket_docking_4.prm

>  <SCORE>
-2.47197

>  <SCORE.INTER>
5.22781

>  <SCORE.INTER.CONST>
1

>  <SCORE.INTER.POLAR>
0

>  <SCORE.INTER.ROT>
8

>  <SCORE.INTER.SOLV>
6.47045

>  <SCORE.INTER.VDW>
-7.60494

>  <SCORE.INTER.norm>
0.163369

>  <SCORE.INTRA>
-7.69978

>  <SCORE.INTRA.DIHEDRAL>
-9.05774

>  <SCORE.INTRA.DIHEDRAL.0>
10.9594

>  <SCORE.INTRA.POLAR>
0

>  <SCORE.INTRA.POLAR.0>
0

>  <SCORE.INTRA.REPUL>
0

>  <SCORE.INTRA.REPUL.0>
0

>  <SCORE.INTRA.SOLV>
-4.12159

>  <SCORE.INTRA.SOLV.lig_0>
-124.914

>  <SCORE.INTRA.VDW>
-1.11012

>  <SCORE.INTRA.VDW.0>
-4.69801

>  <SCORE.INTRA.norm>
-0.240618

>  <SCORE.RESTR>
0

>  <SCORE.RESTR.CAVITY>
0

>  <SCORE.RESTR.norm>
0

>  <SCORE.SYSTEM>
0

>  <SCORE.SYSTEM.CONST>
0

>  <SCORE.SYSTEM.DIHEDRAL>
0

>  <SCORE.SYSTEM.SOLV>
0

>  <SCORE.SYSTEM.norm>
0

>  <SCORE.heavy>
32

>  <SCORE.norm>
-0.0772492

>  <RMSD>
5.242

$$$$
ligand
 OpenBabel11021811513D
libRbt.so/2013.1/901 2013/11/27
 32 34  0  0  0  0  0  0  0  0999 V2000
   16.1006  -25.5307  -16.7824 P   0  0  1  0  0  0  0  0  0  0  0  0
   14.1842  -25.5439  -14.6474 P   0  0  2  0  0  0  0  0  0  0  0  0
   13.6008  -28.2209  -13.5945 P   0  0  1  0  0  0  0  0  0  0  0  0
   15.8271  -23.4870  -18.3761 C   0  0  0  0  0  0  0  0  0  0  0  0
   15.6922  -23.9614  -17.0667 O   0  0  0  0  0  0  0  0  0  0  0  0
   15.3169  -22.1961  -18.4575 C   0  0  1  0  0  0  0  0  0  0  0  0
   16.2299  -21.2328  -17.7237 O   0  0  0  0  0  0  0  0  0  0  0  0
   15.2668  -21.6846  -19.9701 C   0  0  1  0  0  0  0  0  0  0  0  0
   13.8273  -21.4759  -20.3828 O   0  0  0  0  0  0  0  0  0  0  0  0
   15.8132  -20.5788  -19.9744 C   0  0  1  0  0  0  0  0  0  0  0  0
   14.7794  -19.5195  -19.8903 O   0  0  0  0  0  0  0  0  0  0  0  0
   16.7902  -20.5301  -18.6264 C   0  0  2  0  0  0  0  0  0  0  0  0
   21.7813  -19.4701  -19.2185 N   0  0  0  0  0  0  0  0  0  0  0  0
   15.3575  -26.4334  -17.7357 O   0  5  0  0  0  0  0  0  0  0  0  0
   13.1454  -25.6335  -15.7369 O   0  5  0  0  0  0  0  0  0  0  0  0
   12.9726  -28.7383  -12.3217 O   0  0  0  0  0  0  0  0  0  0  0  0
   20.7945  -18.6324  -18.9406 C   0  0  0  0  0  0  0  0  0  0  0  0
   21.0851  -17.2234  -18.7680 N   0  0  0  0  0  0  0  0  0  0  0  0
   17.5958  -25.6812  -16.9495 O   0  0  0  0  0  0  0  0  0  0  0  0
   14.2257  -24.1397  -14.1042 O   0  0  0  0  0  0  0  0  0  0  0  0
   12.6726  -28.5033  -14.7556 O   0  5  0  0  0  0  0  0  0  0  0  0
   19.5475  -19.0384  -18.8144 N   0  0  0  0  0  0  0  0  0  0  0  0
   15.6683  -25.9128  -15.2443 O   0  0  0  0  0  0  0  0  0  0  0  0
   13.8119  -26.5902  -13.4339 O   0  0  0  0  0  0  0  0  0  0  0  0
   14.9306  -28.9116  -13.8041 O   0  0  0  0  0  0  0  0  0  0  0  0
   19.2366  -20.3314  -18.9664 C   0  0  0  0  0  0  0  0  0  0  0  0
   20.2467  -21.2260  -19.2570 C   0  0  0  0  0  0  0  0  0  0  0  0
   21.5725  -20.7694  -19.3866 C   0  0  0  0  0  0  0  0  0  0  0  0
   22.6225  -21.6567  -19.6816 O   0  0  0  0  0  0  0  0  0  0  0  0
   19.6909  -22.4452  -19.3604 N   0  0  0  0  0  0  0  0  0  0  0  0
   18.3940  -22.3108  -19.1438 C   0  0  0  0  0  0  0  0  0  0  0  0
   18.1015  -21.0456  -18.9075 N   0  0  0  0  0  0  0  0  0  0  0  0
  1  5  1  6  0  0  0
  1 14  1  0  0  0  0
  1 19  2  0  0  0  0
  1 23  1  0  0  0  0
  2 15  1  6  0  0  0
  2 20  2  0  0  0  0
  2 23  1  0  0  0  0
  2 24  1  0  0  0  0
  3 16  1  1  0  0  0
  3 21  1  0  0  0  0
  3 24  1  0  0  0  0
  3 25  2  0  0  0  0
  4  5  1  0  0  0  0
  6  4  1  6  0  0  0
  6  7  1  0  0  0  0
  6  8  1  0  0  0  0
  7 12  1  0  0  0  0
  8  9  1  1  0  0  0
  8 10  1  0  0  0  0
 10 11  1  1  0  0  0
 10 12  1  0  0  0  0
 12 32  1  6  0  0  0
 13 17  2  0  0  0  0
 13 28  1  0  0  0  0
 17 18  1  0  0  0  0
 17 22  1  0  0  0  0
 22 26  2  0  0  0  0
 26 27  1  0  0  0  0
 26 32  1  0  0  0  0
 27 28  2  0  0  0  0
 27 30  1  0  0  0  0
 28 29  1  0  0  0  0
 30 31  2  0  0  0  0
 31 32  1  0  0  0  0
M  CHG  3  14  -1  15  -1  21  -1
M  END
>  <CHROM.1>
-53.45106038,33.68388308,-167.34857136,70.68669103,174.15853878,-130.68210383
47.65945328,57.01607275,16.42532368,-23.57457242,-17.14524879,-2.13877211
-0.03380551,-0.62974685

>  <Name>
ligand

>  <RI>
0

>  <Rbt.Current_Directory>
/home/itssahil/PROJECTS/Mol_Feturizer/New_Systems/rnas/4Y1I

>  <Rbt.Executable>
rbdock ($Id: //depot/dev/client3/rdock/2013.1/src/exe/rbdock.cxx#4 $)

>  <Rbt.Library>
libRbt.so (2013.1, Build901 2013/11/27)

>  <Rbt.Parameter_File>
/export/apps/rDock/src/rDock_2013.1_src/data/scripts/dock_solv.prm

>  <Rbt.Receptor>
prm/pocket_docking_8.prm

>  <SCORE>
-9.59269

>  <SCORE.INTER>
-4.16158

>  <SCORE.INTER.CONST>
1

>  <SCORE.INTER.POLAR>
0

>  <SCORE.INTER.ROT>
8

>  <SCORE.INTER.SOLV>
11.4832

>  <SCORE.INTER.VDW>
-15.5355

>  <SCORE.INTER.norm>
-0.130049

>  <SCORE.INTRA>
-5.43112

>  <SCORE.INTRA.DIHEDRAL>
-7.59098

>  <SCORE.INTRA.DIHEDRAL.0>
10.9594

>  <SCORE.INTRA.POLAR>
0

>  <SCORE.INTRA.POLAR.0>
0

>  <SCORE.INTRA.REPUL>
0

>  <SCORE.INTRA.REPUL.0>
0

>  <SCORE.INTRA.SOLV>
-4.0006

>  <SCORE.INTRA.SOLV.lig_0>
-124.914

>  <SCORE.INTRA.VDW>
0.364668

>  <SCORE.INTRA.VDW.0>
-4.69801

>  <SCORE.INTRA.norm>
-0.169722

>  <SCORE.RESTR>
0

>  <SCORE.RESTR.CAVITY>
0

>  <SCORE.RESTR.norm>
0

>  <SCORE.SYSTEM>
0

>  <SCORE.SYSTEM.CONST>
0

>  <SCORE.SYSTEM.DIHEDRAL>
0

>  <SCORE.SYSTEM.SOLV>
0

>  <SCORE.SYSTEM.norm>
0

>  <SCORE.heavy>
32

>  <SCORE.norm>
-0.299772

>  <RMSD>
5.242

$$$$
ligand
 OpenBabel11021811513D
libRbt.so/2013.1/901 2013/11/27
 32 34  0  0  0  0  0  0  0  0999 V2000
   15.6616  -24.6971  -14.9587 P   0  0  1  0  0  0  0  0  0  0  0  0
   14.5351  -27.0822  -13.8304 P   0  0  2  0  0  0  0  0  0  0  0  0
   13.0287  -29.5636  -13.3956 P   0  0  1  0  0  0  0  0  0  0  0  0
   14.8167  -23.4237  -17.0697 C   0  0  0  0  0  0  0  0  0  0  0  0
   15.0686  -23.3495  -15.6953 O   0  0  0  0  0  0  0  0  0  0  0  0
   14.4669  -22.1654  -17.5466 C   0  0  1  0  0  0  0  0  0  0  0  0
   15.5977  -21.1860  -17.2974 O   0  0  0  0  0  0  0  0  0  0  0  0
   14.2451  -22.1837  -19.1286 C   0  0  1  0  0  0  0  0  0  0  0  0
   12.7966  -21.8786  -19.4367 O   0  0  0  0  0  0  0  0  0  0  0  0
   14.9190  -21.2536  -19.5782 C   0  0  1  0  0  0  0  0  0  0  0  0
   14.0532  -20.0649  -19.7654 O   0  0  0  0  0  0  0  0  0  0  0  0
   16.0936  -20.9301  -18.4425 C   0  0  2  0  0  0  0  0  0  0  0  0
   21.1123  -20.9670  -19.5361 N   0  0  0  0  0  0  0  0  0  0  0  0
   16.8001  -25.2643  -15.7700 O   0  5  0  0  0  0  0  0  0  0  0  0
   14.4579  -26.5918  -12.4064 O   0  5  0  0  0  0  0  0  0  0  0  0
   12.8563  -29.3111  -11.9161 O   0  0  0  0  0  0  0  0  0  0  0  0
   20.3084  -19.9217  -19.4184 C   0  0  0  0  0  0  0  0  0  0  0  0
   20.8430  -18.5884  -19.6086 N   0  0  0  0  0  0  0  0  0  0  0  0
   16.1212  -24.3271  -13.5666 O   0  0  0  0  0  0  0  0  0  0  0  0
   15.8408  -27.8014  -14.0462 O   0  0  0  0  0  0  0  0  0  0  0  0
   11.7670  -30.1965  -13.9406 O   0  5  0  0  0  0  0  0  0  0  0  0
   19.0292  -20.0524  -19.1319 N   0  0  0  0  0  0  0  0  0  0  0  0
   14.4622  -25.8164  -14.8730 O   0  0  0  0  0  0  0  0  0  0  0  0
   13.2868  -28.1092  -14.1355 O   0  0  0  0  0  0  0  0  0  0  0  0
   14.2114  -30.4840  -13.6041 O   0  0  0  0  0  0  0  0  0  0  0  0
   18.4958  -21.2663  -18.9488 C   0  0  0  0  0  0  0  0  0  0  0  0
   19.3119  -22.3731  -19.0662 C   0  0  0  0  0  0  0  0  0  0  0  0
   20.6767  -22.2093  -19.3723 C   0  0  0  0  0  0  0  0  0  0  0  0
   21.5328  -23.3175  -19.4979 O   0  0  0  0  0  0  0  0  0  0  0  0
   18.5550  -23.4606  -18.8410 N   0  0  0  0  0  0  0  0  0  0  0  0
   17.3246  -23.0448  -18.5956 C   0  0  0  0  0  0  0  0  0  0  0  0
   17.2690  -21.7275  -18.6586 N   0  0  0  0  0  0  0  0  0  0  0  0
  1  5  1  6  0  0  0
  1 14  1  0  0  0  0
  1 19  2  0  0  0  0
  1 23  1  0  0  0  0
  2 15  1  1  0  0  0
  2 20  2  0  0  0  0
  2 23  1  0  0  0  0
  2 24  1  0  0  0  0
  3 16  1  1  0  0  0
  3 21  1  0  0  0  0
  3 24  1  0  0  0  0
  3 25  2  0  0  0  0
  4  5  1  0  0  0  0
  6  4  1  6  0  0  0
  6  7  1  0  0  0  0
  6  8  1  0  0  0  0
  7 12  1  0  0  0  0
  8  9  1  1  0  0  0
  8 10  1  0  0  0  0
 10 11  1  1  0  0  0
 10 12  1  0  0  0  0
 12 32  1  6  0  0  0
 13 17  2  0  0  0  0
 13 28  1  0  0  0  0
 17 18  1  0  0  0  0
 17 22  1  0  0  0  0
 22 26  2  0  0  0  0
 26 27  1  0  0  0  0
 26 32  1  0  0  0  0
 27 28  2  0  0  0  0
 27 30  1  0  0  0  0
 28 29  1  0  0  0  0
 30 31  2  0  0  0  0
 31 32  1  0  0  0  0
M  CHG  3  14  -1  15  -1  21  -1
M  END
>  <CHROM.1>
47.08281696,66.55872274,60.45595782,59.95886690,-173.39659658,-123.36145199
-161.37754289,-63.27077757,15.93474473,-24.30776262,-16.48977533,-2.04590713
0.05706266,-0.62656132

>  <Name>
ligand

>  <RI>
0

>  <Rbt.Current_Directory>
/home/itssahil/PROJECTS/Mol_Feturizer/New_Systems/rnas/4Y1I

>  <Rbt.Executable>
rbdock ($Id: //depot/dev/client3/rdock/2013.1/src/exe/rbdock.cxx#4 $)

>  <Rbt.Library>
libRbt.so (2013.1, Build901 2013/11/27)

>  <Rbt.Parameter_File>
/export/apps/rDock/src/rDock_2013.1_src/data/scripts/dock_solv.prm

>  <Rbt.Receptor>
prm/pocket_docking_5.prm

>  <SCORE>
-10.3878

>  <SCORE.INTER>
-5.0327

>  <SCORE.INTER.CONST>
1

>  <SCORE.INTER.POLAR>
0

>  <SCORE.INTER.ROT>
8

>  <SCORE.INTER.SOLV>
14.1038

>  <SCORE.INTER.VDW>
-16.9897

>  <SCORE.INTER.norm>
-0.157272

>  <SCORE.INTRA>
-5.3551

>  <SCORE.INTRA.DIHEDRAL>
-8.67712

>  <SCORE.INTRA.DIHEDRAL.0>
10.9594

>  <SCORE.INTRA.POLAR>
0

>  <SCORE.INTRA.POLAR.0>
0

>  <SCORE.INTRA.REPUL>
0

>  <SCORE.INTRA.REPUL.0>
0

>  <SCORE.INTRA.SOLV>
-2.98329

>  <SCORE.INTRA.SOLV.lig_0>
-124.914

>  <SCORE.INTRA.VDW>
0.475108

>  <SCORE.INTRA.VDW.0>
-4.69801

>  <SCORE.INTRA.norm>
-0.167347

>  <SCORE.RESTR>
0

>  <SCORE.RESTR.CAVITY>
0

>  <SCORE.RESTR.norm>
0

>  <SCORE.SYSTEM>
0

>  <SCORE.SYSTEM.CONST>
0

>  <SCORE.SYSTEM.DIHEDRAL>
0

>  <SCORE.SYSTEM.SOLV>
0

>  <SCORE.SYSTEM.norm>
0

>  <SCORE.heavy>
32

>  <SCORE.norm>
-0.324619

>  <RMSD>
5.250

$$$$
ligand
 OpenBabel11021811513D
libRbt.so/2013.1/901 2013/11/27
 32 34  0  0  0  0  0  0  0  0999 V2000
   19.6125  -24.9401  -19.1817 P   0  0  1  0  0  0  0  0  0  0  0  0
   17.5376  -25.3007  -17.2334 P   0  0  2  0  0  0  0  0  0  0  0  0
   15.7989  -25.1487  -14.8735 P   0  0  1  0  0  0  0  0  0  0  0  0
   20.2303  -22.4137  -19.3464 C   0  0  0  0  0  0  0  0  0  0  0  0
   19.9285  -23.5814  -20.0559 O   0  0  0  0  0  0  0  0  0  0  0  0
   20.2532  -21.3321  -20.2199 C   0  0  1  0  0  0  0  0  0  0  0  0
   18.9595  -21.2787  -21.0095 O   0  0  0  0  0  0  0  0  0  0  0  0
   20.3398  -19.9470  -19.4286 C   0  0  1  0  0  0  0  0  0  0  0  0
   21.6545  -19.2696  -19.7433 O   0  0  0  0  0  0  0  0  0  0  0  0
   19.4424  -19.2358  -19.8868 C   0  0  1  0  0  0  0  0  0  0  0  0
   20.0064  -18.3409  -20.9256 O   0  0  0  0  0  0  0  0  0  0  0  0
   18.3251  -20.2663  -20.5678 C   0  0  2  0  0  0  0  0  0  0  0  0
   13.3367  -20.5023  -19.3654 N   0  0  0  0  0  0  0  0  0  0  0  0
   18.6983  -25.8505  -19.9638 O   0  5  0  0  0  0  0  0  0  0  0  0
   17.8587  -26.7587  -17.0204 O   0  5  0  0  0  0  0  0  0  0  0  0
   15.7280  -24.2609  -13.6532 O   0  0  0  0  0  0  0  0  0  0  0  0
   13.8933  -19.9835  -20.4488 C   0  0  0  0  0  0  0  0  0  0  0  0
   13.0502  -19.3899  -21.4668 N   0  0  0  0  0  0  0  0  0  0  0  0
   20.9207  -25.6292  -18.8653 O   0  0  0  0  0  0  0  0  0  0  0  0
   16.4390  -25.1702  -18.2555 O   0  0  0  0  0  0  0  0  0  0  0  0
   14.5003  -25.0386  -15.6425 O   0  5  0  0  0  0  0  0  0  0  0  0
   15.1975  -19.9881  -20.6352 N   0  0  0  0  0  0  0  0  0  0  0  0
   18.8597  -24.5018  -17.7888 O   0  0  0  0  0  0  0  0  0  0  0  0
   17.0504  -24.6237  -15.8155 O   0  0  0  0  0  0  0  0  0  0  0  0
   16.0286  -26.5774  -14.4311 O   0  0  0  0  0  0  0  0  0  0  0  0
   16.0116  -20.5263  -19.7191 C   0  0  0  0  0  0  0  0  0  0  0  0
   15.4571  -21.0737  -18.5799 C   0  0  0  0  0  0  0  0  0  0  0  0
   14.0602  -21.0582  -18.4023 C   0  0  0  0  0  0  0  0  0  0  0  0
   13.4662  -21.6085  -17.2529 O   0  0  0  0  0  0  0  0  0  0  0  0
   16.4643  -21.5438  -17.8244 N   0  0  0  0  0  0  0  0  0  0  0  0
   17.5923  -21.2976  -18.4677 C   0  0  0  0  0  0  0  0  0  0  0  0
   17.3401  -20.6835  -19.6085 N   0  0  0  0  0  0  0  0  0  0  0  0
  1  5  1  6  0  0  0
  1 14  1  0  0  0  0
  1 19  2  0  0  0  0
  1 23  1  0  0  0  0
  2 15  1  1  0  0  0
  2 20  2  0  0  0  0
  2 23  1  0  0  0  0
  2 24  1  0  0  0  0
  3 16  1  1  0  0  0
  3 21  1  0  0  0  0
  3 24  1  0  0  0  0
  3 25  2  0  0  0  0
  4  5  1  0  0  0  0
  6  4  1  1  0  0  0
  6  7  1  0  0  0  0
  6  8  1  0  0  0  0
  7 12  1  0  0  0  0
  8  9  1  6  0  0  0
  8 10  1  0  0  0  0
 10 11  1  6  0  0  0
 10 12  1  0  0  0  0
 12 32  1  1  0  0  0
 13 17  2  0  0  0  0
 13 28  1  0  0  0  0
 17 18  1  0  0  0  0
 17 22  1  0  0  0  0
 22 26  2  0  0  0  0
 26 27  1  0  0  0  0
 26 32  1  0  0  0  0
 27 28  2  0  0  0  0
 27 30  1  0  0  0  0
 28 29  1  0  0  0  0
 30 31  2  0  0  0  0
 31 32  1  0  0  0  0
M  CHG  3  14  -1  15  -1  21  -1
M  END
>  <CHROM.1>
152.53880283,58.38113841,178.54757772,53.07922793,-170.40058408,-117.94675572
134.84719780,-56.15009290,17.39680007,-22.80127185,-18.40402541,-1.82242210
0.32038938,-0.59943202

>  <Name>
ligand

>  <RI>
0

>  <Rbt.Current_Directory>
/home/itssahil/PROJECTS/Mol_Feturizer/New_Systems/rnas/4Y1I

>  <Rbt.Executable>
rbdock ($Id: //depot/dev/client3/rdock/2013.1/src/exe/rbdock.cxx#4 $)

>  <Rbt.Library>
libRbt.so (2013.1, Build901 2013/11/27)

>  <Rbt.Parameter_File>
/export/apps/rDock/src/rDock_2013.1_src/data/scripts/dock_solv.prm

>  <Rbt.Receptor>
prm/pocket_docking_5.prm

>  <SCORE>
-9.56619

>  <SCORE.INTER>
-5.58898

>  <SCORE.INTER.CONST>
1

>  <SCORE.INTER.POLAR>
0

>  <SCORE.INTER.ROT>
8

>  <SCORE.INTER.SOLV>
9.20777

>  <SCORE.INTER.VDW>
-15.7286

>  <SCORE.INTER.norm>
-0.174656

>  <SCORE.INTRA>
-3.97721

>  <SCORE.INTRA.DIHEDRAL>
-6.05017

>  <SCORE.INTRA.DIHEDRAL.0>
10.9594

>  <SCORE.INTRA.POLAR>
0

>  <SCORE.INTRA.POLAR.0>
0

>  <SCORE.INTRA.REPUL>
0

>  <SCORE.INTRA.REPUL.0>
0

>  <SCORE.INTRA.SOLV>
-1.53055

>  <SCORE.INTRA.SOLV.lig_0>
-124.914

>  <SCORE.INTRA.VDW>
-0.186849

>  <SCORE.INTRA.VDW.0>
-4.69801

>  <SCORE.INTRA.norm>
-0.124288

>  <SCORE.RESTR>
0

>  <SCORE.RESTR.CAVITY>
0

>  <SCORE.RESTR.norm>
0

>  <SCORE.SYSTEM>
0

>  <SCORE.SYSTEM.CONST>
0

>  <SCORE.SYSTEM.DIHEDRAL>
0

>  <SCORE.SYSTEM.SOLV>
0

>  <SCORE.SYSTEM.norm>
0

>  <SCORE.heavy>
32

>  <SCORE.norm>
-0.298944

>  <RMSD>
5.259

$$$$
ligand
 OpenBabel11021811513D
libRbt.so/2013.1/901 2013/11/27
 32 34  0  0  0  0  0  0  0  0999 V2000
   15.1605  -24.1081  -21.0134 P   0  0  1  0  0  0  0  0  0  0  0  0
   14.6838  -26.7925  -20.1204 P   0  0  2  0  0  0  0  0  0  0  0  0
   14.6410  -29.3058  -18.6049 P   0  0  1  0  0  0  0  0  0  0  0  0
   15.9784  -21.6463  -21.2629 C   0  0  0  0  0  0  0  0  0  0  0  0
   15.8532  -22.7443  -20.4046 O   0  0  0  0  0  0  0  0  0  0  0  0
   16.6356  -20.6136  -20.6034 C   0  0  1  0  0  0  0  0  0  0  0  0
   15.9162  -20.2873  -19.3089 O   0  0  0  0  0  0  0  0  0  0  0  0
   18.1170  -21.0404  -20.1846 C   0  0  1  0  0  0  0  0  0  0  0  0
   19.1165  -20.1912  -20.9370 O   0  0  0  0  0  0  0  0  0  0  0  0
   18.2268  -20.7617  -18.9881 C   0  0  1  0  0  0  0  0  0  0  0  0
   18.8834  -19.4397  -18.8496 O   0  0  0  0  0  0  0  0  0  0  0  0
   16.6796  -20.6967  -18.3750 C   0  0  2  0  0  0  0  0  0  0  0  0
   12.9406  -23.4032  -16.1210 N   0  0  0  0  0  0  0  0  0  0  0  0
   13.7681  -23.7989  -21.5049 O   0  5  0  0  0  0  0  0  0  0  0  0
   15.5766  -27.3440  -21.2035 O   0  5  0  0  0  0  0  0  0  0  0  0
   15.4695  -29.9843  -19.6705 O   0  0  0  0  0  0  0  0  0  0  0  0
   12.9629  -22.1076  -16.3926 C   0  0  0  0  0  0  0  0  0  0  0  0
   11.8228  -21.2868  -16.0376 N   0  0  0  0  0  0  0  0  0  0  0  0
   16.0265  -24.6327  -22.1364 O   0  0  0  0  0  0  0  0  0  0  0  0
   13.2476  -26.8545  -20.5703 O   0  0  0  0  0  0  0  0  0  0  0  0
   15.1085  -29.7708  -17.2430 O   0  5  0  0  0  0  0  0  0  0  0  0
   13.9936  -21.5339  -16.9792 N   0  0  0  0  0  0  0  0  0  0  0  0
   15.0634  -25.2253  -19.8130 O   0  0  0  0  0  0  0  0  0  0  0  0
   14.8656  -27.6750  -18.7441 O   0  0  0  0  0  0  0  0  0  0  0  0
   13.1850  -29.6621  -18.8112 O   0  0  0  0  0  0  0  0  0  0  0  0
   15.0667  -22.2563  -17.3231 C   0  0  0  0  0  0  0  0  0  0  0  0
   15.0696  -23.6094  -17.0508 C   0  0  0  0  0  0  0  0  0  0  0  0
   13.9562  -24.2012  -16.4238 C   0  0  0  0  0  0  0  0  0  0  0  0
   13.9297  -25.5768  -16.1342 O   0  0  0  0  0  0  0  0  0  0  0  0
   16.2399  -24.1077  -17.4847 N   0  0  0  0  0  0  0  0  0  0  0  0
   16.9309  -23.1069  -18.0021 C   0  0  0  0  0  0  0  0  0  0  0  0
   16.2422  -21.9844  -17.9115 N   0  0  0  0  0  0  0  0  0  0  0  0
  1  5  1  1  0  0  0
  1 14  1  0  0  0  0
  1 19  2  0  0  0  0
  1 23  1  0  0  0  0
  2 15  1  6  0  0  0
  2 20  2  0  0  0  0
  2 23  1  0  0  0  0
  2 24  1  0  0  0  0
  3 16  1  6  0  0  0
  3 21  1  0  0  0  0
  3 24  1  0  0  0  0
  3 25  2  0  0  0  0
  4  5  1  0  0  0  0
  6  4  1  1  0  0  0
  6  7  1  0  0  0  0
  6  8  1  0  0  0  0
  7 12  1  0  0  0  0
  8  9  1  6  0  0  0
  8 10  1  0  0  0  0
 10 11  1  6  0  0  0
 10 12  1  0  0  0  0
 12 32  1  6  0  0  0
 13 17  2  0  0  0  0
 13 28  1  0  0  0  0
 17 18  1  0  0  0  0
 17 22  1  0  0  0  0
 22 26  2  0  0  0  0
 26 27  1  0  0  0  0
 26 32  1  0  0  0  0
 27 28  2  0  0  0  0
 27 30  1  0  0  0  0
 28 29  1  0  0  0  0
 30 31  2  0  0  0  0
 31 32  1  0  0  0  0
M  CHG  3  14  -1  15  -1  21  -1
M  END
>  <CHROM.1>
-58.65519705,51.77848134,52.49304804,-54.78889672,-177.28640348,-63.37892996
-168.50457397,-56.73401784,15.30175153,-24.31975799,-19.05744680,-1.05201497
-0.95491704,-2.72625827

>  <Name>
ligand

>  <RI>
0

>  <Rbt.Current_Directory>
/home/itssahil/PROJECTS/Mol_Feturizer/New_Systems/rnas/4Y1I

>  <Rbt.Executable>
rbdock ($Id: //depot/dev/client3/rdock/2013.1/src/exe/rbdock.cxx#4 $)

>  <Rbt.Library>
libRbt.so (2013.1, Build901 2013/11/27)

>  <Rbt.Parameter_File>
/export/apps/rDock/src/rDock_2013.1_src/data/scripts/dock_solv.prm

>  <Rbt.Receptor>
prm/pocket_docking_4.prm

>  <SCORE>
-4.57213

>  <SCORE.INTER>
2.0749

>  <SCORE.INTER.CONST>
1

>  <SCORE.INTER.POLAR>
0

>  <SCORE.INTER.ROT>
8

>  <SCORE.INTER.SOLV>
5.82356

>  <SCORE.INTER.VDW>
-9.49125

>  <SCORE.INTER.norm>
0.0648405

>  <SCORE.INTRA>
-6.64912

>  <SCORE.INTRA.DIHEDRAL>
-9.17605

>  <SCORE.INTRA.DIHEDRAL.0>
10.9594

>  <SCORE.INTRA.POLAR>
0

>  <SCORE.INTRA.POLAR.0>
0

>  <SCORE.INTRA.REPUL>
0

>  <SCORE.INTRA.REPUL.0>
0

>  <SCORE.INTRA.SOLV>
-1.94526

>  <SCORE.INTRA.SOLV.lig_0>
-124.914

>  <SCORE.INTRA.VDW>
-1.08846

>  <SCORE.INTRA.VDW.0>
-4.69801

>  <SCORE.INTRA.norm>
-0.207785

>  <SCORE.RESTR>
0.00209431

>  <SCORE.RESTR.CAVITY>
0.00209431

>  <SCORE.RESTR.norm>
6.54472e-05

>  <SCORE.SYSTEM>
0

>  <SCORE.SYSTEM.CONST>
0

>  <SCORE.SYSTEM.DIHEDRAL>
0

>  <SCORE.SYSTEM.SOLV>
0

>  <SCORE.SYSTEM.norm>
0

>  <SCORE.heavy>
32

>  <SCORE.norm>
-0.142879

>  <RMSD>
5.264

$$$$
ligand
 OpenBabel11021811513D
libRbt.so/2013.1/901 2013/11/27
 32 34  0  0  0  0  0  0  0  0999 V2000
   13.0977  -24.6041  -21.0892 P   0  0  1  0  0  0  0  0  0  0  0  0
   14.9661  -26.3510  -22.3886 P   0  0  2  0  0  0  0  0  0  0  0  0
   14.5315  -28.4246  -20.3572 P   0  0  1  0  0  0  0  0  0  0  0  0
   13.3355  -24.2855  -18.5137 C   0  0  0  0  0  0  0  0  0  0  0  0
   13.6511  -25.0875  -19.6161 O   0  0  0  0  0  0  0  0  0  0  0  0
   13.9371  -24.8057  -17.3732 C   0  0  1  0  0  0  0  0  0  0  0  0
   15.4373  -24.8963  -17.5764 O   0  0  0  0  0  0  0  0  0  0  0  0
   13.7238  -23.8463  -16.1138 C   0  0  1  0  0  0  0  0  0  0  0  0
   12.8771  -24.5542  -15.0803 O   0  0  0  0  0  0  0  0  0  0  0  0
   14.8414  -23.6789  -15.6194 C   0  0  1  0  0  0  0  0  0  0  0  0
   15.0286  -24.6269  -14.4952 O   0  0  0  0  0  0  0  0  0  0  0  0
   15.9437  -24.0004  -16.8258 C   0  0  2  0  0  0  0  0  0  0  0  0
   19.1909  -21.7063  -20.0782 N   0  0  0  0  0  0  0  0  0  0  0  0
   11.6024  -24.4104  -21.0356 O   0  5  0  0  0  0  0  0  0  0  0  0
   15.9298  -25.2113  -22.6044 O   0  5  0  0  0  0  0  0  0  0  0  0
   13.1710  -27.8763  -19.9956 O   0  0  0  0  0  0  0  0  0  0  0  0
   19.2854  -22.9138  -19.5437 C   0  0  0  0  0  0  0  0  0  0  0  0
   20.4219  -23.7503  -19.8728 N   0  0  0  0  0  0  0  0  0  0  0  0
   13.7961  -23.3190  -21.4726 O   0  0  0  0  0  0  0  0  0  0  0  0
   14.9780  -27.2564  -23.5922 O   0  0  0  0  0  0  0  0  0  0  0  0
   14.3622  -29.5600  -21.3431 O   0  5  0  0  0  0  0  0  0  0  0  0
   18.3749  -23.3853  -18.7165 N   0  0  0  0  0  0  0  0  0  0  0  0
   13.4415  -25.7768  -22.1871 O   0  0  0  0  0  0  0  0  0  0  0  0
   15.4043  -27.2073  -21.0542 O   0  0  0  0  0  0  0  0  0  0  0  0
   15.2147  -28.9170  -19.1001 O   0  0  0  0  0  0  0  0  0  0  0  0
   17.3099  -22.6448  -18.3865 C   0  0  0  0  0  0  0  0  0  0  0  0
   17.1873  -21.3817  -18.9294 C   0  0  0  0  0  0  0  0  0  0  0  0
   18.1725  -20.8988  -19.8121 C   0  0  0  0  0  0  0  0  0  0  0  0
   18.0748  -19.6169  -20.3813 O   0  0  0  0  0  0  0  0  0  0  0  0
   16.0513  -20.8443  -18.4530 N   0  0  0  0  0  0  0  0  0  0  0  0
   15.4959  -21.7353  -17.6503 C   0  0  0  0  0  0  0  0  0  0  0  0
   16.2402  -22.8241  -17.5957 N   0  0  0  0  0  0  0  0  0  0  0  0
  1  5  1  1  0  0  0
  1 14  1  0  0  0  0
  1 19  2  0  0  0  0
  1 23  1  0  0  0  0
  2 15  1  6  0  0  0
  2 20  2  0  0  0  0
  2 23  1  0  0  0  0
  2 24  1  0  0  0  0
  3 16  1  1  0  0  0
  3 21  1  0  0  0  0
  3 24  1  0  0  0  0
  3 25  2  0  0  0  0
  4  5  1  0  0  0  0
  6  4  1  6  0  0  0
  6  7  1  0  0  0  0
  6  8  1  0  0  0  0
  7 12  1  0  0  0  0
  8  9  1  1  0  0  0
  8 10  1  0  0  0  0
 10 11  1  1  0  0  0
 10 12  1  0  0  0  0
 12 32  1  6  0  0  0
 13 17  2  0  0  0  0
 13 28  1  0  0  0  0
 17 18  1  0  0  0  0
 17 22  1  0  0  0  0
 22 26  2  0  0  0  0
 26 27  1  0  0  0  0
 26 32  1  0  0  0  0
 27 28  2  0  0  0  0
 27 30  1  0  0  0  0
 28 29  1  0  0  0  0
 30 31  2  0  0  0  0
 31 32  1  0  0  0  0
M  CHG  3  14  -1  15  -1  21  -1
M  END
>  <CHROM.1>
-54.78987825,-51.86868557,-57.38880514,57.45799323,-177.00660085,-79.52285226
-54.12830870,172.48593056,15.25921422,-24.70906123,-19.54225596,-2.27880953
0.79940739,1.07163793

>  <Name>
ligand

>  <RI>
0

>  <Rbt.Current_Directory>
/home/itssahil/PROJECTS/Mol_Feturizer/New_Systems/rnas/4Y1I

>  <Rbt.Executable>
rbdock ($Id: //depot/dev/client3/rdock/2013.1/src/exe/rbdock.cxx#4 $)

>  <Rbt.Library>
libRbt.so (2013.1, Build901 2013/11/27)

>  <Rbt.Parameter_File>
/export/apps/rDock/src/rDock_2013.1_src/data/scripts/dock_solv.prm

>  <Rbt.Receptor>
prm/pocket_docking_5.prm

>  <SCORE>
-4.90205

>  <SCORE.INTER>
3.3735

>  <SCORE.INTER.CONST>
1

>  <SCORE.INTER.POLAR>
0

>  <SCORE.INTER.ROT>
8

>  <SCORE.INTER.SOLV>
3.58001

>  <SCORE.INTER.VDW>
-7.87767

>  <SCORE.INTER.norm>
0.105422

>  <SCORE.INTRA>
-8.27555

>  <SCORE.INTRA.DIHEDRAL>
-9.34652

>  <SCORE.INTRA.DIHEDRAL.0>
10.9594

>  <SCORE.INTRA.POLAR>
0

>  <SCORE.INTRA.POLAR.0>
0

>  <SCORE.INTRA.REPUL>
0

>  <SCORE.INTRA.REPUL.0>
0

>  <SCORE.INTRA.SOLV>
-5.0711

>  <SCORE.INTRA.SOLV.lig_0>
-124.914

>  <SCORE.INTRA.VDW>
-1.06674

>  <SCORE.INTRA.VDW.0>
-4.69801

>  <SCORE.INTRA.norm>
-0.258611

>  <SCORE.RESTR>
0

>  <SCORE.RESTR.CAVITY>
0

>  <SCORE.RESTR.norm>
0

>  <SCORE.SYSTEM>
0

>  <SCORE.SYSTEM.CONST>
0

>  <SCORE.SYSTEM.DIHEDRAL>
0

>  <SCORE.SYSTEM.SOLV>
0

>  <SCORE.SYSTEM.norm>
0

>  <SCORE.heavy>
32

>  <SCORE.norm>
-0.153189

>  <RMSD>
5.279

$$$$
ligand
 OpenBabel11021811513D
libRbt.so/2013.1/901 2013/11/27
 32 34  0  0  0  0  0  0  0  0999 V2000
   19.3604  -28.2779  -17.3107 P   0  0  1  0  0  0  0  0  0  0  0  0
   21.1416  -30.1157  -16.0141 P   0  0  2  0  0  0  0  0  0  0  0  0
   21.6131  -32.6943  -17.3348 P   0  0  1  0  0  0  0  0  0  0  0  0
   20.2660  -26.5538  -19.0423 C   0  0  0  0  0  0  0  0  0  0  0  0
   20.5885  -27.4165  -17.9889 O   0  0  0  0  0  0  0  0  0  0  0  0
   21.4271  -25.9709  -19.5376 C   0  0  1  0  0  0  0  0  0  0  0  0
   21.0795  -24.9639  -20.6170 O   0  0  0  0  0  0  0  0  0  0  0  0
   22.1947  -25.1484  -18.4034 C   0  0  1  0  0  0  0  0  0  0  0  0
   23.5319  -25.7985  -18.1287 O   0  0  0  0  0  0  0  0  0  0  0  0
   22.4205  -24.0349  -18.8834 C   0  0  1  0  0  0  0  0  0  0  0  0
   23.7994  -24.0045  -19.4273 O   0  0  0  0  0  0  0  0  0  0  0  0
   21.3179  -23.8188  -20.1128 C   0  0  2  0  0  0  0  0  0  0  0  0
   18.8471  -19.4983  -18.8426 N   0  0  0  0  0  0  0  0  0  0  0  0
   18.2351  -27.3492  -16.9270 O   0  5  0  0  0  0  0  0  0  0  0  0
   21.4280  -30.6526  -14.6343 O   0  5  0  0  0  0  0  0  0  0  0  0
   22.9776  -32.2416  -17.7989 O   0  0  0  0  0  0  0  0  0  0  0  0
   20.0875  -19.6311  -19.2858 C   0  0  0  0  0  0  0  0  0  0  0  0
   20.9109  -18.4515  -19.4591 N   0  0  0  0  0  0  0  0  0  0  0  0
   18.8897  -29.3167  -18.3035 O   0  0  0  0  0  0  0  0  0  0  0  0
   22.3718  -29.4367  -16.5566 O   0  0  0  0  0  0  0  0  0  0  0  0
   21.7663  -33.5181  -16.0748 O   0  5  0  0  0  0  0  0  0  0  0  0
   20.6035  -20.8077  -19.5772 N   0  0  0  0  0  0  0  0  0  0  0  0
   19.9253  -29.0148  -15.9555 O   0  0  0  0  0  0  0  0  0  0  0  0
   20.7100  -31.3485  -17.0141 O   0  0  0  0  0  0  0  0  0  0  0  0
   20.9692  -33.5193  -18.4276 O   0  0  0  0  0  0  0  0  0  0  0  0
   19.8766  -21.9221  -19.4309 C   0  0  0  0  0  0  0  0  0  0  0  0
   18.5803  -21.8117  -18.9700 C   0  0  0  0  0  0  0  0  0  0  0  0
   18.0494  -20.5434  -18.6655 C   0  0  0  0  0  0  0  0  0  0  0  0
   16.7324  -20.3993  -18.1947 O   0  0  0  0  0  0  0  0  0  0  0  0
   18.0648  -23.0514  -18.9093 N   0  0  0  0  0  0  0  0  0  0  0  0
   19.0010  -23.8917  -19.3143 C   0  0  0  0  0  0  0  0  0  0  0  0
   20.0991  -23.2308  -19.6299 N   0  0  0  0  0  0  0  0  0  0  0  0
  1  5  1  6  0  0  0
  1 14  1  0  0  0  0
  1 19  2  0  0  0  0
  1 23  1  0  0  0  0
  2 15  1  1  0  0  0
  2 20  2  0  0  0  0
  2 23  1  0  0  0  0
  2 24  1  0  0  0  0
  3 16  1  6  0  0  0
  3 21  1  0  0  0  0
  3 24  1  0  0  0  0
  3 25  2  0  0  0  0
  4  5  1  0  0  0  0
  6  4  1  1  0  0  0
  6  7  1  0  0  0  0
  6  8  1  0  0  0  0
  7 12  1  0  0  0  0
  8  9  1  6  0  0  0
  8 10  1  0  0  0  0
 10 11  1  6  0  0  0
 10 12  1  0  0  0  0
 12 32  1  1  0  0  0
 13 17  2  0  0  0  0
 13 28  1  0  0  0  0
 17 18  1  0  0  0  0
 17 22  1  0  0  0  0
 22 26  2  0  0  0  0
 26 27  1  0  0  0  0
 26 32  1  0  0  0  0
 27 28  2  0  0  0  0
 27 30  1  0  0  0  0
 28 29  1  0  0  0  0
 30 31  2  0  0  0  0
 31 32  1  0  0  0  0
M  CHG  3  14  -1  15  -1  21  -1
M  END
>  <CHROM.1>
-51.80339120,-178.50835986,-53.77399650,-176.20275091,-176.68665960,-157.74054056
-61.56914446,-57.08097626,20.58383982,-26.56737412,-18.07439777,1.41386871
-0.28852265,2.87500451

>  <Name>
ligand

>  <RI>
0

>  <Rbt.Current_Directory>
/home/itssahil/PROJECTS/Mol_Feturizer/New_Systems/rnas/4Y1I

>  <Rbt.Executable>
rbdock ($Id: //depot/dev/client3/rdock/2013.1/src/exe/rbdock.cxx#4 $)

>  <Rbt.Library>
libRbt.so (2013.1, Build901 2013/11/27)

>  <Rbt.Parameter_File>
/export/apps/rDock/src/rDock_2013.1_src/data/scripts/dock_solv.prm

>  <Rbt.Receptor>
prm/pocket_docking_7.prm

>  <SCORE>
-8.15767

>  <SCORE.INTER>
-1.80849

>  <SCORE.INTER.CONST>
1

>  <SCORE.INTER.POLAR>
0

>  <SCORE.INTER.ROT>
8

>  <SCORE.INTER.SOLV>
12.9647

>  <SCORE.INTER.VDW>
-14.4605

>  <SCORE.INTER.norm>
-0.0565154

>  <SCORE.INTRA>
-6.34918

>  <SCORE.INTRA.DIHEDRAL>
-9.39435

>  <SCORE.INTRA.DIHEDRAL.0>
10.9594

>  <SCORE.INTRA.POLAR>
0

>  <SCORE.INTRA.POLAR.0>
0

>  <SCORE.INTRA.REPUL>
0

>  <SCORE.INTRA.REPUL.0>
0

>  <SCORE.INTRA.SOLV>
-4.74979

>  <SCORE.INTRA.SOLV.lig_0>
-124.914

>  <SCORE.INTRA.VDW>
0.722894

>  <SCORE.INTRA.VDW.0>
-4.69801

>  <SCORE.INTRA.norm>
-0.198412

>  <SCORE.RESTR>
0

>  <SCORE.RESTR.CAVITY>
0

>  <SCORE.RESTR.norm>
0

>  <SCORE.SYSTEM>
0

>  <SCORE.SYSTEM.CONST>
0

>  <SCORE.SYSTEM.DIHEDRAL>
0

>  <SCORE.SYSTEM.SOLV>
0

>  <SCORE.SYSTEM.norm>
0

>  <SCORE.heavy>
32

>  <SCORE.norm>
-0.254927

>  <RMSD>
5.307

$$$$
ligand
 OpenBabel11021811513D
libRbt.so/2013.1/901 2013/11/27
 32 34  0  0  0  0  0  0  0  0999 V2000
   18.3716  -29.5007  -15.8653 P   0  0  1  0  0  0  0  0  0  0  0  0
   20.5374  -29.1839  -17.7200 P   0  0  2  0  0  0  0  0  0  0  0  0
   19.9930  -28.0783  -20.3839 P   0  0  1  0  0  0  0  0  0  0  0  0
   17.2355  -27.6708  -17.3323 C   0  0  0  0  0  0  0  0  0  0  0  0
   17.3670  -28.2093  -16.0475 O   0  0  0  0  0  0  0  0  0  0  0  0
   16.3674  -26.5854  -17.2945 C   0  0  1  0  0  0  0  0  0  0  0  0
   16.9991  -25.4456  -16.5188 O   0  0  0  0  0  0  0  0  0  0  0  0
   16.0862  -26.0140  -18.7597 C   0  0  1  0  0  0  0  0  0  0  0  0
   14.6277  -26.2126  -19.1054 O   0  0  0  0  0  0  0  0  0  0  0  0
   16.2852  -24.7984  -18.6956 C   0  0  1  0  0  0  0  0  0  0  0  0
   14.9939  -24.0988  -18.4934 O   0  0  0  0  0  0  0  0  0  0  0  0
   17.2790  -24.5517  -17.3821 C   0  0  2  0  0  0  0  0  0  0  0  0
   21.2498  -22.2824  -19.7205 N   0  0  0  0  0  0  0  0  0  0  0  0
   18.3256  -29.9872  -14.4379 O   0  5  0  0  0  0  0  0  0  0  0  0
   20.4755  -30.6242  -18.1626 O   0  5  0  0  0  0  0  0  0  0  0  0
   19.9488  -29.4532  -21.0085 O   0  0  0  0  0  0  0  0  0  0  0  0
   20.0113  -21.8332  -19.5908 C   0  0  0  0  0  0  0  0  0  0  0  0
   19.6590  -20.5458  -20.1549 N   0  0  0  0  0  0  0  0  0  0  0  0
   17.9410  -30.5896  -16.8220 O   0  0  0  0  0  0  0  0  0  0  0  0
   21.9727  -28.7286  -17.6835 O   0  0  0  0  0  0  0  0  0  0  0  0
   18.9273  -27.2114  -21.0182 O   0  5  0  0  0  0  0  0  0  0  0  0
   19.0803  -22.5211  -18.9618 N   0  0  0  0  0  0  0  0  0  0  0  0
   19.9044  -29.0236  -16.2139 O   0  0  0  0  0  0  0  0  0  0  0  0
   19.6897  -28.2411  -18.7681 O   0  0  0  0  0  0  0  0  0  0  0  0
   21.3632  -27.4777  -20.6104 O   0  0  0  0  0  0  0  0  0  0  0  0
   19.3642  -23.7147  -18.4267 C   0  0  0  0  0  0  0  0  0  0  0  0
   20.6481  -24.2066  -18.5480 C   0  0  0  0  0  0  0  0  0  0  0  0
   21.6272  -23.4533  -19.2240 C   0  0  0  0  0  0  0  0  0  0  0  0
   22.9434  -23.9279  -19.3631 O   0  0  0  0  0  0  0  0  0  0  0  0
   20.6828  -25.4036  -17.9379 N   0  0  0  0  0  0  0  0  0  0  0  0
   19.4736  -25.6420  -17.4606 C   0  0  0  0  0  0  0  0  0  0  0  0
   18.6659  -24.6381  -17.7472 N   0  0  0  0  0  0  0  0  0  0  0  0
  1  5  1  6  0  0  0
  1 14  1  0  0  0  0
  1 19  2  0  0  0  0
  1 23  1  0  0  0  0
  2 15  1  6  0  0  0
  2 20  2  0  0  0  0
  2 23  1  0  0  0  0
  2 24  1  0  0  0  0
  3 16  1  6  0  0  0
  3 21  1  0  0  0  0
  3 24  1  0  0  0  0
  3 25  2  0  0  0  0
  4  5  1  0  0  0  0
  6  4  1  6  0  0  0
  6  7  1  0  0  0  0
  6  8  1  0  0  0  0
  7 12  1  0  0  0  0
  8  9  1  1  0  0  0
  8 10  1  0  0  0  0
 10 11  1  1  0  0  0
 10 12  1  0  0  0  0
 12 32  1  6  0  0  0
 13 17  2  0  0  0  0
 13 28  1  0  0  0  0
 17 18  1  0  0  0  0
 17 22  1  0  0  0  0
 22 26  2  0  0  0  0
 26 27  1  0  0  0  0
 26 32  1  0  0  0  0
 27 28  2  0  0  0  0
 27 30  1  0  0  0  0
 28 29  1  0  0  0  0
 30 31  2  0  0  0  0
 31 32  1  0  0  0  0
M  CHG  3  14  -1  15  -1  21  -1
M  END
>  <CHROM.1>
-176.87355169,-56.88594709,56.64415589,67.90431768,-179.28101955,-166.59301671
-93.05684990,-59.78798371,19.05883785,-26.64956481,-18.25303339,1.65085693
-0.39345274,2.84437624

>  <Name>
ligand

>  <RI>
0

>  <Rbt.Current_Directory>
/home/itssahil/PROJECTS/Mol_Feturizer/New_Systems/rnas/4Y1I

>  <Rbt.Executable>
rbdock ($Id: //depot/dev/client3/rdock/2013.1/src/exe/rbdock.cxx#4 $)

>  <Rbt.Library>
libRbt.so (2013.1, Build901 2013/11/27)

>  <Rbt.Parameter_File>
/export/apps/rDock/src/rDock_2013.1_src/data/scripts/dock_solv.prm

>  <Rbt.Receptor>
prm/pocket_docking_4.prm

>  <SCORE>
-7.54956

>  <SCORE.INTER>
-0.369885

>  <SCORE.INTER.CONST>
1

>  <SCORE.INTER.POLAR>
0

>  <SCORE.INTER.ROT>
8

>  <SCORE.INTER.SOLV>
5.10704

>  <SCORE.INTER.VDW>
-10.8823

>  <SCORE.INTER.norm>
-0.0115589

>  <SCORE.INTRA>
-7.17967

>  <SCORE.INTRA.DIHEDRAL>
-8.02303

>  <SCORE.INTRA.DIHEDRAL.0>
10.9594

>  <SCORE.INTRA.POLAR>
0

>  <SCORE.INTRA.POLAR.0>
0

>  <SCORE.INTRA.REPUL>
0

>  <SCORE.INTRA.REPUL.0>
0

>  <SCORE.INTRA.SOLV>
-2.20989

>  <SCORE.INTRA.SOLV.lig_0>
-124.914

>  <SCORE.INTRA.VDW>
-2.06321

>  <SCORE.INTRA.VDW.0>
-4.69801

>  <SCORE.INTRA.norm>
-0.224365

>  <SCORE.RESTR>
0

>  <SCORE.RESTR.CAVITY>
0

>  <SCORE.RESTR.norm>
0

>  <SCORE.SYSTEM>
0

>  <SCORE.SYSTEM.CONST>
0

>  <SCORE.SYSTEM.DIHEDRAL>
0

>  <SCORE.SYSTEM.SOLV>
0

>  <SCORE.SYSTEM.norm>
0

>  <SCORE.heavy>
32

>  <SCORE.norm>
-0.235924

>  <RMSD>
5.333

$$$$
ligand
 OpenBabel11021811513D
libRbt.so/2013.1/901 2013/11/27
 32 34  0  0  0  0  0  0  0  0999 V2000
   16.1419  -27.3204  -15.3832 P   0  0  1  0  0  0  0  0  0  0  0  0
   13.8702  -29.0037  -15.8694 P   0  0  2  0  0  0  0  0  0  0  0  0
   12.7137  -30.3008  -13.5040 P   0  0  1  0  0  0  0  0  0  0  0  0
   17.0993  -25.9650  -17.3926 C   0  0  0  0  0  0  0  0  0  0  0  0
   16.8015  -25.9555  -16.0254 O   0  0  0  0  0  0  0  0  0  0  0  0
   17.7448  -24.7822  -17.7357 C   0  0  1  0  0  0  0  0  0  0  0  0
   19.0224  -24.6391  -16.9312 O   0  0  0  0  0  0  0  0  0  0  0  0
   18.1922  -24.7873  -19.2693 C   0  0  1  0  0  0  0  0  0  0  0  0
   17.4348  -23.7137  -20.0176 O   0  0  0  0  0  0  0  0  0  0  0  0
   19.3837  -24.4686  -19.2780 C   0  0  1  0  0  0  0  0  0  0  0  0
   19.5021  -23.0165  -19.5524 O   0  0  0  0  0  0  0  0  0  0  0  0
   19.9748  -24.8117  -17.7592 C   0  0  2  0  0  0  0  0  0  0  0  0
   24.0752  -27.9056  -17.7774 N   0  0  0  0  0  0  0  0  0  0  0  0
   17.0859  -28.4821  -15.5715 O   0  5  0  0  0  0  0  0  0  0  0  0
   14.6624  -30.2272  -16.2566 O   0  5  0  0  0  0  0  0  0  0  0  0
   13.5575  -31.5461  -13.6439 O   0  0  0  0  0  0  0  0  0  0  0  0
   24.0446  -26.5873  -17.8949 C   0  0  0  0  0  0  0  0  0  0  0  0
   25.2871  -25.8583  -18.0517 N   0  0  0  0  0  0  0  0  0  0  0  0
   15.8641  -27.0815  -13.9162 O   0  0  0  0  0  0  0  0  0  0  0  0
   12.6008  -28.9479  -16.6783 O   0  0  0  0  0  0  0  0  0  0  0  0
   12.5535  -29.9733  -12.0354 O   0  5  0  0  0  0  0  0  0  0  0  0
   22.9151  -25.9096  -17.8741 N   0  0  0  0  0  0  0  0  0  0  0  0
   14.7383  -27.6440  -16.1730 O   0  0  0  0  0  0  0  0  0  0  0  0
   13.4978  -29.0637  -14.2683 O   0  0  0  0  0  0  0  0  0  0  0  0
   11.3623  -30.5471  -14.1385 O   0  0  0  0  0  0  0  0  0  0  0  0
   21.7456  -26.5448  -17.7314 C   0  0  0  0  0  0  0  0  0  0  0  0
   21.7492  -27.9194  -17.6072 C   0  0  0  0  0  0  0  0  0  0  0  0
   22.9688  -28.6229  -17.6314 C   0  0  0  0  0  0  0  0  0  0  0  0
   23.0043  -30.0230  -17.5067 O   0  0  0  0  0  0  0  0  0  0  0  0
   20.4722  -28.3180  -17.4779 N   0  0  0  0  0  0  0  0  0  0  0  0
   19.7121  -27.2376  -17.5208 C   0  0  0  0  0  0  0  0  0  0  0  0
   20.4604  -26.1614  -17.6755 N   0  0  0  0  0  0  0  0  0  0  0  0
  1  5  1  6  0  0  0
  1 14  1  0  0  0  0
  1 19  2  0  0  0  0
  1 23  1  0  0  0  0
  2 15  1  6  0  0  0
  2 20  2  0  0  0  0
  2 23  1  0  0  0  0
  2 24  1  0  0  0  0
  3 16  1  6  0  0  0
  3 21  1  0  0  0  0
  3 24  1  0  0  0  0
  3 25  2  0  0  0  0
  4  5  1  0  0  0  0
  6  4  1  1  0  0  0
  6  7  1  0  0  0  0
  6  8  1  0  0  0  0
  7 12  1  0  0  0  0
  8  9  1  6  0  0  0
  8 10  1  0  0  0  0
 10 11  1  1  0  0  0
 10 12  1  0  0  0  0
 12 32  1  6  0  0  0
 13 17  2  0  0  0  0
 13 28  1  0  0  0  0
 17 18  1  0  0  0  0
 17 22  1  0  0  0  0
 22 26  2  0  0  0  0
 26 27  1  0  0  0  0
 26 32  1  0  0  0  0
 27 28  2  0  0  0  0
 27 30  1  0  0  0  0
 28 29  1  0  0  0  0
 30 31  2  0  0  0  0
 31 32  1  0  0  0  0
M  CHG  3  14  -1  15  -1  21  -1
M  END
>  <CHROM.1>
60.07163184,-64.13609111,61.53891003,59.22485957,-175.15034638,-139.82985442
175.17498133,-54.97101577,17.54013030,-27.50174084,-16.49506628,2.63620549
-0.17468022,2.61643463

>  <Name>
ligand

>  <RI>
0

>  <Rbt.Current_Directory>
/home/itssahil/PROJECTS/Mol_Feturizer/New_Systems/rnas/4Y1I

>  <Rbt.Executable>
rbdock ($Id: //depot/dev/client3/rdock/2013.1/src/exe/rbdock.cxx#4 $)

>  <Rbt.Library>
libRbt.so (2013.1, Build901 2013/11/27)

>  <Rbt.Parameter_File>
/export/apps/rDock/src/rDock_2013.1_src/data/scripts/dock_solv.prm

>  <Rbt.Receptor>
prm/pocket_docking_5.prm

>  <SCORE>
-5.09843

>  <SCORE.INTER>
1.368

>  <SCORE.INTER.CONST>
1

>  <SCORE.INTER.POLAR>
0

>  <SCORE.INTER.ROT>
8

>  <SCORE.INTER.SOLV>
11.5975

>  <SCORE.INTER.VDW>
-11.8872

>  <SCORE.INTER.norm>
0.0427499

>  <SCORE.INTRA>
-6.46642

>  <SCORE.INTRA.DIHEDRAL>
-9.49569

>  <SCORE.INTRA.DIHEDRAL.0>
10.9594

>  <SCORE.INTRA.POLAR>
0

>  <SCORE.INTRA.POLAR.0>
0

>  <SCORE.INTRA.REPUL>
0

>  <SCORE.INTRA.REPUL.0>
0

>  <SCORE.INTRA.SOLV>
-4.25842

>  <SCORE.INTRA.SOLV.lig_0>
-124.914

>  <SCORE.INTRA.VDW>
0.410632

>  <SCORE.INTRA.VDW.0>
-4.69801

>  <SCORE.INTRA.norm>
-0.202076

>  <SCORE.RESTR>
0

>  <SCORE.RESTR.CAVITY>
0

>  <SCORE.RESTR.norm>
0

>  <SCORE.SYSTEM>
0

>  <SCORE.SYSTEM.CONST>
0

>  <SCORE.SYSTEM.DIHEDRAL>
0

>  <SCORE.SYSTEM.SOLV>
0

>  <SCORE.SYSTEM.norm>
0

>  <SCORE.heavy>
32

>  <SCORE.norm>
-0.159326

>  <RMSD>
5.355

$$$$
ligand
 OpenBabel11021811513D
libRbt.so/2013.1/901 2013/11/27
 32 34  0  0  0  0  0  0  0  0999 V2000
   15.1290  -25.8340  -18.6197 P   0  0  1  0  0  0  0  0  0  0  0  0
   15.8695  -26.0038  -15.8531 P   0  0  2  0  0  0  0  0  0  0  0  0
   17.1586  -28.6093  -16.2591 P   0  0  1  0  0  0  0  0  0  0  0  0
   16.7642  -24.2811  -19.9259 C   0  0  0  0  0  0  0  0  0  0  0  0
   15.9756  -24.4312  -18.7798 O   0  0  0  0  0  0  0  0  0  0  0  0
   17.3465  -23.0185  -19.9272 C   0  0  1  0  0  0  0  0  0  0  0  0
   17.9664  -22.7344  -18.5726 O   0  0  0  0  0  0  0  0  0  0  0  0
   18.5428  -22.9306  -20.9824 C   0  0  1  0  0  0  0  0  0  0  0  0
   18.1824  -21.9438  -22.0698 O   0  0  0  0  0  0  0  0  0  0  0  0
   19.5054  -22.4639  -20.3685 C   0  0  1  0  0  0  0  0  0  0  0  0
   19.5782  -21.0024  -20.6062 O   0  0  0  0  0  0  0  0  0  0  0  0
   19.2267  -22.7657  -18.7544 C   0  0  2  0  0  0  0  0  0  0  0  0
   23.3583  -25.8012  -18.4365 N   0  0  0  0  0  0  0  0  0  0  0  0
   13.8610  -25.7619  -19.4340 O   0  5  0  0  0  0  0  0  0  0  0  0
   15.2833  -26.5011  -14.5556 O   0  5  0  0  0  0  0  0  0  0  0  0
   15.9797  -29.1120  -17.0589 O   0  0  0  0  0  0  0  0  0  0  0  0
   23.2837  -24.5684  -18.9133 C   0  0  0  0  0  0  0  0  0  0  0  0
   24.4793  -23.9312  -19.4273 N   0  0  0  0  0  0  0  0  0  0  0  0
   16.0006  -26.9820  -19.0764 O   0  0  0  0  0  0  0  0  0  0  0  0
   16.3468  -24.5857  -15.6803 O   0  0  0  0  0  0  0  0  0  0  0  0
   18.4375  -29.1149  -16.8904 O   0  5  0  0  0  0  0  0  0  0  0  0
   22.1515  -23.8953  -18.9370 N   0  0  0  0  0  0  0  0  0  0  0  0
   14.7327  -26.0274  -17.0372 O   0  0  0  0  0  0  0  0  0  0  0  0
   17.1343  -26.9578  -16.2959 O   0  0  0  0  0  0  0  0  0  0  0  0
   17.0397  -29.1117  -14.8368 O   0  0  0  0  0  0  0  0  0  0  0  0
   21.0244  -24.4476  -18.4721 C   0  0  0  0  0  0  0  0  0  0  0  0
   21.0742  -25.7322  -17.9698 C   0  0  0  0  0  0  0  0  0  0  0  0
   22.2959  -26.4324  -17.9538 C   0  0  0  0  0  0  0  0  0  0  0  0
   22.3781  -27.7417  -17.4479 O   0  0  0  0  0  0  0  0  0  0  0  0
   19.8336  -26.0595  -17.5700 N   0  0  0  0  0  0  0  0  0  0  0  0
   19.0505  -25.0233  -17.8147 C   0  0  0  0  0  0  0  0  0  0  0  0
   19.7488  -24.0448  -18.3599 N   0  0  0  0  0  0  0  0  0  0  0  0
  1  5  1  6  0  0  0
  1 14  1  0  0  0  0
  1 19  2  0  0  0  0
  1 23  1  0  0  0  0
  2 15  1  1  0  0  0
  2 20  2  0  0  0  0
  2 23  1  0  0  0  0
  2 24  1  0  0  0  0
  3 16  1  6  0  0  0
  3 21  1  0  0  0  0
  3 24  1  0  0  0  0
  3 25  2  0  0  0  0
  4  5  1  0  0  0  0
  6  4  1  1  0  0  0
  6  7  1  0  0  0  0
  6  8  1  0  0  0  0
  7 12  1  0  0  0  0
  8  9  1  6  0  0  0
  8 10  1  0  0  0  0
 10 11  1  1  0  0  0
 10 12  1  0  0  0  0
 12 32  1  6  0  0  0
 13 17  2  0  0  0  0
 13 28  1  0  0  0  0
 17 18  1  0  0  0  0
 17 22  1  0  0  0  0
 22 26  2  0  0  0  0
 26 27  1  0  0  0  0
 26 32  1  0  0  0  0
 27 28  2  0  0  0  0
 27 30  1  0  0  0  0
 28 29  1  0  0  0  0
 30 31  2  0  0  0  0
 31 32  1  0  0  0  0
M  CHG  3  14  -1  15  -1  21  -1
M  END
>  <CHROM.1>
-81.05543678,-167.56662950,54.71300351,47.82894032,176.90118897,176.76838811
-54.73058724,44.77875618,18.19727278,-25.45333988,-18.04595215,2.44878383
-0.03709417,2.49991316

>  <Name>
ligand

>  <RI>
0

>  <Rbt.Current_Directory>
/home/itssahil/PROJECTS/Mol_Feturizer/New_Systems/rnas/4Y1I

>  <Rbt.Executable>
rbdock ($Id: //depot/dev/client3/rdock/2013.1/src/exe/rbdock.cxx#4 $)

>  <Rbt.Library>
libRbt.so (2013.1, Build901 2013/11/27)

>  <Rbt.Parameter_File>
/export/apps/rDock/src/rDock_2013.1_src/data/scripts/dock_solv.prm

>  <Rbt.Receptor>
prm/pocket_docking_4.prm

>  <SCORE>
-6.13445

>  <SCORE.INTER>
0.767345

>  <SCORE.INTER.CONST>
1

>  <SCORE.INTER.POLAR>
0

>  <SCORE.INTER.ROT>
8

>  <SCORE.INTER.SOLV>
6.34085

>  <SCORE.INTER.VDW>
-10.5354

>  <SCORE.INTER.norm>
0.0239795

>  <SCORE.INTRA>
-6.90179

>  <SCORE.INTRA.DIHEDRAL>
-7.86002

>  <SCORE.INTRA.DIHEDRAL.0>
10.9594

>  <SCORE.INTRA.POLAR>
0

>  <SCORE.INTRA.POLAR.0>
0

>  <SCORE.INTRA.REPUL>
0.00881156

>  <SCORE.INTRA.REPUL.0>
0

>  <SCORE.INTRA.SOLV>
-2.5929

>  <SCORE.INTRA.SOLV.lig_0>
-124.914

>  <SCORE.INTRA.VDW>
-1.71939

>  <SCORE.INTRA.VDW.0>
-4.69801

>  <SCORE.INTRA.norm>
-0.215681

>  <SCORE.RESTR>
0

>  <SCORE.RESTR.CAVITY>
0

>  <SCORE.RESTR.norm>
0

>  <SCORE.SYSTEM>
0

>  <SCORE.SYSTEM.CONST>
0

>  <SCORE.SYSTEM.DIHEDRAL>
0

>  <SCORE.SYSTEM.SOLV>
0

>  <SCORE.SYSTEM.norm>
0

>  <SCORE.heavy>
32

>  <SCORE.norm>
-0.191701

>  <RMSD>
5.367

$$$$
ligand
 OpenBabel11021811513D
libRbt.so/2013.1/901 2013/11/27
 32 34  0  0  0  0  0  0  0  0999 V2000
   16.0322  -25.3073  -16.4943 P   0  0  1  0  0  0  0  0  0  0  0  0
   15.9326  -26.8854  -14.1004 P   0  0  2  0  0  0  0  0  0  0  0  0
   13.0986  -26.9957  -13.3444 P   0  0  1  0  0  0  0  0  0  0  0  0
   15.6718  -23.4337  -18.2694 C   0  0  0  0  0  0  0  0  0  0  0  0
   15.7145  -23.7453  -16.9060 O   0  0  0  0  0  0  0  0  0  0  0  0
   15.2471  -22.1198  -18.4327 C   0  0  1  0  0  0  0  0  0  0  0  0
   16.2223  -21.1744  -17.7581 O   0  0  0  0  0  0  0  0  0  0  0  0
   15.2285  -21.7016  -19.9744 C   0  0  1  0  0  0  0  0  0  0  0  0
   13.8051  -21.4253  -20.4032 O   0  0  0  0  0  0  0  0  0  0  0  0
   15.8461  -20.6364  -20.0463 C   0  0  1  0  0  0  0  0  0  0  0  0
   14.8841  -19.5085  -20.0314 O   0  0  0  0  0  0  0  0  0  0  0  0
   16.8261  -20.5677  -18.7014 C   0  0  2  0  0  0  0  0  0  0  0  0
   21.8700  -19.8724  -19.3801 N   0  0  0  0  0  0  0  0  0  0  0  0
   14.9685  -26.2129  -17.0640 O   0  5  0  0  0  0  0  0  0  0  0  0
   16.3026  -26.7399  -12.6457 O   0  5  0  0  0  0  0  0  0  0  0  0
   13.3500  -27.3637  -11.9009 O   0  0  0  0  0  0  0  0  0  0  0  0
   20.9399  -18.9557  -19.1628 C   0  0  0  0  0  0  0  0  0  0  0  0
   21.3198  -17.5590  -19.0953 N   0  0  0  0  0  0  0  0  0  0  0  0
   17.3993  -25.6801  -17.0219 O   0  0  0  0  0  0  0  0  0  0  0  0
   16.8976  -27.8249  -14.7748 O   0  0  0  0  0  0  0  0  0  0  0  0
   12.9388  -25.4948  -13.4525 O   0  5  0  0  0  0  0  0  0  0  0  0
   19.6707  -19.2715  -19.0045 N   0  0  0  0  0  0  0  0  0  0  0  0
   16.0120  -25.4304  -14.8563 O   0  0  0  0  0  0  0  0  0  0  0  0
   14.4051  -27.4820  -14.2308 O   0  0  0  0  0  0  0  0  0  0  0  0
   11.8432  -27.6938  -13.8198 O   0  0  0  0  0  0  0  0  0  0  0  0
   19.2778  -20.5498  -19.0599 C   0  0  0  0  0  0  0  0  0  0  0  0
   20.2276  -21.5256  -19.2857 C   0  0  0  0  0  0  0  0  0  0  0  0
   21.5787  -21.1647  -19.4512 C   0  0  0  0  0  0  0  0  0  0  0  0
   22.5687  -22.1360  -19.6820 O   0  0  0  0  0  0  0  0  0  0  0  0
   19.5954  -22.7115  -19.2977 N   0  0  0  0  0  0  0  0  0  0  0  0
   18.3111  -22.4796  -19.0890 C   0  0  0  0  0  0  0  0  0  0  0  0
   18.1005  -21.1844  -18.9463 N   0  0  0  0  0  0  0  0  0  0  0  0
  1  5  1  6  0  0  0
  1 14  1  0  0  0  0
  1 19  2  0  0  0  0
  1 23  1  0  0  0  0
  2 15  1  1  0  0  0
  2 20  2  0  0  0  0
  2 23  1  0  0  0  0
  2 24  1  0  0  0  0
  3 16  1  1  0  0  0
  3 21  1  0  0  0  0
  3 24  1  0  0  0  0
  3 25  2  0  0  0  0
  4  5  1  0  0  0  0
  6  4  1  6  0  0  0
  6  7  1  0  0  0  0
  6  8  1  0  0  0  0
  7 12  1  0  0  0  0
  8  9  1  1  0  0  0
  8 10  1  0  0  0  0
 10 11  1  1  0  0  0
 10 12  1  0  0  0  0
 12 32  1  6  0  0  0
 13 17  2  0  0  0  0
 13 28  1  0  0  0  0
 17 18  1  0  0  0  0
 17 22  1  0  0  0  0
 22 26  2  0  0  0  0
 26 27  1  0  0  0  0
 26 32  1  0  0  0  0
 27 28  2  0  0  0  0
 27 30  1  0  0  0  0
 28 29  1  0  0  0  0
 30 31  2  0  0  0  0
 31 32  1  0  0  0  0
M  CHG  3  14  -1  15  -1  21  -1
M  END
>  <CHROM.1>
-60.42892752,164.64148306,-65.25352050,61.12021134,173.37282910,-131.39911311
165.18554566,43.82318267,16.62073741,-23.62310869,-16.97264700,-2.11284522
-0.01836453,-0.71191853

>  <Name>
ligand

>  <RI>
0

>  <Rbt.Current_Directory>
/home/itssahil/PROJECTS/Mol_Feturizer/New_Systems/rnas/4Y1I

>  <Rbt.Executable>
rbdock ($Id: //depot/dev/client3/rdock/2013.1/src/exe/rbdock.cxx#4 $)

>  <Rbt.Library>
libRbt.so (2013.1, Build901 2013/11/27)

>  <Rbt.Parameter_File>
/export/apps/rDock/src/rDock_2013.1_src/data/scripts/dock_solv.prm

>  <Rbt.Receptor>
prm/pocket_docking_5.prm

>  <SCORE>
-10.9599

>  <SCORE.INTER>
-5.51986

>  <SCORE.INTER.CONST>
1

>  <SCORE.INTER.POLAR>
0

>  <SCORE.INTER.ROT>
8

>  <SCORE.INTER.SOLV>
11.7742

>  <SCORE.INTER.VDW>
-16.538

>  <SCORE.INTER.norm>
-0.172496

>  <SCORE.INTRA>
-5.43999

>  <SCORE.INTRA.DIHEDRAL>
-8.33242

>  <SCORE.INTRA.DIHEDRAL.0>
10.9594

>  <SCORE.INTRA.POLAR>
0

>  <SCORE.INTRA.POLAR.0>
0

>  <SCORE.INTRA.REPUL>
0

>  <SCORE.INTRA.REPUL.0>
0

>  <SCORE.INTRA.SOLV>
-3.56524

>  <SCORE.INTRA.SOLV.lig_0>
-124.914

>  <SCORE.INTRA.VDW>
0.50884

>  <SCORE.INTRA.VDW.0>
-4.69801

>  <SCORE.INTRA.norm>
-0.17

>  <SCORE.RESTR>
0

>  <SCORE.RESTR.CAVITY>
0

>  <SCORE.RESTR.norm>
0

>  <SCORE.SYSTEM>
0

>  <SCORE.SYSTEM.CONST>
0

>  <SCORE.SYSTEM.DIHEDRAL>
0

>  <SCORE.SYSTEM.SOLV>
0

>  <SCORE.SYSTEM.norm>
0

>  <SCORE.heavy>
32

>  <SCORE.norm>
-0.342495

>  <RMSD>
5.367

$$$$
ligand
 OpenBabel11021811513D
libRbt.so/2013.1/901 2013/11/27
 32 34  0  0  0  0  0  0  0  0999 V2000
   18.3007  -26.1180  -18.5232 P   0  0  1  0  0  0  0  0  0  0  0  0
   17.4033  -28.6513  -17.5192 P   0  0  2  0  0  0  0  0  0  0  0  0
   18.4080  -31.1512  -18.6838 P   0  0  1  0  0  0  0  0  0  0  0  0
   16.8626  -24.0792  -17.7704 C   0  0  0  0  0  0  0  0  0  0  0  0
   16.8573  -25.4320  -18.1277 O   0  0  0  0  0  0  0  0  0  0  0  0
   15.5545  -23.6355  -17.6112 C   0  0  1  0  0  0  0  0  0  0  0  0
   15.5521  -22.2011  -17.1191 O   0  0  0  0  0  0  0  0  0  0  0  0
   14.7714  -23.6213  -19.0036 C   0  0  1  0  0  0  0  0  0  0  0  0
   13.6431  -24.6266  -18.9561 O   0  0  0  0  0  0  0  0  0  0  0  0
   14.2613  -22.5021  -19.0965 C   0  0  1  0  0  0  0  0  0  0  0  0
   12.8523  -22.5648  -18.6397 O   0  0  0  0  0  0  0  0  0  0  0  0
   15.1399  -21.4990  -18.0987 C   0  0  2  0  0  0  0  0  0  0  0  0
   16.6983  -18.4157  -21.9000 N   0  0  0  0  0  0  0  0  0  0  0  0
   18.7980  -25.5469  -19.8281 O   0  5  0  0  0  0  0  0  0  0  0  0
   16.0655  -28.0827  -17.1176 O   0  5  0  0  0  0  0  0  0  0  0  0
   19.5234  -31.2224  -17.6673 O   0  0  0  0  0  0  0  0  0  0  0  0
   15.4586  -18.7299  -21.5578 C   0  0  0  0  0  0  0  0  0  0  0  0
   14.3508  -18.1703  -22.3056 N   0  0  0  0  0  0  0  0  0  0  0  0
   19.2858  -25.8540  -17.4070 O   0  0  0  0  0  0  0  0  0  0  0  0
   18.3289  -28.6508  -16.3309 O   0  0  0  0  0  0  0  0  0  0  0  0
   17.8686  -32.5441  -18.9259 O   0  5  0  0  0  0  0  0  0  0  0  0
   15.1948  -19.5400  -20.5529 N   0  0  0  0  0  0  0  0  0  0  0  0
   18.0787  -27.7358  -18.7026 O   0  0  0  0  0  0  0  0  0  0  0  0
   17.2139  -30.1912  -18.0658 O   0  0  0  0  0  0  0  0  0  0  0  0
   18.9494  -30.5659  -19.9697 O   0  0  0  0  0  0  0  0  0  0  0  0
   16.1892  -20.0785  -19.8368 C   0  0  0  0  0  0  0  0  0  0  0  0
   17.4913  -19.7676  -20.1730 C   0  0  0  0  0  0  0  0  0  0  0  0
   17.7495  -18.8986  -21.2506 C   0  0  0  0  0  0  0  0  0  0  0  0
   19.0650  -18.5631  -21.6163 O   0  0  0  0  0  0  0  0  0  0  0  0
   18.2974  -20.4217  -19.3194 N   0  0  0  0  0  0  0  0  0  0  0  0
   17.5280  -21.1074  -18.4919 C   0  0  0  0  0  0  0  0  0  0  0  0
   16.2564  -20.9154  -18.7895 N   0  0  0  0  0  0  0  0  0  0  0  0
  1  5  1  1  0  0  0
  1 14  1  0  0  0  0
  1 19  2  0  0  0  0
  1 23  1  0  0  0  0
  2 15  1  1  0  0  0
  2 20  2  0  0  0  0
  2 23  1  0  0  0  0
  2 24  1  0  0  0  0
  3 16  1  1  0  0  0
  3 21  1  0  0  0  0
  3 24  1  0  0  0  0
  3 25  2  0  0  0  0
  4  5  1  0  0  0  0
  6  4  1  6  0  0  0
  6  7  1  0  0  0  0
  6  8  1  0  0  0  0
  7 12  1  0  0  0  0
  8  9  1  1  0  0  0
  8 10  1  0  0  0  0
 10 11  1  1  0  0  0
 10 12  1  0  0  0  0
 12 32  1  6  0  0  0
 13 17  2  0  0  0  0
 13 28  1  0  0  0  0
 17 18  1  0  0  0  0
 17 22  1  0  0  0  0
 22 26  2  0  0  0  0
 26 27  1  0  0  0  0
 26 32  1  0  0  0  0
 27 28  2  0  0  0  0
 27 30  1  0  0  0  0
 28 29  1  0  0  0  0
 30 31  2  0  0  0  0
 31 32  1  0  0  0  0
M  CHG  3  14  -1  15  -1  21  -1
M  END
>  <CHROM.1>
-68.75104709,54.52927021,54.71951914,175.60726467,173.62413842,-177.34073893
-54.43898293,176.38183214,16.97311584,-24.78367561,-18.90134536,-1.36719759
0.34524899,-0.27611747

>  <Name>
ligand

>  <RI>
0

>  <Rbt.Current_Directory>
/home/itssahil/PROJECTS/Mol_Feturizer/New_Systems/rnas/4Y1I

>  <Rbt.Executable>
rbdock ($Id: //depot/dev/client3/rdock/2013.1/src/exe/rbdock.cxx#4 $)

>  <Rbt.Library>
libRbt.so (2013.1, Build901 2013/11/27)

>  <Rbt.Parameter_File>
/export/apps/rDock/src/rDock_2013.1_src/data/scripts/dock_solv.prm

>  <Rbt.Receptor>
prm/pocket_docking_8.prm

>  <SCORE>
-7.73171

>  <SCORE.INTER>
-1.08243

>  <SCORE.INTER.CONST>
1

>  <SCORE.INTER.POLAR>
0

>  <SCORE.INTER.ROT>
8

>  <SCORE.INTER.SOLV>
8.30314

>  <SCORE.INTER.VDW>
-12.4227

>  <SCORE.INTER.norm>
-0.033826

>  <SCORE.INTRA>
-6.64928

>  <SCORE.INTRA.DIHEDRAL>
-9.20594

>  <SCORE.INTRA.DIHEDRAL.0>
10.9594

>  <SCORE.INTRA.POLAR>
0

>  <SCORE.INTRA.POLAR.0>
0

>  <SCORE.INTRA.REPUL>
0

>  <SCORE.INTRA.REPUL.0>
0

>  <SCORE.INTRA.SOLV>
-4.84548

>  <SCORE.INTRA.SOLV.lig_0>
-124.914

>  <SCORE.INTRA.VDW>
0.376434

>  <SCORE.INTRA.VDW.0>
-4.69801

>  <SCORE.INTRA.norm>
-0.20779

>  <SCORE.RESTR>
0

>  <SCORE.RESTR.CAVITY>
0

>  <SCORE.RESTR.norm>
0

>  <SCORE.SYSTEM>
0

>  <SCORE.SYSTEM.CONST>
0

>  <SCORE.SYSTEM.DIHEDRAL>
0

>  <SCORE.SYSTEM.SOLV>
0

>  <SCORE.SYSTEM.norm>
0

>  <SCORE.heavy>
32

>  <SCORE.norm>
-0.241616

>  <RMSD>
5.371

$$$$
ligand
 OpenBabel11021811513D
libRbt.so/2013.1/901 2013/11/27
 32 34  0  0  0  0  0  0  0  0999 V2000
   18.9269  -25.3005  -18.3790 P   0  0  1  0  0  0  0  0  0  0  0  0
   18.4640  -28.1236  -18.5963 P   0  0  2  0  0  0  0  0  0  0  0  0
   18.5019  -29.4014  -21.2385 P   0  0  1  0  0  0  0  0  0  0  0  0
   19.3157  -22.7617  -18.8199 C   0  0  0  0  0  0  0  0  0  0  0  0
   19.0715  -24.0136  -19.3953 O   0  0  0  0  0  0  0  0  0  0  0  0
   19.3425  -21.7904  -19.8145 C   0  0  1  0  0  0  0  0  0  0  0  0
   18.0525  -21.8311  -20.6109 O   0  0  0  0  0  0  0  0  0  0  0  0
   19.4254  -20.3217  -19.1914 C   0  0  1  0  0  0  0  0  0  0  0  0
   20.7414  -19.6853  -19.5776 O   0  0  0  0  0  0  0  0  0  0  0  0
   18.5300  -19.6699  -19.7344 C   0  0  1  0  0  0  0  0  0  0  0  0
   19.0988  -18.9032  -20.8686 O   0  0  0  0  0  0  0  0  0  0  0  0
   17.4160  -20.7741  -20.2944 C   0  0  2  0  0  0  0  0  0  0  0  0
   12.5301  -20.2462  -18.7996 N   0  0  0  0  0  0  0  0  0  0  0  0
   20.2390  -25.5474  -17.6764 O   0  5  0  0  0  0  0  0  0  0  0  0
   17.5510  -28.1102  -17.3961 O   0  5  0  0  0  0  0  0  0  0  0  0
   19.9750  -29.7152  -21.1209 O   0  0  0  0  0  0  0  0  0  0  0  0
   13.1086  -19.7659  -19.8893 C   0  0  0  0  0  0  0  0  0  0  0  0
   12.3256  -18.9830  -20.8239 N   0  0  0  0  0  0  0  0  0  0  0  0
   17.8262  -25.0118  -17.3834 O   0  0  0  0  0  0  0  0  0  0  0  0
   19.8511  -28.5278  -18.1704 O   0  0  0  0  0  0  0  0  0  0  0  0
   17.7998  -30.5626  -21.9079 O   0  5  0  0  0  0  0  0  0  0  0  0
   14.3815  -19.9765  -20.1557 N   0  0  0  0  0  0  0  0  0  0  0  0
   18.5434  -26.6278  -19.2679 O   0  0  0  0  0  0  0  0  0  0  0  0
   17.9009  -29.1911  -19.7140 O   0  0  0  0  0  0  0  0  0  0  0  0
   18.3302  -28.1404  -22.0569 O   0  0  0  0  0  0  0  0  0  0  0  0
   15.1399  -20.6942  -19.3182 C   0  0  0  0  0  0  0  0  0  0  0  0
   14.5615  -21.2062  -18.1744 C   0  0  0  0  0  0  0  0  0  0  0  0
   13.1988  -20.9689  -17.9106 C   0  0  0  0  0  0  0  0  0  0  0  0
   12.5816  -21.4779  -16.7543 O   0  0  0  0  0  0  0  0  0  0  0  0
   15.5131  -21.8798  -17.5057 N   0  0  0  0  0  0  0  0  0  0  0  0
   16.6310  -21.7880  -18.2047 C   0  0  0  0  0  0  0  0  0  0  0  0
   16.4266  -21.0761  -19.2973 N   0  0  0  0  0  0  0  0  0  0  0  0
  1  5  1  6  0  0  0
  1 14  1  0  0  0  0
  1 19  2  0  0  0  0
  1 23  1  0  0  0  0
  2 15  1  1  0  0  0
  2 20  2  0  0  0  0
  2 23  1  0  0  0  0
  2 24  1  0  0  0  0
  3 16  1  1  0  0  0
  3 21  1  0  0  0  0
  3 24  1  0  0  0  0
  3 25  2  0  0  0  0
  4  5  1  0  0  0  0
  6  4  1  1  0  0  0
  6  7  1  0  0  0  0
  6  8  1  0  0  0  0
  7 12  1  0  0  0  0
  8  9  1  6  0  0  0
  8 10  1  0  0  0  0
 10 11  1  6  0  0  0
 10 12  1  0  0  0  0
 12 32  1  1  0  0  0
 13 17  2  0  0  0  0
 13 28  1  0  0  0  0
 17 18  1  0  0  0  0
 17 22  1  0  0  0  0
 22 26  2  0  0  0  0
 26 27  1  0  0  0  0
 26 32  1  0  0  0  0
 27 28  2  0  0  0  0
 27 30  1  0  0  0  0
 28 29  1  0  0  0  0
 30 31  2  0  0  0  0
 31 32  1  0  0  0  0
M  CHG  3  14  -1  15  -1  21  -1
M  END
>  <CHROM.1>
-64.97773412,53.10768915,55.85913919,55.48316359,-177.10599489,-132.16737522
173.98779901,173.02308754,17.47232930,-24.09253791,-19.33734737,-1.19085587
0.12743199,0.02531709

>  <Name>
ligand

>  <RI>
0

>  <Rbt.Current_Directory>
/home/itssahil/PROJECTS/Mol_Feturizer/New_Systems/rnas/4Y1I

>  <Rbt.Executable>
rbdock ($Id: //depot/dev/client3/rdock/2013.1/src/exe/rbdock.cxx#4 $)

>  <Rbt.Library>
libRbt.so (2013.1, Build901 2013/11/27)

>  <Rbt.Parameter_File>
/export/apps/rDock/src/rDock_2013.1_src/data/scripts/dock_solv.prm

>  <Rbt.Receptor>
prm/pocket_docking_7.prm

>  <SCORE>
-7.51006

>  <SCORE.INTER>
-1.41254

>  <SCORE.INTER.CONST>
1

>  <SCORE.INTER.POLAR>
0

>  <SCORE.INTER.ROT>
8

>  <SCORE.INTER.SOLV>
10.8296

>  <SCORE.INTER.VDW>
-13.4849

>  <SCORE.INTER.norm>
-0.044142

>  <SCORE.INTRA>
-6.09752

>  <SCORE.INTRA.DIHEDRAL>
-9.33842

>  <SCORE.INTRA.DIHEDRAL.0>
10.9594

>  <SCORE.INTRA.POLAR>
0

>  <SCORE.INTRA.POLAR.0>
0

>  <SCORE.INTRA.REPUL>
0

>  <SCORE.INTRA.REPUL.0>
0

>  <SCORE.INTRA.SOLV>
-3.78514

>  <SCORE.INTRA.SOLV.lig_0>
-124.914

>  <SCORE.INTRA.VDW>
0.464259

>  <SCORE.INTRA.VDW.0>
-4.69801

>  <SCORE.INTRA.norm>
-0.190548

>  <SCORE.RESTR>
0

>  <SCORE.RESTR.CAVITY>
0

>  <SCORE.RESTR.norm>
0

>  <SCORE.SYSTEM>
0

>  <SCORE.SYSTEM.CONST>
0

>  <SCORE.SYSTEM.DIHEDRAL>
0

>  <SCORE.SYSTEM.SOLV>
0

>  <SCORE.SYSTEM.norm>
0

>  <SCORE.heavy>
32

>  <SCORE.norm>
-0.23469

>  <RMSD>
5.372

$$$$
ligand
 OpenBabel11021811513D
libRbt.so/2013.1/901 2013/11/27
 32 34  0  0  0  0  0  0  0  0999 V2000
   18.0469  -25.3125  -21.5769 P   0  0  1  0  0  0  0  0  0  0  0  0
   18.3850  -28.0119  -20.6658 P   0  0  2  0  0  0  0  0  0  0  0  0
   15.6509  -28.4875  -19.7100 P   0  0  1  0  0  0  0  0  0  0  0  0
   17.4612  -22.7750  -21.6733 C   0  0  0  0  0  0  0  0  0  0  0  0
   18.0435  -23.8021  -20.9222 O   0  0  0  0  0  0  0  0  0  0  0  0
   17.5290  -21.5827  -20.9611 C   0  0  1  0  0  0  0  0  0  0  0  0
   16.8843  -21.7573  -19.5995 O   0  0  0  0  0  0  0  0  0  0  0  0
   19.0431  -21.1600  -20.6769 C   0  0  1  0  0  0  0  0  0  0  0  0
   19.3507  -19.8717  -21.4061 O   0  0  0  0  0  0  0  0  0  0  0  0
   19.1096  -20.9218  -19.4685 C   0  0  1  0  0  0  0  0  0  0  0  0
   18.9687  -19.4628  -19.2466 O   0  0  0  0  0  0  0  0  0  0  0  0
   17.8398  -21.7318  -18.7576 C   0  0  2  0  0  0  0  0  0  0  0  0
   21.5723  -25.2559  -18.5701 N   0  0  0  0  0  0  0  0  0  0  0  0
   16.6781  -25.6366  -22.1225 O   0  5  0  0  0  0  0  0  0  0  0  0
   19.0020  -28.7480  -19.5031 O   0  5  0  0  0  0  0  0  0  0  0  0
   14.3918  -29.0624  -20.3155 O   0  0  0  0  0  0  0  0  0  0  0  0
   21.6404  -24.0159  -19.0287 C   0  0  0  0  0  0  0  0  0  0  0  0
   22.8947  -23.5220  -19.5600 N   0  0  0  0  0  0  0  0  0  0  0  0
   19.0911  -25.3660  -22.6691 O   0  0  0  0  0  0  0  0  0  0  0  0
   19.1693  -28.3005  -21.9190 O   0  0  0  0  0  0  0  0  0  0  0  0
   16.0783  -29.3505  -18.5429 O   0  5  0  0  0  0  0  0  0  0  0  0
   20.5993  -23.2087  -19.0188 N   0  0  0  0  0  0  0  0  0  0  0  0
   18.4166  -26.3930  -20.3959 O   0  0  0  0  0  0  0  0  0  0  0  0
   16.8268  -28.4978  -20.8704 O   0  0  0  0  0  0  0  0  0  0  0  0
   15.3738  -27.0743  -19.2456 O   0  0  0  0  0  0  0  0  0  0  0  0
   19.4223  -23.6258  -18.5369 C   0  0  0  0  0  0  0  0  0  0  0  0
   19.3238  -24.9146  -18.0528 C   0  0  0  0  0  0  0  0  0  0  0  0
   20.4502  -25.7596  -18.0728 C   0  0  0  0  0  0  0  0  0  0  0  0
   20.3809  -27.0769  -17.5863 O   0  0  0  0  0  0  0  0  0  0  0  0
   18.0605  -25.0936  -17.6305 N   0  0  0  0  0  0  0  0  0  0  0  0
   17.4061  -23.9654  -17.8444 C   0  0  0  0  0  0  0  0  0  0  0  0
   18.2084  -23.0714  -18.3916 N   0  0  0  0  0  0  0  0  0  0  0  0
  1  5  1  1  0  0  0
  1 14  1  0  0  0  0
  1 19  2  0  0  0  0
  1 23  1  0  0  0  0
  2 15  1  1  0  0  0
  2 20  2  0  0  0  0
  2 23  1  0  0  0  0
  2 24  1  0  0  0  0
  3 16  1  6  0  0  0
  3 21  1  0  0  0  0
  3 24  1  0  0  0  0
  3 25  2  0  0  0  0
  4  5  1  0  0  0  0
  6  4  1  1  0  0  0
  6  7  1  0  0  0  0
  6  8  1  0  0  0  0
  7 12  1  0  0  0  0
  8  9  1  6  0  0  0
  8 10  1  0  0  0  0
 10 11  1  6  0  0  0
 10 12  1  0  0  0  0
 12 32  1  6  0  0  0
 13 17  2  0  0  0  0
 13 28  1  0  0  0  0
 17 18  1  0  0  0  0
 17 22  1  0  0  0  0
 22 26  2  0  0  0  0
 26 27  1  0  0  0  0
 26 32  1  0  0  0  0
 27 28  2  0  0  0  0
 27 30  1  0  0  0  0
 28 29  1  0  0  0  0
 30 31  2  0  0  0  0
 31 32  1  0  0  0  0
M  CHG  3  14  -1  15  -1  21  -1
M  END
>  <CHROM.1>
-46.92465576,169.73718143,-177.91820783,-55.39510231,179.05984989,121.52196363
174.75575069,54.24709186,18.30624336,-25.10814740,-19.91108715,1.94545799
0.39980854,3.03094590

>  <Name>
ligand

>  <RI>
0

>  <Rbt.Current_Directory>
/home/itssahil/PROJECTS/Mol_Feturizer/New_Systems/rnas/4Y1I

>  <Rbt.Executable>
rbdock ($Id: //depot/dev/client3/rdock/2013.1/src/exe/rbdock.cxx#4 $)

>  <Rbt.Library>
libRbt.so (2013.1, Build901 2013/11/27)

>  <Rbt.Parameter_File>
/export/apps/rDock/src/rDock_2013.1_src/data/scripts/dock_solv.prm

>  <Rbt.Receptor>
prm/pocket_docking_4.prm

>  <SCORE>
-5.40434

>  <SCORE.INTER>
1.55132

>  <SCORE.INTER.CONST>
1

>  <SCORE.INTER.POLAR>
0

>  <SCORE.INTER.ROT>
8

>  <SCORE.INTER.SOLV>
6.14676

>  <SCORE.INTER.VDW>
-9.94804

>  <SCORE.INTER.norm>
0.0484788

>  <SCORE.INTRA>
-6.95566

>  <SCORE.INTRA.DIHEDRAL>
-9.06922

>  <SCORE.INTRA.DIHEDRAL.0>
10.9594

>  <SCORE.INTRA.POLAR>
0

>  <SCORE.INTRA.POLAR.0>
0

>  <SCORE.INTRA.REPUL>
0

>  <SCORE.INTRA.REPUL.0>
0

>  <SCORE.INTRA.SOLV>
0.891113

>  <SCORE.INTRA.SOLV.lig_0>
-124.914

>  <SCORE.INTRA.VDW>
-2.86661

>  <SCORE.INTRA.VDW.0>
-4.69801

>  <SCORE.INTRA.norm>
-0.217364

>  <SCORE.RESTR>
0

>  <SCORE.RESTR.CAVITY>
0

>  <SCORE.RESTR.norm>
0

>  <SCORE.SYSTEM>
0

>  <SCORE.SYSTEM.CONST>
0

>  <SCORE.SYSTEM.DIHEDRAL>
0

>  <SCORE.SYSTEM.SOLV>
0

>  <SCORE.SYSTEM.norm>
0

>  <SCORE.heavy>
32

>  <SCORE.norm>
-0.168886

>  <RMSD>
5.373

$$$$
ligand
 OpenBabel11021811513D
libRbt.so/2013.1/901 2013/11/27
 32 34  0  0  0  0  0  0  0  0999 V2000
   16.3171  -24.9283  -15.8931 P   0  0  1  0  0  0  0  0  0  0  0  0
   13.8402  -26.1898  -15.1829 P   0  0  2  0  0  0  0  0  0  0  0  0
   13.2441  -26.5358  -12.3297 P   0  0  1  0  0  0  0  0  0  0  0  0
   15.5015  -23.3696  -17.8158 C   0  0  0  0  0  0  0  0  0  0  0  0
   15.6699  -23.5146  -16.4343 O   0  0  0  0  0  0  0  0  0  0  0  0
   15.0712  -22.0780  -18.0985 C   0  0  1  0  0  0  0  0  0  0  0  0
   16.0921  -21.0731  -17.6004 O   0  0  0  0  0  0  0  0  0  0  0  0
   14.9518  -21.8360  -19.6730 C   0  0  1  0  0  0  0  0  0  0  0  0
   13.5041  -21.5944  -20.0362 O   0  0  0  0  0  0  0  0  0  0  0  0
   15.5668  -20.7923  -19.9052 C   0  0  1  0  0  0  0  0  0  0  0  0
   14.6116  -19.6596  -19.9549 O   0  0  0  0  0  0  0  0  0  0  0  0
   16.6340  -20.5831  -18.6438 C   0  0  2  0  0  0  0  0  0  0  0  0
   21.6878  -20.0355  -19.3820 N   0  0  0  0  0  0  0  0  0  0  0  0
   17.5467  -25.2692  -16.6981 O   0  5  0  0  0  0  0  0  0  0  0  0
   13.0673  -27.4468  -15.4941 O   0  5  0  0  0  0  0  0  0  0  0  0
   12.8939  -28.0021  -12.4273 O   0  0  0  0  0  0  0  0  0  0  0  0
   20.7867  -19.0916  -19.1584 C   0  0  0  0  0  0  0  0  0  0  0  0
   21.2073  -17.7062  -19.1013 N   0  0  0  0  0  0  0  0  0  0  0  0
   16.6550  -24.7778  -14.4271 O   0  0  0  0  0  0  0  0  0  0  0  0
   12.9947  -24.9853  -15.5038 O   0  0  0  0  0  0  0  0  0  0  0  0
   13.9563  -26.2826  -11.0189 O   0  5  0  0  0  0  0  0  0  0  0  0
   19.5109  -19.3702  -18.9844 N   0  0  0  0  0  0  0  0  0  0  0  0
   15.2056  -26.1216  -16.0915 O   0  0  0  0  0  0  0  0  0  0  0  0
   14.2470  -26.1650  -13.5892 O   0  0  0  0  0  0  0  0  0  0  0  0
   11.9725  -25.7192  -12.4038 O   0  0  0  0  0  0  0  0  0  0  0  0
   19.0810  -20.6370  -19.0298 C   0  0  0  0  0  0  0  0  0  0  0  0
   19.9998  -21.6405  -19.2620 C   0  0  0  0  0  0  0  0  0  0  0  0
   21.3587  -21.3191  -19.4443 C   0  0  0  0  0  0  0  0  0  0  0  0
   22.3179  -22.3194  -19.6818 O   0  0  0  0  0  0  0  0  0  0  0  0
   19.3339  -22.8078  -19.2616 N   0  0  0  0  0  0  0  0  0  0  0  0
   18.0591  -22.5384  -19.0396 C   0  0  0  0  0  0  0  0  0  0  0  0
   17.8873  -21.2371  -18.9002 N   0  0  0  0  0  0  0  0  0  0  0  0
  1  5  1  6  0  0  0
  1 14  1  0  0  0  0
  1 19  2  0  0  0  0
  1 23  1  0  0  0  0
  2 15  1  6  0  0  0
  2 20  2  0  0  0  0
  2 23  1  0  0  0  0
  2 24  1  0  0  0  0
  3 16  1  6  0  0  0
  3 21  1  0  0  0  0
  3 24  1  0  0  0  0
  3 25  2  0  0  0  0
  4  5  1  0  0  0  0
  6  4  1  6  0  0  0
  6  7  1  0  0  0  0
  6  8  1  0  0  0  0
  7 12  1  0  0  0  0
  8  9  1  1  0  0  0
  8 10  1  0  0  0  0
 10 11  1  1  0  0  0
 10 12  1  0  0  0  0
 12 32  1  6  0  0  0
 13 17  2  0  0  0  0
 13 28  1  0  0  0  0
 17 18  1  0  0  0  0
 17 22  1  0  0  0  0
 22 26  2  0  0  0  0
 26 27  1  0  0  0  0
 26 32  1  0  0  0  0
 27 28  2  0  0  0  0
 27 30  1  0  0  0  0
 28 29  1  0  0  0  0
 30 31  2  0  0  0  0
 31 32  1  0  0  0  0
M  CHG  3  14  -1  15  -1  21  -1
M  END
>  <CHROM.1>
47.72872629,-175.08521405,65.85253976,59.45771949,-174.18392955,-124.30395018
-69.92684347,-45.01262550,16.23729217,-23.40822305,-16.80227197,-2.18505821
-0.04081365,-0.80536701

>  <Name>
ligand

>  <RI>
0

>  <Rbt.Current_Directory>
/home/itssahil/PROJECTS/Mol_Feturizer/New_Systems/rnas/4Y1I

>  <Rbt.Executable>
rbdock ($Id: //depot/dev/client3/rdock/2013.1/src/exe/rbdock.cxx#4 $)

>  <Rbt.Library>
libRbt.so (2013.1, Build901 2013/11/27)

>  <Rbt.Parameter_File>
/export/apps/rDock/src/rDock_2013.1_src/data/scripts/dock_solv.prm

>  <Rbt.Receptor>
prm/pocket_docking_6.prm

>  <SCORE>
-11.3486

>  <SCORE.INTER>
-4.93548

>  <SCORE.INTER.CONST>
1

>  <SCORE.INTER.POLAR>
0

>  <SCORE.INTER.ROT>
8

>  <SCORE.INTER.SOLV>
17.2136

>  <SCORE.INTER.VDW>
-17.9615

>  <SCORE.INTER.norm>
-0.154234

>  <SCORE.INTRA>
-6.41315

>  <SCORE.INTRA.DIHEDRAL>
-8.75499

>  <SCORE.INTRA.DIHEDRAL.0>
10.9594

>  <SCORE.INTRA.POLAR>
0

>  <SCORE.INTRA.POLAR.0>
0

>  <SCORE.INTRA.REPUL>
0

>  <SCORE.INTRA.REPUL.0>
0

>  <SCORE.INTRA.SOLV>
-4.32396

>  <SCORE.INTRA.SOLV.lig_0>
-124.914

>  <SCORE.INTRA.VDW>
0.126328

>  <SCORE.INTRA.VDW.0>
-4.69801

>  <SCORE.INTRA.norm>
-0.200411

>  <SCORE.RESTR>
0

>  <SCORE.RESTR.CAVITY>
0

>  <SCORE.RESTR.norm>
0

>  <SCORE.SYSTEM>
0

>  <SCORE.SYSTEM.CONST>
0

>  <SCORE.SYSTEM.DIHEDRAL>
0

>  <SCORE.SYSTEM.SOLV>
0

>  <SCORE.SYSTEM.norm>
0

>  <SCORE.heavy>
32

>  <SCORE.norm>
-0.354645

>  <RMSD>
5.379

$$$$
ligand
 OpenBabel11021811513D
libRbt.so/2013.1/901 2013/11/27
 32 34  0  0  0  0  0  0  0  0999 V2000
   15.3333  -25.3850  -14.2316 P   0  0  1  0  0  0  0  0  0  0  0  0
   15.2678  -28.1718  -14.9106 P   0  0  2  0  0  0  0  0  0  0  0  0
   12.9685  -28.7579  -13.1828 P   0  0  1  0  0  0  0  0  0  0  0  0
   16.9943  -24.9353  -16.1887 C   0  0  0  0  0  0  0  0  0  0  0  0
   15.6581  -24.9103  -15.7741 O   0  0  0  0  0  0  0  0  0  0  0  0
   17.0919  -24.4142  -17.4741 C   0  0  1  0  0  0  0  0  0  0  0  0
   18.5505  -24.2626  -17.8605 O   0  0  0  0  0  0  0  0  0  0  0  0
   16.4545  -25.4046  -18.5534 C   0  0  1  0  0  0  0  0  0  0  0  0
   15.2479  -24.7491  -19.1864 O   0  0  0  0  0  0  0  0  0  0  0  0
   17.3044  -25.5385  -19.4372 C   0  0  1  0  0  0  0  0  0  0  0  0
   17.0074  -24.6054  -20.5503 O   0  0  0  0  0  0  0  0  0  0  0  0
   18.7693  -25.1525  -18.7452 C   0  0  2  0  0  0  0  0  0  0  0  0
   23.1632  -27.5330  -17.5566 N   0  0  0  0  0  0  0  0  0  0  0  0
   16.0538  -24.4863  -13.2574 O   0  5  0  0  0  0  0  0  0  0  0  0
   15.9656  -29.4570  -14.5426 O   0  5  0  0  0  0  0  0  0  0  0  0
   13.3366  -27.7244  -12.1443 O   0  0  0  0  0  0  0  0  0  0  0  0
   23.0023  -26.3742  -18.1763 C   0  0  0  0  0  0  0  0  0  0  0  0
   24.1688  -25.6273  -18.6018 N   0  0  0  0  0  0  0  0  0  0  0  0
   13.8383  -25.3325  -14.0121 O   0  0  0  0  0  0  0  0  0  0  0  0
   15.4886  -27.8782  -16.3713 O   0  0  0  0  0  0  0  0  0  0  0  0
   11.4630  -28.7994  -13.3288 O   0  5  0  0  0  0  0  0  0  0  0  0
   21.8092  -25.8722  -18.4214 N   0  0  0  0  0  0  0  0  0  0  0  0
   15.8741  -26.9236  -14.0337 O   0  0  0  0  0  0  0  0  0  0  0  0
   13.6550  -28.3085  -14.6167 O   0  0  0  0  0  0  0  0  0  0  0  0
   13.4917  -30.1076  -12.7422 O   0  0  0  0  0  0  0  0  0  0  0  0
   20.7061  -26.5304  -18.0451 C   0  0  0  0  0  0  0  0  0  0  0  0
   20.8457  -27.7413  -17.3975 C   0  0  0  0  0  0  0  0  0  0  0  0
   22.1311  -28.2581  -17.1454 C   0  0  0  0  0  0  0  0  0  0  0  0
   22.3050  -29.4884  -16.4874 O   0  0  0  0  0  0  0  0  0  0  0  0
   19.6120  -28.1999  -17.1255 N   0  0  0  0  0  0  0  0  0  0  0  0
   18.7474  -27.3122  -17.5850 C   0  0  0  0  0  0  0  0  0  0  0  0
   19.3871  -26.3020  -18.1440 N   0  0  0  0  0  0  0  0  0  0  0  0
  1  5  1  6  0  0  0
  1 14  1  0  0  0  0
  1 19  2  0  0  0  0
  1 23  1  0  0  0  0
  2 15  1  1  0  0  0
  2 20  2  0  0  0  0
  2 23  1  0  0  0  0
  2 24  1  0  0  0  0
  3 16  1  1  0  0  0
  3 21  1  0  0  0  0
  3 24  1  0  0  0  0
  3 25  2  0  0  0  0
  4  5  1  0  0  0  0
  6  4  1  1  0  0  0
  6  7  1  0  0  0  0
  6  8  1  0  0  0  0
  7 12  1  0  0  0  0
  8  9  1  6  0  0  0
  8 10  1  0  0  0  0
 10 11  1  6  0  0  0
 10 12  1  0  0  0  0
 12 32  1  1  0  0  0
 13 17  2  0  0  0  0
 13 28  1  0  0  0  0
 17 18  1  0  0  0  0
 17 22  1  0  0  0  0
 22 26  2  0  0  0  0
 26 27  1  0  0  0  0
 26 32  1  0  0  0  0
 27 28  2  0  0  0  0
 27 30  1  0  0  0  0
 28 29  1  0  0  0  0
 30 31  2  0  0  0  0
 31 32  1  0  0  0  0
M  CHG  3  14  -1  15  -1  21  -1
M  END
>  <CHROM.1>
60.56577890,178.81563083,62.68735084,172.38615697,-175.69672787,-92.62819406
-62.22606132,53.86957015,17.07674485,-26.79119281,-16.10243515,2.67596522
-0.32817292,2.43637913

>  <Name>
ligand

>  <RI>
0

>  <Rbt.Current_Directory>
/home/itssahil/PROJECTS/Mol_Feturizer/New_Systems/rnas/4Y1I

>  <Rbt.Executable>
rbdock ($Id: //depot/dev/client3/rdock/2013.1/src/exe/rbdock.cxx#4 $)

>  <Rbt.Library>
libRbt.so (2013.1, Build901 2013/11/27)

>  <Rbt.Parameter_File>
/export/apps/rDock/src/rDock_2013.1_src/data/scripts/dock_solv.prm

>  <Rbt.Receptor>
prm/pocket_docking_5.prm

>  <SCORE>
-6.17764

>  <SCORE.INTER>
0.825771

>  <SCORE.INTER.CONST>
1

>  <SCORE.INTER.POLAR>
0

>  <SCORE.INTER.ROT>
8

>  <SCORE.INTER.SOLV>
9.61813

>  <SCORE.INTER.VDW>
-11.5889

>  <SCORE.INTER.norm>
0.0258054

>  <SCORE.INTRA>
-7.00341

>  <SCORE.INTRA.DIHEDRAL>
-9.3679

>  <SCORE.INTRA.DIHEDRAL.0>
10.9594

>  <SCORE.INTRA.POLAR>
0

>  <SCORE.INTRA.POLAR.0>
0

>  <SCORE.INTRA.REPUL>
0

>  <SCORE.INTRA.REPUL.0>
0

>  <SCORE.INTRA.SOLV>
-2.3654

>  <SCORE.INTRA.SOLV.lig_0>
-124.914

>  <SCORE.INTRA.VDW>
-1.13676

>  <SCORE.INTRA.VDW.0>
-4.69801

>  <SCORE.INTRA.norm>
-0.218857

>  <SCORE.RESTR>
0

>  <SCORE.RESTR.CAVITY>
0

>  <SCORE.RESTR.norm>
0

>  <SCORE.SYSTEM>
0

>  <SCORE.SYSTEM.CONST>
0

>  <SCORE.SYSTEM.DIHEDRAL>
0

>  <SCORE.SYSTEM.SOLV>
0

>  <SCORE.SYSTEM.norm>
0

>  <SCORE.heavy>
32

>  <SCORE.norm>
-0.193051

>  <RMSD>
5.446

$$$$
ligand
 OpenBabel11021811513D
libRbt.so/2013.1/901 2013/11/27
 32 34  0  0  0  0  0  0  0  0999 V2000
   16.4406  -25.2725  -22.0081 P   0  0  1  0  0  0  0  0  0  0  0  0
   16.6936  -27.9513  -21.0127 P   0  0  2  0  0  0  0  0  0  0  0  0
   14.3180  -29.6732  -21.0939 P   0  0  1  0  0  0  0  0  0  0  0  0
   18.4077  -23.6095  -21.6124 C   0  0  0  0  0  0  0  0  0  0  0  0
   17.0187  -23.7774  -21.6327 O   0  0  0  0  0  0  0  0  0  0  0  0
   18.7196  -22.3892  -21.0234 C   0  0  1  0  0  0  0  0  0  0  0  0
   18.0994  -22.3091  -19.6419 O   0  0  0  0  0  0  0  0  0  0  0  0
   20.2946  -22.2342  -20.8051 C   0  0  1  0  0  0  0  0  0  0  0  0
   20.8121  -21.1020  -21.6633 O   0  0  0  0  0  0  0  0  0  0  0  0
   20.4443  -21.8992  -19.6276 C   0  0  1  0  0  0  0  0  0  0  0  0
   20.5847  -20.4254  -19.5498 O   0  0  0  0  0  0  0  0  0  0  0  0
   19.0704  -22.3843  -18.8208 C   0  0  2  0  0  0  0  0  0  0  0  0
   22.1640  -26.4223  -18.1071 N   0  0  0  0  0  0  0  0  0  0  0  0
   14.9325  -25.2620  -21.9706 O   0  5  0  0  0  0  0  0  0  0  0  0
   17.3139  -28.6884  -19.8524 O   0  5  0  0  0  0  0  0  0  0  0  0
   14.8794  -30.4323  -22.2733 O   0  0  0  0  0  0  0  0  0  0  0  0
   22.4583  -25.2528  -18.6534 C   0  0  0  0  0  0  0  0  0  0  0  0
   23.8040  -25.0104  -19.1330 N   0  0  0  0  0  0  0  0  0  0  0  0
   16.9449  -25.6575  -23.3806 O   0  0  0  0  0  0  0  0  0  0  0  0
   17.2910  -28.4479  -22.3032 O   0  0  0  0  0  0  0  0  0  0  0  0
   14.6024  -30.4476  -19.8254 O   0  5  0  0  0  0  0  0  0  0  0  0
   21.5633  -24.2940  -18.7771 N   0  0  0  0  0  0  0  0  0  0  0  0
   16.9916  -26.3417  -20.8893 O   0  0  0  0  0  0  0  0  0  0  0  0
   15.0680  -28.2027  -21.0287 O   0  0  0  0  0  0  0  0  0  0  0  0
   12.8265  -29.5021  -21.2824 O   0  0  0  0  0  0  0  0  0  0  0  0
   20.3091  -24.4775  -18.3472 C   0  0  0  0  0  0  0  0  0  0  0  0
   19.9756  -25.6880  -17.7740 C   0  0  0  0  0  0  0  0  0  0  0  0
   20.9490  -26.6981  -17.6515 C   0  0  0  0  0  0  0  0  0  0  0  0
   20.6394  -27.9411  -17.0717 O   0  0  0  0  0  0  0  0  0  0  0  0
   18.6784  -25.6287  -17.4276 N   0  0  0  0  0  0  0  0  0  0  0  0
   18.2291  -24.4343  -17.7717 C   0  0  0  0  0  0  0  0  0  0  0  0
   19.1953  -23.7285  -18.3289 N   0  0  0  0  0  0  0  0  0  0  0  0
  1  5  1  1  0  0  0
  1 14  1  0  0  0  0
  1 19  2  0  0  0  0
  1 23  1  0  0  0  0
  2 15  1  1  0  0  0
  2 20  2  0  0  0  0
  2 23  1  0  0  0  0
  2 24  1  0  0  0  0
  3 16  1  6  0  0  0
  3 21  1  0  0  0  0
  3 24  1  0  0  0  0
  3 25  2  0  0  0  0
  4  5  1  0  0  0  0
  6  4  1  1  0  0  0
  6  7  1  0  0  0  0
  6  8  1  0  0  0  0
  7 12  1  0  0  0  0
  8  9  1  6  0  0  0
  8 10  1  0  0  0  0
 10 11  1  6  0  0  0
 10 12  1  0  0  0  0
 12 32  1  6  0  0  0
 13 17  2  0  0  0  0
 13 28  1  0  0  0  0
 17 18  1  0  0  0  0
 17 22  1  0  0  0  0
 22 26  2  0  0  0  0
 26 27  1  0  0  0  0
 26 32  1  0  0  0  0
 27 28  2  0  0  0  0
 27 30  1  0  0  0  0
 28 29  1  0  0  0  0
 30 31  2  0  0  0  0
 31 32  1  0  0  0  0
M  CHG  3  14  -1  15  -1  21  -1
M  END
>  <CHROM.1>
179.61175725,-179.92581165,-53.03183316,55.63578861,-168.06120883,126.82799807
-175.70467812,-56.91363454,18.04470916,-25.77384691,-20.23104933,2.55503874
0.60371610,2.76907286

>  <Name>
ligand

>  <RI>
0

>  <Rbt.Current_Directory>
/home/itssahil/PROJECTS/Mol_Feturizer/New_Systems/rnas/4Y1I

>  <Rbt.Executable>
rbdock ($Id: //depot/dev/client3/rdock/2013.1/src/exe/rbdock.cxx#4 $)

>  <Rbt.Library>
libRbt.so (2013.1, Build901 2013/11/27)

>  <Rbt.Parameter_File>
/export/apps/rDock/src/rDock_2013.1_src/data/scripts/dock_solv.prm

>  <Rbt.Receptor>
prm/pocket_docking_5.prm

>  <SCORE>
-5.24144

>  <SCORE.INTER>
1.67618

>  <SCORE.INTER.CONST>
1

>  <SCORE.INTER.POLAR>
0

>  <SCORE.INTER.ROT>
8

>  <SCORE.INTER.SOLV>
5.23186

>  <SCORE.INTER.VDW>
-9.55983

>  <SCORE.INTER.norm>
0.0523807

>  <SCORE.INTRA>
-6.91762

>  <SCORE.INTRA.DIHEDRAL>
-8.87746

>  <SCORE.INTRA.DIHEDRAL.0>
10.9594

>  <SCORE.INTRA.POLAR>
0

>  <SCORE.INTRA.POLAR.0>
0

>  <SCORE.INTRA.REPUL>
0

>  <SCORE.INTRA.REPUL.0>
0

>  <SCORE.INTRA.SOLV>
-4.43764

>  <SCORE.INTRA.SOLV.lig_0>
-124.914

>  <SCORE.INTRA.VDW>
-0.260071

>  <SCORE.INTRA.VDW.0>
-4.69801

>  <SCORE.INTRA.norm>
-0.216176

>  <SCORE.RESTR>
0

>  <SCORE.RESTR.CAVITY>
0

>  <SCORE.RESTR.norm>
0

>  <SCORE.SYSTEM>
0

>  <SCORE.SYSTEM.CONST>
0

>  <SCORE.SYSTEM.DIHEDRAL>
0

>  <SCORE.SYSTEM.SOLV>
0

>  <SCORE.SYSTEM.norm>
0

>  <SCORE.heavy>
32

>  <SCORE.norm>
-0.163795

>  <RMSD>
5.512

$$$$
ligand
 OpenBabel11021811513D
libRbt.so/2013.1/901 2013/11/27
 32 34  0  0  0  0  0  0  0  0999 V2000
   15.5125  -24.5362  -14.6808 P   0  0  1  0  0  0  0  0  0  0  0  0
   14.0843  -26.5037  -13.1576 P   0  0  2  0  0  0  0  0  0  0  0  0
   11.1502  -26.5631  -13.2122 P   0  0  1  0  0  0  0  0  0  0  0  0
   14.6739  -23.3693  -16.8549 C   0  0  0  0  0  0  0  0  0  0  0  0
   15.1069  -23.1895  -15.5365 O   0  0  0  0  0  0  0  0  0  0  0  0
   14.3505  -22.1361  -17.4100 C   0  0  1  0  0  0  0  0  0  0  0  0
   15.5078  -21.1717  -17.2352 O   0  0  0  0  0  0  0  0  0  0  0  0
   14.1120  -22.2518  -18.9854 C   0  0  1  0  0  0  0  0  0  0  0  0
   12.6684  -21.9308  -19.3002 O   0  0  0  0  0  0  0  0  0  0  0  0
   14.8040  -21.3704  -19.5007 C   0  0  1  0  0  0  0  0  0  0  0  0
   13.9660  -20.1748  -19.7577 O   0  0  0  0  0  0  0  0  0  0  0  0
   15.9979  -21.0036  -18.3989 C   0  0  2  0  0  0  0  0  0  0  0  0
   21.0167  -21.2326  -19.4684 N   0  0  0  0  0  0  0  0  0  0  0  0
   16.4333  -25.4053  -15.5011 O   0  5  0  0  0  0  0  0  0  0  0  0
   14.2584  -25.8464  -11.8115 O   0  5  0  0  0  0  0  0  0  0  0  0
   10.1048  -27.6496  -13.1179 O   0  0  0  0  0  0  0  0  0  0  0  0
   20.2424  -20.1608  -19.4029 C   0  0  0  0  0  0  0  0  0  0  0  0
   20.8150  -18.8534  -19.6528 N   0  0  0  0  0  0  0  0  0  0  0  0
   16.1771  -24.1102  -13.3912 O   0  0  0  0  0  0  0  0  0  0  0  0
   15.1970  -27.4935  -13.3833 O   0  0  0  0  0  0  0  0  0  0  0  0
   11.0272  -25.6514  -12.0109 O   0  5  0  0  0  0  0  0  0  0  0  0
   18.9592  -20.2419  -19.1161 N   0  0  0  0  0  0  0  0  0  0  0  0
   14.1412  -25.3788  -14.3518 O   0  0  0  0  0  0  0  0  0  0  0  0
   12.6370  -27.2834  -13.2149 O   0  0  0  0  0  0  0  0  0  0  0  0
   10.9352  -25.7815  -14.4899 O   0  0  0  0  0  0  0  0  0  0  0  0
   18.3911  -21.4304  -18.8788 C   0  0  0  0  0  0  0  0  0  0  0  0
   19.1759  -22.5641  -18.9411 C   0  0  0  0  0  0  0  0  0  0  0  0
   20.5456  -22.4532  -19.2488 C   0  0  0  0  0  0  0  0  0  0  0  0
   21.3704  -23.5897  -19.3190 O   0  0  0  0  0  0  0  0  0  0  0  0
   18.3878  -23.6181  -18.6687 N   0  0  0  0  0  0  0  0  0  0  0  0
   17.1691  -23.1569  -18.4481 C   0  0  0  0  0  0  0  0  0  0  0  0
   17.1510  -21.8430  -18.5726 N   0  0  0  0  0  0  0  0  0  0  0  0
  1  5  1  6  0  0  0
  1 14  1  0  0  0  0
  1 19  2  0  0  0  0
  1 23  1  0  0  0  0
  2 15  1  1  0  0  0
  2 20  2  0  0  0  0
  2 23  1  0  0  0  0
  2 24  1  0  0  0  0
  3 16  1  1  0  0  0
  3 21  1  0  0  0  0
  3 24  1  0  0  0  0
  3 25  2  0  0  0  0
  4  5  1  0  0  0  0
  6  4  1  6  0  0  0
  6  7  1  0  0  0  0
  6  8  1  0  0  0  0
  7 12  1  0  0  0  0
  8  9  1  1  0  0  0
  8 10  1  0  0  0  0
 10 11  1  1  0  0  0
 10 12  1  0  0  0  0
 12 32  1  6  0  0  0
 13 17  2  0  0  0  0
 13 28  1  0  0  0  0
 17 18  1  0  0  0  0
 17 22  1  0  0  0  0
 22 26  2  0  0  0  0
 26 27  1  0  0  0  0
 26 32  1  0  0  0  0
 27 28  2  0  0  0  0
 27 30  1  0  0  0  0
 28 29  1  0  0  0  0
 30 31  2  0  0  0  0
 31 32  1  0  0  0  0
M  CHG  3  14  -1  15  -1  21  -1
M  END
>  <CHROM.1>
48.45911299,66.07159126,-173.73386140,52.44453464,178.77296107,-122.04470249
-161.10210708,67.97463127,15.45191775,-23.72901228,-16.27579980,-2.24927067
0.05492365,-0.82265849

>  <Name>
ligand

>  <RI>
0

>  <Rbt.Current_Directory>
/home/itssahil/PROJECTS/Mol_Feturizer/New_Systems/rnas/4Y1I

>  <Rbt.Executable>
rbdock ($Id: //depot/dev/client3/rdock/2013.1/src/exe/rbdock.cxx#4 $)

>  <Rbt.Library>
libRbt.so (2013.1, Build901 2013/11/27)

>  <Rbt.Parameter_File>
/export/apps/rDock/src/rDock_2013.1_src/data/scripts/dock_solv.prm

>  <Rbt.Receptor>
prm/pocket_docking_6.prm

>  <SCORE>
-9.71349

>  <SCORE.INTER>
-4.27944

>  <SCORE.INTER.CONST>
1

>  <SCORE.INTER.POLAR>
0

>  <SCORE.INTER.ROT>
8

>  <SCORE.INTER.SOLV>
13.8642

>  <SCORE.INTER.VDW>
-16.4077

>  <SCORE.INTER.norm>
-0.133733

>  <SCORE.INTRA>
-5.43405

>  <SCORE.INTRA.DIHEDRAL>
-8.5957

>  <SCORE.INTRA.DIHEDRAL.0>
10.9594

>  <SCORE.INTRA.POLAR>
0

>  <SCORE.INTRA.POLAR.0>
0

>  <SCORE.INTRA.REPUL>
0

>  <SCORE.INTRA.REPUL.0>
0

>  <SCORE.INTRA.SOLV>
-3.08903

>  <SCORE.INTRA.SOLV.lig_0>
-124.914

>  <SCORE.INTRA.VDW>
0.408316

>  <SCORE.INTRA.VDW.0>
-4.69801

>  <SCORE.INTRA.norm>
-0.169814

>  <SCORE.RESTR>
0

>  <SCORE.RESTR.CAVITY>
0

>  <SCORE.RESTR.norm>
0

>  <SCORE.SYSTEM>
0

>  <SCORE.SYSTEM.CONST>
0

>  <SCORE.SYSTEM.DIHEDRAL>
0

>  <SCORE.SYSTEM.SOLV>
0

>  <SCORE.SYSTEM.norm>
0

>  <SCORE.heavy>
32

>  <SCORE.norm>
-0.303547

>  <RMSD>
5.516

$$$$
ligand
 OpenBabel11021811513D
libRbt.so/2013.1/901 2013/11/27
 32 34  0  0  0  0  0  0  0  0999 V2000
   13.7492  -24.6402  -16.7415 P   0  0  1  0  0  0  0  0  0  0  0  0
   16.2606  -25.8085  -15.9936 P   0  0  2  0  0  0  0  0  0  0  0  0
   17.6420  -27.9260  -17.4847 P   0  0  1  0  0  0  0  0  0  0  0  0
   14.5538  -22.9561  -18.5602 C   0  0  0  0  0  0  0  0  0  0  0  0
   14.2020  -23.1306  -17.2172 O   0  0  0  0  0  0  0  0  0  0  0  0
   14.8399  -21.6158  -18.7952 C   0  0  1  0  0  0  0  0  0  0  0  0
   15.9671  -21.1617  -17.8880 O   0  0  0  0  0  0  0  0  0  0  0  0
   15.3602  -21.3850  -20.2879 C   0  0  1  0  0  0  0  0  0  0  0  0
   14.3655  -20.5305  -21.0405 O   0  0  0  0  0  0  0  0  0  0  0  0
   16.4023  -20.7328  -20.1888 C   0  0  1  0  0  0  0  0  0  0  0  0
   16.1021  -19.2941  -20.3834 O   0  0  0  0  0  0  0  0  0  0  0  0
   16.9760  -20.9918  -18.6468 C   0  0  2  0  0  0  0  0  0  0  0  0
   21.7079  -22.8582  -19.3618 N   0  0  0  0  0  0  0  0  0  0  0  0
   13.4461  -24.6414  -15.2636 O   0  5  0  0  0  0  0  0  0  0  0  0
   15.8993  -26.7090  -14.8392 O   0  5  0  0  0  0  0  0  0  0  0  0
   16.5343  -28.0373  -18.5059 O   0  0  0  0  0  0  0  0  0  0  0  0
   21.2807  -21.6189  -19.5470 C   0  0  0  0  0  0  0  0  0  0  0  0
   22.2104  -20.6078  -20.0087 N   0  0  0  0  0  0  0  0  0  0  0  0
   12.5370  -25.0586  -17.5426 O   0  0  0  0  0  0  0  0  0  0  0  0
   16.5995  -24.4354  -15.4755 O   0  0  0  0  0  0  0  0  0  0  0  0
   18.9755  -28.0931  -18.1799 O   0  5  0  0  0  0  0  0  0  0  0  0
   20.0301  -21.2699  -19.3244 N   0  0  0  0  0  0  0  0  0  0  0  0
   14.9935  -25.6737  -17.0286 O   0  0  0  0  0  0  0  0  0  0  0  0
   17.5556  -26.4255  -16.7987 O   0  0  0  0  0  0  0  0  0  0  0  0
   17.4566  -29.0017  -16.4369 O   0  0  0  0  0  0  0  0  0  0  0  0
   19.1395  -22.1734  -18.8976 C   0  0  0  0  0  0  0  0  0  0  0  0
   19.5586  -23.4731  -18.6969 C   0  0  0  0  0  0  0  0  0  0  0  0
   20.9007  -23.8231  -18.9406 C   0  0  0  0  0  0  0  0  0  0  0  0
   21.3571  -25.1385  -18.7448 O   0  0  0  0  0  0  0  0  0  0  0  0
   18.4970  -24.1805  -18.2740 N   0  0  0  0  0  0  0  0  0  0  0  0
   17.4665  -23.3550  -18.2162 C   0  0  0  0  0  0  0  0  0  0  0  0
   17.8332  -22.1435  -18.5902 N   0  0  0  0  0  0  0  0  0  0  0  0
  1  5  1  6  0  0  0
  1 14  1  0  0  0  0
  1 19  2  0  0  0  0
  1 23  1  0  0  0  0
  2 15  1  1  0  0  0
  2 20  2  0  0  0  0
  2 23  1  0  0  0  0
  2 24  1  0  0  0  0
  3 16  1  6  0  0  0
  3 21  1  0  0  0  0
  3 24  1  0  0  0  0
  3 25  2  0  0  0  0
  4  5  1  0  0  0  0
  6  4  1  6  0  0  0
  6  7  1  0  0  0  0
  6  8  1  0  0  0  0
  7 12  1  0  0  0  0
  8  9  1  6  0  0  0
  8 10  1  0  0  0  0
 10 11  1  1  0  0  0
 10 12  1  0  0  0  0
 12 32  1  6  0  0  0
 13 17  2  0  0  0  0
 13 28  1  0  0  0  0
 17 18  1  0  0  0  0
 17 22  1  0  0  0  0
 22 26  2  0  0  0  0
 26 27  1  0  0  0  0
 26 32  1  0  0  0  0
 27 28  2  0  0  0  0
 27 30  1  0  0  0  0
 28 29  1  0  0  0  0
 30 31  2  0  0  0  0
 31 32  1  0  0  0  0
M  CHG  3  14  -1  15  -1  21  -1
M  END
>  <CHROM.1>
178.43672164,81.20259894,58.78213854,58.44519225,176.99011185,-157.75349241
81.28391905,57.45427412,16.97385797,-24.04941421,-17.98213511,2.02850057
-0.21332781,2.72434338

>  <Name>
ligand

>  <RI>
0

>  <Rbt.Current_Directory>
/home/itssahil/PROJECTS/Mol_Feturizer/New_Systems/rnas/4Y1I

>  <Rbt.Executable>
rbdock ($Id: //depot/dev/client3/rdock/2013.1/src/exe/rbdock.cxx#4 $)

>  <Rbt.Library>
libRbt.so (2013.1, Build901 2013/11/27)

>  <Rbt.Parameter_File>
/export/apps/rDock/src/rDock_2013.1_src/data/scripts/dock_solv.prm

>  <Rbt.Receptor>
prm/pocket_docking_4.prm

>  <SCORE>
-8.86688

>  <SCORE.INTER>
-1.94047

>  <SCORE.INTER.CONST>
1

>  <SCORE.INTER.POLAR>
0

>  <SCORE.INTER.ROT>
8

>  <SCORE.INTER.SOLV>
9.61268

>  <SCORE.INTER.VDW>
-13.4312

>  <SCORE.INTER.norm>
-0.0606397

>  <SCORE.INTRA>
-6.92641

>  <SCORE.INTRA.DIHEDRAL>
-8.31105

>  <SCORE.INTRA.DIHEDRAL.0>
10.9594

>  <SCORE.INTRA.POLAR>
0

>  <SCORE.INTRA.POLAR.0>
0

>  <SCORE.INTRA.REPUL>
0.0048221

>  <SCORE.INTRA.REPUL.0>
0

>  <SCORE.INTRA.SOLV>
-3.35047

>  <SCORE.INTRA.SOLV.lig_0>
-124.914

>  <SCORE.INTRA.VDW>
-1.11976

>  <SCORE.INTRA.VDW.0>
-4.69801

>  <SCORE.INTRA.norm>
-0.21645

>  <SCORE.RESTR>
0

>  <SCORE.RESTR.CAVITY>
0

>  <SCORE.RESTR.norm>
0

>  <SCORE.SYSTEM>
0

>  <SCORE.SYSTEM.CONST>
0

>  <SCORE.SYSTEM.DIHEDRAL>
0

>  <SCORE.SYSTEM.SOLV>
0

>  <SCORE.SYSTEM.norm>
0

>  <SCORE.heavy>
32

>  <SCORE.norm>
-0.27709

>  <RMSD>
5.535

$$$$
ligand
 OpenBabel11021811513D
libRbt.so/2013.1/901 2013/11/27
 32 34  0  0  0  0  0  0  0  0999 V2000
   15.6887  -24.8042  -15.1681 P   0  0  1  0  0  0  0  0  0  0  0  0
   15.7256  -27.4346  -14.0233 P   0  0  2  0  0  0  0  0  0  0  0  0
   13.1201  -28.5090  -13.2031 P   0  0  1  0  0  0  0  0  0  0  0  0
   14.4082  -24.0200  -17.2981 C   0  0  0  0  0  0  0  0  0  0  0  0
   14.5999  -23.8288  -15.9252 O   0  0  0  0  0  0  0  0  0  0  0  0
   13.3139  -23.2746  -17.7227 C   0  0  1  0  0  0  0  0  0  0  0  0
   13.5041  -21.8178  -17.3463 O   0  0  0  0  0  0  0  0  0  0  0  0
   13.1745  -23.3003  -19.3139 C   0  0  1  0  0  0  0  0  0  0  0  0
   11.8930  -24.0066  -19.6949 O   0  0  0  0  0  0  0  0  0  0  0  0
   13.0626  -22.1234  -19.6655 C   0  0  1  0  0  0  0  0  0  0  0  0
   11.6269  -21.7964  -19.8382 O   0  0  0  0  0  0  0  0  0  0  0  0
   13.7140  -21.2013  -18.4411 C   0  0  2  0  0  0  0  0  0  0  0  0
   17.3909  -18.9451  -21.2295 N   0  0  0  0  0  0  0  0  0  0  0  0
   16.9056  -24.9867  -16.0411 O   0  5  0  0  0  0  0  0  0  0  0  0
   16.1874  -26.8676  -12.7043 O   0  5  0  0  0  0  0  0  0  0  0  0
   13.1548  -27.6380  -11.9692 O   0  0  0  0  0  0  0  0  0  0  0  0
   16.0796  -18.8817  -21.4004 C   0  0  0  0  0  0  0  0  0  0  0  0
   15.5419  -18.0947  -22.4918 N   0  0  0  0  0  0  0  0  0  0  0  0
   16.0624  -24.1783  -13.8434 O   0  0  0  0  0  0  0  0  0  0  0  0
   16.9127  -27.9486  -14.7948 O   0  0  0  0  0  0  0  0  0  0  0  0
   12.2630  -27.8418  -14.2566 O   0  5  0  0  0  0  0  0  0  0  0  0
   15.2397  -19.5140  -20.6064 N   0  0  0  0  0  0  0  0  0  0  0  0
   14.9911  -26.2702  -14.9174 O   0  0  0  0  0  0  0  0  0  0  0  0
   14.6671  -28.6662  -13.7613 O   0  0  0  0  0  0  0  0  0  0  0  0
   12.5466  -29.8603  -12.8367 O   0  0  0  0  0  0  0  0  0  0  0  0
   15.6953  -20.2518  -19.5868 C   0  0  0  0  0  0  0  0  0  0  0  0
   17.0584  -20.3352  -19.3865 C   0  0  0  0  0  0  0  0  0  0  0  0
   17.9373  -19.6500  -20.2474 C   0  0  0  0  0  0  0  0  0  0  0  0
   19.3303  -19.7155  -20.0683 O   0  0  0  0  0  0  0  0  0  0  0  0
   17.2634  -21.1223  -18.3167 N   0  0  0  0  0  0  0  0  0  0  0  0
   16.0795  -21.5093  -17.8749 C   0  0  0  0  0  0  0  0  0  0  0  0
   15.1239  -20.9976  -18.6281 N   0  0  0  0  0  0  0  0  0  0  0  0
  1  5  1  6  0  0  0
  1 14  1  0  0  0  0
  1 19  2  0  0  0  0
  1 23  1  0  0  0  0
  2 15  1  1  0  0  0
  2 20  2  0  0  0  0
  2 23  1  0  0  0  0
  2 24  1  0  0  0  0
  3 16  1  1  0  0  0
  3 21  1  0  0  0  0
  3 24  1  0  0  0  0
  3 25  2  0  0  0  0
  4  5  1  0  0  0  0
  6  4  1  6  0  0  0
  6  7  1  0  0  0  0
  6  8  1  0  0  0  0
  7 12  1  0  0  0  0
  8  9  1  1  0  0  0
  8 10  1  0  0  0  0
 10 11  1  1  0  0  0
 10 12  1  0  0  0  0
 12 32  1  6  0  0  0
 13 17  2  0  0  0  0
 13 28  1  0  0  0  0
 17 18  1  0  0  0  0
 17 22  1  0  0  0  0
 22 26  2  0  0  0  0
 26 27  1  0  0  0  0
 26 32  1  0  0  0  0
 27 28  2  0  0  0  0
 27 30  1  0  0  0  0
 28 29  1  0  0  0  0
 30 31  2  0  0  0  0
 31 32  1  0  0  0  0
M  CHG  3  14  -1  15  -1  21  -1
M  END
>  <CHROM.1>
41.01400678,49.83714615,-49.84447090,55.20768627,170.33360532,-171.73651163
-172.50054959,71.42765543,14.95336808,-23.94383738,-16.80632899,-1.73012851
-0.25417004,-0.75013047

>  <Name>
ligand

>  <RI>
0

>  <Rbt.Current_Directory>
/home/itssahil/PROJECTS/Mol_Feturizer/New_Systems/rnas/4Y1I

>  <Rbt.Executable>
rbdock ($Id: //depot/dev/client3/rdock/2013.1/src/exe/rbdock.cxx#4 $)

>  <Rbt.Library>
libRbt.so (2013.1, Build901 2013/11/27)

>  <Rbt.Parameter_File>
/export/apps/rDock/src/rDock_2013.1_src/data/scripts/dock_solv.prm

>  <Rbt.Receptor>
prm/pocket_docking_6.prm

>  <SCORE>
-9.47481

>  <SCORE.INTER>
-3.56571

>  <SCORE.INTER.CONST>
1

>  <SCORE.INTER.POLAR>
0

>  <SCORE.INTER.ROT>
8

>  <SCORE.INTER.SOLV>
13.5948

>  <SCORE.INTER.VDW>
-15.8421

>  <SCORE.INTER.norm>
-0.111428

>  <SCORE.INTRA>
-5.9091

>  <SCORE.INTRA.DIHEDRAL>
-8.09685

>  <SCORE.INTRA.DIHEDRAL.0>
10.9594

>  <SCORE.INTRA.POLAR>
0

>  <SCORE.INTRA.POLAR.0>
0

>  <SCORE.INTRA.REPUL>
0

>  <SCORE.INTRA.REPUL.0>
0

>  <SCORE.INTRA.SOLV>
-4.60036

>  <SCORE.INTRA.SOLV.lig_0>
-124.914

>  <SCORE.INTRA.VDW>
0.439506

>  <SCORE.INTRA.VDW.0>
-4.69801

>  <SCORE.INTRA.norm>
-0.184659

>  <SCORE.RESTR>
0

>  <SCORE.RESTR.CAVITY>
0

>  <SCORE.RESTR.norm>
0

>  <SCORE.SYSTEM>
0

>  <SCORE.SYSTEM.CONST>
0

>  <SCORE.SYSTEM.DIHEDRAL>
0

>  <SCORE.SYSTEM.SOLV>
0

>  <SCORE.SYSTEM.norm>
0

>  <SCORE.heavy>
32

>  <SCORE.norm>
-0.296088

>  <RMSD>
5.543

$$$$
ligand
 OpenBabel11021811513D
libRbt.so/2013.1/901 2013/11/27
 32 34  0  0  0  0  0  0  0  0999 V2000
   15.0563  -25.3529  -17.1129 P   0  0  1  0  0  0  0  0  0  0  0  0
   15.9044  -26.7591  -14.7604 P   0  0  2  0  0  0  0  0  0  0  0  0
   17.1006  -28.8711  -13.1100 P   0  0  1  0  0  0  0  0  0  0  0  0
   16.5831  -23.5168  -18.1565 C   0  0  0  0  0  0  0  0  0  0  0  0
   15.7595  -24.6196  -18.4083 O   0  0  0  0  0  0  0  0  0  0  0  0
   15.8482  -22.3453  -18.3015 C   0  0  1  0  0  0  0  0  0  0  0  0
   16.6282  -21.1734  -17.7374 O   0  0  0  0  0  0  0  0  0  0  0  0
   15.5973  -22.0027  -19.8415 C   0  0  1  0  0  0  0  0  0  0  0  0
   14.1171  -22.0824  -20.1395 O   0  0  0  0  0  0  0  0  0  0  0  0
   15.9378  -20.8264  -19.9891 C   0  0  1  0  0  0  0  0  0  0  0  0
   14.7422  -19.9541  -19.9030 O   0  0  0  0  0  0  0  0  0  0  0  0
   16.9875  -20.4795  -18.7433 C   0  0  2  0  0  0  0  0  0  0  0  0
   21.8695  -18.8854  -18.8420 N   0  0  0  0  0  0  0  0  0  0  0  0
   14.3318  -24.3279  -16.2759 O   0  5  0  0  0  0  0  0  0  0  0  0
   14.5343  -27.3885  -14.7905 O   0  5  0  0  0  0  0  0  0  0  0  0
   15.8005  -29.6357  -13.0244 O   0  0  0  0  0  0  0  0  0  0  0  0
   20.8058  -18.2357  -18.3959 C   0  0  0  0  0  0  0  0  0  0  0  0
   20.9632  -16.9017  -17.8527 N   0  0  0  0  0  0  0  0  0  0  0  0
   14.1027  -26.4139  -17.6140 O   0  0  0  0  0  0  0  0  0  0  0  0
   15.9516  -25.7050  -13.6854 O   0  0  0  0  0  0  0  0  0  0  0  0
   18.2452  -29.8526  -13.2379 O   0  5  0  0  0  0  0  0  0  0  0  0
   19.5993  -18.7640  -18.4288 N   0  0  0  0  0  0  0  0  0  0  0  0
   16.2346  -26.0451  -16.2012 O   0  0  0  0  0  0  0  0  0  0  0  0
   17.0399  -27.9084  -14.4513 O   0  0  0  0  0  0  0  0  0  0  0  0
   17.2632  -28.0334  -11.8606 O   0  0  0  0  0  0  0  0  0  0  0  0
   19.4106  -19.9936  -18.9228 C   0  0  0  0  0  0  0  0  0  0  0  0
   20.5030  -20.6927  -19.3950 C   0  0  0  0  0  0  0  0  0  0  0  0
   21.7834  -20.1083  -19.3491 C   0  0  0  0  0  0  0  0  0  0  0  0
   22.9149  -20.7959  -19.8221 O   0  0  0  0  0  0  0  0  0  0  0  0
   20.0630  -21.8847  -19.8328 N   0  0  0  0  0  0  0  0  0  0  0  0
   18.7559  -21.9213  -19.6404 C   0  0  0  0  0  0  0  0  0  0  0  0
   18.3449  -20.7912  -19.0961 N   0  0  0  0  0  0  0  0  0  0  0  0
  1  5  1  6  0  0  0
  1 14  1  0  0  0  0
  1 19  2  0  0  0  0
  1 23  1  0  0  0  0
  2 15  1  6  0  0  0
  2 20  2  0  0  0  0
  2 23  1  0  0  0  0
  2 24  1  0  0  0  0
  3 16  1  1  0  0  0
  3 21  1  0  0  0  0
  3 24  1  0  0  0  0
  3 25  2  0  0  0  0
  4  5  1  0  0  0  0
  6  4  1  6  0  0  0
  6  7  1  0  0  0  0
  6  8  1  0  0  0  0
  7 12  1  0  0  0  0
  8  9  1  1  0  0  0
  8 10  1  0  0  0  0
 10 11  1  1  0  0  0
 10 12  1  0  0  0  0
 12 32  1  6  0  0  0
 13 17  2  0  0  0  0
 13 28  1  0  0  0  0
 17 18  1  0  0  0  0
 17 22  1  0  0  0  0
 22 26  2  0  0  0  0
 26 27  1  0  0  0  0
 26 32  1  0  0  0  0
 27 28  2  0  0  0  0
 27 30  1  0  0  0  0
 28 29  1  0  0  0  0
 30 31  2  0  0  0  0
 31 32  1  0  0  0  0
M  CHG  3  14  -1  15  -1  21  -1
M  END
>  <CHROM.1>
52.44768589,32.96528927,57.81833364,167.41667326,-95.31893681,-108.74633327
174.81630893,-59.07587001,17.20986658,-23.75826739,-17.05298565,1.90840547
0.28464282,2.47987975

>  <Name>
ligand

>  <RI>
0

>  <Rbt.Current_Directory>
/home/itssahil/PROJECTS/Mol_Feturizer/New_Systems/rnas/4Y1I

>  <Rbt.Executable>
rbdock ($Id: //depot/dev/client3/rdock/2013.1/src/exe/rbdock.cxx#4 $)

>  <Rbt.Library>
libRbt.so (2013.1, Build901 2013/11/27)

>  <Rbt.Parameter_File>
/export/apps/rDock/src/rDock_2013.1_src/data/scripts/dock_solv.prm

>  <Rbt.Receptor>
prm/pocket_docking_5.prm

>  <SCORE>
-6.50565

>  <SCORE.INTER>
-3.98997

>  <SCORE.INTER.CONST>
1

>  <SCORE.INTER.POLAR>
0

>  <SCORE.INTER.ROT>
8

>  <SCORE.INTER.SOLV>
12.8053

>  <SCORE.INTER.VDW>
-15.8617

>  <SCORE.INTER.norm>
-0.124687

>  <SCORE.INTRA>
-2.51568

>  <SCORE.INTRA.DIHEDRAL>
-3.49026

>  <SCORE.INTRA.DIHEDRAL.0>
10.9594

>  <SCORE.INTRA.POLAR>
0

>  <SCORE.INTRA.POLAR.0>
0

>  <SCORE.INTRA.REPUL>
0

>  <SCORE.INTRA.REPUL.0>
0

>  <SCORE.INTRA.SOLV>
-2.298

>  <SCORE.INTRA.SOLV.lig_0>
-124.914

>  <SCORE.INTRA.VDW>
0.378445

>  <SCORE.INTRA.VDW.0>
-4.69801

>  <SCORE.INTRA.norm>
-0.0786151

>  <SCORE.RESTR>
0

>  <SCORE.RESTR.CAVITY>
0

>  <SCORE.RESTR.norm>
0

>  <SCORE.SYSTEM>
0

>  <SCORE.SYSTEM.CONST>
0

>  <SCORE.SYSTEM.DIHEDRAL>
0

>  <SCORE.SYSTEM.SOLV>
0

>  <SCORE.SYSTEM.norm>
0

>  <SCORE.heavy>
32

>  <SCORE.norm>
-0.203302

>  <RMSD>
5.565

$$$$
ligand
 OpenBabel11021811513D
libRbt.so/2013.1/901 2013/11/27
 32 34  0  0  0  0  0  0  0  0999 V2000
   16.5245  -28.1075  -21.6832 P   0  0  1  0  0  0  0  0  0  0  0  0
   13.8742  -28.7581  -22.5684 P   0  0  2  0  0  0  0  0  0  0  0  0
   11.8659  -28.4780  -20.4462 P   0  0  1  0  0  0  0  0  0  0  0  0
   16.7871  -26.9419  -19.3672 C   0  0  0  0  0  0  0  0  0  0  0  0
   16.0485  -27.0084  -20.5538 O   0  0  0  0  0  0  0  0  0  0  0  0
   16.2290  -25.9863  -18.5254 C   0  0  1  0  0  0  0  0  0  0  0  0
   16.9619  -25.9765  -17.1977 O   0  0  0  0  0  0  0  0  0  0  0  0
   16.3928  -24.5150  -19.1259 C   0  0  1  0  0  0  0  0  0  0  0  0
   15.0281  -23.9467  -19.4433 O   0  0  0  0  0  0  0  0  0  0  0  0
   16.8739  -23.8289  -18.2209 C   0  0  1  0  0  0  0  0  0  0  0  0
   15.7856  -23.1051  -17.5212 O   0  0  0  0  0  0  0  0  0  0  0  0
   17.6206  -24.8866  -17.1732 C   0  0  2  0  0  0  0  0  0  0  0  0
   21.3933  -28.3390  -17.6551 N   0  0  0  0  0  0  0  0  0  0  0  0
   17.8321  -27.6747  -22.2988 O   0  5  0  0  0  0  0  0  0  0  0  0
   13.9107  -30.2600  -22.4367 O   0  5  0  0  0  0  0  0  0  0  0  0
   10.7564  -28.2992  -21.4558 O   0  0  0  0  0  0  0  0  0  0  0  0
   20.1571  -28.5332  -17.2228 C   0  0  0  0  0  0  0  0  0  0  0  0
   19.7460  -29.8622  -16.8175 N   0  0  0  0  0  0  0  0  0  0  0  0
   16.6605  -29.4588  -21.0186 O   0  0  0  0  0  0  0  0  0  0  0  0
   12.9841  -28.3743  -23.7213 O   0  0  0  0  0  0  0  0  0  0  0  0
   11.8992  -29.9226  -19.9971 O   0  5  0  0  0  0  0  0  0  0  0  0
   19.2807  -27.5525  -17.1478 N   0  0  0  0  0  0  0  0  0  0  0  0
   15.3808  -28.1756  -22.8605 O   0  0  0  0  0  0  0  0  0  0  0  0
   13.2935  -28.0903  -21.1817 O   0  0  0  0  0  0  0  0  0  0  0  0
   11.6103  -27.5661  -19.2661 O   0  0  0  0  0  0  0  0  0  0  0  0
   19.6202  -26.3101  -17.5122 C   0  0  0  0  0  0  0  0  0  0  0  0
   20.9032  -26.0802  -17.9662 C   0  0  0  0  0  0  0  0  0  0  0  0
   21.8230  -27.1440  -18.0387 C   0  0  0  0  0  0  0  0  0  0  0  0
   23.1365  -26.9408  -18.4974 O   0  0  0  0  0  0  0  0  0  0  0  0
   20.9987  -24.7737  -18.2668 N   0  0  0  0  0  0  0  0  0  0  0  0
   19.8267  -24.2197  -18.0096 C   0  0  0  0  0  0  0  0  0  0  0  0
   18.9853  -25.1281  -17.5523 N   0  0  0  0  0  0  0  0  0  0  0  0
  1  5  1  1  0  0  0
  1 14  1  0  0  0  0
  1 19  2  0  0  0  0
  1 23  1  0  0  0  0
  2 15  1  1  0  0  0
  2 20  2  0  0  0  0
  2 23  1  0  0  0  0
  2 24  1  0  0  0  0
  3 16  1  6  0  0  0
  3 21  1  0  0  0  0
  3 24  1  0  0  0  0
  3 25  2  0  0  0  0
  4  5  1  0  0  0  0
  6  4  1  6  0  0  0
  6  7  1  0  0  0  0
  6  8  1  0  0  0  0
  7 12  1  0  0  0  0
  8  9  1  1  0  0  0
  8 10  1  0  0  0  0
 10 11  1  1  0  0  0
 10 12  1  0  0  0  0
 12 32  1  6  0  0  0
 13 17  2  0  0  0  0
 13 28  1  0  0  0  0
 17 18  1  0  0  0  0
 17 22  1  0  0  0  0
 22 26  2  0  0  0  0
 26 27  1  0  0  0  0
 26 32  1  0  0  0  0
 27 28  2  0  0  0  0
 27 30  1  0  0  0  0
 28 29  1  0  0  0  0
 30 31  2  0  0  0  0
 31 32  1  0  0  0  0
M  CHG  3  14  -1  15  -1  21  -1
M  END
>  <CHROM.1>
-70.30585892,-73.94711743,-55.48087601,175.97051535,-178.73736057,-20.70408219
-66.77824929,-53.84140821,16.43768649,-27.20416500,-19.71591012,-2.64929113
-0.23059768,0.62466003

>  <Name>
ligand

>  <RI>
0

>  <Rbt.Current_Directory>
/home/itssahil/PROJECTS/Mol_Feturizer/New_Systems/rnas/4Y1I

>  <Rbt.Executable>
rbdock ($Id: //depot/dev/client3/rdock/2013.1/src/exe/rbdock.cxx#4 $)

>  <Rbt.Library>
libRbt.so (2013.1, Build901 2013/11/27)

>  <Rbt.Parameter_File>
/export/apps/rDock/src/rDock_2013.1_src/data/scripts/dock_solv.prm

>  <Rbt.Receptor>
prm/pocket_docking_6.prm

>  <SCORE>
-4.84106

>  <SCORE.INTER>
2.45872

>  <SCORE.INTER.CONST>
1

>  <SCORE.INTER.POLAR>
0

>  <SCORE.INTER.ROT>
8

>  <SCORE.INTER.SOLV>
3.88961

>  <SCORE.INTER.VDW>
-8.59073

>  <SCORE.INTER.norm>
0.0768349

>  <SCORE.INTRA>
-7.29978

>  <SCORE.INTRA.DIHEDRAL>
-9.05375

>  <SCORE.INTRA.DIHEDRAL.0>
10.9594

>  <SCORE.INTRA.POLAR>
0

>  <SCORE.INTRA.POLAR.0>
0

>  <SCORE.INTRA.REPUL>
0

>  <SCORE.INTRA.REPUL.0>
0

>  <SCORE.INTRA.SOLV>
-5.3832

>  <SCORE.INTRA.SOLV.lig_0>
-124.914

>  <SCORE.INTRA.VDW>
-0.0813011

>  <SCORE.INTRA.VDW.0>
-4.69801

>  <SCORE.INTRA.norm>
-0.228118

>  <SCORE.RESTR>
0

>  <SCORE.RESTR.CAVITY>
0

>  <SCORE.RESTR.norm>
0

>  <SCORE.SYSTEM>
0

>  <SCORE.SYSTEM.CONST>
0

>  <SCORE.SYSTEM.DIHEDRAL>
0

>  <SCORE.SYSTEM.SOLV>
0

>  <SCORE.SYSTEM.norm>
0

>  <SCORE.heavy>
32

>  <SCORE.norm>
-0.151283

>  <RMSD>
5.579

$$$$
ligand
 OpenBabel11021811513D
libRbt.so/2013.1/901 2013/11/27
 32 34  0  0  0  0  0  0  0  0999 V2000
   15.0229  -22.8939  -17.6229 P   0  0  1  0  0  0  0  0  0  0  0  0
   14.5807  -24.8204  -15.5435 P   0  0  2  0  0  0  0  0  0  0  0  0
   13.5370  -27.3770  -16.5386 P   0  0  1  0  0  0  0  0  0  0  0  0
   16.5852  -23.8641  -19.4694 C   0  0  0  0  0  0  0  0  0  0  0  0
   16.2011  -23.9282  -18.1254 O   0  0  0  0  0  0  0  0  0  0  0  0
   17.2891  -22.6866  -19.6958 C   0  0  1  0  0  0  0  0  0  0  0  0
   18.1869  -22.3858  -18.5111 O   0  0  0  0  0  0  0  0  0  0  0  0
   18.2603  -22.8226  -20.9569 C   0  0  1  0  0  0  0  0  0  0  0  0
   17.8047  -21.8786  -22.0465 O   0  0  0  0  0  0  0  0  0  0  0  0
   19.3684  -22.4362  -20.5772 C   0  0  1  0  0  0  0  0  0  0  0  0
   19.5511  -21.0155  -20.9596 O   0  0  0  0  0  0  0  0  0  0  0  0
   19.3772  -22.5856  -18.9184 C   0  0  2  0  0  0  0  0  0  0  0  0
   23.3467  -25.8150  -18.4719 N   0  0  0  0  0  0  0  0  0  0  0  0
   15.5349  -21.4754  -17.6663 O   0  5  0  0  0  0  0  0  0  0  0  0
   13.8577  -24.9015  -14.2225 O   0  5  0  0  0  0  0  0  0  0  0  0
   14.8457  -28.0465  -16.1903 O   0  0  0  0  0  0  0  0  0  0  0  0
   23.3465  -24.5800  -18.9490 C   0  0  0  0  0  0  0  0  0  0  0  0
   24.5872  -24.0006  -19.4230 N   0  0  0  0  0  0  0  0  0  0  0  0
   13.8159  -23.0610  -18.5182 O   0  0  0  0  0  0  0  0  0  0  0  0
   15.9962  -25.3067  -15.3745 O   0  0  0  0  0  0  0  0  0  0  0  0
   12.5347  -27.6452  -15.4373 O   0  5  0  0  0  0  0  0  0  0  0  0
   22.2491  -23.8536  -19.0082 N   0  0  0  0  0  0  0  0  0  0  0  0
   14.6260  -23.2673  -16.0732 O   0  0  0  0  0  0  0  0  0  0  0  0
   13.8105  -25.7521  -16.6592 O   0  0  0  0  0  0  0  0  0  0  0  0
   13.0343  -27.9311  -17.8538 O   0  0  0  0  0  0  0  0  0  0  0  0
   21.0824  -24.3515  -18.5808 C   0  0  0  0  0  0  0  0  0  0  0  0
   21.0547  -25.6370  -18.0792 C   0  0  0  0  0  0  0  0  0  0  0  0
   22.2404  -26.3947  -18.0248 C   0  0  0  0  0  0  0  0  0  0  0  0
   22.2436  -27.7065  -17.5186 O   0  0  0  0  0  0  0  0  0  0  0  0
   19.7875  -25.9047  -17.7202 N   0  0  0  0  0  0  0  0  0  0  0  0
   19.0631  -24.8323  -17.9885 C   0  0  0  0  0  0  0  0  0  0  0  0
   19.8246  -23.8882  -18.5093 N   0  0  0  0  0  0  0  0  0  0  0  0
  1  5  1  6  0  0  0
  1 14  1  0  0  0  0
  1 19  2  0  0  0  0
  1 23  1  0  0  0  0
  2 15  1  1  0  0  0
  2 20  2  0  0  0  0
  2 23  1  0  0  0  0
  2 24  1  0  0  0  0
  3 16  1  1  0  0  0
  3 21  1  0  0  0  0
  3 24  1  0  0  0  0
  3 25  2  0  0  0  0
  4  5  1  0  0  0  0
  6  4  1  1  0  0  0
  6  7  1  0  0  0  0
  6  8  1  0  0  0  0
  7 12  1  0  0  0  0
  8  9  1  6  0  0  0
  8 10  1  0  0  0  0
 10 11  1  1  0  0  0
 10 12  1  0  0  0  0
 12 32  1  6  0  0  0
 13 17  2  0  0  0  0
 13 28  1  0  0  0  0
 17 18  1  0  0  0  0
 17 22  1  0  0  0  0
 22 26  2  0  0  0  0
 26 27  1  0  0  0  0
 26 32  1  0  0  0  0
 27 28  2  0  0  0  0
 27 30  1  0  0  0  0
 28 29  1  0  0  0  0
 30 31  2  0  0  0  0
 31 32  1  0  0  0  0
M  CHG  3  14  -1  15  -1  21  -1
M  END
>  <CHROM.1>
-67.45430182,-165.42494252,-50.37655709,38.61406793,70.87410588,-169.00451355
-37.04850406,-58.85091447,17.36323753,-24.53315893,-17.89773589,2.79177407
-0.20796686,2.59082529

>  <Name>
ligand

>  <RI>
0

>  <Rbt.Current_Directory>
/home/itssahil/PROJECTS/Mol_Feturizer/New_Systems/rnas/4Y1I

>  <Rbt.Executable>
rbdock ($Id: //depot/dev/client3/rdock/2013.1/src/exe/rbdock.cxx#4 $)

>  <Rbt.Library>
libRbt.so (2013.1, Build901 2013/11/27)

>  <Rbt.Parameter_File>
/export/apps/rDock/src/rDock_2013.1_src/data/scripts/dock_solv.prm

>  <Rbt.Receptor>
prm/pocket_docking_4.prm

>  <SCORE>
-3.93657

>  <SCORE.INTER>
0.515758

>  <SCORE.INTER.CONST>
1

>  <SCORE.INTER.POLAR>
0

>  <SCORE.INTER.ROT>
8

>  <SCORE.INTER.SOLV>
8.74719

>  <SCORE.INTER.VDW>
-11.5052

>  <SCORE.INTER.norm>
0.0161174

>  <SCORE.INTRA>
-4.45233

>  <SCORE.INTRA.DIHEDRAL>
-6.38307

>  <SCORE.INTRA.DIHEDRAL.0>
10.9594

>  <SCORE.INTRA.POLAR>
0

>  <SCORE.INTRA.POLAR.0>
0

>  <SCORE.INTRA.REPUL>
0

>  <SCORE.INTRA.REPUL.0>
0

>  <SCORE.INTRA.SOLV>
-3.20297

>  <SCORE.INTRA.SOLV.lig_0>
-124.914

>  <SCORE.INTRA.VDW>
0.340691

>  <SCORE.INTRA.VDW.0>
-4.69801

>  <SCORE.INTRA.norm>
-0.139135

>  <SCORE.RESTR>
0

>  <SCORE.RESTR.CAVITY>
0

>  <SCORE.RESTR.norm>
0

>  <SCORE.SYSTEM>
0

>  <SCORE.SYSTEM.CONST>
0

>  <SCORE.SYSTEM.DIHEDRAL>
0

>  <SCORE.SYSTEM.SOLV>
0

>  <SCORE.SYSTEM.norm>
0

>  <SCORE.heavy>
32

>  <SCORE.norm>
-0.123018

>  <RMSD>
5.582

$$$$
ligand
 OpenBabel11021811513D
libRbt.so/2013.1/901 2013/11/27
 32 34  0  0  0  0  0  0  0  0999 V2000
   15.4905  -25.2384  -14.9828 P   0  0  1  0  0  0  0  0  0  0  0  0
   15.6842  -27.5568  -16.6616 P   0  0  2  0  0  0  0  0  0  0  0  0
   18.3033  -28.3495  -17.7233 P   0  0  1  0  0  0  0  0  0  0  0  0
   14.4909  -24.0812  -17.0931 C   0  0  0  0  0  0  0  0  0  0  0  0
   14.2779  -24.4381  -15.7570 O   0  0  0  0  0  0  0  0  0  0  0  0
   13.3663  -23.4279  -17.5845 C   0  0  1  0  0  0  0  0  0  0  0  0
   13.4678  -21.9414  -17.3015 O   0  0  0  0  0  0  0  0  0  0  0  0
   13.2617  -23.5643  -19.1728 C   0  0  1  0  0  0  0  0  0  0  0  0
   12.0295  -24.3650  -19.5286 O   0  0  0  0  0  0  0  0  0  0  0  0
   13.0923  -22.4208  -19.6029 C   0  0  1  0  0  0  0  0  0  0  0  0
   11.6447  -22.1872  -19.8214 O   0  0  0  0  0  0  0  0  0  0  0  0
   13.6660  -21.3861  -18.4306 C   0  0  2  0  0  0  0  0  0  0  0  0
   17.2528  -18.9463  -21.1816 N   0  0  0  0  0  0  0  0  0  0  0  0
   16.4489  -24.2468  -14.3711 O   0  5  0  0  0  0  0  0  0  0  0  0
   14.2988  -27.3326  -17.2138 O   0  5  0  0  0  0  0  0  0  0  0  0
   18.9270  -27.0114  -17.4027 O   0  0  0  0  0  0  0  0  0  0  0  0
   15.9412  -18.9437  -21.3619 C   0  0  0  0  0  0  0  0  0  0  0  0
   15.3750  -18.1775  -22.4537 N   0  0  0  0  0  0  0  0  0  0  0  0
   14.8844  -26.1297  -13.9224 O   0  0  0  0  0  0  0  0  0  0  0  0
   15.6217  -28.5492  -15.5302 O   0  0  0  0  0  0  0  0  0  0  0  0
   18.6090  -29.3198  -16.6032 O   0  5  0  0  0  0  0  0  0  0  0  0
   15.1263  -19.6186  -20.5770 N   0  0  0  0  0  0  0  0  0  0  0  0
   16.3010  -26.1498  -16.0834 O   0  0  0  0  0  0  0  0  0  0  0  0
   16.6696  -28.1358  -17.8447 O   0  0  0  0  0  0  0  0  0  0  0  0
   18.8721  -28.8582  -19.0299 O   0  0  0  0  0  0  0  0  0  0  0  0
   15.6088  -20.3391  -19.5574 C   0  0  0  0  0  0  0  0  0  0  0  0
   16.9728  -20.3594  -19.3474 C   0  0  0  0  0  0  0  0  0  0  0  0
   17.8247  -19.6296  -20.1987 C   0  0  0  0  0  0  0  0  0  0  0  0
   19.2179  -19.6305  -20.0096 O   0  0  0  0  0  0  0  0  0  0  0  0
   17.2069  -21.1412  -18.2796 N   0  0  0  0  0  0  0  0  0  0  0  0
   16.0392  -21.5855  -17.8483 C   0  0  0  0  0  0  0  0  0  0  0  0
   15.0661  -21.1156  -18.6063 N   0  0  0  0  0  0  0  0  0  0  0  0
  1  5  1  6  0  0  0
  1 14  1  0  0  0  0
  1 19  2  0  0  0  0
  1 23  1  0  0  0  0
  2 15  1  6  0  0  0
  2 20  2  0  0  0  0
  2 23  1  0  0  0  0
  2 24  1  0  0  0  0
  3 16  1  1  0  0  0
  3 21  1  0  0  0  0
  3 24  1  0  0  0  0
  3 25  2  0  0  0  0
  4  5  1  0  0  0  0
  6  4  1  6  0  0  0
  6  7  1  0  0  0  0
  6  8  1  0  0  0  0
  7 12  1  0  0  0  0
  8  9  1  1  0  0  0
  8 10  1  0  0  0  0
 10 11  1  1  0  0  0
 10 12  1  0  0  0  0
 12 32  1  6  0  0  0
 13 17  2  0  0  0  0
 13 28  1  0  0  0  0
 17 18  1  0  0  0  0
 17 22  1  0  0  0  0
 22 26  2  0  0  0  0
 26 27  1  0  0  0  0
 26 32  1  0  0  0  0
 27 28  2  0  0  0  0
 27 30  1  0  0  0  0
 28 29  1  0  0  0  0
 30 31  2  0  0  0  0
 31 32  1  0  0  0  0
M  CHG  3  14  -1  15  -1  21  -1
M  END
>  <CHROM.1>
87.70548652,53.64987144,-58.93163565,87.94107901,179.52706486,-167.64173207
-76.14656691,172.30467310,15.75015671,-24.09612305,-17.90284819,1.42348606
-0.30728302,2.65680958

>  <Name>
ligand

>  <RI>
0

>  <Rbt.Current_Directory>
/home/itssahil/PROJECTS/Mol_Feturizer/New_Systems/rnas/4Y1I

>  <Rbt.Executable>
rbdock ($Id: //depot/dev/client3/rdock/2013.1/src/exe/rbdock.cxx#4 $)

>  <Rbt.Library>
libRbt.so (2013.1, Build901 2013/11/27)

>  <Rbt.Parameter_File>
/export/apps/rDock/src/rDock_2013.1_src/data/scripts/dock_solv.prm

>  <Rbt.Receptor>
prm/pocket_docking_6.prm

>  <SCORE>
-5.83148

>  <SCORE.INTER>
-0.97445

>  <SCORE.INTER.CONST>
1

>  <SCORE.INTER.POLAR>
0

>  <SCORE.INTER.ROT>
8

>  <SCORE.INTER.SOLV>
7.41944

>  <SCORE.INTER.VDW>
-12.0561

>  <SCORE.INTER.norm>
-0.0304516

>  <SCORE.INTRA>
-4.85703

>  <SCORE.INTRA.DIHEDRAL>
-5.67866

>  <SCORE.INTRA.DIHEDRAL.0>
10.9594

>  <SCORE.INTRA.POLAR>
0

>  <SCORE.INTRA.POLAR.0>
0

>  <SCORE.INTRA.REPUL>
0

>  <SCORE.INTRA.REPUL.0>
0

>  <SCORE.INTRA.SOLV>
-4.32407

>  <SCORE.INTRA.SOLV.lig_0>
-124.914

>  <SCORE.INTRA.VDW>
0.144333

>  <SCORE.INTRA.VDW.0>
-4.69801

>  <SCORE.INTRA.norm>
-0.151782

>  <SCORE.RESTR>
0

>  <SCORE.RESTR.CAVITY>
0

>  <SCORE.RESTR.norm>
0

>  <SCORE.SYSTEM>
0

>  <SCORE.SYSTEM.CONST>
0

>  <SCORE.SYSTEM.DIHEDRAL>
0

>  <SCORE.SYSTEM.SOLV>
0

>  <SCORE.SYSTEM.norm>
0

>  <SCORE.heavy>
32

>  <SCORE.norm>
-0.182234

>  <RMSD>
5.594

$$$$
ligand
 OpenBabel11021811513D
libRbt.so/2013.1/901 2013/11/27
 32 34  0  0  0  0  0  0  0  0999 V2000
   14.5228  -22.8021  -16.3936 P   0  0  1  0  0  0  0  0  0  0  0  0
   15.1508  -25.5763  -16.0186 P   0  0  2  0  0  0  0  0  0  0  0  0
   13.8712  -26.8979  -13.7314 P   0  0  1  0  0  0  0  0  0  0  0  0
   15.4212  -21.6973  -18.5762 C   0  0  0  0  0  0  0  0  0  0  0  0
   15.1852  -21.5332  -17.2068 O   0  0  0  0  0  0  0  0  0  0  0  0
   16.2416  -20.6717  -19.0325 C   0  0  1  0  0  0  0  0  0  0  0  0
   17.5290  -20.6451  -18.2314 O   0  0  0  0  0  0  0  0  0  0  0  0
   16.6768  -20.9069  -20.5515 C   0  0  1  0  0  0  0  0  0  0  0  0
   16.0928  -19.8132  -21.4169 O   0  0  0  0  0  0  0  0  0  0  0  0
   17.9034  -20.7797  -20.5785 C   0  0  1  0  0  0  0  0  0  0  0  0
   18.2453  -19.4004  -21.0011 O   0  0  0  0  0  0  0  0  0  0  0  0
   18.4397  -21.0493  -19.0249 C   0  0  2  0  0  0  0  0  0  0  0  0
   21.9691  -24.7807  -18.9497 N   0  0  0  0  0  0  0  0  0  0  0  0
   14.2401  -22.4035  -14.9663 O   0  5  0  0  0  0  0  0  0  0  0  0
   16.3659  -26.4603  -15.8907 O   0  5  0  0  0  0  0  0  0  0  0  0
   15.1286  -27.6030  -13.2796 O   0  0  0  0  0  0  0  0  0  0  0  0
   22.1374  -23.5013  -19.2459 C   0  0  0  0  0  0  0  0  0  0  0  0
   23.4573  -23.0218  -19.6033 N   0  0  0  0  0  0  0  0  0  0  0  0
   13.2532  -23.2218  -17.0996 O   0  0  0  0  0  0  0  0  0  0  0  0
   14.2631  -26.0953  -17.1193 O   0  0  0  0  0  0  0  0  0  0  0  0
   13.0779  -26.4718  -12.5154 O   0  5  0  0  0  0  0  0  0  0  0  0
   21.1390  -22.6421  -19.2268 N   0  0  0  0  0  0  0  0  0  0  0  0
   15.5997  -24.0427  -16.3945 O   0  0  0  0  0  0  0  0  0  0  0  0
   14.3167  -25.5656  -14.6008 O   0  0  0  0  0  0  0  0  0  0  0  0
   13.0560  -27.8433  -14.5865 O   0  0  0  0  0  0  0  0  0  0  0  0
   19.9043  -23.0443  -18.9022 C   0  0  0  0  0  0  0  0  0  0  0  0
   19.7011  -24.3732  -18.5895 C   0  0  0  0  0  0  0  0  0  0  0  0
   20.7836  -25.2736  -18.6158 C   0  0  0  0  0  0  0  0  0  0  0  0
   20.6078  -26.6327  -18.3017 O   0  0  0  0  0  0  0  0  0  0  0  0
   18.3973  -24.5273  -18.3023 N   0  0  0  0  0  0  0  0  0  0  0  0
   17.8192  -23.3459  -18.4320 C   0  0  0  0  0  0  0  0  0  0  0  0
   18.7096  -22.4417  -18.7951 N   0  0  0  0  0  0  0  0  0  0  0  0
  1  5  1  6  0  0  0
  1 14  1  0  0  0  0
  1 19  2  0  0  0  0
  1 23  1  0  0  0  0
  2 15  1  1  0  0  0
  2 20  2  0  0  0  0
  2 23  1  0  0  0  0
  2 24  1  0  0  0  0
  3 16  1  1  0  0  0
  3 21  1  0  0  0  0
  3 24  1  0  0  0  0
  3 25  2  0  0  0  0
  4  5  1  0  0  0  0
  6  4  1  1  0  0  0
  6  7  1  0  0  0  0
  6  8  1  0  0  0  0
  7 12  1  0  0  0  0
  8  9  1  6  0  0  0
  8 10  1  0  0  0  0
 10 11  1  1  0  0  0
 10 12  1  0  0  0  0
 12 32  1  6  0  0  0
 13 17  2  0  0  0  0
 13 28  1  0  0  0  0
 17 18  1  0  0  0  0
 17 22  1  0  0  0  0
 22 26  2  0  0  0  0
 26 27  1  0  0  0  0
 26 32  1  0  0  0  0
 27 28  2  0  0  0  0
 27 30  1  0  0  0  0
 28 29  1  0  0  0  0
 30 31  2  0  0  0  0
 31 32  1  0  0  0  0
M  CHG  3  14  -1  15  -1  21  -1
M  END
>  <CHROM.1>
-175.42527971,-171.25236706,63.15433745,56.45799555,-166.72166503,-145.67579813
-164.22845874,-49.19245941,16.75171168,-23.78791722,-17.34101295,2.33249026
-0.35525895,2.55363698

>  <Name>
ligand

>  <RI>
0

>  <Rbt.Current_Directory>
/home/itssahil/PROJECTS/Mol_Feturizer/New_Systems/rnas/4Y1I

>  <Rbt.Executable>
rbdock ($Id: //depot/dev/client3/rdock/2013.1/src/exe/rbdock.cxx#4 $)

>  <Rbt.Library>
libRbt.so (2013.1, Build901 2013/11/27)

>  <Rbt.Parameter_File>
/export/apps/rDock/src/rDock_2013.1_src/data/scripts/dock_solv.prm

>  <Rbt.Receptor>
prm/pocket_docking_4.prm

>  <SCORE>
-10.6213

>  <SCORE.INTER>
-4.28183

>  <SCORE.INTER.CONST>
1

>  <SCORE.INTER.POLAR>
0

>  <SCORE.INTER.ROT>
8

>  <SCORE.INTER.SOLV>
11.8129

>  <SCORE.INTER.VDW>
-15.7255

>  <SCORE.INTER.norm>
-0.133807

>  <SCORE.INTRA>
-6.33951

>  <SCORE.INTRA.DIHEDRAL>
-8.09205

>  <SCORE.INTRA.DIHEDRAL.0>
10.9594

>  <SCORE.INTRA.POLAR>
0

>  <SCORE.INTRA.POLAR.0>
0

>  <SCORE.INTRA.REPUL>
0

>  <SCORE.INTRA.REPUL.0>
0

>  <SCORE.INTRA.SOLV>
-4.40092

>  <SCORE.INTRA.SOLV.lig_0>
-124.914

>  <SCORE.INTRA.VDW>
-0.0930235

>  <SCORE.INTRA.VDW.0>
-4.69801

>  <SCORE.INTRA.norm>
-0.19811

>  <SCORE.RESTR>
0

>  <SCORE.RESTR.CAVITY>
0

>  <SCORE.RESTR.norm>
0

>  <SCORE.SYSTEM>
0

>  <SCORE.SYSTEM.CONST>
0

>  <SCORE.SYSTEM.DIHEDRAL>
0

>  <SCORE.SYSTEM.SOLV>
0

>  <SCORE.SYSTEM.norm>
0

>  <SCORE.heavy>
32

>  <SCORE.norm>
-0.331917

>  <RMSD>
5.614

$$$$
ligand
 OpenBabel11021811513D
libRbt.so/2013.1/901 2013/11/27
 32 34  0  0  0  0  0  0  0  0999 V2000
   14.8600  -25.7225  -16.7992 P   0  0  1  0  0  0  0  0  0  0  0  0
   16.5919  -26.2755  -19.0186 P   0  0  2  0  0  0  0  0  0  0  0  0
   19.3980  -26.2815  -18.1578 P   0  0  1  0  0  0  0  0  0  0  0  0
   15.4627  -23.2148  -17.1725 C   0  0  0  0  0  0  0  0  0  0  0  0
   14.4850  -24.2053  -17.3167 O   0  0  0  0  0  0  0  0  0  0  0  0
   15.0031  -22.0244  -17.7248 C   0  0  1  0  0  0  0  0  0  0  0  0
   16.0563  -20.9439  -17.5725 O   0  0  0  0  0  0  0  0  0  0  0  0
   14.7512  -22.1708  -19.2956 C   0  0  1  0  0  0  0  0  0  0  0  0
   13.2769  -22.0032  -19.5861 O   0  0  0  0  0  0  0  0  0  0  0  0
   15.3387  -21.2243  -19.8249 C   0  0  1  0  0  0  0  0  0  0  0  0
   14.3764  -20.1235  -20.0701 O   0  0  0  0  0  0  0  0  0  0  0  0
   16.5064  -20.7305  -18.7448 C   0  0  2  0  0  0  0  0  0  0  0  0
   21.5893  -20.4204  -19.4186 N   0  0  0  0  0  0  0  0  0  0  0  0
   14.9291  -25.7464  -15.2922 O   0  5  0  0  0  0  0  0  0  0  0  0
   16.0291  -25.0810  -19.7471 O   0  5  0  0  0  0  0  0  0  0  0  0
   19.0839  -25.1033  -17.2658 O   0  0  0  0  0  0  0  0  0  0  0  0
   20.7219  -19.4312  -19.2706 C   0  0  0  0  0  0  0  0  0  0  0  0
   21.1947  -18.0617  -19.2907 N   0  0  0  0  0  0  0  0  0  0  0  0
   13.8086  -26.6827  -17.3077 O   0  0  0  0  0  0  0  0  0  0  0  0
   15.9090  -27.5284  -19.5011 O   0  0  0  0  0  0  0  0  0  0  0  0
   19.4198  -27.5432  -17.3227 O   0  5  0  0  0  0  0  0  0  0  0  0
   19.4335  -19.6502  -19.1043 N   0  0  0  0  0  0  0  0  0  0  0  0
   16.3313  -26.1322  -17.4042 O   0  0  0  0  0  0  0  0  0  0  0  0
   18.2087  -26.3896  -19.2994 O   0  0  0  0  0  0  0  0  0  0  0  0
   20.7446  -26.0600  -18.8113 O   0  0  0  0  0  0  0  0  0  0  0  0
   18.9557  -20.9003  -19.0800 C   0  0  0  0  0  0  0  0  0  0  0  0
   19.8387  -21.9501  -19.2325 C   0  0  0  0  0  0  0  0  0  0  0  0
   21.2118  -21.6921  -19.4081 C   0  0  0  0  0  0  0  0  0  0  0  0
   22.1353  -22.7406  -19.5654 O   0  0  0  0  0  0  0  0  0  0  0  0
   19.1280  -23.0893  -19.1731 N   0  0  0  0  0  0  0  0  0  0  0  0
   17.8612  -22.7588  -18.9924 C   0  0  0  0  0  0  0  0  0  0  0  0
   17.7376  -21.4459  -18.9365 N   0  0  0  0  0  0  0  0  0  0  0  0
  1  5  1  6  0  0  0
  1 14  1  0  0  0  0
  1 19  2  0  0  0  0
  1 23  1  0  0  0  0
  2 15  1  6  0  0  0
  2 20  2  0  0  0  0
  2 23  1  0  0  0  0
  2 24  1  0  0  0  0
  3 16  1  1  0  0  0
  3 21  1  0  0  0  0
  3 24  1  0  0  0  0
  3 25  2  0  0  0  0
  4  5  1  0  0  0  0
  6  4  1  6  0  0  0
  6  7  1  0  0  0  0
  6  8  1  0  0  0  0
  7 12  1  0  0  0  0
  8  9  1  1  0  0  0
  8 10  1  0  0  0  0
 10 11  1  1  0  0  0
 10 12  1  0  0  0  0
 12 32  1  6  0  0  0
 13 17  2  0  0  0  0
 13 28  1  0  0  0  0
 17 18  1  0  0  0  0
 17 22  1  0  0  0  0
 22 26  2  0  0  0  0
 26 27  1  0  0  0  0
 26 32  1  0  0  0  0
 27 28  2  0  0  0  0
 27 30  1  0  0  0  0
 28 29  1  0  0  0  0
 30 31  2  0  0  0  0
 31 32  1  0  0  0  0
M  CHG  3  14  -1  15  -1  21  -1
M  END
>  <CHROM.1>
70.40905004,47.75703788,-45.53655620,179.96368179,176.78451352,-112.08690517
-63.48851008,117.48982757,17.38908802,-23.64462899,-18.49541908,2.21880526
-0.11649669,2.95332297

>  <Name>
ligand

>  <RI>
0

>  <Rbt.Current_Directory>
/home/itssahil/PROJECTS/Mol_Feturizer/New_Systems/rnas/4Y1I

>  <Rbt.Executable>
rbdock ($Id: //depot/dev/client3/rdock/2013.1/src/exe/rbdock.cxx#4 $)

>  <Rbt.Library>
libRbt.so (2013.1, Build901 2013/11/27)

>  <Rbt.Parameter_File>
/export/apps/rDock/src/rDock_2013.1_src/data/scripts/dock_solv.prm

>  <Rbt.Receptor>
prm/pocket_docking_4.prm

>  <SCORE>
-9.71799

>  <SCORE.INTER>
-3.20135

>  <SCORE.INTER.CONST>
1

>  <SCORE.INTER.POLAR>
0

>  <SCORE.INTER.ROT>
8

>  <SCORE.INTER.SOLV>
11.9158

>  <SCORE.INTER.VDW>
-15.0395

>  <SCORE.INTER.norm>
-0.100042

>  <SCORE.INTRA>
-6.51664

>  <SCORE.INTRA.DIHEDRAL>
-6.52622

>  <SCORE.INTRA.DIHEDRAL.0>
10.9594

>  <SCORE.INTRA.POLAR>
0

>  <SCORE.INTRA.POLAR.0>
0

>  <SCORE.INTRA.REPUL>
0

>  <SCORE.INTRA.REPUL.0>
0

>  <SCORE.INTRA.SOLV>
-2.25714

>  <SCORE.INTRA.SOLV.lig_0>
-124.914

>  <SCORE.INTRA.VDW>
-2.12496

>  <SCORE.INTRA.VDW.0>
-4.69801

>  <SCORE.INTRA.norm>
-0.203645

>  <SCORE.RESTR>
0

>  <SCORE.RESTR.CAVITY>
0

>  <SCORE.RESTR.norm>
0

>  <SCORE.SYSTEM>
0

>  <SCORE.SYSTEM.CONST>
0

>  <SCORE.SYSTEM.DIHEDRAL>
0

>  <SCORE.SYSTEM.SOLV>
0

>  <SCORE.SYSTEM.norm>
0

>  <SCORE.heavy>
32

>  <SCORE.norm>
-0.303687

>  <RMSD>
5.651

$$$$
ligand
 OpenBabel11021811513D
libRbt.so/2013.1/901 2013/11/27
 32 34  0  0  0  0  0  0  0  0999 V2000
   14.4470  -22.7728  -16.4931 P   0  0  1  0  0  0  0  0  0  0  0  0
   12.0142  -24.2348  -16.9120 P   0  0  2  0  0  0  0  0  0  0  0  0
   12.1508  -27.1379  -16.5019 P   0  0  1  0  0  0  0  0  0  0  0  0
   15.5476  -21.6572  -18.5753 C   0  0  0  0  0  0  0  0  0  0  0  0
   15.2619  -21.5355  -17.2110 O   0  0  0  0  0  0  0  0  0  0  0  0
   16.2262  -20.5244  -19.0108 C   0  0  1  0  0  0  0  0  0  0  0  0
   17.5306  -20.3799  -18.2508 O   0  0  0  0  0  0  0  0  0  0  0  0
   16.6293  -20.6442  -20.5520 C   0  0  1  0  0  0  0  0  0  0  0  0
   15.8909  -19.5919  -21.3480 O   0  0  0  0  0  0  0  0  0  0  0  0
   17.8309  -20.3729  -20.6123 C   0  0  1  0  0  0  0  0  0  0  0  0
   17.9949  -18.9468  -20.9829 O   0  0  0  0  0  0  0  0  0  0  0  0
   18.4521  -20.6414  -19.0905 C   0  0  2  0  0  0  0  0  0  0  0  0
   22.3846  -23.9378  -19.3244 N   0  0  0  0  0  0  0  0  0  0  0  0
   15.2877  -24.0251  -16.5242 O   0  5  0  0  0  0  0  0  0  0  0  0
   10.8937  -24.3258  -17.9171 O   0  5  0  0  0  0  0  0  0  0  0  0
   11.1037  -27.4299  -17.5510 O   0  0  0  0  0  0  0  0  0  0  0  0
   22.3916  -22.6372  -19.5717 C   0  0  0  0  0  0  0  0  0  0  0  0
   23.6298  -21.9944  -19.9629 N   0  0  0  0  0  0  0  0  0  0  0  0
   14.1180  -22.3773  -15.0713 O   0  0  0  0  0  0  0  0  0  0  0  0
   11.4486  -23.9122  -15.5538 O   0  0  0  0  0  0  0  0  0  0  0  0
   13.2180  -28.2093  -16.5554 O   0  5  0  0  0  0  0  0  0  0  0  0
   21.3034  -21.9011  -19.4738 N   0  0  0  0  0  0  0  0  0  0  0  0
   13.0616  -23.0431  -17.3336 O   0  0  0  0  0  0  0  0  0  0  0  0
   12.8206  -25.6669  -16.8439 O   0  0  0  0  0  0  0  0  0  0  0  0
   11.4922  -27.1191  -15.1398 O   0  0  0  0  0  0  0  0  0  0  0  0
   20.1392  -22.4561  -19.1156 C   0  0  0  0  0  0  0  0  0  0  0  0
   20.1041  -23.8106  -18.8525 C   0  0  0  0  0  0  0  0  0  0  0  0
   21.2800  -24.5774  -18.9629 C   0  0  0  0  0  0  0  0  0  0  0  0
   21.2756  -25.9588  -18.7007 O   0  0  0  0  0  0  0  0  0  0  0  0
   18.8412  -24.1258  -18.5178 N   0  0  0  0  0  0  0  0  0  0  0  0
   18.1264  -23.0155  -18.5721 C   0  0  0  0  0  0  0  0  0  0  0  0
   18.8898  -22.0008  -18.9326 N   0  0  0  0  0  0  0  0  0  0  0  0
  1  5  1  6  0  0  0
  1 14  1  0  0  0  0
  1 19  2  0  0  0  0
  1 23  1  0  0  0  0
  2 15  1  6  0  0  0
  2 20  2  0  0  0  0
  2 23  1  0  0  0  0
  2 24  1  0  0  0  0
  3 16  1  6  0  0  0
  3 21  1  0  0  0  0
  3 24  1  0  0  0  0
  3 25  2  0  0  0  0
  4  5  1  0  0  0  0
  6  4  1  1  0  0  0
  6  7  1  0  0  0  0
  6  8  1  0  0  0  0
  7 12  1  0  0  0  0
  8  9  1  6  0  0  0
  8 10  1  0  0  0  0
 10 11  1  1  0  0  0
 10 12  1  0  0  0  0
 12 32  1  6  0  0  0
 13 17  2  0  0  0  0
 13 28  1  0  0  0  0
 17 18  1  0  0  0  0
 17 22  1  0  0  0  0
 22 26  2  0  0  0  0
 26 27  1  0  0  0  0
 26 32  1  0  0  0  0
 27 28  2  0  0  0  0
 27 30  1  0  0  0  0
 28 29  1  0  0  0  0
 30 31  2  0  0  0  0
 31 32  1  0  0  0  0
M  CHG  3  14  -1  15  -1  21  -1
M  END
>  <CHROM.1>
64.28177270,-175.43488593,60.37902629,60.59939446,179.58558702,-146.25523756
178.73244731,-57.00160510,16.04625087,-23.35953793,-18.02256975,2.67380786
-0.21644645,2.82015332

>  <Name>
ligand

>  <RI>
0

>  <Rbt.Current_Directory>
/home/itssahil/PROJECTS/Mol_Feturizer/New_Systems/rnas/4Y1I

>  <Rbt.Executable>
rbdock ($Id: //depot/dev/client3/rdock/2013.1/src/exe/rbdock.cxx#4 $)

>  <Rbt.Library>
libRbt.so (2013.1, Build901 2013/11/27)

>  <Rbt.Parameter_File>
/export/apps/rDock/src/rDock_2013.1_src/data/scripts/dock_solv.prm

>  <Rbt.Receptor>
prm/pocket_docking_5.prm

>  <SCORE>
-9.68536

>  <SCORE.INTER>
-3.26038

>  <SCORE.INTER.CONST>
1

>  <SCORE.INTER.POLAR>
0

>  <SCORE.INTER.ROT>
8

>  <SCORE.INTER.SOLV>
10.3149

>  <SCORE.INTER.VDW>
-14.5452

>  <SCORE.INTER.norm>
-0.101887

>  <SCORE.INTRA>
-6.42498

>  <SCORE.INTRA.DIHEDRAL>
-9.61757

>  <SCORE.INTRA.DIHEDRAL.0>
10.9594

>  <SCORE.INTRA.POLAR>
0

>  <SCORE.INTRA.POLAR.0>
0

>  <SCORE.INTRA.REPUL>
0

>  <SCORE.INTRA.REPUL.0>
0

>  <SCORE.INTRA.SOLV>
-4.27368

>  <SCORE.INTRA.SOLV.lig_0>
-124.914

>  <SCORE.INTRA.VDW>
0.520646

>  <SCORE.INTRA.VDW.0>
-4.69801

>  <SCORE.INTRA.norm>
-0.200781

>  <SCORE.RESTR>
0

>  <SCORE.RESTR.CAVITY>
0

>  <SCORE.RESTR.norm>
0

>  <SCORE.SYSTEM>
0

>  <SCORE.SYSTEM.CONST>
0

>  <SCORE.SYSTEM.DIHEDRAL>
0

>  <SCORE.SYSTEM.SOLV>
0

>  <SCORE.SYSTEM.norm>
0

>  <SCORE.heavy>
32

>  <SCORE.norm>
-0.302667

>  <RMSD>
5.660

$$$$
ligand
 OpenBabel11021811513D
libRbt.so/2013.1/901 2013/11/27
 32 34  0  0  0  0  0  0  0  0999 V2000
   14.6903  -22.8133  -16.5120 P   0  0  1  0  0  0  0  0  0  0  0  0
   15.6348  -25.3725  -15.6233 P   0  0  2  0  0  0  0  0  0  0  0  0
   13.4493  -27.2704  -15.1370 P   0  0  1  0  0  0  0  0  0  0  0  0
   15.6260  -21.6214  -18.6322 C   0  0  0  0  0  0  0  0  0  0  0  0
   15.3132  -21.4939  -17.2744 O   0  0  0  0  0  0  0  0  0  0  0  0
   16.3150  -20.4915  -19.0585 C   0  0  1  0  0  0  0  0  0  0  0  0
   17.6170  -20.3609  -18.2919 O   0  0  0  0  0  0  0  0  0  0  0  0
   16.7241  -20.6060  -20.5986 C   0  0  1  0  0  0  0  0  0  0  0  0
   15.9972  -19.5439  -21.3921 O   0  0  0  0  0  0  0  0  0  0  0  0
   17.9281  -20.3435  -20.6520 C   0  0  1  0  0  0  0  0  0  0  0  0
   18.1044  -18.9167  -21.0141 O   0  0  0  0  0  0  0  0  0  0  0  0
   18.5403  -20.6248  -19.1289 C   0  0  2  0  0  0  0  0  0  0  0  0
   22.4632  -23.9369  -19.2912 N   0  0  0  0  0  0  0  0  0  0  0  0
   14.3268  -22.4591  -15.0913 O   0  5  0  0  0  0  0  0  0  0  0  0
   15.8039  -25.0956  -14.1506 O   0  5  0  0  0  0  0  0  0  0  0  0
   14.4396  -28.4108  -15.1680 O   0  0  0  0  0  0  0  0  0  0  0  0
   22.4833  -22.6332  -19.5208 C   0  0  0  0  0  0  0  0  0  0  0  0
   23.7354  -21.9913  -19.8668 N   0  0  0  0  0  0  0  0  0  0  0  0
   13.4767  -23.2890  -17.2783 O   0  0  0  0  0  0  0  0  0  0  0  0
   16.6717  -26.3688  -16.0716 O   0  0  0  0  0  0  0  0  0  0  0  0
   13.1559  -26.9080  -13.6975 O   0  5  0  0  0  0  0  0  0  0  0  0
   21.3960  -21.8932  -19.4450 N   0  0  0  0  0  0  0  0  0  0  0  0
   15.8346  -23.9919  -16.4886 O   0  0  0  0  0  0  0  0  0  0  0  0
   14.1326  -25.9791  -15.9083 O   0  0  0  0  0  0  0  0  0  0  0  0
   12.1804  -27.7000  -15.8404 O   0  0  0  0  0  0  0  0  0  0  0  0
   20.2193  -22.4472  -19.1286 C   0  0  0  0  0  0  0  0  0  0  0  0
   20.1704  -23.8048  -18.8848 C   0  0  0  0  0  0  0  0  0  0  0  0
   21.3456  -24.5759  -18.9708 C   0  0  0  0  0  0  0  0  0  0  0  0
   21.3273  -25.9606  -18.7274 O   0  0  0  0  0  0  0  0  0  0  0  0
   18.8968  -24.1184  -18.5916 N   0  0  0  0  0  0  0  0  0  0  0  0
   18.1889  -23.0039  -18.6520 C   0  0  0  0  0  0  0  0  0  0  0  0
   18.9671  -21.9883  -18.9763 N   0  0  0  0  0  0  0  0  0  0  0  0
  1  5  1  6  0  0  0
  1 14  1  0  0  0  0
  1 19  2  0  0  0  0
  1 23  1  0  0  0  0
  2 15  1  1  0  0  0
  2 20  2  0  0  0  0
  2 23  1  0  0  0  0
  2 24  1  0  0  0  0
  3 16  1  6  0  0  0
  3 21  1  0  0  0  0
  3 24  1  0  0  0  0
  3 25  2  0  0  0  0
  4  5  1  0  0  0  0
  6  4  1  1  0  0  0
  6  7  1  0  0  0  0
  6  8  1  0  0  0  0
  7 12  1  0  0  0  0
  8  9  1  6  0  0  0
  8 10  1  0  0  0  0
 10 11  1  1  0  0  0
 10 12  1  0  0  0  0
 12 32  1  6  0  0  0
 13 17  2  0  0  0  0
 13 28  1  0  0  0  0
 17 18  1  0  0  0  0
 17 22  1  0  0  0  0
 22 26  2  0  0  0  0
 26 27  1  0  0  0  0
 26 32  1  0  0  0  0
 27 28  2  0  0  0  0
 27 30  1  0  0  0  0
 28 29  1  0  0  0  0
 30 31  2  0  0  0  0
 31 32  1  0  0  0  0
M  CHG  3  14  -1  15  -1  21  -1
M  END
>  <CHROM.1>
-175.99615814,-73.83137640,-49.80666147,61.69045522,-171.29443882,-144.74901980
171.26134572,-52.48559521,16.91871550,-23.55648349,-17.60245255,2.37084628
-0.28357503,2.63986768

>  <Name>
ligand

>  <RI>
0

>  <Rbt.Current_Directory>
/home/itssahil/PROJECTS/Mol_Feturizer/New_Systems/rnas/4Y1I

>  <Rbt.Executable>
rbdock ($Id: //depot/dev/client3/rdock/2013.1/src/exe/rbdock.cxx#4 $)

>  <Rbt.Library>
libRbt.so (2013.1, Build901 2013/11/27)

>  <Rbt.Parameter_File>
/export/apps/rDock/src/rDock_2013.1_src/data/scripts/dock_solv.prm

>  <Rbt.Receptor>
prm/pocket_docking_5.prm

>  <SCORE>
-11.4808

>  <SCORE.INTER>
-4.91631

>  <SCORE.INTER.CONST>
1

>  <SCORE.INTER.POLAR>
0

>  <SCORE.INTER.ROT>
8

>  <SCORE.INTER.SOLV>
11.7828

>  <SCORE.INTER.VDW>
-16.1385

>  <SCORE.INTER.norm>
-0.153635

>  <SCORE.INTRA>
-6.56448

>  <SCORE.INTRA.DIHEDRAL>
-8.63313

>  <SCORE.INTRA.DIHEDRAL.0>
10.9594

>  <SCORE.INTRA.POLAR>
0

>  <SCORE.INTRA.POLAR.0>
0

>  <SCORE.INTRA.REPUL>
0

>  <SCORE.INTRA.REPUL.0>
0

>  <SCORE.INTRA.SOLV>
-4.90019

>  <SCORE.INTRA.SOLV.lig_0>
-124.914

>  <SCORE.INTRA.VDW>
0.202189

>  <SCORE.INTRA.VDW.0>
-4.69801

>  <SCORE.INTRA.norm>
-0.20514

>  <SCORE.RESTR>
0

>  <SCORE.RESTR.CAVITY>
0

>  <SCORE.RESTR.norm>
0

>  <SCORE.SYSTEM>
0

>  <SCORE.SYSTEM.CONST>
0

>  <SCORE.SYSTEM.DIHEDRAL>
0

>  <SCORE.SYSTEM.SOLV>
0

>  <SCORE.SYSTEM.norm>
0

>  <SCORE.heavy>
32

>  <SCORE.norm>
-0.358775

>  <RMSD>
5.682

$$$$
ligand
 OpenBabel11021811513D
libRbt.so/2013.1/901 2013/11/27
 32 34  0  0  0  0  0  0  0  0999 V2000
   16.2915  -24.7192  -17.0473 P   0  0  1  0  0  0  0  0  0  0  0  0
   15.3539  -25.6791  -14.5114 P   0  0  2  0  0  0  0  0  0  0  0  0
   13.6910  -26.1999  -12.1495 P   0  0  1  0  0  0  0  0  0  0  0  0
   15.4069  -22.3053  -17.4737 C   0  0  0  0  0  0  0  0  0  0  0  0
   16.3055  -23.2985  -17.8788 O   0  0  0  0  0  0  0  0  0  0  0  0
   15.5746  -21.1755  -18.2667 C   0  0  1  0  0  0  0  0  0  0  0  0
   17.0316  -20.7550  -18.2649 O   0  0  0  0  0  0  0  0  0  0  0  0
   15.2082  -21.4760  -19.7924 C   0  0  1  0  0  0  0  0  0  0  0  0
   14.0007  -20.6576  -20.1901 O   0  0  0  0  0  0  0  0  0  0  0  0
   16.1627  -21.0684  -20.4589 C   0  0  1  0  0  0  0  0  0  0  0  0
   15.8649  -19.7058  -20.9615 O   0  0  0  0  0  0  0  0  0  0  0  0
   17.4715  -21.0231  -19.4299 C   0  0  2  0  0  0  0  0  0  0  0  0
   17.7617  -25.8010  -21.2932 N   0  0  0  0  0  0  0  0  0  0  0  0
   15.5822  -25.7777  -17.8552 O   0  5  0  0  0  0  0  0  0  0  0  0
   16.6406  -25.7967  -13.7337 O   0  5  0  0  0  0  0  0  0  0  0  0
   13.5151  -27.6416  -12.5652 O   0  0  0  0  0  0  0  0  0  0  0  0
   16.8778  -24.8604  -21.5878 C   0  0  0  0  0  0  0  0  0  0  0  0
   15.8315  -25.1438  -22.5493 N   0  0  0  0  0  0  0  0  0  0  0  0
   17.7185  -25.1261  -16.7570 O   0  0  0  0  0  0  0  0  0  0  0  0
   15.0709  -26.9789  -15.2180 O   0  0  0  0  0  0  0  0  0  0  0  0
   14.7928  -26.1130  -11.1160 O   0  5  0  0  0  0  0  0  0  0  0  0
   16.9167  -23.6662  -21.0329 N   0  0  0  0  0  0  0  0  0  0  0  0
   15.4768  -24.4923  -15.6389 O   0  0  0  0  0  0  0  0  0  0  0  0
   14.1137  -25.3298  -13.4887 O   0  0  0  0  0  0  0  0  0  0  0  0
   12.3879  -25.6905  -11.5733 O   0  0  0  0  0  0  0  0  0  0  0  0
   17.8667  -23.3639  -20.1398 C   0  0  0  0  0  0  0  0  0  0  0  0
   18.8005  -24.3268  -19.8144 C   0  0  0  0  0  0  0  0  0  0  0  0
   18.7399  -25.5963  -20.4208 C   0  0  0  0  0  0  0  0  0  0  0  0
   19.6773  -26.5972  -20.1100 O   0  0  0  0  0  0  0  0  0  0  0  0
   19.6373  -23.7906  -18.9096 N   0  0  0  0  0  0  0  0  0  0  0  0
   19.2383  -22.5508  -18.6848 C   0  0  0  0  0  0  0  0  0  0  0  0
   18.1728  -22.2770  -19.4141 N   0  0  0  0  0  0  0  0  0  0  0  0
  1  5  1  6  0  0  0
  1 14  1  0  0  0  0
  1 19  2  0  0  0  0
  1 23  1  0  0  0  0
  2 15  1  1  0  0  0
  2 20  2  0  0  0  0
  2 23  1  0  0  0  0
  2 24  1  0  0  0  0
  3 16  1  6  0  0  0
  3 21  1  0  0  0  0
  3 24  1  0  0  0  0
  3 25  2  0  0  0  0
  4  5  1  0  0  0  0
  6  4  1  1  0  0  0
  6  7  1  0  0  0  0
  6  8  1  0  0  0  0
  7 12  1  0  0  0  0
  8  9  1  6  0  0  0
  8 10  1  0  0  0  0
 10 11  1  1  0  0  0
 10 12  1  0  0  0  0
 12 32  1  1  0  0  0
 13 17  2  0  0  0  0
 13 28  1  0  0  0  0
 17 18  1  0  0  0  0
 17 22  1  0  0  0  0
 22 26  2  0  0  0  0
 26 27  1  0  0  0  0
 26 32  1  0  0  0  0
 27 28  2  0  0  0  0
 27 30  1  0  0  0  0
 28 29  1  0  0  0  0
 30 31  2  0  0  0  0
 31 32  1  0  0  0  0
M  CHG  3  14  -1  15  -1  21  -1
M  END
>  <CHROM.1>
103.49527146,77.38614909,-52.74088480,-52.97820697,178.95075153,120.43228925
-175.84859241,-54.84210929,16.14890999,-24.22872977,-17.29384339,-2.13027138
0.88680059,-0.70384642

>  <Name>
ligand

>  <RI>
0

>  <Rbt.Current_Directory>
/home/itssahil/PROJECTS/Mol_Feturizer/New_Systems/rnas/4Y1I

>  <Rbt.Executable>
rbdock ($Id: //depot/dev/client3/rdock/2013.1/src/exe/rbdock.cxx#4 $)

>  <Rbt.Library>
libRbt.so (2013.1, Build901 2013/11/27)

>  <Rbt.Parameter_File>
/export/apps/rDock/src/rDock_2013.1_src/data/scripts/dock_solv.prm

>  <Rbt.Receptor>
prm/pocket_docking_7.prm

>  <SCORE>
-4.61707

>  <SCORE.INTER>
0.730747

>  <SCORE.INTER.CONST>
1

>  <SCORE.INTER.POLAR>
0

>  <SCORE.INTER.ROT>
8

>  <SCORE.INTER.SOLV>
12.2439

>  <SCORE.INTER.VDW>
-12.5275

>  <SCORE.INTER.norm>
0.0228359

>  <SCORE.INTRA>
-5.34781

>  <SCORE.INTRA.DIHEDRAL>
-6.90148

>  <SCORE.INTRA.DIHEDRAL.0>
10.9594

>  <SCORE.INTRA.POLAR>
0

>  <SCORE.INTRA.POLAR.0>
0

>  <SCORE.INTRA.REPUL>
0

>  <SCORE.INTRA.REPUL.0>
0

>  <SCORE.INTRA.SOLV>
-1.66699

>  <SCORE.INTRA.SOLV.lig_0>
-124.914

>  <SCORE.INTRA.VDW>
-1.06358

>  <SCORE.INTRA.VDW.0>
-4.69801

>  <SCORE.INTRA.norm>
-0.167119

>  <SCORE.RESTR>
0

>  <SCORE.RESTR.CAVITY>
0

>  <SCORE.RESTR.norm>
0

>  <SCORE.SYSTEM>
0

>  <SCORE.SYSTEM.CONST>
0

>  <SCORE.SYSTEM.DIHEDRAL>
0

>  <SCORE.SYSTEM.SOLV>
0

>  <SCORE.SYSTEM.norm>
0

>  <SCORE.heavy>
32

>  <SCORE.norm>
-0.144283

>  <RMSD>
5.690

$$$$
ligand
 OpenBabel11021811513D
libRbt.so/2013.1/901 2013/11/27
 32 34  0  0  0  0  0  0  0  0999 V2000
   21.0773  -24.5371  -18.9125 P   0  0  1  0  0  0  0  0  0  0  0  0
   20.2281  -27.1352  -19.7841 P   0  0  2  0  0  0  0  0  0  0  0  0
   18.6354  -28.6589  -17.8458 P   0  0  1  0  0  0  0  0  0  0  0  0
   19.9867  -22.4718  -20.0687 C   0  0  0  0  0  0  0  0  0  0  0  0
   21.1601  -23.0147  -19.5336 O   0  0  0  0  0  0  0  0  0  0  0  0
   20.2275  -21.1687  -20.4898 C   0  0  1  0  0  0  0  0  0  0  0  0
   18.9887  -20.6050  -21.1588 O   0  0  0  0  0  0  0  0  0  0  0  0
   20.5334  -20.2048  -19.2531 C   0  0  1  0  0  0  0  0  0  0  0  0
   21.9562  -19.7020  -19.3474 O   0  0  0  0  0  0  0  0  0  0  0  0
   19.7904  -19.2297  -19.3889 C   0  0  1  0  0  0  0  0  0  0  0  0
   20.5357  -18.1324  -20.0512 O   0  0  0  0  0  0  0  0  0  0  0  0
   18.5301  -19.7281  -20.3569 C   0  0  2  0  0  0  0  0  0  0  0  0
   13.4484  -20.2013  -19.7752 N   0  0  0  0  0  0  0  0  0  0  0  0
   22.4494  -24.9862  -18.4747 O   0  5  0  0  0  0  0  0  0  0  0  0
   21.5089  -27.8670  -19.4709 O   0  5  0  0  0  0  0  0  0  0  0  0
   18.0214  -29.4876  -18.9497 O   0  0  0  0  0  0  0  0  0  0  0  0
   14.1061  -19.5335  -20.7102 C   0  0  0  0  0  0  0  0  0  0  0  0
   13.3637  -18.8223  -21.7313 N   0  0  0  0  0  0  0  0  0  0  0  0
   20.1119  -24.5349  -17.7488 O   0  0  0  0  0  0  0  0  0  0  0  0
   19.5896  -27.7371  -21.0084 O   0  0  0  0  0  0  0  0  0  0  0  0
   19.7877  -29.4250  -17.2335 O   0  5  0  0  0  0  0  0  0  0  0  0
   15.4224  -19.4926  -20.7450 N   0  0  0  0  0  0  0  0  0  0  0  0
   20.5367  -25.5514  -20.0862 O   0  0  0  0  0  0  0  0  0  0  0  0
   19.1924  -27.2532  -18.5116 O   0  0  0  0  0  0  0  0  0  0  0  0
   17.5803  -28.3711  -16.8002 O   0  0  0  0  0  0  0  0  0  0  0  0
   16.1456  -20.1357  -19.8203 C   0  0  0  0  0  0  0  0  0  0  0  0
   15.4847  -20.8394  -18.8338 C   0  0  0  0  0  0  0  0  0  0  0  0
   14.0769  -20.8697  -18.8170 C   0  0  0  0  0  0  0  0  0  0  0  0
   13.3758  -21.5782  -17.8253 O   0  0  0  0  0  0  0  0  0  0  0  0
   16.4154  -21.3905  -18.0362 N   0  0  0  0  0  0  0  0  0  0  0  0
   17.6000  -21.0426  -18.5081 C   0  0  0  0  0  0  0  0  0  0  0  0
   17.4577  -20.2854  -19.5799 N   0  0  0  0  0  0  0  0  0  0  0  0
  1  5  1  6  0  0  0
  1 14  1  0  0  0  0
  1 19  2  0  0  0  0
  1 23  1  0  0  0  0
  2 15  1  1  0  0  0
  2 20  2  0  0  0  0
  2 23  1  0  0  0  0
  2 24  1  0  0  0  0
  3 16  1  6  0  0  0
  3 21  1  0  0  0  0
  3 24  1  0  0  0  0
  3 25  2  0  0  0  0
  4  5  1  0  0  0  0
  6  4  1  1  0  0  0
  6  7  1  0  0  0  0
  6  8  1  0  0  0  0
  7 12  1  0  0  0  0
  8  9  1  6  0  0  0
  8 10  1  0  0  0  0
 10 11  1  6  0  0  0
 10 12  1  0  0  0  0
 12 32  1  1  0  0  0
 13 17  2  0  0  0  0
 13 28  1  0  0  0  0
 17 18  1  0  0  0  0
 17 22  1  0  0  0  0
 22 26  2  0  0  0  0
 26 27  1  0  0  0  0
 26 32  1  0  0  0  0
 27 28  2  0  0  0  0
 27 30  1  0  0  0  0
 28 29  1  0  0  0  0
 30 31  2  0  0  0  0
 31 32  1  0  0  0  0
M  CHG  3  14  -1  15  -1  21  -1
M  END
>  <CHROM.1>
176.03515090,-67.07529089,-54.21617567,176.08584381,177.40638795,-98.65914511
-175.45883995,-57.60427958,18.62953282,-23.49322289,-19.26878171,-1.18008957
0.07297068,-0.18551402

>  <Name>
ligand

>  <RI>
0

>  <Rbt.Current_Directory>
/home/itssahil/PROJECTS/Mol_Feturizer/New_Systems/rnas/4Y1I

>  <Rbt.Executable>
rbdock ($Id: //depot/dev/client3/rdock/2013.1/src/exe/rbdock.cxx#4 $)

>  <Rbt.Library>
libRbt.so (2013.1, Build901 2013/11/27)

>  <Rbt.Parameter_File>
/export/apps/rDock/src/rDock_2013.1_src/data/scripts/dock_solv.prm

>  <Rbt.Receptor>
prm/pocket_docking_6.prm

>  <SCORE>
-9.63904

>  <SCORE.INTER>
-2.95889

>  <SCORE.INTER.CONST>
1

>  <SCORE.INTER.POLAR>
0

>  <SCORE.INTER.ROT>
8

>  <SCORE.INTER.SOLV>
11.6642

>  <SCORE.INTER.VDW>
-14.794

>  <SCORE.INTER.norm>
-0.0924653

>  <SCORE.INTRA>
-6.68015

>  <SCORE.INTRA.DIHEDRAL>
-9.48281

>  <SCORE.INTRA.DIHEDRAL.0>
10.9594

>  <SCORE.INTRA.POLAR>
0

>  <SCORE.INTRA.POLAR.0>
0

>  <SCORE.INTRA.REPUL>
0

>  <SCORE.INTRA.REPUL.0>
0

>  <SCORE.INTRA.SOLV>
-4.39937

>  <SCORE.INTRA.SOLV.lig_0>
-124.914

>  <SCORE.INTRA.VDW>
0.260935

>  <SCORE.INTRA.VDW.0>
-4.69801

>  <SCORE.INTRA.norm>
-0.208755

>  <SCORE.RESTR>
0

>  <SCORE.RESTR.CAVITY>
0

>  <SCORE.RESTR.norm>
0

>  <SCORE.SYSTEM>
0

>  <SCORE.SYSTEM.CONST>
0

>  <SCORE.SYSTEM.DIHEDRAL>
0

>  <SCORE.SYSTEM.SOLV>
0

>  <SCORE.SYSTEM.norm>
0

>  <SCORE.heavy>
32

>  <SCORE.norm>
-0.30122

>  <RMSD>
5.701

$$$$
ligand
 OpenBabel11021811513D
libRbt.so/2013.1/901 2013/11/27
 32 34  0  0  0  0  0  0  0  0999 V2000
   14.5446  -22.6767  -16.6064 P   0  0  1  0  0  0  0  0  0  0  0  0
   14.8837  -25.5013  -16.2353 P   0  0  2  0  0  0  0  0  0  0  0  0
   15.6506  -27.1917  -18.5090 P   0  0  1  0  0  0  0  0  0  0  0  0
   15.5545  -21.5507  -18.7285 C   0  0  0  0  0  0  0  0  0  0  0  0
   15.3479  -21.4462  -17.3485 O   0  0  0  0  0  0  0  0  0  0  0  0
   16.4297  -20.5533  -19.1441 C   0  0  1  0  0  0  0  0  0  0  0  0
   17.6792  -20.5719  -18.2849 O   0  0  0  0  0  0  0  0  0  0  0  0
   16.9256  -20.8016  -20.6423 C   0  0  1  0  0  0  0  0  0  0  0  0
   16.4197  -19.6875  -21.5305 O   0  0  0  0  0  0  0  0  0  0  0  0
   18.1558  -20.7166  -20.6128 C   0  0  1  0  0  0  0  0  0  0  0  0
   18.5638  -19.3495  -21.0156 O   0  0  0  0  0  0  0  0  0  0  0  0
   18.6109  -21.0063  -19.0371 C   0  0  2  0  0  0  0  0  0  0  0  0
   21.9804  -24.8822  -18.9390 N   0  0  0  0  0  0  0  0  0  0  0  0
   14.5435  -22.4599  -15.1134 O   0  5  0  0  0  0  0  0  0  0  0  0
   13.4042  -25.7343  -16.4113 O   0  5  0  0  0  0  0  0  0  0  0  0
   14.1978  -27.4086  -18.8620 O   0  0  0  0  0  0  0  0  0  0  0  0
   22.2023  -23.6129  -19.2428 C   0  0  0  0  0  0  0  0  0  0  0  0
   23.5411  -23.1913  -19.6027 N   0  0  0  0  0  0  0  0  0  0  0  0
   13.1332  -22.7305  -17.1462 O   0  0  0  0  0  0  0  0  0  0  0  0
   15.2115  -25.4267  -14.7671 O   0  0  0  0  0  0  0  0  0  0  0  0
   16.2150  -26.0947  -19.3852 O   0  5  0  0  0  0  0  0  0  0  0  0
   21.2408  -22.7123  -19.2290 N   0  0  0  0  0  0  0  0  0  0  0  0
   15.3242  -24.0843  -16.9373 O   0  0  0  0  0  0  0  0  0  0  0  0
   15.7284  -26.7337  -16.9236 O   0  0  0  0  0  0  0  0  0  0  0  0
   16.4093  -28.4824  -18.7280 O   0  0  0  0  0  0  0  0  0  0  0  0
   19.9903  -23.0603  -18.9023 C   0  0  0  0  0  0  0  0  0  0  0  0
   19.7316  -24.3777  -18.5818 C   0  0  0  0  0  0  0  0  0  0  0  0
   20.7752  -25.3229  -18.6024 C   0  0  0  0  0  0  0  0  0  0  0  0
   20.5425  -26.6716  -18.2803 O   0  0  0  0  0  0  0  0  0  0  0  0
   18.4224  -24.4751  -18.2938 N   0  0  0  0  0  0  0  0  0  0  0  0
   17.8944  -23.2712  -18.4307 C   0  0  0  0  0  0  0  0  0  0  0  0
   18.8221  -22.4074  -18.7989 N   0  0  0  0  0  0  0  0  0  0  0  0
  1  5  1  6  0  0  0
  1 14  1  0  0  0  0
  1 19  2  0  0  0  0
  1 23  1  0  0  0  0
  2 15  1  6  0  0  0
  2 20  2  0  0  0  0
  2 23  1  0  0  0  0
  2 24  1  0  0  0  0
  3 16  1  6  0  0  0
  3 21  1  0  0  0  0
  3 24  1  0  0  0  0
  3 25  2  0  0  0  0
  4  5  1  0  0  0  0
  6  4  1  1  0  0  0
  6  7  1  0  0  0  0
  6  8  1  0  0  0  0
  7 12  1  0  0  0  0
  8  9  1  6  0  0  0
  8 10  1  0  0  0  0
 10 11  1  1  0  0  0
 10 12  1  0  0  0  0
 12 32  1  6  0  0  0
 13 17  2  0  0  0  0
 13 28  1  0  0  0  0
 17 18  1  0  0  0  0
 17 22  1  0  0  0  0
 22 26  2  0  0  0  0
 26 27  1  0  0  0  0
 26 32  1  0  0  0  0
 27 28  2  0  0  0  0
 27 30  1  0  0  0  0
 28 29  1  0  0  0  0
 30 31  2  0  0  0  0
 31 32  1  0  0  0  0
M  CHG  3  14  -1  15  -1  21  -1
M  END
>  <CHROM.1>
174.14741694,51.90153355,-52.50534781,51.64601634,-170.09808072,-148.36708663
173.83253494,58.42641801,17.06431997,-23.76411766,-18.22996631,2.55184364
-0.33369132,2.90970410

>  <Name>
ligand

>  <RI>
0

>  <Rbt.Current_Directory>
/home/itssahil/PROJECTS/Mol_Feturizer/New_Systems/rnas/4Y1I

>  <Rbt.Executable>
rbdock ($Id: //depot/dev/client3/rdock/2013.1/src/exe/rbdock.cxx#4 $)

>  <Rbt.Library>
libRbt.so (2013.1, Build901 2013/11/27)

>  <Rbt.Parameter_File>
/export/apps/rDock/src/rDock_2013.1_src/data/scripts/dock_solv.prm

>  <Rbt.Receptor>
prm/pocket_docking_4.prm

>  <SCORE>
-10.1052

>  <SCORE.INTER>
-3.39364

>  <SCORE.INTER.CONST>
1

>  <SCORE.INTER.POLAR>
0

>  <SCORE.INTER.ROT>
8

>  <SCORE.INTER.SOLV>
10.9197

>  <SCORE.INTER.VDW>
-14.8357

>  <SCORE.INTER.norm>
-0.106051

>  <SCORE.INTRA>
-6.71159

>  <SCORE.INTRA.DIHEDRAL>
-8.70793

>  <SCORE.INTRA.DIHEDRAL.0>
10.9594

>  <SCORE.INTRA.POLAR>
0

>  <SCORE.INTRA.POLAR.0>
0

>  <SCORE.INTRA.REPUL>
0

>  <SCORE.INTRA.REPUL.0>
0

>  <SCORE.INTRA.SOLV>
-3.51694

>  <SCORE.INTRA.SOLV.lig_0>
-124.914

>  <SCORE.INTRA.VDW>
-0.599153

>  <SCORE.INTRA.VDW.0>
-4.69801

>  <SCORE.INTRA.norm>
-0.209737

>  <SCORE.RESTR>
0

>  <SCORE.RESTR.CAVITY>
0

>  <SCORE.RESTR.norm>
0

>  <SCORE.SYSTEM>
0

>  <SCORE.SYSTEM.CONST>
0

>  <SCORE.SYSTEM.DIHEDRAL>
0

>  <SCORE.SYSTEM.SOLV>
0

>  <SCORE.SYSTEM.norm>
0

>  <SCORE.heavy>
32

>  <SCORE.norm>
-0.315788

>  <RMSD>
5.712

$$$$
ligand
 OpenBabel11021811513D
libRbt.so/2013.1/901 2013/11/27
 32 34  0  0  0  0  0  0  0  0999 V2000
   14.5115  -22.7465  -16.4760 P   0  0  1  0  0  0  0  0  0  0  0  0
   15.1260  -25.4899  -15.9039 P   0  0  2  0  0  0  0  0  0  0  0  0
   14.5130  -26.8298  -18.4425 P   0  0  1  0  0  0  0  0  0  0  0  0
   15.5424  -21.6188  -18.5871 C   0  0  0  0  0  0  0  0  0  0  0  0
   15.2312  -21.4727  -17.2307 O   0  0  0  0  0  0  0  0  0  0  0  0
   16.2339  -20.4962  -19.0288 C   0  0  1  0  0  0  0  0  0  0  0  0
   17.5406  -20.3634  -18.2707 O   0  0  0  0  0  0  0  0  0  0  0  0
   16.6340  -20.6283  -20.5697 C   0  0  1  0  0  0  0  0  0  0  0  0
   15.9072  -19.5713  -21.3702 O   0  0  0  0  0  0  0  0  0  0  0  0
   17.8387  -20.3714  -20.6324 C   0  0  1  0  0  0  0  0  0  0  0  0
   18.0191  -18.9492  -21.0102 O   0  0  0  0  0  0  0  0  0  0  0  0
   18.4581  -20.6398  -19.1099 C   0  0  2  0  0  0  0  0  0  0  0  0
   22.3657  -23.9704  -19.2611 N   0  0  0  0  0  0  0  0  0  0  0  0
   14.1908  -22.3802  -15.0480 O   0  5  0  0  0  0  0  0  0  0  0  0
   14.4561  -25.3541  -14.5597 O   0  5  0  0  0  0  0  0  0  0  0  0
   15.5772  -27.8793  -18.2224 O   0  0  0  0  0  0  0  0  0  0  0  0
   22.3900  -22.6693  -19.5045 C   0  0  0  0  0  0  0  0  0  0  0  0
   23.6427  -22.0364  -19.8647 N   0  0  0  0  0  0  0  0  0  0  0  0
   13.2566  -23.1146  -17.2348 O   0  0  0  0  0  0  0  0  0  0  0  0
   16.3697  -26.3282  -15.7654 O   0  0  0  0  0  0  0  0  0  0  0  0
   13.3037  -27.4768  -19.0816 O   0  5  0  0  0  0  0  0  0  0  0  0
   21.3064  -21.9238  -19.4299 N   0  0  0  0  0  0  0  0  0  0  0  0
   15.5575  -24.0131  -16.4765 O   0  0  0  0  0  0  0  0  0  0  0  0
   14.0981  -26.2061  -16.9700 O   0  0  0  0  0  0  0  0  0  0  0  0
   15.0673  -25.7468  -19.3421 O   0  0  0  0  0  0  0  0  0  0  0  0
   20.1293  -22.4693  -19.1007 C   0  0  0  0  0  0  0  0  0  0  0  0
   20.0760  -23.8241  -18.8423 C   0  0  0  0  0  0  0  0  0  0  0  0
   21.2474  -24.6012  -18.9274 C   0  0  0  0  0  0  0  0  0  0  0  0
   21.2246  -25.9831  -18.6694 O   0  0  0  0  0  0  0  0  0  0  0  0
   18.8029  -24.1291  -18.5383 N   0  0  0  0  0  0  0  0  0  0  0  0
   18.0994  -23.0123  -18.6061 C   0  0  0  0  0  0  0  0  0  0  0  0
   18.8800  -22.0034  -18.9457 N   0  0  0  0  0  0  0  0  0  0  0  0
  1  5  1  6  0  0  0
  1 14  1  0  0  0  0
  1 19  2  0  0  0  0
  1 23  1  0  0  0  0
  2 15  1  1  0  0  0
  2 20  2  0  0  0  0
  2 23  1  0  0  0  0
  2 24  1  0  0  0  0
  3 16  1  1  0  0  0
  3 21  1  0  0  0  0
  3 24  1  0  0  0  0
  3 25  2  0  0  0  0
  4  5  1  0  0  0  0
  6  4  1  1  0  0  0
  6  7  1  0  0  0  0
  6  8  1  0  0  0  0
  7 12  1  0  0  0  0
  8  9  1  6  0  0  0
  8 10  1  0  0  0  0
 10 11  1  1  0  0  0
 10 12  1  0  0  0  0
 12 32  1  6  0  0  0
 13 17  2  0  0  0  0
 13 28  1  0  0  0  0
 17 18  1  0  0  0  0
 17 22  1  0  0  0  0
 22 26  2  0  0  0  0
 26 27  1  0  0  0  0
 26 32  1  0  0  0  0
 27 28  2  0  0  0  0
 27 30  1  0  0  0  0
 28 29  1  0  0  0  0
 30 31  2  0  0  0  0
 31 32  1  0  0  0  0
M  CHG  3  14  -1  15  -1  21  -1
M  END
>  <CHROM.1>
-177.13998932,-47.87959543,57.62036840,62.01388278,-175.35028159,-144.78285263
-175.29921272,-166.41262266,16.95119664,-23.48980895,-18.20625214,2.53264307
-0.27281151,2.86045020

>  <Name>
ligand

>  <RI>
0

>  <Rbt.Current_Directory>
/home/itssahil/PROJECTS/Mol_Feturizer/New_Systems/rnas/4Y1I

>  <Rbt.Executable>
rbdock ($Id: //depot/dev/client3/rdock/2013.1/src/exe/rbdock.cxx#4 $)

>  <Rbt.Library>
libRbt.so (2013.1, Build901 2013/11/27)

>  <Rbt.Parameter_File>
/export/apps/rDock/src/rDock_2013.1_src/data/scripts/dock_solv.prm

>  <Rbt.Receptor>
prm/pocket_docking_5.prm

>  <SCORE>
-10.6091

>  <SCORE.INTER>
-4.30836

>  <SCORE.INTER.CONST>
1

>  <SCORE.INTER.POLAR>
0

>  <SCORE.INTER.ROT>
8

>  <SCORE.INTER.SOLV>
10.5073

>  <SCORE.INTER.VDW>
-15.308

>  <SCORE.INTER.norm>
-0.134636

>  <SCORE.INTRA>
-6.30075

>  <SCORE.INTRA.DIHEDRAL>
-9.00514

>  <SCORE.INTRA.DIHEDRAL.0>
10.9594

>  <SCORE.INTRA.POLAR>
0

>  <SCORE.INTRA.POLAR.0>
0

>  <SCORE.INTRA.REPUL>
0

>  <SCORE.INTRA.REPUL.0>
0

>  <SCORE.INTRA.SOLV>
-3.44726

>  <SCORE.INTRA.SOLV.lig_0>
-124.914

>  <SCORE.INTRA.VDW>
-0.0745515

>  <SCORE.INTRA.VDW.0>
-4.69801

>  <SCORE.INTRA.norm>
-0.196898

>  <SCORE.RESTR>
0

>  <SCORE.RESTR.CAVITY>
0

>  <SCORE.RESTR.norm>
0

>  <SCORE.SYSTEM>
0

>  <SCORE.SYSTEM.CONST>
0

>  <SCORE.SYSTEM.DIHEDRAL>
0

>  <SCORE.SYSTEM.SOLV>
0

>  <SCORE.SYSTEM.norm>
0

>  <SCORE.heavy>
32

>  <SCORE.norm>
-0.331535

>  <RMSD>
5.730

$$$$
ligand
 OpenBabel11021811513D
libRbt.so/2013.1/901 2013/11/27
 32 34  0  0  0  0  0  0  0  0999 V2000
   14.5199  -22.8167  -16.6655 P   0  0  1  0  0  0  0  0  0  0  0  0
   11.7487  -23.5344  -16.8570 P   0  0  2  0  0  0  0  0  0  0  0  0
   11.0623  -26.3866  -16.7643 P   0  0  1  0  0  0  0  0  0  0  0  0
   15.6832  -21.5531  -18.6254 C   0  0  0  0  0  0  0  0  0  0  0  0
   15.5038  -21.6283  -17.2398 O   0  0  0  0  0  0  0  0  0  0  0  0
   16.5961  -20.5470  -18.9218 C   0  0  1  0  0  0  0  0  0  0  0  0
   17.9205  -20.8345  -18.2412 O   0  0  0  0  0  0  0  0  0  0  0  0
   16.9121  -20.4906  -20.4868 C   0  0  1  0  0  0  0  0  0  0  0  0
   16.4185  -19.1781  -21.0524 O   0  0  0  0  0  0  0  0  0  0  0  0
   18.1414  -20.4934  -20.5868 C   0  0  1  0  0  0  0  0  0  0  0  0
   18.6256  -19.1002  -20.7369 O   0  0  0  0  0  0  0  0  0  0  0  0
   18.7281  -21.1516  -19.1738 C   0  0  2  0  0  0  0  0  0  0  0  0
   17.8770  -25.3493  -22.0093 N   0  0  0  0  0  0  0  0  0  0  0  0
   15.0740  -24.1676  -17.0454 O   0  5  0  0  0  0  0  0  0  0  0  0
   10.5377  -23.2109  -17.6956 O   0  5  0  0  0  0  0  0  0  0  0  0
   10.4747  -26.2548  -15.3788 O   0  0  0  0  0  0  0  0  0  0  0  0
   17.6019  -24.0896  -22.3097 C   0  0  0  0  0  0  0  0  0  0  0  0
   16.9821  -23.7811  -23.5826 N   0  0  0  0  0  0  0  0  0  0  0  0
   14.4160  -22.6776  -15.1635 O   0  0  0  0  0  0  0  0  0  0  0  0
   11.4653  -23.2073  -15.4143 O   0  0  0  0  0  0  0  0  0  0  0  0
    9.9472  -26.3127  -17.7845 O   0  5  0  0  0  0  0  0  0  0  0  0
   17.8743  -23.0988  -21.4853 N   0  0  0  0  0  0  0  0  0  0  0  0
   13.0358  -22.6413  -17.3477 O   0  0  0  0  0  0  0  0  0  0  0  0
   12.1127  -25.1326  -16.9954 O   0  0  0  0  0  0  0  0  0  0  0  0
   11.7844  -27.7121  -16.8695 O   0  0  0  0  0  0  0  0  0  0  0  0
   18.4464  -23.3409  -20.2997 C   0  0  0  0  0  0  0  0  0  0  0  0
   18.7433  -24.6457  -19.9614 C   0  0  0  0  0  0  0  0  0  0  0  0
   18.4438  -25.6887  -20.8589 C   0  0  0  0  0  0  0  0  0  0  0  0
   18.7349  -27.0274  -20.5426 O   0  0  0  0  0  0  0  0  0  0  0  0
   19.3041  -24.6302  -18.7402 N   0  0  0  0  0  0  0  0  0  0  0  0
   19.3517  -23.3714  -18.3403 C   0  0  0  0  0  0  0  0  0  0  0  0
   18.8376  -22.5813  -19.2643 N   0  0  0  0  0  0  0  0  0  0  0  0
  1  5  1  6  0  0  0
  1 14  1  0  0  0  0
  1 19  2  0  0  0  0
  1 23  1  0  0  0  0
  2 15  1  6  0  0  0
  2 20  2  0  0  0  0
  2 23  1  0  0  0  0
  2 24  1  0  0  0  0
  3 16  1  1  0  0  0
  3 21  1  0  0  0  0
  3 24  1  0  0  0  0
  3 25  2  0  0  0  0
  4  5  1  0  0  0  0
  6  4  1  6  0  0  0
  6  7  1  0  0  0  0
  6  8  1  0  0  0  0
  7 12  1  0  0  0  0
  8  9  1  1  0  0  0
  8 10  1  0  0  0  0
 10 11  1  1  0  0  0
 10 12  1  0  0  0  0
 12 32  1  6  0  0  0
 13 17  2  0  0  0  0
 13 28  1  0  0  0  0
 17 18  1  0  0  0  0
 17 22  1  0  0  0  0
 22 26  2  0  0  0  0
 26 27  1  0  0  0  0
 26 32  1  0  0  0  0
 27 28  2  0  0  0  0
 27 30  1  0  0  0  0
 28 29  1  0  0  0  0
 30 31  2  0  0  0  0
 31 32  1  0  0  0  0
M  CHG  3  14  -1  15  -1  21  -1
M  END
>  <CHROM.1>
61.01971801,-177.39038457,-56.20518486,58.99826823,-176.69334585,114.85290634
-171.91470660,-52.11477150,15.22911811,-23.43545988,-18.52198271,2.93333981
-0.57633082,-2.90546850

>  <Name>
ligand

>  <RI>
0

>  <Rbt.Current_Directory>
/home/itssahil/PROJECTS/Mol_Feturizer/New_Systems/rnas/4Y1I

>  <Rbt.Executable>
rbdock ($Id: //depot/dev/client3/rdock/2013.1/src/exe/rbdock.cxx#4 $)

>  <Rbt.Library>
libRbt.so (2013.1, Build901 2013/11/27)

>  <Rbt.Parameter_File>
/export/apps/rDock/src/rDock_2013.1_src/data/scripts/dock_solv.prm

>  <Rbt.Receptor>
prm/pocket_docking_5.prm

>  <SCORE>
-4.98231

>  <SCORE.INTER>
1.78639

>  <SCORE.INTER.CONST>
1

>  <SCORE.INTER.POLAR>
0

>  <SCORE.INTER.ROT>
8

>  <SCORE.INTER.SOLV>
9.06178

>  <SCORE.INTER.VDW>
-10.763

>  <SCORE.INTER.norm>
0.0558246

>  <SCORE.INTRA>
-6.7687

>  <SCORE.INTRA.DIHEDRAL>
-9.43679

>  <SCORE.INTRA.DIHEDRAL.0>
10.9594

>  <SCORE.INTRA.POLAR>
0

>  <SCORE.INTRA.POLAR.0>
0

>  <SCORE.INTRA.REPUL>
0

>  <SCORE.INTRA.REPUL.0>
0

>  <SCORE.INTRA.SOLV>
-4.44658

>  <SCORE.INTRA.SOLV.lig_0>
-124.914

>  <SCORE.INTRA.VDW>
0.172987

>  <SCORE.INTRA.VDW.0>
-4.69801

>  <SCORE.INTRA.norm>
-0.211522

>  <SCORE.RESTR>
0

>  <SCORE.RESTR.CAVITY>
0

>  <SCORE.RESTR.norm>
0

>  <SCORE.SYSTEM>
0

>  <SCORE.SYSTEM.CONST>
0

>  <SCORE.SYSTEM.DIHEDRAL>
0

>  <SCORE.SYSTEM.SOLV>
0

>  <SCORE.SYSTEM.norm>
0

>  <SCORE.heavy>
32

>  <SCORE.norm>
-0.155697

>  <RMSD>
5.731

$$$$
ligand
 OpenBabel11021811513D
libRbt.so/2013.1/901 2013/11/27
 32 34  0  0  0  0  0  0  0  0999 V2000
   16.7051  -24.9019  -16.3605 P   0  0  1  0  0  0  0  0  0  0  0  0
   15.8086  -24.7744  -13.6381 P   0  0  2  0  0  0  0  0  0  0  0  0
   15.9177  -27.7038  -13.4894 P   0  0  1  0  0  0  0  0  0  0  0  0
   15.8290  -23.3214  -18.2382 C   0  0  0  0  0  0  0  0  0  0  0  0
   15.9807  -23.5105  -16.8601 O   0  0  0  0  0  0  0  0  0  0  0  0
   15.3303  -22.0462  -18.4801 C   0  0  1  0  0  0  0  0  0  0  0  0
   16.2586  -21.0067  -17.8821 O   0  0  0  0  0  0  0  0  0  0  0  0
   15.2720  -21.7314  -20.0452 C   0  0  1  0  0  0  0  0  0  0  0  0
   13.8310  -21.5620  -20.4706 O   0  0  0  0  0  0  0  0  0  0  0  0
   15.8287  -20.6410  -20.1947 C   0  0  1  0  0  0  0  0  0  0  0  0
   14.8058  -19.5688  -20.2391 O   0  0  0  0  0  0  0  0  0  0  0  0
   16.8177  -20.4309  -18.8712 C   0  0  2  0  0  0  0  0  0  0  0  0
   21.8729  -19.5617  -19.1443 N   0  0  0  0  0  0  0  0  0  0  0  0
   15.7807  -26.0715  -16.5922 O   0  5  0  0  0  0  0  0  0  0  0  0
   14.7724  -23.7388  -13.9960 O   0  5  0  0  0  0  0  0  0  0  0  0
   16.7807  -27.8372  -14.7222 O   0  0  0  0  0  0  0  0  0  0  0  0
   20.9057  -18.6925  -18.8961 C   0  0  0  0  0  0  0  0  0  0  0  0
   21.2415  -17.3025  -18.6619 N   0  0  0  0  0  0  0  0  0  0  0  0
   17.9994  -25.0762  -17.1224 O   0  0  0  0  0  0  0  0  0  0  0  0
   16.4044  -24.4482  -12.2938 O   0  0  0  0  0  0  0  0  0  0  0  0
   16.8022  -27.7154  -12.2617 O   0  5  0  0  0  0  0  0  0  0  0  0
   19.6384  -19.0499  -18.8540 N   0  0  0  0  0  0  0  0  0  0  0  0
   17.0147  -24.7812  -14.7517 O   0  0  0  0  0  0  0  0  0  0  0  0
   15.1129  -26.2640  -13.5825 O   0  0  0  0  0  0  0  0  0  0  0  0
   14.9403  -28.8579  -13.4445 O   0  0  0  0  0  0  0  0  0  0  0  0
   19.2857  -20.3238  -19.0650 C   0  0  0  0  0  0  0  0  0  0  0  0
   20.2746  -21.2504  -19.3265 C   0  0  0  0  0  0  0  0  0  0  0  0
   21.6228  -20.8456  -19.3657 C   0  0  0  0  0  0  0  0  0  0  0  0
   22.6521  -21.7665  -19.6290 O   0  0  0  0  0  0  0  0  0  0  0  0
   19.6778  -22.4420  -19.5005 N   0  0  0  0  0  0  0  0  0  0  0  0
   18.3769  -22.2604  -19.3537 C   0  0  0  0  0  0  0  0  0  0  0  0
   18.1217  -20.9917  -19.0938 N   0  0  0  0  0  0  0  0  0  0  0  0
  1  5  1  6  0  0  0
  1 14  1  0  0  0  0
  1 19  2  0  0  0  0
  1 23  1  0  0  0  0
  2 15  1  6  0  0  0
  2 20  2  0  0  0  0
  2 23  1  0  0  0  0
  2 24  1  0  0  0  0
  3 16  1  6  0  0  0
  3 21  1  0  0  0  0
  3 24  1  0  0  0  0
  3 25  2  0  0  0  0
  4  5  1  0  0  0  0
  6  4  1  6  0  0  0
  6  7  1  0  0  0  0
  6  8  1  0  0  0  0
  7 12  1  0  0  0  0
  8  9  1  1  0  0  0
  8 10  1  0  0  0  0
 10 11  1  1  0  0  0
 10 12  1  0  0  0  0
 12 32  1  6  0  0  0
 13 17  2  0  0  0  0
 13 28  1  0  0  0  0
 17 18  1  0  0  0  0
 17 22  1  0  0  0  0
 22 26  2  0  0  0  0
 26 27  1  0  0  0  0
 26 32  1  0  0  0  0
 27 28  2  0  0  0  0
 27 30  1  0  0  0  0
 28 29  1  0  0  0  0
 30 31  2  0  0  0  0
 31 32  1  0  0  0  0
M  CHG  3  14  -1  15  -1  21  -1
M  END
>  <CHROM.1>
-71.19281372,-51.74382625,-61.31734841,57.52320923,-173.89248251,-120.66873298
69.05278606,168.68497896,17.20255455,-23.26380029,-16.92002610,-1.94620380
-0.13900430,-0.76560269

>  <Name>
ligand

>  <RI>
0

>  <Rbt.Current_Directory>
/home/itssahil/PROJECTS/Mol_Feturizer/New_Systems/rnas/4Y1I

>  <Rbt.Executable>
rbdock ($Id: //depot/dev/client3/rdock/2013.1/src/exe/rbdock.cxx#4 $)

>  <Rbt.Library>
libRbt.so (2013.1, Build901 2013/11/27)

>  <Rbt.Parameter_File>
/export/apps/rDock/src/rDock_2013.1_src/data/scripts/dock_solv.prm

>  <Rbt.Receptor>
prm/pocket_docking_6.prm

>  <SCORE>
-12.4804

>  <SCORE.INTER>
-5.99624

>  <SCORE.INTER.CONST>
1

>  <SCORE.INTER.POLAR>
0

>  <SCORE.INTER.ROT>
8

>  <SCORE.INTER.SOLV>
16.8315

>  <SCORE.INTER.VDW>
-18.5413

>  <SCORE.INTER.norm>
-0.187382

>  <SCORE.INTRA>
-6.48415

>  <SCORE.INTRA.DIHEDRAL>
-8.90046

>  <SCORE.INTRA.DIHEDRAL.0>
10.9594

>  <SCORE.INTRA.POLAR>
0

>  <SCORE.INTRA.POLAR.0>
0

>  <SCORE.INTRA.REPUL>
0

>  <SCORE.INTRA.REPUL.0>
0

>  <SCORE.INTRA.SOLV>
-3.21738

>  <SCORE.INTRA.SOLV.lig_0>
-124.914

>  <SCORE.INTRA.VDW>
-0.425237

>  <SCORE.INTRA.VDW.0>
-4.69801

>  <SCORE.INTRA.norm>
-0.20263

>  <SCORE.RESTR>
0

>  <SCORE.RESTR.CAVITY>
0

>  <SCORE.RESTR.norm>
0

>  <SCORE.SYSTEM>
0

>  <SCORE.SYSTEM.CONST>
0

>  <SCORE.SYSTEM.DIHEDRAL>
0

>  <SCORE.SYSTEM.SOLV>
0

>  <SCORE.SYSTEM.norm>
0

>  <SCORE.heavy>
32

>  <SCORE.norm>
-0.390012

>  <RMSD>
5.744

$$$$
ligand
 OpenBabel11021811513D
libRbt.so/2013.1/901 2013/11/27
 32 34  0  0  0  0  0  0  0  0999 V2000
   13.6477  -25.0233  -19.1523 P   0  0  1  0  0  0  0  0  0  0  0  0
   15.8491  -26.8419  -19.4317 P   0  0  2  0  0  0  0  0  0  0  0  0
   17.9232  -26.1737  -21.3981 P   0  0  1  0  0  0  0  0  0  0  0  0
   15.3320  -23.3434  -20.2165 C   0  0  0  0  0  0  0  0  0  0  0  0
   14.2756  -23.5102  -19.3142 O   0  0  0  0  0  0  0  0  0  0  0  0
   15.8566  -22.0624  -20.0862 C   0  0  1  0  0  0  0  0  0  0  0  0
   16.3369  -21.8433  -18.6645 O   0  0  0  0  0  0  0  0  0  0  0  0
   17.1395  -21.8616  -21.0168 C   0  0  1  0  0  0  0  0  0  0  0  0
   16.8377  -20.8208  -22.0713 O   0  0  0  0  0  0  0  0  0  0  0  0
   18.0207  -21.3997  -20.2878 C   0  0  1  0  0  0  0  0  0  0  0  0
   18.0514  -19.9241  -20.4283 O   0  0  0  0  0  0  0  0  0  0  0  0
   17.6088  -21.8154  -18.7285 C   0  0  2  0  0  0  0  0  0  0  0  0
   21.6934  -24.9292  -18.7994 N   0  0  0  0  0  0  0  0  0  0  0  0
   12.4552  -24.9863  -18.2289 O   0  5  0  0  0  0  0  0  0  0  0  0
   15.1010  -27.6588  -20.4551 O   0  5  0  0  0  0  0  0  0  0  0  0
   17.1338  -26.7689  -22.5404 O   0  0  0  0  0  0  0  0  0  0  0  0
   21.5894  -23.7051  -19.2928 C   0  0  0  0  0  0  0  0  0  0  0  0
   22.7323  -23.1035  -19.9495 N   0  0  0  0  0  0  0  0  0  0  0  0
   13.2568  -25.5358  -20.5201 O   0  0  0  0  0  0  0  0  0  0  0  0
   16.6474  -27.7575  -18.5412 O   0  0  0  0  0  0  0  0  0  0  0  0
   18.6220  -24.9205  -21.8786 O   0  5  0  0  0  0  0  0  0  0  0  0
   20.4741  -23.0092  -19.2067 N   0  0  0  0  0  0  0  0  0  0  0  0
   14.7961  -25.9982  -18.4968 O   0  0  0  0  0  0  0  0  0  0  0  0
   16.8639  -25.7920  -20.1892 O   0  0  0  0  0  0  0  0  0  0  0  0
   18.9363  -27.1893  -20.9170 O   0  0  0  0  0  0  0  0  0  0  0  0
   19.3952  -23.5283  -18.6082 C   0  0  0  0  0  0  0  0  0  0  0  0
   19.4767  -24.8031  -18.0855 C   0  0  0  0  0  0  0  0  0  0  0  0
   20.6795  -25.5281  -18.1885 C   0  0  0  0  0  0  0  0  0  0  0  0
   20.7930  -26.8283  -17.6654 O   0  0  0  0  0  0  0  0  0  0  0  0
   18.2820  -25.0963  -17.5442 N   0  0  0  0  0  0  0  0  0  0  0  0
   17.4959  -24.0492  -17.7245 C   0  0  0  0  0  0  0  0  0  0  0  0
   18.1476  -23.0968  -18.3652 N   0  0  0  0  0  0  0  0  0  0  0  0
  1  5  1  6  0  0  0
  1 14  1  0  0  0  0
  1 19  2  0  0  0  0
  1 23  1  0  0  0  0
  2 15  1  6  0  0  0
  2 20  2  0  0  0  0
  2 23  1  0  0  0  0
  2 24  1  0  0  0  0
  3 16  1  6  0  0  0
  3 21  1  0  0  0  0
  3 24  1  0  0  0  0
  3 25  2  0  0  0  0
  4  5  1  0  0  0  0
  6  4  1  1  0  0  0
  6  7  1  0  0  0  0
  6  8  1  0  0  0  0
  7 12  1  0  0  0  0
  8  9  1  6  0  0  0
  8 10  1  0  0  0  0
 10 11  1  1  0  0  0
 10 12  1  0  0  0  0
 12 32  1  6  0  0  0
 13 17  2  0  0  0  0
 13 28  1  0  0  0  0
 17 18  1  0  0  0  0
 17 22  1  0  0  0  0
 22 26  2  0  0  0  0
 26 27  1  0  0  0  0
 26 32  1  0  0  0  0
 27 28  2  0  0  0  0
 27 30  1  0  0  0  0
 28 29  1  0  0  0  0
 30 31  2  0  0  0  0
 31 32  1  0  0  0  0
M  CHG  3  14  -1  15  -1  21  -1
M  END
>  <CHROM.1>
-175.43037691,-53.13492120,58.18288317,58.57956836,-171.62690534,163.67376666
-90.31506666,-48.83376638,17.27302028,-24.56067052,-19.64800154,2.86337254
0.05431463,3.07430462

>  <Name>
ligand

>  <RI>
0

>  <Rbt.Current_Directory>
/home/itssahil/PROJECTS/Mol_Feturizer/New_Systems/rnas/4Y1I

>  <Rbt.Executable>
rbdock ($Id: //depot/dev/client3/rdock/2013.1/src/exe/rbdock.cxx#4 $)

>  <Rbt.Library>
libRbt.so (2013.1, Build901 2013/11/27)

>  <Rbt.Parameter_File>
/export/apps/rDock/src/rDock_2013.1_src/data/scripts/dock_solv.prm

>  <Rbt.Receptor>
prm/pocket_docking_4.prm

>  <SCORE>
-5.52262

>  <SCORE.INTER>
2.75584

>  <SCORE.INTER.CONST>
1

>  <SCORE.INTER.POLAR>
0

>  <SCORE.INTER.ROT>
8

>  <SCORE.INTER.SOLV>
4.77156

>  <SCORE.INTER.VDW>
-8.68663

>  <SCORE.INTER.norm>
0.0861199

>  <SCORE.INTRA>
-8.27846

>  <SCORE.INTRA.DIHEDRAL>
-7.83687

>  <SCORE.INTRA.DIHEDRAL.0>
10.9594

>  <SCORE.INTRA.POLAR>
0

>  <SCORE.INTRA.POLAR.0>
0

>  <SCORE.INTRA.REPUL>
0

>  <SCORE.INTRA.REPUL.0>
0

>  <SCORE.INTRA.SOLV>
-0.847045

>  <SCORE.INTRA.SOLV.lig_0>
-124.914

>  <SCORE.INTRA.VDW>
-3.9365

>  <SCORE.INTRA.VDW.0>
-4.69801

>  <SCORE.INTRA.norm>
-0.258702

>  <SCORE.RESTR>
0

>  <SCORE.RESTR.CAVITY>
0

>  <SCORE.RESTR.norm>
0

>  <SCORE.SYSTEM>
0

>  <SCORE.SYSTEM.CONST>
0

>  <SCORE.SYSTEM.DIHEDRAL>
0

>  <SCORE.SYSTEM.SOLV>
0

>  <SCORE.SYSTEM.norm>
0

>  <SCORE.heavy>
32

>  <SCORE.norm>
-0.172582

>  <RMSD>
5.751

$$$$
ligand
 OpenBabel11021811513D
libRbt.so/2013.1/901 2013/11/27
 32 34  0  0  0  0  0  0  0  0999 V2000
   14.1059  -23.6122  -15.6285 P   0  0  1  0  0  0  0  0  0  0  0  0
   15.0778  -25.5877  -13.7890 P   0  0  2  0  0  0  0  0  0  0  0  0
   12.6858  -26.9627  -12.7877 P   0  0  1  0  0  0  0  0  0  0  0  0
   15.3959  -23.3851  -17.8815 C   0  0  0  0  0  0  0  0  0  0  0  0
   15.5013  -23.5940  -16.5019 O   0  0  0  0  0  0  0  0  0  0  0  0
   15.0455  -22.0620  -18.1257 C   0  0  1  0  0  0  0  0  0  0  0  0
   16.1047  -21.1347  -17.5616 O   0  0  0  0  0  0  0  0  0  0  0  0
   14.9857  -21.7555  -19.6924 C   0  0  1  0  0  0  0  0  0  0  0  0
   13.5647  -21.4203  -20.0853 O   0  0  0  0  0  0  0  0  0  0  0  0
   15.6634  -20.7399  -19.8674 C   0  0  1  0  0  0  0  0  0  0  0  0
   14.7735  -19.5546  -19.8993 O   0  0  0  0  0  0  0  0  0  0  0  0
   16.7030  -20.6374  -18.5702 C   0  0  2  0  0  0  0  0  0  0  0  0
   21.7167  -20.3159  -19.6404 N   0  0  0  0  0  0  0  0  0  0  0  0
   13.5185  -22.2236  -15.5739 O   0  5  0  0  0  0  0  0  0  0  0  0
   15.6871  -25.6212  -12.4099 O   0  5  0  0  0  0  0  0  0  0  0  0
   13.3358  -27.1783  -11.4410 O   0  0  0  0  0  0  0  0  0  0  0  0
   20.8499  -19.3284  -19.4782 C   0  0  0  0  0  0  0  0  0  0  0  0
   21.3020  -17.9575  -19.6038 N   0  0  0  0  0  0  0  0  0  0  0  0
   13.1420  -24.5823  -16.2735 O   0  0  0  0  0  0  0  0  0  0  0  0
   16.1393  -25.8813  -14.8166 O   0  0  0  0  0  0  0  0  0  0  0  0
   11.7924  -25.7435  -12.7171 O   0  5  0  0  0  0  0  0  0  0  0  0
   19.5806  -19.5504  -19.2042 N   0  0  0  0  0  0  0  0  0  0  0  0
   14.4530  -24.1017  -14.0993 O   0  0  0  0  0  0  0  0  0  0  0  0
   13.8827  -26.7127  -13.8986 O   0  0  0  0  0  0  0  0  0  0  0  0
   11.8750  -28.1890  -13.1457 O   0  0  0  0  0  0  0  0  0  0  0  0
   19.1223  -20.8018  -19.0800 C   0  0  0  0  0  0  0  0  0  0  0  0
   20.0051  -21.8500  -19.2448 C   0  0  0  0  0  0  0  0  0  0  0  0
   21.3578  -21.5888  -19.5365 C   0  0  0  0  0  0  0  0  0  0  0  0
   22.2806  -22.6355  -19.7092 O   0  0  0  0  0  0  0  0  0  0  0  0
   19.3159  -22.9910  -19.0739 N   0  0  0  0  0  0  0  0  0  0  0  0
   18.0619  -22.6633  -18.8153 C   0  0  0  0  0  0  0  0  0  0  0  0
   17.9257  -21.3504  -18.8174 N   0  0  0  0  0  0  0  0  0  0  0  0
  1  5  1  6  0  0  0
  1 14  1  0  0  0  0
  1 19  2  0  0  0  0
  1 23  1  0  0  0  0
  2 15  1  1  0  0  0
  2 20  2  0  0  0  0
  2 23  1  0  0  0  0
  2 24  1  0  0  0  0
  3 16  1  1  0  0  0
  3 21  1  0  0  0  0
  3 24  1  0  0  0  0
  3 25  2  0  0  0  0
  4  5  1  0  0  0  0
  6  4  1  6  0  0  0
  6  7  1  0  0  0  0
  6  8  1  0  0  0  0
  7 12  1  0  0  0  0
  8  9  1  1  0  0  0
  8 10  1  0  0  0  0
 10 11  1  1  0  0  0
 10 12  1  0  0  0  0
 12 32  1  6  0  0  0
 13 17  2  0  0  0  0
 13 28  1  0  0  0  0
 17 18  1  0  0  0  0
 17 22  1  0  0  0  0
 22 26  2  0  0  0  0
 26 27  1  0  0  0  0
 26 32  1  0  0  0  0
 27 28  2  0  0  0  0
 27 30  1  0  0  0  0
 28 29  1  0  0  0  0
 30 31  2  0  0  0  0
 31 32  1  0  0  0  0
M  CHG  3  14  -1  15  -1  21  -1
M  END
>  <CHROM.1>
-69.87441597,162.52748456,-53.81165463,60.09561086,71.60431832,-134.44425757
-61.90601972,46.60294302,16.00873575,-23.23140889,-16.65384269,2.20056682
-0.03937963,2.33792669

>  <Name>
ligand

>  <RI>
0

>  <Rbt.Current_Directory>
/home/itssahil/PROJECTS/Mol_Feturizer/New_Systems/rnas/4Y1I

>  <Rbt.Executable>
rbdock ($Id: //depot/dev/client3/rdock/2013.1/src/exe/rbdock.cxx#4 $)

>  <Rbt.Library>
libRbt.so (2013.1, Build901 2013/11/27)

>  <Rbt.Parameter_File>
/export/apps/rDock/src/rDock_2013.1_src/data/scripts/dock_solv.prm

>  <Rbt.Receptor>
prm/pocket_docking_6.prm

>  <SCORE>
-9.71201

>  <SCORE.INTER>
-5.13738

>  <SCORE.INTER.CONST>
1

>  <SCORE.INTER.POLAR>
0

>  <SCORE.INTER.ROT>
8

>  <SCORE.INTER.SOLV>
12.3482

>  <SCORE.INTER.VDW>
-16.4743

>  <SCORE.INTER.norm>
-0.160543

>  <SCORE.INTRA>
-4.57463

>  <SCORE.INTRA.DIHEDRAL>
-8.13434

>  <SCORE.INTRA.DIHEDRAL.0>
10.9594

>  <SCORE.INTRA.POLAR>
0

>  <SCORE.INTRA.POLAR.0>
0

>  <SCORE.INTRA.REPUL>
0

>  <SCORE.INTRA.REPUL.0>
0

>  <SCORE.INTRA.SOLV>
-2.32007

>  <SCORE.INTRA.SOLV.lig_0>
-124.914

>  <SCORE.INTRA.VDW>
0.652578

>  <SCORE.INTRA.VDW.0>
-4.69801

>  <SCORE.INTRA.norm>
-0.142957

>  <SCORE.RESTR>
0

>  <SCORE.RESTR.CAVITY>
0

>  <SCORE.RESTR.norm>
0

>  <SCORE.SYSTEM>
0

>  <SCORE.SYSTEM.CONST>
0

>  <SCORE.SYSTEM.DIHEDRAL>
0

>  <SCORE.SYSTEM.SOLV>
0

>  <SCORE.SYSTEM.norm>
0

>  <SCORE.heavy>
32

>  <SCORE.norm>
-0.3035

>  <RMSD>
5.756

$$$$
ligand
 OpenBabel11021811513D
libRbt.so/2013.1/901 2013/11/27
 32 34  0  0  0  0  0  0  0  0999 V2000
   14.3293  -22.7455  -16.3443 P   0  0  1  0  0  0  0  0  0  0  0  0
   15.4483  -25.3219  -16.9285 P   0  0  2  0  0  0  0  0  0  0  0  0
   15.9782  -27.1650  -14.7064 P   0  0  1  0  0  0  0  0  0  0  0  0
   15.6183  -21.7866  -18.3962 C   0  0  0  0  0  0  0  0  0  0  0  0
   15.1911  -21.5539  -17.0842 O   0  0  0  0  0  0  0  0  0  0  0  0
   16.2028  -20.6326  -18.9061 C   0  0  1  0  0  0  0  0  0  0  0  0
   17.5444  -20.3956  -18.2399 O   0  0  0  0  0  0  0  0  0  0  0  0
   16.5095  -20.7767  -20.4673 C   0  0  1  0  0  0  0  0  0  0  0  0
   15.6630  -19.7899  -21.2392 O   0  0  0  0  0  0  0  0  0  0  0  0
   17.6877  -20.4433  -20.6156 C   0  0  1  0  0  0  0  0  0  0  0  0
   17.7475  -19.0223  -21.0339 O   0  0  0  0  0  0  0  0  0  0  0  0
   18.4216  -20.6324  -19.1326 C   0  0  2  0  0  0  0  0  0  0  0  0
   22.5578  -23.6720  -19.3276 N   0  0  0  0  0  0  0  0  0  0  0  0
   13.7283  -22.2221  -15.0633 O   0  5  0  0  0  0  0  0  0  0  0  0
   16.0824  -24.9825  -18.2540 O   0  5  0  0  0  0  0  0  0  0  0  0
   14.5870  -27.7450  -14.8071 O   0  0  0  0  0  0  0  0  0  0  0  0
   22.4842  -22.3739  -19.5769 C   0  0  0  0  0  0  0  0  0  0  0  0
   23.6823  -21.6539  -19.9585 N   0  0  0  0  0  0  0  0  0  0  0  0
   13.2520  -23.2250  -17.2909 O   0  0  0  0  0  0  0  0  0  0  0  0
   14.0551  -25.8474  -17.1556 O   0  0  0  0  0  0  0  0  0  0  0  0
   16.9597  -28.2791  -14.4150 O   0  5  0  0  0  0  0  0  0  0  0  0
   21.3505  -21.7085  -19.4894 N   0  0  0  0  0  0  0  0  0  0  0  0
   15.3494  -23.9821  -15.9852 O   0  0  0  0  0  0  0  0  0  0  0  0
   16.3458  -26.4641  -16.1566 O   0  0  0  0  0  0  0  0  0  0  0  0
   16.0047  -26.1369  -13.5965 O   0  0  0  0  0  0  0  0  0  0  0  0
   20.2210  -22.3360  -19.1403 C   0  0  0  0  0  0  0  0  0  0  0  0
   20.2699  -23.6897  -18.8753 C   0  0  0  0  0  0  0  0  0  0  0  0
   21.4931  -24.3803  -18.9745 C   0  0  0  0  0  0  0  0  0  0  0  0
   21.5744  -25.7589  -18.7102 O   0  0  0  0  0  0  0  0  0  0  0  0
   19.0268  -24.0844  -18.5510 N   0  0  0  0  0  0  0  0  0  0  0  0
   18.2433  -23.0218  -18.6131 C   0  0  0  0  0  0  0  0  0  0  0  0
   18.9436  -21.9610  -18.9687 N   0  0  0  0  0  0  0  0  0  0  0  0
  1  5  1  6  0  0  0
  1 14  1  0  0  0  0
  1 19  2  0  0  0  0
  1 23  1  0  0  0  0
  2 15  1  6  0  0  0
  2 20  2  0  0  0  0
  2 23  1  0  0  0  0
  2 24  1  0  0  0  0
  3 16  1  6  0  0  0
  3 21  1  0  0  0  0
  3 24  1  0  0  0  0
  3 25  2  0  0  0  0
  4  5  1  0  0  0  0
  6  4  1  1  0  0  0
  6  7  1  0  0  0  0
  6  8  1  0  0  0  0
  7 12  1  0  0  0  0
  8  9  1  6  0  0  0
  8 10  1  0  0  0  0
 10 11  1  1  0  0  0
 10 12  1  0  0  0  0
 12 32  1  1  0  0  0
 13 17  2  0  0  0  0
 13 28  1  0  0  0  0
 17 18  1  0  0  0  0
 17 22  1  0  0  0  0
 22 26  2  0  0  0  0
 26 27  1  0  0  0  0
 26 32  1  0  0  0  0
 27 28  2  0  0  0  0
 27 30  1  0  0  0  0
 28 29  1  0  0  0  0
 30 31  2  0  0  0  0
 31 32  1  0  0  0  0
M  CHG  3  14  -1  15  -1  21  -1
M  END
>  <CHROM.1>
-168.86381293,69.22789814,54.47510568,71.47167326,173.84312590,-141.64553717
-99.54166598,-177.34095972,17.20846756,-23.48596227,-17.71680421,2.27973074
-0.28022785,2.57802719

>  <Name>
ligand

>  <RI>
0

>  <Rbt.Current_Directory>
/home/itssahil/PROJECTS/Mol_Feturizer/New_Systems/rnas/4Y1I

>  <Rbt.Executable>
rbdock ($Id: //depot/dev/client3/rdock/2013.1/src/exe/rbdock.cxx#4 $)

>  <Rbt.Library>
libRbt.so (2013.1, Build901 2013/11/27)

>  <Rbt.Parameter_File>
/export/apps/rDock/src/rDock_2013.1_src/data/scripts/dock_solv.prm

>  <Rbt.Receptor>
prm/pocket_docking_6.prm

>  <SCORE>
-10.5103

>  <SCORE.INTER>
-5.6691

>  <SCORE.INTER.CONST>
1

>  <SCORE.INTER.POLAR>
0

>  <SCORE.INTER.ROT>
8

>  <SCORE.INTER.SOLV>
10.6576

>  <SCORE.INTER.VDW>
-16.2653

>  <SCORE.INTER.norm>
-0.177159

>  <SCORE.INTRA>
-4.84121

>  <SCORE.INTRA.DIHEDRAL>
-6.84139

>  <SCORE.INTRA.DIHEDRAL.0>
10.9594

>  <SCORE.INTRA.POLAR>
0

>  <SCORE.INTRA.POLAR.0>
0

>  <SCORE.INTRA.REPUL>
0

>  <SCORE.INTRA.REPUL.0>
0

>  <SCORE.INTRA.SOLV>
-3.11251

>  <SCORE.INTRA.SOLV.lig_0>
-124.914

>  <SCORE.INTRA.VDW>
0.13574

>  <SCORE.INTRA.VDW.0>
-4.69801

>  <SCORE.INTRA.norm>
-0.151288

>  <SCORE.RESTR>
0

>  <SCORE.RESTR.CAVITY>
0

>  <SCORE.RESTR.norm>
0

>  <SCORE.SYSTEM>
0

>  <SCORE.SYSTEM.CONST>
0

>  <SCORE.SYSTEM.DIHEDRAL>
0

>  <SCORE.SYSTEM.SOLV>
0

>  <SCORE.SYSTEM.norm>
0

>  <SCORE.heavy>
32

>  <SCORE.norm>
-0.328447

>  <RMSD>
5.756

$$$$
ligand
 OpenBabel11021811513D
libRbt.so/2013.1/901 2013/11/27
 32 34  0  0  0  0  0  0  0  0999 V2000
   14.5623  -22.8465  -16.3827 P   0  0  1  0  0  0  0  0  0  0  0  0
   15.6616  -25.2723  -15.3158 P   0  0  2  0  0  0  0  0  0  0  0  0
   13.5705  -26.9953  -14.1872 P   0  0  1  0  0  0  0  0  0  0  0  0
   15.4677  -21.7028  -18.5422 C   0  0  0  0  0  0  0  0  0  0  0  0
   15.1535  -21.5384  -17.1886 O   0  0  0  0  0  0  0  0  0  0  0  0
   16.1005  -20.5584  -19.0146 C   0  0  1  0  0  0  0  0  0  0  0  0
   17.4137  -20.3554  -18.2836 O   0  0  0  0  0  0  0  0  0  0  0  0
   16.4780  -20.6984  -20.5606 C   0  0  1  0  0  0  0  0  0  0  0  0
   15.6907  -19.6880  -21.3639 O   0  0  0  0  0  0  0  0  0  0  0  0
   17.6689  -20.3898  -20.6501 C   0  0  1  0  0  0  0  0  0  0  0  0
   17.7791  -18.9676  -21.0538 O   0  0  0  0  0  0  0  0  0  0  0  0
   18.3271  -20.6051  -19.1355 C   0  0  2  0  0  0  0  0  0  0  0  0
   22.3837  -23.7536  -19.2646 N   0  0  0  0  0  0  0  0  0  0  0  0
   14.2434  -22.4681  -14.9575 O   0  5  0  0  0  0  0  0  0  0  0  0
   16.0678  -24.8096  -13.9392 O   0  5  0  0  0  0  0  0  0  0  0  0
   14.4888  -28.1943  -14.2261 O   0  0  0  0  0  0  0  0  0  0  0  0
   22.3471  -22.4556  -19.5226 C   0  0  0  0  0  0  0  0  0  0  0  0
   23.5681  -21.7698  -19.8949 N   0  0  0  0  0  0  0  0  0  0  0  0
   13.3267  -23.3413  -17.1003 O   0  0  0  0  0  0  0  0  0  0  0  0
   16.6150  -26.3367  -15.7920 O   0  0  0  0  0  0  0  0  0  0  0  0
   13.5868  -26.4036  -12.7946 O   0  5  0  0  0  0  0  0  0  0  0  0
   21.2305  -21.7600  -19.4522 N   0  0  0  0  0  0  0  0  0  0  0  0
   15.7124  -24.0194  -16.3753 O   0  0  0  0  0  0  0  0  0  0  0  0
   14.1352  -25.8838  -15.2713 O   0  0  0  0  0  0  0  0  0  0  0  0
   12.1703  -27.4345  -14.5558 O   0  0  0  0  0  0  0  0  0  0  0  0
   20.0809  -22.3554  -19.1122 C   0  0  0  0  0  0  0  0  0  0  0  0
   20.0912  -23.7082  -18.8385 C   0  0  0  0  0  0  0  0  0  0  0  0
   21.2968  -24.4314  -18.9194 C   0  0  0  0  0  0  0  0  0  0  0  0
   21.3387  -25.8099  -18.6458 O   0  0  0  0  0  0  0  0  0  0  0  0
   18.8345  -24.0680  -18.5260 N   0  0  0  0  0  0  0  0  0  0  0  0
   18.0800  -22.9857  -18.6036 C   0  0  0  0  0  0  0  0  0  0  0  0
   18.8120  -21.9459  -18.9576 N   0  0  0  0  0  0  0  0  0  0  0  0
  1  5  1  6  0  0  0
  1 14  1  0  0  0  0
  1 19  2  0  0  0  0
  1 23  1  0  0  0  0
  2 15  1  1  0  0  0
  2 20  2  0  0  0  0
  2 23  1  0  0  0  0
  2 24  1  0  0  0  0
  3 16  1  6  0  0  0
  3 21  1  0  0  0  0
  3 24  1  0  0  0  0
  3 25  2  0  0  0  0
  4  5  1  0  0  0  0
  6  4  1  1  0  0  0
  6  7  1  0  0  0  0
  6  8  1  0  0  0  0
  7 12  1  0  0  0  0
  8  9  1  6  0  0  0
  8 10  1  0  0  0  0
 10 11  1  1  0  0  0
 10 12  1  0  0  0  0
 12 32  1  6  0  0  0
 13 17  2  0  0  0  0
 13 28  1  0  0  0  0
 17 18  1  0  0  0  0
 17 22  1  0  0  0  0
 22 26  2  0  0  0  0
 26 27  1  0  0  0  0
 26 32  1  0  0  0  0
 27 28  2  0  0  0  0
 27 30  1  0  0  0  0
 28 29  1  0  0  0  0
 30 31  2  0  0  0  0
 31 32  1  0  0  0  0
M  CHG  3  14  -1  15  -1  21  -1
M  END
>  <CHROM.1>
-178.23192486,-74.82581392,-54.24477752,63.06846313,-172.74943553,-143.87668908
161.85808708,-49.14756804,16.84220595,-23.47489334,-17.35736360,2.31947932
-0.29424234,2.53569015

>  <Name>
ligand

>  <RI>
0

>  <Rbt.Current_Directory>
/home/itssahil/PROJECTS/Mol_Feturizer/New_Systems/rnas/4Y1I

>  <Rbt.Executable>
rbdock ($Id: //depot/dev/client3/rdock/2013.1/src/exe/rbdock.cxx#4 $)

>  <Rbt.Library>
libRbt.so (2013.1, Build901 2013/11/27)

>  <Rbt.Parameter_File>
/export/apps/rDock/src/rDock_2013.1_src/data/scripts/dock_solv.prm

>  <Rbt.Receptor>
prm/pocket_docking_8.prm

>  <SCORE>
-11.8248

>  <SCORE.INTER>
-5.4121

>  <SCORE.INTER.CONST>
1

>  <SCORE.INTER.POLAR>
0

>  <SCORE.INTER.ROT>
8

>  <SCORE.INTER.SOLV>
12.5621

>  <SCORE.INTER.VDW>
-16.7288

>  <SCORE.INTER.norm>
-0.169128

>  <SCORE.INTRA>
-6.41271

>  <SCORE.INTRA.DIHEDRAL>
-8.33862

>  <SCORE.INTRA.DIHEDRAL.0>
10.9594

>  <SCORE.INTRA.POLAR>
0

>  <SCORE.INTRA.POLAR.0>
0

>  <SCORE.INTRA.REPUL>
0

>  <SCORE.INTRA.REPUL.0>
0

>  <SCORE.INTRA.SOLV>
-5.00436

>  <SCORE.INTRA.SOLV.lig_0>
-124.914

>  <SCORE.INTRA.VDW>
0.258773

>  <SCORE.INTRA.VDW.0>
-4.69801

>  <SCORE.INTRA.norm>
-0.200397

>  <SCORE.RESTR>
0

>  <SCORE.RESTR.CAVITY>
0

>  <SCORE.RESTR.norm>
0

>  <SCORE.SYSTEM>
0

>  <SCORE.SYSTEM.CONST>
0

>  <SCORE.SYSTEM.DIHEDRAL>
0

>  <SCORE.SYSTEM.SOLV>
0

>  <SCORE.SYSTEM.norm>
0

>  <SCORE.heavy>
32

>  <SCORE.norm>
-0.369525

>  <RMSD>
5.762

$$$$
ligand
 OpenBabel11021811513D
libRbt.so/2013.1/901 2013/11/27
 32 34  0  0  0  0  0  0  0  0999 V2000
   20.9766  -24.8724  -18.6582 P   0  0  1  0  0  0  0  0  0  0  0  0
   20.9155  -27.6807  -19.2417 P   0  0  2  0  0  0  0  0  0  0  0  0
   19.5621  -29.4344  -17.3160 P   0  0  1  0  0  0  0  0  0  0  0  0
   19.0311  -23.3129  -19.4161 C   0  0  0  0  0  0  0  0  0  0  0  0
   20.4177  -23.4928  -19.3615 O   0  0  0  0  0  0  0  0  0  0  0  0
   18.7413  -22.1435  -20.1103 C   0  0  1  0  0  0  0  0  0  0  0  0
   17.2765  -22.1253  -20.5024 O   0  0  0  0  0  0  0  0  0  0  0  0
   18.9649  -20.8531  -19.1953 C   0  0  1  0  0  0  0  0  0  0  0  0
   20.0940  -20.0234  -19.7636 O   0  0  0  0  0  0  0  0  0  0  0  0
   17.9336  -20.1836  -19.2921 C   0  0  1  0  0  0  0  0  0  0  0  0
   18.1264  -19.1292  -20.3163 O   0  0  0  0  0  0  0  0  0  0  0  0
   16.7333  -21.2331  -19.7734 C   0  0  2  0  0  0  0  0  0  0  0  0
   15.2030  -25.6091  -17.5611 N   0  0  0  0  0  0  0  0  0  0  0  0
   22.4457  -24.7286  -18.3462 O   0  5  0  0  0  0  0  0  0  0  0  0
   22.2528  -27.9129  -18.5844 O   0  5  0  0  0  0  0  0  0  0  0  0
   20.8065  -29.5899  -16.4735 O   0  0  0  0  0  0  0  0  0  0  0  0
   15.8240  -25.4518  -18.7197 C   0  0  0  0  0  0  0  0  0  0  0  0
   16.1447  -26.6173  -19.5187 N   0  0  0  0  0  0  0  0  0  0  0  0
   20.1795  -25.1335  -17.4002 O   0  0  0  0  0  0  0  0  0  0  0  0
   20.7932  -28.5578  -20.4601 O   0  0  0  0  0  0  0  0  0  0  0  0
   18.3558  -29.3477  -16.4067 O   0  5  0  0  0  0  0  0  0  0  0  0
   16.1634  -24.2631  -19.1752 N   0  0  0  0  0  0  0  0  0  0  0  0
   20.7779  -26.1148  -19.7145 O   0  0  0  0  0  0  0  0  0  0  0  0
   19.7054  -28.0373  -18.1860 O   0  0  0  0  0  0  0  0  0  0  0  0
   19.4400  -30.6265  -18.2397 O   0  0  0  0  0  0  0  0  0  0  0  0
   15.8853  -23.1611  -18.4682 C   0  0  0  0  0  0  0  0  0  0  0  0
   15.2379  -23.2970  -17.2568 C   0  0  0  0  0  0  0  0  0  0  0  0
   14.8855  -24.5778  -16.7894 C   0  0  0  0  0  0  0  0  0  0  0  0
   14.2260  -24.7479  -15.5593 O   0  0  0  0  0  0  0  0  0  0  0  0
   15.0734  -22.0654  -16.7448 N   0  0  0  0  0  0  0  0  0  0  0  0
   15.5954  -21.2054  -17.6019 C   0  0  0  0  0  0  0  0  0  0  0  0
   16.0864  -21.8460  -18.6463 N   0  0  0  0  0  0  0  0  0  0  0  0
  1  5  1  6  0  0  0
  1 14  1  0  0  0  0
  1 19  2  0  0  0  0
  1 23  1  0  0  0  0
  2 15  1  1  0  0  0
  2 20  2  0  0  0  0
  2 23  1  0  0  0  0
  2 24  1  0  0  0  0
  3 16  1  1  0  0  0
  3 21  1  0  0  0  0
  3 24  1  0  0  0  0
  3 25  2  0  0  0  0
  4  5  1  0  0  0  0
  6  4  1  1  0  0  0
  6  7  1  0  0  0  0
  6  8  1  0  0  0  0
  7 12  1  0  0  0  0
  8  9  1  6  0  0  0
  8 10  1  0  0  0  0
 10 11  1  6  0  0  0
 10 12  1  0  0  0  0
 12 32  1  1  0  0  0
 13 17  2  0  0  0  0
 13 28  1  0  0  0  0
 17 18  1  0  0  0  0
 17 22  1  0  0  0  0
 22 26  2  0  0  0  0
 26 27  1  0  0  0  0
 26 32  1  0  0  0  0
 27 28  2  0  0  0  0
 27 30  1  0  0  0  0
 28 29  1  0  0  0  0
 30 31  2  0  0  0  0
 31 32  1  0  0  0  0
M  CHG  3  14  -1  15  -1  21  -1
M  END
>  <CHROM.1>
-164.48158258,-55.35021459,58.17195141,164.75887162,-176.39698880,-9.72512167
-166.38110205,-50.88235639,18.59806565,-24.98195484,-18.51952395,-1.11157490
0.33144129,-0.27004718

>  <Name>
ligand

>  <RI>
0

>  <Rbt.Current_Directory>
/home/itssahil/PROJECTS/Mol_Feturizer/New_Systems/rnas/4Y1I

>  <Rbt.Executable>
rbdock ($Id: //depot/dev/client3/rdock/2013.1/src/exe/rbdock.cxx#4 $)

>  <Rbt.Library>
libRbt.so (2013.1, Build901 2013/11/27)

>  <Rbt.Parameter_File>
/export/apps/rDock/src/rDock_2013.1_src/data/scripts/dock_solv.prm

>  <Rbt.Receptor>
prm/pocket_docking_5.prm

>  <SCORE>
-5.91371

>  <SCORE.INTER>
-0.121532

>  <SCORE.INTER.CONST>
1

>  <SCORE.INTER.POLAR>
0

>  <SCORE.INTER.ROT>
8

>  <SCORE.INTER.SOLV>
12.9777

>  <SCORE.INTER.VDW>
-13.3403

>  <SCORE.INTER.norm>
-0.00379788

>  <SCORE.INTRA>
-5.79218

>  <SCORE.INTRA.DIHEDRAL>
-8.01299

>  <SCORE.INTRA.DIHEDRAL.0>
10.9594

>  <SCORE.INTRA.POLAR>
0

>  <SCORE.INTRA.POLAR.0>
0

>  <SCORE.INTRA.REPUL>
0

>  <SCORE.INTRA.REPUL.0>
0

>  <SCORE.INTRA.SOLV>
-3.5083

>  <SCORE.INTRA.SOLV.lig_0>
-124.914

>  <SCORE.INTRA.VDW>
-0.0315388

>  <SCORE.INTRA.VDW.0>
-4.69801

>  <SCORE.INTRA.norm>
-0.181006

>  <SCORE.RESTR>
0

>  <SCORE.RESTR.CAVITY>
0

>  <SCORE.RESTR.norm>
0

>  <SCORE.SYSTEM>
0

>  <SCORE.SYSTEM.CONST>
0

>  <SCORE.SYSTEM.DIHEDRAL>
0

>  <SCORE.SYSTEM.SOLV>
0

>  <SCORE.SYSTEM.norm>
0

>  <SCORE.heavy>
32

>  <SCORE.norm>
-0.184804

>  <RMSD>
5.782

$$$$
ligand
 OpenBabel11021811513D
libRbt.so/2013.1/901 2013/11/27
 32 34  0  0  0  0  0  0  0  0999 V2000
   16.5230  -24.9318  -16.1097 P   0  0  1  0  0  0  0  0  0  0  0  0
   15.5368  -24.6904  -13.4264 P   0  0  2  0  0  0  0  0  0  0  0  0
   13.6049  -26.6746  -12.4538 P   0  0  1  0  0  0  0  0  0  0  0  0
   15.7444  -23.5022  -18.1449 C   0  0  0  0  0  0  0  0  0  0  0  0
   15.7687  -23.6162  -16.7504 O   0  0  0  0  0  0  0  0  0  0  0  0
   15.0310  -22.3647  -18.5057 C   0  0  1  0  0  0  0  0  0  0  0  0
   15.7296  -21.1273  -17.9759 O   0  0  0  0  0  0  0  0  0  0  0  0
   14.9774  -22.1906  -20.0929 C   0  0  1  0  0  0  0  0  0  0  0  0
   13.5475  -22.3253  -20.5654 O   0  0  0  0  0  0  0  0  0  0  0  0
   15.3309  -21.0312  -20.3209 C   0  0  1  0  0  0  0  0  0  0  0  0
   14.1318  -20.1741  -20.4803 O   0  0  0  0  0  0  0  0  0  0  0  0
   16.2123  -20.5377  -18.9967 C   0  0  2  0  0  0  0  0  0  0  0  0
   19.6744  -23.9099  -20.7366 N   0  0  0  0  0  0  0  0  0  0  0  0
   15.6488  -26.1509  -16.2695 O   0  5  0  0  0  0  0  0  0  0  0  0
   14.4847  -23.6796  -13.8082 O   0  5  0  0  0  0  0  0  0  0  0  0
   13.9721  -26.4278  -11.0093 O   0  0  0  0  0  0  0  0  0  0  0  0
   18.3543  -23.9850  -20.8028 C   0  0  0  0  0  0  0  0  0  0  0  0
   17.7381  -25.1357  -21.4321 N   0  0  0  0  0  0  0  0  0  0  0  0
   17.8488  -25.1211  -16.8117 O   0  0  0  0  0  0  0  0  0  0  0  0
   16.0892  -24.3542  -12.0661 O   0  0  0  0  0  0  0  0  0  0  0  0
   12.3797  -25.8570  -12.8002 O   0  5  0  0  0  0  0  0  0  0  0  0
   17.5750  -23.0426  -20.3128 N   0  0  0  0  0  0  0  0  0  0  0  0
   16.7712  -24.6633  -14.5082 O   0  0  0  0  0  0  0  0  0  0  0  0
   14.8772  -26.1970  -13.3932 O   0  0  0  0  0  0  0  0  0  0  0  0
   13.3251  -28.1491  -12.6464 O   0  0  0  0  0  0  0  0  0  0  0  0
   18.1040  -21.9635  -19.7235 C   0  0  0  0  0  0  0  0  0  0  0  0
   19.4779  -21.8606  -19.6407 C   0  0  0  0  0  0  0  0  0  0  0  0
   20.2912  -22.8799  -20.1722 C   0  0  0  0  0  0  0  0  0  0  0  0
   21.6935  -22.8028  -20.1033 O   0  0  0  0  0  0  0  0  0  0  0  0
   19.7608  -20.7051  -19.0154 N   0  0  0  0  0  0  0  0  0  0  0  0
   18.6126  -20.1192  -18.7237 C   0  0  0  0  0  0  0  0  0  0  0  0
   17.6045  -20.8629  -19.1397 N   0  0  0  0  0  0  0  0  0  0  0  0
  1  5  1  6  0  0  0
  1 14  1  0  0  0  0
  1 19  2  0  0  0  0
  1 23  1  0  0  0  0
  2 15  1  6  0  0  0
  2 20  2  0  0  0  0
  2 23  1  0  0  0  0
  2 24  1  0  0  0  0
  3 16  1  1  0  0  0
  3 21  1  0  0  0  0
  3 24  1  0  0  0  0
  3 25  2  0  0  0  0
  4  5  1  0  0  0  0
  6  4  1  6  0  0  0
  6  7  1  0  0  0  0
  6  8  1  0  0  0  0
  7 12  1  0  0  0  0
  8  9  1  1  0  0  0
  8 10  1  0  0  0  0
 10 11  1  1  0  0  0
 10 12  1  0  0  0  0
 12 32  1  6  0  0  0
 13 17  2  0  0  0  0
 13 28  1  0  0  0  0
 17 18  1  0  0  0  0
 17 22  1  0  0  0  0
 22 26  2  0  0  0  0
 26 27  1  0  0  0  0
 26 32  1  0  0  0  0
 27 28  2  0  0  0  0
 27 30  1  0  0  0  0
 28 29  1  0  0  0  0
 30 31  2  0  0  0  0
 31 32  1  0  0  0  0
M  CHG  3  14  -1  15  -1  21  -1
M  END
>  <CHROM.1>
-75.71179837,-57.79468506,-57.99803513,62.91720786,177.91393779,83.05945392
72.51515422,-58.55540639,16.23339827,-23.75172847,-16.90844784,-1.99833151
0.25556479,-0.95580762

>  <Name>
ligand

>  <RI>
0

>  <Rbt.Current_Directory>
/home/itssahil/PROJECTS/Mol_Feturizer/New_Systems/rnas/4Y1I

>  <Rbt.Executable>
rbdock ($Id: //depot/dev/client3/rdock/2013.1/src/exe/rbdock.cxx#4 $)

>  <Rbt.Library>
libRbt.so (2013.1, Build901 2013/11/27)

>  <Rbt.Parameter_File>
/export/apps/rDock/src/rDock_2013.1_src/data/scripts/dock_solv.prm

>  <Rbt.Receptor>
prm/pocket_docking_8.prm

>  <SCORE>
-9.22471

>  <SCORE.INTER>
-2.84453

>  <SCORE.INTER.CONST>
1

>  <SCORE.INTER.POLAR>
0

>  <SCORE.INTER.ROT>
8

>  <SCORE.INTER.SOLV>
12.2559

>  <SCORE.INTER.VDW>
-14.915

>  <SCORE.INTER.norm>
-0.0888915

>  <SCORE.INTRA>
-6.38018

>  <SCORE.INTRA.DIHEDRAL>
-9.06414

>  <SCORE.INTRA.DIHEDRAL.0>
10.9594

>  <SCORE.INTRA.POLAR>
0

>  <SCORE.INTRA.POLAR.0>
0

>  <SCORE.INTRA.REPUL>
0

>  <SCORE.INTRA.REPUL.0>
0

>  <SCORE.INTRA.SOLV>
-3.70415

>  <SCORE.INTRA.SOLV.lig_0>
-124.914

>  <SCORE.INTRA.VDW>
0.00395653

>  <SCORE.INTRA.VDW.0>
-4.69801

>  <SCORE.INTRA.norm>
-0.199381

>  <SCORE.RESTR>
0

>  <SCORE.RESTR.CAVITY>
0

>  <SCORE.RESTR.norm>
0

>  <SCORE.SYSTEM>
0

>  <SCORE.SYSTEM.CONST>
0

>  <SCORE.SYSTEM.DIHEDRAL>
0

>  <SCORE.SYSTEM.SOLV>
0

>  <SCORE.SYSTEM.norm>
0

>  <SCORE.heavy>
32

>  <SCORE.norm>
-0.288272

>  <RMSD>
5.784

$$$$
ligand
 OpenBabel11021811513D
libRbt.so/2013.1/901 2013/11/27
 32 34  0  0  0  0  0  0  0  0999 V2000
   18.9819  -24.0802  -22.2631 P   0  0  1  0  0  0  0  0  0  0  0  0
   17.1059  -25.7786  -20.9113 P   0  0  2  0  0  0  0  0  0  0  0  0
   17.0545  -25.8054  -17.9767 P   0  0  1  0  0  0  0  0  0  0  0  0
   20.0738  -22.1514  -20.8923 C   0  0  0  0  0  0  0  0  0  0  0  0
   19.5437  -22.5387  -22.1281 O   0  0  0  0  0  0  0  0  0  0  0  0
   20.3696  -20.7931  -20.9188 C   0  0  1  0  0  0  0  0  0  0  0  0
   19.1223  -19.9995  -21.2573 O   0  0  0  0  0  0  0  0  0  0  0  0
   20.8428  -20.2726  -19.4845 C   0  0  1  0  0  0  0  0  0  0  0  0
   22.2847  -19.8243  -19.5630 O   0  0  0  0  0  0  0  0  0  0  0  0
   20.1613  -19.2736  -19.2422 C   0  0  1  0  0  0  0  0  0  0  0  0
   20.9243  -18.0570  -19.6102 O   0  0  0  0  0  0  0  0  0  0  0  0
   18.7937  -19.3957  -20.1850 C   0  0  2  0  0  0  0  0  0  0  0  0
   13.7502  -20.2825  -19.7829 N   0  0  0  0  0  0  0  0  0  0  0  0
   18.2774  -24.2539  -23.5858 O   0  5  0  0  0  0  0  0  0  0  0  0
   18.0704  -26.9333  -21.0134 O   0  5  0  0  0  0  0  0  0  0  0  0
   15.9690  -25.8434  -16.9267 O   0  0  0  0  0  0  0  0  0  0  0  0
   14.3719  -19.4545  -20.6078 C   0  0  0  0  0  0  0  0  0  0  0  0
   13.5953  -18.6665  -21.5436 N   0  0  0  0  0  0  0  0  0  0  0  0
   20.1485  -25.0345  -22.1422 O   0  0  0  0  0  0  0  0  0  0  0  0
   16.0949  -25.8658  -22.0244 O   0  0  0  0  0  0  0  0  0  0  0  0
   17.9362  -27.0255  -17.8223 O   0  5  0  0  0  0  0  0  0  0  0  0
   15.6825  -19.3209  -20.6078 N   0  0  0  0  0  0  0  0  0  0  0  0
   17.9079  -24.3530  -21.0503 O   0  0  0  0  0  0  0  0  0  0  0  0
   16.3303  -25.8258  -19.4614 O   0  0  0  0  0  0  0  0  0  0  0  0
   17.8685  -24.5424  -17.7989 O   0  0  0  0  0  0  0  0  0  0  0  0
   16.4365  -20.0301  -19.7592 C   0  0  0  0  0  0  0  0  0  0  0  0
   15.8134  -20.9005  -18.8879 C   0  0  0  0  0  0  0  0  0  0  0  0
   14.4110  -21.0275  -18.9064 C   0  0  0  0  0  0  0  0  0  0  0  0
   13.7480  -21.9061  -18.0315 O   0  0  0  0  0  0  0  0  0  0  0  0
   16.7697  -21.4879  -18.1487 N   0  0  0  0  0  0  0  0  0  0  0  0
   17.9332  -21.0020  -18.5448 C   0  0  0  0  0  0  0  0  0  0  0  0
   17.7526  -20.1214  -19.5114 N   0  0  0  0  0  0  0  0  0  0  0  0
  1  5  1  1  0  0  0
  1 14  1  0  0  0  0
  1 19  2  0  0  0  0
  1 23  1  0  0  0  0
  2 15  1  6  0  0  0
  2 20  2  0  0  0  0
  2 23  1  0  0  0  0
  2 24  1  0  0  0  0
  3 16  1  1  0  0  0
  3 21  1  0  0  0  0
  3 24  1  0  0  0  0
  3 25  2  0  0  0  0
  4  5  1  0  0  0  0
  6  4  1  1  0  0  0
  6  7  1  0  0  0  0
  6  8  1  0  0  0  0
  7 12  1  0  0  0  0
  8  9  1  6  0  0  0
  8 10  1  0  0  0  0
 10 11  1  6  0  0  0
 10 12  1  0  0  0  0
 12 32  1  1  0  0  0
 13 17  2  0  0  0  0
 13 28  1  0  0  0  0
 17 18  1  0  0  0  0
 17 22  1  0  0  0  0
 22 26  2  0  0  0  0
 26 27  1  0  0  0  0
 26 32  1  0  0  0  0
 27 28  2  0  0  0  0
 27 30  1  0  0  0  0
 28 29  1  0  0  0  0
 30 31  2  0  0  0  0
 31 32  1  0  0  0  0
M  CHG  3  14  -1  15  -1  21  -1
M  END
>  <CHROM.1>
171.99531549,48.99225976,179.20532880,57.38663139,-173.95842804,-84.56258348
177.72198040,57.61904387,17.68342264,-22.67244961,-20.07672671,-1.72124276
0.34779023,0.02305724

>  <Name>
ligand

>  <RI>
0

>  <Rbt.Current_Directory>
/home/itssahil/PROJECTS/Mol_Feturizer/New_Systems/rnas/4Y1I

>  <Rbt.Executable>
rbdock ($Id: //depot/dev/client3/rdock/2013.1/src/exe/rbdock.cxx#4 $)

>  <Rbt.Library>
libRbt.so (2013.1, Build901 2013/11/27)

>  <Rbt.Parameter_File>
/export/apps/rDock/src/rDock_2013.1_src/data/scripts/dock_solv.prm

>  <Rbt.Receptor>
prm/pocket_docking_6.prm

>  <SCORE>
-7.66437

>  <SCORE.INTER>
-1.47677

>  <SCORE.INTER.CONST>
1

>  <SCORE.INTER.POLAR>
0

>  <SCORE.INTER.ROT>
8

>  <SCORE.INTER.SOLV>
5.777

>  <SCORE.INTER.VDW>
-11.8435

>  <SCORE.INTER.norm>
-0.046149

>  <SCORE.INTRA>
-6.1876

>  <SCORE.INTRA.DIHEDRAL>
-9.25873

>  <SCORE.INTRA.DIHEDRAL.0>
10.9594

>  <SCORE.INTRA.POLAR>
0

>  <SCORE.INTRA.POLAR.0>
0

>  <SCORE.INTRA.REPUL>
0

>  <SCORE.INTRA.REPUL.0>
0

>  <SCORE.INTRA.SOLV>
-2.38468

>  <SCORE.INTRA.SOLV.lig_0>
-124.914

>  <SCORE.INTRA.VDW>
-0.365891

>  <SCORE.INTRA.VDW.0>
-4.69801

>  <SCORE.INTRA.norm>
-0.193362

>  <SCORE.RESTR>
0

>  <SCORE.RESTR.CAVITY>
0

>  <SCORE.RESTR.norm>
0

>  <SCORE.SYSTEM>
0

>  <SCORE.SYSTEM.CONST>
0

>  <SCORE.SYSTEM.DIHEDRAL>
0

>  <SCORE.SYSTEM.SOLV>
0

>  <SCORE.SYSTEM.norm>
0

>  <SCORE.heavy>
32

>  <SCORE.norm>
-0.239511

>  <RMSD>
5.796

$$$$
ligand
 OpenBabel11021811513D
libRbt.so/2013.1/901 2013/11/27
 32 34  0  0  0  0  0  0  0  0999 V2000
   14.9369  -22.1999  -18.3554 P   0  0  1  0  0  0  0  0  0  0  0  0
   15.0226  -25.0415  -17.9693 P   0  0  2  0  0  0  0  0  0  0  0  0
   15.4576  -26.3481  -15.3772 P   0  0  1  0  0  0  0  0  0  0  0  0
   17.0623  -20.8814  -19.0872 C   0  0  0  0  0  0  0  0  0  0  0  0
   16.5347  -21.8325  -18.2069 O   0  0  0  0  0  0  0  0  0  0  0  0
   18.4206  -20.7202  -18.8377 C   0  0  1  0  0  0  0  0  0  0  0  0
   19.0475  -22.0610  -18.5073 O   0  0  0  0  0  0  0  0  0  0  0  0
   19.1902  -20.1847  -20.1312 C   0  0  1  0  0  0  0  0  0  0  0  0
   19.7392  -18.8035  -19.8536 O   0  0  0  0  0  0  0  0  0  0  0  0
   20.1546  -20.9371  -20.2901 C   0  0  1  0  0  0  0  0  0  0  0  0
   21.3601  -20.3264  -19.6805 O   0  0  0  0  0  0  0  0  0  0  0  0
   19.7779  -22.3583  -19.5077 C   0  0  2  0  0  0  0  0  0  0  0  0
   18.6813  -27.2558  -20.6019 N   0  0  0  0  0  0  0  0  0  0  0  0
   14.0990  -21.0556  -17.8409 O   0  5  0  0  0  0  0  0  0  0  0  0
   16.4967  -25.1126  -18.2796 O   0  5  0  0  0  0  0  0  0  0  0  0
   16.8658  -26.7864  -15.7045 O   0  0  0  0  0  0  0  0  0  0  0  0
   19.4427  -26.7864  -19.6258 C   0  0  0  0  0  0  0  0  0  0  0  0
   20.0793  -27.7134  -18.7121 N   0  0  0  0  0  0  0  0  0  0  0  0
   14.6360  -22.4790  -19.8106 O   0  0  0  0  0  0  0  0  0  0  0  0
   14.2300  -25.3439  -19.2139 O   0  0  0  0  0  0  0  0  0  0  0  0
   15.5095  -25.0399  -14.6185 O   0  5  0  0  0  0  0  0  0  0  0  0
   19.6433  -25.4956  -19.4549 N   0  0  0  0  0  0  0  0  0  0  0  0
   14.6218  -23.5358  -17.4527 O   0  0  0  0  0  0  0  0  0  0  0  0
   14.6451  -26.1350  -16.7998 O   0  0  0  0  0  0  0  0  0  0  0  0
   14.7910  -27.4166  -14.5385 O   0  0  0  0  0  0  0  0  0  0  0  0
   19.0738  -24.6060  -20.2770 C   0  0  0  0  0  0  0  0  0  0  0  0
   18.2755  -25.0689  -21.3034 C   0  0  0  0  0  0  0  0  0  0  0  0
   18.0746  -26.4531  -21.4665 C   0  0  0  0  0  0  0  0  0  0  0  0
   17.2664  -26.9545  -22.5020 O   0  0  0  0  0  0  0  0  0  0  0  0
   17.8250  -23.9989  -21.9805 N   0  0  0  0  0  0  0  0  0  0  0  0
   18.3232  -22.9216  -21.3990 C   0  0  0  0  0  0  0  0  0  0  0  0
   19.0792  -23.2672  -20.3737 N   0  0  0  0  0  0  0  0  0  0  0  0
  1  5  1  1  0  0  0
  1 14  1  0  0  0  0
  1 19  2  0  0  0  0
  1 23  1  0  0  0  0
  2 15  1  6  0  0  0
  2 20  2  0  0  0  0
  2 23  1  0  0  0  0
  2 24  1  0  0  0  0
  3 16  1  6  0  0  0
  3 21  1  0  0  0  0
  3 24  1  0  0  0  0
  3 25  2  0  0  0  0
  4  5  1  0  0  0  0
  6  4  1  6  0  0  0
  6  7  1  0  0  0  0
  6  8  1  0  0  0  0
  7 12  1  0  0  0  0
  8  9  1  1  0  0  0
  8 10  1  0  0  0  0
 10 11  1  1  0  0  0
 10 12  1  0  0  0  0
 12 32  1  6  0  0  0
 13 17  2  0  0  0  0
 13 28  1  0  0  0  0
 17 18  1  0  0  0  0
 17 22  1  0  0  0  0
 22 26  2  0  0  0  0
 26 27  1  0  0  0  0
 26 32  1  0  0  0  0
 27 28  2  0  0  0  0
 27 30  1  0  0  0  0
 28 29  1  0  0  0  0
 30 31  2  0  0  0  0
 31 32  1  0  0  0  0
M  CHG  3  14  -1  15  -1  21  -1
M  END
>  <CHROM.1>
-72.72876801,56.12869318,-62.50409152,38.24692152,-178.69480561,-87.89981905
-77.73450453,48.23645791,17.12556589,-23.96174806,-18.72719233,2.41978086
-0.72625498,3.10551853

>  <Name>
ligand

>  <RI>
0

>  <Rbt.Current_Directory>
/home/itssahil/PROJECTS/Mol_Feturizer/New_Systems/rnas/4Y1I

>  <Rbt.Executable>
rbdock ($Id: //depot/dev/client3/rdock/2013.1/src/exe/rbdock.cxx#4 $)

>  <Rbt.Library>
libRbt.so (2013.1, Build901 2013/11/27)

>  <Rbt.Parameter_File>
/export/apps/rDock/src/rDock_2013.1_src/data/scripts/dock_solv.prm

>  <Rbt.Receptor>
prm/pocket_docking_4.prm

>  <SCORE>
-3.09017

>  <SCORE.INTER>
2.96243

>  <SCORE.INTER.CONST>
1

>  <SCORE.INTER.POLAR>
0

>  <SCORE.INTER.ROT>
8

>  <SCORE.INTER.SOLV>
7.34444

>  <SCORE.INTER.VDW>
-9.40652

>  <SCORE.INTER.norm>
0.092576

>  <SCORE.INTRA>
-6.0526

>  <SCORE.INTRA.DIHEDRAL>
-7.25793

>  <SCORE.INTRA.DIHEDRAL.0>
10.9594

>  <SCORE.INTRA.POLAR>
0

>  <SCORE.INTRA.POLAR.0>
0

>  <SCORE.INTRA.REPUL>
0.0178777

>  <SCORE.INTRA.REPUL.0>
0

>  <SCORE.INTRA.SOLV>
-3.20831

>  <SCORE.INTRA.SOLV.lig_0>
-124.914

>  <SCORE.INTRA.VDW>
-0.908862

>  <SCORE.INTRA.VDW.0>
-4.69801

>  <SCORE.INTRA.norm>
-0.189144

>  <SCORE.RESTR>
0

>  <SCORE.RESTR.CAVITY>
0

>  <SCORE.RESTR.norm>
0

>  <SCORE.SYSTEM>
0

>  <SCORE.SYSTEM.CONST>
0

>  <SCORE.SYSTEM.DIHEDRAL>
0

>  <SCORE.SYSTEM.SOLV>
0

>  <SCORE.SYSTEM.norm>
0

>  <SCORE.heavy>
32

>  <SCORE.norm>
-0.0965677

>  <RMSD>
5.798

$$$$
ligand
 OpenBabel11021811513D
libRbt.so/2013.1/901 2013/11/27
 32 34  0  0  0  0  0  0  0  0999 V2000
   14.7421  -22.8995  -17.5087 P   0  0  1  0  0  0  0  0  0  0  0  0
   13.5472  -24.7754  -15.6964 P   0  0  2  0  0  0  0  0  0  0  0  0
   16.0575  -26.2940  -15.6102 P   0  0  1  0  0  0  0  0  0  0  0  0
   16.3156  -23.9137  -19.3217 C   0  0  0  0  0  0  0  0  0  0  0  0
   15.9229  -23.9458  -17.9790 O   0  0  0  0  0  0  0  0  0  0  0  0
   16.9787  -22.7199  -19.5835 C   0  0  1  0  0  0  0  0  0  0  0  0
   17.8934  -22.3725  -18.4249 O   0  0  0  0  0  0  0  0  0  0  0  0
   17.9250  -22.8487  -20.8641 C   0  0  1  0  0  0  0  0  0  0  0  0
   17.4169  -21.9374  -21.9584 O   0  0  0  0  0  0  0  0  0  0  0  0
   19.0292  -22.4233  -20.5164 C   0  0  1  0  0  0  0  0  0  0  0  0
   19.1607  -21.0046  -20.9262 O   0  0  0  0  0  0  0  0  0  0  0  0
   19.0797  -22.5441  -18.8560 C   0  0  2  0  0  0  0  0  0  0  0  0
   23.1352  -25.6793  -18.5264 N   0  0  0  0  0  0  0  0  0  0  0  0
   15.2906  -21.4947  -17.4660 O   0  5  0  0  0  0  0  0  0  0  0  0
   12.2209  -24.8810  -16.4064 O   0  5  0  0  0  0  0  0  0  0  0  0
   16.8526  -25.0096  -15.6340 O   0  0  0  0  0  0  0  0  0  0  0  0
   23.0845  -24.4581  -19.0351 C   0  0  0  0  0  0  0  0  0  0  0  0
   24.2871  -23.8669  -19.5865 N   0  0  0  0  0  0  0  0  0  0  0  0
   13.5885  -23.0003  -18.4810 O   0  0  0  0  0  0  0  0  0  0  0  0
   13.3351  -24.8990  -14.2103 O   0  0  0  0  0  0  0  0  0  0  0  0
   15.9462  -26.7815  -14.1821 O   0  5  0  0  0  0  0  0  0  0  0  0
   21.9701  -23.7559  -19.0577 N   0  0  0  0  0  0  0  0  0  0  0  0
   14.2417  -23.3196  -16.0015 O   0  0  0  0  0  0  0  0  0  0  0  0
   14.5512  -25.9736  -16.2084 O   0  0  0  0  0  0  0  0  0  0  0  0
   16.7613  -27.3254  -16.4648 O   0  0  0  0  0  0  0  0  0  0  0  0
   20.8373  -24.2652  -18.5589 C   0  0  0  0  0  0  0  0  0  0  0  0
   20.8624  -25.5369  -18.0228 C   0  0  0  0  0  0  0  0  0  0  0  0
   22.0654  -26.2687  -18.0086 C   0  0  0  0  0  0  0  0  0  0  0  0
   22.1222  -27.5658  -17.4689 O   0  0  0  0  0  0  0  0  0  0  0  0
   19.6209  -25.8201  -17.5931 N   0  0  0  0  0  0  0  0  0  0  0  0
   18.8610  -24.7703  -17.8525 C   0  0  0  0  0  0  0  0  0  0  0  0
   19.5749  -23.8257  -18.4359 N   0  0  0  0  0  0  0  0  0  0  0  0
  1  5  1  6  0  0  0
  1 14  1  0  0  0  0
  1 19  2  0  0  0  0
  1 23  1  0  0  0  0
  2 15  1  6  0  0  0
  2 20  2  0  0  0  0
  2 23  1  0  0  0  0
  2 24  1  0  0  0  0
  3 16  1  6  0  0  0
  3 21  1  0  0  0  0
  3 24  1  0  0  0  0
  3 25  2  0  0  0  0
  4  5  1  0  0  0  0
  6  4  1  1  0  0  0
  6  7  1  0  0  0  0
  6  8  1  0  0  0  0
  7 12  1  0  0  0  0
  8  9  1  6  0  0  0
  8 10  1  0  0  0  0
 10 11  1  1  0  0  0
 10 12  1  0  0  0  0
 12 32  1  6  0  0  0
 13 17  2  0  0  0  0
 13 28  1  0  0  0  0
 17 18  1  0  0  0  0
 17 22  1  0  0  0  0
 22 26  2  0  0  0  0
 26 27  1  0  0  0  0
 26 32  1  0  0  0  0
 27 28  2  0  0  0  0
 27 30  1  0  0  0  0
 28 29  1  0  0  0  0
 30 31  2  0  0  0  0
 31 32  1  0  0  0  0
M  CHG  3  14  -1  15  -1  21  -1
M  END
>  <CHROM.1>
-72.40075279,-65.67250138,-52.06746222,40.65251522,68.70297775,-170.76984434
-62.32978420,-175.23030605,17.43969021,-24.29184794,-17.72583329,2.85893657
-0.26549708,2.38943294

>  <Name>
ligand

>  <RI>
0

>  <Rbt.Current_Directory>
/home/itssahil/PROJECTS/Mol_Feturizer/New_Systems/rnas/4Y1I

>  <Rbt.Executable>
rbdock ($Id: //depot/dev/client3/rdock/2013.1/src/exe/rbdock.cxx#4 $)

>  <Rbt.Library>
libRbt.so (2013.1, Build901 2013/11/27)

>  <Rbt.Parameter_File>
/export/apps/rDock/src/rDock_2013.1_src/data/scripts/dock_solv.prm

>  <Rbt.Receptor>
prm/pocket_docking_4.prm

>  <SCORE>
-6.83004

>  <SCORE.INTER>
-1.05561

>  <SCORE.INTER.CONST>
1

>  <SCORE.INTER.POLAR>
0

>  <SCORE.INTER.ROT>
8

>  <SCORE.INTER.SOLV>
9.0923

>  <SCORE.INTER.VDW>
-12.6678

>  <SCORE.INTER.norm>
-0.0329878

>  <SCORE.INTRA>
-5.7754

>  <SCORE.INTRA.DIHEDRAL>
-7.74224

>  <SCORE.INTRA.DIHEDRAL.0>
10.9594

>  <SCORE.INTRA.POLAR>
0

>  <SCORE.INTRA.POLAR.0>
0

>  <SCORE.INTRA.REPUL>
0

>  <SCORE.INTRA.REPUL.0>
0

>  <SCORE.INTRA.SOLV>
-1.76814

>  <SCORE.INTRA.SOLV.lig_0>
-124.914

>  <SCORE.INTRA.VDW>
-1.02021

>  <SCORE.INTRA.VDW.0>
-4.69801

>  <SCORE.INTRA.norm>
-0.180481

>  <SCORE.RESTR>
0.00097002

>  <SCORE.RESTR.CAVITY>
0.00097002

>  <SCORE.RESTR.norm>
3.03131e-05

>  <SCORE.SYSTEM>
0

>  <SCORE.SYSTEM.CONST>
0

>  <SCORE.SYSTEM.DIHEDRAL>
0

>  <SCORE.SYSTEM.SOLV>
0

>  <SCORE.SYSTEM.norm>
0

>  <SCORE.heavy>
32

>  <SCORE.norm>
-0.213439

>  <RMSD>
5.800

$$$$
ligand
 OpenBabel11021811513D
libRbt.so/2013.1/901 2013/11/27
 32 34  0  0  0  0  0  0  0  0999 V2000
   14.6985  -23.2288  -16.2040 P   0  0  1  0  0  0  0  0  0  0  0  0
   15.7390  -25.8594  -15.7260 P   0  0  2  0  0  0  0  0  0  0  0  0
   15.7568  -26.8042  -12.9471 P   0  0  1  0  0  0  0  0  0  0  0  0
   15.3934  -21.9853  -18.3862 C   0  0  0  0  0  0  0  0  0  0  0  0
   15.1573  -21.8698  -17.0119 O   0  0  0  0  0  0  0  0  0  0  0  0
   15.8815  -20.7794  -18.8768 C   0  0  1  0  0  0  0  0  0  0  0  0
   17.1957  -20.4406  -18.2002 O   0  0  0  0  0  0  0  0  0  0  0  0
   16.2056  -20.8749  -20.4382 C   0  0  1  0  0  0  0  0  0  0  0  0
   15.2827  -19.9513  -21.2007 O   0  0  0  0  0  0  0  0  0  0  0  0
   17.3524  -20.4421  -20.5756 C   0  0  1  0  0  0  0  0  0  0  0  0
   17.2948  -19.0151  -20.9736 O   0  0  0  0  0  0  0  0  0  0  0  0
   18.0934  -20.5904  -19.0914 C   0  0  2  0  0  0  0  0  0  0  0  0
   22.4750  -23.2648  -19.2781 N   0  0  0  0  0  0  0  0  0  0  0  0
   14.6351  -22.9468  -14.7232 O   0  5  0  0  0  0  0  0  0  0  0  0
   16.7770  -26.7947  -16.2935 O   0  5  0  0  0  0  0  0  0  0  0  0
   16.1608  -26.2091  -11.6185 O   0  0  0  0  0  0  0  0  0  0  0  0
   22.2948  -21.9730  -19.5054 C   0  0  0  0  0  0  0  0  0  0  0  0
   23.4325  -21.1471  -19.8561 N   0  0  0  0  0  0  0  0  0  0  0  0
   13.3517  -23.6739  -16.7279 O   0  0  0  0  0  0  0  0  0  0  0  0
   14.3651  -26.4345  -15.9506 O   0  0  0  0  0  0  0  0  0  0  0  0
   14.2936  -27.1860  -12.8946 O   0  5  0  0  0  0  0  0  0  0  0  0
   21.1076  -21.4077  -19.4232 N   0  0  0  0  0  0  0  0  0  0  0  0
   15.8185  -24.4000  -16.4734 O   0  0  0  0  0  0  0  0  0  0  0  0
   15.9918  -25.6577  -14.1131 O   0  0  0  0  0  0  0  0  0  0  0  0
   16.6092  -28.0240  -13.2206 O   0  0  0  0  0  0  0  0  0  0  0  0
   20.0308  -22.1351  -19.1023 C   0  0  0  0  0  0  0  0  0  0  0  0
   20.1909  -23.4846  -18.8607 C   0  0  0  0  0  0  0  0  0  0  0  0
   21.4696  -24.0672  -18.9536 C   0  0  0  0  0  0  0  0  0  0  0  0
   21.6640  -25.4387  -18.7127 O   0  0  0  0  0  0  0  0  0  0  0  0
   18.9816  -23.9891  -18.5622 N   0  0  0  0  0  0  0  0  0  0  0  0
   18.1116  -22.9958  -18.6172 C   0  0  0  0  0  0  0  0  0  0  0  0
   18.7240  -21.8729  -18.9433 N   0  0  0  0  0  0  0  0  0  0  0  0
  1  5  1  6  0  0  0
  1 14  1  0  0  0  0
  1 19  2  0  0  0  0
  1 23  1  0  0  0  0
  2 15  1  6  0  0  0
  2 20  2  0  0  0  0
  2 23  1  0  0  0  0
  2 24  1  0  0  0  0
  3 16  1  1  0  0  0
  3 21  1  0  0  0  0
  3 24  1  0  0  0  0
  3 25  2  0  0  0  0
  4  5  1  0  0  0  0
  6  4  1  1  0  0  0
  6  7  1  0  0  0  0
  6  8  1  0  0  0  0
  7 12  1  0  0  0  0
  8  9  1  6  0  0  0
  8 10  1  0  0  0  0
 10 11  1  1  0  0  0
 10 12  1  0  0  0  0
 12 32  1  6  0  0  0
 13 17  2  0  0  0  0
 13 28  1  0  0  0  0
 17 18  1  0  0  0  0
 17 22  1  0  0  0  0
 22 26  2  0  0  0  0
 26 27  1  0  0  0  0
 26 32  1  0  0  0  0
 27 28  2  0  0  0  0
 27 30  1  0  0  0  0
 28 29  1  0  0  0  0
 30 31  2  0  0  0  0
 31 32  1  0  0  0  0
M  CHG  3  14  -1  15  -1  21  -1
M  END
>  <CHROM.1>
173.95528871,172.44221650,177.84556779,61.40151897,-174.79015080,-141.04536739
175.27511985,-69.64415214,17.17477366,-23.55360894,-17.17567650,2.09392352
-0.25160636,2.40680740

>  <Name>
ligand

>  <RI>
0

>  <Rbt.Current_Directory>
/home/itssahil/PROJECTS/Mol_Feturizer/New_Systems/rnas/4Y1I

>  <Rbt.Executable>
rbdock ($Id: //depot/dev/client3/rdock/2013.1/src/exe/rbdock.cxx#4 $)

>  <Rbt.Library>
libRbt.so (2013.1, Build901 2013/11/27)

>  <Rbt.Parameter_File>
/export/apps/rDock/src/rDock_2013.1_src/data/scripts/dock_solv.prm

>  <Rbt.Receptor>
prm/pocket_docking_7.prm

>  <SCORE>
-12.4506

>  <SCORE.INTER>
-6.76906

>  <SCORE.INTER.CONST>
1

>  <SCORE.INTER.POLAR>
0

>  <SCORE.INTER.ROT>
8

>  <SCORE.INTER.SOLV>
13.3365

>  <SCORE.INTER.VDW>
-17.8916

>  <SCORE.INTER.norm>
-0.211533

>  <SCORE.INTRA>
-5.68153

>  <SCORE.INTRA.DIHEDRAL>
-9.2434

>  <SCORE.INTRA.DIHEDRAL.0>
10.9594

>  <SCORE.INTRA.POLAR>
0

>  <SCORE.INTRA.POLAR.0>
0

>  <SCORE.INTRA.REPUL>
0

>  <SCORE.INTRA.REPUL.0>
0

>  <SCORE.INTRA.SOLV>
-2.81122

>  <SCORE.INTRA.SOLV.lig_0>
-124.914

>  <SCORE.INTRA.VDW>
0.345783

>  <SCORE.INTRA.VDW.0>
-4.69801

>  <SCORE.INTRA.norm>
-0.177548

>  <SCORE.RESTR>
0

>  <SCORE.RESTR.CAVITY>
0

>  <SCORE.RESTR.norm>
0

>  <SCORE.SYSTEM>
0

>  <SCORE.SYSTEM.CONST>
0

>  <SCORE.SYSTEM.DIHEDRAL>
0

>  <SCORE.SYSTEM.SOLV>
0

>  <SCORE.SYSTEM.norm>
0

>  <SCORE.heavy>
32

>  <SCORE.norm>
-0.389081

>  <RMSD>
5.811

$$$$
ligand
 OpenBabel11021811513D
libRbt.so/2013.1/901 2013/11/27
 32 34  0  0  0  0  0  0  0  0999 V2000
   15.7941  -24.8590  -16.0865 P   0  0  1  0  0  0  0  0  0  0  0  0
   17.9247  -25.9830  -17.6448 P   0  0  2  0  0  0  0  0  0  0  0  0
   17.6119  -25.8706  -20.5611 P   0  0  1  0  0  0  0  0  0  0  0  0
   15.3788  -23.1958  -18.0494 C   0  0  0  0  0  0  0  0  0  0  0  0
   15.3848  -23.3716  -16.6612 O   0  0  0  0  0  0  0  0  0  0  0  0
   15.1193  -21.8628  -18.3478 C   0  0  1  0  0  0  0  0  0  0  0  0
   16.2064  -20.9818  -17.7630 O   0  0  0  0  0  0  0  0  0  0  0  0
   15.1472  -21.6034  -19.9239 C   0  0  1  0  0  0  0  0  0  0  0  0
   13.7675  -21.1982  -20.3912 O   0  0  0  0  0  0  0  0  0  0  0  0
   15.8916  -20.6353  -20.0971 C   0  0  1  0  0  0  0  0  0  0  0  0
   15.0766  -19.4016  -20.2044 O   0  0  0  0  0  0  0  0  0  0  0  0
   16.8773  -20.5526  -18.7571 C   0  0  2  0  0  0  0  0  0  0  0  0
   21.9493  -20.5584  -19.5694 N   0  0  0  0  0  0  0  0  0  0  0  0
   15.5422  -24.9203  -14.6003 O   0  5  0  0  0  0  0  0  0  0  0  0
   17.5724  -27.4380  -17.4622 O   0  5  0  0  0  0  0  0  0  0  0  0
   19.0945  -25.6583  -20.7588 O   0  0  0  0  0  0  0  0  0  0  0  0
   21.1379  -19.5170  -19.4708 C   0  0  0  0  0  0  0  0  0  0  0  0
   21.6794  -18.1790  -19.5976 N   0  0  0  0  0  0  0  0  0  0  0  0
   14.9794  -25.9027  -16.8167 O   0  0  0  0  0  0  0  0  0  0  0  0
   19.4207  -25.8340  -17.7374 O   0  0  0  0  0  0  0  0  0  0  0  0
   17.2922  -27.3377  -20.7480 O   0  5  0  0  0  0  0  0  0  0  0  0
   19.8449  -19.6557  -19.2595 N   0  0  0  0  0  0  0  0  0  0  0  0
   17.3947  -25.1040  -16.3637 O   0  0  0  0  0  0  0  0  0  0  0  0
   17.2305  -25.4092  -19.0213 O   0  0  0  0  0  0  0  0  0  0  0  0
   16.8552  -25.0347  -21.5700 O   0  0  0  0  0  0  0  0  0  0  0  0
   19.3047  -20.8742  -19.1367 C   0  0  0  0  0  0  0  0  0  0  0  0
   20.1285  -21.9772  -19.2360 C   0  0  0  0  0  0  0  0  0  0  0  0
   21.5078  -21.8047  -19.4613 C   0  0  0  0  0  0  0  0  0  0  0  0
   22.3720  -22.9088  -19.5664 O   0  0  0  0  0  0  0  0  0  0  0  0
   19.3625  -23.0705  -19.0805 N   0  0  0  0  0  0  0  0  0  0  0  0
   18.1195  -22.6619  -18.8938 C   0  0  0  0  0  0  0  0  0  0  0  0
   18.0647  -21.3435  -18.9270 N   0  0  0  0  0  0  0  0  0  0  0  0
  1  5  1  6  0  0  0
  1 14  1  0  0  0  0
  1 19  2  0  0  0  0
  1 23  1  0  0  0  0
  2 15  1  1  0  0  0
  2 20  2  0  0  0  0
  2 23  1  0  0  0  0
  2 24  1  0  0  0  0
  3 16  1  6  0  0  0
  3 21  1  0  0  0  0
  3 24  1  0  0  0  0
  3 25  2  0  0  0  0
  4  5  1  0  0  0  0
  6  4  1  6  0  0  0
  6  7  1  0  0  0  0
  6  8  1  0  0  0  0
  7 12  1  0  0  0  0
  8  9  1  1  0  0  0
  8 10  1  0  0  0  0
 10 11  1  1  0  0  0
 10 12  1  0  0  0  0
 12 32  1  6  0  0  0
 13 17  2  0  0  0  0
 13 28  1  0  0  0  0
 17 18  1  0  0  0  0
 17 22  1  0  0  0  0
 22 26  2  0  0  0  0
 26 27  1  0  0  0  0
 26 32  1  0  0  0  0
 27 28  2  0  0  0  0
 27 30  1  0  0  0  0
 28 29  1  0  0  0  0
 30 31  2  0  0  0  0
 31 32  1  0  0  0  0
M  CHG  3  14  -1  15  -1  21  -1
M  END
>  <CHROM.1>
-171.36334178,-68.94283050,-55.52103977,61.23182154,-175.19224599,-133.71764575
-98.87302733,-66.75029049,17.64540615,-23.33747655,-18.70878370,2.12071634
-0.28003875,2.96842947

>  <Name>
ligand

>  <RI>
0

>  <Rbt.Current_Directory>
/home/itssahil/PROJECTS/Mol_Feturizer/New_Systems/rnas/4Y1I

>  <Rbt.Executable>
rbdock ($Id: //depot/dev/client3/rdock/2013.1/src/exe/rbdock.cxx#4 $)

>  <Rbt.Library>
libRbt.so (2013.1, Build901 2013/11/27)

>  <Rbt.Parameter_File>
/export/apps/rDock/src/rDock_2013.1_src/data/scripts/dock_solv.prm

>  <Rbt.Receptor>
prm/pocket_docking_4.prm

>  <SCORE>
-11.1873

>  <SCORE.INTER>
-4.27459

>  <SCORE.INTER.CONST>
1

>  <SCORE.INTER.POLAR>
0

>  <SCORE.INTER.ROT>
8

>  <SCORE.INTER.SOLV>
11.8877

>  <SCORE.INTER.VDW>
-15.7456

>  <SCORE.INTER.norm>
-0.133581

>  <SCORE.INTRA>
-6.91553

>  <SCORE.INTRA.DIHEDRAL>
-7.47599

>  <SCORE.INTRA.DIHEDRAL.0>
10.9594

>  <SCORE.INTRA.POLAR>
0

>  <SCORE.INTRA.POLAR.0>
0

>  <SCORE.INTRA.REPUL>
0

>  <SCORE.INTRA.REPUL.0>
0

>  <SCORE.INTRA.SOLV>
-2.88684

>  <SCORE.INTRA.SOLV.lig_0>
-124.914

>  <SCORE.INTRA.VDW>
-1.73412

>  <SCORE.INTRA.VDW.0>
-4.69801

>  <SCORE.INTRA.norm>
-0.21611

>  <SCORE.RESTR>
0.0028081

>  <SCORE.RESTR.CAVITY>
0.0028081

>  <SCORE.RESTR.norm>
8.77531e-05

>  <SCORE.SYSTEM>
0

>  <SCORE.SYSTEM.CONST>
0

>  <SCORE.SYSTEM.DIHEDRAL>
0

>  <SCORE.SYSTEM.SOLV>
0

>  <SCORE.SYSTEM.norm>
0

>  <SCORE.heavy>
32

>  <SCORE.norm>
-0.349604

>  <RMSD>
5.817

$$$$
ligand
 OpenBabel11021811513D
libRbt.so/2013.1/901 2013/11/27
 32 34  0  0  0  0  0  0  0  0999 V2000
   14.4887  -22.8625  -16.2483 P   0  0  1  0  0  0  0  0  0  0  0  0
   15.8482  -25.2312  -15.3699 P   0  0  2  0  0  0  0  0  0  0  0  0
   14.6101  -26.8613  -13.2663 P   0  0  1  0  0  0  0  0  0  0  0  0
   15.4498  -21.7469  -18.3985 C   0  0  0  0  0  0  0  0  0  0  0  0
   15.2244  -21.6107  -17.0242 O   0  0  0  0  0  0  0  0  0  0  0  0
   16.1103  -20.6199  -18.8749 C   0  0  1  0  0  0  0  0  0  0  0  0
   17.4386  -20.4594  -18.1609 O   0  0  0  0  0  0  0  0  0  0  0  0
   16.4626  -20.7644  -20.4264 C   0  0  1  0  0  0  0  0  0  0  0  0
   15.6952  -19.7274  -21.2149 O   0  0  0  0  0  0  0  0  0  0  0  0
   17.6609  -20.4912  -20.5308 C   0  0  1  0  0  0  0  0  0  0  0  0
   17.8082  -19.0712  -20.9303 O   0  0  0  0  0  0  0  0  0  0  0  0
   18.3326  -20.7327  -19.0261 C   0  0  2  0  0  0  0  0  0  0  0  0
   22.2850  -24.0059  -19.2502 N   0  0  0  0  0  0  0  0  0  0  0  0
   14.5019  -22.6201  -14.7593 O   0  5  0  0  0  0  0  0  0  0  0  0
   16.7606  -24.4813  -14.4322 O   0  5  0  0  0  0  0  0  0  0  0  0
   13.1926  -27.1376  -12.8228 O   0  0  0  0  0  0  0  0  0  0  0  0
   22.2829  -22.7071  -19.5068 C   0  0  0  0  0  0  0  0  0  0  0  0
   23.5158  -22.0593  -19.9067 N   0  0  0  0  0  0  0  0  0  0  0  0
   13.0726  -22.9880  -16.7634 O   0  0  0  0  0  0  0  0  0  0  0  0
   16.5990  -26.3778  -15.9948 O   0  0  0  0  0  0  0  0  0  0  0  0
   15.2546  -28.1589  -13.7028 O   0  5  0  0  0  0  0  0  0  0  0  0
   21.1905  -21.9772  -19.4102 N   0  0  0  0  0  0  0  0  0  0  0  0
   15.3247  -24.2398  -16.5689 O   0  0  0  0  0  0  0  0  0  0  0  0
   14.5515  -25.8121  -14.5410 O   0  0  0  0  0  0  0  0  0  0  0  0
   15.3783  -26.2546  -12.1125 O   0  0  0  0  0  0  0  0  0  0  0  0
   20.0310  -22.5369  -19.0441 C   0  0  0  0  0  0  0  0  0  0  0  0
   20.0054  -23.8896  -18.7713 C   0  0  0  0  0  0  0  0  0  0  0  0
   21.1857  -24.6499  -18.8804 C   0  0  0  0  0  0  0  0  0  0  0  0
   21.1909  -26.0294  -18.6085 O   0  0  0  0  0  0  0  0  0  0  0  0
   18.7456  -24.2105  -18.4301 N   0  0  0  0  0  0  0  0  0  0  0  0
   18.0237  -23.1050  -18.4898 C   0  0  0  0  0  0  0  0  0  0  0  0
   18.7794  -22.0881  -18.8600 N   0  0  0  0  0  0  0  0  0  0  0  0
  1  5  1  6  0  0  0
  1 14  1  0  0  0  0
  1 19  2  0  0  0  0
  1 23  1  0  0  0  0
  2 15  1  1  0  0  0
  2 20  2  0  0  0  0
  2 23  1  0  0  0  0
  2 24  1  0  0  0  0
  3 16  1  1  0  0  0
  3 21  1  0  0  0  0
  3 24  1  0  0  0  0
  3 25  2  0  0  0  0
  4  5  1  0  0  0  0
  6  4  1  1  0  0  0
  6  7  1  0  0  0  0
  6  8  1  0  0  0  0
  7 12  1  0  0  0  0
  8  9  1  6  0  0  0
  8 10  1  0  0  0  0
 10 11  1  1  0  0  0
 10 12  1  0  0  0  0
 12 32  1  6  0  0  0
 13 17  2  0  0  0  0
 13 28  1  0  0  0  0
 17 18  1  0  0  0  0
 17 22  1  0  0  0  0
 22 26  2  0  0  0  0
 26 27  1  0  0  0  0
 26 32  1  0  0  0  0
 27 28  2  0  0  0  0
 27 30  1  0  0  0  0
 28 29  1  0  0  0  0
 30 31  2  0  0  0  0
 31 32  1  0  0  0  0
M  CHG  3  14  -1  15  -1  21  -1
M  END
>  <CHROM.1>
172.26076803,-58.83702508,-179.36790832,59.83037879,-178.25972411,-144.46208595
127.75345529,-59.78814795,17.02713290,-23.51751581,-17.14467941,2.22284503
-0.34961706,2.46206592

>  <Name>
ligand

>  <RI>
0

>  <Rbt.Current_Directory>
/home/itssahil/PROJECTS/Mol_Feturizer/New_Systems/rnas/4Y1I

>  <Rbt.Executable>
rbdock ($Id: //depot/dev/client3/rdock/2013.1/src/exe/rbdock.cxx#4 $)

>  <Rbt.Library>
libRbt.so (2013.1, Build901 2013/11/27)

>  <Rbt.Parameter_File>
/export/apps/rDock/src/rDock_2013.1_src/data/scripts/dock_solv.prm

>  <Rbt.Receptor>
prm/pocket_docking_5.prm

>  <SCORE>
-10.5033

>  <SCORE.INTER>
-5.59904

>  <SCORE.INTER.CONST>
1

>  <SCORE.INTER.POLAR>
0

>  <SCORE.INTER.ROT>
8

>  <SCORE.INTER.SOLV>
16.0081

>  <SCORE.INTER.VDW>
-18.002

>  <SCORE.INTER.norm>
-0.17497

>  <SCORE.INTRA>
-4.90425

>  <SCORE.INTRA.DIHEDRAL>
-7.31799

>  <SCORE.INTRA.DIHEDRAL.0>
10.9594

>  <SCORE.INTRA.POLAR>
0

>  <SCORE.INTRA.POLAR.0>
0

>  <SCORE.INTRA.REPUL>
0

>  <SCORE.INTRA.REPUL.0>
0

>  <SCORE.INTRA.SOLV>
-3.22978

>  <SCORE.INTRA.SOLV.lig_0>
-124.914

>  <SCORE.INTRA.VDW>
0.369634

>  <SCORE.INTRA.VDW.0>
-4.69801

>  <SCORE.INTRA.norm>
-0.153258

>  <SCORE.RESTR>
0

>  <SCORE.RESTR.CAVITY>
0

>  <SCORE.RESTR.norm>
0

>  <SCORE.SYSTEM>
0

>  <SCORE.SYSTEM.CONST>
0

>  <SCORE.SYSTEM.DIHEDRAL>
0

>  <SCORE.SYSTEM.SOLV>
0

>  <SCORE.SYSTEM.norm>
0

>  <SCORE.heavy>
32

>  <SCORE.norm>
-0.328228

>  <RMSD>
5.822

$$$$
ligand
 OpenBabel11021811513D
libRbt.so/2013.1/901 2013/11/27
 32 34  0  0  0  0  0  0  0  0999 V2000
   14.6294  -23.1741  -16.2964 P   0  0  1  0  0  0  0  0  0  0  0  0
   15.7806  -25.7137  -15.6209 P   0  0  2  0  0  0  0  0  0  0  0  0
   17.1239  -27.3731  -17.6352 P   0  0  1  0  0  0  0  0  0  0  0  0
   15.3745  -21.9426  -18.4689 C   0  0  0  0  0  0  0  0  0  0  0  0
   15.1065  -21.8194  -17.1011 O   0  0  0  0  0  0  0  0  0  0  0  0
   15.8902  -20.7448  -18.9511 C   0  0  1  0  0  0  0  0  0  0  0  0
   17.1971  -20.4262  -18.2508 O   0  0  0  0  0  0  0  0  0  0  0  0
   16.2411  -20.8465  -20.5063 C   0  0  1  0  0  0  0  0  0  0  0  0
   15.3469  -19.9091  -21.2859 O   0  0  0  0  0  0  0  0  0  0  0  0
   17.3969  -20.4318  -20.6229 C   0  0  1  0  0  0  0  0  0  0  0  0
   17.3689  -19.0044  -21.0225 O   0  0  0  0  0  0  0  0  0  0  0  0
   18.1084  -20.5907  -19.1254 C   0  0  2  0  0  0  0  0  0  0  0  0
   22.4287  -23.3594  -19.3585 N   0  0  0  0  0  0  0  0  0  0  0  0
   14.5211  -22.8809  -14.8205 O   0  5  0  0  0  0  0  0  0  0  0  0
   14.4635  -26.4380  -15.7425 O   0  5  0  0  0  0  0  0  0  0  0  0
   15.8301  -28.0981  -17.9232 O   0  0  0  0  0  0  0  0  0  0  0  0
   22.2695  -22.0691  -19.6085 C   0  0  0  0  0  0  0  0  0  0  0  0
   23.4153  -21.2745  -20.0028 N   0  0  0  0  0  0  0  0  0  0  0  0
   13.3006  -23.6289  -16.8565 O   0  0  0  0  0  0  0  0  0  0  0  0
   16.0160  -25.3331  -14.1827 O   0  0  0  0  0  0  0  0  0  0  0  0
   17.3295  -26.2940  -18.6758 O   0  5  0  0  0  0  0  0  0  0  0  0
   21.0965  -21.4775  -19.5104 N   0  0  0  0  0  0  0  0  0  0  0  0
   15.7616  -24.3426  -16.5234 O   0  0  0  0  0  0  0  0  0  0  0  0
   17.0024  -26.6865  -16.1374 O   0  0  0  0  0  0  0  0  0  0  0  0
   18.2648  -28.3661  -17.6745 O   0  0  0  0  0  0  0  0  0  0  0  0
   20.0130  -22.1755  -19.1494 C   0  0  0  0  0  0  0  0  0  0  0  0
   20.1512  -23.5228  -18.8834 C   0  0  0  0  0  0  0  0  0  0  0  0
   21.4151  -24.1338  -18.9940 C   0  0  0  0  0  0  0  0  0  0  0  0
   21.5872  -25.5039  -18.7290 O   0  0  0  0  0  0  0  0  0  0  0  0
   18.9392  -23.9958  -18.5462 N   0  0  0  0  0  0  0  0  0  0  0  0
   18.0886  -22.9857  -18.6017 C   0  0  0  0  0  0  0  0  0  0  0  0
   18.7160  -21.8828  -18.9654 N   0  0  0  0  0  0  0  0  0  0  0  0
  1  5  1  6  0  0  0
  1 14  1  0  0  0  0
  1 19  2  0  0  0  0
  1 23  1  0  0  0  0
  2 15  1  6  0  0  0
  2 20  2  0  0  0  0
  2 23  1  0  0  0  0
  2 24  1  0  0  0  0
  3 16  1  6  0  0  0
  3 21  1  0  0  0  0
  3 24  1  0  0  0  0
  3 25  2  0  0  0  0
  4  5  1  0  0  0  0
  6  4  1  1  0  0  0
  6  7  1  0  0  0  0
  6  8  1  0  0  0  0
  7 12  1  0  0  0  0
  8  9  1  6  0  0  0
  8 10  1  0  0  0  0
 10 11  1  1  0  0  0
 10 12  1  0  0  0  0
 12 32  1  6  0  0  0
 13 17  2  0  0  0  0
 13 28  1  0  0  0  0
 17 18  1  0  0  0  0
 17 22  1  0  0  0  0
 22 26  2  0  0  0  0
 26 27  1  0  0  0  0
 26 32  1  0  0  0  0
 27 28  2  0  0  0  0
 27 30  1  0  0  0  0
 28 29  1  0  0  0  0
 30 31  2  0  0  0  0
 31 32  1  0  0  0  0
M  CHG  3  14  -1  15  -1  21  -1
M  END
>  <CHROM.1>
174.40354703,57.24625715,-52.14227924,61.80910689,-174.00030440,-143.71554253
166.91625616,57.75666253,17.39086863,-23.60813458,-18.00342823,2.26093901
-0.34659404,2.73515414

>  <Name>
ligand

>  <RI>
0

>  <Rbt.Current_Directory>
/home/itssahil/PROJECTS/Mol_Feturizer/New_Systems/rnas/4Y1I

>  <Rbt.Executable>
rbdock ($Id: //depot/dev/client3/rdock/2013.1/src/exe/rbdock.cxx#4 $)

>  <Rbt.Library>
libRbt.so (2013.1, Build901 2013/11/27)

>  <Rbt.Parameter_File>
/export/apps/rDock/src/rDock_2013.1_src/data/scripts/dock_solv.prm

>  <Rbt.Receptor>
prm/pocket_docking_8.prm

>  <SCORE>
-12.3318

>  <SCORE.INTER>
-5.76599

>  <SCORE.INTER.CONST>
1

>  <SCORE.INTER.POLAR>
0

>  <SCORE.INTER.ROT>
8

>  <SCORE.INTER.SOLV>
10.7946

>  <SCORE.INTER.VDW>
-16.3755

>  <SCORE.INTER.norm>
-0.180187

>  <SCORE.INTRA>
-6.56582

>  <SCORE.INTRA.DIHEDRAL>
-9.09692

>  <SCORE.INTRA.DIHEDRAL.0>
10.9594

>  <SCORE.INTRA.POLAR>
0

>  <SCORE.INTRA.POLAR.0>
0

>  <SCORE.INTRA.REPUL>
0

>  <SCORE.INTRA.REPUL.0>
0

>  <SCORE.INTRA.SOLV>
-3.5801

>  <SCORE.INTRA.SOLV.lig_0>
-124.914

>  <SCORE.INTRA.VDW>
-0.22731

>  <SCORE.INTRA.VDW.0>
-4.69801

>  <SCORE.INTRA.norm>
-0.205182

>  <SCORE.RESTR>
0

>  <SCORE.RESTR.CAVITY>
0

>  <SCORE.RESTR.norm>
0

>  <SCORE.SYSTEM>
0

>  <SCORE.SYSTEM.CONST>
0

>  <SCORE.SYSTEM.DIHEDRAL>
0

>  <SCORE.SYSTEM.SOLV>
0

>  <SCORE.SYSTEM.norm>
0

>  <SCORE.heavy>
32

>  <SCORE.norm>
-0.385369

>  <RMSD>
5.829

$$$$
ligand
 OpenBabel11021811513D
libRbt.so/2013.1/901 2013/11/27
 32 34  0  0  0  0  0  0  0  0999 V2000
   18.5388  -25.6009  -18.5487 P   0  0  1  0  0  0  0  0  0  0  0  0
   18.0058  -27.9870  -17.0476 P   0  0  2  0  0  0  0  0  0  0  0  0
   20.2388  -29.7271  -16.2722 P   0  0  1  0  0  0  0  0  0  0  0  0
   16.3674  -24.2132  -18.9365 C   0  0  0  0  0  0  0  0  0  0  0  0
   17.1695  -24.8717  -17.9979 O   0  0  0  0  0  0  0  0  0  0  0  0
   15.2875  -23.6211  -18.2910 C   0  0  1  0  0  0  0  0  0  0  0  0
   15.7733  -22.4945  -17.3995 O   0  0  0  0  0  0  0  0  0  0  0  0
   14.2822  -22.9497  -19.3353 C   0  0  1  0  0  0  0  0  0  0  0  0
   12.9539  -23.6704  -19.2891 O   0  0  0  0  0  0  0  0  0  0  0  0
   14.0894  -21.8000  -18.9322 C   0  0  1  0  0  0  0  0  0  0  0  0
   12.8342  -21.7594  -18.1444 O   0  0  0  0  0  0  0  0  0  0  0  0
   15.3858  -21.4178  -17.9590 C   0  0  2  0  0  0  0  0  0  0  0  0
   16.7306  -18.4181  -21.9060 N   0  0  0  0  0  0  0  0  0  0  0  0
   18.2649  -26.2699  -19.8729 O   0  5  0  0  0  0  0  0  0  0  0  0
   17.5977  -28.7614  -18.2756 O   0  5  0  0  0  0  0  0  0  0  0  0
   21.2566  -28.6635  -16.6117 O   0  0  0  0  0  0  0  0  0  0  0  0
   15.5118  -18.7334  -21.4963 C   0  0  0  0  0  0  0  0  0  0  0  0
   14.3641  -18.2012  -22.2028 N   0  0  0  0  0  0  0  0  0  0  0  0
   19.6240  -24.5568  -18.6844 O   0  0  0  0  0  0  0  0  0  0  0  0
   16.7814  -27.4179  -16.3801 O   0  0  0  0  0  0  0  0  0  0  0  0
   20.6820  -30.4563  -15.0227 O   0  5  0  0  0  0  0  0  0  0  0  0
   15.3042  -19.5203  -20.4603 N   0  0  0  0  0  0  0  0  0  0  0  0
   18.9955  -26.7444  -17.4612 O   0  0  0  0  0  0  0  0  0  0  0  0
   18.7912  -28.9799  -15.9972 O   0  0  0  0  0  0  0  0  0  0  0  0
   20.1279  -30.6917  -17.4327 O   0  0  0  0  0  0  0  0  0  0  0  0
   16.3370  -20.0329  -19.7804 C   0  0  0  0  0  0  0  0  0  0  0  0
   17.6184  -19.7205  -20.1870 C   0  0  0  0  0  0  0  0  0  0  0  0
   17.8162  -18.8766  -21.2968 C   0  0  0  0  0  0  0  0  0  0  0  0
   19.1094  -18.5400  -21.7341 O   0  0  0  0  0  0  0  0  0  0  0  0
   18.4707  -20.3468  -19.3578 N   0  0  0  0  0  0  0  0  0  0  0  0
   17.7485  -21.0176  -18.4774 C   0  0  0  0  0  0  0  0  0  0  0  0
   16.4623  -20.8429  -18.7173 N   0  0  0  0  0  0  0  0  0  0  0  0
  1  5  1  1  0  0  0
  1 14  1  0  0  0  0
  1 19  2  0  0  0  0
  1 23  1  0  0  0  0
  2 15  1  6  0  0  0
  2 20  2  0  0  0  0
  2 23  1  0  0  0  0
  2 24  1  0  0  0  0
  3 16  1  6  0  0  0
  3 21  1  0  0  0  0
  3 24  1  0  0  0  0
  3 25  2  0  0  0  0
  4  5  1  0  0  0  0
  6  4  1  6  0  0  0
  6  7  1  0  0  0  0
  6  8  1  0  0  0  0
  7 12  1  0  0  0  0
  8  9  1  1  0  0  0
  8 10  1  0  0  0  0
 10 11  1  1  0  0  0
 10 12  1  0  0  0  0
 12 32  1  6  0  0  0
 13 17  2  0  0  0  0
 13 28  1  0  0  0  0
 17 18  1  0  0  0  0
 17 22  1  0  0  0  0
 22 26  2  0  0  0  0
 26 27  1  0  0  0  0
 26 32  1  0  0  0  0
 27 28  2  0  0  0  0
 27 30  1  0  0  0  0
 28 29  1  0  0  0  0
 30 31  2  0  0  0  0
 31 32  1  0  0  0  0
M  CHG  3  14  -1  15  -1  21  -1
M  END
>  <CHROM.1>
-39.91126222,56.58252801,56.32037823,67.29096035,-177.94098972,154.42094915
58.79012150,64.44310218,17.37820824,-24.27562243,-18.51612851,-1.22492881
0.14407425,-0.42850149

>  <Name>
ligand

>  <RI>
0

>  <Rbt.Current_Directory>
/home/itssahil/PROJECTS/Mol_Feturizer/New_Systems/rnas/4Y1I

>  <Rbt.Executable>
rbdock ($Id: //depot/dev/client3/rdock/2013.1/src/exe/rbdock.cxx#4 $)

>  <Rbt.Library>
libRbt.so (2013.1, Build901 2013/11/27)

>  <Rbt.Parameter_File>
/export/apps/rDock/src/rDock_2013.1_src/data/scripts/dock_solv.prm

>  <Rbt.Receptor>
prm/pocket_docking_6.prm

>  <SCORE>
-11.0705

>  <SCORE.INTER>
-4.19777

>  <SCORE.INTER.CONST>
1

>  <SCORE.INTER.POLAR>
0

>  <SCORE.INTER.ROT>
8

>  <SCORE.INTER.SOLV>
9.52628

>  <SCORE.INTER.VDW>
-14.9073

>  <SCORE.INTER.norm>
-0.13118

>  <SCORE.INTRA>
-6.87277

>  <SCORE.INTRA.DIHEDRAL>
-8.80594

>  <SCORE.INTRA.DIHEDRAL.0>
10.9594

>  <SCORE.INTRA.POLAR>
0

>  <SCORE.INTRA.POLAR.0>
0

>  <SCORE.INTRA.REPUL>
0

>  <SCORE.INTRA.REPUL.0>
0

>  <SCORE.INTRA.SOLV>
-4.8828

>  <SCORE.INTRA.SOLV.lig_0>
-124.914

>  <SCORE.INTRA.VDW>
-0.0284021

>  <SCORE.INTRA.VDW.0>
-4.69801

>  <SCORE.INTRA.norm>
-0.214774

>  <SCORE.RESTR>
0

>  <SCORE.RESTR.CAVITY>
0

>  <SCORE.RESTR.norm>
0

>  <SCORE.SYSTEM>
0

>  <SCORE.SYSTEM.CONST>
0

>  <SCORE.SYSTEM.DIHEDRAL>
0

>  <SCORE.SYSTEM.SOLV>
0

>  <SCORE.SYSTEM.norm>
0

>  <SCORE.heavy>
32

>  <SCORE.norm>
-0.345954

>  <RMSD>
5.830

$$$$
ligand
 OpenBabel11021811513D
libRbt.so/2013.1/901 2013/11/27
 32 34  0  0  0  0  0  0  0  0999 V2000
   14.6878  -23.1413  -16.2473 P   0  0  1  0  0  0  0  0  0  0  0  0
   15.6846  -25.7817  -15.7317 P   0  0  2  0  0  0  0  0  0  0  0  0
   17.1476  -27.2450  -17.8135 P   0  0  1  0  0  0  0  0  0  0  0  0
   15.4369  -21.9202  -18.4243 C   0  0  0  0  0  0  0  0  0  0  0  0
   15.1758  -21.7927  -17.0556 O   0  0  0  0  0  0  0  0  0  0  0  0
   15.9500  -20.7239  -18.9130 C   0  0  1  0  0  0  0  0  0  0  0  0
   17.2635  -20.4060  -18.2248 O   0  0  0  0  0  0  0  0  0  0  0  0
   16.2869  -20.8286  -20.4711 C   0  0  1  0  0  0  0  0  0  0  0  0
   15.3870  -19.8911  -21.2441 O   0  0  0  0  0  0  0  0  0  0  0  0
   17.4421  -20.4156  -20.5986 C   0  0  1  0  0  0  0  0  0  0  0  0
   17.4126  -18.9889  -21.0003 O   0  0  0  0  0  0  0  0  0  0  0  0
   18.1667  -20.5731  -19.1073 C   0  0  2  0  0  0  0  0  0  0  0  0
   22.4962  -23.3312  -19.2926 N   0  0  0  0  0  0  0  0  0  0  0  0
   14.5249  -22.8278  -14.7806 O   0  5  0  0  0  0  0  0  0  0  0  0
   14.3537  -26.3890  -16.0980 O   0  5  0  0  0  0  0  0  0  0  0  0
   17.1244  -26.0209  -18.6986 O   0  0  0  0  0  0  0  0  0  0  0  0
   22.3390  -22.0384  -19.5310 C   0  0  0  0  0  0  0  0  0  0  0  0
   23.4901  -21.2374  -19.8956 N   0  0  0  0  0  0  0  0  0  0  0  0
   13.3848  -23.6212  -16.8458 O   0  0  0  0  0  0  0  0  0  0  0  0
   15.7735  -25.6259  -14.2362 O   0  0  0  0  0  0  0  0  0  0  0  0
   18.4984  -27.9164  -17.9317 O   0  5  0  0  0  0  0  0  0  0  0  0
   21.1632  -21.4501  -19.4477 N   0  0  0  0  0  0  0  0  0  0  0  0
   15.8414  -24.2985  -16.4174 O   0  0  0  0  0  0  0  0  0  0  0  0
   16.9044  -26.7533  -16.2551 O   0  0  0  0  0  0  0  0  0  0  0  0
   16.0501  -28.1904  -18.2507 O   0  0  0  0  0  0  0  0  0  0  0  0
   20.0747  -22.1541  -19.1142 C   0  0  0  0  0  0  0  0  0  0  0  0
   20.2108  -23.5041  -18.8608 C   0  0  0  0  0  0  0  0  0  0  0  0
   21.4777  -24.1115  -18.9552 C   0  0  0  0  0  0  0  0  0  0  0  0
   21.6477  -25.4841  -18.7024 O   0  0  0  0  0  0  0  0  0  0  0  0
   18.9938  -23.9830  -18.5510 N   0  0  0  0  0  0  0  0  0  0  0  0
   18.1423  -22.9739  -18.6107 C   0  0  0  0  0  0  0  0  0  0  0  0
   18.7739  -21.8659  -18.9506 N   0  0  0  0  0  0  0  0  0  0  0  0
  1  5  1  6  0  0  0
  1 14  1  0  0  0  0
  1 19  2  0  0  0  0
  1 23  1  0  0  0  0
  2 15  1  6  0  0  0
  2 20  2  0  0  0  0
  2 23  1  0  0  0  0
  2 24  1  0  0  0  0
  3 16  1  6  0  0  0
  3 21  1  0  0  0  0
  3 24  1  0  0  0  0
  3 25  2  0  0  0  0
  4  5  1  0  0  0  0
  6  4  1  1  0  0  0
  6  7  1  0  0  0  0
  6  8  1  0  0  0  0
  7 12  1  0  0  0  0
  8  9  1  6  0  0  0
  8 10  1  0  0  0  0
 10 11  1  1  0  0  0
 10 12  1  0  0  0  0
 12 32  1  6  0  0  0
 13 17  2  0  0  0  0
 13 28  1  0  0  0  0
 17 18  1  0  0  0  0
 17 22  1  0  0  0  0
 22 26  2  0  0  0  0
 26 27  1  0  0  0  0
 26 32  1  0  0  0  0
 27 28  2  0  0  0  0
 27 30  1  0  0  0  0
 28 29  1  0  0  0  0
 30 31  2  0  0  0  0
 31 32  1  0  0  0  0
M  CHG  3  14  -1  15  -1  21  -1
M  END
>  <CHROM.1>
177.09213408,51.79992537,51.08439569,62.06909875,-174.62716871,-141.98903068
179.81275000,56.81536641,17.42067139,-23.57791087,-18.02860844,2.31391844
-0.34107889,2.75811927

>  <Name>
ligand

>  <RI>
0

>  <Rbt.Current_Directory>
/home/itssahil/PROJECTS/Mol_Feturizer/New_Systems/rnas/4Y1I

>  <Rbt.Executable>
rbdock ($Id: //depot/dev/client3/rdock/2013.1/src/exe/rbdock.cxx#4 $)

>  <Rbt.Library>
libRbt.so (2013.1, Build901 2013/11/27)

>  <Rbt.Parameter_File>
/export/apps/rDock/src/rDock_2013.1_src/data/scripts/dock_solv.prm

>  <Rbt.Receptor>
prm/pocket_docking_7.prm

>  <SCORE>
-12.7881

>  <SCORE.INTER>
-5.734

>  <SCORE.INTER.CONST>
1

>  <SCORE.INTER.POLAR>
0

>  <SCORE.INTER.ROT>
8

>  <SCORE.INTER.SOLV>
10.7159

>  <SCORE.INTER.VDW>
-16.328

>  <SCORE.INTER.norm>
-0.179187

>  <SCORE.INTRA>
-7.05414

>  <SCORE.INTRA.DIHEDRAL>
-9.30123

>  <SCORE.INTRA.DIHEDRAL.0>
10.9594

>  <SCORE.INTRA.POLAR>
0

>  <SCORE.INTRA.POLAR.0>
0

>  <SCORE.INTRA.REPUL>
0

>  <SCORE.INTRA.REPUL.0>
0

>  <SCORE.INTRA.SOLV>
-4.15095

>  <SCORE.INTRA.SOLV.lig_0>
-124.914

>  <SCORE.INTRA.VDW>
-0.328046

>  <SCORE.INTRA.VDW.0>
-4.69801

>  <SCORE.INTRA.norm>
-0.220442

>  <SCORE.RESTR>
0

>  <SCORE.RESTR.CAVITY>
0

>  <SCORE.RESTR.norm>
0

>  <SCORE.SYSTEM>
0

>  <SCORE.SYSTEM.CONST>
0

>  <SCORE.SYSTEM.DIHEDRAL>
0

>  <SCORE.SYSTEM.SOLV>
0

>  <SCORE.SYSTEM.norm>
0

>  <SCORE.heavy>
32

>  <SCORE.norm>
-0.399629

>  <RMSD>
5.843

$$$$
ligand
 OpenBabel11021811513D
libRbt.so/2013.1/901 2013/11/27
 32 34  0  0  0  0  0  0  0  0999 V2000
   14.4748  -22.8875  -16.2549 P   0  0  1  0  0  0  0  0  0  0  0  0
   14.6220  -25.2728  -17.8423 P   0  0  2  0  0  0  0  0  0  0  0  0
   13.6701  -24.8869  -20.5919 P   0  0  1  0  0  0  0  0  0  0  0  0
   15.3319  -21.8295  -18.4769 C   0  0  0  0  0  0  0  0  0  0  0  0
   15.2291  -21.6852  -17.0889 O   0  0  0  0  0  0  0  0  0  0  0  0
   15.9633  -20.7135  -19.0146 C   0  0  1  0  0  0  0  0  0  0  0  0
   17.2764  -20.4673  -18.2970 O   0  0  0  0  0  0  0  0  0  0  0  0
   16.3405  -20.9418  -20.5501 C   0  0  1  0  0  0  0  0  0  0  0  0
   15.5517  -19.9802  -21.4099 O   0  0  0  0  0  0  0  0  0  0  0  0
   17.5309  -20.6375  -20.6578 C   0  0  1  0  0  0  0  0  0  0  0  0
   17.6393  -19.2408  -21.1426 O   0  0  0  0  0  0  0  0  0  0  0  0
   18.1899  -20.7646  -19.1335 C   0  0  2  0  0  0  0  0  0  0  0  0
   22.2419  -23.9216  -19.1240 N   0  0  0  0  0  0  0  0  0  0  0  0
   14.6194  -22.6500  -14.7721 O   0  5  0  0  0  0  0  0  0  0  0  0
   13.3762  -25.9948  -17.3940 O   0  5  0  0  0  0  0  0  0  0  0  0
   13.5774  -23.7108  -21.5355 O   0  0  0  0  0  0  0  0  0  0  0  0
   22.2024  -22.6423  -19.4624 C   0  0  0  0  0  0  0  0  0  0  0  0
   23.4183  -21.9832  -19.8947 N   0  0  0  0  0  0  0  0  0  0  0  0
   13.0178  -22.9180  -16.6582 O   0  0  0  0  0  0  0  0  0  0  0  0
   15.6877  -26.2770  -18.1953 O   0  0  0  0  0  0  0  0  0  0  0  0
   14.5967  -25.9260  -21.1847 O   0  5  0  0  0  0  0  0  0  0  0  0
   21.0875  -21.9419  -19.4195 N   0  0  0  0  0  0  0  0  0  0  0  0
   15.1907  -24.3162  -16.6355 O   0  0  0  0  0  0  0  0  0  0  0  0
   14.2861  -24.3445  -19.1581 O   0  0  0  0  0  0  0  0  0  0  0  0
   12.2877  -25.4683  -20.3912 O   0  0  0  0  0  0  0  0  0  0  0  0
   19.9426  -22.5129  -19.0261 C   0  0  0  0  0  0  0  0  0  0  0  0
   19.9558  -23.8459  -18.6682 C   0  0  0  0  0  0  0  0  0  0  0  0
   21.1596  -24.5747  -18.7212 C   0  0  0  0  0  0  0  0  0  0  0  0
   21.2045  -25.9334  -18.3623 O   0  0  0  0  0  0  0  0  0  0  0  0
   18.7036  -24.1833  -18.3155 N   0  0  0  0  0  0  0  0  0  0  0  0
   17.9489  -23.1067  -18.4498 C   0  0  0  0  0  0  0  0  0  0  0  0
   18.6763  -22.0924  -18.8789 N   0  0  0  0  0  0  0  0  0  0  0  0
  1  5  1  6  0  0  0
  1 14  1  0  0  0  0
  1 19  2  0  0  0  0
  1 23  1  0  0  0  0
  2 15  1  1  0  0  0
  2 20  2  0  0  0  0
  2 23  1  0  0  0  0
  2 24  1  0  0  0  0
  3 16  1  6  0  0  0
  3 21  1  0  0  0  0
  3 24  1  0  0  0  0
  3 25  2  0  0  0  0
  4  5  1  0  0  0  0
  6  4  1  1  0  0  0
  6  7  1  0  0  0  0
  6  8  1  0  0  0  0
  7 12  1  0  0  0  0
  8  9  1  6  0  0  0
  8 10  1  0  0  0  0
 10 11  1  1  0  0  0
 10 12  1  0  0  0  0
 12 32  1  1  0  0  0
 13 17  2  0  0  0  0
 13 28  1  0  0  0  0
 17 18  1  0  0  0  0
 17 22  1  0  0  0  0
 22 26  2  0  0  0  0
 26 27  1  0  0  0  0
 26 32  1  0  0  0  0
 27 28  2  0  0  0  0
 27 30  1  0  0  0  0
 28 29  1  0  0  0  0
 30 31  2  0  0  0  0
 31 32  1  0  0  0  0
M  CHG  3  14  -1  15  -1  21  -1
M  END
>  <CHROM.1>
172.56973171,-75.85498878,-177.55774066,52.75883642,178.54014283,-144.75727858
-93.16904130,-57.86783865,16.59692536,-23.21637725,-18.81518770,-2.86720571
0.01841327,-0.36767769

>  <Name>
ligand

>  <RI>
0

>  <Rbt.Current_Directory>
/home/itssahil/PROJECTS/Mol_Feturizer/New_Systems/rnas/4Y1I

>  <Rbt.Executable>
rbdock ($Id: //depot/dev/client3/rdock/2013.1/src/exe/rbdock.cxx#4 $)

>  <Rbt.Library>
libRbt.so (2013.1, Build901 2013/11/27)

>  <Rbt.Parameter_File>
/export/apps/rDock/src/rDock_2013.1_src/data/scripts/dock_solv.prm

>  <Rbt.Receptor>
prm/pocket_docking_5.prm

>  <SCORE>
-8.46489

>  <SCORE.INTER>
-2.96678

>  <SCORE.INTER.CONST>
1

>  <SCORE.INTER.POLAR>
0

>  <SCORE.INTER.ROT>
8

>  <SCORE.INTER.SOLV>
10.6774

>  <SCORE.INTER.VDW>
-14.4703

>  <SCORE.INTER.norm>
-0.0927119

>  <SCORE.INTRA>
-5.49811

>  <SCORE.INTRA.DIHEDRAL>
-7.65739

>  <SCORE.INTRA.DIHEDRAL.0>
10.9594

>  <SCORE.INTRA.POLAR>
0

>  <SCORE.INTRA.POLAR.0>
0

>  <SCORE.INTRA.REPUL>
0

>  <SCORE.INTRA.REPUL.0>
0

>  <SCORE.INTRA.SOLV>
-2.81098

>  <SCORE.INTRA.SOLV.lig_0>
-124.914

>  <SCORE.INTRA.VDW>
-0.263922

>  <SCORE.INTRA.VDW.0>
-4.69801

>  <SCORE.INTRA.norm>
-0.171816

>  <SCORE.RESTR>
0

>  <SCORE.RESTR.CAVITY>
0

>  <SCORE.RESTR.norm>
0

>  <SCORE.SYSTEM>
0

>  <SCORE.SYSTEM.CONST>
0

>  <SCORE.SYSTEM.DIHEDRAL>
0

>  <SCORE.SYSTEM.SOLV>
0

>  <SCORE.SYSTEM.norm>
0

>  <SCORE.heavy>
32

>  <SCORE.norm>
-0.264528

>  <RMSD>
5.848

$$$$
ligand
 OpenBabel11021811513D
libRbt.so/2013.1/901 2013/11/27
 32 34  0  0  0  0  0  0  0  0999 V2000
   13.7643  -22.8543  -17.7025 P   0  0  1  0  0  0  0  0  0  0  0  0
   13.8618  -25.7037  -17.3824 P   0  0  2  0  0  0  0  0  0  0  0  0
   15.9150  -25.8744  -15.2917 P   0  0  1  0  0  0  0  0  0  0  0  0
   16.0256  -21.6246  -18.1099 C   0  0  0  0  0  0  0  0  0  0  0  0
   14.6647  -21.6834  -18.4296 O   0  0  0  0  0  0  0  0  0  0  0  0
   16.6244  -20.5870  -18.8156 C   0  0  1  0  0  0  0  0  0  0  0  0
   18.0610  -20.4150  -18.3612 O   0  0  0  0  0  0  0  0  0  0  0  0
   16.6960  -20.9115  -20.3782 C   0  0  1  0  0  0  0  0  0  0  0  0
   15.8324  -19.9286  -21.1359 O   0  0  0  0  0  0  0  0  0  0  0  0
   17.8649  -20.7080  -20.7155 C   0  0  1  0  0  0  0  0  0  0  0  0
   17.9803  -19.3468  -21.2914 O   0  0  0  0  0  0  0  0  0  0  0  0
   18.7821  -20.8204  -19.3299 C   0  0  2  0  0  0  0  0  0  0  0  0
   22.7259  -24.1093  -19.2106 N   0  0  0  0  0  0  0  0  0  0  0  0
   13.7823  -22.6583  -16.2067 O   0  5  0  0  0  0  0  0  0  0  0  0
   14.3783  -26.8999  -18.1417 O   0  5  0  0  0  0  0  0  0  0  0  0
   16.5256  -27.1344  -15.8591 O   0  0  0  0  0  0  0  0  0  0  0  0
   22.7446  -22.8203  -19.5120 C   0  0  0  0  0  0  0  0  0  0  0  0
   24.0014  -22.1899  -19.8623 N   0  0  0  0  0  0  0  0  0  0  0  0
   12.3528  -22.7855  -18.2400 O   0  0  0  0  0  0  0  0  0  0  0  0
   12.3568  -25.6815  -17.4391 O   0  0  0  0  0  0  0  0  0  0  0  0
   16.6903  -24.6771  -15.7968 O   0  5  0  0  0  0  0  0  0  0  0  0
   21.6517  -22.0847  -19.5044 N   0  0  0  0  0  0  0  0  0  0  0  0
   14.4262  -24.3162  -18.0539 O   0  0  0  0  0  0  0  0  0  0  0  0
   14.3500  -25.7851  -15.8136 O   0  0  0  0  0  0  0  0  0  0  0  0
   15.9694  -25.9372  -13.7809 O   0  0  0  0  0  0  0  0  0  0  0  0
   20.4705  -22.6283  -19.1867 C   0  0  0  0  0  0  0  0  0  0  0  0
   20.4230  -23.9706  -18.8688 C   0  0  0  0  0  0  0  0  0  0  0  0
   21.6042  -24.7371  -18.8828 C   0  0  0  0  0  0  0  0  0  0  0  0
   21.5875  -26.1062  -18.5631 O   0  0  0  0  0  0  0  0  0  0  0  0
   19.1443  -24.2761  -18.5901 N   0  0  0  0  0  0  0  0  0  0  0  0
   18.4319  -23.1716  -18.7299 C   0  0  0  0  0  0  0  0  0  0  0  0
   19.2124  -22.1702  -19.0911 N   0  0  0  0  0  0  0  0  0  0  0  0
  1  5  1  6  0  0  0
  1 14  1  0  0  0  0
  1 19  2  0  0  0  0
  1 23  1  0  0  0  0
  2 15  1  6  0  0  0
  2 20  2  0  0  0  0
  2 23  1  0  0  0  0
  2 24  1  0  0  0  0
  3 16  1  6  0  0  0
  3 21  1  0  0  0  0
  3 24  1  0  0  0  0
  3 25  2  0  0  0  0
  4  5  1  0  0  0  0
  6  4  1  1  0  0  0
  6  7  1  0  0  0  0
  6  8  1  0  0  0  0
  7 12  1  0  0  0  0
  8  9  1  6  0  0  0
  8 10  1  0  0  0  0
 10 11  1  1  0  0  0
 10 12  1  0  0  0  0
 12 32  1  1  0  0  0
 13 17  2  0  0  0  0
 13 28  1  0  0  0  0
 17 18  1  0  0  0  0
 17 22  1  0  0  0  0
 22 26  2  0  0  0  0
 26 27  1  0  0  0  0
 26 32  1  0  0  0  0
 27 28  2  0  0  0  0
 27 30  1  0  0  0  0
 28 29  1  0  0  0  0
 30 31  2  0  0  0  0
 31 32  1  0  0  0  0
M  CHG  3  14  -1  15  -1  21  -1
M  END
>  <CHROM.1>
61.38444876,164.63643962,-60.66368062,173.68488361,179.75653663,-130.36904154
174.49825523,57.78378162,17.00971567,-23.46659146,-18.10768125,2.65163658
-0.14825826,2.57212231

>  <Name>
ligand

>  <RI>
0

>  <Rbt.Current_Directory>
/home/itssahil/PROJECTS/Mol_Feturizer/New_Systems/rnas/4Y1I

>  <Rbt.Executable>
rbdock ($Id: //depot/dev/client3/rdock/2013.1/src/exe/rbdock.cxx#4 $)

>  <Rbt.Library>
libRbt.so (2013.1, Build901 2013/11/27)

>  <Rbt.Parameter_File>
/export/apps/rDock/src/rDock_2013.1_src/data/scripts/dock_solv.prm

>  <Rbt.Receptor>
prm/pocket_docking_5.prm

>  <SCORE>
-9.706

>  <SCORE.INTER>
-3.92965

>  <SCORE.INTER.CONST>
1

>  <SCORE.INTER.POLAR>
0

>  <SCORE.INTER.ROT>
8

>  <SCORE.INTER.SOLV>
8.54288

>  <SCORE.INTER.VDW>
-14.4007

>  <SCORE.INTER.norm>
-0.122802

>  <SCORE.INTRA>
-5.77635

>  <SCORE.INTRA.DIHEDRAL>
-9.16183

>  <SCORE.INTRA.DIHEDRAL.0>
10.9594

>  <SCORE.INTRA.POLAR>
0

>  <SCORE.INTRA.POLAR.0>
0

>  <SCORE.INTRA.REPUL>
0

>  <SCORE.INTRA.REPUL.0>
0

>  <SCORE.INTRA.SOLV>
-2.45338

>  <SCORE.INTRA.SOLV.lig_0>
-124.914

>  <SCORE.INTRA.VDW>
0.0312522

>  <SCORE.INTRA.VDW.0>
-4.69801

>  <SCORE.INTRA.norm>
-0.180511

>  <SCORE.RESTR>
0

>  <SCORE.RESTR.CAVITY>
0

>  <SCORE.RESTR.norm>
0

>  <SCORE.SYSTEM>
0

>  <SCORE.SYSTEM.CONST>
0

>  <SCORE.SYSTEM.DIHEDRAL>
0

>  <SCORE.SYSTEM.SOLV>
0

>  <SCORE.SYSTEM.norm>
0

>  <SCORE.heavy>
32

>  <SCORE.norm>
-0.303313

>  <RMSD>
5.858

$$$$
ligand
 OpenBabel11021811513D
libRbt.so/2013.1/901 2013/11/27
 32 34  0  0  0  0  0  0  0  0999 V2000
   14.4504  -22.7562  -16.5919 P   0  0  1  0  0  0  0  0  0  0  0  0
   15.4305  -25.0877  -15.2376 P   0  0  2  0  0  0  0  0  0  0  0  0
   16.6483  -27.1798  -16.8976 P   0  0  1  0  0  0  0  0  0  0  0  0
   15.5468  -21.6744  -18.6941 C   0  0  0  0  0  0  0  0  0  0  0  0
   15.4515  -21.6565  -17.2982 O   0  0  0  0  0  0  0  0  0  0  0  0
   16.3982  -20.6588  -19.1147 C   0  0  1  0  0  0  0  0  0  0  0  0
   17.6566  -20.6563  -18.2683 O   0  0  0  0  0  0  0  0  0  0  0  0
   16.8836  -20.8920  -20.6188 C   0  0  1  0  0  0  0  0  0  0  0  0
   16.3472  -19.7847  -21.4975 O   0  0  0  0  0  0  0  0  0  0  0  0
   18.1120  -20.7834  -20.6014 C   0  0  1  0  0  0  0  0  0  0  0  0
   18.4895  -19.4071  -21.0032 O   0  0  0  0  0  0  0  0  0  0  0  0
   18.5888  -21.0699  -19.0315 C   0  0  2  0  0  0  0  0  0  0  0  0
   22.0387  -24.8748  -18.9561 N   0  0  0  0  0  0  0  0  0  0  0  0
   13.2220  -22.0612  -16.0588 O   0  5  0  0  0  0  0  0  0  0  0  0
   14.0876  -25.7704  -15.3083 O   0  5  0  0  0  0  0  0  0  0  0  0
   17.8862  -27.2302  -17.7621 O   0  0  0  0  0  0  0  0  0  0  0  0
   22.2337  -23.5996  -19.2533 C   0  0  0  0  0  0  0  0  0  0  0  0
   23.5631  -23.1482  -19.6120 N   0  0  0  0  0  0  0  0  0  0  0  0
   14.0775  -23.8025  -17.6178 O   0  0  0  0  0  0  0  0  0  0  0  0
   16.0919  -25.4106  -13.9234 O   0  0  0  0  0  0  0  0  0  0  0  0
   16.8777  -28.0115  -15.6546 O   0  5  0  0  0  0  0  0  0  0  0  0
   21.2536  -22.7195  -19.2341 N   0  0  0  0  0  0  0  0  0  0  0  0
   15.2474  -23.4596  -15.3395 O   0  0  0  0  0  0  0  0  0  0  0  0
   16.3851  -25.6049  -16.4734 O   0  0  0  0  0  0  0  0  0  0  0  0
   15.4751  -27.7222  -17.6844 O   0  0  0  0  0  0  0  0  0  0  0  0
   20.0109  -23.0953  -18.9084 C   0  0  0  0  0  0  0  0  0  0  0  0
   19.7800  -24.4194  -18.5946 C   0  0  0  0  0  0  0  0  0  0  0  0
   20.8432  -25.3424  -18.6210 C   0  0  0  0  0  0  0  0  0  0  0  0
   20.6391  -26.6973  -18.3057 O   0  0  0  0  0  0  0  0  0  0  0  0
   18.4735  -24.5457  -18.3063 N   0  0  0  0  0  0  0  0  0  0  0  0
   17.9203  -23.3524  -18.4365 C   0  0  0  0  0  0  0  0  0  0  0  0
   18.8294  -22.4674  -18.8008 N   0  0  0  0  0  0  0  0  0  0  0  0
  1  5  1  6  0  0  0
  1 14  1  0  0  0  0
  1 19  2  0  0  0  0
  1 23  1  0  0  0  0
  2 15  1  6  0  0  0
  2 20  2  0  0  0  0
  2 23  1  0  0  0  0
  2 24  1  0  0  0  0
  3 16  1  6  0  0  0
  3 21  1  0  0  0  0
  3 24  1  0  0  0  0
  3 25  2  0  0  0  0
  4  5  1  0  0  0  0
  6  4  1  1  0  0  0
  6  7  1  0  0  0  0
  6  8  1  0  0  0  0
  7 12  1  0  0  0  0
  8  9  1  6  0  0  0
  8 10  1  0  0  0  0
 10 11  1  1  0  0  0
 10 12  1  0  0  0  0
 12 32  1  6  0  0  0
 13 17  2  0  0  0  0
 13 28  1  0  0  0  0
 17 18  1  0  0  0  0
 17 22  1  0  0  0  0
 22 26  2  0  0  0  0
 26 27  1  0  0  0  0
 26 32  1  0  0  0  0
 27 28  2  0  0  0  0
 27 30  1  0  0  0  0
 28 29  1  0  0  0  0
 30 31  2  0  0  0  0
 31 32  1  0  0  0  0
M  CHG  3  14  -1  15  -1  21  -1
M  END
>  <CHROM.1>
-107.97318709,-55.10224109,-162.35786053,46.14005223,178.18624546,-147.81290525
-124.26669047,-49.03406346,17.31937479,-23.77337610,-17.80512948,2.35607741
-0.38847677,2.66739210

>  <Name>
ligand

>  <RI>
0

>  <Rbt.Current_Directory>
/home/itssahil/PROJECTS/Mol_Feturizer/New_Systems/rnas/4Y1I

>  <Rbt.Executable>
rbdock ($Id: //depot/dev/client3/rdock/2013.1/src/exe/rbdock.cxx#4 $)

>  <Rbt.Library>
libRbt.so (2013.1, Build901 2013/11/27)

>  <Rbt.Parameter_File>
/export/apps/rDock/src/rDock_2013.1_src/data/scripts/dock_solv.prm

>  <Rbt.Receptor>
prm/pocket_docking_4.prm

>  <SCORE>
-8.6867

>  <SCORE.INTER>
-5.64038

>  <SCORE.INTER.CONST>
1

>  <SCORE.INTER.POLAR>
0

>  <SCORE.INTER.ROT>
8

>  <SCORE.INTER.SOLV>
10.7517

>  <SCORE.INTER.VDW>
-16.2775

>  <SCORE.INTER.norm>
-0.176262

>  <SCORE.INTRA>
-3.0616

>  <SCORE.INTRA.DIHEDRAL>
-3.85865

>  <SCORE.INTRA.DIHEDRAL.0>
10.9594

>  <SCORE.INTRA.POLAR>
0

>  <SCORE.INTRA.POLAR.0>
0

>  <SCORE.INTRA.REPUL>
0

>  <SCORE.INTRA.REPUL.0>
0

>  <SCORE.INTRA.SOLV>
-1.90844

>  <SCORE.INTRA.SOLV.lig_0>
-124.914

>  <SCORE.INTRA.VDW>
-0.17805

>  <SCORE.INTRA.VDW.0>
-4.69801

>  <SCORE.INTRA.norm>
-0.0956749

>  <SCORE.RESTR>
0.0152792

>  <SCORE.RESTR.CAVITY>
0.0152792

>  <SCORE.RESTR.norm>
0.000477475

>  <SCORE.SYSTEM>
0

>  <SCORE.SYSTEM.CONST>
0

>  <SCORE.SYSTEM.DIHEDRAL>
0

>  <SCORE.SYSTEM.SOLV>
0

>  <SCORE.SYSTEM.norm>
0

>  <SCORE.heavy>
32

>  <SCORE.norm>
-0.271459

>  <RMSD>
5.860

$$$$
ligand
 OpenBabel11021811513D
libRbt.so/2013.1/901 2013/11/27
 32 34  0  0  0  0  0  0  0  0999 V2000
   17.1686  -24.8107  -22.5142 P   0  0  1  0  0  0  0  0  0  0  0  0
   14.6372  -26.1600  -22.4659 P   0  0  2  0  0  0  0  0  0  0  0  0
   14.6735  -27.2388  -19.7364 P   0  0  1  0  0  0  0  0  0  0  0  0
   17.5628  -23.1330  -20.5594 C   0  0  0  0  0  0  0  0  0  0  0  0
   16.8565  -24.2598  -20.9945 O   0  0  0  0  0  0  0  0  0  0  0  0
   17.1649  -22.8053  -19.2680 C   0  0  1  0  0  0  0  0  0  0  0  0
   18.0105  -21.6617  -18.7417 O   0  0  0  0  0  0  0  0  0  0  0  0
   15.6557  -22.2821  -19.2394 C   0  0  1  0  0  0  0  0  0  0  0  0
   14.8024  -23.2514  -18.4528 O   0  0  0  0  0  0  0  0  0  0  0  0
   15.6749  -21.2196  -18.6133 C   0  0  1  0  0  0  0  0  0  0  0  0
   15.3043  -21.4746  -17.2007 O   0  0  0  0  0  0  0  0  0  0  0  0
   17.2377  -20.6501  -18.6986 C   0  0  2  0  0  0  0  0  0  0  0  0
   15.0358  -17.9258  -22.4557 N   0  0  0  0  0  0  0  0  0  0  0  0
   16.8058  -23.7524  -23.5264 O   0  5  0  0  0  0  0  0  0  0  0  0
   14.0153  -27.4346  -22.9787 O   0  5  0  0  0  0  0  0  0  0  0  0
   13.8404  -28.4350  -20.1332 O   0  0  0  0  0  0  0  0  0  0  0  0
   14.4462  -18.6058  -21.4848 C   0  0  0  0  0  0  0  0  0  0  0  0
   12.9993  -18.6289  -21.4099 N   0  0  0  0  0  0  0  0  0  0  0  0
   18.6342  -25.1701  -22.6089 O   0  0  0  0  0  0  0  0  0  0  0  0
   14.0034  -24.9781  -23.1515 O   0  0  0  0  0  0  0  0  0  0  0  0
   16.1359  -27.6272  -19.7491 O   0  5  0  0  0  0  0  0  0  0  0  0
   15.1344  -19.2674  -20.5769 N   0  0  0  0  0  0  0  0  0  0  0  0
   16.2470  -26.1431  -22.7865 O   0  0  0  0  0  0  0  0  0  0  0  0
   14.4059  -26.0404  -20.8417 O   0  0  0  0  0  0  0  0  0  0  0  0
   14.2610  -26.7879  -18.3522 O   0  0  0  0  0  0  0  0  0  0  0  0
   16.4725  -19.2718  -20.6103 C   0  0  0  0  0  0  0  0  0  0  0  0
   17.1124  -18.5711  -21.6126 C   0  0  0  0  0  0  0  0  0  0  0  0
   16.3562  -17.8704  -22.5719 C   0  0  0  0  0  0  0  0  0  0  0  0
   16.9797  -17.1474  -23.6041 O   0  0  0  0  0  0  0  0  0  0  0  0
   18.4355  -18.7259  -21.4342 N   0  0  0  0  0  0  0  0  0  0  0  0
   18.6065  -19.4892  -20.3689 C   0  0  0  0  0  0  0  0  0  0  0  0
   17.4366  -19.8296  -19.8612 N   0  0  0  0  0  0  0  0  0  0  0  0
  1  5  1  1  0  0  0
  1 14  1  0  0  0  0
  1 19  2  0  0  0  0
  1 23  1  0  0  0  0
  2 15  1  6  0  0  0
  2 20  2  0  0  0  0
  2 23  1  0  0  0  0
  2 24  1  0  0  0  0
  3 16  1  6  0  0  0
  3 21  1  0  0  0  0
  3 24  1  0  0  0  0
  3 25  2  0  0  0  0
  4  5  1  0  0  0  0
  6  4  1  6  0  0  0
  6  7  1  0  0  0  0
  6  8  1  0  0  0  0
  7 12  1  0  0  0  0
  8  9  1  1  0  0  0
  8 10  1  0  0  0  0
 10 11  1  1  0  0  0
 10 12  1  0  0  0  0
 12 32  1  6  0  0  0
 13 17  2  0  0  0  0
 13 28  1  0  0  0  0
 17 18  1  0  0  0  0
 17 22  1  0  0  0  0
 22 26  2  0  0  0  0
 26 27  1  0  0  0  0
 26 32  1  0  0  0  0
 27 28  2  0  0  0  0
 27 30  1  0  0  0  0
 28 29  1  0  0  0  0
 30 31  2  0  0  0  0
 31 32  1  0  0  0  0
M  CHG  3  14  -1  15  -1  21  -1
M  END
>  <CHROM.1>
-62.06652631,172.46609386,-56.97362314,175.02466126,179.45032274,135.91592424
48.89661763,47.31206050,15.92350771,-23.06371568,-20.91536002,-2.57030627
1.36061490,0.97622015

>  <Name>
ligand

>  <RI>
0

>  <Rbt.Current_Directory>
/home/itssahil/PROJECTS/Mol_Feturizer/New_Systems/rnas/4Y1I

>  <Rbt.Executable>
rbdock ($Id: //depot/dev/client3/rdock/2013.1/src/exe/rbdock.cxx#4 $)

>  <Rbt.Library>
libRbt.so (2013.1, Build901 2013/11/27)

>  <Rbt.Parameter_File>
/export/apps/rDock/src/rDock_2013.1_src/data/scripts/dock_solv.prm

>  <Rbt.Receptor>
prm/pocket_docking_6.prm

>  <SCORE>
-7.69601

>  <SCORE.INTER>
-0.509905

>  <SCORE.INTER.CONST>
1

>  <SCORE.INTER.POLAR>
0

>  <SCORE.INTER.ROT>
8

>  <SCORE.INTER.SOLV>
6.05296

>  <SCORE.INTER.VDW>
-11.2909

>  <SCORE.INTER.norm>
-0.0159345

>  <SCORE.INTRA>
-7.19017

>  <SCORE.INTRA.DIHEDRAL>
-9.08864

>  <SCORE.INTRA.DIHEDRAL.0>
10.9594

>  <SCORE.INTRA.POLAR>
0

>  <SCORE.INTRA.POLAR.0>
0

>  <SCORE.INTRA.REPUL>
0

>  <SCORE.INTRA.REPUL.0>
0

>  <SCORE.INTRA.SOLV>
-4.14246

>  <SCORE.INTRA.SOLV.lig_0>
-124.914

>  <SCORE.INTRA.VDW>
-0.574622

>  <SCORE.INTRA.VDW.0>
-4.69801

>  <SCORE.INTRA.norm>
-0.224693

>  <SCORE.RESTR>
0.00406618

>  <SCORE.RESTR.CAVITY>
0.00406618

>  <SCORE.RESTR.norm>
0.000127068

>  <SCORE.SYSTEM>
0

>  <SCORE.SYSTEM.CONST>
0

>  <SCORE.SYSTEM.DIHEDRAL>
0

>  <SCORE.SYSTEM.SOLV>
0

>  <SCORE.SYSTEM.norm>
0

>  <SCORE.heavy>
32

>  <SCORE.norm>
-0.2405

>  <RMSD>
5.872

$$$$
ligand
 OpenBabel11021811513D
libRbt.so/2013.1/901 2013/11/27
 32 34  0  0  0  0  0  0  0  0999 V2000
   13.7842  -22.8150  -17.7093 P   0  0  1  0  0  0  0  0  0  0  0  0
   13.8904  -25.6796  -17.5899 P   0  0  2  0  0  0  0  0  0  0  0  0
   16.0527  -25.8569  -15.6130 P   0  0  1  0  0  0  0  0  0  0  0  0
   16.0263  -21.5596  -18.1432 C   0  0  0  0  0  0  0  0  0  0  0  0
   14.6521  -21.6007  -18.4038 O   0  0  0  0  0  0  0  0  0  0  0  0
   16.5983  -20.4958  -18.8320 C   0  0  1  0  0  0  0  0  0  0  0  0
   18.0274  -20.2891  -18.3684 O   0  0  0  0  0  0  0  0  0  0  0  0
   16.6862  -20.7968  -20.3985 C   0  0  1  0  0  0  0  0  0  0  0  0
   15.7981  -19.8288  -21.1471 O   0  0  0  0  0  0  0  0  0  0  0  0
   17.8502  -20.5555  -20.7274 C   0  0  1  0  0  0  0  0  0  0  0  0
   17.9293  -19.1839  -21.2843 O   0  0  0  0  0  0  0  0  0  0  0  0
   18.7640  -20.6605  -19.3389 C   0  0  2  0  0  0  0  0  0  0  0  0
   22.8034  -23.8315  -19.2198 N   0  0  0  0  0  0  0  0  0  0  0  0
   13.9184  -22.7460  -16.2082 O   0  5  0  0  0  0  0  0  0  0  0  0
   14.3947  -26.8302  -18.4241 O   0  5  0  0  0  0  0  0  0  0  0  0
   16.7202  -24.6119  -16.1484 O   0  0  0  0  0  0  0  0  0  0  0  0
   22.7871  -22.5377  -19.5000 C   0  0  0  0  0  0  0  0  0  0  0  0
   24.0287  -21.8643  -19.8230 N   0  0  0  0  0  0  0  0  0  0  0  0
   12.3381  -22.6802  -18.1299 O   0  0  0  0  0  0  0  0  0  0  0  0
   12.3843  -25.6935  -17.5693 O   0  0  0  0  0  0  0  0  0  0  0  0
   16.1650  -25.8695  -14.1041 O   0  5  0  0  0  0  0  0  0  0  0  0
   21.6725  -21.8353  -19.4952 N   0  0  0  0  0  0  0  0  0  0  0  0
   14.3867  -24.2519  -18.2302 O   0  0  0  0  0  0  0  0  0  0  0  0
   14.4608  -25.8126  -16.0527 O   0  0  0  0  0  0  0  0  0  0  0  0
   16.7337  -27.0733  -16.2013 O   0  0  0  0  0  0  0  0  0  0  0  0
   20.5042  -22.4193  -19.2023 C   0  0  0  0  0  0  0  0  0  0  0  0
   20.4931  -23.7675  -18.9069 C   0  0  0  0  0  0  0  0  0  0  0  0
   21.6969  -24.4980  -18.9173 C   0  0  0  0  0  0  0  0  0  0  0  0
   21.7173  -25.8721  -18.6201 O   0  0  0  0  0  0  0  0  0  0  0  0
   19.2206  -24.1157  -18.6504 N   0  0  0  0  0  0  0  0  0  0  0  0
   18.4772  -23.0309  -18.7820 C   0  0  0  0  0  0  0  0  0  0  0  0
   19.2317  -22.0007  -19.1163 N   0  0  0  0  0  0  0  0  0  0  0  0
  1  5  1  6  0  0  0
  1 14  1  0  0  0  0
  1 19  2  0  0  0  0
  1 23  1  0  0  0  0
  2 15  1  6  0  0  0
  2 20  2  0  0  0  0
  2 23  1  0  0  0  0
  2 24  1  0  0  0  0
  3 16  1  6  0  0  0
  3 21  1  0  0  0  0
  3 24  1  0  0  0  0
  3 25  2  0  0  0  0
  4  5  1  0  0  0  0
  6  4  1  1  0  0  0
  6  7  1  0  0  0  0
  6  8  1  0  0  0  0
  7 12  1  0  0  0  0
  8  9  1  6  0  0  0
  8 10  1  0  0  0  0
 10 11  1  1  0  0  0
 10 12  1  0  0  0  0
 12 32  1  1  0  0  0
 13 17  2  0  0  0  0
 13 28  1  0  0  0  0
 17 18  1  0  0  0  0
 17 22  1  0  0  0  0
 22 26  2  0  0  0  0
 26 27  1  0  0  0  0
 26 32  1  0  0  0  0
 27 28  2  0  0  0  0
 27 30  1  0  0  0  0
 28 29  1  0  0  0  0
 30 31  2  0  0  0  0
 31 32  1  0  0  0  0
M  CHG  3  14  -1  15  -1  21  -1
M  END
>  <CHROM.1>
58.98545969,168.97868095,56.51030487,169.93713574,178.57869861,-129.84312350
171.87733140,58.91215317,17.05276112,-23.35779911,-18.20211004,2.66196569
-0.12852148,2.60980114

>  <Name>
ligand

>  <RI>
0

>  <Rbt.Current_Directory>
/home/itssahil/PROJECTS/Mol_Feturizer/New_Systems/rnas/4Y1I

>  <Rbt.Executable>
rbdock ($Id: //depot/dev/client3/rdock/2013.1/src/exe/rbdock.cxx#4 $)

>  <Rbt.Library>
libRbt.so (2013.1, Build901 2013/11/27)

>  <Rbt.Parameter_File>
/export/apps/rDock/src/rDock_2013.1_src/data/scripts/dock_solv.prm

>  <Rbt.Receptor>
prm/pocket_docking_7.prm

>  <SCORE>
-11.2723

>  <SCORE.INTER>
-4.5618

>  <SCORE.INTER.CONST>
1

>  <SCORE.INTER.POLAR>
0

>  <SCORE.INTER.ROT>
8

>  <SCORE.INTER.SOLV>
8.05967

>  <SCORE.INTER.VDW>
-14.6611

>  <SCORE.INTER.norm>
-0.142556

>  <SCORE.INTRA>
-6.71052

>  <SCORE.INTRA.DIHEDRAL>
-9.04876

>  <SCORE.INTRA.DIHEDRAL.0>
10.9594

>  <SCORE.INTRA.POLAR>
0

>  <SCORE.INTRA.POLAR.0>
0

>  <SCORE.INTRA.REPUL>
0

>  <SCORE.INTRA.REPUL.0>
0

>  <SCORE.INTRA.SOLV>
-3.87687

>  <SCORE.INTRA.SOLV.lig_0>
-124.914

>  <SCORE.INTRA.VDW>
-0.247713

>  <SCORE.INTRA.VDW.0>
-4.69801

>  <SCORE.INTRA.norm>
-0.209704

>  <SCORE.RESTR>
0

>  <SCORE.RESTR.CAVITY>
0

>  <SCORE.RESTR.norm>
0

>  <SCORE.SYSTEM>
0

>  <SCORE.SYSTEM.CONST>
0

>  <SCORE.SYSTEM.DIHEDRAL>
0

>  <SCORE.SYSTEM.SOLV>
0

>  <SCORE.SYSTEM.norm>
0

>  <SCORE.heavy>
32

>  <SCORE.norm>
-0.35226

>  <RMSD>
5.913

$$$$
ligand
 OpenBabel11021811513D
libRbt.so/2013.1/901 2013/11/27
 32 34  0  0  0  0  0  0  0  0999 V2000
   16.1490  -25.2763  -15.5811 P   0  0  1  0  0  0  0  0  0  0  0  0
   18.2731  -25.2560  -17.5095 P   0  0  2  0  0  0  0  0  0  0  0  0
   19.6105  -27.7190  -18.3812 P   0  0  1  0  0  0  0  0  0  0  0  0
   14.9334  -23.2603  -16.6990 C   0  0  0  0  0  0  0  0  0  0  0  0
   14.9805  -24.6517  -16.5582 O   0  0  0  0  0  0  0  0  0  0  0  0
   13.8828  -22.9138  -17.5413 C   0  0  1  0  0  0  0  0  0  0  0  0
   13.8682  -21.4129  -17.7580 O   0  0  0  0  0  0  0  0  0  0  0  0
   14.0602  -23.5630  -18.9902 C   0  0  1  0  0  0  0  0  0  0  0  0
   12.9445  -24.5530  -19.2376 O   0  0  0  0  0  0  0  0  0  0  0  0
   13.9173  -22.6409  -19.7968 C   0  0  1  0  0  0  0  0  0  0  0  0
   12.5203  -22.6339  -20.2930 O   0  0  0  0  0  0  0  0  0  0  0  0
   14.2338  -21.2332  -18.9649 C   0  0  2  0  0  0  0  0  0  0  0  0
   17.9620  -18.7169  -21.4456 N   0  0  0  0  0  0  0  0  0  0  0  0
   15.9332  -24.8094  -14.1628 O   0  5  0  0  0  0  0  0  0  0  0  0
   19.5419  -24.4956  -17.8032 O   0  5  0  0  0  0  0  0  0  0  0  0
   20.9592  -27.0384  -18.3728 O   0  0  0  0  0  0  0  0  0  0  0  0
   16.6772  -18.7898  -21.7567 C   0  0  0  0  0  0  0  0  0  0  0  0
   16.1896  -18.0969  -22.9322 N   0  0  0  0  0  0  0  0  0  0  0  0
   16.0988  -26.7850  -15.6674 O   0  0  0  0  0  0  0  0  0  0  0  0
   17.2790  -25.0255  -18.6174 O   0  0  0  0  0  0  0  0  0  0  0  0
   19.7642  -29.1299  -17.8563 O   0  5  0  0  0  0  0  0  0  0  0  0
   15.8196  -19.4757  -21.0289 N   0  0  0  0  0  0  0  0  0  0  0  0
   17.6099  -24.7343  -16.1014 O   0  0  0  0  0  0  0  0  0  0  0  0
   18.6003  -26.8638  -17.3925 O   0  0  0  0  0  0  0  0  0  0  0  0
   19.0775  -27.7398  -19.7972 O   0  0  0  0  0  0  0  0  0  0  0  0
   16.2291  -20.1302  -19.9355 C   0  0  0  0  0  0  0  0  0  0  0  0
   17.5638  -20.0710  -19.5890 C   0  0  0  0  0  0  0  0  0  0  0  0
   18.4623  -19.3310  -20.3814 C   0  0  0  0  0  0  0  0  0  0  0  0
   19.8273  -19.2517  -20.0535 O   0  0  0  0  0  0  0  0  0  0  0  0
   17.7246  -20.7978  -18.4700 N   0  0  0  0  0  0  0  0  0  0  0  0
   16.5417  -21.2856  -18.1391 C   0  0  0  0  0  0  0  0  0  0  0  0
   15.6299  -20.8967  -19.0107 N   0  0  0  0  0  0  0  0  0  0  0  0
  1  5  1  6  0  0  0
  1 14  1  0  0  0  0
  1 19  2  0  0  0  0
  1 23  1  0  0  0  0
  2 15  1  6  0  0  0
  2 20  2  0  0  0  0
  2 23  1  0  0  0  0
  2 24  1  0  0  0  0
  3 16  1  6  0  0  0
  3 21  1  0  0  0  0
  3 24  1  0  0  0  0
  3 25  2  0  0  0  0
  4  5  1  0  0  0  0
  6  4  1  1  0  0  0
  6  7  1  0  0  0  0
  6  8  1  0  0  0  0
  7 12  1  0  0  0  0
  8  9  1  6  0  0  0
  8 10  1  0  0  0  0
 10 11  1  1  0  0  0
 10 12  1  0  0  0  0
 12 32  1  1  0  0  0
 13 17  2  0  0  0  0
 13 28  1  0  0  0  0
 17 18  1  0  0  0  0
 17 22  1  0  0  0  0
 22 26  2  0  0  0  0
 26 27  1  0  0  0  0
 26 32  1  0  0  0  0
 27 28  2  0  0  0  0
 27 30  1  0  0  0  0
 28 29  1  0  0  0  0
 30 31  2  0  0  0  0
 31 32  1  0  0  0  0
M  CHG  3  14  -1  15  -1  21  -1
M  END
>  <CHROM.1>
63.37161043,174.36526266,54.91231943,-177.05373419,-179.30593590,-150.36582143
-70.49529778,-41.82828752,16.82121500,-23.54472550,-18.40399363,1.25713040
-0.33097665,2.61981091

>  <Name>
ligand

>  <RI>
0

>  <Rbt.Current_Directory>
/home/itssahil/PROJECTS/Mol_Feturizer/New_Systems/rnas/4Y1I

>  <Rbt.Executable>
rbdock ($Id: //depot/dev/client3/rdock/2013.1/src/exe/rbdock.cxx#4 $)

>  <Rbt.Library>
libRbt.so (2013.1, Build901 2013/11/27)

>  <Rbt.Parameter_File>
/export/apps/rDock/src/rDock_2013.1_src/data/scripts/dock_solv.prm

>  <Rbt.Receptor>
prm/pocket_docking_6.prm

>  <SCORE>
-11.0523

>  <SCORE.INTER>
-4.77026

>  <SCORE.INTER.CONST>
1

>  <SCORE.INTER.POLAR>
0

>  <SCORE.INTER.ROT>
8

>  <SCORE.INTER.SOLV>
13.8527

>  <SCORE.INTER.VDW>
-16.7311

>  <SCORE.INTER.norm>
-0.149071

>  <SCORE.INTRA>
-6.28206

>  <SCORE.INTRA.DIHEDRAL>
-8.88683

>  <SCORE.INTRA.DIHEDRAL.0>
10.9594

>  <SCORE.INTRA.POLAR>
0

>  <SCORE.INTRA.POLAR.0>
0

>  <SCORE.INTRA.REPUL>
0

>  <SCORE.INTRA.REPUL.0>
0

>  <SCORE.INTRA.SOLV>
-3.76718

>  <SCORE.INTRA.SOLV.lig_0>
-124.914

>  <SCORE.INTRA.VDW>
0.0449504

>  <SCORE.INTRA.VDW.0>
-4.69801

>  <SCORE.INTRA.norm>
-0.196314

>  <SCORE.RESTR>
0

>  <SCORE.RESTR.CAVITY>
0

>  <SCORE.RESTR.norm>
0

>  <SCORE.SYSTEM>
0

>  <SCORE.SYSTEM.CONST>
0

>  <SCORE.SYSTEM.DIHEDRAL>
0

>  <SCORE.SYSTEM.SOLV>
0

>  <SCORE.SYSTEM.norm>
0

>  <SCORE.heavy>
32

>  <SCORE.norm>
-0.345385

>  <RMSD>
5.922

$$$$
ligand
 OpenBabel11021811513D
libRbt.so/2013.1/901 2013/11/27
 32 34  0  0  0  0  0  0  0  0999 V2000
   14.7140  -22.8304  -16.5769 P   0  0  1  0  0  0  0  0  0  0  0  0
   15.6986  -25.3327  -15.5767 P   0  0  2  0  0  0  0  0  0  0  0  0
   16.9496  -27.2680  -17.3947 P   0  0  1  0  0  0  0  0  0  0  0  0
   15.6834  -21.6334  -18.6790 C   0  0  0  0  0  0  0  0  0  0  0  0
   15.3489  -21.5091  -17.3260 O   0  0  0  0  0  0  0  0  0  0  0  0
   16.3699  -20.4978  -19.0942 C   0  0  1  0  0  0  0  0  0  0  0  0
   17.6667  -20.3661  -18.3190 O   0  0  0  0  0  0  0  0  0  0  0  0
   16.7888  -20.6010  -20.6324 C   0  0  1  0  0  0  0  0  0  0  0  0
   16.0619  -19.5372  -21.4238 O   0  0  0  0  0  0  0  0  0  0  0  0
   17.9918  -20.3327  -20.6770 C   0  0  1  0  0  0  0  0  0  0  0  0
   18.1640  -18.9030  -21.0292 O   0  0  0  0  0  0  0  0  0  0  0  0
   18.5961  -20.6208  -19.1519 C   0  0  2  0  0  0  0  0  0  0  0  0
   22.5273  -23.9210  -19.3512 N   0  0  0  0  0  0  0  0  0  0  0  0
   14.3192  -22.4772  -15.1643 O   0  5  0  0  0  0  0  0  0  0  0  0
   14.3317  -25.9431  -15.7593 O   0  5  0  0  0  0  0  0  0  0  0  0
   15.6390  -27.9919  -17.5961 O   0  0  0  0  0  0  0  0  0  0  0  0
   22.5417  -22.6169  -19.5787 C   0  0  0  0  0  0  0  0  0  0  0  0
   23.7892  -21.9706  -19.9334 N   0  0  0  0  0  0  0  0  0  0  0  0
   13.5185  -23.3099  -17.3688 O   0  0  0  0  0  0  0  0  0  0  0  0
   15.8759  -24.9125  -14.1412 O   0  0  0  0  0  0  0  0  0  0  0  0
   17.1648  -26.3046  -18.5415 O   0  5  0  0  0  0  0  0  0  0  0  0
   21.4529  -21.8802  -19.4929 N   0  0  0  0  0  0  0  0  0  0  0  0
   15.8611  -24.0055  -16.5290 O   0  0  0  0  0  0  0  0  0  0  0  0
   16.8576  -26.4305  -15.9736 O   0  0  0  0  0  0  0  0  0  0  0  0
   18.0706  -28.2829  -17.3428 O   0  0  0  0  0  0  0  0  0  0  0  0
   20.2804  -22.4382  -19.1682 C   0  0  0  0  0  0  0  0  0  0  0  0
   20.2374  -23.7964  -18.9264 C   0  0  0  0  0  0  0  0  0  0  0  0
   21.4142  -24.5639  -19.0231 C   0  0  0  0  0  0  0  0  0  0  0  0
   21.4018  -25.9490  -18.7820 O   0  0  0  0  0  0  0  0  0  0  0  0
   18.9671  -24.1142  -18.6237 N   0  0  0  0  0  0  0  0  0  0  0  0
   18.2555  -23.0017  -18.6765 C   0  0  0  0  0  0  0  0  0  0  0  0
   19.0281  -21.9832  -19.0052 N   0  0  0  0  0  0  0  0  0  0  0  0
  1  5  1  6  0  0  0
  1 14  1  0  0  0  0
  1 19  2  0  0  0  0
  1 23  1  0  0  0  0
  2 15  1  6  0  0  0
  2 20  2  0  0  0  0
  2 23  1  0  0  0  0
  2 24  1  0  0  0  0
  3 16  1  6  0  0  0
  3 21  1  0  0  0  0
  3 24  1  0  0  0  0
  3 25  2  0  0  0  0
  4  5  1  0  0  0  0
  6  4  1  1  0  0  0
  6  7  1  0  0  0  0
  6  8  1  0  0  0  0
  7 12  1  0  0  0  0
  8  9  1  6  0  0  0
  8 10  1  0  0  0  0
 10 11  1  1  0  0  0
 10 12  1  0  0  0  0
 12 32  1  6  0  0  0
 13 17  2  0  0  0  0
 13 28  1  0  0  0  0
 17 18  1  0  0  0  0
 17 22  1  0  0  0  0
 22 26  2  0  0  0  0
 26 27  1  0  0  0  0
 26 32  1  0  0  0  0
 27 28  2  0  0  0  0
 27 30  1  0  0  0  0
 28 29  1  0  0  0  0
 30 31  2  0  0  0  0
 31 32  1  0  0  0  0
M  CHG  3  14  -1  15  -1  21  -1
M  END
>  <CHROM.1>
-175.61794665,48.42465591,-55.19909215,62.34033020,-171.75999221,-145.59241181
166.42243050,53.17134727,17.52989393,-23.53489041,-18.03316721,2.33087404
-0.36621757,2.73786110

>  <Name>
ligand

>  <RI>
0

>  <Rbt.Current_Directory>
/home/itssahil/PROJECTS/Mol_Feturizer/New_Systems/rnas/4Y1I

>  <Rbt.Executable>
rbdock ($Id: //depot/dev/client3/rdock/2013.1/src/exe/rbdock.cxx#4 $)

>  <Rbt.Library>
libRbt.so (2013.1, Build901 2013/11/27)

>  <Rbt.Parameter_File>
/export/apps/rDock/src/rDock_2013.1_src/data/scripts/dock_solv.prm

>  <Rbt.Receptor>
prm/pocket_docking_5.prm

>  <SCORE>
-12.2214

>  <SCORE.INTER>
-5.89911

>  <SCORE.INTER.CONST>
1

>  <SCORE.INTER.POLAR>
0

>  <SCORE.INTER.ROT>
8

>  <SCORE.INTER.SOLV>
11.4127

>  <SCORE.INTER.VDW>
-16.6703

>  <SCORE.INTER.norm>
-0.184347

>  <SCORE.INTRA>
-6.32232

>  <SCORE.INTRA.DIHEDRAL>
-8.70095

>  <SCORE.INTRA.DIHEDRAL.0>
10.9594

>  <SCORE.INTRA.POLAR>
0

>  <SCORE.INTRA.POLAR.0>
0

>  <SCORE.INTRA.REPUL>
0

>  <SCORE.INTRA.REPUL.0>
0

>  <SCORE.INTRA.SOLV>
-3.39532

>  <SCORE.INTRA.SOLV.lig_0>
-124.914

>  <SCORE.INTRA.VDW>
-0.27419

>  <SCORE.INTRA.VDW.0>
-4.69801

>  <SCORE.INTRA.norm>
-0.197573

>  <SCORE.RESTR>
0

>  <SCORE.RESTR.CAVITY>
0

>  <SCORE.RESTR.norm>
0

>  <SCORE.SYSTEM>
0

>  <SCORE.SYSTEM.CONST>
0

>  <SCORE.SYSTEM.DIHEDRAL>
0

>  <SCORE.SYSTEM.SOLV>
0

>  <SCORE.SYSTEM.norm>
0

>  <SCORE.heavy>
32

>  <SCORE.norm>
-0.38192

>  <RMSD>
5.931

$$$$
ligand
 OpenBabel11021811513D
libRbt.so/2013.1/901 2013/11/27
 32 34  0  0  0  0  0  0  0  0999 V2000
   14.7272  -22.9708  -16.2443 P   0  0  1  0  0  0  0  0  0  0  0  0
   15.7835  -25.5527  -15.5741 P   0  0  2  0  0  0  0  0  0  0  0  0
   16.1470  -26.3479  -12.7721 P   0  0  1  0  0  0  0  0  0  0  0  0
   15.4510  -21.7997  -18.4570 C   0  0  0  0  0  0  0  0  0  0  0  0
   15.2179  -21.6439  -17.0861 O   0  0  0  0  0  0  0  0  0  0  0  0
   16.0087  -20.6335  -18.9689 C   0  0  1  0  0  0  0  0  0  0  0  0
   17.3306  -20.3486  -18.2823 O   0  0  0  0  0  0  0  0  0  0  0  0
   16.3469  -20.7838  -20.5230 C   0  0  1  0  0  0  0  0  0  0  0  0
   15.4843  -19.8313  -21.3197 O   0  0  0  0  0  0  0  0  0  0  0  0
   17.5168  -20.4158  -20.6546 C   0  0  1  0  0  0  0  0  0  0  0  0
   17.5404  -18.9978  -21.0868 O   0  0  0  0  0  0  0  0  0  0  0  0
   18.2302  -20.5673  -19.1572 C   0  0  2  0  0  0  0  0  0  0  0  0
   22.4455  -23.4976  -19.3286 N   0  0  0  0  0  0  0  0  0  0  0  0
   14.6088  -22.6320  -14.7789 O   0  5  0  0  0  0  0  0  0  0  0  0
   16.7013  -26.5826  -16.1834 O   0  5  0  0  0  0  0  0  0  0  0  0
   14.6923  -26.6733  -12.5267 O   0  0  0  0  0  0  0  0  0  0  0  0
   22.3342  -22.2076  -19.6048 C   0  0  0  0  0  0  0  0  0  0  0  0
   23.5088  -21.4639  -20.0134 N   0  0  0  0  0  0  0  0  0  0  0  0
   13.4004  -23.4357  -16.8009 O   0  0  0  0  0  0  0  0  0  0  0  0
   14.3650  -26.0581  -15.6080 O   0  0  0  0  0  0  0  0  0  0  0  0
   16.8808  -27.6152  -13.1531 O   0  5  0  0  0  0  0  0  0  0  0  0
   21.1838  -21.5713  -19.5202 N   0  0  0  0  0  0  0  0  0  0  0  0
   15.8549  -24.1515  -16.4262 O   0  0  0  0  0  0  0  0  0  0  0  0
   16.2252  -25.2636  -14.0161 O   0  0  0  0  0  0  0  0  0  0  0  0
   16.7393  -25.7558  -11.5119 O   0  0  0  0  0  0  0  0  0  0  0  0
   20.0750  -22.2214  -19.1467 C   0  0  0  0  0  0  0  0  0  0  0  0
   20.1632  -23.5673  -18.8535 C   0  0  0  0  0  0  0  0  0  0  0  0
   21.4038  -24.2266  -18.9500 C   0  0  0  0  0  0  0  0  0  0  0  0
   21.5250  -25.5965  -18.6574 O   0  0  0  0  0  0  0  0  0  0  0  0
   18.9344  -23.9883  -18.5085 N   0  0  0  0  0  0  0  0  0  0  0  0
   18.1217  -22.9489  -18.5855 C   0  0  0  0  0  0  0  0  0  0  0  0
   18.7895  -21.8774  -18.9704 N   0  0  0  0  0  0  0  0  0  0  0  0
  1  5  1  6  0  0  0
  1 14  1  0  0  0  0
  1 19  2  0  0  0  0
  1 23  1  0  0  0  0
  2 15  1  6  0  0  0
  2 20  2  0  0  0  0
  2 23  1  0  0  0  0
  2 24  1  0  0  0  0
  3 16  1  1  0  0  0
  3 21  1  0  0  0  0
  3 24  1  0  0  0  0
  3 25  2  0  0  0  0
  4  5  1  0  0  0  0
  6  4  1  1  0  0  0
  6  7  1  0  0  0  0
  6  8  1  0  0  0  0
  7 12  1  0  0  0  0
  8  9  1  6  0  0  0
  8 10  1  0  0  0  0
 10 11  1  1  0  0  0
 10 12  1  0  0  0  0
 12 32  1  1  0  0  0
 13 17  2  0  0  0  0
 13 28  1  0  0  0  0
 17 18  1  0  0  0  0
 17 22  1  0  0  0  0
 22 26  2  0  0  0  0
 26 27  1  0  0  0  0
 26 32  1  0  0  0  0
 27 28  2  0  0  0  0
 27 30  1  0  0  0  0
 28 29  1  0  0  0  0
 30 31  2  0  0  0  0
 31 32  1  0  0  0  0
M  CHG  3  14  -1  15  -1  21  -1
M  END
>  <CHROM.1>
176.58427830,165.12169094,-65.19752479,60.74336427,-172.82555651,-143.32669318
172.36240914,-65.72329967,17.28402792,-23.40350342,-17.15731581,2.07456368
-0.28546038,2.35568852

>  <Name>
ligand

>  <RI>
0

>  <Rbt.Current_Directory>
/home/itssahil/PROJECTS/Mol_Feturizer/New_Systems/rnas/4Y1I

>  <Rbt.Executable>
rbdock ($Id: //depot/dev/client3/rdock/2013.1/src/exe/rbdock.cxx#4 $)

>  <Rbt.Library>
libRbt.so (2013.1, Build901 2013/11/27)

>  <Rbt.Parameter_File>
/export/apps/rDock/src/rDock_2013.1_src/data/scripts/dock_solv.prm

>  <Rbt.Receptor>
prm/pocket_docking_7.prm

>  <SCORE>
-13.1353

>  <SCORE.INTER>
-6.89347

>  <SCORE.INTER.CONST>
1

>  <SCORE.INTER.POLAR>
0

>  <SCORE.INTER.ROT>
8

>  <SCORE.INTER.SOLV>
14.001

>  <SCORE.INTER.VDW>
-18.196

>  <SCORE.INTER.norm>
-0.215421

>  <SCORE.INTRA>
-6.24179

>  <SCORE.INTRA.DIHEDRAL>
-8.91709

>  <SCORE.INTRA.DIHEDRAL.0>
10.9594

>  <SCORE.INTRA.POLAR>
0

>  <SCORE.INTRA.POLAR.0>
0

>  <SCORE.INTRA.REPUL>
0

>  <SCORE.INTRA.REPUL.0>
0

>  <SCORE.INTRA.SOLV>
-4.09349

>  <SCORE.INTRA.SOLV.lig_0>
-124.914

>  <SCORE.INTRA.VDW>
0.263497

>  <SCORE.INTRA.VDW.0>
-4.69801

>  <SCORE.INTRA.norm>
-0.195056

>  <SCORE.RESTR>
0

>  <SCORE.RESTR.CAVITY>
0

>  <SCORE.RESTR.norm>
0

>  <SCORE.SYSTEM>
0

>  <SCORE.SYSTEM.CONST>
0

>  <SCORE.SYSTEM.DIHEDRAL>
0

>  <SCORE.SYSTEM.SOLV>
0

>  <SCORE.SYSTEM.norm>
0

>  <SCORE.heavy>
32

>  <SCORE.norm>
-0.410477

>  <RMSD>
5.948

$$$$
ligand
 OpenBabel11021811513D
libRbt.so/2013.1/901 2013/11/27
 32 34  0  0  0  0  0  0  0  0999 V2000
   13.8012  -22.6761  -17.3971 P   0  0  1  0  0  0  0  0  0  0  0  0
   14.3264  -24.2473  -15.0548 P   0  0  2  0  0  0  0  0  0  0  0  0
   12.1841  -26.0491  -14.1720 P   0  0  1  0  0  0  0  0  0  0  0  0
   16.0610  -21.5524  -18.0464 C   0  0  0  0  0  0  0  0  0  0  0  0
   14.6709  -21.5360  -18.2057 O   0  0  0  0  0  0  0  0  0  0  0  0
   16.6264  -20.5243  -18.7926 C   0  0  1  0  0  0  0  0  0  0  0  0
   18.0786  -20.3379  -18.3976 O   0  0  0  0  0  0  0  0  0  0  0  0
   16.6389  -20.8753  -20.3510 C   0  0  1  0  0  0  0  0  0  0  0  0
   15.7412  -19.9096  -21.0911 O   0  0  0  0  0  0  0  0  0  0  0  0
   17.7926  -20.6722  -20.7371 C   0  0  1  0  0  0  0  0  0  0  0  0
   17.8784  -19.3206  -21.3401 O   0  0  0  0  0  0  0  0  0  0  0  0
   18.7636  -20.7565  -19.3865 C   0  0  2  0  0  0  0  0  0  0  0  0
   22.7647  -23.9662  -19.1139 N   0  0  0  0  0  0  0  0  0  0  0  0
   12.3618  -22.2378  -17.2859 O   0  5  0  0  0  0  0  0  0  0  0  0
   14.9379  -24.0918  -13.6851 O   0  5  0  0  0  0  0  0  0  0  0  0
   10.6849  -26.0950  -14.3529 O   0  0  0  0  0  0  0  0  0  0  0  0
   22.7709  -22.6737  -19.4004 C   0  0  0  0  0  0  0  0  0  0  0  0
   24.0296  -22.0141  -19.6836 N   0  0  0  0  0  0  0  0  0  0  0  0
   13.9111  -23.9882  -18.1405 O   0  0  0  0  0  0  0  0  0  0  0  0
   15.0736  -25.3051  -15.8237 O   0  0  0  0  0  0  0  0  0  0  0  0
   12.7988  -27.2717  -14.8178 O   0  5  0  0  0  0  0  0  0  0  0  0
   21.6639  -21.9605  -19.4372 N   0  0  0  0  0  0  0  0  0  0  0  0
   14.4255  -22.8352  -15.8860 O   0  0  0  0  0  0  0  0  0  0  0  0
   12.7468  -24.6847  -14.9143 O   0  0  0  0  0  0  0  0  0  0  0  0
   12.5015  -26.0198  -12.6928 O   0  0  0  0  0  0  0  0  0  0  0  0
   20.4805  -22.5315  -19.1821 C   0  0  0  0  0  0  0  0  0  0  0  0
   20.4458  -23.8780  -18.8810 C   0  0  0  0  0  0  0  0  0  0  0  0
   21.6420  -24.6204  -18.8467 C   0  0  0  0  0  0  0  0  0  0  0  0
   21.6384  -25.9931  -18.5427 O   0  0  0  0  0  0  0  0  0  0  0  0
   19.1618  -24.2126  -18.6669 N   0  0  0  0  0  0  0  0  0  0  0  0
   18.4342  -23.1212  -18.8289 C   0  0  0  0  0  0  0  0  0  0  0  0
   19.2100  -22.1001  -19.1418 N   0  0  0  0  0  0  0  0  0  0  0  0
  1  5  1  6  0  0  0
  1 14  1  0  0  0  0
  1 19  2  0  0  0  0
  1 23  1  0  0  0  0
  2 15  1  1  0  0  0
  2 20  2  0  0  0  0
  2 23  1  0  0  0  0
  2 24  1  0  0  0  0
  3 16  1  6  0  0  0
  3 21  1  0  0  0  0
  3 24  1  0  0  0  0
  3 25  2  0  0  0  0
  4  5  1  0  0  0  0
  6  4  1  1  0  0  0
  6  7  1  0  0  0  0
  6  8  1  0  0  0  0
  7 12  1  0  0  0  0
  8  9  1  6  0  0  0
  8 10  1  0  0  0  0
 10 11  1  1  0  0  0
 10 12  1  0  0  0  0
 12 32  1  1  0  0  0
 13 17  2  0  0  0  0
 13 28  1  0  0  0  0
 17 18  1  0  0  0  0
 17 22  1  0  0  0  0
 22 26  2  0  0  0  0
 26 27  1  0  0  0  0
 26 32  1  0  0  0  0
 27 28  2  0  0  0  0
 27 30  1  0  0  0  0
 28 29  1  0  0  0  0
 30 31  2  0  0  0  0
 31 32  1  0  0  0  0
M  CHG  3  14  -1  15  -1  21  -1
M  END
>  <CHROM.1>
160.39812945,-178.07744088,-176.44858527,167.67005492,-179.79582495,-125.07345994
-151.56794082,-59.84146726,16.45807557,-23.22765699,-17.50106264,2.56908758
-0.24364240,2.46907941

>  <Name>
ligand

>  <RI>
0

>  <Rbt.Current_Directory>
/home/itssahil/PROJECTS/Mol_Feturizer/New_Systems/rnas/4Y1I

>  <Rbt.Executable>
rbdock ($Id: //depot/dev/client3/rdock/2013.1/src/exe/rbdock.cxx#4 $)

>  <Rbt.Library>
libRbt.so (2013.1, Build901 2013/11/27)

>  <Rbt.Parameter_File>
/export/apps/rDock/src/rDock_2013.1_src/data/scripts/dock_solv.prm

>  <Rbt.Receptor>
prm/pocket_docking_5.prm

>  <SCORE>
-8.91328

>  <SCORE.INTER>
-4.17826

>  <SCORE.INTER.CONST>
1

>  <SCORE.INTER.POLAR>
0

>  <SCORE.INTER.ROT>
8

>  <SCORE.INTER.SOLV>
7.25168

>  <SCORE.INTER.VDW>
-14.1361

>  <SCORE.INTER.norm>
-0.130571

>  <SCORE.INTRA>
-4.73502

>  <SCORE.INTRA.DIHEDRAL>
-7.56981

>  <SCORE.INTRA.DIHEDRAL.0>
10.9594

>  <SCORE.INTRA.POLAR>
0

>  <SCORE.INTRA.POLAR.0>
0

>  <SCORE.INTRA.REPUL>
0

>  <SCORE.INTRA.REPUL.0>
0

>  <SCORE.INTRA.SOLV>
-3.09606

>  <SCORE.INTRA.SOLV.lig_0>
-124.914

>  <SCORE.INTRA.VDW>
0.597916

>  <SCORE.INTRA.VDW.0>
-4.69801

>  <SCORE.INTRA.norm>
-0.147969

>  <SCORE.RESTR>
0

>  <SCORE.RESTR.CAVITY>
0

>  <SCORE.RESTR.norm>
0

>  <SCORE.SYSTEM>
0

>  <SCORE.SYSTEM.CONST>
0

>  <SCORE.SYSTEM.DIHEDRAL>
0

>  <SCORE.SYSTEM.SOLV>
0

>  <SCORE.SYSTEM.norm>
0

>  <SCORE.heavy>
32

>  <SCORE.norm>
-0.27854

>  <RMSD>
5.991

$$$$
ligand
 OpenBabel11021811513D
libRbt.so/2013.1/901 2013/11/27
 32 34  0  0  0  0  0  0  0  0999 V2000
   14.3734  -22.7795  -16.3050 P   0  0  1  0  0  0  0  0  0  0  0  0
   15.0721  -25.2858  -15.0960 P   0  0  2  0  0  0  0  0  0  0  0  0
   14.0412  -25.8069  -12.3976 P   0  0  1  0  0  0  0  0  0  0  0  0
   15.5352  -21.7874  -18.4163 C   0  0  0  0  0  0  0  0  0  0  0  0
   15.1421  -21.5557  -17.0935 O   0  0  0  0  0  0  0  0  0  0  0  0
   16.1386  -20.6443  -18.9287 C   0  0  1  0  0  0  0  0  0  0  0  0
   17.4761  -20.4183  -18.2506 O   0  0  0  0  0  0  0  0  0  0  0  0
   16.4592  -20.8037  -20.4856 C   0  0  1  0  0  0  0  0  0  0  0  0
   15.6323  -19.8127  -21.2732 O   0  0  0  0  0  0  0  0  0  0  0  0
   17.6427  -20.4854  -20.6244 C   0  0  1  0  0  0  0  0  0  0  0  0
   17.7237  -19.0684  -21.0524 O   0  0  0  0  0  0  0  0  0  0  0  0
   18.3594  -20.6722  -19.1326 C   0  0  2  0  0  0  0  0  0  0  0  0
   22.4569  -23.7662  -19.2833 N   0  0  0  0  0  0  0  0  0  0  0  0
   13.8049  -22.2717  -15.0031 O   0  5  0  0  0  0  0  0  0  0  0  0
   16.2837  -26.1606  -14.8938 O   0  5  0  0  0  0  0  0  0  0  0  0
   15.2590  -26.5988  -11.9828 O   0  0  0  0  0  0  0  0  0  0  0  0
   22.4007  -22.4698  -19.5459 C   0  0  0  0  0  0  0  0  0  0  0  0
   23.6092  -21.7690  -19.9306 N   0  0  0  0  0  0  0  0  0  0  0  0
   13.2801  -23.3213  -17.1979 O   0  0  0  0  0  0  0  0  0  0  0  0
   14.0126  -26.0555  -15.8401 O   0  0  0  0  0  0  0  0  0  0  0  0
   13.5625  -24.9823  -11.2227 O   0  5  0  0  0  0  0  0  0  0  0  0
   21.2754  -21.7891  -19.4688 N   0  0  0  0  0  0  0  0  0  0  0  0
   15.4679  -23.9610  -15.9808 O   0  0  0  0  0  0  0  0  0  0  0  0
   14.4796  -24.8074  -13.6379 O   0  0  0  0  0  0  0  0  0  0  0  0
   12.9584  -26.7651  -12.8437 O   0  0  0  0  0  0  0  0  0  0  0  0
   20.1368  -22.3986  -19.1173 C   0  0  0  0  0  0  0  0  0  0  0  0
   20.1675  -23.7501  -18.8386 C   0  0  0  0  0  0  0  0  0  0  0  0
   21.3821  -24.4572  -18.9267 C   0  0  0  0  0  0  0  0  0  0  0  0
   21.4448  -25.8340  -18.6484 O   0  0  0  0  0  0  0  0  0  0  0  0
   18.9184  -24.1255  -18.5145 N   0  0  0  0  0  0  0  0  0  0  0  0
   18.1488  -23.0538  -18.5899 C   0  0  0  0  0  0  0  0  0  0  0  0
   18.8638  -22.0056  -18.9537 N   0  0  0  0  0  0  0  0  0  0  0  0
  1  5  1  6  0  0  0
  1 14  1  0  0  0  0
  1 19  2  0  0  0  0
  1 23  1  0  0  0  0
  2 15  1  1  0  0  0
  2 20  2  0  0  0  0
  2 23  1  0  0  0  0
  2 24  1  0  0  0  0
  3 16  1  1  0  0  0
  3 21  1  0  0  0  0
  3 24  1  0  0  0  0
  3 25  2  0  0  0  0
  4  5  1  0  0  0  0
  6  4  1  1  0  0  0
  6  7  1  0  0  0  0
  6  8  1  0  0  0  0
  7 12  1  0  0  0  0
  8  9  1  6  0  0  0
  8 10  1  0  0  0  0
 10 11  1  1  0  0  0
 10 12  1  0  0  0  0
 12 32  1  1  0  0  0
 13 17  2  0  0  0  0
 13 28  1  0  0  0  0
 17 18  1  0  0  0  0
 17 22  1  0  0  0  0
 22 26  2  0  0  0  0
 26 27  1  0  0  0  0
 26 32  1  0  0  0  0
 27 28  2  0  0  0  0
 27 30  1  0  0  0  0
 28 29  1  0  0  0  0
 30 31  2  0  0  0  0
 31 32  1  0  0  0  0
M  CHG  3  14  -1  15  -1  21  -1
M  END
>  <CHROM.1>
-169.57474241,-176.91706892,60.44980429,69.29276329,178.74303601,-142.06577276
175.13221661,-55.06626306,16.80489575,-23.30661196,-17.01852357,2.30171311
-0.33273331,2.36770283

>  <Name>
ligand

>  <RI>
0

>  <Rbt.Current_Directory>
/home/itssahil/PROJECTS/Mol_Feturizer/New_Systems/rnas/4Y1I

>  <Rbt.Executable>
rbdock ($Id: //depot/dev/client3/rdock/2013.1/src/exe/rbdock.cxx#4 $)

>  <Rbt.Library>
libRbt.so (2013.1, Build901 2013/11/27)

>  <Rbt.Parameter_File>
/export/apps/rDock/src/rDock_2013.1_src/data/scripts/dock_solv.prm

>  <Rbt.Receptor>
prm/pocket_docking_8.prm

>  <SCORE>
-12.0457

>  <SCORE.INTER>
-5.97055

>  <SCORE.INTER.CONST>
1

>  <SCORE.INTER.POLAR>
0

>  <SCORE.INTER.ROT>
8

>  <SCORE.INTER.SOLV>
11.2791

>  <SCORE.INTER.VDW>
-16.6734

>  <SCORE.INTER.norm>
-0.18658

>  <SCORE.INTRA>
-6.07516

>  <SCORE.INTRA.DIHEDRAL>
-9.09752

>  <SCORE.INTRA.DIHEDRAL.0>
10.9594

>  <SCORE.INTRA.POLAR>
0

>  <SCORE.INTRA.POLAR.0>
0

>  <SCORE.INTRA.REPUL>
0

>  <SCORE.INTRA.REPUL.0>
0

>  <SCORE.INTRA.SOLV>
-4.33265

>  <SCORE.INTRA.SOLV.lig_0>
-124.914

>  <SCORE.INTRA.VDW>
0.639926

>  <SCORE.INTRA.VDW.0>
-4.69801

>  <SCORE.INTRA.norm>
-0.189849

>  <SCORE.RESTR>
0

>  <SCORE.RESTR.CAVITY>
0

>  <SCORE.RESTR.norm>
0

>  <SCORE.SYSTEM>
0

>  <SCORE.SYSTEM.CONST>
0

>  <SCORE.SYSTEM.DIHEDRAL>
0

>  <SCORE.SYSTEM.SOLV>
0

>  <SCORE.SYSTEM.norm>
0

>  <SCORE.heavy>
32

>  <SCORE.norm>
-0.376429

>  <RMSD>
6.004

$$$$
ligand
 OpenBabel11021811513D
libRbt.so/2013.1/901 2013/11/27
 32 34  0  0  0  0  0  0  0  0999 V2000
   14.6255  -22.8137  -16.6672 P   0  0  1  0  0  0  0  0  0  0  0  0
   15.7960  -25.2931  -17.5121 P   0  0  2  0  0  0  0  0  0  0  0  0
   16.0556  -25.7486  -20.4000 P   0  0  1  0  0  0  0  0  0  0  0  0
   15.6412  -21.6113  -18.7442 C   0  0  0  0  0  0  0  0  0  0  0  0
   15.3227  -21.5068  -17.3856 O   0  0  0  0  0  0  0  0  0  0  0  0
   16.3452  -20.4811  -19.1446 C   0  0  1  0  0  0  0  0  0  0  0  0
   17.6201  -20.3526  -18.3334 O   0  0  0  0  0  0  0  0  0  0  0  0
   16.8070  -20.5933  -20.6698 C   0  0  1  0  0  0  0  0  0  0  0  0
   16.1086  -19.5294  -21.4862 O   0  0  0  0  0  0  0  0  0  0  0  0
   18.0123  -20.3315  -20.6813 C   0  0  1  0  0  0  0  0  0  0  0  0
   18.2019  -18.9043  -21.0348 O   0  0  0  0  0  0  0  0  0  0  0  0
   18.5715  -20.6158  -19.1385 C   0  0  2  0  0  0  0  0  0  0  0  0
   22.4677  -23.9579  -19.3279 N   0  0  0  0  0  0  0  0  0  0  0  0
   14.1244  -22.4364  -15.2951 O   0  5  0  0  0  0  0  0  0  0  0  0
   14.5318  -26.1018  -17.3636 O   0  5  0  0  0  0  0  0  0  0  0  0
   14.8489  -26.6576  -20.4133 O   0  0  0  0  0  0  0  0  0  0  0  0
   22.4921  -22.6580  -19.5778 C   0  0  0  0  0  0  0  0  0  0  0  0
   23.7414  -22.0303  -19.9583 N   0  0  0  0  0  0  0  0  0  0  0  0
   13.4925  -23.3017  -17.5415 O   0  0  0  0  0  0  0  0  0  0  0  0
   16.9843  -26.1425  -17.1445 O   0  0  0  0  0  0  0  0  0  0  0  0
   16.0491  -24.8982  -21.6516 O   0  5  0  0  0  0  0  0  0  0  0  0
   21.4116  -21.9092  -19.4918 N   0  0  0  0  0  0  0  0  0  0  0  0
   15.7599  -23.9918  -16.5121 O   0  0  0  0  0  0  0  0  0  0  0  0
   15.9500  -24.7786  -19.0669 O   0  0  0  0  0  0  0  0  0  0  0  0
   17.3092  -26.5941  -20.3451 O   0  0  0  0  0  0  0  0  0  0  0  0
   20.2377  -22.4499  -19.1437 C   0  0  0  0  0  0  0  0  0  0  0  0
   20.1844  -23.8033  -18.8782 C   0  0  0  0  0  0  0  0  0  0  0  0
   21.3524  -24.5839  -18.9757 C   0  0  0  0  0  0  0  0  0  0  0  0
   21.3295  -25.9646  -18.7109 O   0  0  0  0  0  0  0  0  0  0  0  0
   18.9148  -24.1033  -18.5551 N   0  0  0  0  0  0  0  0  0  0  0  0
   18.2134  -22.9849  -18.6185 C   0  0  0  0  0  0  0  0  0  0  0  0
   18.9919  -21.9798  -18.9736 N   0  0  0  0  0  0  0  0  0  0  0  0
  1  5  1  6  0  0  0
  1 14  1  0  0  0  0
  1 19  2  0  0  0  0
  1 23  1  0  0  0  0
  2 15  1  1  0  0  0
  2 20  2  0  0  0  0
  2 23  1  0  0  0  0
  2 24  1  0  0  0  0
  3 16  1  6  0  0  0
  3 21  1  0  0  0  0
  3 24  1  0  0  0  0
  3 25  2  0  0  0  0
  4  5  1  0  0  0  0
  6  4  1  1  0  0  0
  6  7  1  0  0  0  0
  6  8  1  0  0  0  0
  7 12  1  0  0  0  0
  8  9  1  6  0  0  0
  8 10  1  0  0  0  0
 10 11  1  1  0  0  0
 10 12  1  0  0  0  0
 12 32  1  6  0  0  0
 13 17  2  0  0  0  0
 13 28  1  0  0  0  0
 17 18  1  0  0  0  0
 17 22  1  0  0  0  0
 22 26  2  0  0  0  0
 26 27  1  0  0  0  0
 26 32  1  0  0  0  0
 27 28  2  0  0  0  0
 27 30  1  0  0  0  0
 28 29  1  0  0  0  0
 30 31  2  0  0  0  0
 31 32  1  0  0  0  0
M  CHG  3  14  -1  15  -1  21  -1
M  END
>  <CHROM.1>
-169.52823800,-62.57267109,55.60732066,59.62867516,-173.67499447,-148.02859181
-103.39519005,-60.09556018,17.38012329,-23.29440500,-18.86344461,2.81285373
-0.26094640,3.02987233

>  <Name>
ligand

>  <RI>
0

>  <Rbt.Current_Directory>
/home/itssahil/PROJECTS/Mol_Feturizer/New_Systems/rnas/4Y1I

>  <Rbt.Executable>
rbdock ($Id: //depot/dev/client3/rdock/2013.1/src/exe/rbdock.cxx#4 $)

>  <Rbt.Library>
libRbt.so (2013.1, Build901 2013/11/27)

>  <Rbt.Parameter_File>
/export/apps/rDock/src/rDock_2013.1_src/data/scripts/dock_solv.prm

>  <Rbt.Receptor>
prm/pocket_docking_5.prm

>  <SCORE>
-11.034

>  <SCORE.INTER>
-4.3735

>  <SCORE.INTER.CONST>
1

>  <SCORE.INTER.POLAR>
0

>  <SCORE.INTER.ROT>
8

>  <SCORE.INTER.SOLV>
9.62784

>  <SCORE.INTER.VDW>
-15.0583

>  <SCORE.INTER.norm>
-0.136672

>  <SCORE.INTRA>
-6.66045

>  <SCORE.INTRA.DIHEDRAL>
-7.29033

>  <SCORE.INTRA.DIHEDRAL.0>
10.9594

>  <SCORE.INTRA.POLAR>
0

>  <SCORE.INTRA.POLAR.0>
0

>  <SCORE.INTRA.REPUL>
0

>  <SCORE.INTRA.REPUL.0>
0

>  <SCORE.INTRA.SOLV>
-3.02181

>  <SCORE.INTRA.SOLV.lig_0>
-124.914

>  <SCORE.INTRA.VDW>
-1.50438

>  <SCORE.INTRA.VDW.0>
-4.69801

>  <SCORE.INTRA.norm>
-0.208139

>  <SCORE.RESTR>
0

>  <SCORE.RESTR.CAVITY>
0

>  <SCORE.RESTR.norm>
0

>  <SCORE.SYSTEM>
0

>  <SCORE.SYSTEM.CONST>
0

>  <SCORE.SYSTEM.DIHEDRAL>
0

>  <SCORE.SYSTEM.SOLV>
0

>  <SCORE.SYSTEM.norm>
0

>  <SCORE.heavy>
32

>  <SCORE.norm>
-0.344811

>  <RMSD>
6.005

$$$$
ligand
 OpenBabel11021811513D
libRbt.so/2013.1/901 2013/11/27
 32 34  0  0  0  0  0  0  0  0999 V2000
   18.0312  -25.4288  -23.0159 P   0  0  1  0  0  0  0  0  0  0  0  0
   15.4879  -26.3861  -23.9357 P   0  0  2  0  0  0  0  0  0  0  0  0
   14.4143  -28.9203  -22.9155 P   0  0  1  0  0  0  0  0  0  0  0  0
   18.0184  -23.2467  -21.5913 C   0  0  0  0  0  0  0  0  0  0  0  0
   17.2789  -24.3539  -22.0215 O   0  0  0  0  0  0  0  0  0  0  0  0
   17.2559  -22.4948  -20.7044 C   0  0  1  0  0  0  0  0  0  0  0  0
   16.8063  -23.3633  -19.5452 O   0  0  0  0  0  0  0  0  0  0  0  0
   18.1132  -21.3122  -20.0576 C   0  0  1  0  0  0  0  0  0  0  0  0
   17.5489  -19.9814  -20.5012 O   0  0  0  0  0  0  0  0  0  0  0  0
   17.9428  -21.3944  -18.8388 C   0  0  1  0  0  0  0  0  0  0  0  0
   16.8755  -20.4515  -18.4270 O   0  0  0  0  0  0  0  0  0  0  0  0
   17.4679  -22.9614  -18.5337 C   0  0  2  0  0  0  0  0  0  0  0  0
   22.4743  -23.7641  -19.3570 N   0  0  0  0  0  0  0  0  0  0  0  0
   18.4015  -24.7531  -24.3130 O   0  5  0  0  0  0  0  0  0  0  0  0
   15.5749  -25.6814  -25.2661 O   0  5  0  0  0  0  0  0  0  0  0  0
   15.7407  -29.3093  -22.3059 O   0  0  0  0  0  0  0  0  0  0  0  0
   21.7283  -22.7533  -19.7748 C   0  0  0  0  0  0  0  0  0  0  0  0
   22.3336  -21.7037  -20.5695 N   0  0  0  0  0  0  0  0  0  0  0  0
   19.2596  -25.9621  -22.3139 O   0  0  0  0  0  0  0  0  0  0  0  0
   14.7358  -25.5236  -22.9563 O   0  0  0  0  0  0  0  0  0  0  0  0
   13.5440  -28.2921  -21.8489 O   0  5  0  0  0  0  0  0  0  0  0  0
   20.4447  -22.6676  -19.4909 N   0  0  0  0  0  0  0  0  0  0  0  0
   16.9917  -26.6597  -23.3370 O   0  0  0  0  0  0  0  0  0  0  0  0
   14.7055  -27.8220  -24.1148 O   0  0  0  0  0  0  0  0  0  0  0  0
   13.7480  -30.1573  -23.4769 O   0  0  0  0  0  0  0  0  0  0  0  0
   19.8471  -23.6161  -18.7597 C   0  0  0  0  0  0  0  0  0  0  0  0
   20.6019  -24.6814  -18.3118 C   0  0  0  0  0  0  0  0  0  0  0  0
   21.9726  -24.7516  -18.6268 C   0  0  0  0  0  0  0  0  0  0  0  0
   22.7673  -25.8239  -18.1844 O   0  0  0  0  0  0  0  0  0  0  0  0
   19.7880  -25.4881  -17.6097 N   0  0  0  0  0  0  0  0  0  0  0  0
   18.5826  -24.9462  -17.6231 C   0  0  0  0  0  0  0  0  0  0  0  0
   18.5980  -23.8206  -18.3125 N   0  0  0  0  0  0  0  0  0  0  0  0
  1  5  1  1  0  0  0
  1 14  1  0  0  0  0
  1 19  2  0  0  0  0
  1 23  1  0  0  0  0
  2 15  1  6  0  0  0
  2 20  2  0  0  0  0
  2 23  1  0  0  0  0
  2 24  1  0  0  0  0
  3 16  1  1  0  0  0
  3 21  1  0  0  0  0
  3 24  1  0  0  0  0
  3 25  2  0  0  0  0
  4  5  1  0  0  0  0
  6  4  1  6  0  0  0
  6  7  1  0  0  0  0
  6  8  1  0  0  0  0
  7 12  1  0  0  0  0
  8  9  1  6  0  0  0
  8 10  1  0  0  0  0
 10 11  1  6  0  0  0
 10 12  1  0  0  0  0
 12 32  1  6  0  0  0
 13 17  2  0  0  0  0
 13 28  1  0  0  0  0
 17 18  1  0  0  0  0
 17 22  1  0  0  0  0
 22 26  2  0  0  0  0
 26 27  1  0  0  0  0
 26 32  1  0  0  0  0
 27 28  2  0  0  0  0
 27 30  1  0  0  0  0
 28 29  1  0  0  0  0
 30 31  2  0  0  0  0
 31 32  1  0  0  0  0
M  CHG  3  14  -1  15  -1  21  -1
M  END
>  <CHROM.1>
-63.23496554,60.18152750,-57.20792907,56.54560539,-176.56293286,94.92531944
53.94702593,178.97569917,17.71173526,-24.94581225,-21.19516435,-2.37599072
-0.55345041,0.22452783

>  <Name>
ligand

>  <RI>
0

>  <Rbt.Current_Directory>
/home/itssahil/PROJECTS/Mol_Feturizer/New_Systems/rnas/4Y1I

>  <Rbt.Executable>
rbdock ($Id: //depot/dev/client3/rdock/2013.1/src/exe/rbdock.cxx#4 $)

>  <Rbt.Library>
libRbt.so (2013.1, Build901 2013/11/27)

>  <Rbt.Parameter_File>
/export/apps/rDock/src/rDock_2013.1_src/data/scripts/dock_solv.prm

>  <Rbt.Receptor>
prm/pocket_docking_7.prm

>  <SCORE>
-7.096

>  <SCORE.INTER>
0.16852

>  <SCORE.INTER.CONST>
1

>  <SCORE.INTER.POLAR>
0

>  <SCORE.INTER.ROT>
8

>  <SCORE.INTER.SOLV>
4.95116

>  <SCORE.INTER.VDW>
-10.4714

>  <SCORE.INTER.norm>
0.00526624

>  <SCORE.INTRA>
-7.26452

>  <SCORE.INTRA.DIHEDRAL>
-9.53372

>  <SCORE.INTRA.DIHEDRAL.0>
10.9594

>  <SCORE.INTRA.POLAR>
0

>  <SCORE.INTRA.POLAR.0>
0

>  <SCORE.INTRA.REPUL>
0

>  <SCORE.INTRA.REPUL.0>
0

>  <SCORE.INTRA.SOLV>
-4.4907

>  <SCORE.INTRA.SOLV.lig_0>
-124.914

>  <SCORE.INTRA.VDW>
-0.252307

>  <SCORE.INTRA.VDW.0>
-4.69801

>  <SCORE.INTRA.norm>
-0.227016

>  <SCORE.RESTR>
0

>  <SCORE.RESTR.CAVITY>
0

>  <SCORE.RESTR.norm>
0

>  <SCORE.SYSTEM>
0

>  <SCORE.SYSTEM.CONST>
0

>  <SCORE.SYSTEM.DIHEDRAL>
0

>  <SCORE.SYSTEM.SOLV>
0

>  <SCORE.SYSTEM.norm>
0

>  <SCORE.heavy>
32

>  <SCORE.norm>
-0.22175

>  <RMSD>
6.018

$$$$
ligand
 OpenBabel11021811513D
libRbt.so/2013.1/901 2013/11/27
 32 34  0  0  0  0  0  0  0  0999 V2000
   19.2675  -23.9718  -18.8650 P   0  0  1  0  0  0  0  0  0  0  0  0
   21.0008  -26.1463  -18.1591 P   0  0  2  0  0  0  0  0  0  0  0  0
   19.7135  -28.5472  -17.0665 P   0  0  1  0  0  0  0  0  0  0  0  0
   20.4660  -22.1767  -20.3254 C   0  0  0  0  0  0  0  0  0  0  0  0
   19.5085  -22.4118  -19.3325 O   0  0  0  0  0  0  0  0  0  0  0  0
   20.5627  -20.8102  -20.5634 C   0  0  1  0  0  0  0  0  0  0  0  0
   19.2648  -20.2962  -21.1561 O   0  0  0  0  0  0  0  0  0  0  0  0
   20.7754  -19.9966  -19.2051 C   0  0  1  0  0  0  0  0  0  0  0  0
   22.1356  -19.3366  -19.2222 O   0  0  0  0  0  0  0  0  0  0  0  0
   19.9316  -19.0970  -19.2108 C   0  0  1  0  0  0  0  0  0  0  0  0
   20.5496  -17.8466  -19.7131 O   0  0  0  0  0  0  0  0  0  0  0  0
   18.7227  -19.5907  -20.2446 C   0  0  2  0  0  0  0  0  0  0  0  0
   15.0593  -23.1725  -20.6120 N   0  0  0  0  0  0  0  0  0  0  0  0
   18.1770  -24.0312  -17.8242 O   0  5  0  0  0  0  0  0  0  0  0  0
   22.3778  -26.3723  -17.5873 O   0  5  0  0  0  0  0  0  0  0  0  0
   18.6706  -28.8069  -16.0048 O   0  0  0  0  0  0  0  0  0  0  0  0
   15.8291  -22.6881  -21.5740 C   0  0  0  0  0  0  0  0  0  0  0  0
   15.6744  -23.1846  -22.9265 N   0  0  0  0  0  0  0  0  0  0  0  0
   18.8999  -24.7918  -20.0810 O   0  0  0  0  0  0  0  0  0  0  0  0
   20.9432  -26.6862  -19.5641 O   0  0  0  0  0  0  0  0  0  0  0  0
   19.2484  -29.1474  -18.3753 O   0  5  0  0  0  0  0  0  0  0  0  0
   16.7381  -21.7631  -21.3428 N   0  0  0  0  0  0  0  0  0  0  0  0
   20.6608  -24.5410  -18.2065 O   0  0  0  0  0  0  0  0  0  0  0  0
   19.8787  -26.9116  -17.2313 O   0  0  0  0  0  0  0  0  0  0  0  0
   21.0219  -29.1735  -16.6361 O   0  0  0  0  0  0  0  0  0  0  0  0
   16.9128  -21.2775  -20.1077 C   0  0  0  0  0  0  0  0  0  0  0  0
   16.1229  -21.7652  -19.0863 C   0  0  0  0  0  0  0  0  0  0  0  0
   15.1580  -22.7546  -19.3568 C   0  0  0  0  0  0  0  0  0  0  0  0
   14.3391  -23.2710  -18.3371 O   0  0  0  0  0  0  0  0  0  0  0  0
   16.4828  -21.1309  -17.9574 N   0  0  0  0  0  0  0  0  0  0  0  0
   17.4524  -20.2877  -18.2669 C   0  0  0  0  0  0  0  0  0  0  0  0
   17.7229  -20.3599  -19.5568 N   0  0  0  0  0  0  0  0  0  0  0  0
  1  5  1  6  0  0  0
  1 14  1  0  0  0  0
  1 19  2  0  0  0  0
  1 23  1  0  0  0  0
  2 15  1  1  0  0  0
  2 20  2  0  0  0  0
  2 23  1  0  0  0  0
  2 24  1  0  0  0  0
  3 16  1  1  0  0  0
  3 21  1  0  0  0  0
  3 24  1  0  0  0  0
  3 25  2  0  0  0  0
  4  5  1  0  0  0  0
  6  4  1  1  0  0  0
  6  7  1  0  0  0  0
  6  8  1  0  0  0  0
  7 12  1  0  0  0  0
  8  9  1  6  0  0  0
  8 10  1  0  0  0  0
 10 11  1  6  0  0  0
 10 12  1  0  0  0  0
 12 32  1  1  0  0  0
 13 17  2  0  0  0  0
 13 28  1  0  0  0  0
 17 18  1  0  0  0  0
 17 22  1  0  0  0  0
 22 26  2  0  0  0  0
 26 27  1  0  0  0  0
 26 32  1  0  0  0  0
 27 28  2  0  0  0  0
 27 30  1  0  0  0  0
 28 29  1  0  0  0  0
 30 31  2  0  0  0  0
 31 32  1  0  0  0  0
M  CHG  3  14  -1  15  -1  21  -1
M  END
>  <CHROM.1>
-178.30304947,176.21049396,173.56396601,-65.66723528,-178.24883808,-35.60041049
-156.11014415,-67.37890128,18.94281525,-23.62504895,-19.01387248,-1.34263406
-0.20126416,-0.28328310

>  <Name>
ligand

>  <RI>
0

>  <Rbt.Current_Directory>
/home/itssahil/PROJECTS/Mol_Feturizer/New_Systems/rnas/4Y1I

>  <Rbt.Executable>
rbdock ($Id: //depot/dev/client3/rdock/2013.1/src/exe/rbdock.cxx#4 $)

>  <Rbt.Library>
libRbt.so (2013.1, Build901 2013/11/27)

>  <Rbt.Parameter_File>
/export/apps/rDock/src/rDock_2013.1_src/data/scripts/dock_solv.prm

>  <Rbt.Receptor>
prm/pocket_docking_5.prm

>  <SCORE>
-9.8404

>  <SCORE.INTER>
-3.18803

>  <SCORE.INTER.CONST>
1

>  <SCORE.INTER.POLAR>
0

>  <SCORE.INTER.ROT>
8

>  <SCORE.INTER.SOLV>
16.5332

>  <SCORE.INTER.VDW>
-16.5698

>  <SCORE.INTER.norm>
-0.0996259

>  <SCORE.INTRA>
-6.66825

>  <SCORE.INTRA.DIHEDRAL>
-8.59104

>  <SCORE.INTRA.DIHEDRAL.0>
10.9594

>  <SCORE.INTRA.POLAR>
0

>  <SCORE.INTRA.POLAR.0>
0

>  <SCORE.INTRA.REPUL>
0

>  <SCORE.INTRA.REPUL.0>
0

>  <SCORE.INTRA.SOLV>
-1.35582

>  <SCORE.INTRA.SOLV.lig_0>
-124.914

>  <SCORE.INTRA.VDW>
-1.69482

>  <SCORE.INTRA.VDW.0>
-4.69801

>  <SCORE.INTRA.norm>
-0.208383

>  <SCORE.RESTR>
0.015882

>  <SCORE.RESTR.CAVITY>
0.015882

>  <SCORE.RESTR.norm>
0.000496314

>  <SCORE.SYSTEM>
0

>  <SCORE.SYSTEM.CONST>
0

>  <SCORE.SYSTEM.DIHEDRAL>
0

>  <SCORE.SYSTEM.SOLV>
0

>  <SCORE.SYSTEM.norm>
0

>  <SCORE.heavy>
32

>  <SCORE.norm>
-0.307512

>  <RMSD>
6.020

$$$$
ligand
 OpenBabel11021811513D
libRbt.so/2013.1/901 2013/11/27
 32 34  0  0  0  0  0  0  0  0999 V2000
   15.4299  -24.0830  -16.3839 P   0  0  1  0  0  0  0  0  0  0  0  0
   17.6109  -25.2671  -17.8235 P   0  0  2  0  0  0  0  0  0  0  0  0
   16.7147  -26.5724  -20.2950 P   0  0  1  0  0  0  0  0  0  0  0  0
   15.6049  -22.4549  -18.4113 C   0  0  0  0  0  0  0  0  0  0  0  0
   15.5769  -22.5705  -17.0171 O   0  0  0  0  0  0  0  0  0  0  0  0
   15.5366  -21.1127  -18.7678 C   0  0  1  0  0  0  0  0  0  0  0  0
   16.8290  -20.4128  -18.3941 O   0  0  0  0  0  0  0  0  0  0  0  0
   15.3859  -20.9375  -20.3485 C   0  0  1  0  0  0  0  0  0  0  0  0
   14.0433  -20.3154  -20.6596 O   0  0  0  0  0  0  0  0  0  0  0  0
   16.2522  -20.1269  -20.6859 C   0  0  1  0  0  0  0  0  0  0  0  0
   15.6520  -18.7741  -20.7738 O   0  0  0  0  0  0  0  0  0  0  0  0
   17.4163  -20.1578  -19.4952 C   0  0  2  0  0  0  0  0  0  0  0  0
   19.4606  -23.3704  -22.9428 N   0  0  0  0  0  0  0  0  0  0  0  0
   14.9604  -23.9951  -14.9529 O   0  5  0  0  0  0  0  0  0  0  0  0
   18.8407  -26.0946  -17.5457 O   0  5  0  0  0  0  0  0  0  0  0  0
   18.0877  -27.1796  -20.4638 O   0  0  0  0  0  0  0  0  0  0  0  0
   18.4442  -22.5373  -23.1030 C   0  0  0  0  0  0  0  0  0  0  0  0
   17.7757  -22.4696  -24.3868 N   0  0  0  0  0  0  0  0  0  0  0  0
   14.4514  -24.8693  -17.2269 O   0  0  0  0  0  0  0  0  0  0  0  0
   17.9985  -24.0280  -18.5870 O   0  0  0  0  0  0  0  0  0  0  0  0
   15.6688  -27.6013  -20.6653 O   0  5  0  0  0  0  0  0  0  0  0  0
   18.0160  -21.7614  -22.1282 N   0  0  0  0  0  0  0  0  0  0  0  0
   16.9038  -24.8079  -16.4150 O   0  0  0  0  0  0  0  0  0  0  0  0
   16.5371  -26.1434  -18.7095 O   0  0  0  0  0  0  0  0  0  0  0  0
   16.5988  -25.3586  -21.1909 O   0  0  0  0  0  0  0  0  0  0  0  0
   18.6057  -21.7934  -20.9271 C   0  0  0  0  0  0  0  0  0  0  0  0
   19.6676  -22.6536  -20.7331 C   0  0  0  0  0  0  0  0  0  0  0  0
   20.1087  -23.4732  -21.7898 C   0  0  0  0  0  0  0  0  0  0  0  0
   21.1879  -24.3588  -21.6226 O   0  0  0  0  0  0  0  0  0  0  0  0
   20.0836  -22.5041  -19.4639 N   0  0  0  0  0  0  0  0  0  0  0  0
   19.3128  -21.5920  -18.8975 C   0  0  0  0  0  0  0  0  0  0  0  0
   18.4160  -21.1548  -19.7617 N   0  0  0  0  0  0  0  0  0  0  0  0
  1  5  1  6  0  0  0
  1 14  1  0  0  0  0
  1 19  2  0  0  0  0
  1 23  1  0  0  0  0
  2 15  1  1  0  0  0
  2 20  2  0  0  0  0
  2 23  1  0  0  0  0
  2 24  1  0  0  0  0
  3 16  1  6  0  0  0
  3 21  1  0  0  0  0
  3 24  1  0  0  0  0
  3 25  2  0  0  0  0
  4  5  1  0  0  0  0
  6  4  1  6  0  0  0
  6  7  1  0  0  0  0
  6  8  1  0  0  0  0
  7 12  1  0  0  0  0
  8  9  1  1  0  0  0
  8 10  1  0  0  0  0
 10 11  1  1  0  0  0
 10 12  1  0  0  0  0
 12 32  1  6  0  0  0
 13 17  2  0  0  0  0
 13 28  1  0  0  0  0
 17 18  1  0  0  0  0
 17 22  1  0  0  0  0
 22 26  2  0  0  0  0
 26 27  1  0  0  0  0
 26 32  1  0  0  0  0
 27 28  2  0  0  0  0
 27 30  1  0  0  0  0
 28 29  1  0  0  0  0
 30 31  2  0  0  0  0
 31 32  1  0  0  0  0
M  CHG  3  14  -1  15  -1  21  -1
M  END
>  <CHROM.1>
-161.18475343,-171.00899193,49.59496058,69.93054587,171.42733864,133.11209307
-69.77005521,-70.72610394,17.15446871,-23.43903527,-19.47957770,2.11776427
-0.92973094,2.76190942

>  <Name>
ligand

>  <RI>
0

>  <Rbt.Current_Directory>
/home/itssahil/PROJECTS/Mol_Feturizer/New_Systems/rnas/4Y1I

>  <Rbt.Executable>
rbdock ($Id: //depot/dev/client3/rdock/2013.1/src/exe/rbdock.cxx#4 $)

>  <Rbt.Library>
libRbt.so (2013.1, Build901 2013/11/27)

>  <Rbt.Parameter_File>
/export/apps/rDock/src/rDock_2013.1_src/data/scripts/dock_solv.prm

>  <Rbt.Receptor>
prm/pocket_docking_8.prm

>  <SCORE>
-4.72846

>  <SCORE.INTER>
1.2971

>  <SCORE.INTER.CONST>
1

>  <SCORE.INTER.POLAR>
0

>  <SCORE.INTER.ROT>
8

>  <SCORE.INTER.SOLV>
10.259

>  <SCORE.INTER.VDW>
-11.4883

>  <SCORE.INTER.norm>
0.0405343

>  <SCORE.INTRA>
-6.02556

>  <SCORE.INTRA.DIHEDRAL>
-7.77679

>  <SCORE.INTRA.DIHEDRAL.0>
10.9594

>  <SCORE.INTRA.POLAR>
0

>  <SCORE.INTRA.POLAR.0>
0

>  <SCORE.INTRA.REPUL>
0

>  <SCORE.INTRA.REPUL.0>
0

>  <SCORE.INTRA.SOLV>
-1.32453

>  <SCORE.INTRA.SOLV.lig_0>
-124.914

>  <SCORE.INTRA.VDW>
-1.4749

>  <SCORE.INTRA.VDW.0>
-4.69801

>  <SCORE.INTRA.norm>
-0.188299

>  <SCORE.RESTR>
0

>  <SCORE.RESTR.CAVITY>
0

>  <SCORE.RESTR.norm>
0

>  <SCORE.SYSTEM>
0

>  <SCORE.SYSTEM.CONST>
0

>  <SCORE.SYSTEM.DIHEDRAL>
0

>  <SCORE.SYSTEM.SOLV>
0

>  <SCORE.SYSTEM.norm>
0

>  <SCORE.heavy>
32

>  <SCORE.norm>
-0.147764

>  <RMSD>
6.034

$$$$
ligand
 OpenBabel11021811513D
libRbt.so/2013.1/901 2013/11/27
 32 34  0  0  0  0  0  0  0  0999 V2000
   14.4538  -22.5979  -17.8299 P   0  0  1  0  0  0  0  0  0  0  0  0
   13.1852  -21.3279  -20.0679 P   0  0  2  0  0  0  0  0  0  0  0  0
   14.1828  -23.1242  -22.1639 P   0  0  1  0  0  0  0  0  0  0  0  0
   16.9239  -23.3888  -18.0839 C   0  0  0  0  0  0  0  0  0  0  0  0
   15.7072  -23.1616  -18.7364 O   0  0  0  0  0  0  0  0  0  0  0  0
   17.8230  -23.9747  -18.9680 C   0  0  1  0  0  0  0  0  0  0  0  0
   18.0510  -23.0588  -20.1551 O   0  0  0  0  0  0  0  0  0  0  0  0
   19.2558  -24.1780  -18.2913 C   0  0  1  0  0  0  0  0  0  0  0  0
   19.5548  -25.6560  -18.1815 O   0  0  0  0  0  0  0  0  0  0  0  0
   20.0755  -23.6958  -19.0769 C   0  0  1  0  0  0  0  0  0  0  0  0
   20.6448  -24.7761  -19.9176 O   0  0  0  0  0  0  0  0  0  0  0  0
   19.2381  -22.6149  -20.0278 C   0  0  2  0  0  0  0  0  0  0  0  0
   21.9524  -18.4817  -18.6366 N   0  0  0  0  0  0  0  0  0  0  0  0
   14.0991  -23.6057  -16.7647 O   0  5  0  0  0  0  0  0  0  0  0  0
   14.4799  -20.5546  -20.0691 O   0  5  0  0  0  0  0  0  0  0  0  0
   14.5844  -24.1662  -21.1464 O   0  0  0  0  0  0  0  0  0  0  0  0
   22.3905  -19.5956  -19.2023 C   0  0  0  0  0  0  0  0  0  0  0  0
   23.8025  -19.7367  -19.4954 N   0  0  0  0  0  0  0  0  0  0  0  0
   14.8562  -21.2775  -17.2128 O   0  0  0  0  0  0  0  0  0  0  0  0
   12.0286  -20.3749  -19.9170 O   0  0  0  0  0  0  0  0  0  0  0  0
   13.6109  -23.8159  -23.3821 O   0  5  0  0  0  0  0  0  0  0  0  0
   21.5810  -20.5882  -19.5107 N   0  0  0  0  0  0  0  0  0  0  0  0
   13.1540  -22.3838  -18.8114 O   0  0  0  0  0  0  0  0  0  0  0  0
   13.0302  -22.1588  -21.4791 O   0  0  0  0  0  0  0  0  0  0  0  0
   15.4009  -22.3111  -22.5441 O   0  0  0  0  0  0  0  0  0  0  0  0
   20.2699  -20.4982  -19.2564 C   0  0  0  0  0  0  0  0  0  0  0  0
   19.7870  -19.3476  -18.6666 C   0  0  0  0  0  0  0  0  0  0  0  0
   20.6708  -18.2991  -18.3465 C   0  0  0  0  0  0  0  0  0  0  0  0
   20.2084  -17.1149  -17.7457 O   0  0  0  0  0  0  0  0  0  0  0  0
   18.4598  -19.4958  -18.5157 N   0  0  0  0  0  0  0  0  0  0  0  0
   18.1360  -20.6859  -18.9908 C   0  0  0  0  0  0  0  0  0  0  0  0
   19.2125  -21.3047  -19.4384 N   0  0  0  0  0  0  0  0  0  0  0  0
  1  5  1  6  0  0  0
  1 14  1  0  0  0  0
  1 19  2  0  0  0  0
  1 23  1  0  0  0  0
  2 15  1  1  0  0  0
  2 20  2  0  0  0  0
  2 23  1  0  0  0  0
  2 24  1  0  0  0  0
  3 16  1  1  0  0  0
  3 21  1  0  0  0  0
  3 24  1  0  0  0  0
  3 25  2  0  0  0  0
  4  5  1  0  0  0  0
  6  4  1  1  0  0  0
  6  7  1  0  0  0  0
  6  8  1  0  0  0  0
  7 12  1  0  0  0  0
  8  9  1  6  0  0  0
  8 10  1  0  0  0  0
 10 11  1  6  0  0  0
 10 12  1  0  0  0  0
 12 32  1  1  0  0  0
 13 17  2  0  0  0  0
 13 28  1  0  0  0  0
 17 18  1  0  0  0  0
 17 22  1  0  0  0  0
 22 26  2  0  0  0  0
 26 27  1  0  0  0  0
 26 32  1  0  0  0  0
 27 28  2  0  0  0  0
 27 30  1  0  0  0  0
 28 29  1  0  0  0  0
 30 31  2  0  0  0  0
 31 32  1  0  0  0  0
M  CHG  3  14  -1  15  -1  21  -1
M  END
>  <CHROM.1>
-62.19174491,-5.15839949,55.62681950,59.77212507,174.54526573,-174.41363569
-61.63817236,49.23782052,17.00380979,-21.91078215,-19.48650403,2.82965354
0.12701333,-2.92679066

>  <Name>
ligand

>  <RI>
0

>  <Rbt.Current_Directory>
/home/itssahil/PROJECTS/Mol_Feturizer/New_Systems/rnas/4Y1I

>  <Rbt.Executable>
rbdock ($Id: //depot/dev/client3/rdock/2013.1/src/exe/rbdock.cxx#4 $)

>  <Rbt.Library>
libRbt.so (2013.1, Build901 2013/11/27)

>  <Rbt.Parameter_File>
/export/apps/rDock/src/rDock_2013.1_src/data/scripts/dock_solv.prm

>  <Rbt.Receptor>
prm/pocket_docking_8.prm

>  <SCORE>
-8.75999

>  <SCORE.INTER>
-2.46831

>  <SCORE.INTER.CONST>
1

>  <SCORE.INTER.POLAR>
0

>  <SCORE.INTER.ROT>
8

>  <SCORE.INTER.SOLV>
10.7615

>  <SCORE.INTER.VDW>
-14.166

>  <SCORE.INTER.norm>
-0.0771346

>  <SCORE.INTRA>
-6.29169

>  <SCORE.INTRA.DIHEDRAL>
-6.98737

>  <SCORE.INTRA.DIHEDRAL.0>
10.9594

>  <SCORE.INTRA.POLAR>
0

>  <SCORE.INTRA.POLAR.0>
0

>  <SCORE.INTRA.REPUL>
0

>  <SCORE.INTRA.REPUL.0>
0

>  <SCORE.INTRA.SOLV>
-3.8592

>  <SCORE.INTRA.SOLV.lig_0>
-124.914

>  <SCORE.INTRA.VDW>
-0.868401

>  <SCORE.INTRA.VDW.0>
-4.69801

>  <SCORE.INTRA.norm>
-0.196615

>  <SCORE.RESTR>
0

>  <SCORE.RESTR.CAVITY>
0

>  <SCORE.RESTR.norm>
0

>  <SCORE.SYSTEM>
0

>  <SCORE.SYSTEM.CONST>
0

>  <SCORE.SYSTEM.DIHEDRAL>
0

>  <SCORE.SYSTEM.SOLV>
0

>  <SCORE.SYSTEM.norm>
0

>  <SCORE.heavy>
32

>  <SCORE.norm>
-0.27375

>  <RMSD>
6.040

$$$$
ligand
 OpenBabel11021811513D
libRbt.so/2013.1/901 2013/11/27
 32 34  0  0  0  0  0  0  0  0999 V2000
   14.0762  -21.7298  -18.0737 P   0  0  1  0  0  0  0  0  0  0  0  0
   13.8132  -23.9810  -16.3148 P   0  0  2  0  0  0  0  0  0  0  0  0
   11.2921  -25.4834  -16.3588 P   0  0  1  0  0  0  0  0  0  0  0  0
   16.5810  -21.0575  -18.3295 C   0  0  0  0  0  0  0  0  0  0  0  0
   15.2934  -20.9563  -18.8677 O   0  0  0  0  0  0  0  0  0  0  0  0
   17.4957  -20.4763  -19.2006 C   0  0  1  0  0  0  0  0  0  0  0  0
   18.9067  -20.6963  -18.6900 O   0  0  0  0  0  0  0  0  0  0  0  0
   17.4413  -21.1607  -20.6431 C   0  0  1  0  0  0  0  0  0  0  0  0
   16.9638  -20.1502  -21.6614 O   0  0  0  0  0  0  0  0  0  0  0  0
   18.6066  -21.4465  -20.9292 C   0  0  1  0  0  0  0  0  0  0  0  0
   19.1798  -20.3774  -21.7815 O   0  0  0  0  0  0  0  0  0  0  0  0
   19.4380  -21.5343  -19.4887 C   0  0  2  0  0  0  0  0  0  0  0  0
   22.0383  -25.7799  -18.2244 N   0  0  0  0  0  0  0  0  0  0  0  0
   13.5259  -20.8382  -16.9882 O   0  5  0  0  0  0  0  0  0  0  0  0
   13.3825  -23.1246  -15.1506 O   0  5  0  0  0  0  0  0  0  0  0  0
   11.9355  -26.6432  -15.6355 O   0  0  0  0  0  0  0  0  0  0  0  0
   22.5020  -24.6722  -18.7819 C   0  0  0  0  0  0  0  0  0  0  0  0
   23.9114  -24.5742  -19.1038 N   0  0  0  0  0  0  0  0  0  0  0  0
   13.0003  -22.0945  -19.0715 O   0  0  0  0  0  0  0  0  0  0  0  0
   14.6790  -25.1091  -15.8181 O   0  0  0  0  0  0  0  0  0  0  0  0
   10.5513  -24.6245  -15.3572 O   0  5  0  0  0  0  0  0  0  0  0  0
   21.7206  -23.6477  -19.0563 N   0  0  0  0  0  0  0  0  0  0  0  0
   14.6845  -23.0912  -17.3842 O   0  0  0  0  0  0  0  0  0  0  0  0
   12.4904  -24.5983  -17.0730 O   0  0  0  0  0  0  0  0  0  0  0  0
   10.3350  -26.0214  -17.4000 O   0  0  0  0  0  0  0  0  0  0  0  0
   20.4129  -23.6977  -18.7751 C   0  0  0  0  0  0  0  0  0  0  0  0
   19.9035  -24.8413  -18.1939 C   0  0  0  0  0  0  0  0  0  0  0  0
   20.7579  -25.9238  -17.9088 C   0  0  0  0  0  0  0  0  0  0  0  0
   20.2683  -27.1013  -17.3167 O   0  0  0  0  0  0  0  0  0  0  0  0
   18.5857  -24.6507  -18.0114 N   0  0  0  0  0  0  0  0  0  0  0  0
   18.2926  -23.4427  -18.4604 C   0  0  0  0  0  0  0  0  0  0  0  0
   19.3790  -22.8551  -18.9262 N   0  0  0  0  0  0  0  0  0  0  0  0
  1  5  1  6  0  0  0
  1 14  1  0  0  0  0
  1 19  2  0  0  0  0
  1 23  1  0  0  0  0
  2 15  1  1  0  0  0
  2 20  2  0  0  0  0
  2 23  1  0  0  0  0
  2 24  1  0  0  0  0
  3 16  1  1  0  0  0
  3 21  1  0  0  0  0
  3 24  1  0  0  0  0
  3 25  2  0  0  0  0
  4  5  1  0  0  0  0
  6  4  1  1  0  0  0
  6  7  1  0  0  0  0
  6  8  1  0  0  0  0
  7 12  1  0  0  0  0
  8  9  1  6  0  0  0
  8 10  1  0  0  0  0
 10 11  1  6  0  0  0
 10 12  1  0  0  0  0
 12 32  1  1  0  0  0
 13 17  2  0  0  0  0
 13 28  1  0  0  0  0
 17 18  1  0  0  0  0
 17 22  1  0  0  0  0
 22 26  2  0  0  0  0
 26 27  1  0  0  0  0
 26 32  1  0  0  0  0
 27 28  2  0  0  0  0
 27 30  1  0  0  0  0
 28 29  1  0  0  0  0
 30 31  2  0  0  0  0
 31 32  1  0  0  0  0
M  CHG  3  14  -1  15  -1  21  -1
M  END
>  <CHROM.1>
86.25284477,-56.97019933,-53.74846943,-174.67768794,173.41279532,-127.49093274
169.99745473,-55.22119174,16.33679799,-23.35391933,-18.04395702,2.89106374
-0.21383237,2.62412308

>  <Name>
ligand

>  <RI>
0

>  <Rbt.Current_Directory>
/home/itssahil/PROJECTS/Mol_Feturizer/New_Systems/rnas/4Y1I

>  <Rbt.Executable>
rbdock ($Id: //depot/dev/client3/rdock/2013.1/src/exe/rbdock.cxx#4 $)

>  <Rbt.Library>
libRbt.so (2013.1, Build901 2013/11/27)

>  <Rbt.Parameter_File>
/export/apps/rDock/src/rDock_2013.1_src/data/scripts/dock_solv.prm

>  <Rbt.Receptor>
prm/pocket_docking_7.prm

>  <SCORE>
-9.07518

>  <SCORE.INTER>
-3.36432

>  <SCORE.INTER.CONST>
1

>  <SCORE.INTER.POLAR>
0

>  <SCORE.INTER.ROT>
8

>  <SCORE.INTER.SOLV>
10.9081

>  <SCORE.INTER.VDW>
-14.8122

>  <SCORE.INTER.norm>
-0.105135

>  <SCORE.INTRA>
-5.71085

>  <SCORE.INTRA.DIHEDRAL>
-8.10771

>  <SCORE.INTRA.DIHEDRAL.0>
10.9594

>  <SCORE.INTRA.POLAR>
0

>  <SCORE.INTRA.POLAR.0>
0

>  <SCORE.INTRA.REPUL>
0

>  <SCORE.INTRA.REPUL.0>
0

>  <SCORE.INTRA.SOLV>
-4.64379

>  <SCORE.INTRA.SOLV.lig_0>
-124.914

>  <SCORE.INTRA.VDW>
0.664894

>  <SCORE.INTRA.VDW.0>
-4.69801

>  <SCORE.INTRA.norm>
-0.178464

>  <SCORE.RESTR>
0

>  <SCORE.RESTR.CAVITY>
0

>  <SCORE.RESTR.norm>
0

>  <SCORE.SYSTEM>
0

>  <SCORE.SYSTEM.CONST>
0

>  <SCORE.SYSTEM.DIHEDRAL>
0

>  <SCORE.SYSTEM.SOLV>
0

>  <SCORE.SYSTEM.norm>
0

>  <SCORE.heavy>
32

>  <SCORE.norm>
-0.283599

>  <RMSD>
6.046

$$$$
ligand
 OpenBabel11021811513D
libRbt.so/2013.1/901 2013/11/27
 32 34  0  0  0  0  0  0  0  0999 V2000
   16.5984  -23.5848  -21.8160 P   0  0  1  0  0  0  0  0  0  0  0  0
   14.1287  -25.0241  -21.5708 P   0  0  2  0  0  0  0  0  0  0  0  0
   13.7879  -27.1256  -23.5913 P   0  0  1  0  0  0  0  0  0  0  0  0
   16.9215  -21.0106  -21.5700 C   0  0  0  0  0  0  0  0  0  0  0  0
   17.2687  -22.2741  -21.0791 O   0  0  0  0  0  0  0  0  0  0  0  0
   17.3746  -20.0310  -20.6935 C   0  0  1  0  0  0  0  0  0  0  0  0
   16.6763  -20.1730  -19.3548 O   0  0  0  0  0  0  0  0  0  0  0  0
   18.9347  -20.1961  -20.3923 C   0  0  1  0  0  0  0  0  0  0  0  0
   19.6808  -18.9976  -20.9337 O   0  0  0  0  0  0  0  0  0  0  0  0
   19.0492  -20.1748  -19.1644 C   0  0  1  0  0  0  0  0  0  0  0  0
   19.4090  -18.8044  -18.7280 O   0  0  0  0  0  0  0  0  0  0  0  0
   17.5625  -20.5985  -18.5447 C   0  0  2  0  0  0  0  0  0  0  0  0
   19.9055  -25.1597  -18.8458 N   0  0  0  0  0  0  0  0  0  0  0  0
   16.7341  -23.4551  -23.3129 O   0  5  0  0  0  0  0  0  0  0  0  0
   12.6593  -24.7343  -21.3943 O   0  5  0  0  0  0  0  0  0  0  0  0
   14.3466  -27.3810  -24.9715 O   0  0  0  0  0  0  0  0  0  0  0  0
   20.4100  -23.9625  -19.1007 C   0  0  0  0  0  0  0  0  0  0  0  0
   21.7915  -23.8480  -19.5226 N   0  0  0  0  0  0  0  0  0  0  0  0
   17.2933  -24.8312  -21.3159 O   0  0  0  0  0  0  0  0  0  0  0  0
   14.5851  -25.9848  -20.5042 O   0  0  0  0  0  0  0  0  0  0  0  0
   14.2251  -28.2400  -22.6658 O   0  5  0  0  0  0  0  0  0  0  0  0
   19.6942  -22.8628  -18.9831 N   0  0  0  0  0  0  0  0  0  0  0  0
   15.0024  -23.6414  -21.4309 O   0  0  0  0  0  0  0  0  0  0  0  0
   14.3929  -25.6854  -23.0536 O   0  0  0  0  0  0  0  0  0  0  0  0
   12.2780  -27.0715  -23.6729 O   0  0  0  0  0  0  0  0  0  0  0  0
   18.4143  -22.9248  -18.5964 C   0  0  0  0  0  0  0  0  0  0  0  0
   17.8634  -24.1608  -18.3247 C   0  0  0  0  0  0  0  0  0  0  0  0
   18.6479  -25.3229  -18.4565 C   0  0  0  0  0  0  0  0  0  0  0  0
   18.1148  -26.5956  -18.1864 O   0  0  0  0  0  0  0  0  0  0  0  0
   16.5849  -23.9635  -17.9607 N   0  0  0  0  0  0  0  0  0  0  0  0
   16.3547  -22.6629  -18.0057 C   0  0  0  0  0  0  0  0  0  0  0  0
   17.4431  -22.0218  -18.3886 N   0  0  0  0  0  0  0  0  0  0  0  0
  1  5  1  1  0  0  0
  1 14  1  0  0  0  0
  1 19  2  0  0  0  0
  1 23  1  0  0  0  0
  2 15  1  1  0  0  0
  2 20  2  0  0  0  0
  2 23  1  0  0  0  0
  2 24  1  0  0  0  0
  3 16  1  6  0  0  0
  3 21  1  0  0  0  0
  3 24  1  0  0  0  0
  3 25  2  0  0  0  0
  4  5  1  0  0  0  0
  6  4  1  6  0  0  0
  6  7  1  0  0  0  0
  6  8  1  0  0  0  0
  7 12  1  0  0  0  0
  8  9  1  6  0  0  0
  8 10  1  0  0  0  0
 10 11  1  1  0  0  0
 10 12  1  0  0  0  0
 12 32  1  6  0  0  0
 13 17  2  0  0  0  0
 13 28  1  0  0  0  0
 17 18  1  0  0  0  0
 17 22  1  0  0  0  0
 22 26  2  0  0  0  0
 26 27  1  0  0  0  0
 26 32  1  0  0  0  0
 27 28  2  0  0  0  0
 27 30  1  0  0  0  0
 28 29  1  0  0  0  0
 30 31  2  0  0  0  0
 31 32  1  0  0  0  0
M  CHG  3  14  -1  15  -1  21  -1
M  END
>  <CHROM.1>
47.89963138,-169.78557438,-176.69464622,-63.61429370,169.25306938,124.32049685
-160.09849346,-62.72310494,16.69415766,-23.74027813,-20.72816421,2.51337339
0.70883255,3.01771937

>  <Name>
ligand

>  <RI>
0

>  <Rbt.Current_Directory>
/home/itssahil/PROJECTS/Mol_Feturizer/New_Systems/rnas/4Y1I

>  <Rbt.Executable>
rbdock ($Id: //depot/dev/client3/rdock/2013.1/src/exe/rbdock.cxx#4 $)

>  <Rbt.Library>
libRbt.so (2013.1, Build901 2013/11/27)

>  <Rbt.Parameter_File>
/export/apps/rDock/src/rDock_2013.1_src/data/scripts/dock_solv.prm

>  <Rbt.Receptor>
prm/pocket_docking_6.prm

>  <SCORE>
-6.13371

>  <SCORE.INTER>
0.419461

>  <SCORE.INTER.CONST>
1

>  <SCORE.INTER.POLAR>
0

>  <SCORE.INTER.ROT>
8

>  <SCORE.INTER.SOLV>
7.38414

>  <SCORE.INTER.VDW>
-11.1151

>  <SCORE.INTER.norm>
0.0131082

>  <SCORE.INTRA>
-6.55317

>  <SCORE.INTRA.DIHEDRAL>
-8.14864

>  <SCORE.INTRA.DIHEDRAL.0>
10.9594

>  <SCORE.INTRA.POLAR>
0

>  <SCORE.INTRA.POLAR.0>
0

>  <SCORE.INTRA.REPUL>
0

>  <SCORE.INTRA.REPUL.0>
0

>  <SCORE.INTRA.SOLV>
-0.939427

>  <SCORE.INTRA.SOLV.lig_0>
-124.914

>  <SCORE.INTRA.VDW>
-2.00914

>  <SCORE.INTRA.VDW.0>
-4.69801

>  <SCORE.INTRA.norm>
-0.204787

>  <SCORE.RESTR>
0

>  <SCORE.RESTR.CAVITY>
0

>  <SCORE.RESTR.norm>
0

>  <SCORE.SYSTEM>
0

>  <SCORE.SYSTEM.CONST>
0

>  <SCORE.SYSTEM.DIHEDRAL>
0

>  <SCORE.SYSTEM.SOLV>
0

>  <SCORE.SYSTEM.norm>
0

>  <SCORE.heavy>
32

>  <SCORE.norm>
-0.191678

>  <RMSD>
6.088

$$$$
ligand
 OpenBabel11021811513D
libRbt.so/2013.1/901 2013/11/27
 32 34  0  0  0  0  0  0  0  0999 V2000
   16.4953  -25.7632  -16.6834 P   0  0  1  0  0  0  0  0  0  0  0  0
   18.5730  -27.2886  -17.9432 P   0  0  2  0  0  0  0  0  0  0  0  0
   20.0393  -24.8587  -18.6922 P   0  0  1  0  0  0  0  0  0  0  0  0
   15.0624  -24.4533  -18.4220 C   0  0  0  0  0  0  0  0  0  0  0  0
   15.1096  -24.9966  -17.1333 O   0  0  0  0  0  0  0  0  0  0  0  0
   13.9042  -23.6976  -18.5655 C   0  0  1  0  0  0  0  0  0  0  0  0
   14.0230  -22.4139  -17.7669 O   0  0  0  0  0  0  0  0  0  0  0  0
   13.6862  -23.2496  -20.0834 C   0  0  1  0  0  0  0  0  0  0  0  0
   12.4331  -23.9000  -20.6246 O   0  0  0  0  0  0  0  0  0  0  0  0
   13.4842  -22.0332  -20.0542 C   0  0  1  0  0  0  0  0  0  0  0  0
   12.0242  -21.7767  -20.0762 O   0  0  0  0  0  0  0  0  0  0  0  0
   14.1387  -21.4804  -18.6259 C   0  0  2  0  0  0  0  0  0  0  0  0
   17.5964  -18.7597  -21.2767 N   0  0  0  0  0  0  0  0  0  0  0  0
   17.4997  -24.7537  -16.1851 O   0  5  0  0  0  0  0  0  0  0  0  0
   18.8116  -28.0508  -19.2224 O   0  5  0  0  0  0  0  0  0  0  0  0
   19.1782  -23.7224  -18.1925 O   0  0  0  0  0  0  0  0  0  0  0  0
   16.2879  -18.8263  -21.4668 C   0  0  0  0  0  0  0  0  0  0  0  0
   15.6853  -18.0615  -22.5399 N   0  0  0  0  0  0  0  0  0  0  0  0
   16.1642  -26.7730  -15.6078 O   0  0  0  0  0  0  0  0  0  0  0  0
   18.5672  -28.2450  -16.7796 O   0  0  0  0  0  0  0  0  0  0  0  0
   21.4948  -24.4557  -18.5984 O   0  5  0  0  0  0  0  0  0  0  0  0
   15.5083  -19.5696  -20.7083 N   0  0  0  0  0  0  0  0  0  0  0  0
   17.1191  -26.5284  -17.9964 O   0  0  0  0  0  0  0  0  0  0  0  0
   19.7618  -26.1719  -17.7289 O   0  0  0  0  0  0  0  0  0  0  0  0
   19.6693  -25.1636  -20.1273 O   0  0  0  0  0  0  0  0  0  0  0  0
   16.0251  -20.2915  -19.7067 C   0  0  0  0  0  0  0  0  0  0  0  0
   17.3867  -20.2404  -19.4870 C   0  0  0  0  0  0  0  0  0  0  0  0
   18.2006  -19.4382  -20.3100 C   0  0  0  0  0  0  0  0  0  0  0  0
   19.5904  -19.3654  -20.1104 O   0  0  0  0  0  0  0  0  0  0  0  0
   17.6588  -21.0390  -18.4409 N   0  0  0  0  0  0  0  0  0  0  0  0
   16.5159  -21.5617  -18.0317 C   0  0  0  0  0  0  0  0  0  0  0  0
   15.5221  -21.1255  -18.7829 N   0  0  0  0  0  0  0  0  0  0  0  0
  1  5  1  6  0  0  0
  1 14  1  0  0  0  0
  1 19  2  0  0  0  0
  1 23  1  0  0  0  0
  2 15  1  6  0  0  0
  2 20  2  0  0  0  0
  2 23  1  0  0  0  0
  2 24  1  0  0  0  0
  3 16  1  1  0  0  0
  3 21  1  0  0  0  0
  3 24  1  0  0  0  0
  3 25  2  0  0  0  0
  4  5  1  0  0  0  0
  6  4  1  6  0  0  0
  6  7  1  0  0  0  0
  6  8  1  0  0  0  0
  7 12  1  0  0  0  0
  8  9  1  1  0  0  0
  8 10  1  0  0  0  0
 10 11  1  1  0  0  0
 10 12  1  0  0  0  0
 12 32  1  6  0  0  0
 13 17  2  0  0  0  0
 13 28  1  0  0  0  0
 17 18  1  0  0  0  0
 17 22  1  0  0  0  0
 22 26  2  0  0  0  0
 26 27  1  0  0  0  0
 26 32  1  0  0  0  0
 27 28  2  0  0  0  0
 27 30  1  0  0  0  0
 28 29  1  0  0  0  0
 30 31  2  0  0  0  0
 31 32  1  0  0  0  0
M  CHG  3  14  -1  15  -1  21  -1
M  END
>  <CHROM.1>
83.84978534,172.63240459,87.08656406,72.07512425,-172.07362624,172.03085865
174.60284457,65.38063389,16.88165951,-23.50516523,-18.76646131,1.16998866
-0.05205899,2.71371412

>  <Name>
ligand

>  <RI>
0

>  <Rbt.Current_Directory>
/home/itssahil/PROJECTS/Mol_Feturizer/New_Systems/rnas/4Y1I

>  <Rbt.Executable>
rbdock ($Id: //depot/dev/client3/rdock/2013.1/src/exe/rbdock.cxx#4 $)

>  <Rbt.Library>
libRbt.so (2013.1, Build901 2013/11/27)

>  <Rbt.Parameter_File>
/export/apps/rDock/src/rDock_2013.1_src/data/scripts/dock_solv.prm

>  <Rbt.Receptor>
prm/pocket_docking_8.prm

>  <SCORE>
-8.95687

>  <SCORE.INTER>
-3.00493

>  <SCORE.INTER.CONST>
1

>  <SCORE.INTER.POLAR>
0

>  <SCORE.INTER.ROT>
8

>  <SCORE.INTER.SOLV>
14.0172

>  <SCORE.INTER.VDW>
-15.609

>  <SCORE.INTER.norm>
-0.0939042

>  <SCORE.INTRA>
-5.95194

>  <SCORE.INTRA.DIHEDRAL>
-6.85877

>  <SCORE.INTRA.DIHEDRAL.0>
10.9594

>  <SCORE.INTRA.POLAR>
0

>  <SCORE.INTRA.POLAR.0>
0

>  <SCORE.INTRA.REPUL>
0

>  <SCORE.INTRA.REPUL.0>
0

>  <SCORE.INTRA.SOLV>
-3.22933

>  <SCORE.INTRA.SOLV.lig_0>
-124.914

>  <SCORE.INTRA.VDW>
-0.907884

>  <SCORE.INTRA.VDW.0>
-4.69801

>  <SCORE.INTRA.norm>
-0.185998

>  <SCORE.RESTR>
0

>  <SCORE.RESTR.CAVITY>
0

>  <SCORE.RESTR.norm>
0

>  <SCORE.SYSTEM>
0

>  <SCORE.SYSTEM.CONST>
0

>  <SCORE.SYSTEM.DIHEDRAL>
0

>  <SCORE.SYSTEM.SOLV>
0

>  <SCORE.SYSTEM.norm>
0

>  <SCORE.heavy>
32

>  <SCORE.norm>
-0.279902

>  <RMSD>
6.088

$$$$
ligand
 OpenBabel11021811513D
libRbt.so/2013.1/901 2013/11/27
 32 34  0  0  0  0  0  0  0  0999 V2000
   14.2132  -22.7044  -19.6628 P   0  0  1  0  0  0  0  0  0  0  0  0
   13.8954  -24.5490  -17.4884 P   0  0  2  0  0  0  0  0  0  0  0  0
   16.3183  -25.9842  -16.6609 P   0  0  1  0  0  0  0  0  0  0  0  0
   16.0299  -21.5240  -18.2144 C   0  0  0  0  0  0  0  0  0  0  0  0
   14.6803  -21.5531  -18.5828 O   0  0  0  0  0  0  0  0  0  0  0  0
   16.6613  -20.4588  -18.8468 C   0  0  1  0  0  0  0  0  0  0  0  0
   18.0801  -20.3189  -18.3298 O   0  0  0  0  0  0  0  0  0  0  0  0
   16.7918  -20.7101  -20.4190 C   0  0  1  0  0  0  0  0  0  0  0  0
   15.9637  -19.6864  -21.1622 O   0  0  0  0  0  0  0  0  0  0  0  0
   17.9739  -20.4996  -20.7011 C   0  0  1  0  0  0  0  0  0  0  0  0
   18.1193  -19.1137  -21.2072 O   0  0  0  0  0  0  0  0  0  0  0  0
   18.8360  -20.6837  -19.2879 C   0  0  2  0  0  0  0  0  0  0  0  0
   22.7409  -24.0209  -19.2675 N   0  0  0  0  0  0  0  0  0  0  0  0
   13.3430  -22.0840  -20.7276 O   0  5  0  0  0  0  0  0  0  0  0  0
   12.9783  -25.6702  -17.0687 O   0  5  0  0  0  0  0  0  0  0  0  0
   15.5238  -27.1962  -16.2342 O   0  0  0  0  0  0  0  0  0  0  0  0
   22.7763  -22.7219  -19.5209 C   0  0  0  0  0  0  0  0  0  0  0  0
   24.0424  -22.0939  -19.8403 N   0  0  0  0  0  0  0  0  0  0  0  0
   15.4485  -23.3299  -20.2703 O   0  0  0  0  0  0  0  0  0  0  0  0
   13.9412  -23.5026  -16.4059 O   0  0  0  0  0  0  0  0  0  0  0  0
   17.6043  -26.4399  -17.3152 O   0  5  0  0  0  0  0  0  0  0  0  0
   21.6919  -21.9743  -19.4924 N   0  0  0  0  0  0  0  0  0  0  0  0
   13.3424  -23.8465  -18.8651 O   0  0  0  0  0  0  0  0  0  0  0  0
   15.4103  -25.1349  -17.7488 O   0  0  0  0  0  0  0  0  0  0  0  0
   16.6190  -25.1380  -15.4430 O   0  0  0  0  0  0  0  0  0  0  0  0
   20.5026  -22.5154  -19.2019 C   0  0  0  0  0  0  0  0  0  0  0  0
   20.4376  -23.8678  -18.9342 C   0  0  0  0  0  0  0  0  0  0  0  0
   21.6100  -24.6472  -18.9696 C   0  0  0  0  0  0  0  0  0  0  0  0
   21.5754  -26.0269  -18.7009 O   0  0  0  0  0  0  0  0  0  0  0  0
   19.1537  -24.1684  -18.6744 N   0  0  0  0  0  0  0  0  0  0  0  0
   18.4551  -23.0512  -18.7774 C   0  0  0  0  0  0  0  0  0  0  0  0
   19.2492  -22.0464  -19.0968 N   0  0  0  0  0  0  0  0  0  0  0  0
  1  5  1  1  0  0  0
  1 14  1  0  0  0  0
  1 19  2  0  0  0  0
  1 23  1  0  0  0  0
  2 15  1  1  0  0  0
  2 20  2  0  0  0  0
  2 23  1  0  0  0  0
  2 24  1  0  0  0  0
  3 16  1  1  0  0  0
  3 21  1  0  0  0  0
  3 24  1  0  0  0  0
  3 25  2  0  0  0  0
  4  5  1  0  0  0  0
  6  4  1  1  0  0  0
  6  7  1  0  0  0  0
  6  8  1  0  0  0  0
  7 12  1  0  0  0  0
  8  9  1  6  0  0  0
  8 10  1  0  0  0  0
 10 11  1  1  0  0  0
 10 12  1  0  0  0  0
 12 32  1  1  0  0  0
 13 17  2  0  0  0  0
 13 28  1  0  0  0  0
 17 18  1  0  0  0  0
 17 22  1  0  0  0  0
 22 26  2  0  0  0  0
 26 27  1  0  0  0  0
 26 32  1  0  0  0  0
 27 28  2  0  0  0  0
 27 30  1  0  0  0  0
 28 29  1  0  0  0  0
 30 31  2  0  0  0  0
 31 32  1  0  0  0  0
M  CHG  3  14  -1  15  -1  21  -1
M  END
>  <CHROM.1>
-133.74743158,-173.11563103,56.63102162,173.34694269,104.70008310,-132.35193217
-50.41120391,-55.72312947,17.19170108,-23.21342912,-18.66803009,2.82555010
-0.07547964,2.60583206

>  <Name>
ligand

>  <RI>
0

>  <Rbt.Current_Directory>
/home/itssahil/PROJECTS/Mol_Feturizer/New_Systems/rnas/4Y1I

>  <Rbt.Executable>
rbdock ($Id: //depot/dev/client3/rdock/2013.1/src/exe/rbdock.cxx#4 $)

>  <Rbt.Library>
libRbt.so (2013.1, Build901 2013/11/27)

>  <Rbt.Parameter_File>
/export/apps/rDock/src/rDock_2013.1_src/data/scripts/dock_solv.prm

>  <Rbt.Receptor>
prm/pocket_docking_5.prm

>  <SCORE>
-4.33197

>  <SCORE.INTER>
-2.85828

>  <SCORE.INTER.CONST>
1

>  <SCORE.INTER.POLAR>
0

>  <SCORE.INTER.ROT>
8

>  <SCORE.INTER.SOLV>
8.55527

>  <SCORE.INTER.VDW>
-13.6906

>  <SCORE.INTER.norm>
-0.0893213

>  <SCORE.INTRA>
-1.47369

>  <SCORE.INTRA.DIHEDRAL>
-1.05963

>  <SCORE.INTRA.DIHEDRAL.0>
10.9594

>  <SCORE.INTRA.POLAR>
0

>  <SCORE.INTRA.POLAR.0>
0

>  <SCORE.INTRA.REPUL>
0

>  <SCORE.INTRA.REPUL.0>
0

>  <SCORE.INTRA.SOLV>
-0.0133103

>  <SCORE.INTRA.SOLV.lig_0>
-124.914

>  <SCORE.INTRA.VDW>
-0.937213

>  <SCORE.INTRA.VDW.0>
-4.69801

>  <SCORE.INTRA.norm>
-0.0460527

>  <SCORE.RESTR>
0

>  <SCORE.RESTR.CAVITY>
0

>  <SCORE.RESTR.norm>
0

>  <SCORE.SYSTEM>
0

>  <SCORE.SYSTEM.CONST>
0

>  <SCORE.SYSTEM.DIHEDRAL>
0

>  <SCORE.SYSTEM.SOLV>
0

>  <SCORE.SYSTEM.norm>
0

>  <SCORE.heavy>
32

>  <SCORE.norm>
-0.135374

>  <RMSD>
6.099

$$$$
ligand
 OpenBabel11021811513D
libRbt.so/2013.1/901 2013/11/27
 32 34  0  0  0  0  0  0  0  0999 V2000
   21.0732  -23.9300  -20.0179 P   0  0  1  0  0  0  0  0  0  0  0  0
   19.2639  -25.1814  -18.1763 P   0  0  2  0  0  0  0  0  0  0  0  0
   16.7803  -25.4561  -16.6363 P   0  0  1  0  0  0  0  0  0  0  0  0
   21.6916  -21.4544  -19.4886 C   0  0  0  0  0  0  0  0  0  0  0  0
   21.4539  -22.4002  -20.4920 O   0  0  0  0  0  0  0  0  0  0  0  0
   21.8181  -20.1929  -20.0595 C   0  0  1  0  0  0  0  0  0  0  0  0
   20.6704  -19.9429  -21.0188 O   0  0  0  0  0  0  0  0  0  0  0  0
   21.7234  -19.0423  -18.9553 C   0  0  1  0  0  0  0  0  0  0  0  0
   23.0464  -18.3150  -18.8724 O   0  0  0  0  0  0  0  0  0  0  0  0
   20.8880  -18.2367  -19.3730 C   0  0  1  0  0  0  0  0  0  0  0  0
   21.5819  -17.1188  -20.0560 O   0  0  0  0  0  0  0  0  0  0  0  0
   19.9357  -19.0654  -20.4595 C   0  0  2  0  0  0  0  0  0  0  0  0
   14.8538  -19.8110  -20.4043 N   0  0  0  0  0  0  0  0  0  0  0  0
   20.4471  -24.6808  -21.1671 O   0  5  0  0  0  0  0  0  0  0  0  0
   20.3000  -26.1338  -17.6344 O   0  5  0  0  0  0  0  0  0  0  0  0
   17.0259  -26.9322  -16.4285 O   0  0  0  0  0  0  0  0  0  0  0  0
   15.5647  -19.0835  -21.2518 C   0  0  0  0  0  0  0  0  0  0  0  0
   14.8907  -18.3808  -22.3249 N   0  0  0  0  0  0  0  0  0  0  0  0
   22.3328  -24.6191  -19.5439 O   0  0  0  0  0  0  0  0  0  0  0  0
   18.4918  -25.8519  -19.2823 O   0  0  0  0  0  0  0  0  0  0  0  0
   16.2043  -24.8662  -15.3675 O   0  5  0  0  0  0  0  0  0  0  0  0
   16.8739  -18.9754  -21.1528 N   0  0  0  0  0  0  0  0  0  0  0  0
   19.9875  -23.8410  -18.7882 O   0  0  0  0  0  0  0  0  0  0  0  0
   18.2297  -24.7397  -16.9757 O   0  0  0  0  0  0  0  0  0  0  0  0
   15.8143  -25.2742  -17.7867 O   0  0  0  0  0  0  0  0  0  0  0  0
   17.5347  -19.6083  -20.1759 C   0  0  0  0  0  0  0  0  0  0  0  0
   16.8174  -20.3732  -19.2785 C   0  0  0  0  0  0  0  0  0  0  0  0
   15.4185  -20.4749  -19.4042 C   0  0  0  0  0  0  0  0  0  0  0  0
   14.6610  -21.2468  -18.5058 O   0  0  0  0  0  0  0  0  0  0  0  0
   17.6923  -20.9000  -18.4048 N   0  0  0  0  0  0  0  0  0  0  0  0
   18.8977  -20.4792  -18.7464 C   0  0  0  0  0  0  0  0  0  0  0  0
   18.8226  -19.6987  -19.8083 N   0  0  0  0  0  0  0  0  0  0  0  0
  1  5  1  6  0  0  0
  1 14  1  0  0  0  0
  1 19  2  0  0  0  0
  1 23  1  0  0  0  0
  2 15  1  1  0  0  0
  2 20  2  0  0  0  0
  2 23  1  0  0  0  0
  2 24  1  0  0  0  0
  3 16  1  1  0  0  0
  3 21  1  0  0  0  0
  3 24  1  0  0  0  0
  3 25  2  0  0  0  0
  4  5  1  0  0  0  0
  6  4  1  1  0  0  0
  6  7  1  0  0  0  0
  6  8  1  0  0  0  0
  7 12  1  0  0  0  0
  8  9  1  6  0  0  0
  8 10  1  0  0  0  0
 10 11  1  6  0  0  0
 10 12  1  0  0  0  0
 12 32  1  1  0  0  0
 13 17  2  0  0  0  0
 13 28  1  0  0  0  0
 17 18  1  0  0  0  0
 17 22  1  0  0  0  0
 22 26  2  0  0  0  0
 26 27  1  0  0  0  0
 26 32  1  0  0  0  0
 27 28  2  0  0  0  0
 27 30  1  0  0  0  0
 28 29  1  0  0  0  0
 30 31  2  0  0  0  0
 31 32  1  0  0  0  0
M  CHG  3  14  -1  15  -1  21  -1
M  END
>  <CHROM.1>
162.62534258,59.75993724,54.74496855,48.73449017,-172.03679774,-111.46509755
173.30698611,-94.25806606,18.84937134,-22.20393844,-19.11135732,-1.79265162
0.11355542,-0.37117951

>  <Name>
ligand

>  <RI>
0

>  <Rbt.Current_Directory>
/home/itssahil/PROJECTS/Mol_Feturizer/New_Systems/rnas/4Y1I

>  <Rbt.Executable>
rbdock ($Id: //depot/dev/client3/rdock/2013.1/src/exe/rbdock.cxx#4 $)

>  <Rbt.Library>
libRbt.so (2013.1, Build901 2013/11/27)

>  <Rbt.Parameter_File>
/export/apps/rDock/src/rDock_2013.1_src/data/scripts/dock_solv.prm

>  <Rbt.Receptor>
prm/pocket_docking_6.prm

>  <SCORE>
-12.3843

>  <SCORE.INTER>
-7.219

>  <SCORE.INTER.CONST>
1

>  <SCORE.INTER.POLAR>
0

>  <SCORE.INTER.ROT>
8

>  <SCORE.INTER.SOLV>
13.3606

>  <SCORE.INTER.VDW>
-18.1995

>  <SCORE.INTER.norm>
-0.225594

>  <SCORE.INTRA>
-5.16527

>  <SCORE.INTRA.DIHEDRAL>
-6.97534

>  <SCORE.INTRA.DIHEDRAL.0>
10.9594

>  <SCORE.INTRA.POLAR>
0

>  <SCORE.INTRA.POLAR.0>
0

>  <SCORE.INTRA.REPUL>
0

>  <SCORE.INTRA.REPUL.0>
0

>  <SCORE.INTRA.SOLV>
-3.44014

>  <SCORE.INTRA.SOLV.lig_0>
-124.914

>  <SCORE.INTRA.VDW>
0.0424677

>  <SCORE.INTRA.VDW.0>
-4.69801

>  <SCORE.INTRA.norm>
-0.161415

>  <SCORE.RESTR>
0

>  <SCORE.RESTR.CAVITY>
0

>  <SCORE.RESTR.norm>
0

>  <SCORE.SYSTEM>
0

>  <SCORE.SYSTEM.CONST>
0

>  <SCORE.SYSTEM.DIHEDRAL>
0

>  <SCORE.SYSTEM.SOLV>
0

>  <SCORE.SYSTEM.norm>
0

>  <SCORE.heavy>
32

>  <SCORE.norm>
-0.387008

>  <RMSD>
6.123

$$$$
ligand
 OpenBabel11021811513D
libRbt.so/2013.1/901 2013/11/27
 32 34  0  0  0  0  0  0  0  0999 V2000
   14.4264  -21.9472  -17.9330 P   0  0  1  0  0  0  0  0  0  0  0  0
   14.6970  -24.1891  -16.1632 P   0  0  2  0  0  0  0  0  0  0  0  0
   15.7440  -26.4608  -14.6275 P   0  0  1  0  0  0  0  0  0  0  0  0
   16.8061  -20.9674  -18.3431 C   0  0  0  0  0  0  0  0  0  0  0  0
   15.4823  -21.0222  -18.7930 O   0  0  0  0  0  0  0  0  0  0  0  0
   17.5827  -20.2772  -19.2671 C   0  0  1  0  0  0  0  0  0  0  0  0
   19.0473  -20.3740  -18.8856 O   0  0  0  0  0  0  0  0  0  0  0  0
   17.4667  -20.9239  -20.7233 C   0  0  1  0  0  0  0  0  0  0  0  0
   16.8094  -19.9365  -21.6610 O   0  0  0  0  0  0  0  0  0  0  0  0
   18.6241  -21.0880  -21.1167 C   0  0  1  0  0  0  0  0  0  0  0  0
   19.0179  -19.9457  -21.9758 O   0  0  0  0  0  0  0  0  0  0  0  0
   19.5828  -21.1348  -19.7556 C   0  0  2  0  0  0  0  0  0  0  0  0
   22.7104  -25.0603  -18.6630 N   0  0  0  0  0  0  0  0  0  0  0  0
   13.9731  -21.1979  -16.7045 O   0  5  0  0  0  0  0  0  0  0  0  0
   13.2820  -24.6687  -16.3681 O   0  5  0  0  0  0  0  0  0  0  0  0
   16.2123  -25.6367  -13.4511 O   0  0  0  0  0  0  0  0  0  0  0  0
   23.0242  -23.8859  -19.1875 C   0  0  0  0  0  0  0  0  0  0  0  0
   24.4055  -23.6020  -19.5208 N   0  0  0  0  0  0  0  0  0  0  0  0
   13.2514  -22.2941  -18.8192 O   0  0  0  0  0  0  0  0  0  0  0  0
   14.7583  -23.3033  -14.9465 O   0  0  0  0  0  0  0  0  0  0  0  0
   14.3573  -26.9931  -14.3389 O   0  5  0  0  0  0  0  0  0  0  0  0
   22.1172  -22.9589  -19.4190 N   0  0  0  0  0  0  0  0  0  0  0  0
   15.1970  -23.3197  -17.4628 O   0  0  0  0  0  0  0  0  0  0  0  0
   15.6982  -25.4774  -15.9543 O   0  0  0  0  0  0  0  0  0  0  0  0
   16.7114  -27.6037  -14.8452 O   0  0  0  0  0  0  0  0  0  0  0  0
   20.8302  -23.1811  -19.1259 C   0  0  0  0  0  0  0  0  0  0  0  0
   20.4759  -24.3976  -18.5784 C   0  0  0  0  0  0  0  0  0  0  0  0
   21.4626  -25.3733  -18.3390 C   0  0  0  0  0  0  0  0  0  0  0  0
   21.1324  -26.6213  -17.7819 O   0  0  0  0  0  0  0  0  0  0  0  0
   19.1474  -24.3793  -18.3757 N   0  0  0  0  0  0  0  0  0  0  0  0
   18.6995  -23.2036  -18.7805 C   0  0  0  0  0  0  0  0  0  0  0  0
   19.6972  -22.4700  -19.2375 N   0  0  0  0  0  0  0  0  0  0  0  0
  1  5  1  6  0  0  0
  1 14  1  0  0  0  0
  1 19  2  0  0  0  0
  1 23  1  0  0  0  0
  2 15  1  6  0  0  0
  2 20  2  0  0  0  0
  2 23  1  0  0  0  0
  2 24  1  0  0  0  0
  3 16  1  1  0  0  0
  3 21  1  0  0  0  0
  3 24  1  0  0  0  0
  3 25  2  0  0  0  0
  4  5  1  0  0  0  0
  6  4  1  1  0  0  0
  6  7  1  0  0  0  0
  6  8  1  0  0  0  0
  7 12  1  0  0  0  0
  8  9  1  6  0  0  0
  8 10  1  0  0  0  0
 10 11  1  6  0  0  0
 10 12  1  0  0  0  0
 12 32  1  1  0  0  0
 13 17  2  0  0  0  0
 13 28  1  0  0  0  0
 17 18  1  0  0  0  0
 17 22  1  0  0  0  0
 22 26  2  0  0  0  0
 26 27  1  0  0  0  0
 26 32  1  0  0  0  0
 27 28  2  0  0  0  0
 27 30  1  0  0  0  0
 28 29  1  0  0  0  0
 30 31  2  0  0  0  0
 31 32  1  0  0  0  0
M  CHG  3  14  -1  15  -1  21  -1
M  END
>  <CHROM.1>
79.42495955,60.25501828,-65.43856712,-172.33336396,173.05329145,-122.94047072
156.46321796,-70.65668426,17.43658422,-23.35611299,-17.83983553,2.52225671
-0.28869847,2.45744161

>  <Name>
ligand

>  <RI>
0

>  <Rbt.Current_Directory>
/home/itssahil/PROJECTS/Mol_Feturizer/New_Systems/rnas/4Y1I

>  <Rbt.Executable>
rbdock ($Id: //depot/dev/client3/rdock/2013.1/src/exe/rbdock.cxx#4 $)

>  <Rbt.Library>
libRbt.so (2013.1, Build901 2013/11/27)

>  <Rbt.Parameter_File>
/export/apps/rDock/src/rDock_2013.1_src/data/scripts/dock_solv.prm

>  <Rbt.Receptor>
prm/pocket_docking_7.prm

>  <SCORE>
-9.11948

>  <SCORE.INTER>
-4.53838

>  <SCORE.INTER.CONST>
1

>  <SCORE.INTER.POLAR>
0

>  <SCORE.INTER.ROT>
8

>  <SCORE.INTER.SOLV>
12.4812

>  <SCORE.INTER.VDW>
-16.1193

>  <SCORE.INTER.norm>
-0.141825

>  <SCORE.INTRA>
-4.58109

>  <SCORE.INTRA.DIHEDRAL>
-7.60655

>  <SCORE.INTRA.DIHEDRAL.0>
10.9594

>  <SCORE.INTRA.POLAR>
0

>  <SCORE.INTRA.POLAR.0>
0

>  <SCORE.INTRA.REPUL>
0

>  <SCORE.INTRA.REPUL.0>
0

>  <SCORE.INTRA.SOLV>
-2.92435

>  <SCORE.INTRA.SOLV.lig_0>
-124.914

>  <SCORE.INTRA.VDW>
0.684357

>  <SCORE.INTRA.VDW.0>
-4.69801

>  <SCORE.INTRA.norm>
-0.143159

>  <SCORE.RESTR>
0

>  <SCORE.RESTR.CAVITY>
0

>  <SCORE.RESTR.norm>
0

>  <SCORE.SYSTEM>
0

>  <SCORE.SYSTEM.CONST>
0

>  <SCORE.SYSTEM.DIHEDRAL>
0

>  <SCORE.SYSTEM.SOLV>
0

>  <SCORE.SYSTEM.norm>
0

>  <SCORE.heavy>
32

>  <SCORE.norm>
-0.284984

>  <RMSD>
6.181

$$$$
ligand
 OpenBabel11021811513D
libRbt.so/2013.1/901 2013/11/27
 32 34  0  0  0  0  0  0  0  0999 V2000
   15.4737  -26.1900  -19.6221 P   0  0  1  0  0  0  0  0  0  0  0  0
   17.9785  -27.0583  -18.5251 P   0  0  2  0  0  0  0  0  0  0  0  0
   20.1021  -25.0379  -18.6781 P   0  0  1  0  0  0  0  0  0  0  0  0
   15.4665  -23.6549  -20.2259 C   0  0  0  0  0  0  0  0  0  0  0  0
   16.2533  -24.7715  -19.9221 O   0  0  0  0  0  0  0  0  0  0  0  0
   14.7887  -23.2399  -19.0851 C   0  0  1  0  0  0  0  0  0  0  0  0
   15.7795  -22.7649  -18.0398 O   0  0  0  0  0  0  0  0  0  0  0  0
   13.8440  -21.9888  -19.3924 C   0  0  1  0  0  0  0  0  0  0  0  0
   12.3994  -22.3893  -19.1956 O   0  0  0  0  0  0  0  0  0  0  0  0
   14.1095  -21.1424  -18.5354 C   0  0  1  0  0  0  0  0  0  0  0  0
   13.1279  -21.2389  -17.4286 O   0  0  0  0  0  0  0  0  0  0  0  0
   15.6367  -21.5008  -17.9757 C   0  0  2  0  0  0  0  0  0  0  0  0
   16.6654  -18.3417  -21.8932 N   0  0  0  0  0  0  0  0  0  0  0  0
   14.6182  -26.0523  -18.3870 O   0  5  0  0  0  0  0  0  0  0  0  0
   18.7941  -28.3197  -18.3915 O   0  5  0  0  0  0  0  0  0  0  0  0
   19.6388  -24.4461  -17.3675 O   0  0  0  0  0  0  0  0  0  0  0  0
   15.4820  -18.7319  -21.4461 C   0  0  0  0  0  0  0  0  0  0  0  0
   14.2810  -18.2463  -22.0953 N   0  0  0  0  0  0  0  0  0  0  0  0
   14.6315  -26.5455  -20.8265 O   0  0  0  0  0  0  0  0  0  0  0  0
   17.6051  -26.5516  -17.1567 O   0  0  0  0  0  0  0  0  0  0  0  0
   21.2815  -25.9502  -18.4205 O   0  5  0  0  0  0  0  0  0  0  0  0
   15.3571  -19.5527  -20.4232 N   0  0  0  0  0  0  0  0  0  0  0  0
   16.5979  -27.3590  -19.3608 O   0  0  0  0  0  0  0  0  0  0  0  0
   18.8520  -25.9100  -19.3153 O   0  0  0  0  0  0  0  0  0  0  0  0
   20.4992  -23.9161  -19.6126 O   0  0  0  0  0  0  0  0  0  0  0  0
   16.4412  -20.0245  -19.7959 C   0  0  0  0  0  0  0  0  0  0  0  0
   17.6875  -19.6338  -20.2423 C   0  0  0  0  0  0  0  0  0  0  0  0
   17.7968  -18.7548  -21.3371 C   0  0  0  0  0  0  0  0  0  0  0  0
   19.0523  -18.3387  -21.8141 O   0  0  0  0  0  0  0  0  0  0  0  0
   18.6035  -20.2322  -19.4619 N   0  0  0  0  0  0  0  0  0  0  0  0
   17.9527  -20.9613  -18.5722 C   0  0  0  0  0  0  0  0  0  0  0  0
   16.6507  -20.8510  -18.7591 N   0  0  0  0  0  0  0  0  0  0  0  0
  1  5  1  6  0  0  0
  1 14  1  0  0  0  0
  1 19  2  0  0  0  0
  1 23  1  0  0  0  0
  2 15  1  1  0  0  0
  2 20  2  0  0  0  0
  2 23  1  0  0  0  0
  2 24  1  0  0  0  0
  3 16  1  1  0  0  0
  3 21  1  0  0  0  0
  3 24  1  0  0  0  0
  3 25  2  0  0  0  0
  4  5  1  0  0  0  0
  6  4  1  6  0  0  0
  6  7  1  0  0  0  0
  6  8  1  0  0  0  0
  7 12  1  0  0  0  0
  8  9  1  1  0  0  0
  8 10  1  0  0  0  0
 10 11  1  1  0  0  0
 10 12  1  0  0  0  0
 12 32  1  6  0  0  0
 13 17  2  0  0  0  0
 13 28  1  0  0  0  0
 17 18  1  0  0  0  0
 17 22  1  0  0  0  0
 22 26  2  0  0  0  0
 26 27  1  0  0  0  0
 26 32  1  0  0  0  0
 27 28  2  0  0  0  0
 27 30  1  0  0  0  0
 28 29  1  0  0  0  0
 30 31  2  0  0  0  0
 31 32  1  0  0  0  0
M  CHG  3  14  -1  15  -1  21  -1
M  END
>  <CHROM.1>
-63.67609158,177.69888947,-50.83398965,64.54931189,70.64366651,120.73968314
38.53280052,-74.77398461,16.81788437,-23.29629109,-19.33158439,1.26690941
-0.00954388,2.89423033

>  <Name>
ligand

>  <RI>
0

>  <Rbt.Current_Directory>
/home/itssahil/PROJECTS/Mol_Feturizer/New_Systems/rnas/4Y1I

>  <Rbt.Executable>
rbdock ($Id: //depot/dev/client3/rdock/2013.1/src/exe/rbdock.cxx#4 $)

>  <Rbt.Library>
libRbt.so (2013.1, Build901 2013/11/27)

>  <Rbt.Parameter_File>
/export/apps/rDock/src/rDock_2013.1_src/data/scripts/dock_solv.prm

>  <Rbt.Receptor>
prm/pocket_docking_6.prm

>  <SCORE>
-9.2725

>  <SCORE.INTER>
-3.46177

>  <SCORE.INTER.CONST>
1

>  <SCORE.INTER.POLAR>
0

>  <SCORE.INTER.ROT>
8

>  <SCORE.INTER.SOLV>
9.60545

>  <SCORE.INTER.VDW>
-14.443

>  <SCORE.INTER.norm>
-0.10818

>  <SCORE.INTRA>
-5.81073

>  <SCORE.INTRA.DIHEDRAL>
-7.91355

>  <SCORE.INTRA.DIHEDRAL.0>
10.9594

>  <SCORE.INTRA.POLAR>
0

>  <SCORE.INTRA.POLAR.0>
0

>  <SCORE.INTRA.REPUL>
0

>  <SCORE.INTRA.REPUL.0>
0

>  <SCORE.INTRA.SOLV>
-3.22463

>  <SCORE.INTRA.SOLV.lig_0>
-124.914

>  <SCORE.INTRA.VDW>
-0.241639

>  <SCORE.INTRA.VDW.0>
-4.69801

>  <SCORE.INTRA.norm>
-0.181585

>  <SCORE.RESTR>
0

>  <SCORE.RESTR.CAVITY>
0

>  <SCORE.RESTR.norm>
0

>  <SCORE.SYSTEM>
0

>  <SCORE.SYSTEM.CONST>
0

>  <SCORE.SYSTEM.DIHEDRAL>
0

>  <SCORE.SYSTEM.SOLV>
0

>  <SCORE.SYSTEM.norm>
0

>  <SCORE.heavy>
32

>  <SCORE.norm>
-0.289766

>  <RMSD>
6.188

$$$$
ligand
 OpenBabel11021811513D
libRbt.so/2013.1/901 2013/11/27
 32 34  0  0  0  0  0  0  0  0999 V2000
   22.0791  -24.1948  -19.1559 P   0  0  1  0  0  0  0  0  0  0  0  0
   20.0230  -25.9465  -18.1888 P   0  0  2  0  0  0  0  0  0  0  0  0
   19.1841  -28.1242  -19.9690 P   0  0  1  0  0  0  0  0  0  0  0  0
   21.1194  -22.0145  -20.2126 C   0  0  0  0  0  0  0  0  0  0  0  0
   22.1949  -22.5964  -19.5324 O   0  0  0  0  0  0  0  0  0  0  0  0
   21.4029  -20.6785  -20.4738 C   0  0  1  0  0  0  0  0  0  0  0  0
   20.2315  -20.0322  -21.1880 O   0  0  0  0  0  0  0  0  0  0  0  0
   21.6012  -19.8508  -19.1219 C   0  0  1  0  0  0  0  0  0  0  0  0
   23.0291  -19.3606  -19.0374 O   0  0  0  0  0  0  0  0  0  0  0  0
   20.8779  -18.8567  -19.2214 C   0  0  1  0  0  0  0  0  0  0  0  0
   21.6844  -17.7077  -19.6982 O   0  0  0  0  0  0  0  0  0  0  0  0
   19.7069  -19.2358  -20.3435 C   0  0  2  0  0  0  0  0  0  0  0  0
   14.6048  -19.8298  -20.3755 N   0  0  0  0  0  0  0  0  0  0  0  0
   22.0849  -25.0196  -20.4192 O   0  5  0  0  0  0  0  0  0  0  0  0
   18.7008  -25.8717  -17.4673 O   0  5  0  0  0  0  0  0  0  0  0  0
   17.7458  -28.1287  -19.5066 O   0  0  0  0  0  0  0  0  0  0  0  0
   15.3484  -19.0985  -21.1910 C   0  0  0  0  0  0  0  0  0  0  0  0
   14.7101  -18.3434  -22.2503 N   0  0  0  0  0  0  0  0  0  0  0  0
   23.2391  -24.5682  -18.2609 O   0  0  0  0  0  0  0  0  0  0  0  0
   20.9881  -26.7809  -17.3882 O   0  0  0  0  0  0  0  0  0  0  0  0
   19.2280  -28.4110  -21.4540 O   0  5  0  0  0  0  0  0  0  0  0  0
   16.6588  -19.0328  -21.0722 N   0  0  0  0  0  0  0  0  0  0  0  0
   20.6602  -24.4441  -18.3663 O   0  0  0  0  0  0  0  0  0  0  0  0
   19.8115  -26.6250  -19.6724 O   0  0  0  0  0  0  0  0  0  0  0  0
   19.9505  -29.1825  -19.2060 O   0  0  0  0  0  0  0  0  0  0  0  0
   17.2873  -19.7148  -20.1071 C   0  0  0  0  0  0  0  0  0  0  0  0
   16.5355  -20.4848  -19.2429 C   0  0  0  0  0  0  0  0  0  0  0  0
   15.1361  -20.5406  -19.3893 C   0  0  0  0  0  0  0  0  0  0  0  0
   14.3439  -21.3165  -18.5248 O   0  0  0  0  0  0  0  0  0  0  0  0
   17.3825  -21.0641  -18.3750 N   0  0  0  0  0  0  0  0  0  0  0  0
   18.6044  -20.6694  -18.6881 C   0  0  0  0  0  0  0  0  0  0  0  0
   18.5668  -19.8550  -19.7262 N   0  0  0  0  0  0  0  0  0  0  0  0
  1  5  1  6  0  0  0
  1 14  1  0  0  0  0
  1 19  2  0  0  0  0
  1 23  1  0  0  0  0
  2 15  1  1  0  0  0
  2 20  2  0  0  0  0
  2 23  1  0  0  0  0
  2 24  1  0  0  0  0
  3 16  1  1  0  0  0
  3 21  1  0  0  0  0
  3 24  1  0  0  0  0
  3 25  2  0  0  0  0
  4  5  1  0  0  0  0
  6  4  1  1  0  0  0
  6  7  1  0  0  0  0
  6  8  1  0  0  0  0
  7 12  1  0  0  0  0
  8  9  1  6  0  0  0
  8 10  1  0  0  0  0
 10 11  1  6  0  0  0
 10 12  1  0  0  0  0
 12 32  1  1  0  0  0
 13 17  2  0  0  0  0
 13 28  1  0  0  0  0
 17 18  1  0  0  0  0
 17 22  1  0  0  0  0
 22 26  2  0  0  0  0
 26 27  1  0  0  0  0
 26 32  1  0  0  0  0
 27 28  2  0  0  0  0
 27 30  1  0  0  0  0
 28 29  1  0  0  0  0
 30 31  2  0  0  0  0
 31 32  1  0  0  0  0
M  CHG  3  14  -1  15  -1  21  -1
M  END
>  <CHROM.1>
66.49734475,-178.13618606,64.38542905,-178.93585237,-178.58013320,-95.14197938
163.56942177,-58.32450013,19.42721131,-22.95573136,-19.51863437,-1.27574910
-0.11600516,-0.08603174

>  <Name>
ligand

>  <RI>
0

>  <Rbt.Current_Directory>
/home/itssahil/PROJECTS/Mol_Feturizer/New_Systems/rnas/4Y1I

>  <Rbt.Executable>
rbdock ($Id: //depot/dev/client3/rdock/2013.1/src/exe/rbdock.cxx#4 $)

>  <Rbt.Library>
libRbt.so (2013.1, Build901 2013/11/27)

>  <Rbt.Parameter_File>
/export/apps/rDock/src/rDock_2013.1_src/data/scripts/dock_solv.prm

>  <Rbt.Receptor>
prm/pocket_docking_8.prm

>  <SCORE>
-11.3326

>  <SCORE.INTER>
-5.07578

>  <SCORE.INTER.CONST>
1

>  <SCORE.INTER.POLAR>
0

>  <SCORE.INTER.ROT>
8

>  <SCORE.INTER.SOLV>
14.6157

>  <SCORE.INTER.VDW>
-17.1891

>  <SCORE.INTER.norm>
-0.158618

>  <SCORE.INTRA>
-6.25686

>  <SCORE.INTRA.DIHEDRAL>
-9.17581

>  <SCORE.INTRA.DIHEDRAL.0>
10.9594

>  <SCORE.INTRA.POLAR>
0

>  <SCORE.INTRA.POLAR.0>
0

>  <SCORE.INTRA.REPUL>
0

>  <SCORE.INTRA.REPUL.0>
0

>  <SCORE.INTRA.SOLV>
-3.99113

>  <SCORE.INTRA.SOLV.lig_0>
-124.914

>  <SCORE.INTRA.VDW>
0.326606

>  <SCORE.INTRA.VDW.0>
-4.69801

>  <SCORE.INTRA.norm>
-0.195527

>  <SCORE.RESTR>
0

>  <SCORE.RESTR.CAVITY>
0

>  <SCORE.RESTR.norm>
0

>  <SCORE.SYSTEM>
0

>  <SCORE.SYSTEM.CONST>
0

>  <SCORE.SYSTEM.DIHEDRAL>
0

>  <SCORE.SYSTEM.SOLV>
0

>  <SCORE.SYSTEM.norm>
0

>  <SCORE.heavy>
32

>  <SCORE.norm>
-0.354145

>  <RMSD>
6.290

$$$$
ligand
 OpenBabel11021811513D
libRbt.so/2013.1/901 2013/11/27
 32 34  0  0  0  0  0  0  0  0999 V2000
   14.0788  -21.4653  -18.3297 P   0  0  1  0  0  0  0  0  0  0  0  0
   14.7154  -24.1759  -17.6381 P   0  0  2  0  0  0  0  0  0  0  0  0
   15.3966  -25.7528  -20.0182 P   0  0  1  0  0  0  0  0  0  0  0  0
   16.6467  -21.0668  -18.5268 C   0  0  0  0  0  0  0  0  0  0  0  0
   15.3803  -20.7255  -19.0146 O   0  0  0  0  0  0  0  0  0  0  0  0
   17.6225  -20.4071  -19.2657 C   0  0  1  0  0  0  0  0  0  0  0  0
   18.9833  -20.6216  -18.6316 O   0  0  0  0  0  0  0  0  0  0  0  0
   17.7314  -20.9993  -20.7454 C   0  0  1  0  0  0  0  0  0  0  0  0
   17.3227  -19.9389  -21.7427 O   0  0  0  0  0  0  0  0  0  0  0  0
   18.9278  -21.2351  -20.9311 C   0  0  1  0  0  0  0  0  0  0  0  0
   19.5460  -20.0989  -21.6555 O   0  0  0  0  0  0  0  0  0  0  0  0
   19.6171  -21.3925  -19.4231 C   0  0  2  0  0  0  0  0  0  0  0  0
   22.1919  -25.7152  -18.3886 N   0  0  0  0  0  0  0  0  0  0  0  0
   14.1317  -21.3084  -16.8301 O   0  5  0  0  0  0  0  0  0  0  0  0
   13.7337  -24.3899  -16.5135 O   0  5  0  0  0  0  0  0  0  0  0  0
   16.5166  -24.7803  -20.3048 O   0  0  0  0  0  0  0  0  0  0  0  0
   22.6668  -24.5735  -18.8617 C   0  0  0  0  0  0  0  0  0  0  0  0
   24.0826  -24.4558  -19.1468 N   0  0  0  0  0  0  0  0  0  0  0  0
   12.8181  -20.8500  -18.8938 O   0  0  0  0  0  0  0  0  0  0  0  0
   16.0178  -23.6644  -17.0804 O   0  0  0  0  0  0  0  0  0  0  0  0
   15.8841  -27.1611  -20.2798 O   0  5  0  0  0  0  0  0  0  0  0  0
   21.8909  -23.5323  -19.0840 N   0  0  0  0  0  0  0  0  0  0  0  0
   14.1337  -23.0653  -18.6978 O   0  0  0  0  0  0  0  0  0  0  0  0
   14.9770  -25.5949  -18.4281 O   0  0  0  0  0  0  0  0  0  0  0  0
   14.2208  -25.4283  -20.9136 O   0  0  0  0  0  0  0  0  0  0  0  0
   20.5777  -23.5994  -18.8341 C   0  0  0  0  0  0  0  0  0  0  0  0
   20.0566  -24.7785  -18.3408 C   0  0  0  0  0  0  0  0  0  0  0  0
   20.9052  -25.8783  -18.1101 C   0  0  0  0  0  0  0  0  0  0  0  0
   20.4037  -27.0920  -17.6077 O   0  0  0  0  0  0  0  0  0  0  0  0
   18.7352  -24.5990  -18.1737 N   0  0  0  0  0  0  0  0  0  0  0  0
   18.4512  -23.3636  -18.5477 C   0  0  0  0  0  0  0  0  0  0  0  0
   19.5468  -22.7476  -18.9507 N   0  0  0  0  0  0  0  0  0  0  0  0
  1  5  1  6  0  0  0
  1 14  1  0  0  0  0
  1 19  2  0  0  0  0
  1 23  1  0  0  0  0
  2 15  1  1  0  0  0
  2 20  2  0  0  0  0
  2 23  1  0  0  0  0
  2 24  1  0  0  0  0
  3 16  1  6  0  0  0
  3 21  1  0  0  0  0
  3 24  1  0  0  0  0
  3 25  2  0  0  0  0
  4  5  1  0  0  0  0
  6  4  1  1  0  0  0
  6  7  1  0  0  0  0
  6  8  1  0  0  0  0
  7 12  1  0  0  0  0
  8  9  1  6  0  0  0
  8 10  1  0  0  0  0
 10 11  1  1  0  0  0
 10 12  1  0  0  0  0
 12 32  1  1  0  0  0
 13 17  2  0  0  0  0
 13 28  1  0  0  0  0
 17 18  1  0  0  0  0
 17 22  1  0  0  0  0
 22 26  2  0  0  0  0
 26 27  1  0  0  0  0
 26 32  1  0  0  0  0
 27 28  2  0  0  0  0
 27 30  1  0  0  0  0
 28 29  1  0  0  0  0
 30 31  2  0  0  0  0
 31 32  1  0  0  0  0
M  CHG  3  14  -1  15  -1  21  -1
M  END
>  <CHROM.1>
52.42832564,73.01247133,46.87270991,172.45484353,176.71607037,-132.27048192
98.92305373,151.59135881,17.29338918,-23.30788135,-18.96688413,-2.97196832
-0.09822203,2.93570902

>  <Name>
ligand

>  <RI>
0

>  <Rbt.Current_Directory>
/home/itssahil/PROJECTS/Mol_Feturizer/New_Systems/rnas/4Y1I

>  <Rbt.Executable>
rbdock ($Id: //depot/dev/client3/rdock/2013.1/src/exe/rbdock.cxx#4 $)

>  <Rbt.Library>
libRbt.so (2013.1, Build901 2013/11/27)

>  <Rbt.Parameter_File>
/export/apps/rDock/src/rDock_2013.1_src/data/scripts/dock_solv.prm

>  <Rbt.Receptor>
prm/pocket_docking_5.prm

>  <SCORE>
-8.55421

>  <SCORE.INTER>
-2.76105

>  <SCORE.INTER.CONST>
1

>  <SCORE.INTER.POLAR>
0

>  <SCORE.INTER.ROT>
8

>  <SCORE.INTER.SOLV>
11.5853

>  <SCORE.INTER.VDW>
-14.6358

>  <SCORE.INTER.norm>
-0.0862829

>  <SCORE.INTRA>
-5.79316

>  <SCORE.INTRA.DIHEDRAL>
-6.00596

>  <SCORE.INTRA.DIHEDRAL.0>
10.9594

>  <SCORE.INTRA.POLAR>
0

>  <SCORE.INTRA.POLAR.0>
0

>  <SCORE.INTRA.REPUL>
0

>  <SCORE.INTRA.REPUL.0>
0

>  <SCORE.INTRA.SOLV>
-3.8392

>  <SCORE.INTRA.SOLV.lig_0>
-124.914

>  <SCORE.INTRA.VDW>
-0.870576

>  <SCORE.INTRA.VDW.0>
-4.69801

>  <SCORE.INTRA.norm>
-0.181036

>  <SCORE.RESTR>
0

>  <SCORE.RESTR.CAVITY>
0

>  <SCORE.RESTR.norm>
0

>  <SCORE.SYSTEM>
0

>  <SCORE.SYSTEM.CONST>
0

>  <SCORE.SYSTEM.DIHEDRAL>
0

>  <SCORE.SYSTEM.SOLV>
0

>  <SCORE.SYSTEM.norm>
0

>  <SCORE.heavy>
32

>  <SCORE.norm>
-0.267319

>  <RMSD>
6.292

$$$$
ligand
 OpenBabel11021811513D
libRbt.so/2013.1/901 2013/11/27
 32 34  0  0  0  0  0  0  0  0999 V2000
   14.6506  -22.7466  -16.5684 P   0  0  1  0  0  0  0  0  0  0  0  0
   13.8123  -23.4018  -13.9040 P   0  0  2  0  0  0  0  0  0  0  0  0
   14.9444  -25.7841  -12.6163 P   0  0  1  0  0  0  0  0  0  0  0  0
   15.6457  -21.6085  -18.6912 C   0  0  0  0  0  0  0  0  0  0  0  0
   15.3801  -21.4785  -17.3235 O   0  0  0  0  0  0  0  0  0  0  0  0
   16.3357  -20.4875  -19.1391 C   0  0  1  0  0  0  0  0  0  0  0  0
   17.6293  -20.3332  -18.3627 O   0  0  0  0  0  0  0  0  0  0  0  0
   16.7611  -20.6399  -20.6714 C   0  0  1  0  0  0  0  0  0  0  0  0
   16.0394  -19.6008  -21.4992 O   0  0  0  0  0  0  0  0  0  0  0  0
   17.9648  -20.3750  -20.7191 C   0  0  1  0  0  0  0  0  0  0  0  0
   18.1406  -18.9573  -21.1157 O   0  0  0  0  0  0  0  0  0  0  0  0
   18.5620  -20.6154  -19.1831 C   0  0  2  0  0  0  0  0  0  0  0  0
   22.4747  -23.9401  -19.3304 N   0  0  0  0  0  0  0  0  0  0  0  0
   13.3618  -23.0893  -17.2739 O   0  5  0  0  0  0  0  0  0  0  0  0
   12.6017  -24.1489  -14.4046 O   0  5  0  0  0  0  0  0  0  0  0  0
   14.4632  -25.3265  -11.2594 O   0  0  0  0  0  0  0  0  0  0  0  0
   22.4900  -22.6461  -19.6094 C   0  0  0  0  0  0  0  0  0  0  0  0
   23.7327  -22.0204  -20.0142 N   0  0  0  0  0  0  0  0  0  0  0  0
   15.5988  -23.9243  -16.5717 O   0  0  0  0  0  0  0  0  0  0  0  0
   13.4617  -22.6630  -12.6392 O   0  0  0  0  0  0  0  0  0  0  0  0
   13.9530  -26.7756  -13.1853 O   0  5  0  0  0  0  0  0  0  0  0  0
   21.4061  -21.9012  -19.5311 N   0  0  0  0  0  0  0  0  0  0  0  0
   14.3087  -22.3078  -15.0227 O   0  0  0  0  0  0  0  0  0  0  0  0
   15.0346  -24.4598  -13.5999 O   0  0  0  0  0  0  0  0  0  0  0  0
   16.3050  -26.4286  -12.4653 O   0  0  0  0  0  0  0  0  0  0  0  0
   20.2381  -22.4403  -19.1613 C   0  0  0  0  0  0  0  0  0  0  0  0
   20.1944  -23.7877  -18.8653 C   0  0  0  0  0  0  0  0  0  0  0  0
   21.3658  -24.5641  -18.9551 C   0  0  0  0  0  0  0  0  0  0  0  0
   21.3526  -25.9386  -18.6594 O   0  0  0  0  0  0  0  0  0  0  0  0
   18.9292  -24.0871  -18.5250 N   0  0  0  0  0  0  0  0  0  0  0  0
   18.2212  -22.9741  -18.6074 C   0  0  0  0  0  0  0  0  0  0  0  0
   18.9912  -21.9731  -18.9914 N   0  0  0  0  0  0  0  0  0  0  0  0
  1  5  1  6  0  0  0
  1 14  1  0  0  0  0
  1 19  2  0  0  0  0
  1 23  1  0  0  0  0
  2 15  1  6  0  0  0
  2 20  2  0  0  0  0
  2 23  1  0  0  0  0
  2 24  1  0  0  0  0
  3 16  1  1  0  0  0
  3 21  1  0  0  0  0
  3 24  1  0  0  0  0
  3 25  2  0  0  0  0
  4  5  1  0  0  0  0
  6  4  1  1  0  0  0
  6  7  1  0  0  0  0
  6  8  1  0  0  0  0
  7 12  1  0  0  0  0
  8  9  1  6  0  0  0
  8 10  1  0  0  0  0
 10 11  1  1  0  0  0
 10 12  1  0  0  0  0
 12 32  1  6  0  0  0
 13 17  2  0  0  0  0
 13 28  1  0  0  0  0
 17 18  1  0  0  0  0
 17 22  1  0  0  0  0
 22 26  2  0  0  0  0
 26 27  1  0  0  0  0
 26 32  1  0  0  0  0
 27 28  2  0  0  0  0
 27 30  1  0  0  0  0
 28 29  1  0  0  0  0
 30 31  2  0  0  0  0
 31 32  1  0  0  0  0
M  CHG  3  14  -1  15  -1  21  -1
M  END
>  <CHROM.1>
-55.55316717,-54.78520769,-54.62815299,58.60154060,-176.19787144,-147.07051441
-169.42600593,-54.61101294,16.88107413,-22.99890084,-16.95975370,2.33319979
-0.38126648,2.30992301

>  <Name>
ligand

>  <RI>
0

>  <Rbt.Current_Directory>
/home/itssahil/PROJECTS/Mol_Feturizer/New_Systems/rnas/4Y1I

>  <Rbt.Executable>
rbdock ($Id: //depot/dev/client3/rdock/2013.1/src/exe/rbdock.cxx#4 $)

>  <Rbt.Library>
libRbt.so (2013.1, Build901 2013/11/27)

>  <Rbt.Parameter_File>
/export/apps/rDock/src/rDock_2013.1_src/data/scripts/dock_solv.prm

>  <Rbt.Receptor>
prm/pocket_docking_6.prm

>  <SCORE>
-12.0067

>  <SCORE.INTER>
-6.0365

>  <SCORE.INTER.CONST>
1

>  <SCORE.INTER.POLAR>
0

>  <SCORE.INTER.ROT>
8

>  <SCORE.INTER.SOLV>
10.873

>  <SCORE.INTER.VDW>
-16.582

>  <SCORE.INTER.norm>
-0.188641

>  <SCORE.INTRA>
-5.98781

>  <SCORE.INTRA.DIHEDRAL>
-9.28625

>  <SCORE.INTRA.DIHEDRAL.0>
10.9594

>  <SCORE.INTRA.POLAR>
0

>  <SCORE.INTRA.POLAR.0>
0

>  <SCORE.INTRA.REPUL>
0

>  <SCORE.INTRA.REPUL.0>
0

>  <SCORE.INTRA.SOLV>
-3.70534

>  <SCORE.INTRA.SOLV.lig_0>
-124.914

>  <SCORE.INTRA.VDW>
0.507982

>  <SCORE.INTRA.VDW.0>
-4.69801

>  <SCORE.INTRA.norm>
-0.187119

>  <SCORE.RESTR>
0.0175952

>  <SCORE.RESTR.CAVITY>
0.0175952

>  <SCORE.RESTR.norm>
0.000549849

>  <SCORE.SYSTEM>
0

>  <SCORE.SYSTEM.CONST>
0

>  <SCORE.SYSTEM.DIHEDRAL>
0

>  <SCORE.SYSTEM.SOLV>
0

>  <SCORE.SYSTEM.norm>
0

>  <SCORE.heavy>
32

>  <SCORE.norm>
-0.37521

>  <RMSD>
6.329

$$$$
ligand
 OpenBabel11021811513D
libRbt.so/2013.1/901 2013/11/27
 32 34  0  0  0  0  0  0  0  0999 V2000
   15.1725  -24.3211  -15.0474 P   0  0  1  0  0  0  0  0  0  0  0  0
   14.6134  -23.1983  -12.4671 P   0  0  2  0  0  0  0  0  0  0  0  0
   14.3068  -25.3984  -10.5486 P   0  0  1  0  0  0  0  0  0  0  0  0
   14.7215  -23.0327  -17.2673 C   0  0  0  0  0  0  0  0  0  0  0  0
   14.8781  -22.9320  -15.8805 O   0  0  0  0  0  0  0  0  0  0  0  0
   14.6365  -21.7592  -17.8190 C   0  0  1  0  0  0  0  0  0  0  0  0
   15.8950  -20.9744  -17.5028 O   0  0  0  0  0  0  0  0  0  0  0  0
   14.5483  -21.8202  -19.4129 C   0  0  1  0  0  0  0  0  0  0  0  0
   13.2057  -21.2901  -19.8628 O   0  0  0  0  0  0  0  0  0  0  0  0
   15.4086  -21.0421  -19.8321 C   0  0  1  0  0  0  0  0  0  0  0  0
   14.7808  -19.7349  -20.1401 O   0  0  0  0  0  0  0  0  0  0  0  0
   16.5220  -20.8650  -18.6062 C   0  0  2  0  0  0  0  0  0  0  0  0
   21.4614  -21.8514  -19.6136 N   0  0  0  0  0  0  0  0  0  0  0  0
   13.9139  -25.1497  -14.9734 O   0  5  0  0  0  0  0  0  0  0  0  0
   13.6913  -22.2564  -13.1998 O   0  5  0  0  0  0  0  0  0  0  0  0
   13.1314  -26.1551   -9.9757 O   0  0  0  0  0  0  0  0  0  0  0  0
   20.8330  -20.6872  -19.6635 C   0  0  0  0  0  0  0  0  0  0  0  0
   21.5686  -19.4977  -20.0425 N   0  0  0  0  0  0  0  0  0  0  0  0
   16.2794  -25.0798  -15.7441 O   0  0  0  0  0  0  0  0  0  0  0  0
   15.4316  -22.4260  -11.4657 O   0  0  0  0  0  0  0  0  0  0  0  0
   15.2597  -26.3794  -11.1960 O   0  5  0  0  0  0  0  0  0  0  0  0
   19.5520  -20.5714  -19.3783 N   0  0  0  0  0  0  0  0  0  0  0  0
   15.6385  -23.9268  -13.5222 O   0  0  0  0  0  0  0  0  0  0  0  0
   13.7322  -24.3468  -11.6858 O   0  0  0  0  0  0  0  0  0  0  0  0
   15.0015  -24.6485   -9.4330 O   0  0  0  0  0  0  0  0  0  0  0  0
   18.8363  -21.6455  -19.0240 C   0  0  0  0  0  0  0  0  0  0  0  0
   19.4671  -22.8717  -18.9645 C   0  0  0  0  0  0  0  0  0  0  0  0
   20.8375  -22.9715  -19.2729 C   0  0  0  0  0  0  0  0  0  0  0  0
   21.5075  -24.2065  -19.2207 O   0  0  0  0  0  0  0  0  0  0  0  0
   18.5509  -23.7811  -18.5905 N   0  0  0  0  0  0  0  0  0  0  0  0
   17.4037  -23.1456  -18.4264 C   0  0  0  0  0  0  0  0  0  0  0  0
   17.5553  -21.8602  -18.6853 N   0  0  0  0  0  0  0  0  0  0  0  0
  1  5  1  6  0  0  0
  1 14  1  0  0  0  0
  1 19  2  0  0  0  0
  1 23  1  0  0  0  0
  2 15  1  6  0  0  0
  2 20  2  0  0  0  0
  2 23  1  0  0  0  0
  2 24  1  0  0  0  0
  3 16  1  1  0  0  0
  3 21  1  0  0  0  0
  3 24  1  0  0  0  0
  3 25  2  0  0  0  0
  4  5  1  0  0  0  0
  6  4  1  1  0  0  0
  6  7  1  0  0  0  0
  6  8  1  0  0  0  0
  7 12  1  0  0  0  0
  8  9  1  1  0  0  0
  8 10  1  0  0  0  0
 10 11  1  1  0  0  0
 10 12  1  0  0  0  0
 12 32  1  6  0  0  0
 13 17  2  0  0  0  0
 13 28  1  0  0  0  0
 17 18  1  0  0  0  0
 17 22  1  0  0  0  0
 22 26  2  0  0  0  0
 26 27  1  0  0  0  0
 26 32  1  0  0  0  0
 27 28  2  0  0  0  0
 27 30  1  0  0  0  0
 28 29  1  0  0  0  0
 30 31  2  0  0  0  0
 31 32  1  0  0  0  0
M  CHG  3  14  -1  15  -1  21  -1
M  END
>  <CHROM.1>
-73.26099373,-34.54308762,173.10129351,59.44460122,-173.15600037,-131.23791336
65.97756274,-167.98082101,16.20954918,-23.01703454,-15.90568627,2.05266474
-0.19214987,2.04839731

>  <Name>
ligand

>  <RI>
0

>  <Rbt.Current_Directory>
/home/itssahil/PROJECTS/Mol_Feturizer/New_Systems/rnas/4Y1I

>  <Rbt.Executable>
rbdock ($Id: //depot/dev/client3/rdock/2013.1/src/exe/rbdock.cxx#4 $)

>  <Rbt.Library>
libRbt.so (2013.1, Build901 2013/11/27)

>  <Rbt.Parameter_File>
/export/apps/rDock/src/rDock_2013.1_src/data/scripts/dock_solv.prm

>  <Rbt.Receptor>
prm/pocket_docking_8.prm

>  <SCORE>
-11.3009

>  <SCORE.INTER>
-6.01212

>  <SCORE.INTER.CONST>
1

>  <SCORE.INTER.POLAR>
0

>  <SCORE.INTER.ROT>
8

>  <SCORE.INTER.SOLV>
14.8676

>  <SCORE.INTER.VDW>
-17.8973

>  <SCORE.INTER.norm>
-0.187879

>  <SCORE.INTRA>
-5.28879

>  <SCORE.INTRA.DIHEDRAL>
-7.96414

>  <SCORE.INTRA.DIHEDRAL.0>
10.9594

>  <SCORE.INTRA.POLAR>
0

>  <SCORE.INTRA.POLAR.0>
0

>  <SCORE.INTRA.REPUL>
0

>  <SCORE.INTRA.REPUL.0>
0

>  <SCORE.INTRA.SOLV>
-3.22462

>  <SCORE.INTRA.SOLV.lig_0>
-124.914

>  <SCORE.INTRA.VDW>
0.305582

>  <SCORE.INTRA.VDW.0>
-4.69801

>  <SCORE.INTRA.norm>
-0.165275

>  <SCORE.RESTR>
0

>  <SCORE.RESTR.CAVITY>
0

>  <SCORE.RESTR.norm>
0

>  <SCORE.SYSTEM>
0

>  <SCORE.SYSTEM.CONST>
0

>  <SCORE.SYSTEM.DIHEDRAL>
0

>  <SCORE.SYSTEM.SOLV>
0

>  <SCORE.SYSTEM.norm>
0

>  <SCORE.heavy>
32

>  <SCORE.norm>
-0.353154

>  <RMSD>
6.345

$$$$
ligand
 OpenBabel11021811513D
libRbt.so/2013.1/901 2013/11/27
 32 34  0  0  0  0  0  0  0  0999 V2000
   13.8475  -21.3510  -18.5347 P   0  0  1  0  0  0  0  0  0  0  0  0
   14.5361  -23.3704  -16.6166 P   0  0  2  0  0  0  0  0  0  0  0  0
   16.0276  -24.7291  -14.4848 P   0  0  1  0  0  0  0  0  0  0  0  0
   16.4333  -21.0296  -18.5764 C   0  0  0  0  0  0  0  0  0  0  0  0
   15.2126  -20.6803  -19.1645 O   0  0  0  0  0  0  0  0  0  0  0  0
   17.4760  -20.4511  -19.2916 C   0  0  1  0  0  0  0  0  0  0  0  0
   18.7943  -20.7224  -18.5927 O   0  0  0  0  0  0  0  0  0  0  0  0
   17.6118  -21.0963  -20.7467 C   0  0  1  0  0  0  0  0  0  0  0  0
   17.3078  -20.0471  -21.7922 O   0  0  0  0  0  0  0  0  0  0  0  0
   18.7989  -21.4061  -20.8730 C   0  0  1  0  0  0  0  0  0  0  0  0
   19.5123  -20.3312  -21.6036 O   0  0  0  0  0  0  0  0  0  0  0  0
   19.4144  -21.5537  -19.3324 C   0  0  2  0  0  0  0  0  0  0  0  0
   21.6806  -25.9941  -18.0948 N   0  0  0  0  0  0  0  0  0  0  0  0
   12.7359  -20.3311  -18.5208 O   0  5  0  0  0  0  0  0  0  0  0  0
   15.4258  -23.9630  -17.6803 O   0  5  0  0  0  0  0  0  0  0  0  0
   16.7950  -25.4489  -15.5689 O   0  0  0  0  0  0  0  0  0  0  0  0
   22.2399  -24.8994  -18.5862 C   0  0  0  0  0  0  0  0  0  0  0  0
   23.6678  -24.8790  -18.8315 N   0  0  0  0  0  0  0  0  0  0  0  0
   13.4678  -22.5536  -19.3689 O   0  0  0  0  0  0  0  0  0  0  0  0
   13.2578  -24.1624  -16.5295 O   0  0  0  0  0  0  0  0  0  0  0  0
   16.9917  -24.2860  -13.4060 O   0  5  0  0  0  0  0  0  0  0  0  0
   21.5379  -23.8193  -18.8622 N   0  0  0  0  0  0  0  0  0  0  0  0
   14.1589  -21.8171  -16.9905 O   0  0  0  0  0  0  0  0  0  0  0  0
   15.3040  -23.4075  -15.1623 O   0  0  0  0  0  0  0  0  0  0  0  0
   14.9896  -25.6677  -13.9094 O   0  0  0  0  0  0  0  0  0  0  0  0
   20.2165  -23.7968  -18.6505 C   0  0  0  0  0  0  0  0  0  0  0  0
   19.6081  -24.9253  -18.1391 C   0  0  0  0  0  0  0  0  0  0  0  0
   20.3787  -26.0682  -17.8509 C   0  0  0  0  0  0  0  0  0  0  0  0
   19.7874  -27.2321  -17.3288 O   0  0  0  0  0  0  0  0  0  0  0  0
   18.2965  -24.6588  -18.0176 N   0  0  0  0  0  0  0  0  0  0  0  0
   18.1018  -23.4203  -18.4359 C   0  0  0  0  0  0  0  0  0  0  0  0
   19.2452  -22.8865  -18.8231 N   0  0  0  0  0  0  0  0  0  0  0  0
  1  5  1  6  0  0  0
  1 14  1  0  0  0  0
  1 19  2  0  0  0  0
  1 23  1  0  0  0  0
  2 15  1  6  0  0  0
  2 20  2  0  0  0  0
  2 23  1  0  0  0  0
  2 24  1  0  0  0  0
  3 16  1  6  0  0  0
  3 21  1  0  0  0  0
  3 24  1  0  0  0  0
  3 25  2  0  0  0  0
  4  5  1  0  0  0  0
  6  4  1  1  0  0  0
  6  7  1  0  0  0  0
  6  8  1  0  0  0  0
  7 12  1  0  0  0  0
  8  9  1  6  0  0  0
  8 10  1  0  0  0  0
 10 11  1  6  0  0  0
 10 12  1  0  0  0  0
 12 32  1  1  0  0  0
 13 17  2  0  0  0  0
 13 28  1  0  0  0  0
 17 18  1  0  0  0  0
 17 22  1  0  0  0  0
 22 26  2  0  0  0  0
 26 27  1  0  0  0  0
 26 32  1  0  0  0  0
 27 28  2  0  0  0  0
 27 30  1  0  0  0  0
 28 29  1  0  0  0  0
 30 31  2  0  0  0  0
 31 32  1  0  0  0  0
M  CHG  3  14  -1  15  -1  21  -1
M  END
>  <CHROM.1>
141.27976444,38.75038646,42.62383771,175.05279970,175.73390728,-133.07689100
-98.18715749,-50.82190939,17.17087207,-23.12855324,-17.87318673,3.10660457
-0.33739976,2.33126759

>  <Name>
ligand

>  <RI>
0

>  <Rbt.Current_Directory>
/home/itssahil/PROJECTS/Mol_Feturizer/New_Systems/rnas/4Y1I

>  <Rbt.Executable>
rbdock ($Id: //depot/dev/client3/rdock/2013.1/src/exe/rbdock.cxx#4 $)

>  <Rbt.Library>
libRbt.so (2013.1, Build901 2013/11/27)

>  <Rbt.Parameter_File>
/export/apps/rDock/src/rDock_2013.1_src/data/scripts/dock_solv.prm

>  <Rbt.Receptor>
prm/pocket_docking_5.prm

>  <SCORE>
-10.2026

>  <SCORE.INTER>
-6.43047

>  <SCORE.INTER.CONST>
1

>  <SCORE.INTER.POLAR>
0

>  <SCORE.INTER.ROT>
8

>  <SCORE.INTER.SOLV>
14.9442

>  <SCORE.INTER.VDW>
-18.2017

>  <SCORE.INTER.norm>
-0.200952

>  <SCORE.INTRA>
-3.77214

>  <SCORE.INTRA.DIHEDRAL>
-4.91394

>  <SCORE.INTRA.DIHEDRAL.0>
10.9594

>  <SCORE.INTRA.POLAR>
0

>  <SCORE.INTRA.POLAR.0>
0

>  <SCORE.INTRA.REPUL>
0

>  <SCORE.INTRA.REPUL.0>
0

>  <SCORE.INTRA.SOLV>
-2.58526

>  <SCORE.INTRA.SOLV.lig_0>
-124.914

>  <SCORE.INTRA.VDW>
-0.0225415

>  <SCORE.INTRA.VDW.0>
-4.69801

>  <SCORE.INTRA.norm>
-0.117879

>  <SCORE.RESTR>
0

>  <SCORE.RESTR.CAVITY>
0

>  <SCORE.RESTR.norm>
0

>  <SCORE.SYSTEM>
0

>  <SCORE.SYSTEM.CONST>
0

>  <SCORE.SYSTEM.DIHEDRAL>
0

>  <SCORE.SYSTEM.SOLV>
0

>  <SCORE.SYSTEM.norm>
0

>  <SCORE.heavy>
32

>  <SCORE.norm>
-0.318831

>  <RMSD>
6.417

$$$$
ligand
 OpenBabel11021811513D
libRbt.so/2013.1/901 2013/11/27
 32 34  0  0  0  0  0  0  0  0999 V2000
   18.2554  -20.5706  -19.1633 P   0  0  1  0  0  0  0  0  0  0  0  0
   15.7748  -21.5372  -18.0942 P   0  0  2  0  0  0  0  0  0  0  0  0
   13.3688  -21.9960  -16.4768 P   0  0  1  0  0  0  0  0  0  0  0  0
   19.3628  -22.9181  -19.3966 C   0  0  0  0  0  0  0  0  0  0  0  0
   19.2212  -21.7780  -18.5978 O   0  0  0  0  0  0  0  0  0  0  0  0
   20.2851  -23.7810  -18.8154 C   0  0  1  0  0  0  0  0  0  0  0  0
   19.7100  -24.3695  -17.5415 O   0  0  0  0  0  0  0  0  0  0  0  0
   20.5995  -25.0242  -19.7681 C   0  0  1  0  0  0  0  0  0  0  0  0
   22.0470  -24.9718  -20.2020 O   0  0  0  0  0  0  0  0  0  0  0  0
   20.4626  -26.0319  -19.0702 C   0  0  1  0  0  0  0  0  0  0  0  0
   21.7873  -26.4616  -18.5620 O   0  0  0  0  0  0  0  0  0  0  0  0
   19.4787  -25.5953  -17.7992 C   0  0  2  0  0  0  0  0  0  0  0  0
   15.0573  -27.9087  -16.5810 N   0  0  0  0  0  0  0  0  0  0  0  0
   19.0207  -19.2706  -19.1838 O   0  5  0  0  0  0  0  0  0  0  0  0
   16.3490  -22.8948  -17.7754 O   0  5  0  0  0  0  0  0  0  0  0  0
   12.5502  -22.2994  -17.7098 O   0  0  0  0  0  0  0  0  0  0  0  0
   16.2307  -28.0175  -15.9778 C   0  0  0  0  0  0  0  0  0  0  0  0
   16.3583  -28.8806  -14.8208 N   0  0  0  0  0  0  0  0  0  0  0  0
   17.7785  -20.9394  -20.5499 O   0  0  0  0  0  0  0  0  0  0  0  0
   15.0956  -21.5797  -19.4379 O   0  0  0  0  0  0  0  0  0  0  0  0
   13.8262  -23.2966  -15.8533 O   0  5  0  0  0  0  0  0  0  0  0  0
   17.2950  -27.3633  -16.3959 N   0  0  0  0  0  0  0  0  0  0  0  0
   16.9697  -20.4133  -18.1528 O   0  0  0  0  0  0  0  0  0  0  0  0
   14.6826  -21.1085  -16.9413 O   0  0  0  0  0  0  0  0  0  0  0  0
   12.5174  -21.2151  -15.4997 O   0  0  0  0  0  0  0  0  0  0  0  0
   17.2199  -26.5561  -17.4610 C   0  0  0  0  0  0  0  0  0  0  0  0
   16.0081  -26.4250  -18.1087 C   0  0  0  0  0  0  0  0  0  0  0  0
   14.8836  -27.1335  -17.6435 C   0  0  0  0  0  0  0  0  0  0  0  0
   13.6361  -27.0199  -18.2820 O   0  0  0  0  0  0  0  0  0  0  0  0
   16.1858  -25.5721  -19.1321 N   0  0  0  0  0  0  0  0  0  0  0  0
   17.4517  -25.1927  -19.1184 C   0  0  0  0  0  0  0  0  0  0  0  0
   18.0903  -25.7765  -18.1215 N   0  0  0  0  0  0  0  0  0  0  0  0
  1  5  1  1  0  0  0
  1 14  1  0  0  0  0
  1 19  2  0  0  0  0
  1 23  1  0  0  0  0
  2 15  1  1  0  0  0
  2 20  2  0  0  0  0
  2 23  1  0  0  0  0
  2 24  1  0  0  0  0
  3 16  1  6  0  0  0
  3 21  1  0  0  0  0
  3 24  1  0  0  0  0
  3 25  2  0  0  0  0
  4  5  1  0  0  0  0
  6  4  1  6  0  0  0
  6  7  1  0  0  0  0
  6  8  1  0  0  0  0
  7 12  1  0  0  0  0
  8  9  1  1  0  0  0
  8 10  1  0  0  0  0
 10 11  1  1  0  0  0
 10 12  1  0  0  0  0
 12 32  1  6  0  0  0
 13 17  2  0  0  0  0
 13 28  1  0  0  0  0
 17 18  1  0  0  0  0
 17 22  1  0  0  0  0
 22 26  2  0  0  0  0
 26 27  1  0  0  0  0
 26 32  1  0  0  0  0
 27 28  2  0  0  0  0
 27 30  1  0  0  0  0
 28 29  1  0  0  0  0
 30 31  2  0  0  0  0
 31 32  1  0  0  0  0
M  CHG  3  14  -1  15  -1  21  -1
M  END
>  <CHROM.1>
-125.65891077,56.81618834,-54.70659488,69.14301292,175.53256451,-119.64103804
-71.58124888,-54.90049127,16.95505932,-23.76811095,-18.00646751,-2.64067519
-0.36303631,2.92495966

>  <Name>
ligand

>  <RI>
0

>  <Rbt.Current_Directory>
/home/itssahil/PROJECTS/Mol_Feturizer/New_Systems/rnas/4Y1I

>  <Rbt.Executable>
rbdock ($Id: //depot/dev/client3/rdock/2013.1/src/exe/rbdock.cxx#4 $)

>  <Rbt.Library>
libRbt.so (2013.1, Build901 2013/11/27)

>  <Rbt.Parameter_File>
/export/apps/rDock/src/rDock_2013.1_src/data/scripts/dock_solv.prm

>  <Rbt.Receptor>
prm/pocket_docking_5.prm

>  <SCORE>
-8.15492

>  <SCORE.INTER>
-3.78399

>  <SCORE.INTER.CONST>
1

>  <SCORE.INTER.POLAR>
0

>  <SCORE.INTER.ROT>
8

>  <SCORE.INTER.SOLV>
19.2354

>  <SCORE.INTER.VDW>
-17.8678

>  <SCORE.INTER.norm>
-0.11825

>  <SCORE.INTRA>
-4.37093

>  <SCORE.INTRA.DIHEDRAL>
-6.6536

>  <SCORE.INTRA.DIHEDRAL.0>
10.9594

>  <SCORE.INTRA.POLAR>
0

>  <SCORE.INTRA.POLAR.0>
0

>  <SCORE.INTRA.REPUL>
0

>  <SCORE.INTRA.REPUL.0>
0

>  <SCORE.INTRA.SOLV>
-1.67533

>  <SCORE.INTRA.SOLV.lig_0>
-124.914

>  <SCORE.INTRA.VDW>
-0.206461

>  <SCORE.INTRA.VDW.0>
-4.69801

>  <SCORE.INTRA.norm>
-0.136591

>  <SCORE.RESTR>
0

>  <SCORE.RESTR.CAVITY>
0

>  <SCORE.RESTR.norm>
0

>  <SCORE.SYSTEM>
0

>  <SCORE.SYSTEM.CONST>
0

>  <SCORE.SYSTEM.DIHEDRAL>
0

>  <SCORE.SYSTEM.SOLV>
0

>  <SCORE.SYSTEM.norm>
0

>  <SCORE.heavy>
32

>  <SCORE.norm>
-0.254841

>  <RMSD>
6.423

$$$$
ligand
 OpenBabel11021811513D
libRbt.so/2013.1/901 2013/11/27
 32 34  0  0  0  0  0  0  0  0999 V2000
   15.7616  -24.7261  -22.3009 P   0  0  1  0  0  0  0  0  0  0  0  0
   18.5196  -25.5155  -22.2606 P   0  0  2  0  0  0  0  0  0  0  0  0
   18.0862  -28.1829  -21.1150 P   0  0  1  0  0  0  0  0  0  0  0  0
   16.6742  -23.0656  -20.5117 C   0  0  0  0  0  0  0  0  0  0  0  0
   16.0902  -23.2007  -21.7760 O   0  0  0  0  0  0  0  0  0  0  0  0
   16.8895  -21.7189  -20.2408 C   0  0  1  0  0  0  0  0  0  0  0  0
   17.4967  -21.5606  -18.8602 O   0  0  0  0  0  0  0  0  0  0  0  0
   17.9442  -21.0822  -21.2578 C   0  0  1  0  0  0  0  0  0  0  0  0
   17.2579  -20.0322  -22.1020 O   0  0  0  0  0  0  0  0  0  0  0  0
   18.7818  -20.5029  -20.5621 C   0  0  1  0  0  0  0  0  0  0  0  0
   18.4383  -19.0633  -20.4759 O   0  0  0  0  0  0  0  0  0  0  0  0
   18.7031  -21.1992  -19.0512 C   0  0  2  0  0  0  0  0  0  0  0  0
   19.2348  -26.0874  -17.5651 N   0  0  0  0  0  0  0  0  0  0  0  0
   15.4326  -25.6120  -21.1249 O   0  5  0  0  0  0  0  0  0  0  0  0
   19.0232  -24.1879  -21.7524 O   0  5  0  0  0  0  0  0  0  0  0  0
   19.2319  -28.7478  -21.9216 O   0  0  0  0  0  0  0  0  0  0  0  0
   18.1615  -25.3174  -17.4761 C   0  0  0  0  0  0  0  0  0  0  0  0
   16.9467  -25.8549  -16.8971 N   0  0  0  0  0  0  0  0  0  0  0  0
   14.6053  -24.6664  -23.2734 O   0  0  0  0  0  0  0  0  0  0  0  0
   19.5218  -26.1012  -23.2204 O   0  0  0  0  0  0  0  0  0  0  0  0
   18.1024  -28.7983  -19.7328 O   0  5  0  0  0  0  0  0  0  0  0  0
   18.1591  -24.0697  -17.8989 N   0  0  0  0  0  0  0  0  0  0  0  0
   17.0961  -25.3182  -23.0541 O   0  0  0  0  0  0  0  0  0  0  0  0
   18.2995  -26.5487  -20.9997 O   0  0  0  0  0  0  0  0  0  0  0  0
   16.7845  -28.5015  -21.8175 O   0  0  0  0  0  0  0  0  0  0  0  0
   19.2605  -23.5349  -18.4397 C   0  0  0  0  0  0  0  0  0  0  0  0
   20.3937  -24.3159  -18.5440 C   0  0  0  0  0  0  0  0  0  0  0  0
   20.3728  -25.6474  -18.0860 C   0  0  0  0  0  0  0  0  0  0  0  0
   21.5111  -26.4674  -18.1793 O   0  0  0  0  0  0  0  0  0  0  0  0
   21.3527  -23.5649  -19.1119 N   0  0  0  0  0  0  0  0  0  0  0  0
   20.8358  -22.3717  -19.3481 C   0  0  0  0  0  0  0  0  0  0  0  0
   19.5785  -22.3338  -18.9479 N   0  0  0  0  0  0  0  0  0  0  0  0
  1  5  1  1  0  0  0
  1 14  1  0  0  0  0
  1 19  2  0  0  0  0
  1 23  1  0  0  0  0
  2 15  1  1  0  0  0
  2 20  2  0  0  0  0
  2 23  1  0  0  0  0
  2 24  1  0  0  0  0
  3 16  1  6  0  0  0
  3 21  1  0  0  0  0
  3 24  1  0  0  0  0
  3 25  2  0  0  0  0
  4  5  1  0  0  0  0
  6  4  1  6  0  0  0
  6  7  1  0  0  0  0
  6  8  1  0  0  0  0
  7 12  1  0  0  0  0
  8  9  1  6  0  0  0
  8 10  1  0  0  0  0
 10 11  1  1  0  0  0
 10 12  1  0  0  0  0
 12 32  1  6  0  0  0
 13 17  2  0  0  0  0
 13 28  1  0  0  0  0
 17 18  1  0  0  0  0
 17 22  1  0  0  0  0
 22 26  2  0  0  0  0
 26 27  1  0  0  0  0
 26 32  1  0  0  0  0
 27 28  2  0  0  0  0
 27 30  1  0  0  0  0
 28 29  1  0  0  0  0
 30 31  2  0  0  0  0
 31 32  1  0  0  0  0
M  CHG  3  14  -1  15  -1  21  -1
M  END
>  <CHROM.1>
31.36688427,-61.30758515,53.68092395,178.85922500,179.48356091,-13.93017940
61.62320970,-165.59345150,18.13150946,-24.54983614,-20.50395454,1.62338611
0.86917886,-3.02864712

>  <Name>
ligand

>  <RI>
0

>  <Rbt.Current_Directory>
/home/itssahil/PROJECTS/Mol_Feturizer/New_Systems/rnas/4Y1I

>  <Rbt.Executable>
rbdock ($Id: //depot/dev/client3/rdock/2013.1/src/exe/rbdock.cxx#4 $)

>  <Rbt.Library>
libRbt.so (2013.1, Build901 2013/11/27)

>  <Rbt.Parameter_File>
/export/apps/rDock/src/rDock_2013.1_src/data/scripts/dock_solv.prm

>  <Rbt.Receptor>
prm/pocket_docking_7.prm

>  <SCORE>
-5.32983

>  <SCORE.INTER>
1.11023

>  <SCORE.INTER.CONST>
1

>  <SCORE.INTER.POLAR>
0

>  <SCORE.INTER.ROT>
8

>  <SCORE.INTER.SOLV>
5.36759

>  <SCORE.INTER.VDW>
-9.98238

>  <SCORE.INTER.norm>
0.0346947

>  <SCORE.INTRA>
-6.44006

>  <SCORE.INTRA.DIHEDRAL>
-8.27446

>  <SCORE.INTRA.DIHEDRAL.0>
10.9594

>  <SCORE.INTRA.POLAR>
0

>  <SCORE.INTRA.POLAR.0>
0

>  <SCORE.INTRA.REPUL>
0

>  <SCORE.INTRA.REPUL.0>
0

>  <SCORE.INTRA.SOLV>
0.8214

>  <SCORE.INTRA.SOLV.lig_0>
-124.914

>  <SCORE.INTRA.VDW>
-2.71353

>  <SCORE.INTRA.VDW.0>
-4.69801

>  <SCORE.INTRA.norm>
-0.201252

>  <SCORE.RESTR>
0

>  <SCORE.RESTR.CAVITY>
0

>  <SCORE.RESTR.norm>
0

>  <SCORE.SYSTEM>
0

>  <SCORE.SYSTEM.CONST>
0

>  <SCORE.SYSTEM.DIHEDRAL>
0

>  <SCORE.SYSTEM.SOLV>
0

>  <SCORE.SYSTEM.norm>
0

>  <SCORE.heavy>
32

>  <SCORE.norm>
-0.166557

>  <RMSD>
6.439

$$$$
ligand
 OpenBabel11021811513D
libRbt.so/2013.1/901 2013/11/27
 32 34  0  0  0  0  0  0  0  0999 V2000
   15.9055  -24.5173  -16.2790 P   0  0  1  0  0  0  0  0  0  0  0  0
   13.9794  -22.9587  -17.7255 P   0  0  2  0  0  0  0  0  0  0  0  0
   12.9786  -24.2716  -20.1524 P   0  0  1  0  0  0  0  0  0  0  0  0
   18.2427  -24.7468  -17.4087 C   0  0  0  0  0  0  0  0  0  0  0  0
   17.0061  -24.0923  -17.4271 O   0  0  0  0  0  0  0  0  0  0  0  0
   19.0477  -24.2480  -18.4267 C   0  0  1  0  0  0  0  0  0  0  0  0
   20.5086  -24.4675  -18.0843 O   0  0  0  0  0  0  0  0  0  0  0  0
   18.7988  -25.0261  -19.7995 C   0  0  1  0  0  0  0  0  0  0  0  0
   18.2111  -24.0748  -20.8173 O   0  0  0  0  0  0  0  0  0  0  0  0
   19.9133  -25.3588  -20.2099 C   0  0  1  0  0  0  0  0  0  0  0  0
   20.3897  -24.3637  -21.2001 O   0  0  0  0  0  0  0  0  0  0  0  0
   20.9203  -25.3700  -18.8833 C   0  0  2  0  0  0  0  0  0  0  0  0
   23.6470  -28.9054  -16.3432 N   0  0  0  0  0  0  0  0  0  0  0  0
   15.3592  -25.8914  -16.5778 O   0  5  0  0  0  0  0  0  0  0  0  0
   14.9153  -22.0524  -18.4849 O   0  5  0  0  0  0  0  0  0  0  0  0
   13.9183  -23.5077  -21.0555 O   0  0  0  0  0  0  0  0  0  0  0  0
   24.0633  -27.7485  -16.8342 C   0  0  0  0  0  0  0  0  0  0  0  0
   25.4512  -27.3652  -16.6717 N   0  0  0  0  0  0  0  0  0  0  0  0
   16.5788  -24.4855  -14.9255 O   0  0  0  0  0  0  0  0  0  0  0  0
   12.7077  -22.2174  -17.4062 O   0  0  0  0  0  0  0  0  0  0  0  0
   12.8448  -25.6899  -20.6623 O   0  5  0  0  0  0  0  0  0  0  0  0
   23.2534  -26.9270  -17.4703 N   0  0  0  0  0  0  0  0  0  0  0  0
   14.6693  -23.4358  -16.3144 O   0  0  0  0  0  0  0  0  0  0  0  0
   13.6277  -24.2847  -18.6332 O   0  0  0  0  0  0  0  0  0  0  0  0
   11.6305  -23.5845  -20.1492 O   0  0  0  0  0  0  0  0  0  0  0  0
   21.9642  -27.2434  -17.6420 C   0  0  0  0  0  0  0  0  0  0  0  0
   21.5042  -28.4441  -17.1403 C   0  0  0  0  0  0  0  0  0  0  0  0
   22.3881  -29.3062  -16.4630 C   0  0  0  0  0  0  0  0  0  0  0  0
   21.9487  -30.5354  -15.9404 O   0  0  0  0  0  0  0  0  0  0  0  0
   20.1960  -28.5320  -17.4350 N   0  0  0  0  0  0  0  0  0  0  0  0
   19.8614  -27.4344  -18.0908 C   0  0  0  0  0  0  0  0  0  0  0  0
   20.9129  -26.6482  -18.2272 N   0  0  0  0  0  0  0  0  0  0  0  0
  1  5  1  6  0  0  0
  1 14  1  0  0  0  0
  1 19  2  0  0  0  0
  1 23  1  0  0  0  0
  2 15  1  6  0  0  0
  2 20  2  0  0  0  0
  2 23  1  0  0  0  0
  2 24  1  0  0  0  0
  3 16  1  6  0  0  0
  3 21  1  0  0  0  0
  3 24  1  0  0  0  0
  3 25  2  0  0  0  0
  4  5  1  0  0  0  0
  6  4  1  1  0  0  0
  6  7  1  0  0  0  0
  6  8  1  0  0  0  0
  7 12  1  0  0  0  0
  8  9  1  6  0  0  0
  8 10  1  0  0  0  0
 10 11  1  6  0  0  0
 10 12  1  0  0  0  0
 12 32  1  1  0  0  0
 13 17  2  0  0  0  0
 13 28  1  0  0  0  0
 17 18  1  0  0  0  0
 17 22  1  0  0  0  0
 22 26  2  0  0  0  0
 26 27  1  0  0  0  0
 26 32  1  0  0  0  0
 27 28  2  0  0  0  0
 27 30  1  0  0  0  0
 28 29  1  0  0  0  0
 30 31  2  0  0  0  0
 31 32  1  0  0  0  0
M  CHG  3  14  -1  15  -1  21  -1
M  END
>  <CHROM.1>
-71.87615755,-72.27083796,59.48168220,155.79412898,-178.95880760,-96.97126162
45.91927822,-56.37312805,17.74408568,-25.28910141,-18.11051826,2.85874168
0.36568001,-1.24657444

>  <Name>
ligand

>  <RI>
0

>  <Rbt.Current_Directory>
/home/itssahil/PROJECTS/Mol_Feturizer/New_Systems/rnas/4Y1I

>  <Rbt.Executable>
rbdock ($Id: //depot/dev/client3/rdock/2013.1/src/exe/rbdock.cxx#4 $)

>  <Rbt.Library>
libRbt.so (2013.1, Build901 2013/11/27)

>  <Rbt.Parameter_File>
/export/apps/rDock/src/rDock_2013.1_src/data/scripts/dock_solv.prm

>  <Rbt.Receptor>
prm/pocket_docking_8.prm

>  <SCORE>
-4.13497

>  <SCORE.INTER>
2.11081

>  <SCORE.INTER.CONST>
1

>  <SCORE.INTER.POLAR>
0

>  <SCORE.INTER.ROT>
8

>  <SCORE.INTER.SOLV>
8.31431

>  <SCORE.INTER.VDW>
-10.2976

>  <SCORE.INTER.norm>
0.0659628

>  <SCORE.INTRA>
-6.24578

>  <SCORE.INTRA.DIHEDRAL>
-7.16307

>  <SCORE.INTRA.DIHEDRAL.0>
10.9594

>  <SCORE.INTRA.POLAR>
0

>  <SCORE.INTRA.POLAR.0>
0

>  <SCORE.INTRA.REPUL>
2.46376e-05

>  <SCORE.INTRA.REPUL.0>
0

>  <SCORE.INTRA.SOLV>
-5.50755

>  <SCORE.INTRA.SOLV.lig_0>
-124.914

>  <SCORE.INTRA.VDW>
0.0894049

>  <SCORE.INTRA.VDW.0>
-4.69801

>  <SCORE.INTRA.norm>
-0.195181

>  <SCORE.RESTR>
0

>  <SCORE.RESTR.CAVITY>
0

>  <SCORE.RESTR.norm>
0

>  <SCORE.SYSTEM>
0

>  <SCORE.SYSTEM.CONST>
0

>  <SCORE.SYSTEM.DIHEDRAL>
0

>  <SCORE.SYSTEM.SOLV>
0

>  <SCORE.SYSTEM.norm>
0

>  <SCORE.heavy>
32

>  <SCORE.norm>
-0.129218

>  <RMSD>
6.450

$$$$
ligand
 OpenBabel11021811513D
libRbt.so/2013.1/901 2013/11/27
 32 34  0  0  0  0  0  0  0  0999 V2000
   16.2845  -24.9187  -16.2187 P   0  0  1  0  0  0  0  0  0  0  0  0
   18.6826  -25.5189  -17.6746 P   0  0  2  0  0  0  0  0  0  0  0  0
   21.3632  -25.4182  -18.8661 P   0  0  1  0  0  0  0  0  0  0  0  0
   15.7911  -23.2754  -18.1802 C   0  0  0  0  0  0  0  0  0  0  0  0
   15.5613  -23.5731  -16.8324 O   0  0  0  0  0  0  0  0  0  0  0  0
   15.3330  -21.9921  -18.4572 C   0  0  1  0  0  0  0  0  0  0  0  0
   16.2725  -20.9667  -17.8524 O   0  0  0  0  0  0  0  0  0  0  0  0
   15.3245  -21.7039  -20.0285 C   0  0  1  0  0  0  0  0  0  0  0  0
   13.9003  -21.5046  -20.4953 O   0  0  0  0  0  0  0  0  0  0  0  0
   15.9137  -20.6313  -20.1817 C   0  0  1  0  0  0  0  0  0  0  0  0
   14.9212  -19.5337  -20.2719 O   0  0  0  0  0  0  0  0  0  0  0  0
   16.8727  -20.4235  -18.8359 C   0  0  2  0  0  0  0  0  0  0  0  0
   21.9289  -19.6518  -19.3089 N   0  0  0  0  0  0  0  0  0  0  0  0
   15.9923  -25.0283  -14.7426 O   0  5  0  0  0  0  0  0  0  0  0  0
   17.9975  -25.1991  -18.9794 O   0  5  0  0  0  0  0  0  0  0  0  0
   22.6063  -24.5949  -18.6227 O   0  0  0  0  0  0  0  0  0  0  0  0
   20.9749  -18.7478  -19.1495 C   0  0  0  0  0  0  0  0  0  0  0  0
   21.3280  -17.3437  -19.0922 N   0  0  0  0  0  0  0  0  0  0  0  0
   15.7691  -26.1295  -16.9634 O   0  0  0  0  0  0  0  0  0  0  0  0
   18.6516  -27.0064  -17.4399 O   0  0  0  0  0  0  0  0  0  0  0  0
   21.7072  -26.8858  -18.7350 O   0  5  0  0  0  0  0  0  0  0  0  0
   19.7055  -19.0830  -19.0402 N   0  0  0  0  0  0  0  0  0  0  0  0
   17.9079  -24.7815  -16.4293 O   0  0  0  0  0  0  0  0  0  0  0  0
   20.2442  -25.0042  -17.7233 O   0  0  0  0  0  0  0  0  0  0  0  0
   20.8401  -25.1225  -20.2548 O   0  0  0  0  0  0  0  0  0  0  0  0
   19.3371  -20.3689  -19.0883 C   0  0  0  0  0  0  0  0  0  0  0  0
   20.3120  -21.3317  -19.2543 C   0  0  0  0  0  0  0  0  0  0  0  0
   21.6628  -20.9501  -19.3681 C   0  0  0  0  0  0  0  0  0  0  0  0
   22.6781  -21.9078  -19.5374 O   0  0  0  0  0  0  0  0  0  0  0  0
   19.7010  -22.5286  -19.2711 N   0  0  0  0  0  0  0  0  0  0  0  0
   18.4051  -22.3157  -19.1225 C   0  0  0  0  0  0  0  0  0  0  0  0
   18.1667  -21.0220  -19.0136 N   0  0  0  0  0  0  0  0  0  0  0  0
  1  5  1  6  0  0  0
  1 14  1  0  0  0  0
  1 19  2  0  0  0  0
  1 23  1  0  0  0  0
  2 15  1  6  0  0  0
  2 20  2  0  0  0  0
  2 23  1  0  0  0  0
  2 24  1  0  0  0  0
  3 16  1  1  0  0  0
  3 21  1  0  0  0  0
  3 24  1  0  0  0  0
  3 25  2  0  0  0  0
  4  5  1  0  0  0  0
  6  4  1  6  0  0  0
  6  7  1  0  0  0  0
  6  8  1  0  0  0  0
  7 12  1  0  0  0  0
  8  9  1  1  0  0  0
  8 10  1  0  0  0  0
 10 11  1  1  0  0  0
 10 12  1  0  0  0  0
 12 32  1  6  0  0  0
 13 17  2  0  0  0  0
 13 28  1  0  0  0  0
 17 18  1  0  0  0  0
 17 22  1  0  0  0  0
 22 26  2  0  0  0  0
 26 27  1  0  0  0  0
 26 32  1  0  0  0  0
 27 28  2  0  0  0  0
 27 30  1  0  0  0  0
 28 29  1  0  0  0  0
 30 31  2  0  0  0  0
 31 32  1  0  0  0  0
M  CHG  3  14  -1  15  -1  21  -1
M  END
>  <CHROM.1>
176.52873670,50.93296167,173.28408537,73.46040941,-168.38376550,-127.25959482
-98.87030249,-55.13046462,18.50419933,-23.02883062,-18.45582656,1.83031030
-0.16061711,2.82122099

>  <Name>
ligand

>  <RI>
0

>  <Rbt.Current_Directory>
/home/itssahil/PROJECTS/Mol_Feturizer/New_Systems/rnas/4Y1I

>  <Rbt.Executable>
rbdock ($Id: //depot/dev/client3/rdock/2013.1/src/exe/rbdock.cxx#4 $)

>  <Rbt.Library>
libRbt.so (2013.1, Build901 2013/11/27)

>  <Rbt.Parameter_File>
/export/apps/rDock/src/rDock_2013.1_src/data/scripts/dock_solv.prm

>  <Rbt.Receptor>
prm/pocket_docking_7.prm

>  <SCORE>
-13.6767

>  <SCORE.INTER>
-9.37538

>  <SCORE.INTER.CONST>
1

>  <SCORE.INTER.POLAR>
0

>  <SCORE.INTER.ROT>
8

>  <SCORE.INTER.SOLV>
14.9585

>  <SCORE.INTER.VDW>
-20.1697

>  <SCORE.INTER.norm>
-0.29298

>  <SCORE.INTRA>
-4.3013

>  <SCORE.INTRA.DIHEDRAL>
-6.45096

>  <SCORE.INTRA.DIHEDRAL.0>
10.9594

>  <SCORE.INTRA.POLAR>
0

>  <SCORE.INTRA.POLAR.0>
0

>  <SCORE.INTRA.REPUL>
0

>  <SCORE.INTRA.REPUL.0>
0

>  <SCORE.INTRA.SOLV>
1.37923

>  <SCORE.INTRA.SOLV.lig_0>
-124.914

>  <SCORE.INTRA.VDW>
-1.76544

>  <SCORE.INTRA.VDW.0>
-4.69801

>  <SCORE.INTRA.norm>
-0.134416

>  <SCORE.RESTR>
0

>  <SCORE.RESTR.CAVITY>
0

>  <SCORE.RESTR.norm>
0

>  <SCORE.SYSTEM>
0

>  <SCORE.SYSTEM.CONST>
0

>  <SCORE.SYSTEM.DIHEDRAL>
0

>  <SCORE.SYSTEM.SOLV>
0

>  <SCORE.SYSTEM.norm>
0

>  <SCORE.heavy>
32

>  <SCORE.norm>
-0.427396

>  <RMSD>
6.474

$$$$
ligand
 OpenBabel11021811513D
libRbt.so/2013.1/901 2013/11/27
 32 34  0  0  0  0  0  0  0  0999 V2000
   13.4183  -27.9774  -13.3624 P   0  0  1  0  0  0  0  0  0  0  0  0
   11.6503  -30.2075  -12.9993 P   0  0  2  0  0  0  0  0  0  0  0  0
   11.9693  -32.7930  -11.6471 P   0  0  1  0  0  0  0  0  0  0  0  0
   15.3564  -26.2411  -13.2194 C   0  0  0  0  0  0  0  0  0  0  0  0
   14.8638  -27.4681  -12.7613 O   0  0  0  0  0  0  0  0  0  0  0  0
   16.6046  -26.0017  -12.6554 C   0  0  1  0  0  0  0  0  0  0  0  0
   17.1701  -24.6988  -13.1869 O   0  0  0  0  0  0  0  0  0  0  0  0
   16.5021  -25.8199  -11.0715 C   0  0  1  0  0  0  0  0  0  0  0  0
   17.2405  -26.9481  -10.3872 O   0  0  0  0  0  0  0  0  0  0  0  0
   17.1036  -24.7757  -10.8085 C   0  0  1  0  0  0  0  0  0  0  0  0
   18.4879  -25.0986  -10.3874 O   0  0  0  0  0  0  0  0  0  0  0  0
   17.1291  -23.8797  -12.2123 C   0  0  2  0  0  0  0  0  0  0  0  0
   13.0810  -22.5114  -15.0628 N   0  0  0  0  0  0  0  0  0  0  0  0
   12.3748  -26.9064  -13.1615 O   0  5  0  0  0  0  0  0  0  0  0  0
   11.9302  -30.9297  -14.2932 O   0  5  0  0  0  0  0  0  0  0  0  0
   11.3598  -33.4444  -10.4279 O   0  0  0  0  0  0  0  0  0  0  0  0
   14.0124  -23.4097  -15.3427 C   0  0  0  0  0  0  0  0  0  0  0  0
   13.9452  -24.1378  -16.5936 N   0  0  0  0  0  0  0  0  0  0  0  0
   13.5886  -28.2980  -14.8302 O   0  0  0  0  0  0  0  0  0  0  0  0
   10.4867  -29.2695  -13.1866 O   0  0  0  0  0  0  0  0  0  0  0  0
   11.6604  -33.6353  -12.8655 O   0  5  0  0  0  0  0  0  0  0  0  0
   15.0061  -23.6670  -14.5168 N   0  0  0  0  0  0  0  0  0  0  0  0
   12.9584  -29.3260  -12.5449 O   0  0  0  0  0  0  0  0  0  0  0  0
   11.2924  -31.2958  -11.8188 O   0  0  0  0  0  0  0  0  0  0  0  0
   13.4654  -32.6813  -11.4504 O   0  0  0  0  0  0  0  0  0  0  0  0
   15.1050  -23.0164  -13.3513 C   0  0  0  0  0  0  0  0  0  0  0  0
   14.1472  -22.0742  -13.0351 C   0  0  0  0  0  0  0  0  0  0  0  0
   13.0934  -21.8163  -13.9329 C   0  0  0  0  0  0  0  0  0  0  0  0
   12.1028  -20.8629  -13.6384 O   0  0  0  0  0  0  0  0  0  0  0  0
   14.4603  -21.5663  -11.8309 N   0  0  0  0  0  0  0  0  0  0  0  0
   15.5634  -22.1673  -11.4203 C   0  0  0  0  0  0  0  0  0  0  0  0
   15.9676  -23.0413  -12.3231 N   0  0  0  0  0  0  0  0  0  0  0  0
  1  5  1  1  0  0  0
  1 14  1  0  0  0  0
  1 19  2  0  0  0  0
  1 23  1  0  0  0  0
  2 15  1  6  0  0  0
  2 20  2  0  0  0  0
  2 23  1  0  0  0  0
  2 24  1  0  0  0  0
  3 16  1  1  0  0  0
  3 21  1  0  0  0  0
  3 24  1  0  0  0  0
  3 25  2  0  0  0  0
  4  5  1  0  0  0  0
  6  4  1  6  0  0  0
  6  7  1  0  0  0  0
  6  8  1  0  0  0  0
  7 12  1  0  0  0  0
  8  9  1  1  0  0  0
  8 10  1  0  0  0  0
 10 11  1  6  0  0  0
 10 12  1  0  0  0  0
 12 32  1  6  0  0  0
 13 17  2  0  0  0  0
 13 28  1  0  0  0  0
 17 18  1  0  0  0  0
 17 22  1  0  0  0  0
 22 26  2  0  0  0  0
 26 27  1  0  0  0  0
 26 32  1  0  0  0  0
 27 28  2  0  0  0  0
 27 30  1  0  0  0  0
 28 29  1  0  0  0  0
 30 31  2  0  0  0  0
 31 32  1  0  0  0  0
M  CHG  3  14  -1  15  -1  21  -1
M  END
>  <CHROM.1>
-53.92857128,70.35083945,179.50448504,177.86002985,-177.35711918,-5.78277652
-172.62404291,35.71830402,13.91855065,-27.02850653,-12.78693301,1.98988707
0.56180025,2.82125468

>  <Name>
ligand

>  <RI>
0

>  <Rbt.Current_Directory>
/home/itssahil/PROJECTS/Mol_Feturizer/New_Systems/rnas/4Y1I

>  <Rbt.Executable>
rbdock ($Id: //depot/dev/client3/rdock/2013.1/src/exe/rbdock.cxx#4 $)

>  <Rbt.Library>
libRbt.so (2013.1, Build901 2013/11/27)

>  <Rbt.Parameter_File>
/export/apps/rDock/src/rDock_2013.1_src/data/scripts/dock_solv.prm

>  <Rbt.Receptor>
prm/pocket_docking_7.prm

>  <SCORE>
-8.49842

>  <SCORE.INTER>
-3.86561

>  <SCORE.INTER.CONST>
1

>  <SCORE.INTER.POLAR>
0

>  <SCORE.INTER.ROT>
8

>  <SCORE.INTER.SOLV>
12.9691

>  <SCORE.INTER.VDW>
-15.8334

>  <SCORE.INTER.norm>
-0.1208

>  <SCORE.INTRA>
-4.63282

>  <SCORE.INTRA.DIHEDRAL>
-8.47537

>  <SCORE.INTRA.DIHEDRAL.0>
10.9594

>  <SCORE.INTRA.POLAR>
0

>  <SCORE.INTRA.POLAR.0>
0

>  <SCORE.INTRA.REPUL>
0

>  <SCORE.INTRA.REPUL.0>
0

>  <SCORE.INTRA.SOLV>
-1.5407

>  <SCORE.INTRA.SOLV.lig_0>
-124.914

>  <SCORE.INTRA.VDW>
0.375221

>  <SCORE.INTRA.VDW.0>
-4.69801

>  <SCORE.INTRA.norm>
-0.144775

>  <SCORE.RESTR>
0

>  <SCORE.RESTR.CAVITY>
0

>  <SCORE.RESTR.norm>
0

>  <SCORE.SYSTEM>
0

>  <SCORE.SYSTEM.CONST>
0

>  <SCORE.SYSTEM.DIHEDRAL>
0

>  <SCORE.SYSTEM.SOLV>
0

>  <SCORE.SYSTEM.norm>
0

>  <SCORE.heavy>
32

>  <SCORE.norm>
-0.265576

>  <RMSD>
6.478

$$$$
ligand
 OpenBabel11021811513D
libRbt.so/2013.1/901 2013/11/27
 32 34  0  0  0  0  0  0  0  0999 V2000
   16.1295  -24.9412  -22.4586 P   0  0  1  0  0  0  0  0  0  0  0  0
   17.4382  -27.2103  -21.2884 P   0  0  2  0  0  0  0  0  0  0  0  0
   20.1597  -26.9281  -20.2258 P   0  0  1  0  0  0  0  0  0  0  0  0
   16.3049  -23.6756  -20.1872 C   0  0  0  0  0  0  0  0  0  0  0  0
   15.4744  -24.4020  -21.0478 O   0  0  0  0  0  0  0  0  0  0  0  0
   15.5855  -23.2928  -19.0606 C   0  0  1  0  0  0  0  0  0  0  0  0
   16.5014  -22.5895  -18.0775 O   0  0  0  0  0  0  0  0  0  0  0  0
   14.4460  -22.2356  -19.4295 C   0  0  1  0  0  0  0  0  0  0  0  0
   13.0885  -22.8476  -19.1673 O   0  0  0  0  0  0  0  0  0  0  0  0
   14.5832  -21.2972  -18.6409 C   0  0  1  0  0  0  0  0  0  0  0  0
   13.6466  -21.4691  -17.5046 O   0  0  0  0  0  0  0  0  0  0  0  0
   16.1564  -21.3636  -18.0979 C   0  0  2  0  0  0  0  0  0  0  0  0
   16.5791  -18.2063  -22.1276 N   0  0  0  0  0  0  0  0  0  0  0  0
   15.1532  -25.8522  -23.1607 O   0  5  0  0  0  0  0  0  0  0  0  0
   16.6610  -28.2389  -22.0709 O   0  5  0  0  0  0  0  0  0  0  0  0
   20.2923  -25.5603  -20.8533 O   0  0  0  0  0  0  0  0  0  0  0  0
   15.4777  -18.7227  -21.6050 C   0  0  0  0  0  0  0  0  0  0  0  0
   14.1929  -18.4000  -22.1922 N   0  0  0  0  0  0  0  0  0  0  0  0
   16.4728  -23.7482  -23.3218 O   0  0  0  0  0  0  0  0  0  0  0  0
   16.7625  -26.9674  -19.9643 O   0  0  0  0  0  0  0  0  0  0  0  0
   19.7747  -26.7706  -18.7710 O   0  5  0  0  0  0  0  0  0  0  0  0
   15.5093  -19.5260  -20.5613 N   0  0  0  0  0  0  0  0  0  0  0  0
   17.4919  -25.7907  -22.1109 O   0  0  0  0  0  0  0  0  0  0  0  0
   18.9718  -27.7467  -21.0309 O   0  0  0  0  0  0  0  0  0  0  0  0
   21.4813  -27.6552  -20.3444 O   0  0  0  0  0  0  0  0  0  0  0  0
   16.6754  -19.8493  -19.9894 C   0  0  0  0  0  0  0  0  0  0  0  0
   17.8390  -19.3249  -20.5149 C   0  0  0  0  0  0  0  0  0  0  0  0
   17.7810  -18.4676  -21.6306 C   0  0  0  0  0  0  0  0  0  0  0  0
   18.9490  -17.9176  -22.1876 O   0  0  0  0  0  0  0  0  0  0  0  0
   18.8622  -19.7900  -19.7780 N   0  0  0  0  0  0  0  0  0  0  0  0
   18.3541  -20.5683  -18.8384 C   0  0  0  0  0  0  0  0  0  0  0  0
   17.0399  -20.6182  -18.9512 N   0  0  0  0  0  0  0  0  0  0  0  0
  1  5  1  1  0  0  0
  1 14  1  0  0  0  0
  1 19  2  0  0  0  0
  1 23  1  0  0  0  0
  2 15  1  6  0  0  0
  2 20  2  0  0  0  0
  2 23  1  0  0  0  0
  2 24  1  0  0  0  0
  3 16  1  6  0  0  0
  3 21  1  0  0  0  0
  3 24  1  0  0  0  0
  3 25  2  0  0  0  0
  4  5  1  0  0  0  0
  6  4  1  6  0  0  0
  6  7  1  0  0  0  0
  6  8  1  0  0  0  0
  7 12  1  0  0  0  0
  8  9  1  1  0  0  0
  8 10  1  0  0  0  0
 10 11  1  1  0  0  0
 10 12  1  0  0  0  0
 12 32  1  6  0  0  0
 13 17  2  0  0  0  0
 13 28  1  0  0  0  0
 17 18  1  0  0  0  0
 17 22  1  0  0  0  0
 22 26  2  0  0  0  0
 26 27  1  0  0  0  0
 26 32  1  0  0  0  0
 27 28  2  0  0  0  0
 27 30  1  0  0  0  0
 28 29  1  0  0  0  0
 30 31  2  0  0  0  0
 31 32  1  0  0  0  0
M  CHG  3  14  -1  15  -1  21  -1
M  END
>  <CHROM.1>
172.36761955,62.61567583,-53.43875359,176.03906273,179.41765278,125.01859441
66.11111238,179.52099925,16.99658704,-23.40030229,-20.58253936,1.25932573
-0.02857429,-3.07819516

>  <Name>
ligand

>  <RI>
0

>  <Rbt.Current_Directory>
/home/itssahil/PROJECTS/Mol_Feturizer/New_Systems/rnas/4Y1I

>  <Rbt.Executable>
rbdock ($Id: //depot/dev/client3/rdock/2013.1/src/exe/rbdock.cxx#4 $)

>  <Rbt.Library>
libRbt.so (2013.1, Build901 2013/11/27)

>  <Rbt.Parameter_File>
/export/apps/rDock/src/rDock_2013.1_src/data/scripts/dock_solv.prm

>  <Rbt.Receptor>
prm/pocket_docking_8.prm

>  <SCORE>
-7.2367

>  <SCORE.INTER>
-0.250036

>  <SCORE.INTER.CONST>
1

>  <SCORE.INTER.POLAR>
0

>  <SCORE.INTER.ROT>
8

>  <SCORE.INTER.SOLV>
4.29196

>  <SCORE.INTER.VDW>
-10.5307

>  <SCORE.INTER.norm>
-0.00781361

>  <SCORE.INTRA>
-6.98667

>  <SCORE.INTRA.DIHEDRAL>
-9.4715

>  <SCORE.INTRA.DIHEDRAL.0>
10.9594

>  <SCORE.INTRA.POLAR>
0

>  <SCORE.INTRA.POLAR.0>
0

>  <SCORE.INTRA.REPUL>
0

>  <SCORE.INTRA.REPUL.0>
0

>  <SCORE.INTRA.SOLV>
-4.38336

>  <SCORE.INTRA.SOLV.lig_0>
-124.914

>  <SCORE.INTRA.VDW>
-0.0592356

>  <SCORE.INTRA.VDW.0>
-4.69801

>  <SCORE.INTRA.norm>
-0.218333

>  <SCORE.RESTR>
0

>  <SCORE.RESTR.CAVITY>
0

>  <SCORE.RESTR.norm>
0

>  <SCORE.SYSTEM>
0

>  <SCORE.SYSTEM.CONST>
0

>  <SCORE.SYSTEM.DIHEDRAL>
0

>  <SCORE.SYSTEM.SOLV>
0

>  <SCORE.SYSTEM.norm>
0

>  <SCORE.heavy>
32

>  <SCORE.norm>
-0.226147

>  <RMSD>
6.496

$$$$
ligand
 OpenBabel11021811513D
libRbt.so/2013.1/901 2013/11/27
 32 34  0  0  0  0  0  0  0  0999 V2000
   16.5106  -24.9837  -16.3806 P   0  0  1  0  0  0  0  0  0  0  0  0
   18.9135  -25.5234  -17.8524 P   0  0  2  0  0  0  0  0  0  0  0  0
   21.6977  -25.6286  -18.7755 P   0  0  1  0  0  0  0  0  0  0  0  0
   15.8098  -23.2952  -18.2378 C   0  0  0  0  0  0  0  0  0  0  0  0
   15.7639  -23.6017  -16.8733 O   0  0  0  0  0  0  0  0  0  0  0  0
   15.3184  -22.0106  -18.4422 C   0  0  1  0  0  0  0  0  0  0  0  0
   16.2555  -20.9941  -17.8190 O   0  0  0  0  0  0  0  0  0  0  0  0
   15.2566  -21.6521  -19.9978 C   0  0  1  0  0  0  0  0  0  0  0  0
   13.8152  -21.4618  -20.4130 O   0  0  0  0  0  0  0  0  0  0  0  0
   15.8197  -20.5615  -20.1190 C   0  0  1  0  0  0  0  0  0  0  0  0
   14.8035  -19.4821  -20.1297 O   0  0  0  0  0  0  0  0  0  0  0  0
   16.8147  -20.3945  -18.7938 C   0  0  2  0  0  0  0  0  0  0  0  0
   21.8643  -19.5287  -19.1643 N   0  0  0  0  0  0  0  0  0  0  0  0
   16.2395  -25.2170  -14.9149 O   0  5  0  0  0  0  0  0  0  0  0  0
   18.1977  -25.2369  -19.1485 O   0  5  0  0  0  0  0  0  0  0  0  0
   21.9430  -27.0117  -18.2195 O   0  0  0  0  0  0  0  0  0  0  0  0
   20.9020  -18.6577  -18.9038 C   0  0  0  0  0  0  0  0  0  0  0  0
   21.2423  -17.2664  -18.6843 N   0  0  0  0  0  0  0  0  0  0  0  0
   15.9993  -26.1360  -17.2154 O   0  0  0  0  0  0  0  0  0  0  0  0
   18.9426  -27.0098  -17.6101 O   0  0  0  0  0  0  0  0  0  0  0  0
   21.3172  -25.7418  -20.2357 O   0  5  0  0  0  0  0  0  0  0  0  0
   19.6356  -19.0144  -18.8365 N   0  0  0  0  0  0  0  0  0  0  0  0
   18.1294  -24.8094  -16.5993 O   0  0  0  0  0  0  0  0  0  0  0  0
   20.4534  -24.9499  -17.9267 O   0  0  0  0  0  0  0  0  0  0  0  0
   22.9578  -24.8051  -18.6226 O   0  0  0  0  0  0  0  0  0  0  0  0
   19.2788  -20.2894  -19.0332 C   0  0  0  0  0  0  0  0  0  0  0  0
   20.2626  -21.2180  -19.3071 C   0  0  0  0  0  0  0  0  0  0  0  0
   21.6099  -20.8139  -19.3733 C   0  0  0  0  0  0  0  0  0  0  0  0
   22.6340  -21.7367  -19.6497 O   0  0  0  0  0  0  0  0  0  0  0  0
   19.6624  -22.4103  -19.4629 N   0  0  0  0  0  0  0  0  0  0  0  0
   18.3645  -22.2274  -19.2935 C   0  0  0  0  0  0  0  0  0  0  0  0
   18.1143  -20.9571  -19.0367 N   0  0  0  0  0  0  0  0  0  0  0  0
  1  5  1  6  0  0  0
  1 14  1  0  0  0  0
  1 19  2  0  0  0  0
  1 23  1  0  0  0  0
  2 15  1  6  0  0  0
  2 20  2  0  0  0  0
  2 23  1  0  0  0  0
  2 24  1  0  0  0  0
  3 16  1  1  0  0  0
  3 21  1  0  0  0  0
  3 24  1  0  0  0  0
  3 25  2  0  0  0  0
  4  5  1  0  0  0  0
  6  4  1  6  0  0  0
  6  7  1  0  0  0  0
  6  8  1  0  0  0  0
  7 12  1  0  0  0  0
  8  9  1  1  0  0  0
  8 10  1  0  0  0  0
 10 11  1  1  0  0  0
 10 12  1  0  0  0  0
 12 32  1  6  0  0  0
 13 17  2  0  0  0  0
 13 28  1  0  0  0  0
 17 18  1  0  0  0  0
 17 22  1  0  0  0  0
 22 26  2  0  0  0  0
 26 27  1  0  0  0  0
 26 32  1  0  0  0  0
 27 28  2  0  0  0  0
 27 30  1  0  0  0  0
 28 29  1  0  0  0  0
 30 31  2  0  0  0  0
 31 32  1  0  0  0  0
M  CHG  3  14  -1  15  -1  21  -1
M  END
>  <CHROM.1>
-174.36268148,49.73711098,-61.77178571,66.91744794,-170.85754173,-122.81271462
-103.33771295,-74.44672492,18.60654711,-23.04848535,-18.46766695,1.09173009
-0.13791208,2.86203620

>  <Name>
ligand

>  <RI>
0

>  <Rbt.Current_Directory>
/home/itssahil/PROJECTS/Mol_Feturizer/New_Systems/rnas/4Y1I

>  <Rbt.Executable>
rbdock ($Id: //depot/dev/client3/rdock/2013.1/src/exe/rbdock.cxx#4 $)

>  <Rbt.Library>
libRbt.so (2013.1, Build901 2013/11/27)

>  <Rbt.Parameter_File>
/export/apps/rDock/src/rDock_2013.1_src/data/scripts/dock_solv.prm

>  <Rbt.Receptor>
prm/pocket_docking_6.prm

>  <SCORE>
-13.5964

>  <SCORE.INTER>
-8.65323

>  <SCORE.INTER.CONST>
1

>  <SCORE.INTER.POLAR>
0

>  <SCORE.INTER.ROT>
8

>  <SCORE.INTER.SOLV>
17.6862

>  <SCORE.INTER.VDW>
-20.5976

>  <SCORE.INTER.norm>
-0.270414

>  <SCORE.INTRA>
-4.94316

>  <SCORE.INTRA.DIHEDRAL>
-6.59548

>  <SCORE.INTRA.DIHEDRAL.0>
10.9594

>  <SCORE.INTRA.POLAR>
0

>  <SCORE.INTRA.POLAR.0>
0

>  <SCORE.INTRA.REPUL>
0

>  <SCORE.INTRA.REPUL.0>
0

>  <SCORE.INTRA.SOLV>
-0.54757

>  <SCORE.INTRA.SOLV.lig_0>
-124.914

>  <SCORE.INTRA.VDW>
-1.37163

>  <SCORE.INTRA.VDW.0>
-4.69801

>  <SCORE.INTRA.norm>
-0.154474

>  <SCORE.RESTR>
0

>  <SCORE.RESTR.CAVITY>
0

>  <SCORE.RESTR.norm>
0

>  <SCORE.SYSTEM>
0

>  <SCORE.SYSTEM.CONST>
0

>  <SCORE.SYSTEM.DIHEDRAL>
0

>  <SCORE.SYSTEM.SOLV>
0

>  <SCORE.SYSTEM.norm>
0

>  <SCORE.heavy>
32

>  <SCORE.norm>
-0.424887

>  <RMSD>
6.506

$$$$
ligand
 OpenBabel11021811513D
libRbt.so/2013.1/901 2013/11/27
 32 34  0  0  0  0  0  0  0  0999 V2000
   14.4029  -21.6664  -18.0453 P   0  0  1  0  0  0  0  0  0  0  0  0
   14.0562  -22.9182  -15.4872 P   0  0  2  0  0  0  0  0  0  0  0  0
   15.8451  -25.2261  -15.7849 P   0  0  1  0  0  0  0  0  0  0  0  0
   16.8948  -21.0152  -18.4426 C   0  0  0  0  0  0  0  0  0  0  0  0
   15.5637  -20.7794  -18.8041 O   0  0  0  0  0  0  0  0  0  0  0  0
   17.7384  -20.2928  -19.2791 C   0  0  1  0  0  0  0  0  0  0  0  0
   19.1717  -20.4174  -18.7995 O   0  0  0  0  0  0  0  0  0  0  0  0
   17.7228  -20.8765  -20.7661 C   0  0  1  0  0  0  0  0  0  0  0  0
   17.1387  -19.8453  -21.7050 O   0  0  0  0  0  0  0  0  0  0  0  0
   18.9044  -21.0332  -21.0834 C   0  0  1  0  0  0  0  0  0  0  0  0
   19.3639  -19.8589  -21.8629 O   0  0  0  0  0  0  0  0  0  0  0  0
   19.7638  -21.1450  -19.6611 C   0  0  2  0  0  0  0  0  0  0  0  0
   22.7701  -25.1890  -18.6644 N   0  0  0  0  0  0  0  0  0  0  0  0
   13.0867  -20.9303  -18.0885 O   0  5  0  0  0  0  0  0  0  0  0  0
   12.5689  -22.6764  -15.5490 O   0  5  0  0  0  0  0  0  0  0  0  0
   16.8845  -24.4218  -16.5300 O   0  0  0  0  0  0  0  0  0  0  0  0
   23.1234  -24.0037  -19.1366 C   0  0  0  0  0  0  0  0  0  0  0  0
   24.5177  -23.7429  -19.4324 N   0  0  0  0  0  0  0  0  0  0  0  0
   14.2938  -23.0103  -18.7298 O   0  0  0  0  0  0  0  0  0  0  0  0
   14.5445  -22.7008  -14.0790 O   0  0  0  0  0  0  0  0  0  0  0  0
   16.2235  -25.2899  -14.3213 O   0  5  0  0  0  0  0  0  0  0  0  0
   22.2446  -23.0454  -19.3485 N   0  0  0  0  0  0  0  0  0  0  0  0
   14.8445  -21.8719  -16.4764 O   0  0  0  0  0  0  0  0  0  0  0  0
   14.3906  -24.4605  -15.9514 O   0  0  0  0  0  0  0  0  0  0  0  0
   15.7840  -26.6186  -16.3736 O   0  0  0  0  0  0  0  0  0  0  0  0
   20.9470  -23.2456  -19.0886 C   0  0  0  0  0  0  0  0  0  0  0  0
   20.5516  -24.4727  -18.5960 C   0  0  0  0  0  0  0  0  0  0  0  0
   21.5087  -25.4821  -18.3764 C   0  0  0  0  0  0  0  0  0  0  0  0
   21.1364  -26.7418  -17.8750 O   0  0  0  0  0  0  0  0  0  0  0  0
   19.2202  -24.4281  -18.4178 N   0  0  0  0  0  0  0  0  0  0  0  0
   18.8099  -23.2265  -18.7845 C   0  0  0  0  0  0  0  0  0  0  0  0
   19.8345  -22.5017  -19.1936 N   0  0  0  0  0  0  0  0  0  0  0  0
  1  5  1  6  0  0  0
  1 14  1  0  0  0  0
  1 19  2  0  0  0  0
  1 23  1  0  0  0  0
  2 15  1  6  0  0  0
  2 20  2  0  0  0  0
  2 23  1  0  0  0  0
  2 24  1  0  0  0  0
  3 16  1  6  0  0  0
  3 21  1  0  0  0  0
  3 24  1  0  0  0  0
  3 25  2  0  0  0  0
  4  5  1  0  0  0  0
  6  4  1  1  0  0  0
  6  7  1  0  0  0  0
  6  8  1  0  0  0  0
  7 12  1  0  0  0  0
  8  9  1  6  0  0  0
  8 10  1  0  0  0  0
 10 11  1  6  0  0  0
 10 12  1  0  0  0  0
 12 32  1  1  0  0  0
 13 17  2  0  0  0  0
 13 28  1  0  0  0  0
 17 18  1  0  0  0  0
 17 22  1  0  0  0  0
 22 26  2  0  0  0  0
 26 27  1  0  0  0  0
 26 32  1  0  0  0  0
 27 28  2  0  0  0  0
 27 30  1  0  0  0  0
 28 29  1  0  0  0  0
 30 31  2  0  0  0  0
 31 32  1  0  0  0  0
M  CHG  3  14  -1  15  -1  21  -1
M  END
>  <CHROM.1>
156.08790967,-50.56211280,-58.66574627,173.66672521,173.49637155,-126.09645469
-169.39764844,-168.73572243,17.45358903,-22.93480798,-17.96996218,2.90169252
-0.35202990,2.45264239

>  <Name>
ligand

>  <RI>
0

>  <Rbt.Current_Directory>
/home/itssahil/PROJECTS/Mol_Feturizer/New_Systems/rnas/4Y1I

>  <Rbt.Executable>
rbdock ($Id: //depot/dev/client3/rdock/2013.1/src/exe/rbdock.cxx#4 $)

>  <Rbt.Library>
libRbt.so (2013.1, Build901 2013/11/27)

>  <Rbt.Parameter_File>
/export/apps/rDock/src/rDock_2013.1_src/data/scripts/dock_solv.prm

>  <Rbt.Receptor>
prm/pocket_docking_6.prm

>  <SCORE>
-12.7265

>  <SCORE.INTER>
-6.31935

>  <SCORE.INTER.CONST>
1

>  <SCORE.INTER.POLAR>
0

>  <SCORE.INTER.ROT>
8

>  <SCORE.INTER.SOLV>
13.336

>  <SCORE.INTER.VDW>
-17.5916

>  <SCORE.INTER.norm>
-0.19748

>  <SCORE.INTRA>
-6.4071

>  <SCORE.INTRA.DIHEDRAL>
-8.09453

>  <SCORE.INTRA.DIHEDRAL.0>
10.9594

>  <SCORE.INTRA.POLAR>
0

>  <SCORE.INTRA.POLAR.0>
0

>  <SCORE.INTRA.REPUL>
0

>  <SCORE.INTRA.REPUL.0>
0

>  <SCORE.INTRA.SOLV>
-4.27767

>  <SCORE.INTRA.SOLV.lig_0>
-124.914

>  <SCORE.INTRA.VDW>
-0.220998

>  <SCORE.INTRA.VDW.0>
-4.69801

>  <SCORE.INTRA.norm>
-0.200222

>  <SCORE.RESTR>
0

>  <SCORE.RESTR.CAVITY>
0

>  <SCORE.RESTR.norm>
0

>  <SCORE.SYSTEM>
0

>  <SCORE.SYSTEM.CONST>
0

>  <SCORE.SYSTEM.DIHEDRAL>
0

>  <SCORE.SYSTEM.SOLV>
0

>  <SCORE.SYSTEM.norm>
0

>  <SCORE.heavy>
32

>  <SCORE.norm>
-0.397702

>  <RMSD>
6.531

$$$$
ligand
 OpenBabel11021811513D
libRbt.so/2013.1/901 2013/11/27
 32 34  0  0  0  0  0  0  0  0999 V2000
   18.5326  -28.7061  -17.0534 P   0  0  1  0  0  0  0  0  0  0  0  0
   19.7546  -27.1887  -19.1594 P   0  0  2  0  0  0  0  0  0  0  0  0
   20.3165  -24.3372  -18.7492 P   0  0  1  0  0  0  0  0  0  0  0  0
   17.2582  -29.4364  -14.9008 C   0  0  0  0  0  0  0  0  0  0  0  0
   17.3642  -28.4794  -15.9161 O   0  0  0  0  0  0  0  0  0  0  0  0
   16.1069  -29.2001  -14.1578 C   0  0  1  0  0  0  0  0  0  0  0  0
   16.1034  -27.7705  -13.6517 O   0  0  0  0  0  0  0  0  0  0  0  0
   14.7941  -29.3491  -15.0558 C   0  0  1  0  0  0  0  0  0  0  0  0
   13.9743  -30.5179  -14.5577 O   0  0  0  0  0  0  0  0  0  0  0  0
   14.1307  -28.3275  -14.8622 C   0  0  1  0  0  0  0  0  0  0  0  0
   13.1007  -28.5983  -13.8308 O   0  0  0  0  0  0  0  0  0  0  0  0
   15.1958  -27.1703  -14.3140 C   0  0  2  0  0  0  0  0  0  0  0  0
   15.3999  -26.4648  -19.3978 N   0  0  0  0  0  0  0  0  0  0  0  0
   19.8260  -29.1031  -16.3859 O   0  5  0  0  0  0  0  0  0  0  0  0
   19.2416  -28.0619  -20.2769 O   0  5  0  0  0  0  0  0  0  0  0  0
   19.6320  -24.4321  -17.4058 O   0  0  0  0  0  0  0  0  0  0  0  0
   14.6589  -27.3282  -18.7209 C   0  0  0  0  0  0  0  0  0  0  0  0
   13.7693  -28.2183  -19.4391 N   0  0  0  0  0  0  0  0  0  0  0  0
   18.0709  -29.7756  -18.0174 O   0  0  0  0  0  0  0  0  0  0  0  0
   21.1284  -27.6501  -18.7488 O   0  0  0  0  0  0  0  0  0  0  0  0
   21.8150  -24.3930  -18.5468 O   0  5  0  0  0  0  0  0  0  0  0  0
   14.7024  -27.4069  -17.4066 N   0  0  0  0  0  0  0  0  0  0  0  0
   18.7624  -27.2911  -17.8557 O   0  0  0  0  0  0  0  0  0  0  0  0
   19.8295  -25.6245  -19.6630 O   0  0  0  0  0  0  0  0  0  0  0  0
   19.9234  -23.0350  -19.4119 O   0  0  0  0  0  0  0  0  0  0  0  0
   15.5108  -26.6030  -16.7054 C   0  0  0  0  0  0  0  0  0  0  0  0
   16.2945  -25.6938  -17.3867 C   0  0  0  0  0  0  0  0  0  0  0  0
   16.2309  -25.6269  -18.7919 C   0  0  0  0  0  0  0  0  0  0  0  0
   17.0166  -24.7109  -19.5135 O   0  0  0  0  0  0  0  0  0  0  0  0
   17.0087  -25.0112  -16.4755 N   0  0  0  0  0  0  0  0  0  0  0  0
   16.6816  -25.4779  -15.2830 C   0  0  0  0  0  0  0  0  0  0  0  0
   15.7836  -26.4380  -15.4014 N   0  0  0  0  0  0  0  0  0  0  0  0
  1  5  1  1  0  0  0
  1 14  1  0  0  0  0
  1 19  2  0  0  0  0
  1 23  1  0  0  0  0
  2 15  1  6  0  0  0
  2 20  2  0  0  0  0
  2 23  1  0  0  0  0
  2 24  1  0  0  0  0
  3 16  1  1  0  0  0
  3 21  1  0  0  0  0
  3 24  1  0  0  0  0
  3 25  2  0  0  0  0
  4  5  1  0  0  0  0
  6  4  1  6  0  0  0
  6  7  1  0  0  0  0
  6  8  1  0  0  0  0
  7 12  1  0  0  0  0
  8  9  1  1  0  0  0
  8 10  1  0  0  0  0
 10 11  1  1  0  0  0
 10 12  1  0  0  0  0
 12 32  1  6  0  0  0
 13 17  2  0  0  0  0
 13 28  1  0  0  0  0
 17 18  1  0  0  0  0
 17 22  1  0  0  0  0
 22 26  2  0  0  0  0
 26 27  1  0  0  0  0
 26 32  1  0  0  0  0
 27 28  2  0  0  0  0
 27 30  1  0  0  0  0
 28 29  1  0  0  0  0
 30 31  2  0  0  0  0
 31 32  1  0  0  0  0
M  CHG  3  14  -1  15  -1  21  -1
M  END
>  <CHROM.1>
-44.80833423,62.61779224,-46.22333056,-54.37352441,-171.03475676,120.93751038
-173.95722761,179.11143726,17.46434937,-27.07884292,-17.24762037,-2.41328660
0.29255334,-0.56904320

>  <Name>
ligand

>  <RI>
0

>  <Rbt.Current_Directory>
/home/itssahil/PROJECTS/Mol_Feturizer/New_Systems/rnas/4Y1I

>  <Rbt.Executable>
rbdock ($Id: //depot/dev/client3/rdock/2013.1/src/exe/rbdock.cxx#4 $)

>  <Rbt.Library>
libRbt.so (2013.1, Build901 2013/11/27)

>  <Rbt.Parameter_File>
/export/apps/rDock/src/rDock_2013.1_src/data/scripts/dock_solv.prm

>  <Rbt.Receptor>
prm/pocket_docking_3.prm

>  <SCORE>
-2.94549

>  <SCORE.INTER>
5.30567

>  <SCORE.INTER.CONST>
1

>  <SCORE.INTER.POLAR>
0

>  <SCORE.INTER.ROT>
8

>  <SCORE.INTER.SOLV>
8.60061

>  <SCORE.INTER.VDW>
-8.26309

>  <SCORE.INTER.norm>
0.165802

>  <SCORE.INTRA>
-8.26524

>  <SCORE.INTRA.DIHEDRAL>
-8.46115

>  <SCORE.INTRA.DIHEDRAL.0>
10.9594

>  <SCORE.INTRA.POLAR>
0

>  <SCORE.INTRA.POLAR.0>
0

>  <SCORE.INTRA.REPUL>
0

>  <SCORE.INTRA.REPUL.0>
0

>  <SCORE.INTRA.SOLV>
-1.03423

>  <SCORE.INTRA.SOLV.lig_0>
-124.914

>  <SCORE.INTRA.VDW>
-3.51755

>  <SCORE.INTRA.VDW.0>
-4.69801

>  <SCORE.INTRA.norm>
-0.258289

>  <SCORE.RESTR>
0.0140815

>  <SCORE.RESTR.CAVITY>
0.0140815

>  <SCORE.RESTR.norm>
0.000440046

>  <SCORE.SYSTEM>
0

>  <SCORE.SYSTEM.CONST>
0

>  <SCORE.SYSTEM.DIHEDRAL>
0

>  <SCORE.SYSTEM.SOLV>
0

>  <SCORE.SYSTEM.norm>
0

>  <SCORE.heavy>
32

>  <SCORE.norm>
-0.0920466

>  <RMSD>
6.541

$$$$
ligand
 OpenBabel11021811513D
libRbt.so/2013.1/901 2013/11/27
 32 34  0  0  0  0  0  0  0  0999 V2000
   14.0101  -21.6023  -18.3255 P   0  0  1  0  0  0  0  0  0  0  0  0
   13.1133  -22.4094  -15.7226 P   0  0  2  0  0  0  0  0  0  0  0  0
   10.3328  -23.3481  -15.6732 P   0  0  1  0  0  0  0  0  0  0  0  0
   16.5651  -21.0967  -18.4149 C   0  0  0  0  0  0  0  0  0  0  0  0
   15.3046  -20.7927  -18.9411 O   0  0  0  0  0  0  0  0  0  0  0  0
   17.5484  -20.4712  -19.1733 C   0  0  1  0  0  0  0  0  0  0  0  0
   18.9119  -20.7215  -18.5584 O   0  0  0  0  0  0  0  0  0  0  0  0
   17.6171  -21.0764  -20.6502 C   0  0  1  0  0  0  0  0  0  0  0  0
   17.2245  -20.0112  -21.6488 O   0  0  0  0  0  0  0  0  0  0  0  0
   18.8030  -21.3487  -20.8523 C   0  0  1  0  0  0  0  0  0  0  0  0
   19.4432  -20.2363  -21.5942 O   0  0  0  0  0  0  0  0  0  0  0  0
   19.5105  -21.5162  -19.3538 C   0  0  2  0  0  0  0  0  0  0  0  0
   21.9838  -25.8847  -18.2658 N   0  0  0  0  0  0  0  0  0  0  0  0
   12.7319  -21.0035  -18.8581 O   0  5  0  0  0  0  0  0  0  0  0  0
   13.0937  -21.8673  -14.3154 O   0  5  0  0  0  0  0  0  0  0  0  0
   10.7966  -24.7763  -15.5075 O   0  0  0  0  0  0  0  0  0  0  0  0
   22.4865  -24.7577  -18.7451 C   0  0  0  0  0  0  0  0  0  0  0  0
   23.9064  -24.6731  -19.0216 N   0  0  0  0  0  0  0  0  0  0  0  0
   14.1238  -23.0611  -18.7065 O   0  0  0  0  0  0  0  0  0  0  0  0
   13.7128  -23.7912  -15.7226 O   0  0  0  0  0  0  0  0  0  0  0  0
    9.9636  -22.7865  -14.3176 O   0  5  0  0  0  0  0  0  0  0  0  0
   21.7350  -23.7017  -18.9814 N   0  0  0  0  0  0  0  0  0  0  0  0
   14.0269  -21.4482  -16.6901 O   0  0  0  0  0  0  0  0  0  0  0  0
   11.5806  -22.4769  -16.3160 O   0  0  0  0  0  0  0  0  0  0  0  0
    9.1347  -23.3229  -16.5971 O   0  0  0  0  0  0  0  0  0  0  0  0
   20.4189  -23.7383  -18.7399 C   0  0  0  0  0  0  0  0  0  0  0  0
   19.8691  -24.9015  -18.2403 C   0  0  0  0  0  0  0  0  0  0  0  0
   20.6920  -26.0175  -17.9947 C   0  0  0  0  0  0  0  0  0  0  0  0
   20.1610  -27.2157  -17.4855 O   0  0  0  0  0  0  0  0  0  0  0  0
   18.5508  -24.6920  -18.0837 N   0  0  0  0  0  0  0  0  0  0  0  0
   18.2962  -23.4540  -18.4700 C   0  0  0  0  0  0  0  0  0  0  0  0
   19.4076  -22.8653  -18.8706 N   0  0  0  0  0  0  0  0  0  0  0  0
  1  5  1  6  0  0  0
  1 14  1  0  0  0  0
  1 19  2  0  0  0  0
  1 23  1  0  0  0  0
  2 15  1  1  0  0  0
  2 20  2  0  0  0  0
  2 23  1  0  0  0  0
  2 24  1  0  0  0  0
  3 16  1  1  0  0  0
  3 21  1  0  0  0  0
  3 24  1  0  0  0  0
  3 25  2  0  0  0  0
  4  5  1  0  0  0  0
  6  4  1  1  0  0  0
  6  7  1  0  0  0  0
  6  8  1  0  0  0  0
  7 12  1  0  0  0  0
  8  9  1  6  0  0  0
  8 10  1  0  0  0  0
 10 11  1  1  0  0  0
 10 12  1  0  0  0  0
 12 32  1  1  0  0  0
 13 17  2  0  0  0  0
 13 28  1  0  0  0  0
 17 18  1  0  0  0  0
 17 22  1  0  0  0  0
 22 26  2  0  0  0  0
 26 27  1  0  0  0  0
 26 32  1  0  0  0  0
 27 28  2  0  0  0  0
 27 30  1  0  0  0  0
 28 29  1  0  0  0  0
 30 31  2  0  0  0  0
 31 32  1  0  0  0  0
M  CHG  3  14  -1  15  -1  21  -1
M  END
>  <CHROM.1>
171.58313999,-167.95262641,-52.65402931,176.37079730,171.50461255,-130.93190969
-164.96345786,-59.97029542,16.08545439,-22.76203303,-17.88583994,3.01937476
-0.31317097,2.50134783

>  <Name>
ligand

>  <RI>
0

>  <Rbt.Current_Directory>
/home/itssahil/PROJECTS/Mol_Feturizer/New_Systems/rnas/4Y1I

>  <Rbt.Executable>
rbdock ($Id: //depot/dev/client3/rdock/2013.1/src/exe/rbdock.cxx#4 $)

>  <Rbt.Library>
libRbt.so (2013.1, Build901 2013/11/27)

>  <Rbt.Parameter_File>
/export/apps/rDock/src/rDock_2013.1_src/data/scripts/dock_solv.prm

>  <Rbt.Receptor>
prm/pocket_docking_7.prm

>  <SCORE>
-10.4134

>  <SCORE.INTER>
-4.43754

>  <SCORE.INTER.CONST>
1

>  <SCORE.INTER.POLAR>
0

>  <SCORE.INTER.ROT>
8

>  <SCORE.INTER.SOLV>
10.0568

>  <SCORE.INTER.VDW>
-15.2439

>  <SCORE.INTER.norm>
-0.138673

>  <SCORE.INTRA>
-5.97585

>  <SCORE.INTRA.DIHEDRAL>
-8.57088

>  <SCORE.INTRA.DIHEDRAL.0>
10.9594

>  <SCORE.INTRA.POLAR>
0

>  <SCORE.INTRA.POLAR.0>
0

>  <SCORE.INTRA.REPUL>
0

>  <SCORE.INTRA.REPUL.0>
0

>  <SCORE.INTRA.SOLV>
-4.59815

>  <SCORE.INTRA.SOLV.lig_0>
-124.914

>  <SCORE.INTRA.VDW>
0.608664

>  <SCORE.INTRA.VDW.0>
-4.69801

>  <SCORE.INTRA.norm>
-0.186745

>  <SCORE.RESTR>
0

>  <SCORE.RESTR.CAVITY>
0

>  <SCORE.RESTR.norm>
0

>  <SCORE.SYSTEM>
0

>  <SCORE.SYSTEM.CONST>
0

>  <SCORE.SYSTEM.DIHEDRAL>
0

>  <SCORE.SYSTEM.SOLV>
0

>  <SCORE.SYSTEM.norm>
0

>  <SCORE.heavy>
32

>  <SCORE.norm>
-0.325418

>  <RMSD>
6.568

$$$$
ligand
 OpenBabel11021811513D
libRbt.so/2013.1/901 2013/11/27
 32 34  0  0  0  0  0  0  0  0999 V2000
   14.4925  -22.7088  -16.5874 P   0  0  1  0  0  0  0  0  0  0  0  0
   13.9215  -23.6553  -13.9399 P   0  0  2  0  0  0  0  0  0  0  0  0
   16.2191  -24.2855  -12.2255 P   0  0  1  0  0  0  0  0  0  0  0  0
   15.5764  -21.5654  -18.6632 C   0  0  0  0  0  0  0  0  0  0  0  0
   15.3972  -21.5184  -17.2763 O   0  0  0  0  0  0  0  0  0  0  0  0
   16.2805  -20.4409  -19.0792 C   0  0  1  0  0  0  0  0  0  0  0  0
   17.5717  -20.3200  -18.2930 O   0  0  0  0  0  0  0  0  0  0  0  0
   16.7119  -20.5588  -20.6128 C   0  0  1  0  0  0  0  0  0  0  0  0
   16.0053  -19.4914  -21.4174 O   0  0  0  0  0  0  0  0  0  0  0  0
   17.9185  -20.3055  -20.6480 C   0  0  1  0  0  0  0  0  0  0  0  0
   18.1113  -18.8802  -21.0076 O   0  0  0  0  0  0  0  0  0  0  0  0
   18.5054  -20.5912  -19.1158 C   0  0  2  0  0  0  0  0  0  0  0  0
   22.3913  -23.9460  -19.2922 N   0  0  0  0  0  0  0  0  0  0  0  0
   13.0261  -22.4243  -16.7993 O   0  5  0  0  0  0  0  0  0  0  0  0
   13.7551  -25.0477  -14.4948 O   0  5  0  0  0  0  0  0  0  0  0  0
   16.3647  -24.5780  -10.7506 O   0  0  0  0  0  0  0  0  0  0  0  0
   22.4227  -22.6445  -19.5325 C   0  0  0  0  0  0  0  0  0  0  0  0
   23.6778  -22.0186  -19.8968 N   0  0  0  0  0  0  0  0  0  0  0  0
   14.8812  -24.0331  -17.2048 O   0  0  0  0  0  0  0  0  0  0  0  0
   12.5685  -23.0169  -13.7651 O   0  0  0  0  0  0  0  0  0  0  0  0
   16.4323  -25.5632  -13.0075 O   0  5  0  0  0  0  0  0  0  0  0  0
   21.3441  -21.8923  -19.4514 N   0  0  0  0  0  0  0  0  0  0  0  0
   14.8005  -22.7318  -14.9739 O   0  0  0  0  0  0  0  0  0  0  0  0
   14.6881  -23.7219  -12.4860 O   0  0  0  0  0  0  0  0  0  0  0  0
   17.2439  -23.2466  -12.6257 O   0  0  0  0  0  0  0  0  0  0  0  0
   20.1651  -22.4312  -19.1183 C   0  0  0  0  0  0  0  0  0  0  0  0
   20.1045  -23.7863  -18.8629 C   0  0  0  0  0  0  0  0  0  0  0  0
   21.2705  -24.5705  -18.9550 C   0  0  0  0  0  0  0  0  0  0  0  0
   21.2402  -25.9529  -18.7002 O   0  0  0  0  0  0  0  0  0  0  0  0
   18.8308  -24.0839  -18.5540 N   0  0  0  0  0  0  0  0  0  0  0  0
   18.1341  -22.9626  -18.6160 C   0  0  0  0  0  0  0  0  0  0  0  0
   18.9194  -21.9579  -18.9566 N   0  0  0  0  0  0  0  0  0  0  0  0
  1  5  1  6  0  0  0
  1 14  1  0  0  0  0
  1 19  2  0  0  0  0
  1 23  1  0  0  0  0
  2 15  1  6  0  0  0
  2 20  2  0  0  0  0
  2 23  1  0  0  0  0
  2 24  1  0  0  0  0
  3 16  1  1  0  0  0
  3 21  1  0  0  0  0
  3 24  1  0  0  0  0
  3 25  2  0  0  0  0
  4  5  1  0  0  0  0
  6  4  1  1  0  0  0
  6  7  1  0  0  0  0
  6  8  1  0  0  0  0
  7 12  1  0  0  0  0
  8  9  1  6  0  0  0
  8 10  1  0  0  0  0
 10 11  1  1  0  0  0
 10 12  1  0  0  0  0
 12 32  1  6  0  0  0
 13 17  2  0  0  0  0
 13 28  1  0  0  0  0
 17 18  1  0  0  0  0
 17 22  1  0  0  0  0
 22 26  2  0  0  0  0
 26 27  1  0  0  0  0
 26 32  1  0  0  0  0
 27 28  2  0  0  0  0
 27 30  1  0  0  0  0
 28 29  1  0  0  0  0
 30 31  2  0  0  0  0
 31 32  1  0  0  0  0
M  CHG  3  14  -1  15  -1  21  -1
M  END
>  <CHROM.1>
-78.62451060,46.25222650,-162.29730469,53.96953991,175.85684210,-146.29474658
171.46831486,62.42511451,17.06707539,-22.76065319,-16.90485398,2.28247996
-0.32315722,2.13612346

>  <Name>
ligand

>  <RI>
0

>  <Rbt.Current_Directory>
/home/itssahil/PROJECTS/Mol_Feturizer/New_Systems/rnas/4Y1I

>  <Rbt.Executable>
rbdock ($Id: //depot/dev/client3/rdock/2013.1/src/exe/rbdock.cxx#4 $)

>  <Rbt.Library>
libRbt.so (2013.1, Build901 2013/11/27)

>  <Rbt.Parameter_File>
/export/apps/rDock/src/rDock_2013.1_src/data/scripts/dock_solv.prm

>  <Rbt.Receptor>
prm/pocket_docking_7.prm

>  <SCORE>
-10.993

>  <SCORE.INTER>
-6.33979

>  <SCORE.INTER.CONST>
1

>  <SCORE.INTER.POLAR>
0

>  <SCORE.INTER.ROT>
8

>  <SCORE.INTER.SOLV>
11.7871

>  <SCORE.INTER.VDW>
-17.0889

>  <SCORE.INTER.norm>
-0.198118

>  <SCORE.INTRA>
-4.65321

>  <SCORE.INTRA.DIHEDRAL>
-8.14047

>  <SCORE.INTRA.DIHEDRAL.0>
10.9594

>  <SCORE.INTRA.POLAR>
0

>  <SCORE.INTRA.POLAR.0>
0

>  <SCORE.INTRA.REPUL>
0

>  <SCORE.INTRA.REPUL.0>
0

>  <SCORE.INTRA.SOLV>
-2.66674

>  <SCORE.INTRA.SOLV.lig_0>
-124.914

>  <SCORE.INTRA.VDW>
0.750387

>  <SCORE.INTRA.VDW.0>
-4.69801

>  <SCORE.INTRA.norm>
-0.145413

>  <SCORE.RESTR>
0

>  <SCORE.RESTR.CAVITY>
0

>  <SCORE.RESTR.norm>
0

>  <SCORE.SYSTEM>
0

>  <SCORE.SYSTEM.CONST>
0

>  <SCORE.SYSTEM.DIHEDRAL>
0

>  <SCORE.SYSTEM.SOLV>
0

>  <SCORE.SYSTEM.norm>
0

>  <SCORE.heavy>
32

>  <SCORE.norm>
-0.343531

>  <RMSD>
6.579

$$$$
ligand
 OpenBabel11021811513D
libRbt.so/2013.1/901 2013/11/27
 32 34  0  0  0  0  0  0  0  0999 V2000
   14.4647  -23.1311  -20.9826 P   0  0  1  0  0  0  0  0  0  0  0  0
   13.2898  -23.5994  -23.5578 P   0  0  2  0  0  0  0  0  0  0  0  0
   14.8024  -25.8879  -24.6021 P   0  0  1  0  0  0  0  0  0  0  0  0
   14.0576  -25.0927  -19.3160 C   0  0  0  0  0  0  0  0  0  0  0  0
   14.3162  -23.7245  -19.4542 O   0  0  0  0  0  0  0  0  0  0  0  0
   14.0143  -25.4234  -17.9661 C   0  0  1  0  0  0  0  0  0  0  0  0
   15.3756  -25.2006  -17.3360 O   0  0  0  0  0  0  0  0  0  0  0  0
   13.0032  -24.4786  -17.1678 C   0  0  1  0  0  0  0  0  0  0  0  0
   11.8536  -25.3059  -16.6387 O   0  0  0  0  0  0  0  0  0  0  0  0
   13.6293  -24.0557  -16.1929 C   0  0  1  0  0  0  0  0  0  0  0  0
   13.3201  -24.8930  -15.0092 O   0  0  0  0  0  0  0  0  0  0  0  0
   15.2447  -24.1860  -16.5771 C   0  0  2  0  0  0  0  0  0  0  0  0
   18.8823  -22.1246  -19.5610 N   0  0  0  0  0  0  0  0  0  0  0  0
   14.2025  -21.6454  -20.9822 O   0  5  0  0  0  0  0  0  0  0  0  0
   13.2634  -22.1189  -23.8431 O   0  5  0  0  0  0  0  0  0  0  0  0
   13.6793  -26.3153  -25.5177 O   0  0  0  0  0  0  0  0  0  0  0  0
   18.7939  -23.3702  -19.1211 C   0  0  0  0  0  0  0  0  0  0  0  0
   19.8171  -24.3283  -19.4881 N   0  0  0  0  0  0  0  0  0  0  0  0
   15.8570  -23.4345  -21.4882 O   0  0  0  0  0  0  0  0  0  0  0  0
   12.0387  -24.2399  -24.0994 O   0  0  0  0  0  0  0  0  0  0  0  0
   16.1247  -26.1060  -25.3046 O   0  5  0  0  0  0  0  0  0  0  0  0
   17.8001  -23.7722  -18.3554 N   0  0  0  0  0  0  0  0  0  0  0  0
   13.3495  -23.8661  -21.9391 O   0  0  0  0  0  0  0  0  0  0  0  0
   14.6069  -24.2815  -24.2691 O   0  0  0  0  0  0  0  0  0  0  0  0
   14.7407  -26.7062  -23.3309 O   0  0  0  0  0  0  0  0  0  0  0  0
   16.8347  -22.9187  -17.9934 C   0  0  0  0  0  0  0  0  0  0  0  0
   16.9031  -21.6138  -18.4379 C   0  0  0  0  0  0  0  0  0  0  0  0
   17.9743  -21.2066  -19.2563 C   0  0  0  0  0  0  0  0  0  0  0  0
   18.0708  -19.8845  -19.7249 O   0  0  0  0  0  0  0  0  0  0  0  0
   15.8348  -20.9621  -17.9477 N   0  0  0  0  0  0  0  0  0  0  0  0
   15.1366  -21.8256  -17.2310 C   0  0  0  0  0  0  0  0  0  0  0  0
   15.7241  -23.0075  -17.2447 N   0  0  0  0  0  0  0  0  0  0  0  0
  1  5  1  1  0  0  0
  1 14  1  0  0  0  0
  1 19  2  0  0  0  0
  1 23  1  0  0  0  0
  2 15  1  6  0  0  0
  2 20  2  0  0  0  0
  2 23  1  0  0  0  0
  2 24  1  0  0  0  0
  3 16  1  6  0  0  0
  3 21  1  0  0  0  0
  3 24  1  0  0  0  0
  3 25  2  0  0  0  0
  4  5  1  0  0  0  0
  6  4  1  6  0  0  0
  6  7  1  0  0  0  0
  6  8  1  0  0  0  0
  7 12  1  0  0  0  0
  8  9  1  1  0  0  0
  8 10  1  0  0  0  0
 10 11  1  1  0  0  0
 10 12  1  0  0  0  0
 12 32  1  6  0  0  0
 13 17  2  0  0  0  0
 13 28  1  0  0  0  0
 17 18  1  0  0  0  0
 17 22  1  0  0  0  0
 22 26  2  0  0  0  0
 26 27  1  0  0  0  0
 26 32  1  0  0  0  0
 27 28  2  0  0  0  0
 27 30  1  0  0  0  0
 28 29  1  0  0  0  0
 30 31  2  0  0  0  0
 31 32  1  0  0  0  0
M  CHG  3  14  -1  15  -1  21  -1
M  END
>  <CHROM.1>
158.07354046,-51.21552688,59.04203432,-64.44298364,177.77722804,-41.73953023
-175.17245213,-160.70394793,15.04119687,-23.80463570,-20.42835330,1.81808642
-0.51450826,-1.67918364

>  <Name>
ligand

>  <RI>
0

>  <Rbt.Current_Directory>
/home/itssahil/PROJECTS/Mol_Feturizer/New_Systems/rnas/4Y1I

>  <Rbt.Executable>
rbdock ($Id: //depot/dev/client3/rdock/2013.1/src/exe/rbdock.cxx#4 $)

>  <Rbt.Library>
libRbt.so (2013.1, Build901 2013/11/27)

>  <Rbt.Parameter_File>
/export/apps/rDock/src/rDock_2013.1_src/data/scripts/dock_solv.prm

>  <Rbt.Receptor>
prm/pocket_docking_7.prm

>  <SCORE>
-3.77925

>  <SCORE.INTER>
3.40635

>  <SCORE.INTER.CONST>
1

>  <SCORE.INTER.POLAR>
0

>  <SCORE.INTER.ROT>
8

>  <SCORE.INTER.SOLV>
3.13934

>  <SCORE.INTER.VDW>
-7.70888

>  <SCORE.INTER.norm>
0.106448

>  <SCORE.INTRA>
-7.1856

>  <SCORE.INTRA.DIHEDRAL>
-8.25706

>  <SCORE.INTRA.DIHEDRAL.0>
10.9594

>  <SCORE.INTRA.POLAR>
0

>  <SCORE.INTRA.POLAR.0>
0

>  <SCORE.INTRA.REPUL>
0

>  <SCORE.INTRA.REPUL.0>
0

>  <SCORE.INTRA.SOLV>
-2.1369

>  <SCORE.INTRA.SOLV.lig_0>
-124.914

>  <SCORE.INTRA.VDW>
-1.98862

>  <SCORE.INTRA.VDW.0>
-4.69801

>  <SCORE.INTRA.norm>
-0.22455

>  <SCORE.RESTR>
0

>  <SCORE.RESTR.CAVITY>
0

>  <SCORE.RESTR.norm>
0

>  <SCORE.SYSTEM>
0

>  <SCORE.SYSTEM.CONST>
0

>  <SCORE.SYSTEM.DIHEDRAL>
0

>  <SCORE.SYSTEM.SOLV>
0

>  <SCORE.SYSTEM.norm>
0

>  <SCORE.heavy>
32

>  <SCORE.norm>
-0.118102

>  <RMSD>
6.588

$$$$
ligand
 OpenBabel11021811513D
libRbt.so/2013.1/901 2013/11/27
 32 34  0  0  0  0  0  0  0  0999 V2000
   13.7751  -22.7080  -17.6010 P   0  0  1  0  0  0  0  0  0  0  0  0
   12.0553  -22.3945  -19.8759 P   0  0  2  0  0  0  0  0  0  0  0  0
   13.6867  -23.8866  -21.8066 P   0  0  1  0  0  0  0  0  0  0  0  0
   16.0462  -21.5469  -18.1352 C   0  0  0  0  0  0  0  0  0  0  0  0
   14.6971  -21.6697  -18.4854 O   0  0  0  0  0  0  0  0  0  0  0  0
   16.6145  -20.4906  -18.8384 C   0  0  1  0  0  0  0  0  0  0  0  0
   18.0512  -20.2895  -18.3963 O   0  0  0  0  0  0  0  0  0  0  0  0
   16.6785  -20.8014  -20.4041 C   0  0  1  0  0  0  0  0  0  0  0  0
   15.7855  -19.8326  -21.1459 O   0  0  0  0  0  0  0  0  0  0  0  0
   17.8391  -20.5688  -20.7508 C   0  0  1  0  0  0  0  0  0  0  0  0
   17.9182  -19.2010  -21.3171 O   0  0  0  0  0  0  0  0  0  0  0  0
   18.7719  -20.6710  -19.3748 C   0  0  2  0  0  0  0  0  0  0  0  0
   22.8041  -23.8496  -19.2234 N   0  0  0  0  0  0  0  0  0  0  0  0
   14.5978  -23.9070  -17.1988 O   0  5  0  0  0  0  0  0  0  0  0  0
   11.8027  -20.9454  -19.5435 O   0  5  0  0  0  0  0  0  0  0  0  0
   14.1213  -24.8981  -20.7721 O   0  0  0  0  0  0  0  0  0  0  0  0
   22.7929  -22.5551  -19.5007 C   0  0  0  0  0  0  0  0  0  0  0  0
   24.0389  -21.8832  -19.8099 N   0  0  0  0  0  0  0  0  0  0  0  0
   13.2528  -21.9777  -16.3844 O   0  0  0  0  0  0  0  0  0  0  0  0
   10.7895  -23.0198  -20.4007 O   0  0  0  0  0  0  0  0  0  0  0  0
   12.5083  -24.4409  -22.5771 O   0  5  0  0  0  0  0  0  0  0  0  0
   21.6796  -21.8507  -19.5052 N   0  0  0  0  0  0  0  0  0  0  0  0
   12.5195  -23.2142  -18.5315 O   0  0  0  0  0  0  0  0  0  0  0  0
   13.2361  -22.5080  -21.0155 O   0  0  0  0  0  0  0  0  0  0  0  0
   14.8434  -23.6097  -22.7419 O   0  0  0  0  0  0  0  0  0  0  0  0
   20.5075  -22.4332  -19.2252 C   0  0  0  0  0  0  0  0  0  0  0  0
   20.4910  -23.7821  -18.9331 C   0  0  0  0  0  0  0  0  0  0  0  0
   21.6935  -24.5148  -18.9334 C   0  0  0  0  0  0  0  0  0  0  0  0
   21.7085  -25.8896  -18.6393 O   0  0  0  0  0  0  0  0  0  0  0  0
   19.2154  -24.1285  -18.6900 N   0  0  0  0  0  0  0  0  0  0  0  0
   18.4753  -23.0421  -18.8263 C   0  0  0  0  0  0  0  0  0  0  0  0
   19.2349  -22.0125  -19.1507 N   0  0  0  0  0  0  0  0  0  0  0  0
  1  5  1  6  0  0  0
  1 14  1  0  0  0  0
  1 19  2  0  0  0  0
  1 23  1  0  0  0  0
  2 15  1  1  0  0  0
  2 20  2  0  0  0  0
  2 23  1  0  0  0  0
  2 24  1  0  0  0  0
  3 16  1  1  0  0  0
  3 21  1  0  0  0  0
  3 24  1  0  0  0  0
  3 25  2  0  0  0  0
  4  5  1  0  0  0  0
  6  4  1  1  0  0  0
  6  7  1  0  0  0  0
  6  8  1  0  0  0  0
  7 12  1  0  0  0  0
  8  9  1  6  0  0  0
  8 10  1  0  0  0  0
 10 11  1  1  0  0  0
 10 12  1  0  0  0  0
 12 32  1  1  0  0  0
 13 17  2  0  0  0  0
 13 28  1  0  0  0  0
 17 18  1  0  0  0  0
 17 22  1  0  0  0  0
 22 26  2  0  0  0  0
 26 27  1  0  0  0  0
 26 32  1  0  0  0  0
 27 28  2  0  0  0  0
 27 30  1  0  0  0  0
 28 29  1  0  0  0  0
 30 31  2  0  0  0  0
 31 32  1  0  0  0  0
M  CHG  3  14  -1  15  -1  21  -1
M  END
>  <CHROM.1>
-35.58649175,-53.42128449,-58.52614075,176.17288241,-170.81011873,-128.37044235
-18.65575793,-171.54420954,16.36964990,-22.50992801,-19.59477046,3.12017864
0.07318977,-2.84013848

>  <Name>
ligand

>  <RI>
0

>  <Rbt.Current_Directory>
/home/itssahil/PROJECTS/Mol_Feturizer/New_Systems/rnas/4Y1I

>  <Rbt.Executable>
rbdock ($Id: //depot/dev/client3/rdock/2013.1/src/exe/rbdock.cxx#4 $)

>  <Rbt.Library>
libRbt.so (2013.1, Build901 2013/11/27)

>  <Rbt.Parameter_File>
/export/apps/rDock/src/rDock_2013.1_src/data/scripts/dock_solv.prm

>  <Rbt.Receptor>
prm/pocket_docking_6.prm

>  <SCORE>
-8.42689

>  <SCORE.INTER>
-2.40974

>  <SCORE.INTER.CONST>
1

>  <SCORE.INTER.POLAR>
0

>  <SCORE.INTER.ROT>
8

>  <SCORE.INTER.SOLV>
6.63999

>  <SCORE.INTER.VDW>
-12.7532

>  <SCORE.INTER.norm>
-0.0753043

>  <SCORE.INTRA>
-6.02089

>  <SCORE.INTRA.DIHEDRAL>
-6.31476

>  <SCORE.INTRA.DIHEDRAL.0>
10.9594

>  <SCORE.INTRA.POLAR>
0

>  <SCORE.INTRA.POLAR.0>
0

>  <SCORE.INTRA.REPUL>
0

>  <SCORE.INTRA.REPUL.0>
0

>  <SCORE.INTRA.SOLV>
-5.02257

>  <SCORE.INTRA.SOLV.lig_0>
-124.914

>  <SCORE.INTRA.VDW>
-0.352227

>  <SCORE.INTRA.VDW.0>
-4.69801

>  <SCORE.INTRA.norm>
-0.188153

>  <SCORE.RESTR>
0.00373678

>  <SCORE.RESTR.CAVITY>
0.00373678

>  <SCORE.RESTR.norm>
0.000116774

>  <SCORE.SYSTEM>
0

>  <SCORE.SYSTEM.CONST>
0

>  <SCORE.SYSTEM.DIHEDRAL>
0

>  <SCORE.SYSTEM.SOLV>
0

>  <SCORE.SYSTEM.norm>
0

>  <SCORE.heavy>
32

>  <SCORE.norm>
-0.26334

>  <RMSD>
6.603

$$$$
ligand
 OpenBabel11021811513D
libRbt.so/2013.1/901 2013/11/27
 32 34  0  0  0  0  0  0  0  0999 V2000
   14.0065  -21.5911  -18.3509 P   0  0  1  0  0  0  0  0  0  0  0  0
   11.1508  -21.3777  -18.5264 P   0  0  2  0  0  0  0  0  0  0  0  0
    9.7392  -23.7560  -17.5434 P   0  0  1  0  0  0  0  0  0  0  0  0
   16.5631  -21.0930  -18.4337 C   0  0  0  0  0  0  0  0  0  0  0  0
   15.3118  -20.8268  -19.0006 O   0  0  0  0  0  0  0  0  0  0  0  0
   17.5544  -20.4659  -19.1802 C   0  0  1  0  0  0  0  0  0  0  0  0
   18.9120  -20.7225  -18.5549 O   0  0  0  0  0  0  0  0  0  0  0  0
   17.6345  -21.0636  -20.6596 C   0  0  1  0  0  0  0  0  0  0  0  0
   17.2529  -19.9923  -21.6560 O   0  0  0  0  0  0  0  0  0  0  0  0
   18.8214  -21.3376  -20.8529 C   0  0  1  0  0  0  0  0  0  0  0  0
   19.4706  -20.2228  -21.5834 O   0  0  0  0  0  0  0  0  0  0  0  0
   19.5156  -21.5145  -19.3493 C   0  0  2  0  0  0  0  0  0  0  0  0
   21.9664  -25.9004  -18.2803 N   0  0  0  0  0  0  0  0  0  0  0  0
   14.1168  -23.0779  -18.5822 O   0  5  0  0  0  0  0  0  0  0  0  0
   10.1061  -21.0070  -19.5488 O   0  5  0  0  0  0  0  0  0  0  0  0
    9.3878  -23.0773  -16.2402 O   0  0  0  0  0  0  0  0  0  0  0  0
   22.4754  -24.7730  -18.7520 C   0  0  0  0  0  0  0  0  0  0  0  0
   23.8962  -24.6934  -19.0247 N   0  0  0  0  0  0  0  0  0  0  0  0
   13.9454  -21.2767  -16.8732 O   0  0  0  0  0  0  0  0  0  0  0  0
   10.9291  -20.5815  -17.2672 O   0  0  0  0  0  0  0  0  0  0  0  0
    8.5667  -23.6427  -18.4930 O   0  5  0  0  0  0  0  0  0  0  0  0
   21.7292  -23.7123  -18.9840 N   0  0  0  0  0  0  0  0  0  0  0  0
   12.6518  -21.0373  -19.0972 O   0  0  0  0  0  0  0  0  0  0  0  0
   11.0516  -22.9836  -18.1841 O   0  0  0  0  0  0  0  0  0  0  0  0
   10.0576  -25.2101  -17.2718 O   0  0  0  0  0  0  0  0  0  0  0  0
   20.4124  -23.7442  -18.7459 C   0  0  0  0  0  0  0  0  0  0  0  0
   19.8561  -24.9077  -18.2542 C   0  0  0  0  0  0  0  0  0  0  0  0
   20.6734  -26.0289  -18.0130 C   0  0  0  0  0  0  0  0  0  0  0  0
   20.1356  -27.2275  -17.5119 O   0  0  0  0  0  0  0  0  0  0  0  0
   18.5384  -24.6932  -18.0995 N   0  0  0  0  0  0  0  0  0  0  0  0
   18.2904  -23.4518  -18.4793 C   0  0  0  0  0  0  0  0  0  0  0  0
   19.4054  -22.8659  -18.8740 N   0  0  0  0  0  0  0  0  0  0  0  0
  1  5  1  6  0  0  0
  1 14  1  0  0  0  0
  1 19  2  0  0  0  0
  1 23  1  0  0  0  0
  2 15  1  6  0  0  0
  2 20  2  0  0  0  0
  2 23  1  0  0  0  0
  2 24  1  0  0  0  0
  3 16  1  1  0  0  0
  3 21  1  0  0  0  0
  3 24  1  0  0  0  0
  3 25  2  0  0  0  0
  4  5  1  0  0  0  0
  6  4  1  1  0  0  0
  6  7  1  0  0  0  0
  6  8  1  0  0  0  0
  7 12  1  0  0  0  0
  8  9  1  6  0  0  0
  8 10  1  0  0  0  0
 10 11  1  1  0  0  0
 10 12  1  0  0  0  0
 12 32  1  1  0  0  0
 13 17  2  0  0  0  0
 13 28  1  0  0  0  0
 17 18  1  0  0  0  0
 17 22  1  0  0  0  0
 22 26  2  0  0  0  0
 26 27  1  0  0  0  0
 26 32  1  0  0  0  0
 27 28  2  0  0  0  0
 27 30  1  0  0  0  0
 28 29  1  0  0  0  0
 30 31  2  0  0  0  0
 31 32  1  0  0  0  0
M  CHG  3  14  -1  15  -1  21  -1
M  END
>  <CHROM.1>
-65.44070093,-167.82230388,-56.46993797,178.70974436,174.48179030,-131.31451911
-168.90631041,-60.91099266,15.67022159,-22.64313187,-18.62812308,-3.07354895
-0.14292699,2.70281687

>  <Name>
ligand

>  <RI>
0

>  <Rbt.Current_Directory>
/home/itssahil/PROJECTS/Mol_Feturizer/New_Systems/rnas/4Y1I

>  <Rbt.Executable>
rbdock ($Id: //depot/dev/client3/rdock/2013.1/src/exe/rbdock.cxx#4 $)

>  <Rbt.Library>
libRbt.so (2013.1, Build901 2013/11/27)

>  <Rbt.Parameter_File>
/export/apps/rDock/src/rDock_2013.1_src/data/scripts/dock_solv.prm

>  <Rbt.Receptor>
prm/pocket_docking_7.prm

>  <SCORE>
-8.70187

>  <SCORE.INTER>
-2.86085

>  <SCORE.INTER.CONST>
1

>  <SCORE.INTER.POLAR>
0

>  <SCORE.INTER.ROT>
8

>  <SCORE.INTER.SOLV>
9.69008

>  <SCORE.INTER.VDW>
-14.0706

>  <SCORE.INTER.norm>
-0.0894017

>  <SCORE.INTRA>
-5.84102

>  <SCORE.INTRA.DIHEDRAL>
-9.08089

>  <SCORE.INTRA.DIHEDRAL.0>
10.9594

>  <SCORE.INTRA.POLAR>
0

>  <SCORE.INTRA.POLAR.0>
0

>  <SCORE.INTRA.REPUL>
0

>  <SCORE.INTRA.REPUL.0>
0

>  <SCORE.INTRA.SOLV>
-4.11281

>  <SCORE.INTRA.SOLV.lig_0>
-124.914

>  <SCORE.INTRA.VDW>
0.755837

>  <SCORE.INTRA.VDW.0>
-4.69801

>  <SCORE.INTRA.norm>
-0.182532

>  <SCORE.RESTR>
0

>  <SCORE.RESTR.CAVITY>
0

>  <SCORE.RESTR.norm>
0

>  <SCORE.SYSTEM>
0

>  <SCORE.SYSTEM.CONST>
0

>  <SCORE.SYSTEM.DIHEDRAL>
0

>  <SCORE.SYSTEM.SOLV>
0

>  <SCORE.SYSTEM.norm>
0

>  <SCORE.heavy>
32

>  <SCORE.norm>
-0.271933

>  <RMSD>
6.645

$$$$
ligand
 OpenBabel11021811513D
libRbt.so/2013.1/901 2013/11/27
 32 34  0  0  0  0  0  0  0  0999 V2000
   19.3237  -24.3305  -21.8150 P   0  0  1  0  0  0  0  0  0  0  0  0
   20.2535  -26.8452  -20.7940 P   0  0  2  0  0  0  0  0  0  0  0  0
   22.0982  -26.7198  -18.5144 P   0  0  1  0  0  0  0  0  0  0  0  0
   20.2177  -22.2037  -20.6030 C   0  0  0  0  0  0  0  0  0  0  0  0
   19.8228  -22.7617  -21.8239 O   0  0  0  0  0  0  0  0  0  0  0  0
   20.4744  -20.8478  -20.7731 C   0  0  1  0  0  0  0  0  0  0  0  0
   19.2242  -20.1432  -21.2635 O   0  0  0  0  0  0  0  0  0  0  0  0
   20.8549  -20.1493  -19.3877 C   0  0  1  0  0  0  0  0  0  0  0  0
   22.2850  -19.6623  -19.4463 O   0  0  0  0  0  0  0  0  0  0  0  0
   20.1322  -19.1538  -19.2979 C   0  0  1  0  0  0  0  0  0  0  0  0
   20.8777  -17.9614  -19.7671 O   0  0  0  0  0  0  0  0  0  0  0  0
   18.8211  -19.4320  -20.2867 C   0  0  2  0  0  0  0  0  0  0  0  0
   13.7648  -20.2367  -19.8734 N   0  0  0  0  0  0  0  0  0  0  0  0
   18.0112  -24.4455  -21.0799 O   0  5  0  0  0  0  0  0  0  0  0  0
   20.2084  -27.5675  -22.1171 O   0  5  0  0  0  0  0  0  0  0  0  0
   20.9357  -26.4345  -17.5928 O   0  0  0  0  0  0  0  0  0  0  0  0
   14.4014  -19.4569  -20.7332 C   0  0  0  0  0  0  0  0  0  0  0  0
   13.6399  -18.7054  -21.7104 N   0  0  0  0  0  0  0  0  0  0  0  0
   19.1864  -24.8044  -23.2443 O   0  0  0  0  0  0  0  0  0  0  0  0
   18.9581  -27.0618  -20.0567 O   0  0  0  0  0  0  0  0  0  0  0  0
   23.0507  -27.6754  -17.8294 O   0  5  0  0  0  0  0  0  0  0  0  0
   15.7136  -19.3395  -20.7316 N   0  0  0  0  0  0  0  0  0  0  0  0
   20.4511  -25.2331  -21.0321 O   0  0  0  0  0  0  0  0  0  0  0  0
   21.5019  -27.4171  -19.8883 O   0  0  0  0  0  0  0  0  0  0  0  0
   22.8006  -25.4196  -18.8392 O   0  0  0  0  0  0  0  0  0  0  0  0
   16.4539  -20.0163  -19.8454 C   0  0  0  0  0  0  0  0  0  0  0  0
   15.8151  -20.8362  -18.9372 C   0  0  0  0  0  0  0  0  0  0  0  0
   14.4114  -20.9468  -18.9582 C   0  0  0  0  0  0  0  0  0  0  0  0
   13.7326  -21.7742  -18.0462 O   0  0  0  0  0  0  0  0  0  0  0  0
   16.7599  -21.3992  -18.1649 N   0  0  0  0  0  0  0  0  0  0  0  0
   17.9316  -20.9471  -18.5767 C   0  0  0  0  0  0  0  0  0  0  0  0
   17.7674  -20.1118  -19.5854 N   0  0  0  0  0  0  0  0  0  0  0  0
  1  5  1  6  0  0  0
  1 14  1  0  0  0  0
  1 19  2  0  0  0  0
  1 23  1  0  0  0  0
  2 15  1  6  0  0  0
  2 20  2  0  0  0  0
  2 23  1  0  0  0  0
  2 24  1  0  0  0  0
  3 16  1  1  0  0  0
  3 21  1  0  0  0  0
  3 24  1  0  0  0  0
  3 25  2  0  0  0  0
  4  5  1  0  0  0  0
  6  4  1  1  0  0  0
  6  7  1  0  0  0  0
  6  8  1  0  0  0  0
  7 12  1  0  0  0  0
  8  9  1  6  0  0  0
  8 10  1  0  0  0  0
 10 11  1  6  0  0  0
 10 12  1  0  0  0  0
 12 32  1  1  0  0  0
 13 17  2  0  0  0  0
 13 28  1  0  0  0  0
 17 18  1  0  0  0  0
 17 22  1  0  0  0  0
 22 26  2  0  0  0  0
 26 27  1  0  0  0  0
 26 32  1  0  0  0  0
 27 28  2  0  0  0  0
 27 30  1  0  0  0  0
 28 29  1  0  0  0  0
 30 31  2  0  0  0  0
 31 32  1  0  0  0  0
M  CHG  3  14  -1  15  -1  21  -1
M  END
>  <CHROM.1>
68.53268184,63.33655697,50.09386208,59.98821665,-173.99837619,-89.93102364
178.02750338,167.24668331,19.04539531,-22.99566944,-20.07379659,0.93148266
0.12204790,-3.07638335

>  <Name>
ligand

>  <RI>
0

>  <Rbt.Current_Directory>
/home/itssahil/PROJECTS/Mol_Feturizer/New_Systems/rnas/4Y1I

>  <Rbt.Executable>
rbdock ($Id: //depot/dev/client3/rdock/2013.1/src/exe/rbdock.cxx#4 $)

>  <Rbt.Library>
libRbt.so (2013.1, Build901 2013/11/27)

>  <Rbt.Parameter_File>
/export/apps/rDock/src/rDock_2013.1_src/data/scripts/dock_solv.prm

>  <Rbt.Receptor>
prm/pocket_docking_8.prm

>  <SCORE>
-9.04243

>  <SCORE.INTER>
-2.28633

>  <SCORE.INTER.CONST>
1

>  <SCORE.INTER.POLAR>
0

>  <SCORE.INTER.ROT>
8

>  <SCORE.INTER.SOLV>
7.0952

>  <SCORE.INTER.VDW>
-12.8226

>  <SCORE.INTER.norm>
-0.0714479

>  <SCORE.INTRA>
-6.75609

>  <SCORE.INTRA.DIHEDRAL>
-8.97039

>  <SCORE.INTRA.DIHEDRAL.0>
10.9594

>  <SCORE.INTRA.POLAR>
0

>  <SCORE.INTRA.POLAR.0>
0

>  <SCORE.INTRA.REPUL>
0

>  <SCORE.INTRA.REPUL.0>
0

>  <SCORE.INTRA.SOLV>
-4.49983

>  <SCORE.INTRA.SOLV.lig_0>
-124.914

>  <SCORE.INTRA.VDW>
-0.0209875

>  <SCORE.INTRA.VDW.0>
-4.69801

>  <SCORE.INTRA.norm>
-0.211128

>  <SCORE.RESTR>
0

>  <SCORE.RESTR.CAVITY>
0

>  <SCORE.RESTR.norm>
0

>  <SCORE.SYSTEM>
0

>  <SCORE.SYSTEM.CONST>
0

>  <SCORE.SYSTEM.DIHEDRAL>
0

>  <SCORE.SYSTEM.SOLV>
0

>  <SCORE.SYSTEM.norm>
0

>  <SCORE.heavy>
32

>  <SCORE.norm>
-0.282576

>  <RMSD>
6.701

$$$$
ligand
 OpenBabel11021811513D
libRbt.so/2013.1/901 2013/11/27
 32 34  0  0  0  0  0  0  0  0999 V2000
   22.3772  -22.8932  -19.4625 P   0  0  1  0  0  0  0  0  0  0  0  0
   21.8471  -25.6380  -18.8175 P   0  0  2  0  0  0  0  0  0  0  0  0
   20.4820  -27.9635  -17.6584 P   0  0  1  0  0  0  0  0  0  0  0  0
   19.7799  -22.8481  -19.6710 C   0  0  0  0  0  0  0  0  0  0  0  0
   20.9539  -22.0871  -19.6487 O   0  0  0  0  0  0  0  0  0  0  0  0
   18.7111  -22.0426  -20.0480 C   0  0  1  0  0  0  0  0  0  0  0  0
   17.4490  -22.8766  -20.1563 O   0  0  0  0  0  0  0  0  0  0  0  0
   18.4052  -20.9280  -18.9452 C   0  0  1  0  0  0  0  0  0  0  0  0
   18.6720  -19.5583  -19.5273 O   0  0  0  0  0  0  0  0  0  0  0  0
   17.1955  -20.9989  -18.7151 C   0  0  1  0  0  0  0  0  0  0  0  0
   16.4814  -19.9795  -19.5205 O   0  0  0  0  0  0  0  0  0  0  0  0
   16.7167  -22.5264  -19.1747 C   0  0  2  0  0  0  0  0  0  0  0  0
   14.7333  -24.3780  -14.8131 N   0  0  0  0  0  0  0  0  0  0  0  0
   22.7924  -23.5082  -20.7760 O   0  5  0  0  0  0  0  0  0  0  0  0
   23.1365  -26.3785  -19.0694 O   0  5  0  0  0  0  0  0  0  0  0  0
   21.7031  -28.8510  -17.7176 O   0  0  0  0  0  0  0  0  0  0  0  0
   14.2589  -23.4095  -15.5810 C   0  0  0  0  0  0  0  0  0  0  0  0
   13.0286  -22.7423  -15.2057 N   0  0  0  0  0  0  0  0  0  0  0  0
   23.4238  -21.9219  -18.9652 O   0  0  0  0  0  0  0  0  0  0  0  0
   21.0292  -25.6049  -20.0819 O   0  0  0  0  0  0  0  0  0  0  0  0
   19.7076  -28.2698  -16.3951 O   0  5  0  0  0  0  0  0  0  0  0  0
   14.8712  -23.0281  -16.6834 N   0  0  0  0  0  0  0  0  0  0  0  0
   22.1583  -24.0922  -18.3611 O   0  0  0  0  0  0  0  0  0  0  0  0
   20.9927  -26.3926  -17.6316 O   0  0  0  0  0  0  0  0  0  0  0  0
   19.6240  -28.2235  -18.8774 O   0  0  0  0  0  0  0  0  0  0  0  0
   16.0102  -23.6183  -17.0655 C   0  0  0  0  0  0  0  0  0  0  0  0
   16.5267  -24.6308  -16.2825 C   0  0  0  0  0  0  0  0  0  0  0  0
   15.8546  -25.0224  -15.1086 C   0  0  0  0  0  0  0  0  0  0  0  0
   16.3559  -26.0507  -14.2912 O   0  0  0  0  0  0  0  0  0  0  0  0
   17.6588  -25.0580  -16.8673 N   0  0  0  0  0  0  0  0  0  0  0  0
   17.8352  -24.3411  -17.9635 C   0  0  0  0  0  0  0  0  0  0  0  0
   16.8546  -23.4679  -18.0981 N   0  0  0  0  0  0  0  0  0  0  0  0
  1  5  1  6  0  0  0
  1 14  1  0  0  0  0
  1 19  2  0  0  0  0
  1 23  1  0  0  0  0
  2 15  1  6  0  0  0
  2 20  2  0  0  0  0
  2 23  1  0  0  0  0
  2 24  1  0  0  0  0
  3 16  1  6  0  0  0
  3 21  1  0  0  0  0
  3 24  1  0  0  0  0
  3 25  2  0  0  0  0
  4  5  1  0  0  0  0
  6  4  1  1  0  0  0
  6  7  1  0  0  0  0
  6  8  1  0  0  0  0
  7 12  1  0  0  0  0
  8  9  1  6  0  0  0
  8 10  1  0  0  0  0
 10 11  1  6  0  0  0
 10 12  1  0  0  0  0
 12 32  1  1  0  0  0
 13 17  2  0  0  0  0
 13 28  1  0  0  0  0
 17 18  1  0  0  0  0
 17 22  1  0  0  0  0
 22 26  2  0  0  0  0
 26 27  1  0  0  0  0
 26 32  1  0  0  0  0
 27 28  2  0  0  0  0
 27 30  1  0  0  0  0
 28 29  1  0  0  0  0
 30 31  2  0  0  0  0
 31 32  1  0  0  0  0
M  CHG  3  14  -1  15  -1  21  -1
M  END
>  <CHROM.1>
78.88325982,86.41258996,62.20978804,176.60593068,-170.46311420,-162.02150051
97.01029156,-58.04794271,19.10949365,-24.22947488,-18.15313226,-0.17187799
0.43679625,-0.42200873

>  <Name>
ligand

>  <RI>
0

>  <Rbt.Current_Directory>
/home/itssahil/PROJECTS/Mol_Feturizer/New_Systems/rnas/4Y1I

>  <Rbt.Executable>
rbdock ($Id: //depot/dev/client3/rdock/2013.1/src/exe/rbdock.cxx#4 $)

>  <Rbt.Library>
libRbt.so (2013.1, Build901 2013/11/27)

>  <Rbt.Parameter_File>
/export/apps/rDock/src/rDock_2013.1_src/data/scripts/dock_solv.prm

>  <Rbt.Receptor>
prm/pocket_docking_7.prm

>  <SCORE>
-8.56391

>  <SCORE.INTER>
-4.37997

>  <SCORE.INTER.CONST>
1

>  <SCORE.INTER.POLAR>
0

>  <SCORE.INTER.ROT>
8

>  <SCORE.INTER.SOLV>
15.7607

>  <SCORE.INTER.VDW>
-17.1069

>  <SCORE.INTER.norm>
-0.136874

>  <SCORE.INTRA>
-4.18394

>  <SCORE.INTRA.DIHEDRAL>
-6.03469

>  <SCORE.INTRA.DIHEDRAL.0>
10.9594

>  <SCORE.INTRA.POLAR>
0

>  <SCORE.INTRA.POLAR.0>
0

>  <SCORE.INTRA.REPUL>
0

>  <SCORE.INTRA.REPUL.0>
0

>  <SCORE.INTRA.SOLV>
-2.64972

>  <SCORE.INTRA.SOLV.lig_0>
-124.914

>  <SCORE.INTRA.VDW>
0.15826

>  <SCORE.INTRA.VDW.0>
-4.69801

>  <SCORE.INTRA.norm>
-0.130748

>  <SCORE.RESTR>
0

>  <SCORE.RESTR.CAVITY>
0

>  <SCORE.RESTR.norm>
0

>  <SCORE.SYSTEM>
0

>  <SCORE.SYSTEM.CONST>
0

>  <SCORE.SYSTEM.DIHEDRAL>
0

>  <SCORE.SYSTEM.SOLV>
0

>  <SCORE.SYSTEM.norm>
0

>  <SCORE.heavy>
32

>  <SCORE.norm>
-0.267622

>  <RMSD>
6.722

$$$$
ligand
 OpenBabel11021811513D
libRbt.so/2013.1/901 2013/11/27
 32 34  0  0  0  0  0  0  0  0999 V2000
   15.5732  -22.0375  -18.0090 P   0  0  1  0  0  0  0  0  0  0  0  0
   14.0078  -22.8180  -15.7349 P   0  0  2  0  0  0  0  0  0  0  0  0
   14.7342  -25.0635  -13.9899 P   0  0  1  0  0  0  0  0  0  0  0  0
   17.1960  -20.8312  -19.6530 C   0  0  0  0  0  0  0  0  0  0  0  0
   16.5560  -20.7791  -18.4098 O   0  0  0  0  0  0  0  0  0  0  0  0
   18.0092  -19.7135  -19.8042 C   0  0  1  0  0  0  0  0  0  0  0  0
   19.1343  -19.7522  -18.7881 O   0  0  0  0  0  0  0  0  0  0  0  0
   18.7148  -19.6969  -21.2373 C   0  0  1  0  0  0  0  0  0  0  0  0
   18.2137  -18.5114  -22.0308 O   0  0  0  0  0  0  0  0  0  0  0  0
   19.9158  -19.5137  -21.0240 C   0  0  1  0  0  0  0  0  0  0  0  0
   20.2283  -18.0728  -21.1790 O   0  0  0  0  0  0  0  0  0  0  0  0
   20.1941  -19.9916  -19.4530 C   0  0  2  0  0  0  0  0  0  0  0  0
   23.9040  -23.5250  -19.0833 N   0  0  0  0  0  0  0  0  0  0  0  0
   14.5364  -22.2400  -19.0861 O   0  5  0  0  0  0  0  0  0  0  0  0
   13.1121  -23.6258  -16.6401 O   0  5  0  0  0  0  0  0  0  0  0  0
   13.8428  -26.0246  -14.7410 O   0  0  0  0  0  0  0  0  0  0  0  0
   24.0306  -22.2081  -19.1330 C   0  0  0  0  0  0  0  0  0  0  0  0
   25.3532  -21.6183  -19.0812 N   0  0  0  0  0  0  0  0  0  0  0  0
   16.4198  -23.2779  -17.8333 O   0  0  0  0  0  0  0  0  0  0  0  0
   13.1747  -22.1241  -14.6894 O   0  0  0  0  0  0  0  0  0  0  0  0
   16.0057  -25.7784  -13.5876 O   0  5  0  0  0  0  0  0  0  0  0  0
   22.9879  -21.4087  -19.2286 N   0  0  0  0  0  0  0  0  0  0  0  0
   14.8103  -21.6765  -16.5996 O   0  0  0  0  0  0  0  0  0  0  0  0
   15.0971  -23.8075  -14.9999 O   0  0  0  0  0  0  0  0  0  0  0  0
   14.0002  -24.5657  -12.7640 O   0  0  0  0  0  0  0  0  0  0  0  0
   21.7491  -21.9130  -19.2794 C   0  0  0  0  0  0  0  0  0  0  0  0
   21.5890  -23.2831  -19.2299 C   0  0  0  0  0  0  0  0  0  0  0  0
   22.7182  -24.1181  -19.1269 C   0  0  0  0  0  0  0  0  0  0  0  0
   22.5868  -25.5170  -19.0739 O   0  0  0  0  0  0  0  0  0  0  0  0
   20.2714  -23.5398  -19.2958 N   0  0  0  0  0  0  0  0  0  0  0  0
   19.6441  -22.3798  -19.3828 C   0  0  0  0  0  0  0  0  0  0  0  0
   20.5168  -21.3896  -19.3771 N   0  0  0  0  0  0  0  0  0  0  0  0
  1  5  1  6  0  0  0
  1 14  1  0  0  0  0
  1 19  2  0  0  0  0
  1 23  1  0  0  0  0
  2 15  1  6  0  0  0
  2 20  2  0  0  0  0
  2 23  1  0  0  0  0
  2 24  1  0  0  0  0
  3 16  1  6  0  0  0
  3 21  1  0  0  0  0
  3 24  1  0  0  0  0
  3 25  2  0  0  0  0
  4  5  1  0  0  0  0
  6  4  1  6  0  0  0
  6  7  1  0  0  0  0
  6  8  1  0  0  0  0
  7 12  1  0  0  0  0
  8  9  1  6  0  0  0
  8 10  1  0  0  0  0
 10 11  1  1  0  0  0
 10 12  1  0  0  0  0
 12 32  1  6  0  0  0
 13 17  2  0  0  0  0
 13 28  1  0  0  0  0
 17 18  1  0  0  0  0
 17 22  1  0  0  0  0
 22 26  2  0  0  0  0
 26 27  1  0  0  0  0
 26 32  1  0  0  0  0
 27 28  2  0  0  0  0
 27 30  1  0  0  0  0
 28 29  1  0  0  0  0
 30 31  2  0  0  0  0
 31 32  1  0  0  0  0
M  CHG  3  14  -1  15  -1  21  -1
M  END
>  <CHROM.1>
-54.80224200,-47.46594916,57.78399984,65.41008135,-178.27551782,-141.90107780
-166.59750910,-61.05117243,17.84952266,-22.34766794,-17.85703192,2.56256287
-0.25865986,2.43208098

>  <Name>
ligand

>  <RI>
0

>  <Rbt.Current_Directory>
/home/itssahil/PROJECTS/Mol_Feturizer/New_Systems/rnas/4Y1I

>  <Rbt.Executable>
rbdock ($Id: //depot/dev/client3/rdock/2013.1/src/exe/rbdock.cxx#4 $)

>  <Rbt.Library>
libRbt.so (2013.1, Build901 2013/11/27)

>  <Rbt.Parameter_File>
/export/apps/rDock/src/rDock_2013.1_src/data/scripts/dock_solv.prm

>  <Rbt.Receptor>
prm/pocket_docking_7.prm

>  <SCORE>
-10.9362

>  <SCORE.INTER>
-5.17485

>  <SCORE.INTER.CONST>
1

>  <SCORE.INTER.POLAR>
0

>  <SCORE.INTER.ROT>
8

>  <SCORE.INTER.SOLV>
11.0079

>  <SCORE.INTER.VDW>
-16.0525

>  <SCORE.INTER.norm>
-0.161714

>  <SCORE.INTRA>
-5.76131

>  <SCORE.INTRA.DIHEDRAL>
-8.98864

>  <SCORE.INTRA.DIHEDRAL.0>
10.9594

>  <SCORE.INTRA.POLAR>
0

>  <SCORE.INTRA.POLAR.0>
0

>  <SCORE.INTRA.REPUL>
0

>  <SCORE.INTRA.REPUL.0>
0

>  <SCORE.INTRA.SOLV>
-3.89254

>  <SCORE.INTRA.SOLV.lig_0>
-124.914

>  <SCORE.INTRA.VDW>
0.679282

>  <SCORE.INTRA.VDW.0>
-4.69801

>  <SCORE.INTRA.norm>
-0.180041

>  <SCORE.RESTR>
0

>  <SCORE.RESTR.CAVITY>
0

>  <SCORE.RESTR.norm>
0

>  <SCORE.SYSTEM>
0

>  <SCORE.SYSTEM.CONST>
0

>  <SCORE.SYSTEM.DIHEDRAL>
0

>  <SCORE.SYSTEM.SOLV>
0

>  <SCORE.SYSTEM.norm>
0

>  <SCORE.heavy>
32

>  <SCORE.norm>
-0.341755

>  <RMSD>
6.723

$$$$
ligand
 OpenBabel11021811513D
libRbt.so/2013.1/901 2013/11/27
 32 34  0  0  0  0  0  0  0  0999 V2000
   22.0638  -23.3736  -19.4057 P   0  0  1  0  0  0  0  0  0  0  0  0
   21.1885  -25.9027  -18.3720 P   0  0  2  0  0  0  0  0  0  0  0  0
   19.4498  -28.0670  -17.4192 P   0  0  1  0  0  0  0  0  0  0  0  0
   20.0981  -21.9109  -20.2935 C   0  0  0  0  0  0  0  0  0  0  0  0
   21.3666  -21.9121  -19.7029 O   0  0  0  0  0  0  0  0  0  0  0  0
   19.1266  -22.0466  -19.3080 C   0  0  1  0  0  0  0  0  0  0  0  0
   18.7900  -20.6879  -18.7244 O   0  0  0  0  0  0  0  0  0  0  0  0
   17.7606  -22.6136  -19.9117 C   0  0  1  0  0  0  0  0  0  0  0  0
   17.4793  -23.9780  -19.3240 O   0  0  0  0  0  0  0  0  0  0  0  0
   16.8722  -21.8545  -19.5170 C   0  0  1  0  0  0  0  0  0  0  0  0
   16.2353  -22.4297  -18.3082 O   0  0  0  0  0  0  0  0  0  0  0  0
   17.6169  -20.4137  -19.1381 C   0  0  2  0  0  0  0  0  0  0  0  0
   15.0210  -17.5434  -22.5157 N   0  0  0  0  0  0  0  0  0  0  0  0
   22.3279  -24.0886  -20.7077 O   0  5  0  0  0  0  0  0  0  0  0  0
   22.5145  -26.2447  -17.7404 O   0  5  0  0  0  0  0  0  0  0  0  0
   18.3703  -28.1855  -16.3689 O   0  0  0  0  0  0  0  0  0  0  0  0
   14.5398  -18.2688  -21.5183 C   0  0  0  0  0  0  0  0  0  0  0  0
   13.1092  -18.3047  -21.2907 N   0  0  0  0  0  0  0  0  0  0  0  0
   23.3487  -23.1519  -18.6401 O   0  0  0  0  0  0  0  0  0  0  0  0
   21.1167  -26.5036  -19.7513 O   0  0  0  0  0  0  0  0  0  0  0  0
   18.8733  -28.4428  -18.7668 O   0  5  0  0  0  0  0  0  0  0  0  0
   15.3223  -18.9646  -20.7189 N   0  0  0  0  0  0  0  0  0  0  0  0
   21.0253  -24.2748  -18.5069 O   0  0  0  0  0  0  0  0  0  0  0  0
   19.9619  -26.4966  -17.4508 O   0  0  0  0  0  0  0  0  0  0  0  0
   20.5917  -28.9921  -17.0591 O   0  0  0  0  0  0  0  0  0  0  0  0
   16.6492  -18.9587  -20.8950 C   0  0  0  0  0  0  0  0  0  0  0  0
   17.1771  -18.2109  -21.9280 C   0  0  0  0  0  0  0  0  0  0  0  0
   16.3213  -17.4743  -22.7695 C   0  0  0  0  0  0  0  0  0  0  0  0
   16.8296  -16.7030  -23.8295 O   0  0  0  0  0  0  0  0  0  0  0  0
   18.5119  -18.3646  -21.8987 N   0  0  0  0  0  0  0  0  0  0  0  0
   18.7972  -19.1723  -20.8922 C   0  0  0  0  0  0  0  0  0  0  0  0
   17.6889  -19.5422  -20.2781 N   0  0  0  0  0  0  0  0  0  0  0  0
  1  5  1  6  0  0  0
  1 14  1  0  0  0  0
  1 19  2  0  0  0  0
  1 23  1  0  0  0  0
  2 15  1  1  0  0  0
  2 20  2  0  0  0  0
  2 23  1  0  0  0  0
  2 24  1  0  0  0  0
  3 16  1  1  0  0  0
  3 21  1  0  0  0  0
  3 24  1  0  0  0  0
  3 25  2  0  0  0  0
  4  5  1  0  0  0  0
  6  4  1  6  0  0  0
  6  7  1  0  0  0  0
  6  8  1  0  0  0  0
  7 12  1  0  0  0  0
  8  9  1  1  0  0  0
  8 10  1  0  0  0  0
 10 11  1  1  0  0  0
 10 12  1  0  0  0  0
 12 32  1  6  0  0  0
 13 17  2  0  0  0  0
 13 28  1  0  0  0  0
 17 18  1  0  0  0  0
 17 22  1  0  0  0  0
 22 26  2  0  0  0  0
 26 27  1  0  0  0  0
 26 32  1  0  0  0  0
 27 28  2  0  0  0  0
 27 30  1  0  0  0  0
 28 29  1  0  0  0  0
 30 31  2  0  0  0  0
 31 32  1  0  0  0  0
M  CHG  3  14  -1  15  -1  21  -1
M  END
>  <CHROM.1>
64.34915232,61.16243850,176.13112921,85.19784297,85.01684583,-173.69526855
162.73365675,-78.69948391,18.96851226,-22.82707365,-19.56301143,-1.12563190
0.06476086,-0.43533995

>  <Name>
ligand

>  <RI>
0

>  <Rbt.Current_Directory>
/home/itssahil/PROJECTS/Mol_Feturizer/New_Systems/rnas/4Y1I

>  <Rbt.Executable>
rbdock ($Id: //depot/dev/client3/rdock/2013.1/src/exe/rbdock.cxx#4 $)

>  <Rbt.Library>
libRbt.so (2013.1, Build901 2013/11/27)

>  <Rbt.Parameter_File>
/export/apps/rDock/src/rDock_2013.1_src/data/scripts/dock_solv.prm

>  <Rbt.Receptor>
prm/pocket_docking_7.prm

>  <SCORE>
-9.64178

>  <SCORE.INTER>
-7.28794

>  <SCORE.INTER.CONST>
1

>  <SCORE.INTER.POLAR>
0

>  <SCORE.INTER.ROT>
8

>  <SCORE.INTER.SOLV>
17.8759

>  <SCORE.INTER.VDW>
-19.7506

>  <SCORE.INTER.norm>
-0.227748

>  <SCORE.INTRA>
-2.35383

>  <SCORE.INTRA.DIHEDRAL>
-3.98564

>  <SCORE.INTRA.DIHEDRAL.0>
10.9594

>  <SCORE.INTRA.POLAR>
0

>  <SCORE.INTRA.POLAR.0>
0

>  <SCORE.INTRA.REPUL>
0

>  <SCORE.INTRA.REPUL.0>
0

>  <SCORE.INTRA.SOLV>
-0.864788

>  <SCORE.INTRA.SOLV.lig_0>
-124.914

>  <SCORE.INTRA.VDW>
0.0713785

>  <SCORE.INTRA.VDW.0>
-4.69801

>  <SCORE.INTRA.norm>
-0.0735573

>  <SCORE.RESTR>
0

>  <SCORE.RESTR.CAVITY>
0

>  <SCORE.RESTR.norm>
0

>  <SCORE.SYSTEM>
0

>  <SCORE.SYSTEM.CONST>
0

>  <SCORE.SYSTEM.DIHEDRAL>
0

>  <SCORE.SYSTEM.SOLV>
0

>  <SCORE.SYSTEM.norm>
0

>  <SCORE.heavy>
32

>  <SCORE.norm>
-0.301306

>  <RMSD>
6.734

$$$$
ligand
 OpenBabel11021811513D
libRbt.so/2013.1/901 2013/11/27
 32 34  0  0  0  0  0  0  0  0999 V2000
   12.9956  -22.9779  -15.2422 P   0  0  1  0  0  0  0  0  0  0  0  0
   12.3751  -25.3668  -13.7796 P   0  0  2  0  0  0  0  0  0  0  0  0
   11.8353  -25.1289  -10.9043 P   0  0  1  0  0  0  0  0  0  0  0  0
   12.7736  -22.7681  -17.8303 C   0  0  0  0  0  0  0  0  0  0  0  0
   12.4501  -22.2063  -16.5903 O   0  0  0  0  0  0  0  0  0  0  0  0
   12.2116  -22.0044  -18.8472 C   0  0  1  0  0  0  0  0  0  0  0  0
   12.6943  -20.5705  -18.7432 O   0  0  0  0  0  0  0  0  0  0  0  0
   12.6769  -22.5190  -20.2863 C   0  0  1  0  0  0  0  0  0  0  0  0
   11.4793  -23.0484  -21.0423 O   0  0  0  0  0  0  0  0  0  0  0  0
   13.0804  -21.5224  -20.8907 C   0  0  1  0  0  0  0  0  0  0  0  0
   11.9948  -20.9978  -21.7535 O   0  0  0  0  0  0  0  0  0  0  0  0
   13.4805  -20.3967  -19.7302 C   0  0  2  0  0  0  0  0  0  0  0  0
   18.4088  -19.2872  -20.6609 N   0  0  0  0  0  0  0  0  0  0  0  0
   14.4728  -23.2546  -15.3737 O   0  5  0  0  0  0  0  0  0  0  0  0
   13.7990  -25.8517  -13.6720 O   0  5  0  0  0  0  0  0  0  0  0  0
   10.4858  -25.7982  -10.7894 O   0  0  0  0  0  0  0  0  0  0  0  0
   17.3440  -18.9343  -21.3640 C   0  0  0  0  0  0  0  0  0  0  0  0
   17.5145  -18.1334  -22.5594 N   0  0  0  0  0  0  0  0  0  0  0  0
   12.7132  -22.1089  -14.0375 O   0  0  0  0  0  0  0  0  0  0  0  0
   11.4497  -26.5467  -13.9222 O   0  0  0  0  0  0  0  0  0  0  0  0
   12.9200  -26.1573  -10.6689 O   0  5  0  0  0  0  0  0  0  0  0  0
   16.1249  -19.2887  -21.0120 N   0  0  0  0  0  0  0  0  0  0  0  0
   12.1988  -24.4075  -15.0999 O   0  0  0  0  0  0  0  0  0  0  0  0
   11.9725  -24.5143  -12.4316 O   0  0  0  0  0  0  0  0  0  0  0  0
   11.9265  -24.0233   -9.8754 O   0  0  0  0  0  0  0  0  0  0  0  0
   15.9239  -20.0285  -19.9148 C   0  0  0  0  0  0  0  0  0  0  0  0
   17.0172  -20.4104  -19.1638 C   0  0  0  0  0  0  0  0  0  0  0  0
   18.3110  -20.0193  -19.5589 C   0  0  0  0  0  0  0  0  0  0  0  0
   19.4437  -20.3925  -18.8141 O   0  0  0  0  0  0  0  0  0  0  0  0
   16.5635  -21.1358  -18.1274 N   0  0  0  0  0  0  0  0  0  0  0  0
   15.2476  -21.2003  -18.2328 C   0  0  0  0  0  0  0  0  0  0  0  0
   14.8448  -20.5421  -19.3036 N   0  0  0  0  0  0  0  0  0  0  0  0
  1  5  1  6  0  0  0
  1 14  1  0  0  0  0
  1 19  2  0  0  0  0
  1 23  1  0  0  0  0
  2 15  1  1  0  0  0
  2 20  2  0  0  0  0
  2 23  1  0  0  0  0
  2 24  1  0  0  0  0
  3 16  1  1  0  0  0
  3 21  1  0  0  0  0
  3 24  1  0  0  0  0
  3 25  2  0  0  0  0
  4  5  1  0  0  0  0
  6  4  1  1  0  0  0
  6  7  1  0  0  0  0
  6  8  1  0  0  0  0
  7 12  1  0  0  0  0
  8  9  1  6  0  0  0
  8 10  1  0  0  0  0
 10 11  1  6  0  0  0
 10 12  1  0  0  0  0
 12 32  1  1  0  0  0
 13 17  2  0  0  0  0
 13 28  1  0  0  0  0
 17 18  1  0  0  0  0
 17 22  1  0  0  0  0
 22 26  2  0  0  0  0
 26 27  1  0  0  0  0
 26 32  1  0  0  0  0
 27 28  2  0  0  0  0
 27 30  1  0  0  0  0
 28 29  1  0  0  0  0
 30 31  2  0  0  0  0
 31 32  1  0  0  0  0
M  CHG  3  14  -1  15  -1  21  -1
M  END
>  <CHROM.1>
50.28221993,-63.62394226,-80.32632013,57.15580176,178.80445953,-157.15463614
-173.32309606,-66.37660043,13.75410518,-22.57761903,-16.63177641,1.98209232
0.37560783,1.95428095

>  <Name>
ligand

>  <RI>
0

>  <Rbt.Current_Directory>
/home/itssahil/PROJECTS/Mol_Feturizer/New_Systems/rnas/4Y1I

>  <Rbt.Executable>
rbdock ($Id: //depot/dev/client3/rdock/2013.1/src/exe/rbdock.cxx#4 $)

>  <Rbt.Library>
libRbt.so (2013.1, Build901 2013/11/27)

>  <Rbt.Parameter_File>
/export/apps/rDock/src/rDock_2013.1_src/data/scripts/dock_solv.prm

>  <Rbt.Receptor>
prm/pocket_docking_8.prm

>  <SCORE>
-6.17363

>  <SCORE.INTER>
-0.301056

>  <SCORE.INTER.CONST>
1

>  <SCORE.INTER.POLAR>
0

>  <SCORE.INTER.ROT>
8

>  <SCORE.INTER.SOLV>
13.9881

>  <SCORE.INTER.VDW>
-13.7967

>  <SCORE.INTER.norm>
-0.00940801

>  <SCORE.INTRA>
-5.89136

>  <SCORE.INTRA.DIHEDRAL>
-8.77903

>  <SCORE.INTRA.DIHEDRAL.0>
10.9594

>  <SCORE.INTRA.POLAR>
0

>  <SCORE.INTRA.POLAR.0>
0

>  <SCORE.INTRA.REPUL>
0

>  <SCORE.INTRA.REPUL.0>
0

>  <SCORE.INTRA.SOLV>
-3.92907

>  <SCORE.INTRA.SOLV.lig_0>
-124.914

>  <SCORE.INTRA.VDW>
0.462686

>  <SCORE.INTRA.VDW.0>
-4.69801

>  <SCORE.INTRA.norm>
-0.184105

>  <SCORE.RESTR>
0.0187921

>  <SCORE.RESTR.CAVITY>
0.0187921

>  <SCORE.RESTR.norm>
0.000587253

>  <SCORE.SYSTEM>
0

>  <SCORE.SYSTEM.CONST>
0

>  <SCORE.SYSTEM.DIHEDRAL>
0

>  <SCORE.SYSTEM.SOLV>
0

>  <SCORE.SYSTEM.norm>
0

>  <SCORE.heavy>
32

>  <SCORE.norm>
-0.192926

>  <RMSD>
6.738

$$$$
ligand
 OpenBabel11021811513D
libRbt.so/2013.1/901 2013/11/27
 32 34  0  0  0  0  0  0  0  0999 V2000
   19.3470  -23.2837  -19.2033 P   0  0  1  0  0  0  0  0  0  0  0  0
   20.3339  -25.8423  -18.3604 P   0  0  2  0  0  0  0  0  0  0  0  0
   22.0976  -28.0686  -17.6201 P   0  0  1  0  0  0  0  0  0  0  0  0
   21.1663  -21.7219  -20.2244 C   0  0  0  0  0  0  0  0  0  0  0  0
   19.9942  -21.7924  -19.4634 O   0  0  0  0  0  0  0  0  0  0  0  0
   21.4932  -20.3897  -20.4517 C   0  0  1  0  0  0  0  0  0  0  0  0
   20.3721  -19.7049  -21.2094 O   0  0  0  0  0  0  0  0  0  0  0  0
   21.6479  -19.5862  -19.0796 C   0  0  1  0  0  0  0  0  0  0  0  0
   23.0815  -19.1323  -18.9217 O   0  0  0  0  0  0  0  0  0  0  0  0
   20.9538  -18.5735  -19.1973 C   0  0  1  0  0  0  0  0  0  0  0  0
   21.8087  -17.4379  -19.6187 O   0  0  0  0  0  0  0  0  0  0  0  0
   19.8278  -18.9080  -20.3780 C   0  0  2  0  0  0  0  0  0  0  0  0
   15.1144  -20.7369  -21.2860 N   0  0  0  0  0  0  0  0  0  0  0  0
   18.1179  -23.1638  -18.3367 O   0  5  0  0  0  0  0  0  0  0  0  0
   20.1393  -26.4043  -19.7463 O   0  5  0  0  0  0  0  0  0  0  0  0
   21.0253  -28.7802  -16.8288 O   0  0  0  0  0  0  0  0  0  0  0  0
   15.9696  -20.2141  -22.1509 C   0  0  0  0  0  0  0  0  0  0  0  0
   15.5967  -20.1134  -23.5475 N   0  0  0  0  0  0  0  0  0  0  0  0
   19.0085  -23.9058  -20.5392 O   0  0  0  0  0  0  0  0  0  0  0  0
   19.1485  -26.1967  -17.5013 O   0  0  0  0  0  0  0  0  0  0  0  0
   22.1467  -28.6454  -19.0182 O   0  5  0  0  0  0  0  0  0  0  0  0
   17.1575  -19.7789  -21.7833 N   0  0  0  0  0  0  0  0  0  0  0  0
   20.4589  -24.2067  -18.4220 O   0  0  0  0  0  0  0  0  0  0  0  0
   21.7013  -26.4664  -17.6921 O   0  0  0  0  0  0  0  0  0  0  0  0
   23.4291  -28.2569  -16.9264 O   0  0  0  0  0  0  0  0  0  0  0  0
   17.5408  -19.8535  -20.5030 C   0  0  0  0  0  0  0  0  0  0  0  0
   16.6678  -20.3939  -19.5805 C   0  0  0  0  0  0  0  0  0  0  0  0
   15.4034  -20.8535  -19.9965 C   0  0  0  0  0  0  0  0  0  0  0  0
   14.4931  -21.4092  -19.0803 O   0  0  0  0  0  0  0  0  0  0  0  0
   17.2732  -20.3596  -18.3811 N   0  0  0  0  0  0  0  0  0  0  0  0
   18.4678  -19.8212  -18.5539 C   0  0  0  0  0  0  0  0  0  0  0  0
   18.6457  -19.5078  -19.8237 N   0  0  0  0  0  0  0  0  0  0  0  0
  1  5  1  6  0  0  0
  1 14  1  0  0  0  0
  1 19  2  0  0  0  0
  1 23  1  0  0  0  0
  2 15  1  6  0  0  0
  2 20  2  0  0  0  0
  2 23  1  0  0  0  0
  2 24  1  0  0  0  0
  3 16  1  1  0  0  0
  3 21  1  0  0  0  0
  3 24  1  0  0  0  0
  3 25  2  0  0  0  0
  4  5  1  0  0  0  0
  6  4  1  1  0  0  0
  6  7  1  0  0  0  0
  6  8  1  0  0  0  0
  7 12  1  0  0  0  0
  8  9  1  6  0  0  0
  8 10  1  0  0  0  0
 10 11  1  6  0  0  0
 10 12  1  0  0  0  0
 12 32  1  1  0  0  0
 13 17  2  0  0  0  0
 13 28  1  0  0  0  0
 17 18  1  0  0  0  0
 17 22  1  0  0  0  0
 22 26  2  0  0  0  0
 26 27  1  0  0  0  0
 26 32  1  0  0  0  0
 27 28  2  0  0  0  0
 27 30  1  0  0  0  0
 28 29  1  0  0  0  0
 30 31  2  0  0  0  0
 31 32  1  0  0  0  0
M  CHG  3  14  -1  15  -1  21  -1
M  END
>  <CHROM.1>
178.41422756,51.41787263,-60.51970040,-60.33925510,174.17620139,-63.27402635
-163.01459346,-50.14651948,19.57640224,-22.79135458,-19.32213005,1.15634907
0.23347888,2.91619717

>  <Name>
ligand

>  <RI>
0

>  <Rbt.Current_Directory>
/home/itssahil/PROJECTS/Mol_Feturizer/New_Systems/rnas/4Y1I

>  <Rbt.Executable>
rbdock ($Id: //depot/dev/client3/rdock/2013.1/src/exe/rbdock.cxx#4 $)

>  <Rbt.Library>
libRbt.so (2013.1, Build901 2013/11/27)

>  <Rbt.Parameter_File>
/export/apps/rDock/src/rDock_2013.1_src/data/scripts/dock_solv.prm

>  <Rbt.Receptor>
prm/pocket_docking_6.prm

>  <SCORE>
-10.512

>  <SCORE.INTER>
-4.78167

>  <SCORE.INTER.CONST>
1

>  <SCORE.INTER.POLAR>
0

>  <SCORE.INTER.ROT>
8

>  <SCORE.INTER.SOLV>
14.7462

>  <SCORE.INTER.VDW>
-17.0365

>  <SCORE.INTER.norm>
-0.149427

>  <SCORE.INTRA>
-5.73033

>  <SCORE.INTRA.DIHEDRAL>
-8.87663

>  <SCORE.INTRA.DIHEDRAL.0>
10.9594

>  <SCORE.INTRA.POLAR>
0

>  <SCORE.INTRA.POLAR.0>
0

>  <SCORE.INTRA.REPUL>
0

>  <SCORE.INTRA.REPUL.0>
0

>  <SCORE.INTRA.SOLV>
-1.33485

>  <SCORE.INTRA.SOLV.lig_0>
-124.914

>  <SCORE.INTRA.VDW>
-0.624594

>  <SCORE.INTRA.VDW.0>
-4.69801

>  <SCORE.INTRA.norm>
-0.179073

>  <SCORE.RESTR>
0

>  <SCORE.RESTR.CAVITY>
0

>  <SCORE.RESTR.norm>
0

>  <SCORE.SYSTEM>
0

>  <SCORE.SYSTEM.CONST>
0

>  <SCORE.SYSTEM.DIHEDRAL>
0

>  <SCORE.SYSTEM.SOLV>
0

>  <SCORE.SYSTEM.norm>
0

>  <SCORE.heavy>
32

>  <SCORE.norm>
-0.3285

>  <RMSD>
6.740

$$$$
ligand
 OpenBabel11021811513D
libRbt.so/2013.1/901 2013/11/27
 32 34  0  0  0  0  0  0  0  0999 V2000
   18.1617  -24.8629  -21.6722 P   0  0  1  0  0  0  0  0  0  0  0  0
   20.7759  -25.9880  -21.3096 P   0  0  2  0  0  0  0  0  0  0  0  0
   21.9119  -24.7295  -18.9136 P   0  0  1  0  0  0  0  0  0  0  0  0
   19.2290  -22.7597  -20.5636 C   0  0  0  0  0  0  0  0  0  0  0  0
   18.8185  -23.3559  -21.7611 O   0  0  0  0  0  0  0  0  0  0  0  0
   19.5322  -21.4219  -20.7907 C   0  0  1  0  0  0  0  0  0  0  0  0
   18.2724  -20.6622  -21.1589 O   0  0  0  0  0  0  0  0  0  0  0  0
   20.0953  -20.7207  -19.4704 C   0  0  1  0  0  0  0  0  0  0  0  0
   21.5329  -20.3089  -19.6939 O   0  0  0  0  0  0  0  0  0  0  0  0
   19.4368  -19.6879  -19.3254 C   0  0  1  0  0  0  0  0  0  0  0  0
   20.1846  -18.5435  -19.8988 O   0  0  0  0  0  0  0  0  0  0  0  0
   18.0137  -19.9148  -20.1604 C   0  0  2  0  0  0  0  0  0  0  0  0
   12.9983  -20.4639  -19.1962 N   0  0  0  0  0  0  0  0  0  0  0  0
   16.8568  -24.8085  -20.9169 O   0  5  0  0  0  0  0  0  0  0  0  0
   20.9104  -25.8300  -22.8033 O   0  5  0  0  0  0  0  0  0  0  0  0
   22.4939  -26.0405  -18.4393 O   0  0  0  0  0  0  0  0  0  0  0  0
   13.5751  -19.7343  -20.1384 C   0  0  0  0  0  0  0  0  0  0  0  0
   12.7494  -18.9675  -21.0493 N   0  0  0  0  0  0  0  0  0  0  0  0
   17.9529  -25.3852  -23.0757 O   0  0  0  0  0  0  0  0  0  0  0  0
   21.2603  -27.3544  -20.9011 O   0  0  0  0  0  0  0  0  0  0  0  0
   22.8925  -23.6159  -18.6169 O   0  5  0  0  0  0  0  0  0  0  0  0
   14.8840  -19.6808  -20.2780 N   0  0  0  0  0  0  0  0  0  0  0  0
   19.2038  -25.8400  -20.8609 O   0  0  0  0  0  0  0  0  0  0  0  0
   21.6693  -24.8383  -20.5441 O   0  0  0  0  0  0  0  0  0  0  0  0
   20.6029  -24.4828  -18.1959 O   0  0  0  0  0  0  0  0  0  0  0  0
   15.6825  -20.3739  -19.4572 C   0  0  0  0  0  0  0  0  0  0  0  0
   15.1068  -21.1424  -18.4657 C   0  0  0  0  0  0  0  0  0  0  0  0
   13.7052  -21.1850  -18.3358 C   0  0  0  0  0  0  0  0  0  0  0  0
   13.0899  -21.9590  -17.3362 O   0  0  0  0  0  0  0  0  0  0  0  0
   16.1015  -21.7341  -17.7826 N   0  0  0  0  0  0  0  0  0  0  0  0
   17.2423  -21.3483  -18.3272 C   0  0  0  0  0  0  0  0  0  0  0  0
   17.0103  -20.5276  -19.3346 N   0  0  0  0  0  0  0  0  0  0  0  0
  1  5  1  6  0  0  0
  1 14  1  0  0  0  0
  1 19  2  0  0  0  0
  1 23  1  0  0  0  0
  2 15  1  6  0  0  0
  2 20  2  0  0  0  0
  2 23  1  0  0  0  0
  2 24  1  0  0  0  0
  3 16  1  1  0  0  0
  3 21  1  0  0  0  0
  3 24  1  0  0  0  0
  3 25  2  0  0  0  0
  4  5  1  0  0  0  0
  6  4  1  1  0  0  0
  6  7  1  0  0  0  0
  6  8  1  0  0  0  0
  7 12  1  0  0  0  0
  8  9  1  6  0  0  0
  8 10  1  0  0  0  0
 10 11  1  6  0  0  0
 10 12  1  0  0  0  0
 12 32  1  1  0  0  0
 13 17  2  0  0  0  0
 13 28  1  0  0  0  0
 17 18  1  0  0  0  0
 17 22  1  0  0  0  0
 22 26  2  0  0  0  0
 26 27  1  0  0  0  0
 26 32  1  0  0  0  0
 27 28  2  0  0  0  0
 27 30  1  0  0  0  0
 28 29  1  0  0  0  0
 30 31  2  0  0  0  0
 31 32  1  0  0  0  0
M  CHG  3  14  -1  15  -1  21  -1
M  END
>  <CHROM.1>
65.49468632,-31.88822495,55.91773088,66.60654431,-169.54519361,-89.60260065
-53.31828143,-174.27518507,18.52861353,-22.83973898,-20.06656257,0.66259924
0.12300168,-2.78905216

>  <Name>
ligand

>  <RI>
0

>  <Rbt.Current_Directory>
/home/itssahil/PROJECTS/Mol_Feturizer/New_Systems/rnas/4Y1I

>  <Rbt.Executable>
rbdock ($Id: //depot/dev/client3/rdock/2013.1/src/exe/rbdock.cxx#4 $)

>  <Rbt.Library>
libRbt.so (2013.1, Build901 2013/11/27)

>  <Rbt.Parameter_File>
/export/apps/rDock/src/rDock_2013.1_src/data/scripts/dock_solv.prm

>  <Rbt.Receptor>
prm/pocket_docking_5.prm

>  <SCORE>
-7.58364

>  <SCORE.INTER>
-1.17649

>  <SCORE.INTER.CONST>
1

>  <SCORE.INTER.POLAR>
0

>  <SCORE.INTER.ROT>
8

>  <SCORE.INTER.SOLV>
10.4543

>  <SCORE.INTER.VDW>
-13.2024

>  <SCORE.INTER.norm>
-0.0367654

>  <SCORE.INTRA>
-6.40715

>  <SCORE.INTRA.DIHEDRAL>
-7.74969

>  <SCORE.INTRA.DIHEDRAL.0>
10.9594

>  <SCORE.INTRA.POLAR>
0

>  <SCORE.INTRA.POLAR.0>
0

>  <SCORE.INTRA.REPUL>
0

>  <SCORE.INTRA.REPUL.0>
0

>  <SCORE.INTRA.SOLV>
-2.3718

>  <SCORE.INTRA.SOLV.lig_0>
-124.914

>  <SCORE.INTRA.VDW>
-1.3464

>  <SCORE.INTRA.VDW.0>
-4.69801

>  <SCORE.INTRA.norm>
-0.200223

>  <SCORE.RESTR>
0

>  <SCORE.RESTR.CAVITY>
0

>  <SCORE.RESTR.norm>
0

>  <SCORE.SYSTEM>
0

>  <SCORE.SYSTEM.CONST>
0

>  <SCORE.SYSTEM.DIHEDRAL>
0

>  <SCORE.SYSTEM.SOLV>
0

>  <SCORE.SYSTEM.norm>
0

>  <SCORE.heavy>
32

>  <SCORE.norm>
-0.236989

>  <RMSD>
6.755

$$$$
ligand
 OpenBabel11021811513D
libRbt.so/2013.1/901 2013/11/27
 32 34  0  0  0  0  0  0  0  0999 V2000
   18.6197  -20.0021  -19.4653 P   0  0  1  0  0  0  0  0  0  0  0  0
   16.1703  -21.2812  -18.6937 P   0  0  2  0  0  0  0  0  0  0  0  0
   15.5573  -23.9107  -19.8450 P   0  0  1  0  0  0  0  0  0  0  0  0
   19.7531  -22.3247  -19.1296 C   0  0  0  0  0  0  0  0  0  0  0  0
   19.3259  -21.3669  -20.0560 O   0  0  0  0  0  0  0  0  0  0  0  0
   20.5440  -23.2713  -19.7713 C   0  0  1  0  0  0  0  0  0  0  0  0
   21.0173  -24.3107  -18.7734 O   0  0  0  0  0  0  0  0  0  0  0  0
   19.7125  -24.0722  -20.8755 C   0  0  1  0  0  0  0  0  0  0  0  0
   20.2750  -23.7694  -22.2459 O   0  0  0  0  0  0  0  0  0  0  0  0
   19.9141  -25.2685  -20.6529 C   0  0  1  0  0  0  0  0  0  0  0  0
   20.9986  -25.7571  -21.5377 O   0  0  0  0  0  0  0  0  0  0  0  0
   20.3851  -25.3790  -19.0593 C   0  0  2  0  0  0  0  0  0  0  0  0
   17.3009  -28.6371  -16.5579 N   0  0  0  0  0  0  0  0  0  0  0  0
   19.6655  -19.1181  -18.8320 O   0  5  0  0  0  0  0  0  0  0  0  0
   15.3484  -20.5293  -19.7102 O   0  5  0  0  0  0  0  0  0  0  0  0
   14.7246  -23.3076  -20.9520 O   0  0  0  0  0  0  0  0  0  0  0  0
   18.3291  -28.9225  -17.3415 C   0  0  0  0  0  0  0  0  0  0  0  0
   18.6879  -30.3080  -17.5677 N   0  0  0  0  0  0  0  0  0  0  0  0
   17.9215  -19.2867  -20.5997 O   0  0  0  0  0  0  0  0  0  0  0  0
   15.3651  -21.4717  -17.4351 O   0  0  0  0  0  0  0  0  0  0  0  0
   16.3421  -25.0809  -20.3966 O   0  5  0  0  0  0  0  0  0  0  0  0
   19.0432  -27.9832  -17.9275 N   0  0  0  0  0  0  0  0  0  0  0  0
   17.5256  -20.4343  -18.3186 O   0  0  0  0  0  0  0  0  0  0  0  0
   16.5981  -22.7500  -19.2983 O   0  0  0  0  0  0  0  0  0  0  0  0
   14.6402  -24.3699  -18.7326 O   0  0  0  0  0  0  0  0  0  0  0  0
   18.7449  -26.6912  -17.7449 C   0  0  0  0  0  0  0  0  0  0  0  0
   17.6772  -26.3662  -16.9328 C   0  0  0  0  0  0  0  0  0  0  0  0
   16.9285  -27.3870  -16.3161 C   0  0  0  0  0  0  0  0  0  0  0  0
   15.8361  -27.0870  -15.4833 O   0  0  0  0  0  0  0  0  0  0  0  0
   17.5806  -25.0259  -16.9075 N   0  0  0  0  0  0  0  0  0  0  0  0
   18.5456  -24.5431  -17.6707 C   0  0  0  0  0  0  0  0  0  0  0  0
   19.2549  -25.5302  -18.1852 N   0  0  0  0  0  0  0  0  0  0  0  0
  1  5  1  6  0  0  0
  1 14  1  0  0  0  0
  1 19  2  0  0  0  0
  1 23  1  0  0  0  0
  2 15  1  6  0  0  0
  2 20  2  0  0  0  0
  2 23  1  0  0  0  0
  2 24  1  0  0  0  0
  3 16  1  6  0  0  0
  3 21  1  0  0  0  0
  3 24  1  0  0  0  0
  3 25  2  0  0  0  0
  4  5  1  0  0  0  0
  6  4  1  1  0  0  0
  6  7  1  0  0  0  0
  6  8  1  0  0  0  0
  7 12  1  0  0  0  0
  8  9  1  6  0  0  0
  8 10  1  0  0  0  0
 10 11  1  6  0  0  0
 10 12  1  0  0  0  0
 12 32  1  1  0  0  0
 13 17  2  0  0  0  0
 13 28  1  0  0  0  0
 17 18  1  0  0  0  0
 17 22  1  0  0  0  0
 22 26  2  0  0  0  0
 26 27  1  0  0  0  0
 26 32  1  0  0  0  0
 27 28  2  0  0  0  0
 27 30  1  0  0  0  0
 28 29  1  0  0  0  0
 30 31  2  0  0  0  0
 31 32  1  0  0  0  0
M  CHG  3  14  -1  15  -1  21  -1
M  END
>  <CHROM.1>
72.95595532,-58.13988288,57.76024615,179.74549150,-168.60197254,-147.28510519
-66.38919089,-57.07644039,17.90069154,-23.85543451,-18.94847665,-1.64109147
-0.37742295,2.83826524

>  <Name>
ligand

>  <RI>
0

>  <Rbt.Current_Directory>
/home/itssahil/PROJECTS/Mol_Feturizer/New_Systems/rnas/4Y1I

>  <Rbt.Executable>
rbdock ($Id: //depot/dev/client3/rdock/2013.1/src/exe/rbdock.cxx#4 $)

>  <Rbt.Library>
libRbt.so (2013.1, Build901 2013/11/27)

>  <Rbt.Parameter_File>
/export/apps/rDock/src/rDock_2013.1_src/data/scripts/dock_solv.prm

>  <Rbt.Receptor>
prm/pocket_docking_5.prm

>  <SCORE>
-10.4811

>  <SCORE.INTER>
-2.88309

>  <SCORE.INTER.CONST>
1

>  <SCORE.INTER.POLAR>
0

>  <SCORE.INTER.ROT>
8

>  <SCORE.INTER.SOLV>
17.1299

>  <SCORE.INTER.VDW>
-16.5654

>  <SCORE.INTER.norm>
-0.0900965

>  <SCORE.INTRA>
-7.59804

>  <SCORE.INTRA.DIHEDRAL>
-8.69455

>  <SCORE.INTRA.DIHEDRAL.0>
10.9594

>  <SCORE.INTRA.POLAR>
0

>  <SCORE.INTRA.POLAR.0>
0

>  <SCORE.INTRA.REPUL>
0

>  <SCORE.INTRA.REPUL.0>
0

>  <SCORE.INTRA.SOLV>
-2.55366

>  <SCORE.INTRA.SOLV.lig_0>
-124.914

>  <SCORE.INTRA.VDW>
-1.97393

>  <SCORE.INTRA.VDW.0>
-4.69801

>  <SCORE.INTRA.norm>
-0.237439

>  <SCORE.RESTR>
0

>  <SCORE.RESTR.CAVITY>
0

>  <SCORE.RESTR.norm>
0

>  <SCORE.SYSTEM>
0

>  <SCORE.SYSTEM.CONST>
0

>  <SCORE.SYSTEM.DIHEDRAL>
0

>  <SCORE.SYSTEM.SOLV>
0

>  <SCORE.SYSTEM.norm>
0

>  <SCORE.heavy>
32

>  <SCORE.norm>
-0.327535

>  <RMSD>
6.820

$$$$
ligand
 OpenBabel11021811513D
libRbt.so/2013.1/901 2013/11/27
 32 34  0  0  0  0  0  0  0  0999 V2000
   21.4952  -24.0225  -20.3366 P   0  0  1  0  0  0  0  0  0  0  0  0
   21.5737  -26.5331  -21.7229 P   0  0  2  0  0  0  0  0  0  0  0  0
   19.7817  -28.6109  -20.6805 P   0  0  1  0  0  0  0  0  0  0  0  0
   21.6410  -21.5154  -19.6403 C   0  0  0  0  0  0  0  0  0  0  0  0
   21.6586  -22.4258  -20.7028 O   0  0  0  0  0  0  0  0  0  0  0  0
   21.7605  -20.2215  -20.1351 C   0  0  1  0  0  0  0  0  0  0  0  0
   20.5953  -19.9105  -21.0545 O   0  0  0  0  0  0  0  0  0  0  0  0
   21.6911  -19.1408  -18.9606 C   0  0  1  0  0  0  0  0  0  0  0  0
   23.0179  -18.4227  -18.8591 O   0  0  0  0  0  0  0  0  0  0  0  0
   20.8505  -18.3093  -19.3116 C   0  0  1  0  0  0  0  0  0  0  0  0
   21.5347  -17.1529  -19.9381 O   0  0  0  0  0  0  0  0  0  0  0  0
   19.8746  -19.0675  -20.4281 C   0  0  2  0  0  0  0  0  0  0  0  0
   14.8048  -19.8928  -20.3909 N   0  0  0  0  0  0  0  0  0  0  0  0
   22.5971  -24.4473  -19.3978 O   0  5  0  0  0  0  0  0  0  0  0  0
   22.7864  -27.0870  -21.0179 O   0  5  0  0  0  0  0  0  0  0  0  0
   19.8100  -29.3459  -22.0000 O   0  0  0  0  0  0  0  0  0  0  0  0
   15.5032  -19.1291  -21.2166 C   0  0  0  0  0  0  0  0  0  0  0  0
   14.8170  -18.4047  -22.2673 N   0  0  0  0  0  0  0  0  0  0  0  0
   20.1366  -24.2403  -19.7098 O   0  0  0  0  0  0  0  0  0  0  0  0
   21.5590  -27.0102  -23.1515 O   0  0  0  0  0  0  0  0  0  0  0  0
   20.7790  -29.2475  -19.7372 O   0  5  0  0  0  0  0  0  0  0  0  0
   16.8107  -19.0038  -21.1155 N   0  0  0  0  0  0  0  0  0  0  0  0
   21.6167  -24.8921  -21.7251 O   0  0  0  0  0  0  0  0  0  0  0  0
   20.2061  -27.0392  -20.9618 O   0  0  0  0  0  0  0  0  0  0  0  0
   18.3859  -28.6898  -20.1019 O   0  0  0  0  0  0  0  0  0  0  0  0
   17.4826  -19.6557  -20.1589 C   0  0  0  0  0  0  0  0  0  0  0  0
   16.7783  -20.4584  -19.2843 C   0  0  0  0  0  0  0  0  0  0  0  0
   15.3810  -20.5778  -19.4118 C   0  0  0  0  0  0  0  0  0  0  0  0
   14.6367  -21.3882  -18.5365 O   0  0  0  0  0  0  0  0  0  0  0  0
   17.6624  -20.9979  -18.4279 N   0  0  0  0  0  0  0  0  0  0  0  0
   18.8608  -20.5483  -18.7576 C   0  0  0  0  0  0  0  0  0  0  0  0
   18.7722  -19.7374  -19.7953 N   0  0  0  0  0  0  0  0  0  0  0  0
  1  5  1  6  0  0  0
  1 14  1  0  0  0  0
  1 19  2  0  0  0  0
  1 23  1  0  0  0  0
  2 15  1  1  0  0  0
  2 20  2  0  0  0  0
  2 23  1  0  0  0  0
  2 24  1  0  0  0  0
  3 16  1  6  0  0  0
  3 21  1  0  0  0  0
  3 24  1  0  0  0  0
  3 25  2  0  0  0  0
  4  5  1  0  0  0  0
  6  4  1  1  0  0  0
  6  7  1  0  0  0  0
  6  8  1  0  0  0  0
  7 12  1  0  0  0  0
  8  9  1  6  0  0  0
  8 10  1  0  0  0  0
 10 11  1  6  0  0  0
 10 12  1  0  0  0  0
 12 32  1  1  0  0  0
 13 17  2  0  0  0  0
 13 28  1  0  0  0  0
 17 18  1  0  0  0  0
 17 22  1  0  0  0  0
 22 26  2  0  0  0  0
 26 27  1  0  0  0  0
 26 32  1  0  0  0  0
 27 28  2  0  0  0  0
 27 30  1  0  0  0  0
 28 29  1  0  0  0  0
 30 31  2  0  0  0  0
 31 32  1  0  0  0  0
M  CHG  3  14  -1  15  -1  21  -1
M  END
>  <CHROM.1>
-58.48739519,-66.06585827,-54.21951442,60.89485578,-178.69340916,-109.14409234
176.94194498,-56.50869651,19.77143377,-22.98215357,-20.36809267,-1.28369887
-0.01205664,0.12663844

>  <Name>
ligand

>  <RI>
0

>  <Rbt.Current_Directory>
/home/itssahil/PROJECTS/Mol_Feturizer/New_Systems/rnas/4Y1I

>  <Rbt.Executable>
rbdock ($Id: //depot/dev/client3/rdock/2013.1/src/exe/rbdock.cxx#4 $)

>  <Rbt.Library>
libRbt.so (2013.1, Build901 2013/11/27)

>  <Rbt.Parameter_File>
/export/apps/rDock/src/rDock_2013.1_src/data/scripts/dock_solv.prm

>  <Rbt.Receptor>
prm/pocket_docking_7.prm

>  <SCORE>
-8.73223

>  <SCORE.INTER>
-2.08313

>  <SCORE.INTER.CONST>
1

>  <SCORE.INTER.POLAR>
0

>  <SCORE.INTER.ROT>
8

>  <SCORE.INTER.SOLV>
4.89491

>  <SCORE.INTER.VDW>
-11.9537

>  <SCORE.INTER.norm>
-0.0650977

>  <SCORE.INTRA>
-6.64911

>  <SCORE.INTRA.DIHEDRAL>
-9.5786

>  <SCORE.INTRA.DIHEDRAL.0>
10.9594

>  <SCORE.INTRA.POLAR>
0

>  <SCORE.INTRA.POLAR.0>
0

>  <SCORE.INTRA.REPUL>
0

>  <SCORE.INTRA.REPUL.0>
0

>  <SCORE.INTRA.SOLV>
-4.19885

>  <SCORE.INTRA.SOLV.lig_0>
-124.914

>  <SCORE.INTRA.VDW>
0.23962

>  <SCORE.INTRA.VDW.0>
-4.69801

>  <SCORE.INTRA.norm>
-0.207785

>  <SCORE.RESTR>
0

>  <SCORE.RESTR.CAVITY>
0

>  <SCORE.RESTR.norm>
0

>  <SCORE.SYSTEM>
0

>  <SCORE.SYSTEM.CONST>
0

>  <SCORE.SYSTEM.DIHEDRAL>
0

>  <SCORE.SYSTEM.SOLV>
0

>  <SCORE.SYSTEM.norm>
0

>  <SCORE.heavy>
32

>  <SCORE.norm>
-0.272882

>  <RMSD>
6.825

$$$$
ligand
 OpenBabel11021811513D
libRbt.so/2013.1/901 2013/11/27
 32 34  0  0  0  0  0  0  0  0999 V2000
   20.7964  -24.6513  -19.0497 P   0  0  1  0  0  0  0  0  0  0  0  0
   19.6528  -26.9583  -17.7844 P   0  0  2  0  0  0  0  0  0  0  0  0
   21.3380  -29.2066  -16.9356 P   0  0  1  0  0  0  0  0  0  0  0  0
   19.1412  -22.8039  -19.8488 C   0  0  0  0  0  0  0  0  0  0  0  0
   19.4282  -23.7549  -18.8634 O   0  0  0  0  0  0  0  0  0  0  0  0
   17.9398  -22.1716  -19.5485 C   0  0  1  0  0  0  0  0  0  0  0  0
   18.1353  -21.2164  -18.3869 O   0  0  0  0  0  0  0  0  0  0  0  0
   17.4322  -21.2761  -20.7702 C   0  0  1  0  0  0  0  0  0  0  0  0
   16.1365  -21.8430  -21.3048 O   0  0  0  0  0  0  0  0  0  0  0  0
   17.1785  -20.1658  -20.2968 C   0  0  1  0  0  0  0  0  0  0  0  0
   15.7272  -20.0743  -20.0086 O   0  0  0  0  0  0  0  0  0  0  0  0
   18.0493  -20.0460  -18.8821 C   0  0  2  0  0  0  0  0  0  0  0  0
   22.0579  -19.7616  -22.0813 N   0  0  0  0  0  0  0  0  0  0  0  0
   20.7910  -25.3177  -20.4032 O   0  5  0  0  0  0  0  0  0  0  0  0
   19.4118  -27.5821  -19.1361 O   0  5  0  0  0  0  0  0  0  0  0  0
   21.4868  -30.0087  -15.6640 O   0  0  0  0  0  0  0  0  0  0  0  0
   20.9244  -20.4252  -22.2472 C   0  0  0  0  0  0  0  0  0  0  0  0
   20.7191  -21.1900  -23.4607 N   0  0  0  0  0  0  0  0  0  0  0  0
   21.9961  -23.7434  -18.8987 O   0  0  0  0  0  0  0  0  0  0  0  0
   18.3867  -26.3031  -17.2981 O   0  0  0  0  0  0  0  0  0  0  0  0
   20.9836  -30.1407  -18.0720 O   0  5  0  0  0  0  0  0  0  0  0  0
   19.9689  -20.4145  -21.3403 N   0  0  0  0  0  0  0  0  0  0  0  0
   20.8231  -25.8118  -17.8873 O   0  0  0  0  0  0  0  0  0  0  0  0
   20.1187  -28.1147  -16.7112 O   0  0  0  0  0  0  0  0  0  0  0  0
   22.6420  -28.4962  -17.2258 O   0  0  0  0  0  0  0  0  0  0  0  0
   20.1188  -19.7208  -20.2054 C   0  0  0  0  0  0  0  0  0  0  0  0
   21.2914  -19.0203  -20.0071 C   0  0  0  0  0  0  0  0  0  0  0  0
   22.2988  -19.0457  -20.9908 C   0  0  0  0  0  0  0  0  0  0  0  0
   23.5035  -18.3418  -20.8174 O   0  0  0  0  0  0  0  0  0  0  0  0
   21.2036  -18.4133  -18.8112 N   0  0  0  0  0  0  0  0  0  0  0  0
   20.0287  -18.7250  -18.2924 C   0  0  0  0  0  0  0  0  0  0  0  0
   19.3630  -19.5131  -19.1157 N   0  0  0  0  0  0  0  0  0  0  0  0
  1  5  1  1  0  0  0
  1 14  1  0  0  0  0
  1 19  2  0  0  0  0
  1 23  1  0  0  0  0
  2 15  1  6  0  0  0
  2 20  2  0  0  0  0
  2 23  1  0  0  0  0
  2 24  1  0  0  0  0
  3 16  1  1  0  0  0
  3 21  1  0  0  0  0
  3 24  1  0  0  0  0
  3 25  2  0  0  0  0
  4  5  1  0  0  0  0
  6  4  1  6  0  0  0
  6  7  1  0  0  0  0
  6  8  1  0  0  0  0
  7 12  1  0  0  0  0
  8  9  1  1  0  0  0
  8 10  1  0  0  0  0
 10 11  1  1  0  0  0
 10 12  1  0  0  0  0
 12 32  1  6  0  0  0
 13 17  2  0  0  0  0
 13 28  1  0  0  0  0
 17 18  1  0  0  0  0
 17 22  1  0  0  0  0
 22 26  2  0  0  0  0
 26 27  1  0  0  0  0
 26 32  1  0  0  0  0
 27 28  2  0  0  0  0
 27 30  1  0  0  0  0
 28 29  1  0  0  0  0
 30 31  2  0  0  0  0
 31 32  1  0  0  0  0
M  CHG  3  14  -1  15  -1  21  -1
M  END
>  <CHROM.1>
-54.18299566,48.64261241,175.91698669,73.51106293,178.41250967,84.98945861
61.34355716,51.43183321,20.03207801,-23.54114956,-19.17660308,-1.46250853
0.06165921,-0.35321564

>  <Name>
ligand

>  <RI>
0

>  <Rbt.Current_Directory>
/home/itssahil/PROJECTS/Mol_Feturizer/New_Systems/rnas/4Y1I

>  <Rbt.Executable>
rbdock ($Id: //depot/dev/client3/rdock/2013.1/src/exe/rbdock.cxx#4 $)

>  <Rbt.Library>
libRbt.so (2013.1, Build901 2013/11/27)

>  <Rbt.Parameter_File>
/export/apps/rDock/src/rDock_2013.1_src/data/scripts/dock_solv.prm

>  <Rbt.Receptor>
prm/pocket_docking_6.prm

>  <SCORE>
-8.05784

>  <SCORE.INTER>
-2.38417

>  <SCORE.INTER.CONST>
1

>  <SCORE.INTER.POLAR>
0

>  <SCORE.INTER.ROT>
8

>  <SCORE.INTER.SOLV>
14.6342

>  <SCORE.INTER.VDW>
-15.4009

>  <SCORE.INTER.norm>
-0.0745054

>  <SCORE.INTRA>
-5.67367

>  <SCORE.INTRA.DIHEDRAL>
-8.6402

>  <SCORE.INTRA.DIHEDRAL.0>
10.9594

>  <SCORE.INTRA.POLAR>
0

>  <SCORE.INTRA.POLAR.0>
0

>  <SCORE.INTRA.REPUL>
0

>  <SCORE.INTRA.REPUL.0>
0

>  <SCORE.INTRA.SOLV>
-2.68737

>  <SCORE.INTRA.SOLV.lig_0>
-124.914

>  <SCORE.INTRA.VDW>
-0.0098812

>  <SCORE.INTRA.VDW.0>
-4.69801

>  <SCORE.INTRA.norm>
-0.177302

>  <SCORE.RESTR>
0

>  <SCORE.RESTR.CAVITY>
0

>  <SCORE.RESTR.norm>
0

>  <SCORE.SYSTEM>
0

>  <SCORE.SYSTEM.CONST>
0

>  <SCORE.SYSTEM.DIHEDRAL>
0

>  <SCORE.SYSTEM.SOLV>
0

>  <SCORE.SYSTEM.norm>
0

>  <SCORE.heavy>
32

>  <SCORE.norm>
-0.251807

>  <RMSD>
6.838

$$$$
ligand
 OpenBabel11021811513D
libRbt.so/2013.1/901 2013/11/27
 32 34  0  0  0  0  0  0  0  0999 V2000
   22.2009  -24.1369  -19.0601 P   0  0  1  0  0  0  0  0  0  0  0  0
   22.1619  -26.6064  -20.5200 P   0  0  2  0  0  0  0  0  0  0  0  0
   19.4658  -26.5625  -21.6795 P   0  0  1  0  0  0  0  0  0  0  0  0
   21.2098  -21.9857  -20.1470 C   0  0  0  0  0  0  0  0  0  0  0  0
   22.2634  -22.5279  -19.4028 O   0  0  0  0  0  0  0  0  0  0  0  0
   21.4834  -20.6538  -20.4375 C   0  0  1  0  0  0  0  0  0  0  0  0
   20.3112  -20.0347  -21.1741 O   0  0  0  0  0  0  0  0  0  0  0  0
   21.6656  -19.7930  -19.1041 C   0  0  1  0  0  0  0  0  0  0  0  0
   23.0885  -19.2884  -19.0220 O   0  0  0  0  0  0  0  0  0  0  0  0
   20.9344  -18.8080  -19.2314 C   0  0  1  0  0  0  0  0  0  0  0  0
   21.7340  -17.6634  -19.7298 O   0  0  0  0  0  0  0  0  0  0  0  0
   19.7742  -19.2235  -20.3518 C   0  0  2  0  0  0  0  0  0  0  0  0
   14.6754  -19.8450  -20.3890 N   0  0  0  0  0  0  0  0  0  0  0  0
   23.3429  -24.5103  -18.1476 O   0  5  0  0  0  0  0  0  0  0  0  0
   22.8410  -27.2508  -19.3376 O   0  5  0  0  0  0  0  0  0  0  0  0
   19.6317  -25.0916  -21.9814 O   0  0  0  0  0  0  0  0  0  0  0  0
   15.4175  -19.1237  -21.2146 C   0  0  0  0  0  0  0  0  0  0  0  0
   14.7786  -18.3900  -22.2884 N   0  0  0  0  0  0  0  0  0  0  0  0
   20.8691  -24.4443  -18.4135 O   0  0  0  0  0  0  0  0  0  0  0  0
   22.7823  -27.1127  -21.7957 O   0  0  0  0  0  0  0  0  0  0  0  0
   19.7426  -27.3603  -22.9351 O   0  5  0  0  0  0  0  0  0  0  0  0
   16.7272  -19.0490  -21.0930 N   0  0  0  0  0  0  0  0  0  0  0  0
   22.3480  -24.9764  -20.4645 O   0  0  0  0  0  0  0  0  0  0  0  0
   20.5577  -26.9702  -20.5086 O   0  0  0  0  0  0  0  0  0  0  0  0
   18.0527  -26.8110  -21.1992 O   0  0  0  0  0  0  0  0  0  0  0  0
   17.3563  -19.7112  -20.1146 C   0  0  0  0  0  0  0  0  0  0  0  0
   16.6060  -20.4705  -19.2397 C   0  0  0  0  0  0  0  0  0  0  0  0
   15.2073  -20.5362  -19.3894 C   0  0  0  0  0  0  0  0  0  0  0  0
   14.4166  -21.3015  -18.5142 O   0  0  0  0  0  0  0  0  0  0  0  0
   17.4534  -21.0305  -18.3596 N   0  0  0  0  0  0  0  0  0  0  0  0
   18.6741  -20.6347  -18.6757 C   0  0  0  0  0  0  0  0  0  0  0  0
   18.6354  -19.8382  -19.7276 N   0  0  0  0  0  0  0  0  0  0  0  0
  1  5  1  6  0  0  0
  1 14  1  0  0  0  0
  1 19  2  0  0  0  0
  1 23  1  0  0  0  0
  2 15  1  1  0  0  0
  2 20  2  0  0  0  0
  2 23  1  0  0  0  0
  2 24  1  0  0  0  0
  3 16  1  6  0  0  0
  3 21  1  0  0  0  0
  3 24  1  0  0  0  0
  3 25  2  0  0  0  0
  4  5  1  0  0  0  0
  6  4  1  1  0  0  0
  6  7  1  0  0  0  0
  6  8  1  0  0  0  0
  7 12  1  0  0  0  0
  8  9  1  6  0  0  0
  8 10  1  0  0  0  0
 10 11  1  6  0  0  0
 10 12  1  0  0  0  0
 12 32  1  1  0  0  0
 13 17  2  0  0  0  0
 13 28  1  0  0  0  0
 17 18  1  0  0  0  0
 17 22  1  0  0  0  0
 22 26  2  0  0  0  0
 26 27  1  0  0  0  0
 26 32  1  0  0  0  0
 27 28  2  0  0  0  0
 27 30  1  0  0  0  0
 28 29  1  0  0  0  0
 30 31  2  0  0  0  0
 31 32  1  0  0  0  0
M  CHG  3  14  -1  15  -1  21  -1
M  END
>  <CHROM.1>
-174.65389081,-41.86658745,-49.12387470,-176.71055096,-174.94347396,-95.60399855
-173.11089690,-175.19918301,19.85986169,-22.74678424,-20.15846573,-0.99669924
-0.20977857,0.20578066

>  <Name>
ligand

>  <RI>
0

>  <Rbt.Current_Directory>
/home/itssahil/PROJECTS/Mol_Feturizer/New_Systems/rnas/4Y1I

>  <Rbt.Executable>
rbdock ($Id: //depot/dev/client3/rdock/2013.1/src/exe/rbdock.cxx#4 $)

>  <Rbt.Library>
libRbt.so (2013.1, Build901 2013/11/27)

>  <Rbt.Parameter_File>
/export/apps/rDock/src/rDock_2013.1_src/data/scripts/dock_solv.prm

>  <Rbt.Receptor>
prm/pocket_docking_7.prm

>  <SCORE>
-9.54777

>  <SCORE.INTER>
-3.01998

>  <SCORE.INTER.CONST>
1

>  <SCORE.INTER.POLAR>
0

>  <SCORE.INTER.ROT>
8

>  <SCORE.INTER.SOLV>
9.19122

>  <SCORE.INTER.VDW>
-14.0104

>  <SCORE.INTER.norm>
-0.0943745

>  <SCORE.INTRA>
-6.52778

>  <SCORE.INTRA.DIHEDRAL>
-8.71026

>  <SCORE.INTRA.DIHEDRAL.0>
10.9594

>  <SCORE.INTRA.POLAR>
0

>  <SCORE.INTRA.POLAR.0>
0

>  <SCORE.INTRA.REPUL>
0

>  <SCORE.INTRA.REPUL.0>
0

>  <SCORE.INTRA.SOLV>
-4.42937

>  <SCORE.INTRA.SOLV.lig_0>
-124.914

>  <SCORE.INTRA.VDW>
0.0420306

>  <SCORE.INTRA.VDW.0>
-4.69801

>  <SCORE.INTRA.norm>
-0.203993

>  <SCORE.RESTR>
0

>  <SCORE.RESTR.CAVITY>
0

>  <SCORE.RESTR.norm>
0

>  <SCORE.SYSTEM>
0

>  <SCORE.SYSTEM.CONST>
0

>  <SCORE.SYSTEM.DIHEDRAL>
0

>  <SCORE.SYSTEM.SOLV>
0

>  <SCORE.SYSTEM.norm>
0

>  <SCORE.heavy>
32

>  <SCORE.norm>
-0.298368

>  <RMSD>
6.842

$$$$
ligand
 OpenBabel11021811513D
libRbt.so/2013.1/901 2013/11/27
 32 34  0  0  0  0  0  0  0  0999 V2000
   13.8717  -22.8619  -17.8690 P   0  0  1  0  0  0  0  0  0  0  0  0
   11.4216  -21.4585  -18.3769 P   0  0  2  0  0  0  0  0  0  0  0  0
    9.6139  -22.4269  -20.4769 P   0  0  1  0  0  0  0  0  0  0  0  0
   16.0946  -21.5307  -18.1480 C   0  0  0  0  0  0  0  0  0  0  0  0
   14.7470  -21.6252  -18.5128 O   0  0  0  0  0  0  0  0  0  0  0  0
   16.6865  -20.4713  -18.8268 C   0  0  1  0  0  0  0  0  0  0  0  0
   18.1189  -20.2953  -18.3606 O   0  0  0  0  0  0  0  0  0  0  0  0
   16.7698  -20.7596  -20.3959 C   0  0  1  0  0  0  0  0  0  0  0  0
   15.9002  -19.7685  -21.1360 O   0  0  0  0  0  0  0  0  0  0  0  0
   17.9383  -20.5367  -20.7220 C   0  0  1  0  0  0  0  0  0  0  0  0
   18.0430  -19.1617  -21.2663 O   0  0  0  0  0  0  0  0  0  0  0  0
   18.8492  -20.6713  -19.3342 C   0  0  2  0  0  0  0  0  0  0  0  0
   22.8267  -23.9208  -19.2606 N   0  0  0  0  0  0  0  0  0  0  0  0
   14.5015  -24.1817  -18.2400 O   0  5  0  0  0  0  0  0  0  0  0  0
   12.0553  -20.3195  -19.1354 O   0  5  0  0  0  0  0  0  0  0  0  0
   10.2959  -21.5694  -21.5170 O   0  0  0  0  0  0  0  0  0  0  0  0
   22.8340  -22.6250  -19.5315 C   0  0  0  0  0  0  0  0  0  0  0  0
   24.0867  -21.9735  -19.8570 N   0  0  0  0  0  0  0  0  0  0  0  0
   13.8202  -22.6903  -16.3676 O   0  0  0  0  0  0  0  0  0  0  0  0
   11.2970  -21.0883  -16.9222 O   0  0  0  0  0  0  0  0  0  0  0  0
   10.1735  -23.8310  -20.5479 O   0  5  0  0  0  0  0  0  0  0  0  0
   21.7333  -21.9012  -19.5154 N   0  0  0  0  0  0  0  0  0  0  0  0
   12.3523  -22.8059  -18.4910 O   0  0  0  0  0  0  0  0  0  0  0  0
    9.9291  -21.7762  -18.9914 O   0  0  0  0  0  0  0  0  0  0  0  0
    8.1253  -22.4396  -20.7474 O   0  0  0  0  0  0  0  0  0  0  0  0
   20.5556  -22.4644  -19.2199 C   0  0  0  0  0  0  0  0  0  0  0  0
   20.5199  -23.8142  -18.9339 C   0  0  0  0  0  0  0  0  0  0  0  0
   21.7092  -24.5679  -18.9564 C   0  0  0  0  0  0  0  0  0  0  0  0
   21.7045  -25.9442  -18.6690 O   0  0  0  0  0  0  0  0  0  0  0  0
   19.2423  -24.1395  -18.6726 N   0  0  0  0  0  0  0  0  0  0  0  0
   18.5194  -23.0395  -18.7922 C   0  0  0  0  0  0  0  0  0  0  0  0
   19.2919  -22.0218  -19.1236 N   0  0  0  0  0  0  0  0  0  0  0  0
  1  5  1  6  0  0  0
  1 14  1  0  0  0  0
  1 19  2  0  0  0  0
  1 23  1  0  0  0  0
  2 15  1  6  0  0  0
  2 20  2  0  0  0  0
  2 23  1  0  0  0  0
  2 24  1  0  0  0  0
  3 16  1  6  0  0  0
  3 21  1  0  0  0  0
  3 24  1  0  0  0  0
  3 25  2  0  0  0  0
  4  5  1  0  0  0  0
  6  4  1  1  0  0  0
  6  7  1  0  0  0  0
  6  8  1  0  0  0  0
  7 12  1  0  0  0  0
  8  9  1  6  0  0  0
  8 10  1  0  0  0  0
 10 11  1  1  0  0  0
 10 12  1  0  0  0  0
 12 32  1  1  0  0  0
 13 17  2  0  0  0  0
 13 28  1  0  0  0  0
 17 18  1  0  0  0  0
 17 22  1  0  0  0  0
 22 26  2  0  0  0  0
 26 27  1  0  0  0  0
 26 32  1  0  0  0  0
 27 28  2  0  0  0  0
 27 30  1  0  0  0  0
 28 29  1  0  0  0  0
 30 31  2  0  0  0  0
 31 32  1  0  0  0  0
M  CHG  3  14  -1  15  -1  21  -1
M  END
>  <CHROM.1>
-58.59124886,63.58206962,-54.94362151,175.76352440,177.41732377,-130.22377721
-55.61568380,69.02972906,15.65065144,-22.13590900,-19.18291509,3.07692599
0.01946377,-0.48756652

>  <Name>
ligand

>  <RI>
0

>  <Rbt.Current_Directory>
/home/itssahil/PROJECTS/Mol_Feturizer/New_Systems/rnas/4Y1I

>  <Rbt.Executable>
rbdock ($Id: //depot/dev/client3/rdock/2013.1/src/exe/rbdock.cxx#4 $)

>  <Rbt.Library>
libRbt.so (2013.1, Build901 2013/11/27)

>  <Rbt.Parameter_File>
/export/apps/rDock/src/rDock_2013.1_src/data/scripts/dock_solv.prm

>  <Rbt.Receptor>
prm/pocket_docking_8.prm

>  <SCORE>
-9.34542

>  <SCORE.INTER>
-2.62855

>  <SCORE.INTER.CONST>
1

>  <SCORE.INTER.POLAR>
0

>  <SCORE.INTER.ROT>
8

>  <SCORE.INTER.SOLV>
6.33449

>  <SCORE.INTER.VDW>
-12.7972

>  <SCORE.INTER.norm>
-0.0821422

>  <SCORE.INTRA>
-6.71687

>  <SCORE.INTRA.DIHEDRAL>
-9.40737

>  <SCORE.INTRA.DIHEDRAL.0>
10.9594

>  <SCORE.INTRA.POLAR>
0

>  <SCORE.INTRA.POLAR.0>
0

>  <SCORE.INTRA.REPUL>
0

>  <SCORE.INTRA.REPUL.0>
0

>  <SCORE.INTRA.SOLV>
-5.10679

>  <SCORE.INTRA.SOLV.lig_0>
-124.914

>  <SCORE.INTRA.VDW>
0.540211

>  <SCORE.INTRA.VDW.0>
-4.69801

>  <SCORE.INTRA.norm>
-0.209902

>  <SCORE.RESTR>
0

>  <SCORE.RESTR.CAVITY>
0

>  <SCORE.RESTR.norm>
0

>  <SCORE.SYSTEM>
0

>  <SCORE.SYSTEM.CONST>
0

>  <SCORE.SYSTEM.DIHEDRAL>
0

>  <SCORE.SYSTEM.SOLV>
0

>  <SCORE.SYSTEM.norm>
0

>  <SCORE.heavy>
32

>  <SCORE.norm>
-0.292044

>  <RMSD>
6.849

$$$$
ligand
 OpenBabel11021811513D
libRbt.so/2013.1/901 2013/11/27
 32 34  0  0  0  0  0  0  0  0999 V2000
   17.6442  -22.7997  -22.2051 P   0  0  1  0  0  0  0  0  0  0  0  0
   19.5059  -24.9029  -21.6207 P   0  0  2  0  0  0  0  0  0  0  0  0
   19.7930  -24.6358  -18.7118 P   0  0  1  0  0  0  0  0  0  0  0  0
   16.4787  -23.9584  -20.1827 C   0  0  0  0  0  0  0  0  0  0  0  0
   16.8322  -22.7406  -20.7743 O   0  0  0  0  0  0  0  0  0  0  0  0
   15.9055  -23.7213  -18.9382 C   0  0  1  0  0  0  0  0  0  0  0  0
   16.8783  -22.9603  -18.0582 O   0  0  0  0  0  0  0  0  0  0  0  0
   14.6102  -22.7944  -19.0613 C   0  0  1  0  0  0  0  0  0  0  0  0
   13.3884  -23.5795  -18.6408 O   0  0  0  0  0  0  0  0  0  0  0  0
   14.7619  -21.8858  -18.2412 C   0  0  1  0  0  0  0  0  0  0  0  0
   14.0398  -22.2257  -16.9918 O   0  0  0  0  0  0  0  0  0  0  0  0
   16.3978  -21.7860  -17.9450 C   0  0  2  0  0  0  0  0  0  0  0  0
   15.8323  -18.4668  -21.8242 N   0  0  0  0  0  0  0  0  0  0  0  0
   16.9656  -23.7714  -23.1387 O   0  5  0  0  0  0  0  0  0  0  0  0
   20.9728  -25.1787  -21.8361 O   0  5  0  0  0  0  0  0  0  0  0  0
   19.6468  -23.1330  -18.7624 O   0  0  0  0  0  0  0  0  0  0  0  0
   14.8928  -19.1472  -21.1862 C   0  0  0  0  0  0  0  0  0  0  0  0
   13.5072  -18.9849  -21.5779 N   0  0  0  0  0  0  0  0  0  0  0  0
   17.6785  -21.4108  -22.8017 O   0  0  0  0  0  0  0  0  0  0  0  0
   18.6901  -25.7448  -22.5664 O   0  0  0  0  0  0  0  0  0  0  0  0
   19.0843  -25.1615  -17.4826 O   0  5  0  0  0  0  0  0  0  0  0  0
   15.1757  -19.9732  -20.1997 N   0  0  0  0  0  0  0  0  0  0  0  0
   19.1745  -23.3225  -21.9162 O   0  0  0  0  0  0  0  0  0  0  0  0
   19.0922  -25.2633  -20.0699 O   0  0  0  0  0  0  0  0  0  0  0  0
   21.2640  -24.9866  -18.6612 O   0  0  0  0  0  0  0  0  0  0  0  0
   16.4428  -20.1520  -19.8072 C   0  0  0  0  0  0  0  0  0  0  0  0
   17.4420  -19.4550  -20.4560 C   0  0  0  0  0  0  0  0  0  0  0  0
   17.1159  -18.5768  -21.5074 C   0  0  0  0  0  0  0  0  0  0  0  0
   18.1116  -17.8528  -22.1866 O   0  0  0  0  0  0  0  0  0  0  0  0
   18.6106  -19.7993  -19.8885 N   0  0  0  0  0  0  0  0  0  0  0  0
   18.3461  -20.6713  -18.9311 C   0  0  0  0  0  0  0  0  0  0  0  0
   17.0472  -20.8979  -18.8690 N   0  0  0  0  0  0  0  0  0  0  0  0
  1  5  1  1  0  0  0
  1 14  1  0  0  0  0
  1 19  2  0  0  0  0
  1 23  1  0  0  0  0
  2 15  1  6  0  0  0
  2 20  2  0  0  0  0
  2 23  1  0  0  0  0
  2 24  1  0  0  0  0
  3 16  1  6  0  0  0
  3 21  1  0  0  0  0
  3 24  1  0  0  0  0
  3 25  2  0  0  0  0
  4  5  1  0  0  0  0
  6  4  1  6  0  0  0
  6  7  1  0  0  0  0
  6  8  1  0  0  0  0
  7 12  1  0  0  0  0
  8  9  1  1  0  0  0
  8 10  1  0  0  0  0
 10 11  1  1  0  0  0
 10 12  1  0  0  0  0
 12 32  1  6  0  0  0
 13 17  2  0  0  0  0
 13 28  1  0  0  0  0
 17 18  1  0  0  0  0
 17 22  1  0  0  0  0
 22 26  2  0  0  0  0
 26 27  1  0  0  0  0
 26 32  1  0  0  0  0
 27 28  2  0  0  0  0
 27 30  1  0  0  0  0
 28 29  1  0  0  0  0
 30 31  2  0  0  0  0
 31 32  1  0  0  0  0
M  CHG  3  14  -1  15  -1  21  -1
M  END
>  <CHROM.1>
47.05794236,161.57767216,58.22176022,-58.18102295,175.03793892,123.43576926
76.39042444,56.22324210,17.46536480,-22.48936647,-20.24044594,-0.60962443
0.68813754,-0.77212250

>  <Name>
ligand

>  <RI>
0

>  <Rbt.Current_Directory>
/home/itssahil/PROJECTS/Mol_Feturizer/New_Systems/rnas/4Y1I

>  <Rbt.Executable>
rbdock ($Id: //depot/dev/client3/rdock/2013.1/src/exe/rbdock.cxx#4 $)

>  <Rbt.Library>
libRbt.so (2013.1, Build901 2013/11/27)

>  <Rbt.Parameter_File>
/export/apps/rDock/src/rDock_2013.1_src/data/scripts/dock_solv.prm

>  <Rbt.Receptor>
prm/pocket_docking_5.prm

>  <SCORE>
-9.28744

>  <SCORE.INTER>
-1.66665

>  <SCORE.INTER.CONST>
1

>  <SCORE.INTER.POLAR>
0

>  <SCORE.INTER.ROT>
8

>  <SCORE.INTER.SOLV>
10.6117

>  <SCORE.INTER.VDW>
-13.5817

>  <SCORE.INTER.norm>
-0.0520827

>  <SCORE.INTRA>
-7.6208

>  <SCORE.INTRA.DIHEDRAL>
-8.43312

>  <SCORE.INTRA.DIHEDRAL.0>
10.9594

>  <SCORE.INTRA.POLAR>
0

>  <SCORE.INTRA.POLAR.0>
0

>  <SCORE.INTRA.REPUL>
0

>  <SCORE.INTRA.REPUL.0>
0

>  <SCORE.INTRA.SOLV>
0.339117

>  <SCORE.INTRA.SOLV.lig_0>
-124.914

>  <SCORE.INTRA.VDW>
-3.5738

>  <SCORE.INTRA.VDW.0>
-4.69801

>  <SCORE.INTRA.norm>
-0.23815

>  <SCORE.RESTR>
0

>  <SCORE.RESTR.CAVITY>
0

>  <SCORE.RESTR.norm>
0

>  <SCORE.SYSTEM>
0

>  <SCORE.SYSTEM.CONST>
0

>  <SCORE.SYSTEM.DIHEDRAL>
0

>  <SCORE.SYSTEM.SOLV>
0

>  <SCORE.SYSTEM.norm>
0

>  <SCORE.heavy>
32

>  <SCORE.norm>
-0.290233

>  <RMSD>
6.860

$$$$
ligand
 OpenBabel11021811513D
libRbt.so/2013.1/901 2013/11/27
 32 34  0  0  0  0  0  0  0  0999 V2000
   18.1301  -22.6156  -20.4169 P   0  0  1  0  0  0  0  0  0  0  0  0
   16.4931  -20.9513  -18.7492 P   0  0  2  0  0  0  0  0  0  0  0  0
   14.4382  -22.3409  -17.1803 P   0  0  1  0  0  0  0  0  0  0  0  0
   19.0862  -24.2804  -18.6546 C   0  0  0  0  0  0  0  0  0  0  0  0
   19.3300  -23.1311  -19.4146 O   0  0  0  0  0  0  0  0  0  0  0  0
   20.2623  -24.6844  -18.0327 C   0  0  1  0  0  0  0  0  0  0  0  0
   20.0200  -25.9598  -17.2486 O   0  0  0  0  0  0  0  0  0  0  0  0
   21.3947  -25.0377  -19.1028 C   0  0  1  0  0  0  0  0  0  0  0  0
   22.5396  -24.0599  -18.9645 O   0  0  0  0  0  0  0  0  0  0  0  0
   21.8239  -26.1509  -18.7902 C   0  0  1  0  0  0  0  0  0  0  0  0
   23.0535  -25.9931  -17.9771 O   0  0  0  0  0  0  0  0  0  0  0  0
   20.6310  -26.8791  -17.8843 C   0  0  2  0  0  0  0  0  0  0  0  0
   16.3956  -29.7794  -18.0711 N   0  0  0  0  0  0  0  0  0  0  0  0
   18.5289  -21.3125  -21.0642 O   0  5  0  0  0  0  0  0  0  0  0  0
   15.7005  -20.0206  -19.6323 O   0  5  0  0  0  0  0  0  0  0  0  0
   14.9992  -23.7172  -17.4516 O   0  0  0  0  0  0  0  0  0  0  0  0
   16.9869  -29.2628  -17.0052 C   0  0  0  0  0  0  0  0  0  0  0  0
   16.4236  -29.5046  -15.6923 N   0  0  0  0  0  0  0  0  0  0  0  0
   17.8762  -23.6816  -21.4588 O   0  0  0  0  0  0  0  0  0  0  0  0
   17.8204  -20.3220  -18.4158 O   0  0  0  0  0  0  0  0  0  0  0  0
   13.9134  -22.2906  -15.7620 O   0  5  0  0  0  0  0  0  0  0  0  0
   18.0782  -28.5306  -17.0972 N   0  0  0  0  0  0  0  0  0  0  0  0
   16.7728  -22.3710  -19.5244 O   0  0  0  0  0  0  0  0  0  0  0  0
   15.6619  -21.2457  -17.3605 O   0  0  0  0  0  0  0  0  0  0  0  0
   13.3234  -22.0601  -18.1640 O   0  0  0  0  0  0  0  0  0  0  0  0
   18.6306  -28.2837  -18.2911 C   0  0  0  0  0  0  0  0  0  0  0  0
   18.0344  -28.8109  -19.4187 C   0  0  0  0  0  0  0  0  0  0  0  0
   16.8678  -29.5901  -19.2964 C   0  0  0  0  0  0  0  0  0  0  0  0
   16.2376  -30.1400  -20.4266 O   0  0  0  0  0  0  0  0  0  0  0  0
   18.7649  -28.4284  -20.4800 N   0  0  0  0  0  0  0  0  0  0  0  0
   19.7691  -27.6971  -20.0288 C   0  0  0  0  0  0  0  0  0  0  0  0
   19.7065  -27.6012  -18.7138 N   0  0  0  0  0  0  0  0  0  0  0  0
  1  5  1  1  0  0  0
  1 14  1  0  0  0  0
  1 19  2  0  0  0  0
  1 23  1  0  0  0  0
  2 15  1  6  0  0  0
  2 20  2  0  0  0  0
  2 23  1  0  0  0  0
  2 24  1  0  0  0  0
  3 16  1  6  0  0  0
  3 21  1  0  0  0  0
  3 24  1  0  0  0  0
  3 25  2  0  0  0  0
  4  5  1  0  0  0  0
  6  4  1  6  0  0  0
  6  7  1  0  0  0  0
  6  8  1  0  0  0  0
  7 12  1  0  0  0  0
  8  9  1  1  0  0  0
  8 10  1  0  0  0  0
 10 11  1  1  0  0  0
 10 12  1  0  0  0  0
 12 32  1  6  0  0  0
 13 17  2  0  0  0  0
 13 28  1  0  0  0  0
 17 18  1  0  0  0  0
 17 22  1  0  0  0  0
 22 26  2  0  0  0  0
 26 27  1  0  0  0  0
 26 32  1  0  0  0  0
 27 28  2  0  0  0  0
 27 30  1  0  0  0  0
 28 29  1  0  0  0  0
 30 31  2  0  0  0  0
 31 32  1  0  0  0  0
M  CHG  3  14  -1  15  -1  21  -1
M  END
>  <CHROM.1>
175.45836643,91.83493002,62.41343273,-177.86321855,170.86541708,-60.27777166
85.74356729,81.34987651,17.83438775,-24.71329172,-18.64031076,-2.00675337
-0.26785329,3.02169704

>  <Name>
ligand

>  <RI>
0

>  <Rbt.Current_Directory>
/home/itssahil/PROJECTS/Mol_Feturizer/New_Systems/rnas/4Y1I

>  <Rbt.Executable>
rbdock ($Id: //depot/dev/client3/rdock/2013.1/src/exe/rbdock.cxx#4 $)

>  <Rbt.Library>
libRbt.so (2013.1, Build901 2013/11/27)

>  <Rbt.Parameter_File>
/export/apps/rDock/src/rDock_2013.1_src/data/scripts/dock_solv.prm

>  <Rbt.Receptor>
prm/pocket_docking_3.prm

>  <SCORE>
-4.23525

>  <SCORE.INTER>
1.04016

>  <SCORE.INTER.CONST>
1

>  <SCORE.INTER.POLAR>
0

>  <SCORE.INTER.ROT>
8

>  <SCORE.INTER.SOLV>
20.2871

>  <SCORE.INTER.VDW>
-15.0023

>  <SCORE.INTER.norm>
0.0325049

>  <SCORE.INTRA>
-5.27541

>  <SCORE.INTRA.DIHEDRAL>
-6.36829

>  <SCORE.INTRA.DIHEDRAL.0>
10.9594

>  <SCORE.INTRA.POLAR>
0

>  <SCORE.INTRA.POLAR.0>
0

>  <SCORE.INTRA.REPUL>
0

>  <SCORE.INTRA.REPUL.0>
0

>  <SCORE.INTRA.SOLV>
-4.78204

>  <SCORE.INTRA.SOLV.lig_0>
-124.914

>  <SCORE.INTRA.VDW>
0.299755

>  <SCORE.INTRA.VDW.0>
-4.69801

>  <SCORE.INTRA.norm>
-0.164857

>  <SCORE.RESTR>
0

>  <SCORE.RESTR.CAVITY>
0

>  <SCORE.RESTR.norm>
0

>  <SCORE.SYSTEM>
0

>  <SCORE.SYSTEM.CONST>
0

>  <SCORE.SYSTEM.DIHEDRAL>
0

>  <SCORE.SYSTEM.SOLV>
0

>  <SCORE.SYSTEM.norm>
0

>  <SCORE.heavy>
32

>  <SCORE.norm>
-0.132352

>  <RMSD>
6.868

$$$$
ligand
 OpenBabel11021811513D
libRbt.so/2013.1/901 2013/11/27
 32 34  0  0  0  0  0  0  0  0999 V2000
   20.0073  -25.0449  -18.6500 P   0  0  1  0  0  0  0  0  0  0  0  0
   17.3959  -24.8296  -17.4817 P   0  0  2  0  0  0  0  0  0  0  0  0
   16.5823  -22.2818  -18.6909 P   0  0  1  0  0  0  0  0  0  0  0  0
   20.1555  -27.4708  -17.7096 C   0  0  0  0  0  0  0  0  0  0  0  0
   19.8861  -26.6768  -18.8298 O   0  0  0  0  0  0  0  0  0  0  0  0
   20.1334  -28.8122  -18.0746 C   0  0  1  0  0  0  0  0  0  0  0  0
   20.4594  -29.6795  -16.8740 O   0  0  0  0  0  0  0  0  0  0  0  0
   18.6772  -29.2605  -18.5551 C   0  0  1  0  0  0  0  0  0  0  0  0
   18.7244  -29.6364  -20.0188 O   0  0  0  0  0  0  0  0  0  0  0  0
   18.4096  -30.2849  -17.9222 C   0  0  1  0  0  0  0  0  0  0  0  0
   18.7283  -31.4720  -18.7511 O   0  0  0  0  0  0  0  0  0  0  0  0
   19.3714  -30.2641  -16.5627 C   0  0  2  0  0  0  0  0  0  0  0  0
   15.0370  -28.1817  -14.7567 N   0  0  0  0  0  0  0  0  0  0  0  0
   21.4264  -24.6731  -18.2977 O   0  5  0  0  0  0  0  0  0  0  0  0
   16.7617  -24.4506  -16.1671 O   0  5  0  0  0  0  0  0  0  0  0  0
   17.9535  -21.6730  -18.5133 O   0  0  0  0  0  0  0  0  0  0  0  0
   15.2334  -28.7811  -15.9207 C   0  0  0  0  0  0  0  0  0  0  0  0
   14.1312  -28.9016  -16.8536 N   0  0  0  0  0  0  0  0  0  0  0  0
   19.5785  -24.3812  -19.9392 O   0  0  0  0  0  0  0  0  0  0  0  0
   17.1496  -26.2896  -17.7583 O   0  0  0  0  0  0  0  0  0  0  0  0
   16.0047  -21.8249  -20.0128 O   0  5  0  0  0  0  0  0  0  0  0  0
   16.4053  -29.2761  -16.2631 N   0  0  0  0  0  0  0  0  0  0  0  0
   19.0172  -24.5792  -17.4247 O   0  0  0  0  0  0  0  0  0  0  0  0
   16.7494  -23.9254  -18.6944 O   0  0  0  0  0  0  0  0  0  0  0  0
   15.6947  -21.8395  -17.5481 O   0  0  0  0  0  0  0  0  0  0  0  0
   17.4493  -29.1855  -15.4304 C   0  0  0  0  0  0  0  0  0  0  0  0
   17.2718  -28.5647  -14.2105 C   0  0  0  0  0  0  0  0  0  0  0  0
   16.0098  -28.0438  -13.8654 C   0  0  0  0  0  0  0  0  0  0  0  0
   15.7982  -27.4067  -12.6300 O   0  0  0  0  0  0  0  0  0  0  0  0
   18.4491  -28.5991  -13.5631 N   0  0  0  0  0  0  0  0  0  0  0  0
   19.3168  -29.2135  -14.3481 C   0  0  0  0  0  0  0  0  0  0  0  0
   18.7342  -29.5713  -15.4772 N   0  0  0  0  0  0  0  0  0  0  0  0
  1  5  1  6  0  0  0
  1 14  1  0  0  0  0
  1 19  2  0  0  0  0
  1 23  1  0  0  0  0
  2 15  1  1  0  0  0
  2 20  2  0  0  0  0
  2 23  1  0  0  0  0
  2 24  1  0  0  0  0
  3 16  1  1  0  0  0
  3 21  1  0  0  0  0
  3 24  1  0  0  0  0
  3 25  2  0  0  0  0
  4  5  1  0  0  0  0
  6  4  1  1  0  0  0
  6  7  1  0  0  0  0
  6  8  1  0  0  0  0
  7 12  1  0  0  0  0
  8  9  1  6  0  0  0
  8 10  1  0  0  0  0
 10 11  1  6  0  0  0
 10 12  1  0  0  0  0
 12 32  1  1  0  0  0
 13 17  2  0  0  0  0
 13 28  1  0  0  0  0
 17 18  1  0  0  0  0
 17 22  1  0  0  0  0
 22 26  2  0  0  0  0
 26 27  1  0  0  0  0
 26 32  1  0  0  0  0
 27 28  2  0  0  0  0
 27 30  1  0  0  0  0
 28 29  1  0  0  0  0
 30 31  2  0  0  0  0
 31 32  1  0  0  0  0
M  CHG  3  14  -1  15  -1  21  -1
M  END
>  <CHROM.1>
62.57933487,173.51651676,58.51425467,178.55789133,-174.23330532,130.45604049
-60.66112930,49.75133292,17.92660799,-26.60657844,-17.26536773,-1.66545944
-0.69793827,2.71595071

>  <Name>
ligand

>  <RI>
0

>  <Rbt.Current_Directory>
/home/itssahil/PROJECTS/Mol_Feturizer/New_Systems/rnas/4Y1I

>  <Rbt.Executable>
rbdock ($Id: //depot/dev/client3/rdock/2013.1/src/exe/rbdock.cxx#4 $)

>  <Rbt.Library>
libRbt.so (2013.1, Build901 2013/11/27)

>  <Rbt.Parameter_File>
/export/apps/rDock/src/rDock_2013.1_src/data/scripts/dock_solv.prm

>  <Rbt.Receptor>
prm/pocket_docking_4.prm

>  <SCORE>
-5.28671

>  <SCORE.INTER>
1.6528

>  <SCORE.INTER.CONST>
1

>  <SCORE.INTER.POLAR>
0

>  <SCORE.INTER.ROT>
8

>  <SCORE.INTER.SOLV>
15.8271

>  <SCORE.INTER.VDW>
-13.1072

>  <SCORE.INTER.norm>
0.0516501

>  <SCORE.INTRA>
-6.93951

>  <SCORE.INTRA.DIHEDRAL>
-9.30777

>  <SCORE.INTRA.DIHEDRAL.0>
10.9594

>  <SCORE.INTRA.POLAR>
0

>  <SCORE.INTRA.POLAR.0>
0

>  <SCORE.INTRA.REPUL>
0

>  <SCORE.INTRA.REPUL.0>
0

>  <SCORE.INTRA.SOLV>
-2.01352

>  <SCORE.INTRA.SOLV.lig_0>
-124.914

>  <SCORE.INTRA.VDW>
-1.27887

>  <SCORE.INTRA.VDW.0>
-4.69801

>  <SCORE.INTRA.norm>
-0.21686

>  <SCORE.RESTR>
0

>  <SCORE.RESTR.CAVITY>
0

>  <SCORE.RESTR.norm>
0

>  <SCORE.SYSTEM>
0

>  <SCORE.SYSTEM.CONST>
0

>  <SCORE.SYSTEM.DIHEDRAL>
0

>  <SCORE.SYSTEM.SOLV>
0

>  <SCORE.SYSTEM.norm>
0

>  <SCORE.heavy>
32

>  <SCORE.norm>
-0.16521

>  <RMSD>
6.870

$$$$
ligand
 OpenBabel11021811513D
libRbt.so/2013.1/901 2013/11/27
 32 34  0  0  0  0  0  0  0  0999 V2000
   20.8384  -24.4628  -18.8876 P   0  0  1  0  0  0  0  0  0  0  0  0
   23.2028  -26.0171  -19.3613 P   0  0  2  0  0  0  0  0  0  0  0  0
   21.7033  -28.5403  -19.3782 P   0  0  1  0  0  0  0  0  0  0  0  0
   20.1692  -22.3174  -20.2070 C   0  0  0  0  0  0  0  0  0  0  0  0
   21.1915  -22.9866  -19.5252 O   0  0  0  0  0  0  0  0  0  0  0  0
   20.5826  -21.0254  -20.5123 C   0  0  1  0  0  0  0  0  0  0  0  0
   19.4816  -20.2929  -21.2547 O   0  0  0  0  0  0  0  0  0  0  0  0
   20.8582  -20.1746  -19.1886 C   0  0  1  0  0  0  0  0  0  0  0  0
   22.3270  -19.8237  -19.1133 O   0  0  0  0  0  0  0  0  0  0  0  0
   20.2359  -19.1186  -19.3262 C   0  0  1  0  0  0  0  0  0  0  0  0
   21.1521  -18.0713  -19.8378 O   0  0  0  0  0  0  0  0  0  0  0  0
   19.0358  -19.4202  -20.4410 C   0  0  2  0  0  0  0  0  0  0  0  0
   13.9067  -19.6601  -20.5804 N   0  0  0  0  0  0  0  0  0  0  0  0
   19.9000  -24.3032  -17.7171 O   0  5  0  0  0  0  0  0  0  0  0  0
   24.3293  -26.6484  -18.5824 O   0  5  0  0  0  0  0  0  0  0  0  0
   22.8087  -29.1741  -18.5666 O   0  0  0  0  0  0  0  0  0  0  0  0
   14.7207  -19.0555  -21.4315 C   0  0  0  0  0  0  0  0  0  0  0  0
   14.1647  -18.3527  -22.5702 N   0  0  0  0  0  0  0  0  0  0  0  0
   20.2169  -25.3214  -19.9659 O   0  0  0  0  0  0  0  0  0  0  0  0
   23.7685  -25.0838  -20.3995 O   0  0  0  0  0  0  0  0  0  0  0  0
   20.5671  -28.1583  -18.4547 O   0  5  0  0  0  0  0  0  0  0  0  0
   16.0291  -19.0706  -21.2783 N   0  0  0  0  0  0  0  0  0  0  0  0
   22.2333  -25.1509  -18.3591 O   0  0  0  0  0  0  0  0  0  0  0  0
   22.3126  -27.1857  -20.1015 O   0  0  0  0  0  0  0  0  0  0  0  0
   21.2257  -29.5299  -20.4183 O   0  0  0  0  0  0  0  0  0  0  0  0
   16.5829  -19.7082  -20.2398 C   0  0  0  0  0  0  0  0  0  0  0  0
   15.7567  -20.3465  -19.3371 C   0  0  0  0  0  0  0  0  0  0  0  0
   14.3609  -20.3178  -19.5216 C   0  0  0  0  0  0  0  0  0  0  0  0
   13.4939  -20.9591  -18.6194 O   0  0  0  0  0  0  0  0  0  0  0  0
   16.5382  -20.9056  -18.3975 N   0  0  0  0  0  0  0  0  0  0  0  0
   17.7926  -20.6251  -18.7050 C   0  0  0  0  0  0  0  0  0  0  0  0
   17.8392  -19.9031  -19.8090 N   0  0  0  0  0  0  0  0  0  0  0  0
  1  5  1  6  0  0  0
  1 14  1  0  0  0  0
  1 19  2  0  0  0  0
  1 23  1  0  0  0  0
  2 15  1  1  0  0  0
  2 20  2  0  0  0  0
  2 23  1  0  0  0  0
  2 24  1  0  0  0  0
  3 16  1  1  0  0  0
  3 21  1  0  0  0  0
  3 24  1  0  0  0  0
  3 25  2  0  0  0  0
  4  5  1  0  0  0  0
  6  4  1  1  0  0  0
  6  7  1  0  0  0  0
  6  8  1  0  0  0  0
  7 12  1  0  0  0  0
  8  9  1  6  0  0  0
  8 10  1  0  0  0  0
 10 11  1  6  0  0  0
 10 12  1  0  0  0  0
 12 32  1  1  0  0  0
 13 17  2  0  0  0  0
 13 28  1  0  0  0  0
 17 18  1  0  0  0  0
 17 22  1  0  0  0  0
 22 26  2  0  0  0  0
 26 27  1  0  0  0  0
 26 32  1  0  0  0  0
 27 28  2  0  0  0  0
 27 30  1  0  0  0  0
 28 29  1  0  0  0  0
 30 31  2  0  0  0  0
 31 32  1  0  0  0  0
M  CHG  3  14  -1  15  -1  21  -1
M  END
>  <CHROM.1>
-70.17071065,-174.07170736,-47.53842924,179.87140066,171.83324257,-91.53312931
-85.91929583,49.80260201,19.76338126,-23.10334684,-19.61968035,-0.91079461
-0.05037432,-0.09057033

>  <Name>
ligand

>  <RI>
0

>  <Rbt.Current_Directory>
/home/itssahil/PROJECTS/Mol_Feturizer/New_Systems/rnas/4Y1I

>  <Rbt.Executable>
rbdock ($Id: //depot/dev/client3/rdock/2013.1/src/exe/rbdock.cxx#4 $)

>  <Rbt.Library>
libRbt.so (2013.1, Build901 2013/11/27)

>  <Rbt.Parameter_File>
/export/apps/rDock/src/rDock_2013.1_src/data/scripts/dock_solv.prm

>  <Rbt.Receptor>
prm/pocket_docking_7.prm

>  <SCORE>
-7.68731

>  <SCORE.INTER>
-2.56907

>  <SCORE.INTER.CONST>
1

>  <SCORE.INTER.POLAR>
0

>  <SCORE.INTER.ROT>
8

>  <SCORE.INTER.SOLV>
10.0926

>  <SCORE.INTER.VDW>
-14.0103

>  <SCORE.INTER.norm>
-0.0802834

>  <SCORE.INTRA>
-5.11824

>  <SCORE.INTRA.DIHEDRAL>
-7.84788

>  <SCORE.INTRA.DIHEDRAL.0>
10.9594

>  <SCORE.INTRA.POLAR>
0

>  <SCORE.INTRA.POLAR.0>
0

>  <SCORE.INTRA.REPUL>
0

>  <SCORE.INTRA.REPUL.0>
0

>  <SCORE.INTRA.SOLV>
-2.07713

>  <SCORE.INTRA.SOLV.lig_0>
-124.914

>  <SCORE.INTRA.VDW>
-0.155728

>  <SCORE.INTRA.VDW.0>
-4.69801

>  <SCORE.INTRA.norm>
-0.159945

>  <SCORE.RESTR>
0

>  <SCORE.RESTR.CAVITY>
0

>  <SCORE.RESTR.norm>
0

>  <SCORE.SYSTEM>
0

>  <SCORE.SYSTEM.CONST>
0

>  <SCORE.SYSTEM.DIHEDRAL>
0

>  <SCORE.SYSTEM.SOLV>
0

>  <SCORE.SYSTEM.norm>
0

>  <SCORE.heavy>
32

>  <SCORE.norm>
-0.240228

>  <RMSD>
6.882

$$$$
ligand
 OpenBabel11021811513D
libRbt.so/2013.1/901 2013/11/27
 32 34  0  0  0  0  0  0  0  0999 V2000
   12.4998  -26.2097  -15.1126 P   0  0  1  0  0  0  0  0  0  0  0  0
   13.3147  -27.8190  -12.8816 P   0  0  2  0  0  0  0  0  0  0  0  0
   12.3406  -30.5876  -12.9096 P   0  0  1  0  0  0  0  0  0  0  0  0
   10.1213  -26.5435  -16.1238 C   0  0  0  0  0  0  0  0  0  0  0  0
   11.4787  -26.3418  -16.3971 O   0  0  0  0  0  0  0  0  0  0  0  0
    9.4190  -26.6597  -17.3182 C   0  0  1  0  0  0  0  0  0  0  0  0
    9.5301  -25.3711  -18.1100 O   0  0  0  0  0  0  0  0  0  0  0  0
   10.0397  -27.7998  -18.2495 C   0  0  1  0  0  0  0  0  0  0  0  0
    9.0328  -28.9152  -18.4175 O   0  0  0  0  0  0  0  0  0  0  0  0
   10.2029  -27.2836  -19.3577 C   0  0  1  0  0  0  0  0  0  0  0  0
    9.0479  -27.6111  -20.2275 O   0  0  0  0  0  0  0  0  0  0  0  0
   10.2783  -25.6390  -19.1055 C   0  0  2  0  0  0  0  0  0  0  0  0
   13.2991  -22.0806  -16.9612 N   0  0  0  0  0  0  0  0  0  0  0  0
   13.9227  -26.0926  -15.6002 O   0  5  0  0  0  0  0  0  0  0  0  0
   13.1882  -26.6686  -11.9147 O   0  5  0  0  0  0  0  0  0  0  0  0
   11.0015  -30.2884  -13.5417 O   0  0  0  0  0  0  0  0  0  0  0  0
   11.9762  -22.1172  -16.9963 C   0  0  0  0  0  0  0  0  0  0  0  0
   11.2184  -21.0521  -16.3711 N   0  0  0  0  0  0  0  0  0  0  0  0
   12.1047  -24.9968  -14.3009 O   0  0  0  0  0  0  0  0  0  0  0  0
   14.7435  -27.9342  -13.3443 O   0  0  0  0  0  0  0  0  0  0  0  0
   13.3244  -30.9740  -13.9925 O   0  5  0  0  0  0  0  0  0  0  0  0
   11.3193  -23.0961  -17.5844 N   0  0  0  0  0  0  0  0  0  0  0  0
   12.3634  -27.5656  -14.1952 O   0  0  0  0  0  0  0  0  0  0  0  0
   12.8623  -29.2189  -12.1457 O   0  0  0  0  0  0  0  0  0  0  0  0
   12.1766  -31.7201  -11.9196 O   0  0  0  0  0  0  0  0  0  0  0  0
   11.9814  -24.0989  -18.1739 C   0  0  0  0  0  0  0  0  0  0  0  0
   13.3613  -24.0849  -18.1522 C   0  0  0  0  0  0  0  0  0  0  0  0
   14.0423  -23.0286  -17.5169 C   0  0  0  0  0  0  0  0  0  0  0  0
   15.4472  -22.9871  -17.4780 O   0  0  0  0  0  0  0  0  0  0  0  0
   13.7881  -25.1823  -18.8000 N   0  0  0  0  0  0  0  0  0  0  0  0
   12.7193  -25.8459  -19.2051 C   0  0  0  0  0  0  0  0  0  0  0  0
   11.6229  -25.2079  -18.8399 N   0  0  0  0  0  0  0  0  0  0  0  0
  1  5  1  6  0  0  0
  1 14  1  0  0  0  0
  1 19  2  0  0  0  0
  1 23  1  0  0  0  0
  2 15  1  1  0  0  0
  2 20  2  0  0  0  0
  2 23  1  0  0  0  0
  2 24  1  0  0  0  0
  3 16  1  6  0  0  0
  3 21  1  0  0  0  0
  3 24  1  0  0  0  0
  3 25  2  0  0  0  0
  4  5  1  0  0  0  0
  6  4  1  1  0  0  0
  6  7  1  0  0  0  0
  6  8  1  0  0  0  0
  7 12  1  0  0  0  0
  8  9  1  6  0  0  0
  8 10  1  0  0  0  0
 10 11  1  6  0  0  0
 10 12  1  0  0  0  0
 12 32  1  1  0  0  0
 13 17  2  0  0  0  0
 13 28  1  0  0  0  0
 17 18  1  0  0  0  0
 17 22  1  0  0  0  0
 22 26  2  0  0  0  0
 26 27  1  0  0  0  0
 26 32  1  0  0  0  0
 27 28  2  0  0  0  0
 27 30  1  0  0  0  0
 28 29  1  0  0  0  0
 30 31  2  0  0  0  0
 31 32  1  0  0  0  0
M  CHG  3  14  -1  15  -1  21  -1
M  END
>  <CHROM.1>
176.12237666,55.91677484,-67.68086623,-62.49401158,-178.71858593,-36.98290627
175.85495063,157.24149542,12.07315655,-26.58878324,-15.91110978,-1.41085689
-0.85516954,-0.63372786

>  <Name>
ligand

>  <RI>
0

>  <Rbt.Current_Directory>
/home/itssahil/PROJECTS/Mol_Feturizer/New_Systems/rnas/4Y1I

>  <Rbt.Executable>
rbdock ($Id: //depot/dev/client3/rdock/2013.1/src/exe/rbdock.cxx#4 $)

>  <Rbt.Library>
libRbt.so (2013.1, Build901 2013/11/27)

>  <Rbt.Parameter_File>
/export/apps/rDock/src/rDock_2013.1_src/data/scripts/dock_solv.prm

>  <Rbt.Receptor>
prm/pocket_docking_5.prm

>  <SCORE>
-0.79607

>  <SCORE.INTER>
6.79468

>  <SCORE.INTER.CONST>
1

>  <SCORE.INTER.POLAR>
0

>  <SCORE.INTER.ROT>
8

>  <SCORE.INTER.SOLV>
8.39738

>  <SCORE.INTER.VDW>
-7.20268

>  <SCORE.INTER.norm>
0.212334

>  <SCORE.INTRA>
-7.59075

>  <SCORE.INTRA.DIHEDRAL>
-8.75312

>  <SCORE.INTRA.DIHEDRAL.0>
10.9594

>  <SCORE.INTRA.POLAR>
0

>  <SCORE.INTRA.POLAR.0>
0

>  <SCORE.INTRA.REPUL>
0

>  <SCORE.INTRA.REPUL.0>
0

>  <SCORE.INTRA.SOLV>
-2.58779

>  <SCORE.INTRA.SOLV.lig_0>
-124.914

>  <SCORE.INTRA.VDW>
-1.92029

>  <SCORE.INTRA.VDW.0>
-4.69801

>  <SCORE.INTRA.norm>
-0.237211

>  <SCORE.RESTR>
0

>  <SCORE.RESTR.CAVITY>
0

>  <SCORE.RESTR.norm>
0

>  <SCORE.SYSTEM>
0

>  <SCORE.SYSTEM.CONST>
0

>  <SCORE.SYSTEM.DIHEDRAL>
0

>  <SCORE.SYSTEM.SOLV>
0

>  <SCORE.SYSTEM.norm>
0

>  <SCORE.heavy>
32

>  <SCORE.norm>
-0.0248772

>  <RMSD>
6.897

$$$$
ligand
 OpenBabel11021811513D
libRbt.so/2013.1/901 2013/11/27
 32 34  0  0  0  0  0  0  0  0999 V2000
   16.7389  -24.9568  -16.7555 P   0  0  1  0  0  0  0  0  0  0  0  0
   19.2385  -24.6974  -18.1396 P   0  0  2  0  0  0  0  0  0  0  0  0
   22.0790  -24.7768  -18.8750 P   0  0  1  0  0  0  0  0  0  0  0  0
   16.1609  -23.3303  -18.7078 C   0  0  0  0  0  0  0  0  0  0  0  0
   16.1019  -23.5506  -17.3272 O   0  0  0  0  0  0  0  0  0  0  0  0
   15.2863  -22.3058  -19.0526 C   0  0  1  0  0  0  0  0  0  0  0  0
   15.7591  -20.9979  -18.4478 O   0  0  0  0  0  0  0  0  0  0  0  0
   15.2583  -22.0719  -20.6327 C   0  0  1  0  0  0  0  0  0  0  0  0
   13.8851  -22.4111  -21.1668 O   0  0  0  0  0  0  0  0  0  0  0  0
   15.4283  -20.8619  -20.8013 C   0  0  1  0  0  0  0  0  0  0  0  0
   14.1131  -20.2003  -20.9753 O   0  0  0  0  0  0  0  0  0  0  0  0
   16.1745  -20.2941  -19.4248 C   0  0  2  0  0  0  0  0  0  0  0  0
   20.1952  -21.6442  -22.3224 N   0  0  0  0  0  0  0  0  0  0  0  0
   16.2637  -25.1971  -15.3439 O   0  5  0  0  0  0  0  0  0  0  0  0
   19.0917  -23.3141  -18.7219 O   0  5  0  0  0  0  0  0  0  0  0  0
   22.2856  -23.2894  -19.0395 O   0  0  0  0  0  0  0  0  0  0  0  0
   18.9079  -21.7269  -22.6201 C   0  0  0  0  0  0  0  0  0  0  0  0
   18.5085  -22.2552  -23.9089 N   0  0  0  0  0  0  0  0  0  0  0  0
   16.3179  -26.0869  -17.6676 O   0  0  0  0  0  0  0  0  0  0  0  0
   18.7139  -25.7150  -19.1184 O   0  0  0  0  0  0  0  0  0  0  0  0
   23.3386  -25.3921  -18.3053 O   0  5  0  0  0  0  0  0  0  0  0  0
   17.9697  -21.3425  -21.7789 N   0  0  0  0  0  0  0  0  0  0  0  0
   18.3763  -24.8239  -16.7484 O   0  0  0  0  0  0  0  0  0  0  0  0
   20.8236  -25.0054  -17.8256 O   0  0  0  0  0  0  0  0  0  0  0  0
   21.7615  -25.3827  -20.2246 O   0  0  0  0  0  0  0  0  0  0  0  0
   18.2962  -20.8491  -20.5782 C   0  0  0  0  0  0  0  0  0  0  0  0
   19.6314  -20.7525  -20.2424 C   0  0  0  0  0  0  0  0  0  0  0  0
   20.6171  -21.1688  -21.1580 C   0  0  0  0  0  0  0  0  0  0  0  0
   21.9850  -21.0821  -20.8446 O   0  0  0  0  0  0  0  0  0  0  0  0
   19.7015  -20.2347  -19.0042 N   0  0  0  0  0  0  0  0  0  0  0  0
   18.4641  -20.0208  -18.5919 C   0  0  0  0  0  0  0  0  0  0  0  0
   17.6048  -20.3869  -19.5246 N   0  0  0  0  0  0  0  0  0  0  0  0
  1  5  1  6  0  0  0
  1 14  1  0  0  0  0
  1 19  2  0  0  0  0
  1 23  1  0  0  0  0
  2 15  1  6  0  0  0
  2 20  2  0  0  0  0
  2 23  1  0  0  0  0
  2 24  1  0  0  0  0
  3 16  1  6  0  0  0
  3 21  1  0  0  0  0
  3 24  1  0  0  0  0
  3 25  2  0  0  0  0
  4  5  1  0  0  0  0
  6  4  1  6  0  0  0
  6  7  1  0  0  0  0
  6  8  1  0  0  0  0
  7 12  1  0  0  0  0
  8  9  1  1  0  0  0
  8 10  1  0  0  0  0
 10 11  1  1  0  0  0
 10 12  1  0  0  0  0
 12 32  1  6  0  0  0
 13 17  2  0  0  0  0
 13 28  1  0  0  0  0
 17 18  1  0  0  0  0
 17 22  1  0  0  0  0
 22 26  2  0  0  0  0
 26 27  1  0  0  0  0
 26 32  1  0  0  0  0
 27 28  2  0  0  0  0
 27 30  1  0  0  0  0
 28 29  1  0  0  0  0
 30 31  2  0  0  0  0
 31 32  1  0  0  0  0
M  CHG  3  14  -1  15  -1  21  -1
M  END
>  <CHROM.1>
-164.67530096,74.96852613,70.74909539,66.15307839,164.21007041,119.87359610
-66.29005068,-49.38289861,18.40430799,-23.00384959,-19.27068728,0.50869917
-0.20942499,2.37284491

>  <Name>
ligand

>  <RI>
0

>  <Rbt.Current_Directory>
/home/itssahil/PROJECTS/Mol_Feturizer/New_Systems/rnas/4Y1I

>  <Rbt.Executable>
rbdock ($Id: //depot/dev/client3/rdock/2013.1/src/exe/rbdock.cxx#4 $)

>  <Rbt.Library>
libRbt.so (2013.1, Build901 2013/11/27)

>  <Rbt.Parameter_File>
/export/apps/rDock/src/rDock_2013.1_src/data/scripts/dock_solv.prm

>  <Rbt.Receptor>
prm/pocket_docking_6.prm

>  <SCORE>
-8.96797

>  <SCORE.INTER>
-3.9552

>  <SCORE.INTER.CONST>
1

>  <SCORE.INTER.POLAR>
0

>  <SCORE.INTER.ROT>
8

>  <SCORE.INTER.SOLV>
12.5213

>  <SCORE.INTER.VDW>
-15.7439

>  <SCORE.INTER.norm>
-0.1236

>  <SCORE.INTRA>
-5.01276

>  <SCORE.INTRA.DIHEDRAL>
-7.2386

>  <SCORE.INTRA.DIHEDRAL.0>
10.9594

>  <SCORE.INTRA.POLAR>
0

>  <SCORE.INTRA.POLAR.0>
0

>  <SCORE.INTRA.REPUL>
0

>  <SCORE.INTRA.REPUL.0>
0

>  <SCORE.INTRA.SOLV>
-0.0682725

>  <SCORE.INTRA.SOLV.lig_0>
-124.914

>  <SCORE.INTRA.VDW>
-1.35933

>  <SCORE.INTRA.VDW.0>
-4.69801

>  <SCORE.INTRA.norm>
-0.156649

>  <SCORE.RESTR>
0

>  <SCORE.RESTR.CAVITY>
0

>  <SCORE.RESTR.norm>
0

>  <SCORE.SYSTEM>
0

>  <SCORE.SYSTEM.CONST>
0

>  <SCORE.SYSTEM.DIHEDRAL>
0

>  <SCORE.SYSTEM.SOLV>
0

>  <SCORE.SYSTEM.norm>
0

>  <SCORE.heavy>
32

>  <SCORE.norm>
-0.280249

>  <RMSD>
6.911

$$$$
ligand
 OpenBabel11021811513D
libRbt.so/2013.1/901 2013/11/27
 32 34  0  0  0  0  0  0  0  0999 V2000
   20.2277  -25.6572  -18.9046 P   0  0  1  0  0  0  0  0  0  0  0  0
   22.9886  -26.3487  -18.5437 P   0  0  2  0  0  0  0  0  0  0  0  0
   23.5221  -29.1768  -19.1201 P   0  0  1  0  0  0  0  0  0  0  0  0
   19.3454  -23.2051  -18.8948 C   0  0  0  0  0  0  0  0  0  0  0  0
   19.3708  -24.4247  -19.5804 O   0  0  0  0  0  0  0  0  0  0  0  0
   18.7005  -22.2489  -19.6714 C   0  0  1  0  0  0  0  0  0  0  0  0
   17.3021  -22.7225  -20.0179 O   0  0  0  0  0  0  0  0  0  0  0  0
   18.5123  -20.8794  -18.8706 C   0  0  1  0  0  0  0  0  0  0  0  0
   19.3218  -19.7911  -19.5386 O   0  0  0  0  0  0  0  0  0  0  0  0
   17.3227  -20.5760  -18.9888 C   0  0  1  0  0  0  0  0  0  0  0  0
   17.1707  -19.6065  -20.1000 O   0  0  0  0  0  0  0  0  0  0  0  0
   16.5098  -21.9850  -19.3465 C   0  0  2  0  0  0  0  0  0  0  0  0
   13.1324  -22.2027  -15.4824 N   0  0  0  0  0  0  0  0  0  0  0  0
   19.7969  -25.8546  -17.4723 O   0  5  0  0  0  0  0  0  0  0  0  0
   23.0128  -26.5839  -17.0542 O   0  5  0  0  0  0  0  0  0  0  0  0
   24.9827  -28.9043  -19.3932 O   0  0  0  0  0  0  0  0  0  0  0  0
   13.1826  -21.3300  -16.4767 C   0  0  0  0  0  0  0  0  0  0  0  0
   12.1915  -20.2754  -16.5482 N   0  0  0  0  0  0  0  0  0  0  0  0
   19.9967  -26.9116  -19.7166 O   0  0  0  0  0  0  0  0  0  0  0  0
   24.3180  -25.7982  -18.9890 O   0  0  0  0  0  0  0  0  0  0  0  0
   23.3658  -29.6560  -17.6933 O   0  5  0  0  0  0  0  0  0  0  0  0
   14.1097  -21.3874  -17.4110 N   0  0  0  0  0  0  0  0  0  0  0  0
   21.8217  -25.2604  -18.9292 O   0  0  0  0  0  0  0  0  0  0  0  0
   22.6912  -27.7640  -19.3274 O   0  0  0  0  0  0  0  0  0  0  0  0
   23.0282  -30.2314  -20.0862 O   0  0  0  0  0  0  0  0  0  0  0  0
   15.0437  -22.3457  -17.3817 C   0  0  0  0  0  0  0  0  0  0  0  0
   15.0145  -23.2682  -16.3554 C   0  0  0  0  0  0  0  0  0  0  0  0
   14.0136  -23.1877  -15.3680 C   0  0  0  0  0  0  0  0  0  0  0  0
   13.9577  -24.1132  -14.3110 O   0  0  0  0  0  0  0  0  0  0  0  0
   16.0400  -24.1163  -16.5434 N   0  0  0  0  0  0  0  0  0  0  0  0
   16.6760  -23.7350  -17.6374 C   0  0  0  0  0  0  0  0  0  0  0  0
   16.0926  -22.6696  -18.1542 N   0  0  0  0  0  0  0  0  0  0  0  0
  1  5  1  6  0  0  0
  1 14  1  0  0  0  0
  1 19  2  0  0  0  0
  1 23  1  0  0  0  0
  2 15  1  1  0  0  0
  2 20  2  0  0  0  0
  2 23  1  0  0  0  0
  2 24  1  0  0  0  0
  3 16  1  6  0  0  0
  3 21  1  0  0  0  0
  3 24  1  0  0  0  0
  3 25  2  0  0  0  0
  4  5  1  0  0  0  0
  6  4  1  1  0  0  0
  6  7  1  0  0  0  0
  6  8  1  0  0  0  0
  7 12  1  0  0  0  0
  8  9  1  6  0  0  0
  8 10  1  0  0  0  0
 10 11  1  6  0  0  0
 10 12  1  0  0  0  0
 12 32  1  1  0  0  0
 13 17  2  0  0  0  0
 13 28  1  0  0  0  0
 17 18  1  0  0  0  0
 17 22  1  0  0  0  0
 22 26  2  0  0  0  0
 26 27  1  0  0  0  0
 26 32  1  0  0  0  0
 27 28  2  0  0  0  0
 27 30  1  0  0  0  0
 28 29  1  0  0  0  0
 30 31  2  0  0  0  0
 31 32  1  0  0  0  0
M  CHG  3  14  -1  15  -1  21  -1
M  END
>  <CHROM.1>
52.12334508,-74.03870874,-56.57010812,57.11595020,173.80575821,-163.40933754
-170.60629484,-52.55707653,19.09133535,-24.54644110,-18.30288578,-0.47116987
0.48284524,-0.47302918

>  <Name>
ligand

>  <RI>
0

>  <Rbt.Current_Directory>
/home/itssahil/PROJECTS/Mol_Feturizer/New_Systems/rnas/4Y1I

>  <Rbt.Executable>
rbdock ($Id: //depot/dev/client3/rdock/2013.1/src/exe/rbdock.cxx#4 $)

>  <Rbt.Library>
libRbt.so (2013.1, Build901 2013/11/27)

>  <Rbt.Parameter_File>
/export/apps/rDock/src/rDock_2013.1_src/data/scripts/dock_solv.prm

>  <Rbt.Receptor>
prm/pocket_docking_6.prm

>  <SCORE>
-6.91205

>  <SCORE.INTER>
-0.719561

>  <SCORE.INTER.CONST>
1

>  <SCORE.INTER.POLAR>
0

>  <SCORE.INTER.ROT>
8

>  <SCORE.INTER.SOLV>
16.0112

>  <SCORE.INTER.VDW>
-14.7501

>  <SCORE.INTER.norm>
-0.0224863

>  <SCORE.INTRA>
-6.19249

>  <SCORE.INTRA.DIHEDRAL>
-8.89368

>  <SCORE.INTRA.DIHEDRAL.0>
10.9594

>  <SCORE.INTRA.POLAR>
0

>  <SCORE.INTRA.POLAR.0>
0

>  <SCORE.INTRA.REPUL>
0

>  <SCORE.INTRA.REPUL.0>
0

>  <SCORE.INTRA.SOLV>
-4.30809

>  <SCORE.INTRA.SOLV.lig_0>
-124.914

>  <SCORE.INTRA.VDW>
0.408392

>  <SCORE.INTRA.VDW.0>
-4.69801

>  <SCORE.INTRA.norm>
-0.193515

>  <SCORE.RESTR>
0

>  <SCORE.RESTR.CAVITY>
0

>  <SCORE.RESTR.norm>
0

>  <SCORE.SYSTEM>
0

>  <SCORE.SYSTEM.CONST>
0

>  <SCORE.SYSTEM.DIHEDRAL>
0

>  <SCORE.SYSTEM.SOLV>
0

>  <SCORE.SYSTEM.norm>
0

>  <SCORE.heavy>
32

>  <SCORE.norm>
-0.216002

>  <RMSD>
6.913

$$$$
ligand
 OpenBabel11021811513D
libRbt.so/2013.1/901 2013/11/27
 32 34  0  0  0  0  0  0  0  0999 V2000
   15.7455  -21.8356  -18.7854 P   0  0  1  0  0  0  0  0  0  0  0  0
   14.5074  -22.8940  -16.4237 P   0  0  2  0  0  0  0  0  0  0  0  0
   12.1071  -24.4831  -16.9971 P   0  0  1  0  0  0  0  0  0  0  0  0
   18.0328  -20.5872  -18.7494 C   0  0  0  0  0  0  0  0  0  0  0  0
   16.7039  -20.5586  -19.1866 O   0  0  0  0  0  0  0  0  0  0  0  0
   18.7145  -19.4894  -19.2626 C   0  0  1  0  0  0  0  0  0  0  0  0
   20.0966  -19.4046  -18.6440 O   0  0  0  0  0  0  0  0  0  0  0  0
   18.9481  -19.6333  -20.8364 C   0  0  1  0  0  0  0  0  0  0  0  0
   18.1808  -18.5497  -21.5597 O   0  0  0  0  0  0  0  0  0  0  0  0
   20.1483  -19.4197  -21.0240 C   0  0  1  0  0  0  0  0  0  0  0  0
   20.3394  -18.0043  -21.4214 O   0  0  0  0  0  0  0  0  0  0  0  0
   20.9119  -19.7124  -19.5730 C   0  0  2  0  0  0  0  0  0  0  0  0
   24.6326  -23.0295  -18.3326 N   0  0  0  0  0  0  0  0  0  0  0  0
   14.4690  -21.7893  -19.5883 O   0  5  0  0  0  0  0  0  0  0  0  0
   14.0125  -22.3887  -15.0917 O   0  5  0  0  0  0  0  0  0  0  0  0
   11.4037  -24.0627  -15.7279 O   0  0  0  0  0  0  0  0  0  0  0  0
   24.6767  -21.7065  -18.3141 C   0  0  0  0  0  0  0  0  0  0  0  0
   25.8963  -21.0412  -17.9025 N   0  0  0  0  0  0  0  0  0  0  0  0
   16.5055  -23.1154  -19.0511 O   0  0  0  0  0  0  0  0  0  0  0  0
   15.4024  -24.0865  -16.2099 O   0  0  0  0  0  0  0  0  0  0  0  0
   11.0932  -24.5832  -18.1158 O   0  5  0  0  0  0  0  0  0  0  0  0
   23.6420  -20.9677  -18.6596 N   0  0  0  0  0  0  0  0  0  0  0  0
   15.3722  -21.7275  -17.1893 O   0  0  0  0  0  0  0  0  0  0  0  0
   13.2304  -23.3289  -17.3650 O   0  0  0  0  0  0  0  0  0  0  0  0
   12.7744  -25.8221  -16.7706 O   0  0  0  0  0  0  0  0  0  0  0  0
   22.4969  -21.5428  -19.0462 C   0  0  0  0  0  0  0  0  0  0  0  0
   22.4243  -22.9208  -19.0750 C   0  0  0  0  0  0  0  0  0  0  0  0
   23.5427  -23.6903  -18.7006 C   0  0  0  0  0  0  0  0  0  0  0  0
   23.4988  -25.0955  -18.7192 O   0  0  0  0  0  0  0  0  0  0  0  0
   21.1902  -23.2531  -19.4906 N   0  0  0  0  0  0  0  0  0  0  0  0
   20.5286  -22.1301  -19.7098 C   0  0  0  0  0  0  0  0  0  0  0  0
   21.2994  -21.0905  -19.4504 N   0  0  0  0  0  0  0  0  0  0  0  0
  1  5  1  6  0  0  0
  1 14  1  0  0  0  0
  1 19  2  0  0  0  0
  1 23  1  0  0  0  0
  2 15  1  1  0  0  0
  2 20  2  0  0  0  0
  2 23  1  0  0  0  0
  2 24  1  0  0  0  0
  3 16  1  1  0  0  0
  3 21  1  0  0  0  0
  3 24  1  0  0  0  0
  3 25  2  0  0  0  0
  4  5  1  0  0  0  0
  6  4  1  1  0  0  0
  6  7  1  0  0  0  0
  6  8  1  0  0  0  0
  7 12  1  0  0  0  0
  8  9  1  6  0  0  0
  8 10  1  0  0  0  0
 10 11  1  1  0  0  0
 10 12  1  0  0  0  0
 12 32  1  6  0  0  0
 13 17  2  0  0  0  0
 13 28  1  0  0  0  0
 17 18  1  0  0  0  0
 17 22  1  0  0  0  0
 22 26  2  0  0  0  0
 26 27  1  0  0  0  0
 26 32  1  0  0  0  0
 27 28  2  0  0  0  0
 27 30  1  0  0  0  0
 28 29  1  0  0  0  0
 30 31  2  0  0  0  0
 31 32  1  0  0  0  0
M  CHG  3  14  -1  15  -1  21  -1
M  END
>  <CHROM.1>
-167.20800048,-165.51731822,61.00661994,172.20685718,175.45043223,-107.72792478
-175.93718108,-59.75704591,17.84895637,-22.07861193,-18.43332072,2.82668913
-0.06552387,2.58395360

>  <Name>
ligand

>  <RI>
0

>  <Rbt.Current_Directory>
/home/itssahil/PROJECTS/Mol_Feturizer/New_Systems/rnas/4Y1I

>  <Rbt.Executable>
rbdock ($Id: //depot/dev/client3/rdock/2013.1/src/exe/rbdock.cxx#4 $)

>  <Rbt.Library>
libRbt.so (2013.1, Build901 2013/11/27)

>  <Rbt.Parameter_File>
/export/apps/rDock/src/rDock_2013.1_src/data/scripts/dock_solv.prm

>  <Rbt.Receptor>
prm/pocket_docking_7.prm

>  <SCORE>
-10.7361

>  <SCORE.INTER>
-4.52173

>  <SCORE.INTER.CONST>
1

>  <SCORE.INTER.POLAR>
0

>  <SCORE.INTER.ROT>
8

>  <SCORE.INTER.SOLV>
12.0732

>  <SCORE.INTER.VDW>
-15.9722

>  <SCORE.INTER.norm>
-0.141304

>  <SCORE.INTRA>
-6.21797

>  <SCORE.INTRA.DIHEDRAL>
-8.77159

>  <SCORE.INTRA.DIHEDRAL.0>
10.9594

>  <SCORE.INTRA.POLAR>
0

>  <SCORE.INTRA.POLAR.0>
0

>  <SCORE.INTRA.REPUL>
0

>  <SCORE.INTRA.REPUL.0>
0

>  <SCORE.INTRA.SOLV>
-4.33748

>  <SCORE.INTRA.SOLV.lig_0>
-124.914

>  <SCORE.INTRA.VDW>
0.336563

>  <SCORE.INTRA.VDW.0>
-4.69801

>  <SCORE.INTRA.norm>
-0.194312

>  <SCORE.RESTR>
0.00357279

>  <SCORE.RESTR.CAVITY>
0.00357279

>  <SCORE.RESTR.norm>
0.00011165

>  <SCORE.SYSTEM>
0

>  <SCORE.SYSTEM.CONST>
0

>  <SCORE.SYSTEM.DIHEDRAL>
0

>  <SCORE.SYSTEM.SOLV>
0

>  <SCORE.SYSTEM.norm>
0

>  <SCORE.heavy>
32

>  <SCORE.norm>
-0.335504

>  <RMSD>
6.924

$$$$
ligand
 OpenBabel11021811513D
libRbt.so/2013.1/901 2013/11/27
 32 34  0  0  0  0  0  0  0  0999 V2000
   16.3298  -22.0520  -18.8426 P   0  0  1  0  0  0  0  0  0  0  0  0
   14.6499  -22.7691  -16.6302 P   0  0  2  0  0  0  0  0  0  0  0  0
   13.7605  -23.3269  -13.8892 P   0  0  1  0  0  0  0  0  0  0  0  0
   18.4367  -20.5184  -18.8320 C   0  0  0  0  0  0  0  0  0  0  0  0
   17.1528  -20.7199  -19.3506 O   0  0  0  0  0  0  0  0  0  0  0  0
   18.9675  -19.3421  -19.3495 C   0  0  1  0  0  0  0  0  0  0  0  0
   20.2935  -19.0357  -18.6803 O   0  0  0  0  0  0  0  0  0  0  0  0
   19.2872  -19.4843  -20.9082 C   0  0  1  0  0  0  0  0  0  0  0  0
   18.3977  -18.5454  -21.6915 O   0  0  0  0  0  0  0  0  0  0  0  0
   20.4487  -19.0962  -21.0550 C   0  0  1  0  0  0  0  0  0  0  0  0
   20.4423  -17.6774  -21.4850 O   0  0  0  0  0  0  0  0  0  0  0  0
   21.1848  -19.2377  -19.5676 C   0  0  2  0  0  0  0  0  0  0  0  0
   20.9832  -24.2302  -20.7592 N   0  0  0  0  0  0  0  0  0  0  0  0
   15.1895  -22.3400  -19.7876 O   0  5  0  0  0  0  0  0  0  0  0  0
   15.0386  -24.2024  -16.8922 O   0  5  0  0  0  0  0  0  0  0  0  0
   12.3144  -23.3289  -14.3264 O   0  0  0  0  0  0  0  0  0  0  0  0
   20.1807  -23.2591  -21.1661 C   0  0  0  0  0  0  0  0  0  0  0  0
   19.0853  -23.5702  -22.0621 N   0  0  0  0  0  0  0  0  0  0  0  0
   17.2880  -23.2200  -18.7794 O   0  0  0  0  0  0  0  0  0  0  0  0
   13.2815  -22.5050  -17.2015 O   0  0  0  0  0  0  0  0  0  0  0  0
   14.2601  -24.7537  -13.8231 O   0  5  0  0  0  0  0  0  0  0  0  0
   20.3446  -22.0097  -20.7818 N   0  0  0  0  0  0  0  0  0  0  0  0
   15.7171  -21.7495  -17.3487 O   0  0  0  0  0  0  0  0  0  0  0  0
   14.6322  -22.4829  -15.0104 O   0  0  0  0  0  0  0  0  0  0  0  0
   13.8637  -22.6700  -12.5301 O   0  0  0  0  0  0  0  0  0  0  0  0
   21.3438  -21.6801  -19.9545 C   0  0  0  0  0  0  0  0  0  0  0  0
   22.1950  -22.6737  -19.5148 C   0  0  0  0  0  0  0  0  0  0  0  0
   22.0011  -24.0023  -19.9394 C   0  0  0  0  0  0  0  0  0  0  0  0
   22.8518  -25.0357  -19.5090 O   0  0  0  0  0  0  0  0  0  0  0  0
   23.1031  -22.1011  -18.7064 N   0  0  0  0  0  0  0  0  0  0  0  0
   22.8258  -20.8101  -18.6481 C   0  0  0  0  0  0  0  0  0  0  0  0
   21.7688  -20.5385  -19.3906 N   0  0  0  0  0  0  0  0  0  0  0  0
  1  5  1  6  0  0  0
  1 14  1  0  0  0  0
  1 19  2  0  0  0  0
  1 23  1  0  0  0  0
  2 15  1  6  0  0  0
  2 20  2  0  0  0  0
  2 23  1  0  0  0  0
  2 24  1  0  0  0  0
  3 16  1  6  0  0  0
  3 21  1  0  0  0  0
  3 24  1  0  0  0  0
  3 25  2  0  0  0  0
  4  5  1  0  0  0  0
  6  4  1  1  0  0  0
  6  7  1  0  0  0  0
  6  8  1  0  0  0  0
  7 12  1  0  0  0  0
  8  9  1  6  0  0  0
  8 10  1  0  0  0  0
 10 11  1  1  0  0  0
 10 12  1  0  0  0  0
 12 32  1  1  0  0  0
 13 17  2  0  0  0  0
 13 28  1  0  0  0  0
 17 18  1  0  0  0  0
 17 22  1  0  0  0  0
 22 26  2  0  0  0  0
 26 27  1  0  0  0  0
 26 32  1  0  0  0  0
 27 28  2  0  0  0  0
 27 30  1  0  0  0  0
 28 29  1  0  0  0  0
 30 31  2  0  0  0  0
 31 32  1  0  0  0  0
M  CHG  3  14  -1  15  -1  21  -1
M  END
>  <CHROM.1>
-162.64139456,39.93627264,-53.76547115,173.85995395,-178.95275157,90.32414009
170.57306159,-55.67730815,17.84104038,-21.94608459,-18.32923974,2.63320131
-0.45335704,2.61356615

>  <Name>
ligand

>  <RI>
0

>  <Rbt.Current_Directory>
/home/itssahil/PROJECTS/Mol_Feturizer/New_Systems/rnas/4Y1I

>  <Rbt.Executable>
rbdock ($Id: //depot/dev/client3/rdock/2013.1/src/exe/rbdock.cxx#4 $)

>  <Rbt.Library>
libRbt.so (2013.1, Build901 2013/11/27)

>  <Rbt.Parameter_File>
/export/apps/rDock/src/rDock_2013.1_src/data/scripts/dock_solv.prm

>  <Rbt.Receptor>
prm/pocket_docking_8.prm

>  <SCORE>
-8.29213

>  <SCORE.INTER>
-3.60085

>  <SCORE.INTER.CONST>
1

>  <SCORE.INTER.POLAR>
0

>  <SCORE.INTER.ROT>
8

>  <SCORE.INTER.SOLV>
10.2425

>  <SCORE.INTER.VDW>
-14.7481

>  <SCORE.INTER.norm>
-0.112527

>  <SCORE.INTRA>
-4.69128

>  <SCORE.INTRA.DIHEDRAL>
-8.2518

>  <SCORE.INTRA.DIHEDRAL.0>
10.9594

>  <SCORE.INTRA.POLAR>
0

>  <SCORE.INTRA.POLAR.0>
0

>  <SCORE.INTRA.REPUL>
0

>  <SCORE.INTRA.REPUL.0>
0

>  <SCORE.INTRA.SOLV>
-1.11356

>  <SCORE.INTRA.SOLV.lig_0>
-124.914

>  <SCORE.INTRA.VDW>
-0.00860308

>  <SCORE.INTRA.VDW.0>
-4.69801

>  <SCORE.INTRA.norm>
-0.146603

>  <SCORE.RESTR>
0

>  <SCORE.RESTR.CAVITY>
0

>  <SCORE.RESTR.norm>
0

>  <SCORE.SYSTEM>
0

>  <SCORE.SYSTEM.CONST>
0

>  <SCORE.SYSTEM.DIHEDRAL>
0

>  <SCORE.SYSTEM.SOLV>
0

>  <SCORE.SYSTEM.norm>
0

>  <SCORE.heavy>
32

>  <SCORE.norm>
-0.259129

>  <RMSD>
6.937

$$$$
ligand
 OpenBabel11021811513D
libRbt.so/2013.1/901 2013/11/27
 32 34  0  0  0  0  0  0  0  0999 V2000
   18.4349  -25.2213  -21.5727 P   0  0  1  0  0  0  0  0  0  0  0  0
   17.5624  -22.5572  -20.9625 P   0  0  2  0  0  0  0  0  0  0  0  0
   16.3792  -19.8723  -21.0427 P   0  0  1  0  0  0  0  0  0  0  0  0
   20.8968  -24.3667  -21.5843 C   0  0  0  0  0  0  0  0  0  0  0  0
   19.8920  -24.9956  -20.8407 O   0  0  0  0  0  0  0  0  0  0  0  0
   22.0777  -24.3517  -20.8504 C   0  0  1  0  0  0  0  0  0  0  0  0
   21.8880  -23.5403  -19.5833 O   0  0  0  0  0  0  0  0  0  0  0  0
   22.4840  -25.8208  -20.3720 C   0  0  1  0  0  0  0  0  0  0  0  0
   23.7806  -26.2252  -21.0363 O   0  0  0  0  0  0  0  0  0  0  0  0
   22.7035  -25.7366  -19.1612 C   0  0  1  0  0  0  0  0  0  0  0  0
   24.1602  -25.5777  -18.9356 O   0  0  0  0  0  0  0  0  0  0  0  0
   21.8932  -24.3827  -18.6279 C   0  0  2  0  0  0  0  0  0  0  0  0
   18.6121  -28.0039  -17.0447 N   0  0  0  0  0  0  0  0  0  0  0  0
   18.6048  -26.0927  -22.7925 O   0  5  0  0  0  0  0  0  0  0  0  0
   18.8583  -22.0513  -20.3805 O   0  5  0  0  0  0  0  0  0  0  0  0
   17.6629  -19.1682  -20.6699 O   0  0  0  0  0  0  0  0  0  0  0  0
   19.8995  -28.1327  -17.3250 C   0  0  0  0  0  0  0  0  0  0  0  0
   20.5303  -29.4302  -17.1906 N   0  0  0  0  0  0  0  0  0  0  0  0
   17.4868  -25.8574  -20.5814 O   0  0  0  0  0  0  0  0  0  0  0  0
   16.6959  -23.1087  -19.8608 O   0  0  0  0  0  0  0  0  0  0  0  0
   15.6262  -19.0298  -22.0491 O   0  5  0  0  0  0  0  0  0  0  0  0
   20.6332  -27.1142  -17.7250 N   0  0  0  0  0  0  0  0  0  0  0  0
   17.8541  -23.7583  -22.0428 O   0  0  0  0  0  0  0  0  0  0  0  0
   16.7723  -21.3279  -21.7179 O   0  0  0  0  0  0  0  0  0  0  0  0
   15.5461  -20.0717  -19.7954 O   0  0  0  0  0  0  0  0  0  0  0  0
   20.0891  -25.8990  -17.8623 C   0  0  0  0  0  0  0  0  0  0  0  0
   18.7484  -25.7373  -17.5769 C   0  0  0  0  0  0  0  0  0  0  0  0
   17.9839  -26.8402  -17.1501 C   0  0  0  0  0  0  0  0  0  0  0  0
   16.6164  -26.7064  -16.8516 O   0  0  0  0  0  0  0  0  0  0  0  0
   18.4420  -24.4458  -17.7878 N   0  0  0  0  0  0  0  0  0  0  0  0
   19.5444  -23.8355  -18.1865 C   0  0  0  0  0  0  0  0  0  0  0  0
   20.5453  -24.6943  -18.2399 N   0  0  0  0  0  0  0  0  0  0  0  0
  1  5  1  1  0  0  0
  1 14  1  0  0  0  0
  1 19  2  0  0  0  0
  1 23  1  0  0  0  0
  2 15  1  1  0  0  0
  2 20  2  0  0  0  0
  2 23  1  0  0  0  0
  2 24  1  0  0  0  0
  3 16  1  1  0  0  0
  3 21  1  0  0  0  0
  3 24  1  0  0  0  0
  3 25  2  0  0  0  0
  4  5  1  0  0  0  0
  6  4  1  1  0  0  0
  6  7  1  0  0  0  0
  6  8  1  0  0  0  0
  7 12  1  0  0  0  0
  8  9  1  6  0  0  0
  8 10  1  0  0  0  0
 10 11  1  6  0  0  0
 10 12  1  0  0  0  0
 12 32  1  6  0  0  0
 13 17  2  0  0  0  0
 13 28  1  0  0  0  0
 17 18  1  0  0  0  0
 17 22  1  0  0  0  0
 22 26  2  0  0  0  0
 26 27  1  0  0  0  0
 26 32  1  0  0  0  0
 27 28  2  0  0  0  0
 27 30  1  0  0  0  0
 28 29  1  0  0  0  0
 30 31  2  0  0  0  0
 31 32  1  0  0  0  0
M  CHG  3  14  -1  15  -1  21  -1
M  END
>  <CHROM.1>
60.81085233,68.07088196,62.66915347,-62.65164975,-175.53238354,142.40514070
-60.00959803,-54.09926613,19.09690500,-24.20984690,-19.85034115,-2.19808999
-0.29854425,2.53298325

>  <Name>
ligand

>  <RI>
0

>  <Rbt.Current_Directory>
/home/itssahil/PROJECTS/Mol_Feturizer/New_Systems/rnas/4Y1I

>  <Rbt.Executable>
rbdock ($Id: //depot/dev/client3/rdock/2013.1/src/exe/rbdock.cxx#4 $)

>  <Rbt.Library>
libRbt.so (2013.1, Build901 2013/11/27)

>  <Rbt.Parameter_File>
/export/apps/rDock/src/rDock_2013.1_src/data/scripts/dock_solv.prm

>  <Rbt.Receptor>
prm/pocket_docking_5.prm

>  <SCORE>
-6.00851

>  <SCORE.INTER>
1.20635

>  <SCORE.INTER.CONST>
1

>  <SCORE.INTER.POLAR>
0

>  <SCORE.INTER.ROT>
8

>  <SCORE.INTER.SOLV>
7.28645

>  <SCORE.INTER.VDW>
-10.5579

>  <SCORE.INTER.norm>
0.0376986

>  <SCORE.INTRA>
-7.21487

>  <SCORE.INTRA.DIHEDRAL>
-9.44641

>  <SCORE.INTRA.DIHEDRAL.0>
10.9594

>  <SCORE.INTRA.POLAR>
0

>  <SCORE.INTRA.POLAR.0>
0

>  <SCORE.INTRA.REPUL>
0

>  <SCORE.INTRA.REPUL.0>
0

>  <SCORE.INTRA.SOLV>
0.239741

>  <SCORE.INTRA.SOLV.lig_0>
-124.914

>  <SCORE.INTRA.VDW>
-2.61153

>  <SCORE.INTRA.VDW.0>
-4.69801

>  <SCORE.INTRA.norm>
-0.225465

>  <SCORE.RESTR>
0

>  <SCORE.RESTR.CAVITY>
0

>  <SCORE.RESTR.norm>
0

>  <SCORE.SYSTEM>
0

>  <SCORE.SYSTEM.CONST>
0

>  <SCORE.SYSTEM.DIHEDRAL>
0

>  <SCORE.SYSTEM.SOLV>
0

>  <SCORE.SYSTEM.norm>
0

>  <SCORE.heavy>
32

>  <SCORE.norm>
-0.187766

>  <RMSD>
6.940

$$$$
ligand
 OpenBabel11021811513D
libRbt.so/2013.1/901 2013/11/27
 32 34  0  0  0  0  0  0  0  0999 V2000
   16.2289  -20.6279  -19.5615 P   0  0  1  0  0  0  0  0  0  0  0  0
   14.8169  -22.0578  -17.5138 P   0  0  2  0  0  0  0  0  0  0  0  0
   13.9840  -23.2866  -14.9818 P   0  0  1  0  0  0  0  0  0  0  0  0
   18.7749  -20.4244  -19.0442 C   0  0  0  0  0  0  0  0  0  0  0  0
   17.6760  -19.8547  -19.6967 O   0  0  0  0  0  0  0  0  0  0  0  0
   19.9291  -20.1832  -19.7812 C   0  0  1  0  0  0  0  0  0  0  0  0
   21.1282  -20.7852  -19.0743 O   0  0  0  0  0  0  0  0  0  0  0  0
   19.8644  -20.8910  -21.2119 C   0  0  1  0  0  0  0  0  0  0  0  0
   19.8515  -19.8357  -22.2947 O   0  0  0  0  0  0  0  0  0  0  0  0
   20.9177  -21.5222  -21.3281 C   0  0  1  0  0  0  0  0  0  0  0  0
   21.8929  -20.7136  -22.0982 O   0  0  0  0  0  0  0  0  0  0  0  0
   21.4852  -21.7810  -19.7838 C   0  0  2  0  0  0  0  0  0  0  0  0
   22.5333  -26.4347  -17.8784 N   0  0  0  0  0  0  0  0  0  0  0  0
   15.1185  -19.7212  -20.0318 O   0  5  0  0  0  0  0  0  0  0  0  0
   15.0795  -23.4168  -18.1124 O   0  5  0  0  0  0  0  0  0  0  0  0
   14.5019  -24.6541  -15.3613 O   0  0  0  0  0  0  0  0  0  0  0  0
   23.3826  -25.5272  -18.3345 C   0  0  0  0  0  0  0  0  0  0  0  0
   24.8028  -25.8144  -18.3256 N   0  0  0  0  0  0  0  0  0  0  0  0
   16.2770  -21.8957  -20.3842 O   0  0  0  0  0  0  0  0  0  0  0  0
   13.4843  -21.5445  -17.9927 O   0  0  0  0  0  0  0  0  0  0  0  0
   14.2358  -23.0528  -13.5081 O   0  5  0  0  0  0  0  0  0  0  0  0
   22.9783  -24.3629  -18.7999 N   0  0  0  0  0  0  0  0  0  0  0  0
   15.9790  -20.9963  -17.9802 O   0  0  0  0  0  0  0  0  0  0  0  0
   14.8058  -22.1637  -15.8723 O   0  0  0  0  0  0  0  0  0  0  0  0
   12.5019  -23.2208  -15.2791 O   0  0  0  0  0  0  0  0  0  0  0  0
   21.6752  -24.0584  -18.8259 C   0  0  0  0  0  0  0  0  0  0  0  0
   20.7683  -24.9870  -18.3566 C   0  0  0  0  0  0  0  0  0  0  0  0
   21.2235  -26.2249  -17.8630 C   0  0  0  0  0  0  0  0  0  0  0  0
   20.3239  -27.1905  -17.3779 O   0  0  0  0  0  0  0  0  0  0  0  0
   19.5406  -24.4556  -18.4854 N   0  0  0  0  0  0  0  0  0  0  0  0
   19.6817  -23.2515  -19.0117 C   0  0  0  0  0  0  0  0  0  0  0  0
   20.9589  -22.9960  -19.2259 N   0  0  0  0  0  0  0  0  0  0  0  0
  1  5  1  6  0  0  0
  1 14  1  0  0  0  0
  1 19  2  0  0  0  0
  1 23  1  0  0  0  0
  2 15  1  6  0  0  0
  2 20  2  0  0  0  0
  2 23  1  0  0  0  0
  2 24  1  0  0  0  0
  3 16  1  6  0  0  0
  3 21  1  0  0  0  0
  3 24  1  0  0  0  0
  3 25  2  0  0  0  0
  4  5  1  0  0  0  0
  6  4  1  1  0  0  0
  6  7  1  0  0  0  0
  6  8  1  0  0  0  0
  7 12  1  0  0  0  0
  8  9  1  6  0  0  0
  8 10  1  0  0  0  0
 10 11  1  6  0  0  0
 10 12  1  0  0  0  0
 12 32  1  1  0  0  0
 13 17  2  0  0  0  0
 13 28  1  0  0  0  0
 17 18  1  0  0  0  0
 17 22  1  0  0  0  0
 22 26  2  0  0  0  0
 26 27  1  0  0  0  0
 26 32  1  0  0  0  0
 27 28  2  0  0  0  0
 27 30  1  0  0  0  0
 28 29  1  0  0  0  0
 30 31  2  0  0  0  0
 31 32  1  0  0  0  0
M  CHG  3  14  -1  15  -1  21  -1
M  END
>  <CHROM.1>
166.48092972,60.81849518,60.84859116,179.43177940,146.88797535,-121.85907567
-165.90561566,-48.00279630,18.10128788,-22.60871542,-18.39329758,3.01377218
-0.36949347,2.43706547

>  <Name>
ligand

>  <RI>
0

>  <Rbt.Current_Directory>
/home/itssahil/PROJECTS/Mol_Feturizer/New_Systems/rnas/4Y1I

>  <Rbt.Executable>
rbdock ($Id: //depot/dev/client3/rdock/2013.1/src/exe/rbdock.cxx#4 $)

>  <Rbt.Library>
libRbt.so (2013.1, Build901 2013/11/27)

>  <Rbt.Parameter_File>
/export/apps/rDock/src/rDock_2013.1_src/data/scripts/dock_solv.prm

>  <Rbt.Receptor>
prm/pocket_docking_5.prm

>  <SCORE>
-9.60344

>  <SCORE.INTER>
-6.31493

>  <SCORE.INTER.CONST>
1

>  <SCORE.INTER.POLAR>
0

>  <SCORE.INTER.ROT>
8

>  <SCORE.INTER.SOLV>
15.008

>  <SCORE.INTER.VDW>
-18.1459

>  <SCORE.INTER.norm>
-0.197342

>  <SCORE.INTRA>
-3.28851

>  <SCORE.INTRA.DIHEDRAL>
-4.77035

>  <SCORE.INTRA.DIHEDRAL.0>
10.9594

>  <SCORE.INTRA.POLAR>
0

>  <SCORE.INTRA.POLAR.0>
0

>  <SCORE.INTRA.REPUL>
0

>  <SCORE.INTRA.REPUL.0>
0

>  <SCORE.INTRA.SOLV>
-2.35568

>  <SCORE.INTRA.SOLV.lig_0>
-124.914

>  <SCORE.INTRA.VDW>
0.27451

>  <SCORE.INTRA.VDW.0>
-4.69801

>  <SCORE.INTRA.norm>
-0.102766

>  <SCORE.RESTR>
0

>  <SCORE.RESTR.CAVITY>
0

>  <SCORE.RESTR.norm>
0

>  <SCORE.SYSTEM>
0

>  <SCORE.SYSTEM.CONST>
0

>  <SCORE.SYSTEM.DIHEDRAL>
0

>  <SCORE.SYSTEM.SOLV>
0

>  <SCORE.SYSTEM.norm>
0

>  <SCORE.heavy>
32

>  <SCORE.norm>
-0.300107

>  <RMSD>
6.956

$$$$
ligand
 OpenBabel11021811513D
libRbt.so/2013.1/901 2013/11/27
 32 34  0  0  0  0  0  0  0  0999 V2000
   13.9425  -20.2209  -20.1366 P   0  0  1  0  0  0  0  0  0  0  0  0
   14.2168  -21.6357  -17.6558 P   0  0  2  0  0  0  0  0  0  0  0  0
   14.9505  -24.4597  -17.3368 P   0  0  1  0  0  0  0  0  0  0  0  0
   16.4147  -20.1973  -20.9608 C   0  0  0  0  0  0  0  0  0  0  0  0
   15.4579  -19.5778  -20.1492 O   0  0  0  0  0  0  0  0  0  0  0  0
   17.5703  -19.4247  -20.9892 C   0  0  1  0  0  0  0  0  0  0  0  0
   18.2147  -19.4088  -19.6164 O   0  0  0  0  0  0  0  0  0  0  0  0
   18.6614  -20.0459  -21.9770 C   0  0  1  0  0  0  0  0  0  0  0  0
   18.8954  -19.0954  -23.1294 O   0  0  0  0  0  0  0  0  0  0  0  0
   19.7110  -20.1051  -21.3320 C   0  0  1  0  0  0  0  0  0  0  0  0
   20.5418  -18.9152  -21.6350 O   0  0  0  0  0  0  0  0  0  0  0  0
   19.2773  -20.1030  -19.7240 C   0  0  2  0  0  0  0  0  0  0  0  0
   21.2846  -24.7359  -18.7790 N   0  0  0  0  0  0  0  0  0  0  0  0
   12.9863  -19.2643  -19.4682 O   0  5  0  0  0  0  0  0  0  0  0  0
   13.2735  -20.6727  -16.9797 O   0  5  0  0  0  0  0  0  0  0  0  0
   16.2764  -24.1810  -16.6685 O   0  0  0  0  0  0  0  0  0  0  0  0
   21.8880  -23.6699  -19.2814 C   0  0  0  0  0  0  0  0  0  0  0  0
   23.2918  -23.7467  -19.6322 N   0  0  0  0  0  0  0  0  0  0  0  0
   13.5213  -20.4991  -21.5619 O   0  0  0  0  0  0  0  0  0  0  0  0
   15.6396  -21.2241  -17.3821 O   0  0  0  0  0  0  0  0  0  0  0  0
   14.3329  -25.6942  -16.7170 O   0  5  0  0  0  0  0  0  0  0  0  0
   21.2517  -22.5327  -19.4750 N   0  0  0  0  0  0  0  0  0  0  0  0
   13.9766  -21.6221  -19.2797 O   0  0  0  0  0  0  0  0  0  0  0  0
   13.9664  -23.1572  -17.0829 O   0  0  0  0  0  0  0  0  0  0  0  0
   15.1797  -24.6729  -18.8172 O   0  0  0  0  0  0  0  0  0  0  0  0
   19.9546  -22.4200  -19.1645 C   0  0  0  0  0  0  0  0  0  0  0  0
   19.3013  -23.5166  -18.6394 C   0  0  0  0  0  0  0  0  0  0  0  0
   20.0020  -24.7218  -18.4404 C   0  0  0  0  0  0  0  0  0  0  0  0
   19.3638  -25.8554  -17.9070 O   0  0  0  0  0  0  0  0  0  0  0  0
   18.0259  -23.1585  -18.4129 N   0  0  0  0  0  0  0  0  0  0  0  0
   17.8957  -21.8961  -18.7821 C   0  0  0  0  0  0  0  0  0  0  0  0
   19.0451  -21.4356  -19.2394 N   0  0  0  0  0  0  0  0  0  0  0  0
  1  5  1  6  0  0  0
  1 14  1  0  0  0  0
  1 19  2  0  0  0  0
  1 23  1  0  0  0  0
  2 15  1  1  0  0  0
  2 20  2  0  0  0  0
  2 23  1  0  0  0  0
  2 24  1  0  0  0  0
  3 16  1  1  0  0  0
  3 21  1  0  0  0  0
  3 24  1  0  0  0  0
  3 25  2  0  0  0  0
  4  5  1  0  0  0  0
  6  4  1  1  0  0  0
  6  7  1  0  0  0  0
  6  8  1  0  0  0  0
  7 12  1  0  0  0  0
  8  9  1  6  0  0  0
  8 10  1  0  0  0  0
 10 11  1  1  0  0  0
 10 12  1  0  0  0  0
 12 32  1  6  0  0  0
 13 17  2  0  0  0  0
 13 28  1  0  0  0  0
 17 18  1  0  0  0  0
 17 22  1  0  0  0  0
 22 26  2  0  0  0  0
 26 27  1  0  0  0  0
 26 32  1  0  0  0  0
 27 28  2  0  0  0  0
 27 30  1  0  0  0  0
 28 29  1  0  0  0  0
 30 31  2  0  0  0  0
 31 32  1  0  0  0  0
M  CHG  3  14  -1  15  -1  21  -1
M  END
>  <CHROM.1>
-167.40205373,50.61529196,64.57982990,66.53207462,171.99959578,-177.78275777
68.82279391,-168.07561198,16.99761779,-21.92779282,-19.15500280,3.08174451
-0.22088539,2.53828847

>  <Name>
ligand

>  <RI>
0

>  <Rbt.Current_Directory>
/home/itssahil/PROJECTS/Mol_Feturizer/New_Systems/rnas/4Y1I

>  <Rbt.Executable>
rbdock ($Id: //depot/dev/client3/rdock/2013.1/src/exe/rbdock.cxx#4 $)

>  <Rbt.Library>
libRbt.so (2013.1, Build901 2013/11/27)

>  <Rbt.Parameter_File>
/export/apps/rDock/src/rDock_2013.1_src/data/scripts/dock_solv.prm

>  <Rbt.Receptor>
prm/pocket_docking_7.prm

>  <SCORE>
-9.29733

>  <SCORE.INTER>
-2.50013

>  <SCORE.INTER.CONST>
1

>  <SCORE.INTER.POLAR>
0

>  <SCORE.INTER.ROT>
8

>  <SCORE.INTER.SOLV>
15.778

>  <SCORE.INTER.VDW>
-15.8594

>  <SCORE.INTER.norm>
-0.078129

>  <SCORE.INTRA>
-6.7972

>  <SCORE.INTRA.DIHEDRAL>
-8.47341

>  <SCORE.INTRA.DIHEDRAL.0>
10.9594

>  <SCORE.INTRA.POLAR>
0

>  <SCORE.INTRA.POLAR.0>
0

>  <SCORE.INTRA.REPUL>
0

>  <SCORE.INTRA.REPUL.0>
0

>  <SCORE.INTRA.SOLV>
-2.95125

>  <SCORE.INTRA.SOLV.lig_0>
-124.914

>  <SCORE.INTRA.VDW>
-1.08487

>  <SCORE.INTRA.VDW.0>
-4.69801

>  <SCORE.INTRA.norm>
-0.212413

>  <SCORE.RESTR>
0

>  <SCORE.RESTR.CAVITY>
0

>  <SCORE.RESTR.norm>
0

>  <SCORE.SYSTEM>
0

>  <SCORE.SYSTEM.CONST>
0

>  <SCORE.SYSTEM.DIHEDRAL>
0

>  <SCORE.SYSTEM.SOLV>
0

>  <SCORE.SYSTEM.norm>
0

>  <SCORE.heavy>
32

>  <SCORE.norm>
-0.290542

>  <RMSD>
6.970

$$$$
ligand
 OpenBabel11021811513D
libRbt.so/2013.1/901 2013/11/27
 32 34  0  0  0  0  0  0  0  0999 V2000
   18.7427  -25.3572  -18.2358 P   0  0  1  0  0  0  0  0  0  0  0  0
   19.6496  -23.4862  -20.2128 P   0  0  2  0  0  0  0  0  0  0  0  0
   20.6216  -24.2544  -22.8737 P   0  0  1  0  0  0  0  0  0  0  0  0
   16.4510  -24.2341  -18.7631 C   0  0  0  0  0  0  0  0  0  0  0  0
   17.4862  -24.3731  -17.8320 O   0  0  0  0  0  0  0  0  0  0  0  0
   15.3464  -23.6564  -18.1470 C   0  0  1  0  0  0  0  0  0  0  0  0
   15.7844  -22.4722  -17.3070 O   0  0  0  0  0  0  0  0  0  0  0  0
   14.3191  -23.0734  -19.2225 C   0  0  1  0  0  0  0  0  0  0  0  0
   13.0200  -23.8432  -19.1456 O   0  0  0  0  0  0  0  0  0  0  0  0
   14.0798  -21.9151  -18.8725 C   0  0  1  0  0  0  0  0  0  0  0  0
   12.8212  -21.8883  -18.0895 O   0  0  0  0  0  0  0  0  0  0  0  0
   15.3568  -21.4381  -17.9156 C   0  0  2  0  0  0  0  0  0  0  0  0
   16.5939  -18.4424  -21.9006 N   0  0  0  0  0  0  0  0  0  0  0  0
   19.9042  -25.1119  -17.3048 O   0  5  0  0  0  0  0  0  0  0  0  0
   20.1807  -22.7283  -19.0221 O   0  5  0  0  0  0  0  0  0  0  0  0
   21.9490  -24.1740  -23.5906 O   0  0  0  0  0  0  0  0  0  0  0  0
   15.3866  -18.7674  -21.4654 C   0  0  0  0  0  0  0  0  0  0  0  0
   14.2200  -18.2490  -22.1510 N   0  0  0  0  0  0  0  0  0  0  0  0
   18.2793  -26.7942  -18.1556 O   0  0  0  0  0  0  0  0  0  0  0  0
   18.4368  -22.7803  -20.7600 O   0  0  0  0  0  0  0  0  0  0  0  0
   20.2248  -25.7072  -22.7271 O   0  5  0  0  0  0  0  0  0  0  0  0
   15.2072  -19.5519  -20.4223 N   0  0  0  0  0  0  0  0  0  0  0  0
   19.2099  -25.0048  -19.7709 O   0  0  0  0  0  0  0  0  0  0  0  0
   20.8058  -23.5739  -21.3796 O   0  0  0  0  0  0  0  0  0  0  0  0
   19.5816  -23.5034  -23.6760 O   0  0  0  0  0  0  0  0  0  0  0  0
   16.2581  -20.0519  -19.7611 C   0  0  0  0  0  0  0  0  0  0  0  0
   17.5282  -19.7291  -20.1945 C   0  0  0  0  0  0  0  0  0  0  0  0
   17.6958  -18.8880  -21.3114 C   0  0  0  0  0  0  0  0  0  0  0  0
   18.9767  -18.5410  -21.7759 O   0  0  0  0  0  0  0  0  0  0  0  0
   18.4028  -20.3438  -19.3800 N   0  0  0  0  0  0  0  0  0  0  0  0
   17.7047  -21.0177  -18.4827 C   0  0  0  0  0  0  0  0  0  0  0  0
   16.4124  -20.8563  -18.6976 N   0  0  0  0  0  0  0  0  0  0  0  0
  1  5  1  1  0  0  0
  1 14  1  0  0  0  0
  1 19  2  0  0  0  0
  1 23  1  0  0  0  0
  2 15  1  1  0  0  0
  2 20  2  0  0  0  0
  2 23  1  0  0  0  0
  2 24  1  0  0  0  0
  3 16  1  6  0  0  0
  3 21  1  0  0  0  0
  3 24  1  0  0  0  0
  3 25  2  0  0  0  0
  4  5  1  0  0  0  0
  6  4  1  6  0  0  0
  6  7  1  0  0  0  0
  6  8  1  0  0  0  0
  7 12  1  0  0  0  0
  8  9  1  1  0  0  0
  8 10  1  0  0  0  0
 10 11  1  1  0  0  0
 10 12  1  0  0  0  0
 12 32  1  6  0  0  0
 13 17  2  0  0  0  0
 13 28  1  0  0  0  0
 17 18  1  0  0  0  0
 17 22  1  0  0  0  0
 22 26  2  0  0  0  0
 26 27  1  0  0  0  0
 26 32  1  0  0  0  0
 27 28  2  0  0  0  0
 27 30  1  0  0  0  0
 28 29  1  0  0  0  0
 30 31  2  0  0  0  0
 31 32  1  0  0  0  0
M  CHG  3  14  -1  15  -1  21  -1
M  END
>  <CHROM.1>
165.36839569,26.75986475,-177.31291023,45.74624895,165.37141609,157.62427139
56.08783619,-176.99626579,17.70122670,-22.63081005,-20.01259550,0.38180662
-0.59176183,2.54482890

>  <Name>
ligand

>  <RI>
0

>  <Rbt.Current_Directory>
/home/itssahil/PROJECTS/Mol_Feturizer/New_Systems/rnas/4Y1I

>  <Rbt.Executable>
rbdock ($Id: //depot/dev/client3/rdock/2013.1/src/exe/rbdock.cxx#4 $)

>  <Rbt.Library>
libRbt.so (2013.1, Build901 2013/11/27)

>  <Rbt.Parameter_File>
/export/apps/rDock/src/rDock_2013.1_src/data/scripts/dock_solv.prm

>  <Rbt.Receptor>
prm/pocket_docking_7.prm

>  <SCORE>
-7.14009

>  <SCORE.INTER>
-2.01474

>  <SCORE.INTER.CONST>
1

>  <SCORE.INTER.POLAR>
0

>  <SCORE.INTER.ROT>
8

>  <SCORE.INTER.SOLV>
12.4178

>  <SCORE.INTER.VDW>
-14.4158

>  <SCORE.INTER.norm>
-0.0629606

>  <SCORE.INTRA>
-5.12535

>  <SCORE.INTRA.DIHEDRAL>
-6.32693

>  <SCORE.INTRA.DIHEDRAL.0>
10.9594

>  <SCORE.INTRA.POLAR>
0

>  <SCORE.INTRA.POLAR.0>
0

>  <SCORE.INTRA.REPUL>
0

>  <SCORE.INTRA.REPUL.0>
0

>  <SCORE.INTRA.SOLV>
-0.59079

>  <SCORE.INTRA.SOLV.lig_0>
-124.914

>  <SCORE.INTRA.VDW>
-1.66649

>  <SCORE.INTRA.VDW.0>
-4.69801

>  <SCORE.INTRA.norm>
-0.160167

>  <SCORE.RESTR>
0

>  <SCORE.RESTR.CAVITY>
0

>  <SCORE.RESTR.norm>
0

>  <SCORE.SYSTEM>
0

>  <SCORE.SYSTEM.CONST>
0

>  <SCORE.SYSTEM.DIHEDRAL>
0

>  <SCORE.SYSTEM.SOLV>
0

>  <SCORE.SYSTEM.norm>
0

>  <SCORE.heavy>
32

>  <SCORE.norm>
-0.223128

>  <RMSD>
6.995

$$$$
ligand
 OpenBabel11021811513D
libRbt.so/2013.1/901 2013/11/27
 32 34  0  0  0  0  0  0  0  0999 V2000
   15.0181  -21.8964  -17.9368 P   0  0  1  0  0  0  0  0  0  0  0  0
   13.4859  -22.5136  -15.5910 P   0  0  2  0  0  0  0  0  0  0  0  0
   11.1511  -20.9411  -16.4226 P   0  0  1  0  0  0  0  0  0  0  0  0
   16.6530  -20.8877  -19.6977 C   0  0  0  0  0  0  0  0  0  0  0  0
   16.1682  -20.8082  -18.3875 O   0  0  0  0  0  0  0  0  0  0  0  0
   17.6237  -19.9117  -19.8939 C   0  0  1  0  0  0  0  0  0  0  0  0
   18.6808  -20.0097  -18.8110 O   0  0  0  0  0  0  0  0  0  0  0  0
   18.3936  -20.1267  -21.2771 C   0  0  1  0  0  0  0  0  0  0  0  0
   18.1061  -18.9630  -22.1987 O   0  0  0  0  0  0  0  0  0  0  0  0
   19.5966  -20.0914  -21.0068 C   0  0  1  0  0  0  0  0  0  0  0  0
   20.1187  -18.7282  -21.2654 O   0  0  0  0  0  0  0  0  0  0  0  0
   19.7268  -20.4539  -19.3865 C   0  0  2  0  0  0  0  0  0  0  0  0
   22.8554  -24.5235  -19.1969 N   0  0  0  0  0  0  0  0  0  0  0  0
   13.7863  -21.7218  -18.7902 O   0  5  0  0  0  0  0  0  0  0  0  0
   13.3673  -22.0755  -14.1529 O   0  5  0  0  0  0  0  0  0  0  0  0
    9.8375  -21.2584  -17.0980 O   0  0  0  0  0  0  0  0  0  0  0  0
   23.1672  -23.2634  -19.4570 C   0  0  0  0  0  0  0  0  0  0  0  0
   24.5463  -22.9143  -19.7322 N   0  0  0  0  0  0  0  0  0  0  0  0
   15.5846  -23.2906  -18.0836 O   0  0  0  0  0  0  0  0  0  0  0  0
   13.9042  -23.9596  -15.6450 O   0  0  0  0  0  0  0  0  0  0  0  0
   10.8791  -20.4364  -15.0223 O   0  5  0  0  0  0  0  0  0  0  0  0
   22.2602  -22.3081  -19.4744 N   0  0  0  0  0  0  0  0  0  0  0  0
   14.6203  -21.6166  -16.3676 O   0  0  0  0  0  0  0  0  0  0  0  0
   12.0379  -22.3332  -16.3505 O   0  0  0  0  0  0  0  0  0  0  0  0
   11.8786  -19.8878  -17.2294 O   0  0  0  0  0  0  0  0  0  0  0  0
   20.9752  -22.5883  -19.2257 C   0  0  0  0  0  0  0  0  0  0  0  0
   20.6229  -23.8945  -18.9521 C   0  0  0  0  0  0  0  0  0  0  0  0
   21.6096  -24.8991  -18.9381 C   0  0  0  0  0  0  0  0  0  0  0  0
   21.2814  -26.2381  -18.6621 O   0  0  0  0  0  0  0  0  0  0  0  0
   19.2962  -23.9204  -18.7392 N   0  0  0  0  0  0  0  0  0  0  0  0
   18.8473  -22.6848  -18.8758 C   0  0  0  0  0  0  0  0  0  0  0  0
   19.8427  -21.8698  -19.1711 N   0  0  0  0  0  0  0  0  0  0  0  0
  1  5  1  6  0  0  0
  1 14  1  0  0  0  0
  1 19  2  0  0  0  0
  1 23  1  0  0  0  0
  2 15  1  1  0  0  0
  2 20  2  0  0  0  0
  2 23  1  0  0  0  0
  2 24  1  0  0  0  0
  3 16  1  6  0  0  0
  3 21  1  0  0  0  0
  3 24  1  0  0  0  0
  3 25  2  0  0  0  0
  4  5  1  0  0  0  0
  6  4  1  1  0  0  0
  6  7  1  0  0  0  0
  6  8  1  0  0  0  0
  7 12  1  0  0  0  0
  8  9  1  6  0  0  0
  8 10  1  0  0  0  0
 10 11  1  1  0  0  0
 10 12  1  0  0  0  0
 12 32  1  6  0  0  0
 13 17  2  0  0  0  0
 13 28  1  0  0  0  0
 17 18  1  0  0  0  0
 17 22  1  0  0  0  0
 22 26  2  0  0  0  0
 26 27  1  0  0  0  0
 26 32  1  0  0  0  0
 27 28  2  0  0  0  0
 27 30  1  0  0  0  0
 28 29  1  0  0  0  0
 30 31  2  0  0  0  0
 31 32  1  0  0  0  0
M  CHG  3  14  -1  15  -1  21  -1
M  END
>  <CHROM.1>
-61.65195474,177.65442503,-174.58336931,52.68390459,-179.14795071,-156.51028260
179.42447176,54.42626798,16.74973583,-21.85688896,-18.22179393,3.02304535
-0.35106830,2.50609415

>  <Name>
ligand

>  <RI>
0

>  <Rbt.Current_Directory>
/home/itssahil/PROJECTS/Mol_Feturizer/New_Systems/rnas/4Y1I

>  <Rbt.Executable>
rbdock ($Id: //depot/dev/client3/rdock/2013.1/src/exe/rbdock.cxx#4 $)

>  <Rbt.Library>
libRbt.so (2013.1, Build901 2013/11/27)

>  <Rbt.Parameter_File>
/export/apps/rDock/src/rDock_2013.1_src/data/scripts/dock_solv.prm

>  <Rbt.Receptor>
prm/pocket_docking_6.prm

>  <SCORE>
-9.05787

>  <SCORE.INTER>
-4.1221

>  <SCORE.INTER.CONST>
1

>  <SCORE.INTER.POLAR>
0

>  <SCORE.INTER.ROT>
8

>  <SCORE.INTER.SOLV>
11.2316

>  <SCORE.INTER.VDW>
-15.4253

>  <SCORE.INTER.norm>
-0.128815

>  <SCORE.INTRA>
-4.93578

>  <SCORE.INTRA.DIHEDRAL>
-9.4233

>  <SCORE.INTRA.DIHEDRAL.0>
10.9594

>  <SCORE.INTRA.POLAR>
0

>  <SCORE.INTRA.POLAR.0>
0

>  <SCORE.INTRA.REPUL>
0

>  <SCORE.INTRA.REPUL.0>
0

>  <SCORE.INTRA.SOLV>
-0.347412

>  <SCORE.INTRA.SOLV.lig_0>
-124.914

>  <SCORE.INTRA.VDW>
-0.050422

>  <SCORE.INTRA.VDW.0>
-4.69801

>  <SCORE.INTRA.norm>
-0.154243

>  <SCORE.RESTR>
0

>  <SCORE.RESTR.CAVITY>
0

>  <SCORE.RESTR.norm>
0

>  <SCORE.SYSTEM>
0

>  <SCORE.SYSTEM.CONST>
0

>  <SCORE.SYSTEM.DIHEDRAL>
0

>  <SCORE.SYSTEM.SOLV>
0

>  <SCORE.SYSTEM.norm>
0

>  <SCORE.heavy>
32

>  <SCORE.norm>
-0.283059

>  <RMSD>
7.020

$$$$
ligand
 OpenBabel11021811513D
libRbt.so/2013.1/901 2013/11/27
 32 34  0  0  0  0  0  0  0  0999 V2000
   15.8383  -24.3089  -18.4093 P   0  0  1  0  0  0  0  0  0  0  0  0
   16.0577  -21.4485  -18.3721 P   0  0  2  0  0  0  0  0  0  0  0  0
   18.5920  -20.1398  -19.0648 P   0  0  1  0  0  0  0  0  0  0  0  0
   17.9201  -25.5247  -17.4198 C   0  0  0  0  0  0  0  0  0  0  0  0
   16.8469  -25.6065  -18.3139 O   0  0  0  0  0  0  0  0  0  0  0  0
   18.6907  -26.6784  -17.5119 C   0  0  1  0  0  0  0  0  0  0  0  0
   17.8665  -27.8838  -17.1026 O   0  0  0  0  0  0  0  0  0  0  0  0
   19.1491  -26.9532  -19.0174 C   0  0  1  0  0  0  0  0  0  0  0  0
   20.6538  -26.8399  -19.1134 O   0  0  0  0  0  0  0  0  0  0  0  0
   18.8543  -28.1271  -19.2548 C   0  0  1  0  0  0  0  0  0  0  0  0
   20.0451  -28.9850  -19.0454 O   0  0  0  0  0  0  0  0  0  0  0  0
   17.6567  -28.5405  -18.1737 C   0  0  2  0  0  0  0  0  0  0  0  0
   12.7011  -27.7178  -17.1014 N   0  0  0  0  0  0  0  0  0  0  0  0
   15.0656  -24.3558  -19.7042 O   0  5  0  0  0  0  0  0  0  0  0  0
   15.0347  -21.3518  -17.2683 O   0  5  0  0  0  0  0  0  0  0  0  0
   19.3748  -21.4295  -18.9851 O   0  0  0  0  0  0  0  0  0  0  0  0
   13.6833  -28.0039  -16.2611 C   0  0  0  0  0  0  0  0  0  0  0  0
   13.3979  -28.1146  -14.8448 N   0  0  0  0  0  0  0  0  0  0  0  0
   14.9040  -24.3317  -17.2208 O   0  0  0  0  0  0  0  0  0  0  0  0
   15.3873  -21.2251  -19.7023 O   0  0  0  0  0  0  0  0  0  0  0  0
   18.2108  -19.8798  -20.5059 O   0  5  0  0  0  0  0  0  0  0  0  0
   14.9210  -28.1928  -16.6708 N   0  0  0  0  0  0  0  0  0  0  0  0
   16.7450  -22.9392  -18.3821 O   0  0  0  0  0  0  0  0  0  0  0  0
   17.2271  -20.3132  -18.1502 O   0  0  0  0  0  0  0  0  0  0  0  0
   19.4478  -19.0100  -18.5350 O   0  0  0  0  0  0  0  0  0  0  0  0
   15.2268  -28.0998  -17.9706 C   0  0  0  0  0  0  0  0  0  0  0  0
   14.2212  -27.8031  -18.8682 C   0  0  0  0  0  0  0  0  0  0  0  0
   12.9054  -27.6043  -18.4073 C   0  0  0  0  0  0  0  0  0  0  0  0
   11.8603  -27.3003  -19.2974 O   0  0  0  0  0  0  0  0  0  0  0  0
   14.7704  -27.7650  -20.0942 N   0  0  0  0  0  0  0  0  0  0  0  0
   16.0589  -28.0272  -19.9610 C   0  0  0  0  0  0  0  0  0  0  0  0
   16.3517  -28.2340  -18.6907 N   0  0  0  0  0  0  0  0  0  0  0  0
  1  5  1  1  0  0  0
  1 14  1  0  0  0  0
  1 19  2  0  0  0  0
  1 23  1  0  0  0  0
  2 15  1  1  0  0  0
  2 20  2  0  0  0  0
  2 23  1  0  0  0  0
  2 24  1  0  0  0  0
  3 16  1  1  0  0  0
  3 21  1  0  0  0  0
  3 24  1  0  0  0  0
  3 25  2  0  0  0  0
  4  5  1  0  0  0  0
  6  4  1  6  0  0  0
  6  7  1  0  0  0  0
  6  8  1  0  0  0  0
  7 12  1  0  0  0  0
  8  9  1  1  0  0  0
  8 10  1  0  0  0  0
 10 11  1  1  0  0  0
 10 12  1  0  0  0  0
 12 32  1  6  0  0  0
 13 17  2  0  0  0  0
 13 28  1  0  0  0  0
 17 18  1  0  0  0  0
 17 22  1  0  0  0  0
 22 26  2  0  0  0  0
 26 27  1  0  0  0  0
 26 32  1  0  0  0  0
 27 28  2  0  0  0  0
 27 30  1  0  0  0  0
 28 29  1  0  0  0  0
 30 31  2  0  0  0  0
 31 32  1  0  0  0  0
M  CHG  3  14  -1  15  -1  21  -1
M  END
>  <CHROM.1>
160.46708181,51.98873325,-59.22073953,-62.83402013,-177.56769299,-41.74631256
-176.35355731,175.37304189,16.52320104,-24.89823361,-18.39952618,1.25405406
0.17121178,-0.06717555

>  <Name>
ligand

>  <RI>
0

>  <Rbt.Current_Directory>
/home/itssahil/PROJECTS/Mol_Feturizer/New_Systems/rnas/4Y1I

>  <Rbt.Executable>
rbdock ($Id: //depot/dev/client3/rdock/2013.1/src/exe/rbdock.cxx#4 $)

>  <Rbt.Library>
libRbt.so (2013.1, Build901 2013/11/27)

>  <Rbt.Parameter_File>
/export/apps/rDock/src/rDock_2013.1_src/data/scripts/dock_solv.prm

>  <Rbt.Receptor>
prm/pocket_docking_3.prm

>  <SCORE>
-6.37916

>  <SCORE.INTER>
1.24935

>  <SCORE.INTER.CONST>
1

>  <SCORE.INTER.POLAR>
0

>  <SCORE.INTER.ROT>
8

>  <SCORE.INTER.SOLV>
19.7768

>  <SCORE.INTER.VDW>
-14.6927

>  <SCORE.INTER.norm>
0.0390423

>  <SCORE.INTRA>
-7.63048

>  <SCORE.INTRA.DIHEDRAL>
-8.9841

>  <SCORE.INTRA.DIHEDRAL.0>
10.9594

>  <SCORE.INTRA.POLAR>
0

>  <SCORE.INTRA.POLAR.0>
0

>  <SCORE.INTRA.REPUL>
0

>  <SCORE.INTRA.REPUL.0>
0

>  <SCORE.INTRA.SOLV>
-3.06691

>  <SCORE.INTRA.SOLV.lig_0>
-124.914

>  <SCORE.INTRA.VDW>
-1.60497

>  <SCORE.INTRA.VDW.0>
-4.69801

>  <SCORE.INTRA.norm>
-0.238452

>  <SCORE.RESTR>
0.00196417

>  <SCORE.RESTR.CAVITY>
0.00196417

>  <SCORE.RESTR.norm>
6.13803e-05

>  <SCORE.SYSTEM>
0

>  <SCORE.SYSTEM.CONST>
0

>  <SCORE.SYSTEM.DIHEDRAL>
0

>  <SCORE.SYSTEM.SOLV>
0

>  <SCORE.SYSTEM.norm>
0

>  <SCORE.heavy>
32

>  <SCORE.norm>
-0.199349

>  <RMSD>
7.023

$$$$
ligand
 OpenBabel11021811513D
libRbt.so/2013.1/901 2013/11/27
 32 34  0  0  0  0  0  0  0  0999 V2000
   19.0868  -25.1068  -18.4141 P   0  0  1  0  0  0  0  0  0  0  0  0
   16.4667  -23.9394  -18.3553 P   0  0  2  0  0  0  0  0  0  0  0  0
   16.5346  -21.0786  -19.0083 P   0  0  1  0  0  0  0  0  0  0  0  0
   17.8998  -27.2595  -17.5490 C   0  0  0  0  0  0  0  0  0  0  0  0
   18.9269  -26.3349  -17.3294 O   0  0  0  0  0  0  0  0  0  0  0  0
   18.2096  -28.4574  -16.9146 C   0  0  1  0  0  0  0  0  0  0  0  0
   17.5752  -28.4915  -15.5375 O   0  0  0  0  0  0  0  0  0  0  0  0
   17.6059  -29.7075  -17.7051 C   0  0  1  0  0  0  0  0  0  0  0  0
   18.7361  -30.5614  -18.2338 O   0  0  0  0  0  0  0  0  0  0  0  0
   16.9995  -30.3800  -16.8676 C   0  0  1  0  0  0  0  0  0  0  0  0
   17.8751  -31.4774  -16.3910 O   0  0  0  0  0  0  0  0  0  0  0  0
   16.6381  -29.3514  -15.6086 C   0  0  2  0  0  0  0  0  0  0  0  0
   12.4624  -28.8946  -18.5649 N   0  0  0  0  0  0  0  0  0  0  0  0
   20.5016  -24.5835  -18.3894 O   0  5  0  0  0  0  0  0  0  0  0  0
   15.7274  -24.8159  -17.3758 O   0  5  0  0  0  0  0  0  0  0  0  0
   17.2985  -20.3301  -17.9413 O   0  0  0  0  0  0  0  0  0  0  0  0
   13.5031  -29.6945  -18.7372 C   0  0  0  0  0  0  0  0  0  0  0  0
   13.5368  -30.5809  -19.8830 N   0  0  0  0  0  0  0  0  0  0  0  0
   18.7247  -25.6226  -19.7885 O   0  0  0  0  0  0  0  0  0  0  0  0
   16.3167  -24.4988  -19.7458 O   0  0  0  0  0  0  0  0  0  0  0  0
   17.4943  -21.5055  -20.0975 O   0  5  0  0  0  0  0  0  0  0  0  0
   14.5174  -29.7130  -17.8967 N   0  0  0  0  0  0  0  0  0  0  0  0
   18.0652  -23.8941  -17.9846 O   0  0  0  0  0  0  0  0  0  0  0  0
   15.8555  -22.4128  -18.3098 O   0  0  0  0  0  0  0  0  0  0  0  0
   15.4643  -20.1721  -19.5761 O   0  0  0  0  0  0  0  0  0  0  0  0
   14.5255  -28.9098  -16.8260 C   0  0  0  0  0  0  0  0  0  0  0  0
   13.4527  -28.0655  -16.6229 C   0  0  0  0  0  0  0  0  0  0  0  0
   12.3792  -28.0634  -17.5343 C   0  0  0  0  0  0  0  0  0  0  0  0
   11.2725  -27.2151  -17.3538 O   0  0  0  0  0  0  0  0  0  0  0  0
   13.6915  -27.3701  -15.4980 N   0  0  0  0  0  0  0  0  0  0  0  0
   14.8607  -27.7663  -15.0261 C   0  0  0  0  0  0  0  0  0  0  0  0
   15.3789  -28.6905  -15.8132 N   0  0  0  0  0  0  0  0  0  0  0  0
  1  5  1  1  0  0  0
  1 14  1  0  0  0  0
  1 19  2  0  0  0  0
  1 23  1  0  0  0  0
  2 15  1  1  0  0  0
  2 20  2  0  0  0  0
  2 23  1  0  0  0  0
  2 24  1  0  0  0  0
  3 16  1  1  0  0  0
  3 21  1  0  0  0  0
  3 24  1  0  0  0  0
  3 25  2  0  0  0  0
  4  5  1  0  0  0  0
  6  4  1  6  0  0  0
  6  7  1  0  0  0  0
  6  8  1  0  0  0  0
  7 12  1  0  0  0  0
  8  9  1  1  0  0  0
  8 10  1  0  0  0  0
 10 11  1  1  0  0  0
 10 12  1  0  0  0  0
 12 32  1  6  0  0  0
 13 17  2  0  0  0  0
 13 28  1  0  0  0  0
 17 18  1  0  0  0  0
 17 22  1  0  0  0  0
 22 26  2  0  0  0  0
 26 27  1  0  0  0  0
 26 32  1  0  0  0  0
 27 28  2  0  0  0  0
 27 30  1  0  0  0  0
 28 29  1  0  0  0  0
 30 31  2  0  0  0  0
 31 32  1  0  0  0  0
M  CHG  3  14  -1  15  -1  21  -1
M  END
>  <CHROM.1>
-156.18383131,80.12075555,-98.23612384,94.25102620,156.59277841,123.44321509
-80.45251549,168.30405625,16.38253657,-26.24367561,-17.84764499,-1.34172003
-0.00519220,2.91483397

>  <Name>
ligand

>  <RI>
0

>  <Rbt.Current_Directory>
/home/itssahil/PROJECTS/Mol_Feturizer/New_Systems/rnas/4Y1I

>  <Rbt.Executable>
rbdock ($Id: //depot/dev/client3/rdock/2013.1/src/exe/rbdock.cxx#4 $)

>  <Rbt.Library>
libRbt.so (2013.1, Build901 2013/11/27)

>  <Rbt.Parameter_File>
/export/apps/rDock/src/rDock_2013.1_src/data/scripts/dock_solv.prm

>  <Rbt.Receptor>
prm/pocket_docking_2.prm

>  <SCORE>
4.61325

>  <SCORE.INTER>
4.11587

>  <SCORE.INTER.CONST>
1

>  <SCORE.INTER.POLAR>
0

>  <SCORE.INTER.ROT>
8

>  <SCORE.INTER.SOLV>
11.7727

>  <SCORE.INTER.VDW>
-10.1137

>  <SCORE.INTER.norm>
0.128621

>  <SCORE.INTRA>
-1.1561

>  <SCORE.INTRA.DIHEDRAL>
-0.0743894

>  <SCORE.INTRA.DIHEDRAL.0>
10.9594

>  <SCORE.INTRA.POLAR>
0

>  <SCORE.INTRA.POLAR.0>
0

>  <SCORE.INTRA.REPUL>
0

>  <SCORE.INTRA.REPUL.0>
0

>  <SCORE.INTRA.SOLV>
-2.48224

>  <SCORE.INTRA.SOLV.lig_0>
-124.914

>  <SCORE.INTRA.VDW>
0.122216

>  <SCORE.INTRA.VDW.0>
-4.69801

>  <SCORE.INTRA.norm>
-0.0361281

>  <SCORE.RESTR>
1.65348

>  <SCORE.RESTR.CAVITY>
1.65348

>  <SCORE.RESTR.norm>
0.0516711

>  <SCORE.SYSTEM>
0

>  <SCORE.SYSTEM.CONST>
0

>  <SCORE.SYSTEM.DIHEDRAL>
0

>  <SCORE.SYSTEM.SOLV>
0

>  <SCORE.SYSTEM.norm>
0

>  <SCORE.heavy>
32

>  <SCORE.norm>
0.144164

>  <RMSD>
7.060

$$$$
ligand
 OpenBabel11021811513D
libRbt.so/2013.1/901 2013/11/27
 32 34  0  0  0  0  0  0  0  0999 V2000
   19.1609  -24.7675  -18.4285 P   0  0  1  0  0  0  0  0  0  0  0  0
   20.8932  -23.2316  -20.1229 P   0  0  2  0  0  0  0  0  0  0  0  0
   18.9909  -22.7703  -22.3101 P   0  0  1  0  0  0  0  0  0  0  0  0
   16.6695  -24.1810  -18.9186 C   0  0  0  0  0  0  0  0  0  0  0  0
   17.6084  -24.5222  -17.9388 O   0  0  0  0  0  0  0  0  0  0  0  0
   15.5428  -23.6361  -18.3128 C   0  0  1  0  0  0  0  0  0  0  0  0
   15.9423  -22.4601  -17.4426 O   0  0  0  0  0  0  0  0  0  0  0  0
   14.5246  -23.0520  -19.3964 C   0  0  1  0  0  0  0  0  0  0  0  0
   13.2393  -23.8475  -19.3586 O   0  0  0  0  0  0  0  0  0  0  0  0
   14.2567  -21.9054  -19.0294 C   0  0  1  0  0  0  0  0  0  0  0  0
   12.9835  -21.9173  -18.2699 O   0  0  0  0  0  0  0  0  0  0  0  0
   15.5063  -21.4228  -18.0397 C   0  0  2  0  0  0  0  0  0  0  0  0
   16.7595  -18.3294  -21.9442 N   0  0  0  0  0  0  0  0  0  0  0  0
   19.9822  -25.2971  -17.2790 O   0  5  0  0  0  0  0  0  0  0  0  0
   22.0496  -24.1613  -19.8530 O   0  5  0  0  0  0  0  0  0  0  0  0
   17.9158  -22.4527  -21.2973 O   0  0  0  0  0  0  0  0  0  0  0  0
   15.5508  -18.6854  -21.5381 C   0  0  0  0  0  0  0  0  0  0  0  0
   14.3874  -18.1764  -22.2361 N   0  0  0  0  0  0  0  0  0  0  0  0
   19.1572  -25.7419  -19.5847 O   0  0  0  0  0  0  0  0  0  0  0  0
   21.3935  -21.8128  -20.1979 O   0  0  0  0  0  0  0  0  0  0  0  0
   19.5679  -21.4768  -22.8425 O   0  5  0  0  0  0  0  0  0  0  0  0
   15.3672  -19.4927  -20.5134 N   0  0  0  0  0  0  0  0  0  0  0  0
   19.7900  -23.3288  -18.9112 O   0  0  0  0  0  0  0  0  0  0  0  0
   20.1733  -23.6348  -21.5460 O   0  0  0  0  0  0  0  0  0  0  0  0
   18.3841  -23.5785  -23.4362 O   0  0  0  0  0  0  0  0  0  0  0  0
   16.4150  -19.9851  -19.8417 C   0  0  0  0  0  0  0  0  0  0  0  0
   17.6865  -19.6301  -20.2447 C   0  0  0  0  0  0  0  0  0  0  0  0
   17.8586  -18.7650  -21.3425 C   0  0  0  0  0  0  0  0  0  0  0  0
   19.1411  -18.3851  -21.7759 O   0  0  0  0  0  0  0  0  0  0  0  0
   18.5575  -20.2434  -19.4253 N   0  0  0  0  0  0  0  0  0  0  0  0
   17.8558  -20.9473  -18.5541 C   0  0  0  0  0  0  0  0  0  0  0  0
   16.5649  -20.8064  -18.7905 N   0  0  0  0  0  0  0  0  0  0  0  0
  1  5  1  1  0  0  0
  1 14  1  0  0  0  0
  1 19  2  0  0  0  0
  1 23  1  0  0  0  0
  2 15  1  1  0  0  0
  2 20  2  0  0  0  0
  2 23  1  0  0  0  0
  2 24  1  0  0  0  0
  3 16  1  1  0  0  0
  3 21  1  0  0  0  0
  3 24  1  0  0  0  0
  3 25  2  0  0  0  0
  4  5  1  0  0  0  0
  6  4  1  6  0  0  0
  6  7  1  0  0  0  0
  6  8  1  0  0  0  0
  7 12  1  0  0  0  0
  8  9  1  1  0  0  0
  8 10  1  0  0  0  0
 10 11  1  1  0  0  0
 10 12  1  0  0  0  0
 12 32  1  6  0  0  0
 13 17  2  0  0  0  0
 13 28  1  0  0  0  0
 17 18  1  0  0  0  0
 17 22  1  0  0  0  0
 22 26  2  0  0  0  0
 26 27  1  0  0  0  0
 26 32  1  0  0  0  0
 27 28  2  0  0  0  0
 27 30  1  0  0  0  0
 28 29  1  0  0  0  0
 30 31  2  0  0  0  0
 31 32  1  0  0  0  0
M  CHG  3  14  -1  15  -1  21  -1
M  END
>  <CHROM.1>
-172.66711498,-52.89059606,-49.48800156,55.39727745,-162.58591822,157.60616300
-147.12737484,-172.10874814,17.78878249,-22.22031786,-19.99668462,0.57757278
-0.35304449,2.53227399

>  <Name>
ligand

>  <RI>
0

>  <Rbt.Current_Directory>
/home/itssahil/PROJECTS/Mol_Feturizer/New_Systems/rnas/4Y1I

>  <Rbt.Executable>
rbdock ($Id: //depot/dev/client3/rdock/2013.1/src/exe/rbdock.cxx#4 $)

>  <Rbt.Library>
libRbt.so (2013.1, Build901 2013/11/27)

>  <Rbt.Parameter_File>
/export/apps/rDock/src/rDock_2013.1_src/data/scripts/dock_solv.prm

>  <Rbt.Receptor>
prm/pocket_docking_6.prm

>  <SCORE>
-11.2857

>  <SCORE.INTER>
-3.2442

>  <SCORE.INTER.CONST>
1

>  <SCORE.INTER.POLAR>
0

>  <SCORE.INTER.ROT>
8

>  <SCORE.INTER.SOLV>
11.6543

>  <SCORE.INTER.VDW>
-14.9809

>  <SCORE.INTER.norm>
-0.101381

>  <SCORE.INTRA>
-8.04154

>  <SCORE.INTRA.DIHEDRAL>
-6.45036

>  <SCORE.INTRA.DIHEDRAL.0>
10.9594

>  <SCORE.INTRA.POLAR>
0

>  <SCORE.INTRA.POLAR.0>
0

>  <SCORE.INTRA.REPUL>
0

>  <SCORE.INTRA.REPUL.0>
0

>  <SCORE.INTRA.SOLV>
-2.68802

>  <SCORE.INTRA.SOLV.lig_0>
-124.914

>  <SCORE.INTRA.VDW>
-3.47235

>  <SCORE.INTRA.VDW.0>
-4.69801

>  <SCORE.INTRA.norm>
-0.251298

>  <SCORE.RESTR>
0

>  <SCORE.RESTR.CAVITY>
0

>  <SCORE.RESTR.norm>
0

>  <SCORE.SYSTEM>
0

>  <SCORE.SYSTEM.CONST>
0

>  <SCORE.SYSTEM.DIHEDRAL>
0

>  <SCORE.SYSTEM.SOLV>
0

>  <SCORE.SYSTEM.norm>
0

>  <SCORE.heavy>
32

>  <SCORE.norm>
-0.352679

>  <RMSD>
7.060

$$$$
ligand
 OpenBabel11021811513D
libRbt.so/2013.1/901 2013/11/27
 32 34  0  0  0  0  0  0  0  0999 V2000
   12.9655  -28.9660  -12.7467 P   0  0  1  0  0  0  0  0  0  0  0  0
   11.8768  -31.6055  -12.4664 P   0  0  2  0  0  0  0  0  0  0  0  0
   13.4779  -34.0253  -12.9096 P   0  0  1  0  0  0  0  0  0  0  0  0
   14.1681  -26.7198  -12.1989 C   0  0  0  0  0  0  0  0  0  0  0  0
   13.1974  -27.6431  -11.7946 O   0  0  0  0  0  0  0  0  0  0  0  0
   14.3065  -25.7354  -11.2267 C   0  0  1  0  0  0  0  0  0  0  0  0
   15.5325  -24.8914  -11.5174 O   0  0  0  0  0  0  0  0  0  0  0  0
   13.0680  -24.7264  -11.2400 C   0  0  1  0  0  0  0  0  0  0  0  0
   12.3057  -24.8491   -9.9400 O   0  0  0  0  0  0  0  0  0  0  0  0
   13.5523  -23.5926  -11.2751 C   0  0  1  0  0  0  0  0  0  0  0  0
   13.6108  -23.0403   -9.9005 O   0  0  0  0  0  0  0  0  0  0  0  0
   15.0915  -23.7559  -11.8898 C   0  0  2  0  0  0  0  0  0  0  0  0
   12.8995  -21.7517  -16.0807 N   0  0  0  0  0  0  0  0  0  0  0  0
   12.1447  -28.5890  -13.9551 O   0  5  0  0  0  0  0  0  0  0  0  0
   11.2865  -31.5310  -13.8521 O   0  5  0  0  0  0  0  0  0  0  0  0
   12.8885  -34.2305  -14.2854 O   0  0  0  0  0  0  0  0  0  0  0  0
   12.5628  -21.5670  -14.8137 C   0  0  0  0  0  0  0  0  0  0  0  0
   11.4446  -20.7029  -14.4936 N   0  0  0  0  0  0  0  0  0  0  0  0
   14.3147  -29.5109  -13.1578 O   0  0  0  0  0  0  0  0  0  0  0  0
   10.9145  -32.3085  -11.5453 O   0  0  0  0  0  0  0  0  0  0  0  0
   14.9485  -34.3801  -12.9426 O   0  5  0  0  0  0  0  0  0  0  0  0
   13.2142  -22.1461  -13.8257 N   0  0  0  0  0  0  0  0  0  0  0  0
   12.1460  -30.0959  -11.8804 O   0  0  0  0  0  0  0  0  0  0  0  0
   13.2981  -32.4326  -12.5090 O   0  0  0  0  0  0  0  0  0  0  0  0
   12.7458  -34.9082  -11.9229 O   0  0  0  0  0  0  0  0  0  0  0  0
   14.2528  -22.9518  -14.0784 C   0  0  0  0  0  0  0  0  0  0  0  0
   14.6244  -23.1618  -15.3910 C   0  0  0  0  0  0  0  0  0  0  0  0
   13.9139  -22.5317  -16.4307 C   0  0  0  0  0  0  0  0  0  0  0  0
   14.2692  -22.7258  -17.7772 O   0  0  0  0  0  0  0  0  0  0  0  0
   15.6781  -23.9960  -15.3853 N   0  0  0  0  0  0  0  0  0  0  0  0
   15.9463  -24.2895  -14.1249 C   0  0  0  0  0  0  0  0  0  0  0  0
   15.0975  -23.6726  -13.3242 N   0  0  0  0  0  0  0  0  0  0  0  0
  1  5  1  1  0  0  0
  1 14  1  0  0  0  0
  1 19  2  0  0  0  0
  1 23  1  0  0  0  0
  2 15  1  6  0  0  0
  2 20  2  0  0  0  0
  2 23  1  0  0  0  0
  2 24  1  0  0  0  0
  3 16  1  6  0  0  0
  3 21  1  0  0  0  0
  3 24  1  0  0  0  0
  3 25  2  0  0  0  0
  4  5  1  0  0  0  0
  6  4  1  6  0  0  0
  6  7  1  0  0  0  0
  6  8  1  0  0  0  0
  7 12  1  0  0  0  0
  8  9  1  1  0  0  0
  8 10  1  0  0  0  0
 10 11  1  1  0  0  0
 10 12  1  0  0  0  0
 12 32  1  6  0  0  0
 13 17  2  0  0  0  0
 13 28  1  0  0  0  0
 17 18  1  0  0  0  0
 17 22  1  0  0  0  0
 22 26  2  0  0  0  0
 26 27  1  0  0  0  0
 26 32  1  0  0  0  0
 27 28  2  0  0  0  0
 27 30  1  0  0  0  0
 28 29  1  0  0  0  0
 30 31  2  0  0  0  0
 31 32  1  0  0  0  0
M  CHG  3  14  -1  15  -1  21  -1
M  END
>  <CHROM.1>
-77.89070466,-50.65785709,56.45616978,168.88681874,-174.99282249,150.26399804
-173.56274260,-64.28476506,13.38131465,-27.48750490,-13.05871592,2.36663988
-1.43454210,-2.47240188

>  <Name>
ligand

>  <RI>
0

>  <Rbt.Current_Directory>
/home/itssahil/PROJECTS/Mol_Feturizer/New_Systems/rnas/4Y1I

>  <Rbt.Executable>
rbdock ($Id: //depot/dev/client3/rdock/2013.1/src/exe/rbdock.cxx#4 $)

>  <Rbt.Library>
libRbt.so (2013.1, Build901 2013/11/27)

>  <Rbt.Parameter_File>
/export/apps/rDock/src/rDock_2013.1_src/data/scripts/dock_solv.prm

>  <Rbt.Receptor>
prm/pocket_docking_8.prm

>  <SCORE>
-6.62632

>  <SCORE.INTER>
-0.859078

>  <SCORE.INTER.CONST>
1

>  <SCORE.INTER.POLAR>
0

>  <SCORE.INTER.ROT>
8

>  <SCORE.INTER.SOLV>
12.7375

>  <SCORE.INTER.VDW>
-13.7519

>  <SCORE.INTER.norm>
-0.0268462

>  <SCORE.INTRA>
-5.77476

>  <SCORE.INTRA.DIHEDRAL>
-8.49348

>  <SCORE.INTRA.DIHEDRAL.0>
10.9594

>  <SCORE.INTRA.POLAR>
0

>  <SCORE.INTRA.POLAR.0>
0

>  <SCORE.INTRA.REPUL>
0

>  <SCORE.INTRA.REPUL.0>
0

>  <SCORE.INTRA.SOLV>
-4.0317

>  <SCORE.INTRA.SOLV.lig_0>
-124.914

>  <SCORE.INTRA.VDW>
0.487835

>  <SCORE.INTRA.VDW.0>
-4.69801

>  <SCORE.INTRA.norm>
-0.180461

>  <SCORE.RESTR>
0.0075147

>  <SCORE.RESTR.CAVITY>
0.0075147

>  <SCORE.RESTR.norm>
0.000234834

>  <SCORE.SYSTEM>
0

>  <SCORE.SYSTEM.CONST>
0

>  <SCORE.SYSTEM.DIHEDRAL>
0

>  <SCORE.SYSTEM.SOLV>
0

>  <SCORE.SYSTEM.norm>
0

>  <SCORE.heavy>
32

>  <SCORE.norm>
-0.207073

>  <RMSD>
7.140

$$$$
ligand
 OpenBabel11021811513D
libRbt.so/2013.1/901 2013/11/27
 32 34  0  0  0  0  0  0  0  0999 V2000
   15.9541  -22.4511  -18.6990 P   0  0  1  0  0  0  0  0  0  0  0  0
   13.6153  -21.3281  -17.4744 P   0  0  2  0  0  0  0  0  0  0  0  0
   12.0216  -19.2421  -18.7874 P   0  0  1  0  0  0  0  0  0  0  0  0
   18.3369  -23.3562  -19.2416 C   0  0  0  0  0  0  0  0  0  0  0  0
   17.5432  -22.6605  -18.3230 O   0  0  0  0  0  0  0  0  0  0  0  0
   19.6152  -23.5212  -18.7199 C   0  0  1  0  0  0  0  0  0  0  0  0
   19.5463  -24.3027  -17.4221 O   0  0  0  0  0  0  0  0  0  0  0  0
   20.5371  -24.3822  -19.7002 C   0  0  1  0  0  0  0  0  0  0  0  0
   21.6689  -23.5202  -20.2122 O   0  0  0  0  0  0  0  0  0  0  0  0
   21.0378  -25.2698  -19.0055 C   0  0  1  0  0  0  0  0  0  0  0  0
   22.3932  -24.8509  -18.5747 O   0  0  0  0  0  0  0  0  0  0  0  0
   20.0469  -25.4456  -17.6785 C   0  0  2  0  0  0  0  0  0  0  0  0
   18.2015  -30.1426  -16.7204 N   0  0  0  0  0  0  0  0  0  0  0  0
   15.8290  -21.5829  -19.9264 O   0  5  0  0  0  0  0  0  0  0  0  0
   13.1824  -20.7566  -16.1476 O   0  5  0  0  0  0  0  0  0  0  0  0
   12.0809  -18.2506  -17.6490 O   0  0  0  0  0  0  0  0  0  0  0  0
   19.3104  -29.5889  -16.2553 C   0  0  0  0  0  0  0  0  0  0  0  0
   20.1602  -30.3446  -15.3574 N   0  0  0  0  0  0  0  0  0  0  0  0
   15.3269  -23.8074  -18.9296 O   0  0  0  0  0  0  0  0  0  0  0  0
   12.8406  -22.5883  -17.7577 O   0  0  0  0  0  0  0  0  0  0  0  0
   12.0630  -18.4917  -20.1007 O   0  5  0  0  0  0  0  0  0  0  0  0
   19.6712  -28.3649  -16.5829 N   0  0  0  0  0  0  0  0  0  0  0  0
   15.2140  -21.6992  -17.4398 O   0  0  0  0  0  0  0  0  0  0  0  0
   13.3380  -20.2335  -18.6706 O   0  0  0  0  0  0  0  0  0  0  0  0
   10.7417  -20.0417  -18.6786 O   0  0  0  0  0  0  0  0  0  0  0  0
   18.9145  -27.6332  -17.4097 C   0  0  0  0  0  0  0  0  0  0  0  0
   17.7532  -28.1869  -17.9094 C   0  0  0  0  0  0  0  0  0  0  0  0
   17.3870  -29.4969  -17.5448 C   0  0  0  0  0  0  0  0  0  0  0  0
   16.2099  -30.0875  -18.0372 O   0  0  0  0  0  0  0  0  0  0  0  0
   17.1763  -27.2697  -18.7045 N   0  0  0  0  0  0  0  0  0  0  0  0
   17.9470  -26.1961  -18.6974 C   0  0  0  0  0  0  0  0  0  0  0  0
   18.9990  -26.3970  -17.9260 N   0  0  0  0  0  0  0  0  0  0  0  0
  1  5  1  1  0  0  0
  1 14  1  0  0  0  0
  1 19  2  0  0  0  0
  1 23  1  0  0  0  0
  2 15  1  1  0  0  0
  2 20  2  0  0  0  0
  2 23  1  0  0  0  0
  2 24  1  0  0  0  0
  3 16  1  1  0  0  0
  3 21  1  0  0  0  0
  3 24  1  0  0  0  0
  3 25  2  0  0  0  0
  4  5  1  0  0  0  0
  6  4  1  6  0  0  0
  6  7  1  0  0  0  0
  6  8  1  0  0  0  0
  7 12  1  0  0  0  0
  8  9  1  1  0  0  0
  8 10  1  0  0  0  0
 10 11  1  1  0  0  0
 10 12  1  0  0  0  0
 12 32  1  6  0  0  0
 13 17  2  0  0  0  0
 13 28  1  0  0  0  0
 17 18  1  0  0  0  0
 17 22  1  0  0  0  0
 22 26  2  0  0  0  0
 26 27  1  0  0  0  0
 26 32  1  0  0  0  0
 27 28  2  0  0  0  0
 27 30  1  0  0  0  0
 28 29  1  0  0  0  0
 30 31  2  0  0  0  0
 31 32  1  0  0  0  0
M  CHG  3  14  -1  15  -1  21  -1
M  END
>  <CHROM.1>
-64.66691820,175.06619398,67.20126558,59.84476115,-175.72325037,-133.50037572
179.86667963,-39.05643438,16.57922118,-23.89440193,-18.17405773,-2.30377096
-0.20308722,2.85964652

>  <Name>
ligand

>  <RI>
0

>  <Rbt.Current_Directory>
/home/itssahil/PROJECTS/Mol_Feturizer/New_Systems/rnas/4Y1I

>  <Rbt.Executable>
rbdock ($Id: //depot/dev/client3/rdock/2013.1/src/exe/rbdock.cxx#4 $)

>  <Rbt.Library>
libRbt.so (2013.1, Build901 2013/11/27)

>  <Rbt.Parameter_File>
/export/apps/rDock/src/rDock_2013.1_src/data/scripts/dock_solv.prm

>  <Rbt.Receptor>
prm/pocket_docking_6.prm

>  <SCORE>
-7.29475

>  <SCORE.INTER>
-1.584

>  <SCORE.INTER.CONST>
1

>  <SCORE.INTER.POLAR>
0

>  <SCORE.INTER.ROT>
8

>  <SCORE.INTER.SOLV>
12.6654

>  <SCORE.INTER.VDW>
-14.2111

>  <SCORE.INTER.norm>
-0.0495

>  <SCORE.INTRA>
-5.71075

>  <SCORE.INTRA.DIHEDRAL>
-8.85645

>  <SCORE.INTRA.DIHEDRAL.0>
10.9594

>  <SCORE.INTRA.POLAR>
0

>  <SCORE.INTRA.POLAR.0>
0

>  <SCORE.INTRA.REPUL>
0

>  <SCORE.INTRA.REPUL.0>
0

>  <SCORE.INTRA.SOLV>
-3.65666

>  <SCORE.INTRA.SOLV.lig_0>
-124.914

>  <SCORE.INTRA.VDW>
0.545804

>  <SCORE.INTRA.VDW.0>
-4.69801

>  <SCORE.INTRA.norm>
-0.178461

>  <SCORE.RESTR>
0

>  <SCORE.RESTR.CAVITY>
0

>  <SCORE.RESTR.norm>
0

>  <SCORE.SYSTEM>
0

>  <SCORE.SYSTEM.CONST>
0

>  <SCORE.SYSTEM.DIHEDRAL>
0

>  <SCORE.SYSTEM.SOLV>
0

>  <SCORE.SYSTEM.norm>
0

>  <SCORE.heavy>
32

>  <SCORE.norm>
-0.227961

>  <RMSD>
7.244

$$$$
ligand
 OpenBabel11021811513D
libRbt.so/2013.1/901 2013/11/27
 32 34  0  0  0  0  0  0  0  0999 V2000
   15.8263  -21.9372  -18.1178 P   0  0  1  0  0  0  0  0  0  0  0  0
   14.0996  -22.7434  -15.9731 P   0  0  2  0  0  0  0  0  0  0  0  0
   11.6989  -21.0968  -15.5984 P   0  0  1  0  0  0  0  0  0  0  0  0
   17.4970  -20.6906  -19.6820 C   0  0  0  0  0  0  0  0  0  0  0  0
   16.8036  -20.6592  -18.4670 O   0  0  0  0  0  0  0  0  0  0  0  0
   18.2987  -19.5596  -19.7888 C   0  0  1  0  0  0  0  0  0  0  0  0
   19.4058  -19.6118  -18.7537 O   0  0  0  0  0  0  0  0  0  0  0  0
   19.0297  -19.4966  -21.2079 C   0  0  1  0  0  0  0  0  0  0  0  0
   18.5282  -18.2966  -21.9789 O   0  0  0  0  0  0  0  0  0  0  0  0
   20.2242  -19.3047  -20.9679 C   0  0  1  0  0  0  0  0  0  0  0  0
   20.5215  -17.8566  -21.0792 O   0  0  0  0  0  0  0  0  0  0  0  0
   20.4802  -19.8208  -19.4052 C   0  0  2  0  0  0  0  0  0  0  0  0
   24.1972  -23.3173  -18.8195 N   0  0  0  0  0  0  0  0  0  0  0  0
   14.8312  -22.1400  -19.2335 O   0  5  0  0  0  0  0  0  0  0  0  0
   14.9722  -23.6220  -15.1123 O   0  5  0  0  0  0  0  0  0  0  0  0
   10.8797  -21.9636  -16.5257 O   0  0  0  0  0  0  0  0  0  0  0  0
   24.3043  -21.9980  -18.7963 C   0  0  0  0  0  0  0  0  0  0  0  0
   25.6038  -21.3935  -18.5832 N   0  0  0  0  0  0  0  0  0  0  0  0
   16.6848  -23.1674  -17.9285 O   0  0  0  0  0  0  0  0  0  0  0  0
   13.4164  -23.5826  -17.0209 O   0  0  0  0  0  0  0  0  0  0  0  0
   10.8344  -20.6599  -14.4359 O   0  5  0  0  0  0  0  0  0  0  0  0
   23.2622  -21.2090  -18.9614 N   0  0  0  0  0  0  0  0  0  0  0  0
   15.0090  -21.6065  -16.7317 O   0  0  0  0  0  0  0  0  0  0  0  0
   12.9661  -21.9991  -15.0420 O   0  0  0  0  0  0  0  0  0  0  0  0
   12.1993  -19.8915  -16.3640 O   0  0  0  0  0  0  0  0  0  0  0  0
   22.0443  -21.7271  -19.1611 C   0  0  0  0  0  0  0  0  0  0  0  0
   21.9049  -23.1000  -19.1903 C   0  0  0  0  0  0  0  0  0  0  0  0
   23.0329  -23.9237  -19.0106 C   0  0  0  0  0  0  0  0  0  0  0  0
   22.9222  -25.3251  -19.0347 O   0  0  0  0  0  0  0  0  0  0  0  0
   20.6057  -23.3711  -19.4018 N   0  0  0  0  0  0  0  0  0  0  0  0
   19.9694  -22.2168  -19.4998 C   0  0  0  0  0  0  0  0  0  0  0  0
   20.8190  -21.2163  -19.3602 N   0  0  0  0  0  0  0  0  0  0  0  0
  1  5  1  6  0  0  0
  1 14  1  0  0  0  0
  1 19  2  0  0  0  0
  1 23  1  0  0  0  0
  2 15  1  1  0  0  0
  2 20  2  0  0  0  0
  2 23  1  0  0  0  0
  2 24  1  0  0  0  0
  3 16  1  6  0  0  0
  3 21  1  0  0  0  0
  3 24  1  0  0  0  0
  3 25  2  0  0  0  0
  4  5  1  0  0  0  0
  6  4  1  6  0  0  0
  6  7  1  0  0  0  0
  6  8  1  0  0  0  0
  7 12  1  0  0  0  0
  8  9  1  6  0  0  0
  8 10  1  0  0  0  0
 10 11  1  1  0  0  0
 10 12  1  0  0  0  0
 12 32  1  6  0  0  0
 13 17  2  0  0  0  0
 13 28  1  0  0  0  0
 17 18  1  0  0  0  0
 17 22  1  0  0  0  0
 22 26  2  0  0  0  0
 26 27  1  0  0  0  0
 26 32  1  0  0  0  0
 27 28  2  0  0  0  0
 27 30  1  0  0  0  0
 28 29  1  0  0  0  0
 30 31  2  0  0  0  0
 31 32  1  0  0  0  0
M  CHG  3  14  -1  15  -1  21  -1
M  END
>  <CHROM.1>
-55.36180261,82.36851858,57.50504564,67.16341025,-178.14773058,-136.96803084
-171.36963694,-172.13367683,17.55968888,-21.54736213,-18.16205260,-2.94666046
0.28405626,-0.59437103

>  <Name>
ligand

>  <RI>
0

>  <Rbt.Current_Directory>
/home/itssahil/PROJECTS/Mol_Feturizer/New_Systems/rnas/4Y1I

>  <Rbt.Executable>
rbdock ($Id: //depot/dev/client3/rdock/2013.1/src/exe/rbdock.cxx#4 $)

>  <Rbt.Library>
libRbt.so (2013.1, Build901 2013/11/27)

>  <Rbt.Parameter_File>
/export/apps/rDock/src/rDock_2013.1_src/data/scripts/dock_solv.prm

>  <Rbt.Receptor>
prm/pocket_docking_7.prm

>  <SCORE>
-10.2804

>  <SCORE.INTER>
-4.88434

>  <SCORE.INTER.CONST>
1

>  <SCORE.INTER.POLAR>
0

>  <SCORE.INTER.ROT>
8

>  <SCORE.INTER.SOLV>
15.6623

>  <SCORE.INTER.VDW>
-17.4103

>  <SCORE.INTER.norm>
-0.152636

>  <SCORE.INTRA>
-5.39993

>  <SCORE.INTRA.DIHEDRAL>
-8.49674

>  <SCORE.INTRA.DIHEDRAL.0>
10.9594

>  <SCORE.INTRA.POLAR>
0

>  <SCORE.INTRA.POLAR.0>
0

>  <SCORE.INTRA.REPUL>
0

>  <SCORE.INTRA.REPUL.0>
0

>  <SCORE.INTRA.SOLV>
-3.60105

>  <SCORE.INTRA.SOLV.lig_0>
-124.914

>  <SCORE.INTRA.VDW>
0.648965

>  <SCORE.INTRA.VDW.0>
-4.69801

>  <SCORE.INTRA.norm>
-0.168748

>  <SCORE.RESTR>
0.0038285

>  <SCORE.RESTR.CAVITY>
0.0038285

>  <SCORE.RESTR.norm>
0.000119641

>  <SCORE.SYSTEM>
0

>  <SCORE.SYSTEM.CONST>
0

>  <SCORE.SYSTEM.DIHEDRAL>
0

>  <SCORE.SYSTEM.SOLV>
0

>  <SCORE.SYSTEM.norm>
0

>  <SCORE.heavy>
32

>  <SCORE.norm>
-0.321264

>  <RMSD>
7.244

$$$$
ligand
 OpenBabel11021811513D
libRbt.so/2013.1/901 2013/11/27
 32 34  0  0  0  0  0  0  0  0999 V2000
   15.5635  -20.7653  -19.5686 P   0  0  1  0  0  0  0  0  0  0  0  0
   14.2069  -21.7170  -17.2266 P   0  0  2  0  0  0  0  0  0  0  0  0
   11.6105  -20.6922  -16.3190 P   0  0  1  0  0  0  0  0  0  0  0  0
   18.1445  -20.6254  -19.2365 C   0  0  0  0  0  0  0  0  0  0  0  0
   17.0410  -20.1493  -19.9531 O   0  0  0  0  0  0  0  0  0  0  0  0
   19.3141  -20.3023  -19.9156 C   0  0  1  0  0  0  0  0  0  0  0  0
   20.5193  -20.7318  -19.1014 O   0  0  0  0  0  0  0  0  0  0  0  0
   19.4191  -21.0906  -21.3011 C   0  0  1  0  0  0  0  0  0  0  0  0
   19.3691  -20.1041  -22.4458 O   0  0  0  0  0  0  0  0  0  0  0  0
   20.5377  -21.6102  -21.3139 C   0  0  1  0  0  0  0  0  0  0  0  0
   21.4729  -20.7450  -22.0719 O   0  0  0  0  0  0  0  0  0  0  0  0
   21.0245  -21.7210  -19.7250 C   0  0  2  0  0  0  0  0  0  0  0  0
   22.3899  -26.3484  -17.9620 N   0  0  0  0  0  0  0  0  0  0  0  0
   14.4897  -19.7539  -19.8847 O   0  5  0  0  0  0  0  0  0  0  0  0
   14.5477  -22.1770  -15.8314 O   0  5  0  0  0  0  0  0  0  0  0  0
   11.9466  -20.7119  -14.8463 O   0  0  0  0  0  0  0  0  0  0  0  0
   23.1635  -25.4146  -18.4934 C   0  0  0  0  0  0  0  0  0  0  0  0
   24.5854  -25.6596  -18.6259 N   0  0  0  0  0  0  0  0  0  0  0  0
   15.3512  -22.0419  -20.3505 O   0  0  0  0  0  0  0  0  0  0  0  0
   13.7288  -22.8899  -18.0418 O   0  0  0  0  0  0  0  0  0  0  0  0
   10.7394  -19.4902  -16.6125 O   0  5  0  0  0  0  0  0  0  0  0  0
   22.6817  -24.2611  -18.9092 N   0  0  0  0  0  0  0  0  0  0  0  0
   15.5338  -21.0845  -17.9574 O   0  0  0  0  0  0  0  0  0  0  0  0
   13.0250  -20.5745  -17.1644 O   0  0  0  0  0  0  0  0  0  0  0  0
   10.8820  -21.9695  -16.6756 O   0  0  0  0  0  0  0  0  0  0  0  0
   21.3740  -23.9951  -18.8052 C   0  0  0  0  0  0  0  0  0  0  0  0
   20.5451  -24.9519  -18.2551 C   0  0  0  0  0  0  0  0  0  0  0  0
   21.0824  -26.1775  -17.8166 C   0  0  0  0  0  0  0  0  0  0  0  0
   20.2634  -27.1710  -17.2518 O   0  0  0  0  0  0  0  0  0  0  0  0
   19.2958  -24.4566  -18.2592 N   0  0  0  0  0  0  0  0  0  0  0  0
   19.3493  -23.2469  -18.7890 C   0  0  0  0  0  0  0  0  0  0  0  0
   20.5912  -22.9530  -19.1260 N   0  0  0  0  0  0  0  0  0  0  0  0
  1  5  1  6  0  0  0
  1 14  1  0  0  0  0
  1 19  2  0  0  0  0
  1 23  1  0  0  0  0
  2 15  1  1  0  0  0
  2 20  2  0  0  0  0
  2 23  1  0  0  0  0
  2 24  1  0  0  0  0
  3 16  1  1  0  0  0
  3 21  1  0  0  0  0
  3 24  1  0  0  0  0
  3 25  2  0  0  0  0
  4  5  1  0  0  0  0
  6  4  1  1  0  0  0
  6  7  1  0  0  0  0
  6  8  1  0  0  0  0
  7 12  1  0  0  0  0
  8  9  1  6  0  0  0
  8 10  1  0  0  0  0
 10 11  1  6  0  0  0
 10 12  1  0  0  0  0
 12 32  1  1  0  0  0
 13 17  2  0  0  0  0
 13 28  1  0  0  0  0
 17 18  1  0  0  0  0
 17 22  1  0  0  0  0
 22 26  2  0  0  0  0
 26 27  1  0  0  0  0
 26 32  1  0  0  0  0
 27 28  2  0  0  0  0
 27 30  1  0  0  0  0
 28 29  1  0  0  0  0
 30 31  2  0  0  0  0
 31 32  1  0  0  0  0
M  CHG  3  14  -1  15  -1  21  -1
M  END
>  <CHROM.1>
152.49053740,167.95902127,66.05577621,176.21945316,163.47268026,-132.77871140
-179.78537340,-49.03980529,17.31753247,-22.14273796,-18.56274278,-3.04875381
-0.38386630,2.43308707

>  <Name>
ligand

>  <RI>
0

>  <Rbt.Current_Directory>
/home/itssahil/PROJECTS/Mol_Feturizer/New_Systems/rnas/4Y1I

>  <Rbt.Executable>
rbdock ($Id: //depot/dev/client3/rdock/2013.1/src/exe/rbdock.cxx#4 $)

>  <Rbt.Library>
libRbt.so (2013.1, Build901 2013/11/27)

>  <Rbt.Parameter_File>
/export/apps/rDock/src/rDock_2013.1_src/data/scripts/dock_solv.prm

>  <Rbt.Receptor>
prm/pocket_docking_5.prm

>  <SCORE>
-9.65732

>  <SCORE.INTER>
-4.92814

>  <SCORE.INTER.CONST>
1

>  <SCORE.INTER.POLAR>
0

>  <SCORE.INTER.ROT>
8

>  <SCORE.INTER.SOLV>
15.9253

>  <SCORE.INTER.VDW>
-17.5272

>  <SCORE.INTER.norm>
-0.154005

>  <SCORE.INTRA>
-4.72917

>  <SCORE.INTRA.DIHEDRAL>
-6.96274

>  <SCORE.INTRA.DIHEDRAL.0>
10.9594

>  <SCORE.INTRA.POLAR>
0

>  <SCORE.INTRA.POLAR.0>
0

>  <SCORE.INTRA.REPUL>
0

>  <SCORE.INTRA.REPUL.0>
0

>  <SCORE.INTRA.SOLV>
-3.96092

>  <SCORE.INTRA.SOLV.lig_0>
-124.914

>  <SCORE.INTRA.VDW>
0.732656

>  <SCORE.INTRA.VDW.0>
-4.69801

>  <SCORE.INTRA.norm>
-0.147787

>  <SCORE.RESTR>
0

>  <SCORE.RESTR.CAVITY>
0

>  <SCORE.RESTR.norm>
0

>  <SCORE.SYSTEM>
0

>  <SCORE.SYSTEM.CONST>
0

>  <SCORE.SYSTEM.DIHEDRAL>
0

>  <SCORE.SYSTEM.SOLV>
0

>  <SCORE.SYSTEM.norm>
0

>  <SCORE.heavy>
32

>  <SCORE.norm>
-0.301791

>  <RMSD>
7.257

$$$$
ligand
 OpenBabel11021811513D
libRbt.so/2013.1/901 2013/11/27
 32 34  0  0  0  0  0  0  0  0999 V2000
   20.2705  -19.5586  -19.5122 P   0  0  1  0  0  0  0  0  0  0  0  0
   17.6354  -20.6147  -19.0977 P   0  0  2  0  0  0  0  0  0  0  0  0
   15.1808  -21.7062  -17.9148 P   0  0  1  0  0  0  0  0  0  0  0  0
   20.9246  -21.9922  -20.1765 C   0  0  0  0  0  0  0  0  0  0  0  0
   21.2844  -20.8540  -19.4464 O   0  0  0  0  0  0  0  0  0  0  0  0
   21.9839  -22.8928  -20.1850 C   0  0  1  0  0  0  0  0  0  0  0  0
   22.1809  -23.4714  -18.7970 O   0  0  0  0  0  0  0  0  0  0  0  0
   21.6811  -24.1382  -21.1387 C   0  0  1  0  0  0  0  0  0  0  0  0
   22.6549  -24.1339  -22.2954 O   0  0  0  0  0  0  0  0  0  0  0  0
   21.9141  -25.1463  -20.4675 C   0  0  1  0  0  0  0  0  0  0  0  0
   23.2847  -25.6278  -20.7630 O   0  0  0  0  0  0  0  0  0  0  0  0
   21.8036  -24.6858  -18.8707 C   0  0  2  0  0  0  0  0  0  0  0  0
   18.2097  -27.8299  -16.9777 N   0  0  0  0  0  0  0  0  0  0  0  0
   20.9827  -18.3258  -19.0131 O   0  5  0  0  0  0  0  0  0  0  0  0
   17.9985  -21.9533  -19.6899 O   0  5  0  0  0  0  0  0  0  0  0  0
   14.6310  -21.8038  -16.5111 O   0  0  0  0  0  0  0  0  0  0  0  0
   19.4441  -28.1292  -17.3508 C   0  0  0  0  0  0  0  0  0  0  0  0
   19.9089  -29.4971  -17.2390 N   0  0  0  0  0  0  0  0  0  0  0  0
   19.8086  -19.3756  -20.9402 O   0  0  0  0  0  0  0  0  0  0  0  0
   17.0049  -19.7490  -20.1568 O   0  0  0  0  0  0  0  0  0  0  0  0
   14.1693  -21.0058  -18.7956 O   0  5  0  0  0  0  0  0  0  0  0  0
   20.2714  -27.2196  -17.8239 N   0  0  0  0  0  0  0  0  0  0  0  0
   18.9798  -19.8554  -18.5403 O   0  0  0  0  0  0  0  0  0  0  0  0
   16.5755  -20.8224  -17.8570 O   0  0  0  0  0  0  0  0  0  0  0  0
   15.4553  -23.1003  -18.4349 O   0  0  0  0  0  0  0  0  0  0  0  0
   19.8813  -25.9448  -17.9435 C   0  0  0  0  0  0  0  0  0  0  0  0
   18.5989  -25.6058  -17.5621 C   0  0  0  0  0  0  0  0  0  0  0  0
   17.7322  -26.5948  -17.0583 C   0  0  0  0  0  0  0  0  0  0  0  0
   16.4207  -26.2798  -16.6612 O   0  0  0  0  0  0  0  0  0  0  0  0
   18.4481  -24.2873  -17.7742 N   0  0  0  0  0  0  0  0  0  0  0  0
   19.5869  -23.8308  -18.2657 C   0  0  0  0  0  0  0  0  0  0  0  0
   20.4604  -24.8141  -18.3772 N   0  0  0  0  0  0  0  0  0  0  0  0
  1  5  1  1  0  0  0
  1 14  1  0  0  0  0
  1 19  2  0  0  0  0
  1 23  1  0  0  0  0
  2 15  1  6  0  0  0
  2 20  2  0  0  0  0
  2 23  1  0  0  0  0
  2 24  1  0  0  0  0
  3 16  1  1  0  0  0
  3 21  1  0  0  0  0
  3 24  1  0  0  0  0
  3 25  2  0  0  0  0
  4  5  1  0  0  0  0
  6  4  1  1  0  0  0
  6  7  1  0  0  0  0
  6  8  1  0  0  0  0
  7 12  1  0  0  0  0
  8  9  1  6  0  0  0
  8 10  1  0  0  0  0
 10 11  1  1  0  0  0
 10 12  1  0  0  0  0
 12 32  1  6  0  0  0
 13 17  2  0  0  0  0
 13 28  1  0  0  0  0
 17 18  1  0  0  0  0
 17 22  1  0  0  0  0
 22 26  2  0  0  0  0
 26 27  1  0  0  0  0
 26 32  1  0  0  0  0
 27 28  2  0  0  0  0
 27 30  1  0  0  0  0
 28 29  1  0  0  0  0
 30 31  2  0  0  0  0
 31 32  1  0  0  0  0
M  CHG  3  14  -1  15  -1  21  -1
M  END
>  <CHROM.1>
-163.95943327,56.21622517,171.39498306,69.22262668,170.33811212,-159.38983321
-89.04742181,-50.64712912,19.03117773,-23.04090882,-18.83558692,-2.05270498
-0.38912026,2.87627553

>  <Name>
ligand

>  <RI>
0

>  <Rbt.Current_Directory>
/home/itssahil/PROJECTS/Mol_Feturizer/New_Systems/rnas/4Y1I

>  <Rbt.Executable>
rbdock ($Id: //depot/dev/client3/rdock/2013.1/src/exe/rbdock.cxx#4 $)

>  <Rbt.Library>
libRbt.so (2013.1, Build901 2013/11/27)

>  <Rbt.Parameter_File>
/export/apps/rDock/src/rDock_2013.1_src/data/scripts/dock_solv.prm

>  <Rbt.Receptor>
prm/pocket_docking_5.prm

>  <SCORE>
-14.3118

>  <SCORE.INTER>
-10.5165

>  <SCORE.INTER.CONST>
1

>  <SCORE.INTER.POLAR>
0

>  <SCORE.INTER.ROT>
8

>  <SCORE.INTER.SOLV>
16.7604

>  <SCORE.INTER.VDW>
-21.5312

>  <SCORE.INTER.norm>
-0.328642

>  <SCORE.INTRA>
-3.79525

>  <SCORE.INTRA.DIHEDRAL>
-7.08913

>  <SCORE.INTRA.DIHEDRAL.0>
10.9594

>  <SCORE.INTRA.POLAR>
0

>  <SCORE.INTRA.POLAR.0>
0

>  <SCORE.INTRA.REPUL>
0

>  <SCORE.INTRA.REPUL.0>
0

>  <SCORE.INTRA.SOLV>
0.274973

>  <SCORE.INTRA.SOLV.lig_0>
-124.914

>  <SCORE.INTRA.VDW>
-0.388171

>  <SCORE.INTRA.VDW.0>
-4.69801

>  <SCORE.INTRA.norm>
-0.118602

>  <SCORE.RESTR>
0

>  <SCORE.RESTR.CAVITY>
0

>  <SCORE.RESTR.norm>
0

>  <SCORE.SYSTEM>
0

>  <SCORE.SYSTEM.CONST>
0

>  <SCORE.SYSTEM.DIHEDRAL>
0

>  <SCORE.SYSTEM.SOLV>
0

>  <SCORE.SYSTEM.norm>
0

>  <SCORE.heavy>
32

>  <SCORE.norm>
-0.447244

>  <RMSD>
7.306

$$$$
ligand
 OpenBabel11021811513D
libRbt.so/2013.1/901 2013/11/27
 32 34  0  0  0  0  0  0  0  0999 V2000
   15.1642  -23.1172  -17.5179 P   0  0  1  0  0  0  0  0  0  0  0  0
   16.3066  -21.0484  -19.1447 P   0  0  2  0  0  0  0  0  0  0  0  0
   14.2704  -19.5737  -20.6595 P   0  0  1  0  0  0  0  0  0  0  0  0
   16.9017  -24.7640  -16.4880 C   0  0  0  0  0  0  0  0  0  0  0  0
   16.7123  -23.6201  -17.2714 O   0  0  0  0  0  0  0  0  0  0  0  0
   16.4802  -25.8854  -17.1937 C   0  0  1  0  0  0  0  0  0  0  0  0
   17.1079  -25.8928  -18.5742 O   0  0  0  0  0  0  0  0  0  0  0  0
   16.9639  -27.2337  -16.4864 C   0  0  1  0  0  0  0  0  0  0  0  0
   15.7586  -28.0091  -16.0046 O   0  0  0  0  0  0  0  0  0  0  0  0
   17.5039  -27.9065  -17.3679 C   0  0  1  0  0  0  0  0  0  0  0  0
   16.5287  -28.8848  -17.9063 O   0  0  0  0  0  0  0  0  0  0  0  0
   17.9599  -26.8396  -18.5628 C   0  0  2  0  0  0  0  0  0  0  0  0
   22.8631  -27.8893  -17.4483 N   0  0  0  0  0  0  0  0  0  0  0  0
   14.5085  -23.9769  -18.5700 O   0  5  0  0  0  0  0  0  0  0  0  0
   16.5837  -22.1321  -20.1562 O   0  5  0  0  0  0  0  0  0  0  0  0
   14.1164  -20.7510  -21.5936 O   0  0  0  0  0  0  0  0  0  0  0  0
   21.8569  -28.7378  -17.5909 C   0  0  0  0  0  0  0  0  0  0  0  0
   22.0951  -30.1576  -17.4261 N   0  0  0  0  0  0  0  0  0  0  0  0
   14.4130  -23.1979  -16.2082 O   0  0  0  0  0  0  0  0  0  0  0  0
   17.5769  -20.7060  -18.4114 O   0  0  0  0  0  0  0  0  0  0  0  0
   13.1621  -19.6097  -19.6300 O   0  5  0  0  0  0  0  0  0  0  0  0
   20.6369  -28.3333  -17.8798 N   0  0  0  0  0  0  0  0  0  0  0  0
   15.1981  -21.5628  -18.0486 O   0  0  0  0  0  0  0  0  0  0  0  0
   15.7348  -19.7072  -19.9063 O   0  0  0  0  0  0  0  0  0  0  0  0
   14.2002  -18.2939  -21.4636 O   0  0  0  0  0  0  0  0  0  0  0  0
   20.3745  -27.0306  -18.0399 C   0  0  0  0  0  0  0  0  0  0  0  0
   21.4057  -26.1245  -17.8962 C   0  0  0  0  0  0  0  0  0  0  0  0
   22.7021  -26.5799  -17.5880 C   0  0  0  0  0  0  0  0  0  0  0  0
   23.7726  -25.6811  -17.4361 O   0  0  0  0  0  0  0  0  0  0  0  0
   20.8984  -24.8971  -18.1019 N   0  0  0  0  0  0  0  0  0  0  0  0
   19.6100  -25.0375  -18.3610 C   0  0  0  0  0  0  0  0  0  0  0  0
   19.2759  -26.3140  -18.3255 N   0  0  0  0  0  0  0  0  0  0  0  0
  1  5  1  1  0  0  0
  1 14  1  0  0  0  0
  1 19  2  0  0  0  0
  1 23  1  0  0  0  0
  2 15  1  6  0  0  0
  2 20  2  0  0  0  0
  2 23  1  0  0  0  0
  2 24  1  0  0  0  0
  3 16  1  6  0  0  0
  3 21  1  0  0  0  0
  3 24  1  0  0  0  0
  3 25  2  0  0  0  0
  4  5  1  0  0  0  0
  6  4  1  1  0  0  0
  6  7  1  0  0  0  0
  6  8  1  0  0  0  0
  7 12  1  0  0  0  0
  8  9  1  6  0  0  0
  8 10  1  0  0  0  0
 10 11  1  6  0  0  0
 10 12  1  0  0  0  0
 12 32  1  1  0  0  0
 13 17  2  0  0  0  0
 13 28  1  0  0  0  0
 17 18  1  0  0  0  0
 17 22  1  0  0  0  0
 22 26  2  0  0  0  0
 26 27  1  0  0  0  0
 26 32  1  0  0  0  0
 27 28  2  0  0  0  0
 27 30  1  0  0  0  0
 28 29  1  0  0  0  0
 30 31  2  0  0  0  0
 31 32  1  0  0  0  0
M  CHG  3  14  -1  15  -1  21  -1
M  END
>  <CHROM.1>
-78.04937706,36.42039978,-50.10824684,50.52530736,71.26659589,168.73421647
41.20465185,68.20045313,17.36653526,-24.18397711,-18.35025118,2.24347595
0.13084939,-0.40442303

>  <Name>
ligand

>  <RI>
0

>  <Rbt.Current_Directory>
/home/itssahil/PROJECTS/Mol_Feturizer/New_Systems/rnas/4Y1I

>  <Rbt.Executable>
rbdock ($Id: //depot/dev/client3/rdock/2013.1/src/exe/rbdock.cxx#4 $)

>  <Rbt.Library>
libRbt.so (2013.1, Build901 2013/11/27)

>  <Rbt.Parameter_File>
/export/apps/rDock/src/rDock_2013.1_src/data/scripts/dock_solv.prm

>  <Rbt.Receptor>
prm/pocket_docking_7.prm

>  <SCORE>
-7.20355

>  <SCORE.INTER>
-2.0425

>  <SCORE.INTER.CONST>
1

>  <SCORE.INTER.POLAR>
0

>  <SCORE.INTER.ROT>
8

>  <SCORE.INTER.SOLV>
16.9136

>  <SCORE.INTER.VDW>
-15.9329

>  <SCORE.INTER.norm>
-0.0638282

>  <SCORE.INTRA>
-5.16104

>  <SCORE.INTRA.DIHEDRAL>
-6.78576

>  <SCORE.INTRA.DIHEDRAL.0>
10.9594

>  <SCORE.INTRA.POLAR>
0

>  <SCORE.INTRA.POLAR.0>
0

>  <SCORE.INTRA.REPUL>
0

>  <SCORE.INTRA.REPUL.0>
0

>  <SCORE.INTRA.SOLV>
-3.37176

>  <SCORE.INTRA.SOLV.lig_0>
-124.914

>  <SCORE.INTRA.VDW>
-0.0822847

>  <SCORE.INTRA.VDW.0>
-4.69801

>  <SCORE.INTRA.norm>
-0.161283

>  <SCORE.RESTR>
0

>  <SCORE.RESTR.CAVITY>
0

>  <SCORE.RESTR.norm>
0

>  <SCORE.SYSTEM>
0

>  <SCORE.SYSTEM.CONST>
0

>  <SCORE.SYSTEM.DIHEDRAL>
0

>  <SCORE.SYSTEM.SOLV>
0

>  <SCORE.SYSTEM.norm>
0

>  <SCORE.heavy>
32

>  <SCORE.norm>
-0.225111

>  <RMSD>
7.361

$$$$
ligand
 OpenBabel11021811513D
libRbt.so/2013.1/901 2013/11/27
 32 34  0  0  0  0  0  0  0  0999 V2000
   16.7721  -25.3973  -17.9521 P   0  0  1  0  0  0  0  0  0  0  0  0
   18.1617  -23.2298  -19.2177 P   0  0  2  0  0  0  0  0  0  0  0  0
   20.5910  -24.8710  -19.3586 P   0  0  1  0  0  0  0  0  0  0  0  0
   16.3865  -27.3966  -16.3256 C   0  0  0  0  0  0  0  0  0  0  0  0
   17.3287  -26.5409  -16.9068 O   0  0  0  0  0  0  0  0  0  0  0  0
   16.9515  -28.6538  -16.1420 C   0  0  1  0  0  0  0  0  0  0  0  0
   16.1244  -29.4521  -15.1528 O   0  0  0  0  0  0  0  0  0  0  0  0
   16.9458  -29.4980  -17.4982 C   0  0  1  0  0  0  0  0  0  0  0  0
   18.3698  -29.7480  -17.9408 O   0  0  0  0  0  0  0  0  0  0  0  0
   16.4523  -30.5927  -17.2165 C   0  0  1  0  0  0  0  0  0  0  0  0
   17.5374  -31.5690  -16.9572 O   0  0  0  0  0  0  0  0  0  0  0  0
   15.5509  -30.3621  -15.8351 C   0  0  2  0  0  0  0  0  0  0  0  0
   12.3213  -28.5417  -19.3906 N   0  0  0  0  0  0  0  0  0  0  0  0
   16.7853  -25.9409  -19.3594 O   0  5  0  0  0  0  0  0  0  0  0  0
   18.6302  -21.8493  -18.8314 O   0  5  0  0  0  0  0  0  0  0  0  0
   20.6565  -24.5147  -17.8919 O   0  0  0  0  0  0  0  0  0  0  0  0
   13.6173  -28.7843  -19.5102 C   0  0  0  0  0  0  0  0  0  0  0  0
   14.2751  -28.5276  -20.7755 N   0  0  0  0  0  0  0  0  0  0  0  0
   15.3727  -25.0013  -17.5384 O   0  0  0  0  0  0  0  0  0  0  0  0
   16.9387  -23.1216  -20.0903 O   0  0  0  0  0  0  0  0  0  0  0  0
   20.3217  -26.3535  -19.4968 O   0  5  0  0  0  0  0  0  0  0  0  0
   14.3356  -29.2549  -18.5110 N   0  0  0  0  0  0  0  0  0  0  0  0
   17.7677  -24.0927  -17.8780 O   0  0  0  0  0  0  0  0  0  0  0  0
   19.3525  -24.0141  -20.0378 O   0  0  0  0  0  0  0  0  0  0  0  0
   21.9076  -24.5124  -20.0123 O   0  0  0  0  0  0  0  0  0  0  0  0
   13.7665  -29.5054  -17.3257 C   0  0  0  0  0  0  0  0  0  0  0  0
   12.4166  -29.2608  -17.1739 C   0  0  0  0  0  0  0  0  0  0  0  0
   11.6686  -28.7584  -18.2562 C   0  0  0  0  0  0  0  0  0  0  0  0
   10.2921  -28.4999  -18.1321 O   0  0  0  0  0  0  0  0  0  0  0  0
   12.0849  -29.5867  -15.9130 N   0  0  0  0  0  0  0  0  0  0  0  0
   13.1813  -30.0136  -15.3110 C   0  0  0  0  0  0  0  0  0  0  0  0
   14.2039  -29.9694  -16.1445 N   0  0  0  0  0  0  0  0  0  0  0  0
  1  5  1  1  0  0  0
  1 14  1  0  0  0  0
  1 19  2  0  0  0  0
  1 23  1  0  0  0  0
  2 15  1  1  0  0  0
  2 20  2  0  0  0  0
  2 23  1  0  0  0  0
  2 24  1  0  0  0  0
  3 16  1  1  0  0  0
  3 21  1  0  0  0  0
  3 24  1  0  0  0  0
  3 25  2  0  0  0  0
  4  5  1  0  0  0  0
  6  4  1  6  0  0  0
  6  7  1  0  0  0  0
  6  8  1  0  0  0  0
  7 12  1  0  0  0  0
  8  9  1  1  0  0  0
  8 10  1  0  0  0  0
 10 11  1  1  0  0  0
 10 12  1  0  0  0  0
 12 32  1  6  0  0  0
 13 17  2  0  0  0  0
 13 28  1  0  0  0  0
 17 18  1  0  0  0  0
 17 22  1  0  0  0  0
 22 26  2  0  0  0  0
 26 27  1  0  0  0  0
 26 32  1  0  0  0  0
 27 28  2  0  0  0  0
 27 30  1  0  0  0  0
 28 29  1  0  0  0  0
 30 31  2  0  0  0  0
 31 32  1  0  0  0  0
M  CHG  3  14  -1  15  -1  21  -1
M  END
>  <CHROM.1>
-91.15023296,158.93431125,-14.68527419,162.75028057,146.22425490,102.89120988
141.94584695,85.34163864,16.53405933,-27.00303535,-18.06728475,0.77742325
-0.06713077,-0.41638374

>  <Name>
ligand

>  <RI>
0

>  <Rbt.Current_Directory>
/home/itssahil/PROJECTS/Mol_Feturizer/New_Systems/rnas/4Y1I

>  <Rbt.Executable>
rbdock ($Id: //depot/dev/client3/rdock/2013.1/src/exe/rbdock.cxx#4 $)

>  <Rbt.Library>
libRbt.so (2013.1, Build901 2013/11/27)

>  <Rbt.Parameter_File>
/export/apps/rDock/src/rDock_2013.1_src/data/scripts/dock_solv.prm

>  <Rbt.Receptor>
prm/pocket_docking_2.prm

>  <SCORE>
7.8105

>  <SCORE.INTER>
7.48614

>  <SCORE.INTER.CONST>
1

>  <SCORE.INTER.POLAR>
0

>  <SCORE.INTER.ROT>
8

>  <SCORE.INTER.SOLV>
4.88387

>  <SCORE.INTER.VDW>
-5.57053

>  <SCORE.INTER.norm>
0.233942

>  <SCORE.INTRA>
0.0166743

>  <SCORE.INTRA.DIHEDRAL>
2.07736

>  <SCORE.INTRA.DIHEDRAL.0>
10.9594

>  <SCORE.INTRA.POLAR>
0

>  <SCORE.INTRA.POLAR.0>
0

>  <SCORE.INTRA.REPUL>
0

>  <SCORE.INTRA.REPUL.0>
0

>  <SCORE.INTRA.SOLV>
-1.12214

>  <SCORE.INTRA.SOLV.lig_0>
-124.914

>  <SCORE.INTRA.VDW>
-0.460935

>  <SCORE.INTRA.VDW.0>
-4.69801

>  <SCORE.INTRA.norm>
0.000521071

>  <SCORE.RESTR>
0.307695

>  <SCORE.RESTR.CAVITY>
0.307695

>  <SCORE.RESTR.norm>
0.00961546

>  <SCORE.SYSTEM>
0

>  <SCORE.SYSTEM.CONST>
0

>  <SCORE.SYSTEM.DIHEDRAL>
0

>  <SCORE.SYSTEM.SOLV>
0

>  <SCORE.SYSTEM.norm>
0

>  <SCORE.heavy>
32

>  <SCORE.norm>
0.244078

>  <RMSD>
7.365

$$$$
ligand
 OpenBabel11021811513D
libRbt.so/2013.1/901 2013/11/27
 32 34  0  0  0  0  0  0  0  0999 V2000
   18.8286  -25.1946  -18.4122 P   0  0  1  0  0  0  0  0  0  0  0  0
   21.6776  -25.4446  -18.6392 P   0  0  2  0  0  0  0  0  0  0  0  0
   22.7699  -26.8742  -20.9583 P   0  0  1  0  0  0  0  0  0  0  0  0
   17.7138  -23.1943  -19.6563 C   0  0  0  0  0  0  0  0  0  0  0  0
   17.7398  -23.9620  -18.4867 O   0  0  0  0  0  0  0  0  0  0  0  0
   16.8571  -22.1129  -19.4834 C   0  0  1  0  0  0  0  0  0  0  0  0
   17.3688  -21.2220  -18.3679 O   0  0  0  0  0  0  0  0  0  0  0  0
   16.8090  -21.1941  -20.7894 C   0  0  1  0  0  0  0  0  0  0  0  0
   15.4201  -21.2397  -21.3853 O   0  0  0  0  0  0  0  0  0  0  0  0
   17.0035  -20.0396  -20.4015 C   0  0  1  0  0  0  0  0  0  0  0  0
   15.7008  -19.3534  -20.2279 O   0  0  0  0  0  0  0  0  0  0  0  0
   17.7842  -20.1599  -18.9352 C   0  0  2  0  0  0  0  0  0  0  0  0
   22.2900  -17.8171  -18.1640 N   0  0  0  0  0  0  0  0  0  0  0  0
   18.5731  -26.0290  -17.1815 O   0  5  0  0  0  0  0  0  0  0  0  0
   21.7452  -26.6401  -17.7223 O   0  5  0  0  0  0  0  0  0  0  0  0
   22.8922  -28.1725  -20.1956 O   0  0  0  0  0  0  0  0  0  0  0  0
   21.0801  -17.3920  -17.8350 C   0  0  0  0  0  0  0  0  0  0  0  0
   20.9320  -16.1129  -17.1705 N   0  0  0  0  0  0  0  0  0  0  0  0
   18.7039  -26.0291  -19.6669 O   0  0  0  0  0  0  0  0  0  0  0  0
   22.8897  -24.5762  -18.4259 O   0  0  0  0  0  0  0  0  0  0  0  0
   22.3309  -27.1715  -22.3755 O   0  5  0  0  0  0  0  0  0  0  0  0
   19.9974  -18.0970  -18.0926 N   0  0  0  0  0  0  0  0  0  0  0  0
   20.3379  -24.5533  -18.3144 O   0  0  0  0  0  0  0  0  0  0  0  0
   21.6303  -25.9446  -20.2056 O   0  0  0  0  0  0  0  0  0  0  0  0
   24.1116  -26.1746  -20.9591 O   0  0  0  0  0  0  0  0  0  0  0  0
   20.0905  -19.2835  -18.7051 C   0  0  0  0  0  0  0  0  0  0  0  0
   21.3403  -19.7499  -19.0594 C   0  0  0  0  0  0  0  0  0  0  0  0
   22.4838  -18.9795  -18.7733 C   0  0  0  0  0  0  0  0  0  0  0  0
   23.7700  -19.4284  -19.1214 O   0  0  0  0  0  0  0  0  0  0  0  0
   21.1740  -20.9448  -19.6517 N   0  0  0  0  0  0  0  0  0  0  0  0
   19.8785  -21.2059  -19.6639 C   0  0  0  0  0  0  0  0  0  0  0  0
   19.2103  -20.2165  -19.1009 N   0  0  0  0  0  0  0  0  0  0  0  0
  1  5  1  6  0  0  0
  1 14  1  0  0  0  0
  1 19  2  0  0  0  0
  1 23  1  0  0  0  0
  2 15  1  1  0  0  0
  2 20  2  0  0  0  0
  2 23  1  0  0  0  0
  2 24  1  0  0  0  0
  3 16  1  1  0  0  0
  3 21  1  0  0  0  0
  3 24  1  0  0  0  0
  3 25  2  0  0  0  0
  4  5  1  0  0  0  0
  6  4  1  6  0  0  0
  6  7  1  0  0  0  0
  6  8  1  0  0  0  0
  7 12  1  0  0  0  0
  8  9  1  1  0  0  0
  8 10  1  0  0  0  0
 10 11  1  1  0  0  0
 10 12  1  0  0  0  0
 12 32  1  6  0  0  0
 13 17  2  0  0  0  0
 13 28  1  0  0  0  0
 17 18  1  0  0  0  0
 17 22  1  0  0  0  0
 22 26  2  0  0  0  0
 26 27  1  0  0  0  0
 26 32  1  0  0  0  0
 27 28  2  0  0  0  0
 27 30  1  0  0  0  0
 28 29  1  0  0  0  0
 30 31  2  0  0  0  0
 31 32  1  0  0  0  0
M  CHG  3  14  -1  15  -1  21  -1
M  END
>  <CHROM.1>
-171.56921367,-58.69596130,58.50933090,62.25215164,-172.96980232,-127.33634429
-162.74584824,-58.51727637,20.15498659,-22.85460288,-19.27786891,1.23229266
0.06566459,-2.99852110

>  <Name>
ligand

>  <RI>
0

>  <Rbt.Current_Directory>
/home/itssahil/PROJECTS/Mol_Feturizer/New_Systems/rnas/4Y1I

>  <Rbt.Executable>
rbdock ($Id: //depot/dev/client3/rdock/2013.1/src/exe/rbdock.cxx#4 $)

>  <Rbt.Library>
libRbt.so (2013.1, Build901 2013/11/27)

>  <Rbt.Parameter_File>
/export/apps/rDock/src/rDock_2013.1_src/data/scripts/dock_solv.prm

>  <Rbt.Receptor>
prm/pocket_docking_7.prm

>  <SCORE>
-9.86024

>  <SCORE.INTER>
-3.49076

>  <SCORE.INTER.CONST>
1

>  <SCORE.INTER.POLAR>
0

>  <SCORE.INTER.ROT>
8

>  <SCORE.INTER.SOLV>
17.0707

>  <SCORE.INTER.VDW>
-16.9508

>  <SCORE.INTER.norm>
-0.109086

>  <SCORE.INTRA>
-6.36948

>  <SCORE.INTRA.DIHEDRAL>
-8.86935

>  <SCORE.INTRA.DIHEDRAL.0>
10.9594

>  <SCORE.INTRA.POLAR>
0

>  <SCORE.INTRA.POLAR.0>
0

>  <SCORE.INTRA.REPUL>
0

>  <SCORE.INTRA.REPUL.0>
0

>  <SCORE.INTRA.SOLV>
-4.3078

>  <SCORE.INTRA.SOLV.lig_0>
-124.914

>  <SCORE.INTRA.VDW>
0.219092

>  <SCORE.INTRA.VDW.0>
-4.69801

>  <SCORE.INTRA.norm>
-0.199046

>  <SCORE.RESTR>
0

>  <SCORE.RESTR.CAVITY>
0

>  <SCORE.RESTR.norm>
0

>  <SCORE.SYSTEM>
0

>  <SCORE.SYSTEM.CONST>
0

>  <SCORE.SYSTEM.DIHEDRAL>
0

>  <SCORE.SYSTEM.SOLV>
0

>  <SCORE.SYSTEM.norm>
0

>  <SCORE.heavy>
32

>  <SCORE.norm>
-0.308133

>  <RMSD>
7.366

$$$$
ligand
 OpenBabel11021811513D
libRbt.so/2013.1/901 2013/11/27
 32 34  0  0  0  0  0  0  0  0999 V2000
   17.0917  -25.3057  -11.7034 P   0  0  1  0  0  0  0  0  0  0  0  0
   14.2720  -25.2044  -12.2229 P   0  0  2  0  0  0  0  0  0  0  0  0
   13.2439  -23.0547  -13.9367 P   0  0  1  0  0  0  0  0  0  0  0  0
   17.0551  -27.5721  -12.9894 C   0  0  0  0  0  0  0  0  0  0  0  0
   17.1661  -26.9499  -11.7410 O   0  0  0  0  0  0  0  0  0  0  0  0
   17.2359  -28.9429  -12.8431 C   0  0  1  0  0  0  0  0  0  0  0  0
   16.9214  -29.6474  -14.1487 O   0  0  0  0  0  0  0  0  0  0  0  0
   18.7579  -29.2968  -12.5109 C   0  0  1  0  0  0  0  0  0  0  0  0
   18.8441  -29.8944  -11.1247 O   0  0  0  0  0  0  0  0  0  0  0  0
   19.0856  -30.1771  -13.3103 C   0  0  1  0  0  0  0  0  0  0  0  0
   18.9427  -31.5045  -12.6656 O   0  0  0  0  0  0  0  0  0  0  0  0
   18.0402  -30.0549  -14.6011 C   0  0  2  0  0  0  0  0  0  0  0  0
   22.1064  -28.3892  -17.2615 N   0  0  0  0  0  0  0  0  0  0  0  0
   16.8800  -24.8355  -10.2856 O   0  5  0  0  0  0  0  0  0  0  0  0
   13.9199  -24.6310  -10.8733 O   0  5  0  0  0  0  0  0  0  0  0  0
   14.6139  -22.7554  -14.4987 O   0  0  0  0  0  0  0  0  0  0  0  0
   22.0631  -29.3455  -16.3470 C   0  0  0  0  0  0  0  0  0  0  0  0
   23.2784  -30.0553  -16.0021 N   0  0  0  0  0  0  0  0  0  0  0  0
   18.3772  -24.7484  -12.2718 O   0  0  0  0  0  0  0  0  0  0  0  0
   14.1519  -26.7053  -12.1802 O   0  0  0  0  0  0  0  0  0  0  0  0
   12.2162  -22.9223  -15.0394 O   0  5  0  0  0  0  0  0  0  0  0  0
   20.9447  -29.6772  -15.7347 N   0  0  0  0  0  0  0  0  0  0  0  0
   15.8177  -24.8192  -12.6193 O   0  0  0  0  0  0  0  0  0  0  0  0
   13.2529  -24.6054  -13.3669 O   0  0  0  0  0  0  0  0  0  0  0  0
   12.9453  -22.0789  -12.8195 O   0  0  0  0  0  0  0  0  0  0  0  0
   19.8003  -29.0461  -16.0239 C   0  0  0  0  0  0  0  0  0  0  0  0
   19.8178  -28.0445  -16.9735 C   0  0  0  0  0  0  0  0  0  0  0  0
   21.0248  -27.7075  -17.6157 C   0  0  0  0  0  0  0  0  0  0  0  0
   21.0738  -26.6924  -18.5874 O   0  0  0  0  0  0  0  0  0  0  0  0
   18.5651  -27.5706  -17.0857 N   0  0  0  0  0  0  0  0  0  0  0  0
   17.8063  -28.2486  -16.2423 C   0  0  0  0  0  0  0  0  0  0  0  0
   18.5326  -29.1391  -15.5927 N   0  0  0  0  0  0  0  0  0  0  0  0
  1  5  1  6  0  0  0
  1 14  1  0  0  0  0
  1 19  2  0  0  0  0
  1 23  1  0  0  0  0
  2 15  1  1  0  0  0
  2 20  2  0  0  0  0
  2 23  1  0  0  0  0
  2 24  1  0  0  0  0
  3 16  1  6  0  0  0
  3 21  1  0  0  0  0
  3 24  1  0  0  0  0
  3 25  2  0  0  0  0
  4  5  1  0  0  0  0
  6  4  1  6  0  0  0
  6  7  1  0  0  0  0
  6  8  1  0  0  0  0
  7 12  1  0  0  0  0
  8  9  1  1  0  0  0
  8 10  1  0  0  0  0
 10 11  1  1  0  0  0
 10 12  1  0  0  0  0
 12 32  1  6  0  0  0
 13 17  2  0  0  0  0
 13 28  1  0  0  0  0
 17 18  1  0  0  0  0
 17 22  1  0  0  0  0
 22 26  2  0  0  0  0
 26 27  1  0  0  0  0
 26 32  1  0  0  0  0
 27 28  2  0  0  0  0
 27 30  1  0  0  0  0
 28 29  1  0  0  0  0
 30 31  2  0  0  0  0
 31 32  1  0  0  0  0
M  CHG  3  14  -1  15  -1  21  -1
M  END
>  <CHROM.1>
165.86734678,60.91623469,57.72258568,171.89254425,175.71083880,161.49921692
63.98650899,71.02642202,17.21013510,-26.79963978,-13.85142130,3.09078279
0.74739249,-0.99998934

>  <Name>
ligand

>  <RI>
0

>  <Rbt.Current_Directory>
/home/itssahil/PROJECTS/Mol_Feturizer/New_Systems/rnas/4Y1I

>  <Rbt.Executable>
rbdock ($Id: //depot/dev/client3/rdock/2013.1/src/exe/rbdock.cxx#4 $)

>  <Rbt.Library>
libRbt.so (2013.1, Build901 2013/11/27)

>  <Rbt.Parameter_File>
/export/apps/rDock/src/rDock_2013.1_src/data/scripts/dock_solv.prm

>  <Rbt.Receptor>
prm/pocket_docking_8.prm

>  <SCORE>
-4.69311

>  <SCORE.INTER>
1.96455

>  <SCORE.INTER.CONST>
1

>  <SCORE.INTER.POLAR>
0

>  <SCORE.INTER.ROT>
8

>  <SCORE.INTER.SOLV>
10.7905

>  <SCORE.INTER.VDW>
-11.2205

>  <SCORE.INTER.norm>
0.0613921

>  <SCORE.INTRA>
-6.65765

>  <SCORE.INTRA.DIHEDRAL>
-8.93412

>  <SCORE.INTRA.DIHEDRAL.0>
10.9594

>  <SCORE.INTRA.POLAR>
0

>  <SCORE.INTRA.POLAR.0>
0

>  <SCORE.INTRA.REPUL>
0

>  <SCORE.INTRA.REPUL.0>
0

>  <SCORE.INTRA.SOLV>
-4.29308

>  <SCORE.INTRA.SOLV.lig_0>
-124.914

>  <SCORE.INTRA.VDW>
-0.0440536

>  <SCORE.INTRA.VDW.0>
-4.69801

>  <SCORE.INTRA.norm>
-0.208052

>  <SCORE.RESTR>
0

>  <SCORE.RESTR.CAVITY>
0

>  <SCORE.RESTR.norm>
0

>  <SCORE.SYSTEM>
0

>  <SCORE.SYSTEM.CONST>
0

>  <SCORE.SYSTEM.DIHEDRAL>
0

>  <SCORE.SYSTEM.SOLV>
0

>  <SCORE.SYSTEM.norm>
0

>  <SCORE.heavy>
32

>  <SCORE.norm>
-0.14666

>  <RMSD>
7.427

$$$$
ligand
 OpenBabel11021811513D
libRbt.so/2013.1/901 2013/11/27
 32 34  0  0  0  0  0  0  0  0999 V2000
   14.8050  -23.2811  -20.3152 P   0  0  1  0  0  0  0  0  0  0  0  0
   16.1407  -21.7964  -18.2554 P   0  0  2  0  0  0  0  0  0  0  0  0
   18.4805  -20.2306  -19.0852 P   0  0  1  0  0  0  0  0  0  0  0  0
   15.3216  -25.8045  -19.9192 C   0  0  0  0  0  0  0  0  0  0  0  0
   15.8459  -24.5558  -20.2708 O   0  0  0  0  0  0  0  0  0  0  0  0
   16.2855  -26.7864  -20.1198 C   0  0  1  0  0  0  0  0  0  0  0  0
   17.5082  -26.4902  -19.2729 O   0  0  0  0  0  0  0  0  0  0  0  0
   15.7630  -28.2200  -19.6468 C   0  0  1  0  0  0  0  0  0  0  0  0
   15.6565  -29.1366  -20.8446 O   0  0  0  0  0  0  0  0  0  0  0  0
   16.6416  -28.6779  -18.9122 C   0  0  1  0  0  0  0  0  0  0  0  0
   17.5169  -29.5812  -19.6968 O   0  0  0  0  0  0  0  0  0  0  0  0
   17.5182  -27.3752  -18.3568 C   0  0  2  0  0  0  0  0  0  0  0  0
   16.7888  -28.0094  -13.3119 N   0  0  0  0  0  0  0  0  0  0  0  0
   14.3345  -23.0540  -21.7306 O   0  5  0  0  0  0  0  0  0  0  0  0
   16.8758  -23.0463  -17.8412 O   0  5  0  0  0  0  0  0  0  0  0  0
   19.2639  -19.0961  -18.4676 O   0  0  0  0  0  0  0  0  0  0  0  0
   17.4176  -28.8135  -14.1549 C   0  0  0  0  0  0  0  0  0  0  0  0
   17.9989  -30.0461  -13.6626 N   0  0  0  0  0  0  0  0  0  0  0  0
   13.6391  -23.5741  -19.3981 O   0  0  0  0  0  0  0  0  0  0  0  0
   14.9532  -21.5870  -17.3528 O   0  0  0  0  0  0  0  0  0  0  0  0
   19.3435  -21.4733  -19.1090 O   0  5  0  0  0  0  0  0  0  0  0  0
   17.5346  -28.5298  -15.4361 N   0  0  0  0  0  0  0  0  0  0  0  0
   15.5997  -21.9393  -19.7987 O   0  0  0  0  0  0  0  0  0  0  0  0
   17.1448  -20.4977  -18.1504 O   0  0  0  0  0  0  0  0  0  0  0  0
   18.0773  -19.8432  -20.4912 O   0  0  0  0  0  0  0  0  0  0  0  0
   17.0118  -27.4015  -15.9314 C   0  0  0  0  0  0  0  0  0  0  0  0
   16.3504  -26.5456  -15.0739 C   0  0  0  0  0  0  0  0  0  0  0  0
   16.2385  -26.8691  -13.7080 C   0  0  0  0  0  0  0  0  0  0  0  0
   15.5712  -26.0171  -12.8103 O   0  0  0  0  0  0  0  0  0  0  0  0
   15.9219  -25.4977  -15.7981 N   0  0  0  0  0  0  0  0  0  0  0  0
   16.3009  -25.6967  -17.0485 C   0  0  0  0  0  0  0  0  0  0  0  0
   16.9558  -26.8384  -17.1486 N   0  0  0  0  0  0  0  0  0  0  0  0
  1  5  1  1  0  0  0
  1 14  1  0  0  0  0
  1 19  2  0  0  0  0
  1 23  1  0  0  0  0
  2 15  1  1  0  0  0
  2 20  2  0  0  0  0
  2 23  1  0  0  0  0
  2 24  1  0  0  0  0
  3 16  1  1  0  0  0
  3 21  1  0  0  0  0
  3 24  1  0  0  0  0
  3 25  2  0  0  0  0
  4  5  1  0  0  0  0
  6  4  1  1  0  0  0
  6  7  1  0  0  0  0
  6  8  1  0  0  0  0
  7 12  1  0  0  0  0
  8  9  1  6  0  0  0
  8 10  1  0  0  0  0
 10 11  1  6  0  0  0
 10 12  1  0  0  0  0
 12 32  1  1  0  0  0
 13 17  2  0  0  0  0
 13 28  1  0  0  0  0
 17 18  1  0  0  0  0
 17 22  1  0  0  0  0
 22 26  2  0  0  0  0
 26 27  1  0  0  0  0
 26 32  1  0  0  0  0
 27 28  2  0  0  0  0
 27 30  1  0  0  0  0
 28 29  1  0  0  0  0
 30 31  2  0  0  0  0
 31 32  1  0  0  0  0
M  CHG  3  14  -1  15  -1  21  -1
M  END
>  <CHROM.1>
-96.67074732,47.66357934,-168.06760239,59.49768592,171.44679901,-167.93246089
-65.55377652,66.58807457,16.57181255,-24.71228798,-18.08424097,1.48455714
-1.29491496,-0.52065892

>  <Name>
ligand

>  <RI>
0

>  <Rbt.Current_Directory>
/home/itssahil/PROJECTS/Mol_Feturizer/New_Systems/rnas/4Y1I

>  <Rbt.Executable>
rbdock ($Id: //depot/dev/client3/rdock/2013.1/src/exe/rbdock.cxx#4 $)

>  <Rbt.Library>
libRbt.so (2013.1, Build901 2013/11/27)

>  <Rbt.Parameter_File>
/export/apps/rDock/src/rDock_2013.1_src/data/scripts/dock_solv.prm

>  <Rbt.Receptor>
prm/pocket_docking_5.prm

>  <SCORE>
-5.43147

>  <SCORE.INTER>
-0.618828

>  <SCORE.INTER.CONST>
1

>  <SCORE.INTER.POLAR>
0

>  <SCORE.INTER.ROT>
8

>  <SCORE.INTER.SOLV>
15.2164

>  <SCORE.INTER.VDW>
-14.418

>  <SCORE.INTER.norm>
-0.0193384

>  <SCORE.INTRA>
-4.81264

>  <SCORE.INTRA.DIHEDRAL>
-7.24107

>  <SCORE.INTRA.DIHEDRAL.0>
10.9594

>  <SCORE.INTRA.POLAR>
0

>  <SCORE.INTRA.POLAR.0>
0

>  <SCORE.INTRA.REPUL>
0

>  <SCORE.INTRA.REPUL.0>
0

>  <SCORE.INTRA.SOLV>
-2.53766

>  <SCORE.INTRA.SOLV.lig_0>
-124.914

>  <SCORE.INTRA.VDW>
0.0767267

>  <SCORE.INTRA.VDW.0>
-4.69801

>  <SCORE.INTRA.norm>
-0.150395

>  <SCORE.RESTR>
0

>  <SCORE.RESTR.CAVITY>
0

>  <SCORE.RESTR.norm>
0

>  <SCORE.SYSTEM>
0

>  <SCORE.SYSTEM.CONST>
0

>  <SCORE.SYSTEM.DIHEDRAL>
0

>  <SCORE.SYSTEM.SOLV>
0

>  <SCORE.SYSTEM.norm>
0

>  <SCORE.heavy>
32

>  <SCORE.norm>
-0.169733

>  <RMSD>
7.475

$$$$
ligand
 OpenBabel11021811513D
libRbt.so/2013.1/901 2013/11/27
 32 34  0  0  0  0  0  0  0  0999 V2000
   18.1950  -23.3259  -21.2663 P   0  0  1  0  0  0  0  0  0  0  0  0
   19.7664  -24.4342  -19.1371 P   0  0  2  0  0  0  0  0  0  0  0  0
   21.8990  -22.5862  -19.9446 P   0  0  1  0  0  0  0  0  0  0  0  0
   16.2981  -23.9693  -19.5992 C   0  0  0  0  0  0  0  0  0  0  0  0
   17.0379  -22.9255  -20.1658 O   0  0  0  0  0  0  0  0  0  0  0  0
   15.3763  -23.4494  -18.6974 C   0  0  1  0  0  0  0  0  0  0  0  0
   16.0819  -22.5568  -17.6947 O   0  0  0  0  0  0  0  0  0  0  0  0
   14.3046  -22.5198  -19.4318 C   0  0  1  0  0  0  0  0  0  0  0  0
   12.9338  -23.1481  -19.3202 O   0  0  0  0  0  0  0  0  0  0  0  0
   14.2763  -21.4636  -18.7955 C   0  0  1  0  0  0  0  0  0  0  0  0
   13.1498  -21.4998  -17.8325 O   0  0  0  0  0  0  0  0  0  0  0  0
   15.7234  -21.3674  -17.9765 C   0  0  2  0  0  0  0  0  0  0  0  0
   16.7432  -18.3363  -21.9962 N   0  0  0  0  0  0  0  0  0  0  0  0
   17.5451  -23.8162  -22.5365 O   0  5  0  0  0  0  0  0  0  0  0  0
   19.6679  -25.7652  -18.4349 O   0  5  0  0  0  0  0  0  0  0  0  0
   21.6657  -22.6737  -21.4347 O   0  0  0  0  0  0  0  0  0  0  0  0
   15.5619  -18.7377  -21.5533 C   0  0  0  0  0  0  0  0  0  0  0  0
   14.3609  -18.3066  -22.2398 N   0  0  0  0  0  0  0  0  0  0  0  0
   19.0535  -22.1100  -21.5325 O   0  0  0  0  0  0  0  0  0  0  0  0
   19.0046  -23.3948  -18.3573 O   0  0  0  0  0  0  0  0  0  0  0  0
   21.1320  -21.4050  -19.3915 O   0  5  0  0  0  0  0  0  0  0  0  0
   15.4392  -19.5217  -20.5016 N   0  0  0  0  0  0  0  0  0  0  0  0
   19.1152  -24.5344  -20.6407 O   0  0  0  0  0  0  0  0  0  0  0  0
   21.3434  -23.9822  -19.2576 O   0  0  0  0  0  0  0  0  0  0  0  0
   23.3805  -22.4190  -19.6865 O   0  0  0  0  0  0  0  0  0  0  0  0
   16.5234  -19.9426  -19.8393 C   0  0  0  0  0  0  0  0  0  0  0  0
   17.7674  -19.5391  -20.2805 C   0  0  0  0  0  0  0  0  0  0  0  0
   17.8744  -18.7002  -21.4065 C   0  0  0  0  0  0  0  0  0  0  0  0
   19.1276  -18.2722  -21.8791 O   0  0  0  0  0  0  0  0  0  0  0  0
   18.6841  -20.0848  -19.4631 N   0  0  0  0  0  0  0  0  0  0  0  0
   18.0358  -20.7951  -18.5564 C   0  0  0  0  0  0  0  0  0  0  0  0
   16.7349  -20.7236  -18.7682 N   0  0  0  0  0  0  0  0  0  0  0  0
  1  5  1  1  0  0  0
  1 14  1  0  0  0  0
  1 19  2  0  0  0  0
  1 23  1  0  0  0  0
  2 15  1  1  0  0  0
  2 20  2  0  0  0  0
  2 23  1  0  0  0  0
  2 24  1  0  0  0  0
  3 16  1  6  0  0  0
  3 21  1  0  0  0  0
  3 24  1  0  0  0  0
  3 25  2  0  0  0  0
  4  5  1  0  0  0  0
  6  4  1  6  0  0  0
  6  7  1  0  0  0  0
  6  8  1  0  0  0  0
  7 12  1  0  0  0  0
  8  9  1  1  0  0  0
  8 10  1  0  0  0  0
 10 11  1  1  0  0  0
 10 12  1  0  0  0  0
 12 32  1  6  0  0  0
 13 17  2  0  0  0  0
 13 28  1  0  0  0  0
 17 18  1  0  0  0  0
 17 22  1  0  0  0  0
 22 26  2  0  0  0  0
 26 27  1  0  0  0  0
 26 32  1  0  0  0  0
 27 28  2  0  0  0  0
 27 30  1  0  0  0  0
 28 29  1  0  0  0  0
 30 31  2  0  0  0  0
 31 32  1  0  0  0  0
M  CHG  3  14  -1  15  -1  21  -1
M  END
>  <CHROM.1>
70.00243885,139.61413413,-69.29724154,-53.18266359,179.87407517,137.81747901
-50.23959013,-179.43840093,17.93298179,-22.02081449,-19.94278459,0.36095067
-0.17840136,2.71169585

>  <Name>
ligand

>  <RI>
0

>  <Rbt.Current_Directory>
/home/itssahil/PROJECTS/Mol_Feturizer/New_Systems/rnas/4Y1I

>  <Rbt.Executable>
rbdock ($Id: //depot/dev/client3/rdock/2013.1/src/exe/rbdock.cxx#4 $)

>  <Rbt.Library>
libRbt.so (2013.1, Build901 2013/11/27)

>  <Rbt.Parameter_File>
/export/apps/rDock/src/rDock_2013.1_src/data/scripts/dock_solv.prm

>  <Rbt.Receptor>
prm/pocket_docking_6.prm

>  <SCORE>
-8.23086

>  <SCORE.INTER>
-3.27493

>  <SCORE.INTER.CONST>
1

>  <SCORE.INTER.POLAR>
0

>  <SCORE.INTER.ROT>
8

>  <SCORE.INTER.SOLV>
10.9028

>  <SCORE.INTER.VDW>
-14.7509

>  <SCORE.INTER.norm>
-0.102342

>  <SCORE.INTRA>
-4.95593

>  <SCORE.INTRA.DIHEDRAL>
-7.28952

>  <SCORE.INTRA.DIHEDRAL.0>
10.9594

>  <SCORE.INTRA.POLAR>
0

>  <SCORE.INTRA.POLAR.0>
0

>  <SCORE.INTRA.REPUL>
0

>  <SCORE.INTRA.REPUL.0>
0

>  <SCORE.INTRA.SOLV>
3.75062

>  <SCORE.INTRA.SOLV.lig_0>
-124.914

>  <SCORE.INTRA.VDW>
-3.18648

>  <SCORE.INTRA.VDW.0>
-4.69801

>  <SCORE.INTRA.norm>
-0.154873

>  <SCORE.RESTR>
0

>  <SCORE.RESTR.CAVITY>
0

>  <SCORE.RESTR.norm>
0

>  <SCORE.SYSTEM>
0

>  <SCORE.SYSTEM.CONST>
0

>  <SCORE.SYSTEM.DIHEDRAL>
0

>  <SCORE.SYSTEM.SOLV>
0

>  <SCORE.SYSTEM.norm>
0

>  <SCORE.heavy>
32

>  <SCORE.norm>
-0.257214

>  <RMSD>
7.497

$$$$
ligand
 OpenBabel11021811513D
libRbt.so/2013.1/901 2013/11/27
 32 34  0  0  0  0  0  0  0  0999 V2000
   15.0417  -26.8219  -18.4494 P   0  0  1  0  0  0  0  0  0  0  0  0
   17.8477  -26.2761  -18.6927 P   0  0  2  0  0  0  0  0  0  0  0  0
   17.4950  -23.3872  -19.0736 P   0  0  1  0  0  0  0  0  0  0  0  0
   12.7336  -27.8902  -17.8811 C   0  0  0  0  0  0  0  0  0  0  0  0
   14.1209  -28.0718  -17.9016 O   0  0  0  0  0  0  0  0  0  0  0  0
   12.1211  -29.0432  -17.4030 C   0  0  1  0  0  0  0  0  0  0  0  0
   12.6442  -30.2541  -18.1513 O   0  0  0  0  0  0  0  0  0  0  0  0
   12.4730  -29.2942  -15.8650 C   0  0  1  0  0  0  0  0  0  0  0  0
   11.2136  -29.1812  -15.0361 O   0  0  0  0  0  0  0  0  0  0  0  0
   12.8575  -30.4637  -15.7896 C   0  0  1  0  0  0  0  0  0  0  0  0
   11.7278  -31.3264  -15.3685 O   0  0  0  0  0  0  0  0  0  0  0  0
   13.3641  -30.8931  -17.3170 C   0  0  2  0  0  0  0  0  0  0  0  0
   17.5435  -28.5413  -15.4766 N   0  0  0  0  0  0  0  0  0  0  0  0
   14.5622  -26.3930  -19.8140 O   0  5  0  0  0  0  0  0  0  0  0  0
   19.0228  -26.9316  -19.3738 O   0  5  0  0  0  0  0  0  0  0  0  0
   16.8291  -23.2550  -17.7241 O   0  0  0  0  0  0  0  0  0  0  0  0
   16.3362  -28.6049  -14.9370 C   0  0  0  0  0  0  0  0  0  0  0  0
   16.0895  -27.9516  -13.6673 N   0  0  0  0  0  0  0  0  0  0  0  0
   14.9501  -25.6816  -17.4607 O   0  0  0  0  0  0  0  0  0  0  0  0
   18.2445  -25.8466  -17.3046 O   0  0  0  0  0  0  0  0  0  0  0  0
   18.9554  -23.0127  -18.9443 O   0  5  0  0  0  0  0  0  0  0  0  0
   15.3434  -29.2465  -15.5185 N   0  0  0  0  0  0  0  0  0  0  0  0
   16.5981  -27.3335  -18.5707 O   0  0  0  0  0  0  0  0  0  0  0  0
   17.3644  -24.9619  -19.5560 O   0  0  0  0  0  0  0  0  0  0  0  0
   16.8019  -22.4699  -20.0574 O   0  0  0  0  0  0  0  0  0  0  0  0
   15.5293  -29.8630  -16.6920 C   0  0  0  0  0  0  0  0  0  0  0  0
   16.7785  -29.8118  -17.2767 C   0  0  0  0  0  0  0  0  0  0  0  0
   17.8251  -29.1208  -16.6363 C   0  0  0  0  0  0  0  0  0  0  0  0
   19.1083  -29.0517  -17.2070 O   0  0  0  0  0  0  0  0  0  0  0  0
   16.7137  -30.4957  -18.4318 N   0  0  0  0  0  0  0  0  0  0  0  0
   15.4787  -30.9496  -18.5565 C   0  0  0  0  0  0  0  0  0  0  0  0
   14.7507  -30.5766  -17.5205 N   0  0  0  0  0  0  0  0  0  0  0  0
  1  5  1  1  0  0  0
  1 14  1  0  0  0  0
  1 19  2  0  0  0  0
  1 23  1  0  0  0  0
  2 15  1  6  0  0  0
  2 20  2  0  0  0  0
  2 23  1  0  0  0  0
  2 24  1  0  0  0  0
  3 16  1  1  0  0  0
  3 21  1  0  0  0  0
  3 24  1  0  0  0  0
  3 25  2  0  0  0  0
  4  5  1  0  0  0  0
  6  4  1  6  0  0  0
  6  7  1  0  0  0  0
  6  8  1  0  0  0  0
  7 12  1  0  0  0  0
  8  9  1  1  0  0  0
  8 10  1  0  0  0  0
 10 11  1  6  0  0  0
 10 12  1  0  0  0  0
 12 32  1  1  0  0  0
 13 17  2  0  0  0  0
 13 28  1  0  0  0  0
 17 18  1  0  0  0  0
 17 22  1  0  0  0  0
 22 26  2  0  0  0  0
 26 27  1  0  0  0  0
 26 32  1  0  0  0  0
 27 28  2  0  0  0  0
 27 30  1  0  0  0  0
 28 29  1  0  0  0  0
 30 31  2  0  0  0  0
 31 32  1  0  0  0  0
M  CHG  3  14  -1  15  -1  21  -1
M  END
>  <CHROM.1>
-53.63644666,-155.26999460,-54.27317876,-50.24885652,179.52650791,110.32412633
-163.30443803,-112.02223466,15.71984995,-27.55157355,-17.60808799,0.95692515
-0.00133424,-0.41524212

>  <Name>
ligand

>  <RI>
0

>  <Rbt.Current_Directory>
/home/itssahil/PROJECTS/Mol_Feturizer/New_Systems/rnas/4Y1I

>  <Rbt.Executable>
rbdock ($Id: //depot/dev/client3/rdock/2013.1/src/exe/rbdock.cxx#4 $)

>  <Rbt.Library>
libRbt.so (2013.1, Build901 2013/11/27)

>  <Rbt.Parameter_File>
/export/apps/rDock/src/rDock_2013.1_src/data/scripts/dock_solv.prm

>  <Rbt.Receptor>
prm/pocket_docking_2.prm

>  <SCORE>
6.33237

>  <SCORE.INTER>
10.433

>  <SCORE.INTER.CONST>
1

>  <SCORE.INTER.POLAR>
0

>  <SCORE.INTER.ROT>
8

>  <SCORE.INTER.SOLV>
5.56447

>  <SCORE.INTER.VDW>
-3.83283

>  <SCORE.INTER.norm>
0.326031

>  <SCORE.INTRA>
-5.3392

>  <SCORE.INTRA.DIHEDRAL>
-5.63414

>  <SCORE.INTRA.DIHEDRAL.0>
10.9594

>  <SCORE.INTRA.POLAR>
0

>  <SCORE.INTRA.POLAR.0>
0

>  <SCORE.INTRA.REPUL>
0

>  <SCORE.INTRA.REPUL.0>
0

>  <SCORE.INTRA.SOLV>
1.11794

>  <SCORE.INTRA.SOLV.lig_0>
-124.914

>  <SCORE.INTRA.VDW>
-3.0811

>  <SCORE.INTRA.VDW.0>
-4.69801

>  <SCORE.INTRA.norm>
-0.16685

>  <SCORE.RESTR>
1.23858

>  <SCORE.RESTR.CAVITY>
1.23858

>  <SCORE.RESTR.norm>
0.0387055

>  <SCORE.SYSTEM>
0

>  <SCORE.SYSTEM.CONST>
0

>  <SCORE.SYSTEM.DIHEDRAL>
0

>  <SCORE.SYSTEM.SOLV>
0

>  <SCORE.SYSTEM.norm>
0

>  <SCORE.heavy>
32

>  <SCORE.norm>
0.197886

>  <RMSD>
7.544

$$$$
ligand
 OpenBabel11021811513D
libRbt.so/2013.1/901 2013/11/27
 32 34  0  0  0  0  0  0  0  0999 V2000
   22.9504  -23.5674  -19.1319 P   0  0  1  0  0  0  0  0  0  0  0  0
   25.1577  -24.5082  -17.5592 P   0  0  2  0  0  0  0  0  0  0  0  0
   24.6604  -27.2064  -16.5162 P   0  0  1  0  0  0  0  0  0  0  0  0
   20.8993  -25.1732  -19.0573 C   0  0  0  0  0  0  0  0  0  0  0  0
   21.8893  -24.5229  -18.3125 O   0  0  0  0  0  0  0  0  0  0  0  0
   20.0558  -25.8709  -18.1999 C   0  0  1  0  0  0  0  0  0  0  0  0
   19.4942  -24.9312  -17.1504 O   0  0  0  0  0  0  0  0  0  0  0  0
   18.7923  -26.4609  -18.9793 C   0  0  1  0  0  0  0  0  0  0  0  0
   18.8432  -27.9717  -18.9486 O   0  0  0  0  0  0  0  0  0  0  0  0
   17.8006  -26.1145  -18.3329 C   0  0  1  0  0  0  0  0  0  0  0  0
   17.3910  -27.2183  -17.4319 O   0  0  0  0  0  0  0  0  0  0  0  0
   18.2613  -24.7884  -17.4368 C   0  0  2  0  0  0  0  0  0  0  0  0
   15.0019  -21.0262  -18.7045 N   0  0  0  0  0  0  0  0  0  0  0  0
   23.4157  -24.2740  -20.3810 O   0  5  0  0  0  0  0  0  0  0  0  0
   25.9492  -24.0303  -16.3678 O   0  5  0  0  0  0  0  0  0  0  0  0
   23.4495  -28.1056  -16.4288 O   0  0  0  0  0  0  0  0  0  0  0  0
   14.7755  -22.0802  -17.9361 C   0  0  0  0  0  0  0  0  0  0  0  0
   13.4654  -22.2603  -17.3437 N   0  0  0  0  0  0  0  0  0  0  0  0
   22.2663  -22.2624  -19.4716 O   0  0  0  0  0  0  0  0  0  0  0  0
   26.1006  -24.9810  -18.6345 O   0  0  0  0  0  0  0  0  0  0  0  0
   25.6721  -27.8275  -17.4545 O   0  5  0  0  0  0  0  0  0  0  0  0
   15.7071  -22.9784  -17.6892 N   0  0  0  0  0  0  0  0  0  0  0  0
   24.2499  -23.2834  -18.1678 O   0  0  0  0  0  0  0  0  0  0  0  0
   24.1703  -25.7459  -17.1131 O   0  0  0  0  0  0  0  0  0  0  0  0
   25.2548  -27.0442  -15.1343 O   0  0  0  0  0  0  0  0  0  0  0  0
   16.9303  -22.8494  -18.2171 C   0  0  0  0  0  0  0  0  0  0  0  0
   17.1928  -21.7597  -19.0224 C   0  0  0  0  0  0  0  0  0  0  0  0
   16.1817  -20.8118  -19.2719 C   0  0  0  0  0  0  0  0  0  0  0  0
   16.4193  -19.6914  -20.0874 O   0  0  0  0  0  0  0  0  0  0  0  0
   18.4715  -21.8524  -19.4258 N   0  0  0  0  0  0  0  0  0  0  0  0
   18.9776  -22.9514  -18.8940 C   0  0  0  0  0  0  0  0  0  0  0  0
   18.0643  -23.5659  -18.1656 N   0  0  0  0  0  0  0  0  0  0  0  0
  1  5  1  1  0  0  0
  1 14  1  0  0  0  0
  1 19  2  0  0  0  0
  1 23  1  0  0  0  0
  2 15  1  1  0  0  0
  2 20  2  0  0  0  0
  2 23  1  0  0  0  0
  2 24  1  0  0  0  0
  3 16  1  1  0  0  0
  3 21  1  0  0  0  0
  3 24  1  0  0  0  0
  3 25  2  0  0  0  0
  4  5  1  0  0  0  0
  6  4  1  6  0  0  0
  6  7  1  0  0  0  0
  6  8  1  0  0  0  0
  7 12  1  0  0  0  0
  8  9  1  1  0  0  0
  8 10  1  0  0  0  0
 10 11  1  1  0  0  0
 10 12  1  0  0  0  0
 12 32  1  6  0  0  0
 13 17  2  0  0  0  0
 13 28  1  0  0  0  0
 17 18  1  0  0  0  0
 17 22  1  0  0  0  0
 22 26  2  0  0  0  0
 26 27  1  0  0  0  0
 26 32  1  0  0  0  0
 27 28  2  0  0  0  0
 27 30  1  0  0  0  0
 28 29  1  0  0  0  0
 30 31  2  0  0  0  0
 31 32  1  0  0  0  0
M  CHG  3  14  -1  15  -1  21  -1
M  END
>  <CHROM.1>
-44.40720167,-160.33315213,-171.98026284,55.01267845,-176.75152605,-154.38484717
57.89751766,-61.89185180,20.84427704,-24.45870134,-18.09105892,-0.39590476
-0.00322638,-0.34191750

>  <Name>
ligand

>  <RI>
0

>  <Rbt.Current_Directory>
/home/itssahil/PROJECTS/Mol_Feturizer/New_Systems/rnas/4Y1I

>  <Rbt.Executable>
rbdock ($Id: //depot/dev/client3/rdock/2013.1/src/exe/rbdock.cxx#4 $)

>  <Rbt.Library>
libRbt.so (2013.1, Build901 2013/11/27)

>  <Rbt.Parameter_File>
/export/apps/rDock/src/rDock_2013.1_src/data/scripts/dock_solv.prm

>  <Rbt.Receptor>
prm/pocket_docking_6.prm

>  <SCORE>
-9.28051

>  <SCORE.INTER>
-3.28677

>  <SCORE.INTER.CONST>
1

>  <SCORE.INTER.POLAR>
0

>  <SCORE.INTER.ROT>
8

>  <SCORE.INTER.SOLV>
12.6078

>  <SCORE.INTER.VDW>
-15.3271

>  <SCORE.INTER.norm>
-0.102711

>  <SCORE.INTRA>
-5.99438

>  <SCORE.INTRA.DIHEDRAL>
-8.44822

>  <SCORE.INTRA.DIHEDRAL.0>
10.9594

>  <SCORE.INTRA.POLAR>
0

>  <SCORE.INTRA.POLAR.0>
0

>  <SCORE.INTRA.REPUL>
0

>  <SCORE.INTRA.REPUL.0>
0

>  <SCORE.INTRA.SOLV>
-3.61323

>  <SCORE.INTRA.SOLV.lig_0>
-124.914

>  <SCORE.INTRA.VDW>
0.0363499

>  <SCORE.INTRA.VDW.0>
-4.69801

>  <SCORE.INTRA.norm>
-0.187324

>  <SCORE.RESTR>
0.000637485

>  <SCORE.RESTR.CAVITY>
0.000637485

>  <SCORE.RESTR.norm>
1.99214e-05

>  <SCORE.SYSTEM>
0

>  <SCORE.SYSTEM.CONST>
0

>  <SCORE.SYSTEM.DIHEDRAL>
0

>  <SCORE.SYSTEM.SOLV>
0

>  <SCORE.SYSTEM.norm>
0

>  <SCORE.heavy>
32

>  <SCORE.norm>
-0.290016

>  <RMSD>
7.547

$$$$
ligand
 OpenBabel11021811513D
libRbt.so/2013.1/901 2013/11/27
 32 34  0  0  0  0  0  0  0  0999 V2000
   20.7248  -24.5388  -19.0803 P   0  0  1  0  0  0  0  0  0  0  0  0
   21.8552  -24.4322  -21.7151 P   0  0  2  0  0  0  0  0  0  0  0  0
   21.5944  -21.9653  -23.2840 P   0  0  1  0  0  0  0  0  0  0  0  0
   18.3982  -23.3975  -18.8049 C   0  0  0  0  0  0  0  0  0  0  0  0
   19.6218  -23.6960  -18.1953 O   0  0  0  0  0  0  0  0  0  0  0  0
   18.5722  -22.3583  -19.7121 C   0  0  1  0  0  0  0  0  0  0  0  0
   17.2681  -22.0794  -20.4343 O   0  0  0  0  0  0  0  0  0  0  0  0
   18.9609  -20.9977  -18.9707 C   0  0  1  0  0  0  0  0  0  0  0  0
   20.3586  -20.5864  -19.3750 O   0  0  0  0  0  0  0  0  0  0  0  0
   18.1871  -20.1403  -19.4036 C   0  0  1  0  0  0  0  0  0  0  0  0
   18.8477  -19.3897  -20.4981 O   0  0  0  0  0  0  0  0  0  0  0  0
   16.8601  -20.9567  -19.9922 C   0  0  2  0  0  0  0  0  0  0  0  0
   12.0105  -20.1669  -18.4946 N   0  0  0  0  0  0  0  0  0  0  0  0
   22.0840  -24.4384  -18.4334 O   0  5  0  0  0  0  0  0  0  0  0  0
   21.6474  -25.9079  -21.9463 O   0  5  0  0  0  0  0  0  0  0  0  0
   20.5592  -21.4182  -22.3293 O   0  0  0  0  0  0  0  0  0  0  0  0
   12.5938  -19.7765  -19.6170 C   0  0  0  0  0  0  0  0  0  0  0  0
   11.8284  -19.0274  -20.5931 N   0  0  0  0  0  0  0  0  0  0  0  0
   20.2747  -25.9794  -19.1725 O   0  0  0  0  0  0  0  0  0  0  0  0
   23.2568  -24.1918  -21.2186 O   0  0  0  0  0  0  0  0  0  0  0  0
   22.9491  -21.3936  -22.9269 O   0  5  0  0  0  0  0  0  0  0  0  0
   13.8560  -20.0474  -19.8798 N   0  0  0  0  0  0  0  0  0  0  0  0
   20.8025  -23.8797  -20.5831 O   0  0  0  0  0  0  0  0  0  0  0  0
   21.6226  -23.6090  -23.1201 O   0  0  0  0  0  0  0  0  0  0  0  0
   21.2157  -21.5778  -24.6968 O   0  0  0  0  0  0  0  0  0  0  0  0
   14.5981  -20.7367  -19.0047 C   0  0  0  0  0  0  0  0  0  0  0  0
   14.0144  -21.1553  -17.8261 C   0  0  0  0  0  0  0  0  0  0  0  0
   12.6632  -20.8549  -17.5669 C   0  0  0  0  0  0  0  0  0  0  0  0
   12.0410  -21.2683  -16.3758 O   0  0  0  0  0  0  0  0  0  0  0  0
   14.9492  -21.8179  -17.1238 N   0  0  0  0  0  0  0  0  0  0  0  0
   16.0624  -21.8091  -17.8362 C   0  0  0  0  0  0  0  0  0  0  0  0
   15.8712  -21.1608  -18.9700 N   0  0  0  0  0  0  0  0  0  0  0  0
  1  5  1  1  0  0  0
  1 14  1  0  0  0  0
  1 19  2  0  0  0  0
  1 23  1  0  0  0  0
  2 15  1  6  0  0  0
  2 20  2  0  0  0  0
  2 23  1  0  0  0  0
  2 24  1  0  0  0  0
  3 16  1  1  0  0  0
  3 21  1  0  0  0  0
  3 24  1  0  0  0  0
  3 25  2  0  0  0  0
  4  5  1  0  0  0  0
  6  4  1  1  0  0  0
  6  7  1  0  0  0  0
  6  8  1  0  0  0  0
  7 12  1  0  0  0  0
  8  9  1  6  0  0  0
  8 10  1  0  0  0  0
 10 11  1  6  0  0  0
 10 12  1  0  0  0  0
 12 32  1  1  0  0  0
 13 17  2  0  0  0  0
 13 28  1  0  0  0  0
 17 18  1  0  0  0  0
 17 22  1  0  0  0  0
 22 26  2  0  0  0  0
 26 27  1  0  0  0  0
 26 32  1  0  0  0  0
 27 28  2  0  0  0  0
 27 30  1  0  0  0  0
 28 29  1  0  0  0  0
 30 31  2  0  0  0  0
 31 32  1  0  0  0  0
M  CHG  3  14  -1  15  -1  21  -1
M  END
>  <CHROM.1>
164.41783462,56.40882153,-54.97130641,176.85414830,-75.74460795,-119.31845930
177.23921005,173.18131030,18.53612786,-22.25711584,-20.12942815,-0.05159302
-0.48512349,2.27461103

>  <Name>
ligand

>  <RI>
0

>  <Rbt.Current_Directory>
/home/itssahil/PROJECTS/Mol_Feturizer/New_Systems/rnas/4Y1I

>  <Rbt.Executable>
rbdock ($Id: //depot/dev/client3/rdock/2013.1/src/exe/rbdock.cxx#4 $)

>  <Rbt.Library>
libRbt.so (2013.1, Build901 2013/11/27)

>  <Rbt.Parameter_File>
/export/apps/rDock/src/rDock_2013.1_src/data/scripts/dock_solv.prm

>  <Rbt.Receptor>
prm/pocket_docking_8.prm

>  <SCORE>
-7.69605

>  <SCORE.INTER>
-1.69068

>  <SCORE.INTER.CONST>
1

>  <SCORE.INTER.POLAR>
0

>  <SCORE.INTER.ROT>
8

>  <SCORE.INTER.SOLV>
7.30781

>  <SCORE.INTER.VDW>
-12.4964

>  <SCORE.INTER.norm>
-0.0528338

>  <SCORE.INTRA>
-6.00537

>  <SCORE.INTRA.DIHEDRAL>
-8.05601

>  <SCORE.INTRA.DIHEDRAL.0>
10.9594

>  <SCORE.INTRA.POLAR>
0

>  <SCORE.INTRA.POLAR.0>
0

>  <SCORE.INTRA.REPUL>
0

>  <SCORE.INTRA.REPUL.0>
0

>  <SCORE.INTRA.SOLV>
-2.98742

>  <SCORE.INTRA.SOLV.lig_0>
-124.914

>  <SCORE.INTRA.VDW>
-0.483654

>  <SCORE.INTRA.VDW.0>
-4.69801

>  <SCORE.INTRA.norm>
-0.187668

>  <SCORE.RESTR>
0

>  <SCORE.RESTR.CAVITY>
0

>  <SCORE.RESTR.norm>
0

>  <SCORE.SYSTEM>
0

>  <SCORE.SYSTEM.CONST>
0

>  <SCORE.SYSTEM.DIHEDRAL>
0

>  <SCORE.SYSTEM.SOLV>
0

>  <SCORE.SYSTEM.norm>
0

>  <SCORE.heavy>
32

>  <SCORE.norm>
-0.240502

>  <RMSD>
7.567

$$$$
ligand
 OpenBabel11021811513D
libRbt.so/2013.1/901 2013/11/27
 32 34  0  0  0  0  0  0  0  0999 V2000
   18.0197  -26.1935  -18.9520 P   0  0  1  0  0  0  0  0  0  0  0  0
   16.1410  -24.0303  -18.8037 P   0  0  2  0  0  0  0  0  0  0  0  0
   17.2509  -21.3697  -19.3556 P   0  0  1  0  0  0  0  0  0  0  0  0
   17.0660  -28.6173  -19.0358 C   0  0  0  0  0  0  0  0  0  0  0  0
   18.0505  -27.7426  -19.5086 O   0  0  0  0  0  0  0  0  0  0  0  0
   17.4464  -29.1184  -17.7958 C   0  0  1  0  0  0  0  0  0  0  0  0
   16.8656  -28.2572  -16.6907 O   0  0  0  0  0  0  0  0  0  0  0  0
   16.8634  -30.5866  -17.5578 C   0  0  1  0  0  0  0  0  0  0  0  0
   18.0060  -31.5730  -17.4701 O   0  0  0  0  0  0  0  0  0  0  0  0
   16.3158  -30.5612  -16.4529 C   0  0  1  0  0  0  0  0  0  0  0  0
   17.2512  -31.0842  -15.4285 O   0  0  0  0  0  0  0  0  0  0  0  0
   15.9613  -28.9644  -16.1388 C   0  0  2  0  0  0  0  0  0  0  0  0
   11.1724  -30.4975  -17.1883 N   0  0  0  0  0  0  0  0  0  0  0  0
   18.2821  -26.1784  -17.4664 O   0  5  0  0  0  0  0  0  0  0  0  0
   15.9409  -23.9393  -17.3117 O   0  5  0  0  0  0  0  0  0  0  0  0
   17.1963  -20.8287  -17.9462 O   0  0  0  0  0  0  0  0  0  0  0  0
   12.1632  -31.2064  -16.6703 C   0  0  0  0  0  0  0  0  0  0  0  0
   11.9410  -32.5977  -16.3317 N   0  0  0  0  0  0  0  0  0  0  0  0
   19.0640  -25.3902  -19.6939 O   0  0  0  0  0  0  0  0  0  0  0  0
   14.8662  -23.6460  -19.5080 O   0  0  0  0  0  0  0  0  0  0  0  0
   18.4782  -20.8209  -20.0499 O   0  5  0  0  0  0  0  0  0  0  0  0
   13.3537  -30.6870  -16.4500 N   0  0  0  0  0  0  0  0  0  0  0  0
   16.5275  -25.5668  -19.2334 O   0  0  0  0  0  0  0  0  0  0  0  0
   17.3505  -23.0165  -19.2674 O   0  0  0  0  0  0  0  0  0  0  0  0
   15.9979  -20.9511  -20.0934 O   0  0  0  0  0  0  0  0  0  0  0  0
   13.6006  -29.4059  -16.7488 C   0  0  0  0  0  0  0  0  0  0  0  0
   12.5848  -28.6444  -17.2905 C   0  0  0  0  0  0  0  0  0  0  0  0
   11.3200  -29.2206  -17.5166 C   0  0  0  0  0  0  0  0  0  0  0  0
   10.2658  -28.4701  -18.0665 O   0  0  0  0  0  0  0  0  0  0  0  0
   13.0719  -27.4095  -17.5004 N   0  0  0  0  0  0  0  0  0  0  0  0
   14.3334  -27.4072  -17.1063 C   0  0  0  0  0  0  0  0  0  0  0  0
   14.6702  -28.6004  -16.6535 N   0  0  0  0  0  0  0  0  0  0  0  0
  1  5  1  6  0  0  0
  1 14  1  0  0  0  0
  1 19  2  0  0  0  0
  1 23  1  0  0  0  0
  2 15  1  1  0  0  0
  2 20  2  0  0  0  0
  2 23  1  0  0  0  0
  2 24  1  0  0  0  0
  3 16  1  1  0  0  0
  3 21  1  0  0  0  0
  3 24  1  0  0  0  0
  3 25  2  0  0  0  0
  4  5  1  0  0  0  0
  6  4  1  6  0  0  0
  6  7  1  0  0  0  0
  6  8  1  0  0  0  0
  7 12  1  0  0  0  0
  8  9  1  1  0  0  0
  8 10  1  0  0  0  0
 10 11  1  1  0  0  0
 10 12  1  0  0  0  0
 12 32  1  6  0  0  0
 13 17  2  0  0  0  0
 13 28  1  0  0  0  0
 17 18  1  0  0  0  0
 17 22  1  0  0  0  0
 22 26  2  0  0  0  0
 26 27  1  0  0  0  0
 26 32  1  0  0  0  0
 27 28  2  0  0  0  0
 27 30  1  0  0  0  0
 28 29  1  0  0  0  0
 30 31  2  0  0  0  0
 31 32  1  0  0  0  0
M  CHG  3  14  -1  15  -1  21  -1
M  END
>  <CHROM.1>
64.42914066,-74.85895633,71.09875050,93.03036529,-82.35181814,151.39676870
-179.98567756,-73.72661918,15.81145131,-26.77960214,-18.02240859,-1.17945745
-0.07118768,2.87904036

>  <Name>
ligand

>  <RI>
0

>  <Rbt.Current_Directory>
/home/itssahil/PROJECTS/Mol_Feturizer/New_Systems/rnas/4Y1I

>  <Rbt.Executable>
rbdock ($Id: //depot/dev/client3/rdock/2013.1/src/exe/rbdock.cxx#4 $)

>  <Rbt.Library>
libRbt.so (2013.1, Build901 2013/11/27)

>  <Rbt.Parameter_File>
/export/apps/rDock/src/rDock_2013.1_src/data/scripts/dock_solv.prm

>  <Rbt.Receptor>
prm/pocket_docking_2.prm

>  <SCORE>
6.30103

>  <SCORE.INTER>
8.49447

>  <SCORE.INTER.CONST>
1

>  <SCORE.INTER.POLAR>
0

>  <SCORE.INTER.ROT>
8

>  <SCORE.INTER.SOLV>
5.7546

>  <SCORE.INTER.VDW>
-5.18855

>  <SCORE.INTER.norm>
0.265452

>  <SCORE.INTRA>
-3.53787

>  <SCORE.INTRA.DIHEDRAL>
-3.62371

>  <SCORE.INTRA.DIHEDRAL.0>
10.9594

>  <SCORE.INTRA.POLAR>
0

>  <SCORE.INTRA.POLAR.0>
0

>  <SCORE.INTRA.REPUL>
0

>  <SCORE.INTRA.REPUL.0>
0

>  <SCORE.INTRA.SOLV>
-1.96722

>  <SCORE.INTRA.SOLV.lig_0>
-124.914

>  <SCORE.INTRA.VDW>
-0.742404

>  <SCORE.INTRA.VDW.0>
-4.69801

>  <SCORE.INTRA.norm>
-0.110558

>  <SCORE.RESTR>
1.34442

>  <SCORE.RESTR.CAVITY>
1.34442

>  <SCORE.RESTR.norm>
0.0420133

>  <SCORE.SYSTEM>
0

>  <SCORE.SYSTEM.CONST>
0

>  <SCORE.SYSTEM.DIHEDRAL>
0

>  <SCORE.SYSTEM.SOLV>
0

>  <SCORE.SYSTEM.norm>
0

>  <SCORE.heavy>
32

>  <SCORE.norm>
0.196907

>  <RMSD>
7.600

$$$$
ligand
 OpenBabel11021811513D
libRbt.so/2013.1/901 2013/11/27
 32 34  0  0  0  0  0  0  0  0999 V2000
   15.0287  -24.0634  -17.9229 P   0  0  1  0  0  0  0  0  0  0  0  0
   16.9001  -22.1634  -18.9808 P   0  0  2  0  0  0  0  0  0  0  0  0
   18.9816  -20.1180  -19.2954 P   0  0  1  0  0  0  0  0  0  0  0  0
   16.9152  -25.7945  -17.4372 C   0  0  0  0  0  0  0  0  0  0  0  0
   16.0011  -25.3108  -18.3797 O   0  0  0  0  0  0  0  0  0  0  0  0
   17.6323  -26.8521  -17.9855 C   0  0  1  0  0  0  0  0  0  0  0  0
   18.3331  -27.6260  -16.8856 O   0  0  0  0  0  0  0  0  0  0  0  0
   16.6650  -27.8983  -18.7080 C   0  0  1  0  0  0  0  0  0  0  0  0
   16.9575  -27.9120  -20.1913 O   0  0  0  0  0  0  0  0  0  0  0  0
   16.9703  -29.0078  -18.2641 C   0  0  1  0  0  0  0  0  0  0  0  0
   17.9069  -29.6718  -19.2022 O   0  0  0  0  0  0  0  0  0  0  0  0
   17.7220  -28.7405  -16.8021 C   0  0  2  0  0  0  0  0  0  0  0  0
   12.7811  -28.4078  -15.4375 N   0  0  0  0  0  0  0  0  0  0  0  0
   13.9848  -23.8139  -18.9831 O   0  5  0  0  0  0  0  0  0  0  0  0
   16.0487  -21.7078  -20.1392 O   0  5  0  0  0  0  0  0  0  0  0  0
   19.4724  -18.9588  -18.4601 O   0  0  0  0  0  0  0  0  0  0  0  0
   13.2947  -28.4041  -16.6577 C   0  0  0  0  0  0  0  0  0  0  0  0
   12.4111  -28.2956  -17.8009 N   0  0  0  0  0  0  0  0  0  0  0  0
   14.3840  -24.4097  -16.5998 O   0  0  0  0  0  0  0  0  0  0  0  0
   17.8003  -23.2856  -19.4270 O   0  0  0  0  0  0  0  0  0  0  0  0
   20.1376  -21.0547  -19.5708 O   0  5  0  0  0  0  0  0  0  0  0  0
   14.5916  -28.4966  -16.8705 N   0  0  0  0  0  0  0  0  0  0  0  0
   15.9517  -22.7143  -17.7594 O   0  0  0  0  0  0  0  0  0  0  0  0
   17.8155  -20.9106  -18.4344 O   0  0  0  0  0  0  0  0  0  0  0  0
   18.4153  -19.5855  -20.5935 O   0  0  0  0  0  0  0  0  0  0  0  0
   15.4421  -28.5983  -15.8420 C   0  0  0  0  0  0  0  0  0  0  0  0
   14.9327  -28.6040  -14.5592 C   0  0  0  0  0  0  0  0  0  0  0  0
   13.5428  -28.5048  -14.3557 C   0  0  0  0  0  0  0  0  0  0  0  0
   12.9945  -28.5085  -13.0610 O   0  0  0  0  0  0  0  0  0  0  0  0
   15.9700  -28.7139  -13.7117 N   0  0  0  0  0  0  0  0  0  0  0  0
   17.0725  -28.7730  -14.4382 C   0  0  0  0  0  0  0  0  0  0  0  0
   16.7750  -28.7022  -15.7222 N   0  0  0  0  0  0  0  0  0  0  0  0
  1  5  1  6  0  0  0
  1 14  1  0  0  0  0
  1 19  2  0  0  0  0
  1 23  1  0  0  0  0
  2 15  1  6  0  0  0
  2 20  2  0  0  0  0
  2 23  1  0  0  0  0
  2 24  1  0  0  0  0
  3 16  1  1  0  0  0
  3 21  1  0  0  0  0
  3 24  1  0  0  0  0
  3 25  2  0  0  0  0
  4  5  1  0  0  0  0
  6  4  1  1  0  0  0
  6  7  1  0  0  0  0
  6  8  1  0  0  0  0
  7 12  1  0  0  0  0
  8  9  1  6  0  0  0
  8 10  1  0  0  0  0
 10 11  1  6  0  0  0
 10 12  1  0  0  0  0
 12 32  1  1  0  0  0
 13 17  2  0  0  0  0
 13 28  1  0  0  0  0
 17 18  1  0  0  0  0
 17 22  1  0  0  0  0
 22 26  2  0  0  0  0
 26 27  1  0  0  0  0
 26 32  1  0  0  0  0
 27 28  2  0  0  0  0
 27 30  1  0  0  0  0
 28 29  1  0  0  0  0
 30 31  2  0  0  0  0
 31 32  1  0  0  0  0
M  CHG  3  14  -1  15  -1  21  -1
M  END
>  <CHROM.1>
-171.77645431,65.72374002,174.63112461,-164.28425024,179.09857536,105.36235537
55.14224495,-63.09255405,16.37010158,-25.26281202,-17.67198403,1.17063214
0.49485295,-0.21781006

>  <Name>
ligand

>  <RI>
0

>  <Rbt.Current_Directory>
/home/itssahil/PROJECTS/Mol_Feturizer/New_Systems/rnas/4Y1I

>  <Rbt.Executable>
rbdock ($Id: //depot/dev/client3/rdock/2013.1/src/exe/rbdock.cxx#4 $)

>  <Rbt.Library>
libRbt.so (2013.1, Build901 2013/11/27)

>  <Rbt.Parameter_File>
/export/apps/rDock/src/rDock_2013.1_src/data/scripts/dock_solv.prm

>  <Rbt.Receptor>
prm/pocket_docking_3.prm

>  <SCORE>
-4.46754

>  <SCORE.INTER>
0.466463

>  <SCORE.INTER.CONST>
1

>  <SCORE.INTER.POLAR>
0

>  <SCORE.INTER.ROT>
8

>  <SCORE.INTER.SOLV>
8.84637

>  <SCORE.INTER.VDW>
-11.5711

>  <SCORE.INTER.norm>
0.014577

>  <SCORE.INTRA>
-4.93401

>  <SCORE.INTRA.DIHEDRAL>
-8.56464

>  <SCORE.INTRA.DIHEDRAL.0>
10.9594

>  <SCORE.INTRA.POLAR>
0

>  <SCORE.INTRA.POLAR.0>
0

>  <SCORE.INTRA.REPUL>
0

>  <SCORE.INTRA.REPUL.0>
0

>  <SCORE.INTRA.SOLV>
-1.44365

>  <SCORE.INTRA.SOLV.lig_0>
-124.914

>  <SCORE.INTRA.VDW>
0.0701395

>  <SCORE.INTRA.VDW.0>
-4.69801

>  <SCORE.INTRA.norm>
-0.154188

>  <SCORE.RESTR>
0

>  <SCORE.RESTR.CAVITY>
0

>  <SCORE.RESTR.norm>
0

>  <SCORE.SYSTEM>
0

>  <SCORE.SYSTEM.CONST>
0

>  <SCORE.SYSTEM.DIHEDRAL>
0

>  <SCORE.SYSTEM.SOLV>
0

>  <SCORE.SYSTEM.norm>
0

>  <SCORE.heavy>
32

>  <SCORE.norm>
-0.139611

>  <RMSD>
7.613

$$$$
ligand
 OpenBabel11021811513D
libRbt.so/2013.1/901 2013/11/27
 32 34  0  0  0  0  0  0  0  0999 V2000
   16.0931  -19.2504  -21.6731 P   0  0  1  0  0  0  0  0  0  0  0  0
   13.8106  -19.9921  -20.1010 P   0  0  2  0  0  0  0  0  0  0  0  0
   15.0084  -21.6553  -18.0000 P   0  0  1  0  0  0  0  0  0  0  0  0
   17.3513  -21.2075  -20.4991 C   0  0  0  0  0  0  0  0  0  0  0  0
   16.6172  -20.8102  -21.6222 O   0  0  0  0  0  0  0  0  0  0  0  0
   18.6445  -20.7042  -20.5874 C   0  0  1  0  0  0  0  0  0  0  0  0
   19.3358  -20.8182  -19.2424 O   0  0  0  0  0  0  0  0  0  0  0  0
   19.5314  -21.5547  -21.6083 C   0  0  1  0  0  0  0  0  0  0  0  0
   19.9154  -20.6862  -22.7849 O   0  0  0  0  0  0  0  0  0  0  0  0
   20.5703  -21.8353  -21.0056 C   0  0  1  0  0  0  0  0  0  0  0  0
   21.6250  -20.8563  -21.3619 O   0  0  0  0  0  0  0  0  0  0  0  0
   20.2173  -21.7272  -19.3815 C   0  0  2  0  0  0  0  0  0  0  0  0
   21.3558  -26.5172  -17.9171 N   0  0  0  0  0  0  0  0  0  0  0  0
   17.2682  -18.3117  -21.5534 O   0  5  0  0  0  0  0  0  0  0  0  0
   13.0255  -20.2373  -21.3651 O   0  5  0  0  0  0  0  0  0  0  0  0
   16.2706  -20.8319  -17.8944 O   0  0  0  0  0  0  0  0  0  0  0  0
   22.1752  -25.5878  -18.3835 C   0  0  0  0  0  0  0  0  0  0  0  0
   23.5854  -25.8894  -18.5256 N   0  0  0  0  0  0  0  0  0  0  0  0
   15.3540  -19.0287  -22.9733 O   0  0  0  0  0  0  0  0  0  0  0  0
   12.9245  -19.3330  -19.0767 O   0  0  0  0  0  0  0  0  0  0  0  0
   14.0239  -21.1901  -16.9493 O   0  5  0  0  0  0  0  0  0  0  0  0
   21.7500  -24.3888  -18.7255 N   0  0  0  0  0  0  0  0  0  0  0  0
   15.0810  -18.9976  -20.4040 O   0  0  0  0  0  0  0  0  0  0  0  0
   14.3692  -21.4200  -19.5052 O   0  0  0  0  0  0  0  0  0  0  0  0
   15.3521  -23.1137  -17.7898 O   0  0  0  0  0  0  0  0  0  0  0  0
   20.4552  -24.0698  -18.6099 C   0  0  0  0  0  0  0  0  0  0  0  0
   19.5793  -25.0207  -18.1267 C   0  0  0  0  0  0  0  0  0  0  0  0
   20.0565  -26.2957  -17.7665 C   0  0  0  0  0  0  0  0  0  0  0  0
   19.1886  -27.2847  -17.2708 O   0  0  0  0  0  0  0  0  0  0  0  0
   18.3541  -24.4688  -18.1039 N   0  0  0  0  0  0  0  0  0  0  0  0
   18.4670  -23.2312  -18.5537 C   0  0  0  0  0  0  0  0  0  0  0  0
   19.7235  -22.9739  -18.8657 N   0  0  0  0  0  0  0  0  0  0  0  0
  1  5  1  1  0  0  0
  1 14  1  0  0  0  0
  1 19  2  0  0  0  0
  1 23  1  0  0  0  0
  2 15  1  6  0  0  0
  2 20  2  0  0  0  0
  2 23  1  0  0  0  0
  2 24  1  0  0  0  0
  3 16  1  1  0  0  0
  3 21  1  0  0  0  0
  3 24  1  0  0  0  0
  3 25  2  0  0  0  0
  4  5  1  0  0  0  0
  6  4  1  1  0  0  0
  6  7  1  0  0  0  0
  6  8  1  0  0  0  0
  7 12  1  0  0  0  0
  8  9  1  6  0  0  0
  8 10  1  0  0  0  0
 10 11  1  6  0  0  0
 10 12  1  0  0  0  0
 12 32  1  6  0  0  0
 13 17  2  0  0  0  0
 13 28  1  0  0  0  0
 17 18  1  0  0  0  0
 17 22  1  0  0  0  0
 22 26  2  0  0  0  0
 26 27  1  0  0  0  0
 26 32  1  0  0  0  0
 27 28  2  0  0  0  0
 27 30  1  0  0  0  0
 28 29  1  0  0  0  0
 30 31  2  0  0  0  0
 31 32  1  0  0  0  0
M  CHG  3  14  -1  15  -1  21  -1
M  END
>  <CHROM.1>
57.23368715,-47.95608567,-63.42564668,165.64065937,-75.96666109,-166.26292721
-51.61060546,-167.01485212,17.58970712,-21.86601077,-19.64410762,-2.49993060
-0.31706090,2.40487647

>  <Name>
ligand

>  <RI>
0

>  <Rbt.Current_Directory>
/home/itssahil/PROJECTS/Mol_Feturizer/New_Systems/rnas/4Y1I

>  <Rbt.Executable>
rbdock ($Id: //depot/dev/client3/rdock/2013.1/src/exe/rbdock.cxx#4 $)

>  <Rbt.Library>
libRbt.so (2013.1, Build901 2013/11/27)

>  <Rbt.Parameter_File>
/export/apps/rDock/src/rDock_2013.1_src/data/scripts/dock_solv.prm

>  <Rbt.Receptor>
prm/pocket_docking_6.prm

>  <SCORE>
-10.0386

>  <SCORE.INTER>
-4.46021

>  <SCORE.INTER.CONST>
1

>  <SCORE.INTER.POLAR>
0

>  <SCORE.INTER.ROT>
8

>  <SCORE.INTER.SOLV>
17.1067

>  <SCORE.INTER.VDW>
-17.609

>  <SCORE.INTER.norm>
-0.139382

>  <SCORE.INTRA>
-5.57841

>  <SCORE.INTRA.DIHEDRAL>
-7.21201

>  <SCORE.INTRA.DIHEDRAL.0>
10.9594

>  <SCORE.INTRA.POLAR>
0

>  <SCORE.INTRA.POLAR.0>
0

>  <SCORE.INTRA.REPUL>
0

>  <SCORE.INTRA.REPUL.0>
0

>  <SCORE.INTRA.SOLV>
-1.96699

>  <SCORE.INTRA.SOLV.lig_0>
-124.914

>  <SCORE.INTRA.VDW>
-0.988909

>  <SCORE.INTRA.VDW.0>
-4.69801

>  <SCORE.INTRA.norm>
-0.174325

>  <SCORE.RESTR>
0

>  <SCORE.RESTR.CAVITY>
0

>  <SCORE.RESTR.norm>
0

>  <SCORE.SYSTEM>
0

>  <SCORE.SYSTEM.CONST>
0

>  <SCORE.SYSTEM.DIHEDRAL>
0

>  <SCORE.SYSTEM.SOLV>
0

>  <SCORE.SYSTEM.norm>
0

>  <SCORE.heavy>
32

>  <SCORE.norm>
-0.313707

>  <RMSD>
7.627

$$$$
ligand
 OpenBabel11021811513D
libRbt.so/2013.1/901 2013/11/27
 32 34  0  0  0  0  0  0  0  0999 V2000
   18.9611  -25.2201  -18.3835 P   0  0  1  0  0  0  0  0  0  0  0  0
   21.4248  -24.0030  -19.2081 P   0  0  2  0  0  0  0  0  0  0  0  0
   23.8273  -22.3171  -19.1708 P   0  0  1  0  0  0  0  0  0  0  0  0
   16.6045  -24.2135  -18.8574 C   0  0  0  0  0  0  0  0  0  0  0  0
   17.4745  -24.7187  -17.8848 O   0  0  0  0  0  0  0  0  0  0  0  0
   15.4986  -23.6408  -18.2392 C   0  0  1  0  0  0  0  0  0  0  0  0
   15.9364  -22.4726  -17.3769 O   0  0  0  0  0  0  0  0  0  0  0  0
   14.4811  -23.0353  -19.3117 C   0  0  1  0  0  0  0  0  0  0  0  0
   13.1780  -23.8001  -19.2560 O   0  0  0  0  0  0  0  0  0  0  0  0
   14.2448  -21.8818  -18.9443 C   0  0  1  0  0  0  0  0  0  0  0  0
   12.9812  -21.8619  -18.1692 O   0  0  0  0  0  0  0  0  0  0  0  0
   15.5176  -21.4267  -17.9712 C   0  0  2  0  0  0  0  0  0  0  0  0
   16.7950  -18.3962  -21.9171 N   0  0  0  0  0  0  0  0  0  0  0  0
   19.5532  -26.1597  -17.3624 O   0  5  0  0  0  0  0  0  0  0  0  0
   21.3051  -24.3423  -20.6726 O   0  5  0  0  0  0  0  0  0  0  0  0
   24.5147  -23.1059  -18.0810 O   0  0  0  0  0  0  0  0  0  0  0  0
   15.5833  -18.7263  -21.4980 C   0  0  0  0  0  0  0  0  0  0  0  0
   14.4238  -18.2036  -22.1921 N   0  0  0  0  0  0  0  0  0  0  0  0
   18.8190  -25.9005  -19.7263 O   0  0  0  0  0  0  0  0  0  0  0  0
   22.2033  -25.0822  -18.5023 O   0  0  0  0  0  0  0  0  0  0  0  0
   24.3039  -22.8143  -20.5181 O   0  5  0  0  0  0  0  0  0  0  0  0
   15.3935  -19.5197  -20.4636 N   0  0  0  0  0  0  0  0  0  0  0  0
   19.9363  -23.9054  -18.5229 O   0  0  0  0  0  0  0  0  0  0  0  0
   22.1996  -22.5629  -19.0303 O   0  0  0  0  0  0  0  0  0  0  0  0
   24.1606  -20.8508  -19.0032 O   0  0  0  0  0  0  0  0  0  0  0  0
   16.4376  -20.0240  -19.7950 C   0  0  0  0  0  0  0  0  0  0  0  0
   17.7120  -19.6960  -20.2115 C   0  0  0  0  0  0  0  0  0  0  0  0
   17.8909  -18.8454  -21.3194 C   0  0  0  0  0  0  0  0  0  0  0  0
   19.1764  -18.4931  -21.7667 O   0  0  0  0  0  0  0  0  0  0  0  0
   18.5783  -20.3165  -19.3926 N   0  0  0  0  0  0  0  0  0  0  0  0
   17.8711  -20.9988  -18.5087 C   0  0  0  0  0  0  0  0  0  0  0  0
   16.5811  -20.8370  -18.7366 N   0  0  0  0  0  0  0  0  0  0  0  0
  1  5  1  1  0  0  0
  1 14  1  0  0  0  0
  1 19  2  0  0  0  0
  1 23  1  0  0  0  0
  2 15  1  6  0  0  0
  2 20  2  0  0  0  0
  2 23  1  0  0  0  0
  2 24  1  0  0  0  0
  3 16  1  1  0  0  0
  3 21  1  0  0  0  0
  3 24  1  0  0  0  0
  3 25  2  0  0  0  0
  4  5  1  0  0  0  0
  6  4  1  6  0  0  0
  6  7  1  0  0  0  0
  6  8  1  0  0  0  0
  7 12  1  0  0  0  0
  8  9  1  1  0  0  0
  8 10  1  0  0  0  0
 10 11  1  1  0  0  0
 10 12  1  0  0  0  0
 12 32  1  6  0  0  0
 13 17  2  0  0  0  0
 13 28  1  0  0  0  0
 17 18  1  0  0  0  0
 17 22  1  0  0  0  0
 22 26  2  0  0  0  0
 26 27  1  0  0  0  0
 26 32  1  0  0  0  0
 27 28  2  0  0  0  0
 27 30  1  0  0  0  0
 28 29  1  0  0  0  0
 30 31  2  0  0  0  0
 31 32  1  0  0  0  0
M  CHG  3  14  -1  15  -1  21  -1
M  END
>  <CHROM.1>
-159.70088607,65.78789405,-63.36045806,62.41823331,-170.25807055,156.99554167
-170.88691064,-77.17113741,18.67761135,-22.38725155,-19.29735868,0.31368067
-0.05630152,2.71522713

>  <Name>
ligand

>  <RI>
0

>  <Rbt.Current_Directory>
/home/itssahil/PROJECTS/Mol_Feturizer/New_Systems/rnas/4Y1I

>  <Rbt.Executable>
rbdock ($Id: //depot/dev/client3/rdock/2013.1/src/exe/rbdock.cxx#4 $)

>  <Rbt.Library>
libRbt.so (2013.1, Build901 2013/11/27)

>  <Rbt.Parameter_File>
/export/apps/rDock/src/rDock_2013.1_src/data/scripts/dock_solv.prm

>  <Rbt.Receptor>
prm/pocket_docking_8.prm

>  <SCORE>
-12.091

>  <SCORE.INTER>
-6.6581

>  <SCORE.INTER.CONST>
1

>  <SCORE.INTER.POLAR>
0

>  <SCORE.INTER.ROT>
8

>  <SCORE.INTER.SOLV>
13.4552

>  <SCORE.INTER.VDW>
-17.8571

>  <SCORE.INTER.norm>
-0.208066

>  <SCORE.INTRA>
-5.43288

>  <SCORE.INTRA.DIHEDRAL>
-7.92717

>  <SCORE.INTRA.DIHEDRAL.0>
10.9594

>  <SCORE.INTRA.POLAR>
0

>  <SCORE.INTRA.POLAR.0>
0

>  <SCORE.INTRA.REPUL>
0

>  <SCORE.INTRA.REPUL.0>
0

>  <SCORE.INTRA.SOLV>
-2.96334

>  <SCORE.INTRA.SOLV.lig_0>
-124.914

>  <SCORE.INTRA.VDW>
0.0123727

>  <SCORE.INTRA.VDW.0>
-4.69801

>  <SCORE.INTRA.norm>
-0.169778

>  <SCORE.RESTR>
0

>  <SCORE.RESTR.CAVITY>
0

>  <SCORE.RESTR.norm>
0

>  <SCORE.SYSTEM>
0

>  <SCORE.SYSTEM.CONST>
0

>  <SCORE.SYSTEM.DIHEDRAL>
0

>  <SCORE.SYSTEM.SOLV>
0

>  <SCORE.SYSTEM.norm>
0

>  <SCORE.heavy>
32

>  <SCORE.norm>
-0.377843

>  <RMSD>
7.638

$$$$
ligand
 OpenBabel11021811513D
libRbt.so/2013.1/901 2013/11/27
 32 34  0  0  0  0  0  0  0  0999 V2000
   19.8438  -24.7361  -19.1978 P   0  0  1  0  0  0  0  0  0  0  0  0
   22.2683  -26.0120  -18.3464 P   0  0  2  0  0  0  0  0  0  0  0  0
   24.8205  -24.6595  -17.8246 P   0  0  1  0  0  0  0  0  0  0  0  0
   17.3887  -23.8842  -19.3936 C   0  0  0  0  0  0  0  0  0  0  0  0
   18.3991  -24.3180  -18.5282 O   0  0  0  0  0  0  0  0  0  0  0  0
   16.2945  -23.4537  -18.6515 C   0  0  1  0  0  0  0  0  0  0  0  0
   16.6793  -22.2479  -17.8160 O   0  0  0  0  0  0  0  0  0  0  0  0
   15.1040  -22.9670  -19.5991 C   0  0  1  0  0  0  0  0  0  0  0  0
   13.9145  -23.8837  -19.4231 O   0  0  0  0  0  0  0  0  0  0  0  0
   14.7725  -21.8533  -19.1855 C   0  0  1  0  0  0  0  0  0  0  0  0
   13.6051  -21.9918  -18.2822 O   0  0  0  0  0  0  0  0  0  0  0  0
   16.0782  -21.2556  -18.3418 C   0  0  2  0  0  0  0  0  0  0  0  0
   16.5573  -17.9769  -22.2669 N   0  0  0  0  0  0  0  0  0  0  0  0
   19.6130  -25.5878  -20.4215 O   0  5  0  0  0  0  0  0  0  0  0  0
   22.4473  -26.5900  -19.7277 O   0  5  0  0  0  0  0  0  0  0  0  0
   25.0246  -25.4299  -16.5412 O   0  0  0  0  0  0  0  0  0  0  0  0
   15.4446  -18.4410  -21.7199 C   0  0  0  0  0  0  0  0  0  0  0  0
   14.1629  -18.0132  -22.2429 N   0  0  0  0  0  0  0  0  0  0  0  0
   20.5984  -23.4744  -19.5514 O   0  0  0  0  0  0  0  0  0  0  0  0
   22.6650  -27.0362  -17.3157 O   0  0  0  0  0  0  0  0  0  0  0  0
   25.5902  -25.3373  -18.9371 O   0  5  0  0  0  0  0  0  0  0  0  0
   15.4621  -19.2850  -20.7084 N   0  0  0  0  0  0  0  0  0  0  0  0
   20.6967  -25.6084  -18.0976 O   0  0  0  0  0  0  0  0  0  0  0  0
   23.2063  -24.6715  -18.1765 O   0  0  0  0  0  0  0  0  0  0  0  0
   25.3128  -23.2418  -17.6323 O   0  0  0  0  0  0  0  0  0  0  0  0
   16.6250  -19.7052  -20.1958 C   0  0  0  0  0  0  0  0  0  0  0  0
   17.8001  -19.2370  -20.7480 C   0  0  0  0  0  0  0  0  0  0  0  0
   17.7571  -18.3347  -21.8283 C   0  0  0  0  0  0  0  0  0  0  0  0
   18.9372  -17.8401  -22.4112 O   0  0  0  0  0  0  0  0  0  0  0  0
   18.8173  -19.7958  -20.0702 N   0  0  0  0  0  0  0  0  0  0  0  0
   18.2944  -20.5758  -19.1401 C   0  0  0  0  0  0  0  0  0  0  0  0
   16.9765  -20.5362  -19.2019 N   0  0  0  0  0  0  0  0  0  0  0  0
  1  5  1  1  0  0  0
  1 14  1  0  0  0  0
  1 19  2  0  0  0  0
  1 23  1  0  0  0  0
  2 15  1  6  0  0  0
  2 20  2  0  0  0  0
  2 23  1  0  0  0  0
  2 24  1  0  0  0  0
  3 16  1  1  0  0  0
  3 21  1  0  0  0  0
  3 24  1  0  0  0  0
  3 25  2  0  0  0  0
  4  5  1  0  0  0  0
  6  4  1  6  0  0  0
  6  7  1  0  0  0  0
  6  8  1  0  0  0  0
  7 12  1  0  0  0  0
  8  9  1  1  0  0  0
  8 10  1  0  0  0  0
 10 11  1  1  0  0  0
 10 12  1  0  0  0  0
 12 32  1  6  0  0  0
 13 17  2  0  0  0  0
 13 28  1  0  0  0  0
 17 18  1  0  0  0  0
 17 22  1  0  0  0  0
 22 26  2  0  0  0  0
 26 27  1  0  0  0  0
 26 32  1  0  0  0  0
 27 28  2  0  0  0  0
 27 30  1  0  0  0  0
 28 29  1  0  0  0  0
 30 31  2  0  0  0  0
 31 32  1  0  0  0  0
M  CHG  3  14  -1  15  -1  21  -1
M  END
>  <CHROM.1>
-44.71315684,-48.29433501,-55.96021855,63.80412207,-174.27792432,159.24399756
-171.25603529,-81.20750316,19.28373602,-22.85682185,-19.26992629,0.64468594
-0.00026203,2.72814134

>  <Name>
ligand

>  <RI>
0

>  <Rbt.Current_Directory>
/home/itssahil/PROJECTS/Mol_Feturizer/New_Systems/rnas/4Y1I

>  <Rbt.Executable>
rbdock ($Id: //depot/dev/client3/rdock/2013.1/src/exe/rbdock.cxx#4 $)

>  <Rbt.Library>
libRbt.so (2013.1, Build901 2013/11/27)

>  <Rbt.Parameter_File>
/export/apps/rDock/src/rDock_2013.1_src/data/scripts/dock_solv.prm

>  <Rbt.Receptor>
prm/pocket_docking_6.prm

>  <SCORE>
-10.8155

>  <SCORE.INTER>
-4.97635

>  <SCORE.INTER.CONST>
1

>  <SCORE.INTER.POLAR>
0

>  <SCORE.INTER.ROT>
8

>  <SCORE.INTER.SOLV>
11.8873

>  <SCORE.INTER.VDW>
-16.2133

>  <SCORE.INTER.norm>
-0.155511

>  <SCORE.INTRA>
-5.83911

>  <SCORE.INTRA.DIHEDRAL>
-8.07377

>  <SCORE.INTRA.DIHEDRAL.0>
10.9594

>  <SCORE.INTRA.POLAR>
0

>  <SCORE.INTRA.POLAR.0>
0

>  <SCORE.INTRA.REPUL>
0

>  <SCORE.INTRA.REPUL.0>
0

>  <SCORE.INTRA.SOLV>
-3.9393

>  <SCORE.INTRA.SOLV.lig_0>
-124.914

>  <SCORE.INTRA.VDW>
0.167424

>  <SCORE.INTRA.VDW.0>
-4.69801

>  <SCORE.INTRA.norm>
-0.182472

>  <SCORE.RESTR>
0

>  <SCORE.RESTR.CAVITY>
0

>  <SCORE.RESTR.norm>
0

>  <SCORE.SYSTEM>
0

>  <SCORE.SYSTEM.CONST>
0

>  <SCORE.SYSTEM.DIHEDRAL>
0

>  <SCORE.SYSTEM.SOLV>
0

>  <SCORE.SYSTEM.norm>
0

>  <SCORE.heavy>
32

>  <SCORE.norm>
-0.337983

>  <RMSD>
7.688

$$$$
ligand
 OpenBabel11021811513D
libRbt.so/2013.1/901 2013/11/27
 32 34  0  0  0  0  0  0  0  0999 V2000
   18.6073  -23.6750  -19.2010 P   0  0  1  0  0  0  0  0  0  0  0  0
   21.3008  -22.7829  -19.6259 P   0  0  2  0  0  0  0  0  0  0  0  0
   23.3714  -24.6584  -18.7255 P   0  0  1  0  0  0  0  0  0  0  0  0
   16.0126  -23.7989  -18.9925 C   0  0  0  0  0  0  0  0  0  0  0  0
   17.1127  -22.9930  -19.3060 O   0  0  0  0  0  0  0  0  0  0  0  0
   14.8382  -23.0861  -19.2070 C   0  0  1  0  0  0  0  0  0  0  0  0
   14.8358  -21.8281  -18.3601 O   0  0  0  0  0  0  0  0  0  0  0  0
   14.7253  -22.5932  -20.7223 C   0  0  1  0  0  0  0  0  0  0  0  0
   13.5498  -23.2741  -21.3862 O   0  0  0  0  0  0  0  0  0  0  0  0
   14.4691  -21.3878  -20.6707 C   0  0  1  0  0  0  0  0  0  0  0  0
   13.0060  -21.1901  -20.8052 O   0  0  0  0  0  0  0  0  0  0  0  0
   14.9805  -20.8605  -19.1759 C   0  0  2  0  0  0  0  0  0  0  0  0
   18.7617  -18.7382  -21.9298 N   0  0  0  0  0  0  0  0  0  0  0  0
   18.7408  -24.4161  -17.8937 O   0  5  0  0  0  0  0  0  0  0  0  0
   22.1568  -21.5825  -19.3090 O   0  5  0  0  0  0  0  0  0  0  0  0
   24.2185  -23.6675  -17.9622 O   0  0  0  0  0  0  0  0  0  0  0  0
   17.5131  -18.9751  -22.3009 C   0  0  0  0  0  0  0  0  0  0  0  0
   17.0887  -18.6163  -23.6391 N   0  0  0  0  0  0  0  0  0  0  0  0
   18.7982  -24.6094  -20.3744 O   0  0  0  0  0  0  0  0  0  0  0  0
   21.3861  -23.0888  -21.0983 O   0  0  0  0  0  0  0  0  0  0  0  0
   23.4027  -25.9915  -18.0103 O   0  5  0  0  0  0  0  0  0  0  0  0
   16.6360  -19.5300  -21.4895 N   0  0  0  0  0  0  0  0  0  0  0  0
   19.7322  -22.4787  -19.2498 O   0  0  0  0  0  0  0  0  0  0  0  0
   21.8230  -24.0836  -18.7648 O   0  0  0  0  0  0  0  0  0  0  0  0
   23.9220  -24.8007  -20.1277 O   0  0  0  0  0  0  0  0  0  0  0  0
   16.9875  -19.8766  -20.2454 C   0  0  0  0  0  0  0  0  0  0  0  0
   18.2835  -19.6410  -19.8332 C   0  0  0  0  0  0  0  0  0  0  0  0
   19.2038  -19.0459  -20.7174 C   0  0  0  0  0  0  0  0  0  0  0  0
   20.5304  -18.7931  -20.3261 O   0  0  0  0  0  0  0  0  0  0  0  0
   18.3894  -20.0696  -18.5638 N   0  0  0  0  0  0  0  0  0  0  0  0
   17.2109  -20.5497  -18.2066 C   0  0  0  0  0  0  0  0  0  0  0  0
   16.3554  -20.4445  -19.2062 N   0  0  0  0  0  0  0  0  0  0  0  0
  1  5  1  6  0  0  0
  1 14  1  0  0  0  0
  1 19  2  0  0  0  0
  1 23  1  0  0  0  0
  2 15  1  1  0  0  0
  2 20  2  0  0  0  0
  2 23  1  0  0  0  0
  2 24  1  0  0  0  0
  3 16  1  1  0  0  0
  3 21  1  0  0  0  0
  3 24  1  0  0  0  0
  3 25  2  0  0  0  0
  4  5  1  0  0  0  0
  6  4  1  6  0  0  0
  6  7  1  0  0  0  0
  6  8  1  0  0  0  0
  7 12  1  0  0  0  0
  8  9  1  1  0  0  0
  8 10  1  0  0  0  0
 10 11  1  1  0  0  0
 10 12  1  0  0  0  0
 12 32  1  6  0  0  0
 13 17  2  0  0  0  0
 13 28  1  0  0  0  0
 17 18  1  0  0  0  0
 17 22  1  0  0  0  0
 22 26  2  0  0  0  0
 26 27  1  0  0  0  0
 26 32  1  0  0  0  0
 27 28  2  0  0  0  0
 27 30  1  0  0  0  0
 28 29  1  0  0  0  0
 30 31  2  0  0  0  0
 31 32  1  0  0  0  0
M  CHG  3  14  -1  15  -1  21  -1
M  END
>  <CHROM.1>
-47.52409581,-167.81229175,70.52680848,-58.33323029,-176.68893700,151.79515875
-161.02264716,-53.06192868,18.74350290,-22.19476807,-19.76223948,0.43688455
0.01911067,2.72626406

>  <Name>
ligand

>  <RI>
0

>  <Rbt.Current_Directory>
/home/itssahil/PROJECTS/Mol_Feturizer/New_Systems/rnas/4Y1I

>  <Rbt.Executable>
rbdock ($Id: //depot/dev/client3/rdock/2013.1/src/exe/rbdock.cxx#4 $)

>  <Rbt.Library>
libRbt.so (2013.1, Build901 2013/11/27)

>  <Rbt.Parameter_File>
/export/apps/rDock/src/rDock_2013.1_src/data/scripts/dock_solv.prm

>  <Rbt.Receptor>
prm/pocket_docking_8.prm

>  <SCORE>
-10.3098

>  <SCORE.INTER>
-3.30582

>  <SCORE.INTER.CONST>
1

>  <SCORE.INTER.POLAR>
0

>  <SCORE.INTER.ROT>
8

>  <SCORE.INTER.SOLV>
11.7619

>  <SCORE.INTER.VDW>
-15.0579

>  <SCORE.INTER.norm>
-0.103307

>  <SCORE.INTRA>
-7.00398

>  <SCORE.INTRA.DIHEDRAL>
-8.37511

>  <SCORE.INTRA.DIHEDRAL.0>
10.9594

>  <SCORE.INTRA.POLAR>
0

>  <SCORE.INTRA.POLAR.0>
0

>  <SCORE.INTRA.REPUL>
0

>  <SCORE.INTRA.REPUL.0>
0

>  <SCORE.INTRA.SOLV>
-2.86244

>  <SCORE.INTRA.SOLV.lig_0>
-124.914

>  <SCORE.INTRA.VDW>
-1.38521

>  <SCORE.INTRA.VDW.0>
-4.69801

>  <SCORE.INTRA.norm>
-0.218874

>  <SCORE.RESTR>
0

>  <SCORE.RESTR.CAVITY>
0

>  <SCORE.RESTR.norm>
0

>  <SCORE.SYSTEM>
0

>  <SCORE.SYSTEM.CONST>
0

>  <SCORE.SYSTEM.DIHEDRAL>
0

>  <SCORE.SYSTEM.SOLV>
0

>  <SCORE.SYSTEM.norm>
0

>  <SCORE.heavy>
32

>  <SCORE.norm>
-0.322181

>  <RMSD>
7.707

$$$$
ligand
 OpenBabel11021811513D
libRbt.so/2013.1/901 2013/11/27
 32 34  0  0  0  0  0  0  0  0999 V2000
   18.5093  -20.2590  -19.0520 P   0  0  1  0  0  0  0  0  0  0  0  0
   15.8852  -21.2658  -18.4765 P   0  0  2  0  0  0  0  0  0  0  0  0
   14.2005  -22.5909  -16.4712 P   0  0  1  0  0  0  0  0  0  0  0  0
   20.5284  -21.7766  -19.6939 C   0  0  0  0  0  0  0  0  0  0  0  0
   19.2305  -21.7340  -19.1728 O   0  0  0  0  0  0  0  0  0  0  0  0
   20.8521  -23.0868  -20.0284 C   0  0  1  0  0  0  0  0  0  0  0  0
   22.2825  -23.1539  -20.5276 O   0  0  0  0  0  0  0  0  0  0  0  0
   20.7891  -24.0456  -18.7522 C   0  0  1  0  0  0  0  0  0  0  0  0
   19.6856  -25.0619  -18.9409 O   0  0  0  0  0  0  0  0  0  0  0  0
   21.8568  -24.6628  -18.7363 C   0  0  1  0  0  0  0  0  0  0  0  0
   21.6685  -25.9873  -19.3751 O   0  0  0  0  0  0  0  0  0  0  0  0
   22.9400  -23.7542  -19.6166 C   0  0  2  0  0  0  0  0  0  0  0  0
   26.4084  -22.9853  -15.9066 N   0  0  0  0  0  0  0  0  0  0  0  0
   19.4765  -19.2637  -18.4603 O   0  5  0  0  0  0  0  0  0  0  0  0
   16.2766  -22.6849  -18.8043 O   0  5  0  0  0  0  0  0  0  0  0  0
   13.3732  -23.3615  -17.4733 O   0  0  0  0  0  0  0  0  0  0  0  0
   26.0253  -24.1334  -16.4430 C   0  0  0  0  0  0  0  0  0  0  0  0
   26.6166  -25.3701  -15.9736 N   0  0  0  0  0  0  0  0  0  0  0  0
   18.0601  -19.8240  -20.4286 O   0  0  0  0  0  0  0  0  0  0  0  0
   15.2569  -20.6238  -19.6856 O   0  0  0  0  0  0  0  0  0  0  0  0
   15.3356  -23.4669  -15.9878 O   0  5  0  0  0  0  0  0  0  0  0  0
   25.1179  -24.1913  -17.3964 N   0  0  0  0  0  0  0  0  0  0  0  0
   17.2100  -20.3927  -18.0557 O   0  0  0  0  0  0  0  0  0  0  0  0
   14.8110  -21.2568  -17.2307 O   0  0  0  0  0  0  0  0  0  0  0  0
   13.3180  -22.1856  -15.3110 O   0  0  0  0  0  0  0  0  0  0  0  0
   24.5471  -23.0721  -17.8582 C   0  0  0  0  0  0  0  0  0  0  0  0
   24.9282  -21.8615  -17.3158 C   0  0  0  0  0  0  0  0  0  0  0  0
   25.9007  -21.8238  -16.2980 C   0  0  0  0  0  0  0  0  0  0  0  0
   26.3096  -20.6060  -15.7265 O   0  0  0  0  0  0  0  0  0  0  0  0
   24.2237  -20.8997  -17.9360 N   0  0  0  0  0  0  0  0  0  0  0  0
   23.4408  -21.4893  -18.8228 C   0  0  0  0  0  0  0  0  0  0  0  0
   23.6196  -22.7966  -18.7886 N   0  0  0  0  0  0  0  0  0  0  0  0
  1  5  1  6  0  0  0
  1 14  1  0  0  0  0
  1 19  2  0  0  0  0
  1 23  1  0  0  0  0
  2 15  1  6  0  0  0
  2 20  2  0  0  0  0
  2 23  1  0  0  0  0
  2 24  1  0  0  0  0
  3 16  1  6  0  0  0
  3 21  1  0  0  0  0
  3 24  1  0  0  0  0
  3 25  2  0  0  0  0
  4  5  1  0  0  0  0
  6  4  1  1  0  0  0
  6  7  1  0  0  0  0
  6  8  1  0  0  0  0
  7 12  1  0  0  0  0
  8  9  1  6  0  0  0
  8 10  1  0  0  0  0
 10 11  1  6  0  0  0
 10 12  1  0  0  0  0
 12 32  1  1  0  0  0
 13 17  2  0  0  0  0
 13 28  1  0  0  0  0
 17 18  1  0  0  0  0
 17 22  1  0  0  0  0
 22 26  2  0  0  0  0
 26 27  1  0  0  0  0
 26 32  1  0  0  0  0
 27 28  2  0  0  0  0
 27 30  1  0  0  0  0
 28 29  1  0  0  0  0
 30 31  2  0  0  0  0
 31 32  1  0  0  0  0
M  CHG  3  14  -1  15  -1  21  -1
M  END
>  <CHROM.1>
-45.54354599,56.26550158,-64.79098556,-177.10123990,-165.52117408,-169.95068543
-67.45019122,-1.89386197,19.91629383,-22.34781761,-18.09018646,-3.02046671
-0.03000236,2.72597589

>  <Name>
ligand

>  <RI>
0

>  <Rbt.Current_Directory>
/home/itssahil/PROJECTS/Mol_Feturizer/New_Systems/rnas/4Y1I

>  <Rbt.Executable>
rbdock ($Id: //depot/dev/client3/rdock/2013.1/src/exe/rbdock.cxx#4 $)

>  <Rbt.Library>
libRbt.so (2013.1, Build901 2013/11/27)

>  <Rbt.Parameter_File>
/export/apps/rDock/src/rDock_2013.1_src/data/scripts/dock_solv.prm

>  <Rbt.Receptor>
prm/pocket_docking_8.prm

>  <SCORE>
-12.4706

>  <SCORE.INTER>
-8.42202

>  <SCORE.INTER.CONST>
1

>  <SCORE.INTER.POLAR>
0

>  <SCORE.INTER.ROT>
8

>  <SCORE.INTER.SOLV>
22.1751

>  <SCORE.INTER.VDW>
-21.9397

>  <SCORE.INTER.norm>
-0.263188

>  <SCORE.INTRA>
-4.04854

>  <SCORE.INTRA.DIHEDRAL>
-5.79425

>  <SCORE.INTRA.DIHEDRAL.0>
10.9594

>  <SCORE.INTRA.POLAR>
0

>  <SCORE.INTRA.POLAR.0>
0

>  <SCORE.INTRA.REPUL>
0

>  <SCORE.INTRA.REPUL.0>
0

>  <SCORE.INTRA.SOLV>
-3.9934

>  <SCORE.INTRA.SOLV.lig_0>
-124.914

>  <SCORE.INTRA.VDW>
0.845284

>  <SCORE.INTRA.VDW.0>
-4.69801

>  <SCORE.INTRA.norm>
-0.126517

>  <SCORE.RESTR>
0

>  <SCORE.RESTR.CAVITY>
0

>  <SCORE.RESTR.norm>
0

>  <SCORE.SYSTEM>
0

>  <SCORE.SYSTEM.CONST>
0

>  <SCORE.SYSTEM.DIHEDRAL>
0

>  <SCORE.SYSTEM.SOLV>
0

>  <SCORE.SYSTEM.norm>
0

>  <SCORE.heavy>
32

>  <SCORE.norm>
-0.389705

>  <RMSD>
7.737

$$$$
ligand
 OpenBabel11021811513D
libRbt.so/2013.1/901 2013/11/27
 32 34  0  0  0  0  0  0  0  0999 V2000
   15.9853  -25.4899  -17.9811 P   0  0  1  0  0  0  0  0  0  0  0  0
   18.2753  -23.8909  -18.6371 P   0  0  2  0  0  0  0  0  0  0  0  0
   17.8779  -21.0001  -18.9544 P   0  0  1  0  0  0  0  0  0  0  0  0
   15.9381  -26.5899  -15.6191 C   0  0  0  0  0  0  0  0  0  0  0  0
   16.5956  -26.5212  -16.8523 O   0  0  0  0  0  0  0  0  0  0  0  0
   16.6311  -27.4455  -14.7700 C   0  0  1  0  0  0  0  0  0  0  0  0
   15.9077  -27.5521  -13.4414 O   0  0  0  0  0  0  0  0  0  0  0  0
   16.6861  -28.9299  -15.3580 C   0  0  1  0  0  0  0  0  0  0  0  0
   18.1197  -29.2933  -15.6724 O   0  0  0  0  0  0  0  0  0  0  0  0
   16.3115  -29.6718  -14.4467 C   0  0  1  0  0  0  0  0  0  0  0  0
   17.4947  -30.2212  -13.7424 O   0  0  0  0  0  0  0  0  0  0  0  0
   15.4170  -28.7271  -13.4069 C   0  0  2  0  0  0  0  0  0  0  0  0
   11.9923  -29.2497  -17.1994 N   0  0  0  0  0  0  0  0  0  0  0  0
   16.1562  -26.0803  -19.3589 O   0  5  0  0  0  0  0  0  0  0  0  0
   18.1788  -24.2713  -20.0932 O   0  5  0  0  0  0  0  0  0  0  0  0
   18.6345  -19.7663  -18.5212 O   0  0  0  0  0  0  0  0  0  0  0  0
   13.3093  -29.3683  -17.2644 C   0  0  0  0  0  0  0  0  0  0  0  0
   13.9331  -29.6845  -18.5335 N   0  0  0  0  0  0  0  0  0  0  0  0
   14.5251  -25.2441  -17.6753 O   0  0  0  0  0  0  0  0  0  0  0  0
   19.2730  -24.7840  -17.9474 O   0  0  0  0  0  0  0  0  0  0  0  0
   17.7222  -20.9828  -20.4594 O   0  5  0  0  0  0  0  0  0  0  0  0
   14.0787  -29.2078  -16.2071 N   0  0  0  0  0  0  0  0  0  0  0  0
   16.8190  -24.0765  -17.9026 O   0  0  0  0  0  0  0  0  0  0  0  0
   18.7562  -22.3237  -18.5005 O   0  0  0  0  0  0  0  0  0  0  0  0
   16.5209  -21.0067  -18.2852 O   0  0  0  0  0  0  0  0  0  0  0  0
   13.5423  -28.9149  -15.0163 C   0  0  0  0  0  0  0  0  0  0  0  0
   12.1715  -28.7851  -14.9209 C   0  0  0  0  0  0  0  0  0  0  0  0
   11.3688  -28.9619  -16.0644 C   0  0  0  0  0  0  0  0  0  0  0  0
    9.9699  -28.8366  -15.9983 O   0  0  0  0  0  0  0  0  0  0  0  0
   11.8800  -28.4934  -13.6418 N   0  0  0  0  0  0  0  0  0  0  0  0
   13.0202  -28.4442  -12.9753 C   0  0  0  0  0  0  0  0  0  0  0  0
   14.0316  -28.6927  -13.7862 N   0  0  0  0  0  0  0  0  0  0  0  0
  1  5  1  1  0  0  0
  1 14  1  0  0  0  0
  1 19  2  0  0  0  0
  1 23  1  0  0  0  0
  2 15  1  6  0  0  0
  2 20  2  0  0  0  0
  2 23  1  0  0  0  0
  2 24  1  0  0  0  0
  3 16  1  1  0  0  0
  3 21  1  0  0  0  0
  3 24  1  0  0  0  0
  3 25  2  0  0  0  0
  4  5  1  0  0  0  0
  6  4  1  6  0  0  0
  6  7  1  0  0  0  0
  6  8  1  0  0  0  0
  7 12  1  0  0  0  0
  8  9  1  1  0  0  0
  8 10  1  0  0  0  0
 10 11  1  1  0  0  0
 10 12  1  0  0  0  0
 12 32  1  6  0  0  0
 13 17  2  0  0  0  0
 13 28  1  0  0  0  0
 17 18  1  0  0  0  0
 17 22  1  0  0  0  0
 22 26  2  0  0  0  0
 26 27  1  0  0  0  0
 26 32  1  0  0  0  0
 27 28  2  0  0  0  0
 27 30  1  0  0  0  0
 28 29  1  0  0  0  0
 30 31  2  0  0  0  0
 31 32  1  0  0  0  0
M  CHG  3  14  -1  15  -1  21  -1
M  END
>  <CHROM.1>
-144.84863540,53.17712594,174.23000863,-178.66403942,-176.57937141,95.03098736
81.54333540,67.19633598,15.83472674,-26.18020489,-16.82645850,1.06438261
-0.21599138,-0.63603917

>  <Name>
ligand

>  <RI>
0

>  <Rbt.Current_Directory>
/home/itssahil/PROJECTS/Mol_Feturizer/New_Systems/rnas/4Y1I

>  <Rbt.Executable>
rbdock ($Id: //depot/dev/client3/rdock/2013.1/src/exe/rbdock.cxx#4 $)

>  <Rbt.Library>
libRbt.so (2013.1, Build901 2013/11/27)

>  <Rbt.Parameter_File>
/export/apps/rDock/src/rDock_2013.1_src/data/scripts/dock_solv.prm

>  <Rbt.Receptor>
prm/pocket_docking_3.prm

>  <SCORE>
-3.47926

>  <SCORE.INTER>
1.28519

>  <SCORE.INTER.CONST>
1

>  <SCORE.INTER.POLAR>
0

>  <SCORE.INTER.ROT>
8

>  <SCORE.INTER.SOLV>
12.0847

>  <SCORE.INTER.VDW>
-12.1048

>  <SCORE.INTER.norm>
0.0401621

>  <SCORE.INTRA>
-4.76445

>  <SCORE.INTRA.DIHEDRAL>
-7.20367

>  <SCORE.INTRA.DIHEDRAL.0>
10.9594

>  <SCORE.INTRA.POLAR>
0

>  <SCORE.INTRA.POLAR.0>
0

>  <SCORE.INTRA.REPUL>
0

>  <SCORE.INTRA.REPUL.0>
0

>  <SCORE.INTRA.SOLV>
-2.82368

>  <SCORE.INTRA.SOLV.lig_0>
-124.914

>  <SCORE.INTRA.VDW>
0.249232

>  <SCORE.INTRA.VDW.0>
-4.69801

>  <SCORE.INTRA.norm>
-0.148889

>  <SCORE.RESTR>
0

>  <SCORE.RESTR.CAVITY>
0

>  <SCORE.RESTR.norm>
0

>  <SCORE.SYSTEM>
0

>  <SCORE.SYSTEM.CONST>
0

>  <SCORE.SYSTEM.DIHEDRAL>
0

>  <SCORE.SYSTEM.SOLV>
0

>  <SCORE.SYSTEM.norm>
0

>  <SCORE.heavy>
32

>  <SCORE.norm>
-0.108727

>  <RMSD>
7.742

$$$$
ligand
 OpenBabel11021811513D
libRbt.so/2013.1/901 2013/11/27
 32 34  0  0  0  0  0  0  0  0999 V2000
   16.7427  -21.5748  -18.6085 P   0  0  1  0  0  0  0  0  0  0  0  0
   18.5147  -19.8169  -20.0230 P   0  0  2  0  0  0  0  0  0  0  0  0
   17.6339  -18.3355  -22.3989 P   0  0  1  0  0  0  0  0  0  0  0  0
   18.6343  -23.3509  -18.8507 C   0  0  0  0  0  0  0  0  0  0  0  0
   17.5135  -22.9444  -18.1183 O   0  0  0  0  0  0  0  0  0  0  0  0
   19.3246  -24.3267  -18.1405 C   0  0  1  0  0  0  0  0  0  0  0  0
   18.3862  -25.4609  -17.7759 O   0  0  0  0  0  0  0  0  0  0  0  0
   20.4803  -24.9833  -19.0268 C   0  0  1  0  0  0  0  0  0  0  0  0
   21.8263  -24.6541  -18.4219 O   0  0  0  0  0  0  0  0  0  0  0  0
   20.3270  -26.2039  -18.9371 C   0  0  1  0  0  0  0  0  0  0  0  0
   21.2308  -26.7371  -17.8899 O   0  0  0  0  0  0  0  0  0  0  0  0
   18.7391  -26.4489  -18.4983 C   0  0  2  0  0  0  0  0  0  0  0  0
   14.0124  -25.7943  -20.3996 N   0  0  0  0  0  0  0  0  0  0  0  0
   16.1980  -21.7654  -20.0024 O   0  5  0  0  0  0  0  0  0  0  0  0
   19.0469  -20.9842  -20.8158 O   0  5  0  0  0  0  0  0  0  0  0  0
   18.7194  -17.2928  -22.2697 O   0  0  0  0  0  0  0  0  0  0  0  0
   14.4355  -25.5719  -19.1651 C   0  0  0  0  0  0  0  0  0  0  0  0
   13.5025  -25.0809  -18.1711 N   0  0  0  0  0  0  0  0  0  0  0  0
   15.6311  -21.2669  -17.6308 O   0  0  0  0  0  0  0  0  0  0  0  0
   19.6461  -18.8854  -19.6755 O   0  0  0  0  0  0  0  0  0  0  0  0
   18.0854  -19.4029  -23.3718 O   0  5  0  0  0  0  0  0  0  0  0  0
   15.6853  -25.7828  -18.8058 N   0  0  0  0  0  0  0  0  0  0  0  0
   17.8286  -20.3423  -18.6273 O   0  0  0  0  0  0  0  0  0  0  0  0
   17.3902  -19.0068  -20.9092 O   0  0  0  0  0  0  0  0  0  0  0  0
   16.3688  -17.6713  -22.8967 O   0  0  0  0  0  0  0  0  0  0  0  0
   16.5788  -26.2362  -19.6933 C   0  0  0  0  0  0  0  0  0  0  0  0
   16.1637  -26.4769  -20.9874 C   0  0  0  0  0  0  0  0  0  0  0  0
   14.8229  -26.2434  -21.3490 C   0  0  0  0  0  0  0  0  0  0  0  0
   14.3707  -26.4786  -22.6594 O   0  0  0  0  0  0  0  0  0  0  0  0
   17.2277  -26.9199  -21.6786 N   0  0  0  0  0  0  0  0  0  0  0  0
   18.2557  -26.9525  -20.8486 C   0  0  0  0  0  0  0  0  0  0  0  0
   17.8839  -26.5471  -19.6487 N   0  0  0  0  0  0  0  0  0  0  0  0
  1  5  1  1  0  0  0
  1 14  1  0  0  0  0
  1 19  2  0  0  0  0
  1 23  1  0  0  0  0
  2 15  1  6  0  0  0
  2 20  2  0  0  0  0
  2 23  1  0  0  0  0
  2 24  1  0  0  0  0
  3 16  1  1  0  0  0
  3 21  1  0  0  0  0
  3 24  1  0  0  0  0
  3 25  2  0  0  0  0
  4  5  1  0  0  0  0
  6  4  1  6  0  0  0
  6  7  1  0  0  0  0
  6  8  1  0  0  0  0
  7 12  1  0  0  0  0
  8  9  1  1  0  0  0
  8 10  1  0  0  0  0
 10 11  1  1  0  0  0
 10 12  1  0  0  0  0
 12 32  1  6  0  0  0
 13 17  2  0  0  0  0
 13 28  1  0  0  0  0
 17 18  1  0  0  0  0
 17 22  1  0  0  0  0
 22 26  2  0  0  0  0
 26 27  1  0  0  0  0
 26 32  1  0  0  0  0
 27 28  2  0  0  0  0
 27 30  1  0  0  0  0
 28 29  1  0  0  0  0
 30 31  2  0  0  0  0
 31 32  1  0  0  0  0
M  CHG  3  14  -1  15  -1  21  -1
M  END
>  <CHROM.1>
62.35275921,-48.95060556,-60.62614955,54.22895074,166.82574369,-33.65196922
101.18456017,-57.48853592,17.58515754,-22.90550266,-19.93948666,1.49646834
-0.39609340,-0.27684984

>  <Name>
ligand

>  <RI>
0

>  <Rbt.Current_Directory>
/home/itssahil/PROJECTS/Mol_Feturizer/New_Systems/rnas/4Y1I

>  <Rbt.Executable>
rbdock ($Id: //depot/dev/client3/rdock/2013.1/src/exe/rbdock.cxx#4 $)

>  <Rbt.Library>
libRbt.so (2013.1, Build901 2013/11/27)

>  <Rbt.Parameter_File>
/export/apps/rDock/src/rDock_2013.1_src/data/scripts/dock_solv.prm

>  <Rbt.Receptor>
prm/pocket_docking_7.prm

>  <SCORE>
-8.01743

>  <SCORE.INTER>
-2.31696

>  <SCORE.INTER.CONST>
1

>  <SCORE.INTER.POLAR>
0

>  <SCORE.INTER.ROT>
8

>  <SCORE.INTER.SOLV>
17.7117

>  <SCORE.INTER.VDW>
-16.3819

>  <SCORE.INTER.norm>
-0.072405

>  <SCORE.INTRA>
-5.70047

>  <SCORE.INTRA.DIHEDRAL>
-6.70099

>  <SCORE.INTRA.DIHEDRAL.0>
10.9594

>  <SCORE.INTRA.POLAR>
0

>  <SCORE.INTRA.POLAR.0>
0

>  <SCORE.INTRA.REPUL>
0

>  <SCORE.INTRA.REPUL.0>
0

>  <SCORE.INTRA.SOLV>
-3.43996

>  <SCORE.INTRA.SOLV.lig_0>
-124.914

>  <SCORE.INTRA.VDW>
-0.630003

>  <SCORE.INTRA.VDW.0>
-4.69801

>  <SCORE.INTRA.norm>
-0.17814

>  <SCORE.RESTR>
0

>  <SCORE.RESTR.CAVITY>
0

>  <SCORE.RESTR.norm>
0

>  <SCORE.SYSTEM>
0

>  <SCORE.SYSTEM.CONST>
0

>  <SCORE.SYSTEM.DIHEDRAL>
0

>  <SCORE.SYSTEM.SOLV>
0

>  <SCORE.SYSTEM.norm>
0

>  <SCORE.heavy>
32

>  <SCORE.norm>
-0.250545

>  <RMSD>
7.742

$$$$
ligand
 OpenBabel11021811513D
libRbt.so/2013.1/901 2013/11/27
 32 34  0  0  0  0  0  0  0  0999 V2000
   15.6855  -24.4747  -17.6854 P   0  0  1  0  0  0  0  0  0  0  0  0
   17.2194  -22.3820  -18.9097 P   0  0  2  0  0  0  0  0  0  0  0  0
   18.9678  -20.0649  -19.3450 P   0  0  1  0  0  0  0  0  0  0  0  0
   16.5195  -26.8861  -18.2155 C   0  0  0  0  0  0  0  0  0  0  0  0
   16.8919  -25.5681  -17.9287 O   0  0  0  0  0  0  0  0  0  0  0  0
   17.6464  -27.7005  -18.2033 C   0  0  1  0  0  0  0  0  0  0  0  0
   18.2775  -27.6882  -16.8244 O   0  0  0  0  0  0  0  0  0  0  0  0
   17.2664  -29.2242  -18.4965 C   0  0  1  0  0  0  0  0  0  0  0  0
   17.8899  -29.6550  -19.8049 O   0  0  0  0  0  0  0  0  0  0  0  0
   17.7978  -29.8864  -17.6019 C   0  0  1  0  0  0  0  0  0  0  0  0
   19.0917  -30.4216  -18.0890 O   0  0  0  0  0  0  0  0  0  0  0  0
   18.0553  -28.8413  -16.3310 C   0  0  2  0  0  0  0  0  0  0  0  0
   13.1321  -30.1139  -15.6049 N   0  0  0  0  0  0  0  0  0  0  0  0
   14.6929  -24.5474  -18.8193 O   0  5  0  0  0  0  0  0  0  0  0  0
   16.3589  -22.2803  -20.1440 O   0  5  0  0  0  0  0  0  0  0  0  0
   19.4294  -18.9167  -18.4784 O   0  0  0  0  0  0  0  0  0  0  0  0
   13.8959  -30.3672  -16.6561 C   0  0  0  0  0  0  0  0  0  0  0  0
   13.3398  -31.0909  -17.7815 N   0  0  0  0  0  0  0  0  0  0  0  0
   15.0181  -24.7745  -16.3622 O   0  0  0  0  0  0  0  0  0  0  0  0
   18.3666  -23.3224  -19.1706 O   0  0  0  0  0  0  0  0  0  0  0  0
   20.1428  -20.9749  -19.6291 O   0  5  0  0  0  0  0  0  0  0  0  0
   15.1542  -29.9812  -16.7152 N   0  0  0  0  0  0  0  0  0  0  0  0
   16.3433  -22.9697  -17.6520 O   0  0  0  0  0  0  0  0  0  0  0  0
   17.8067  -20.8970  -18.5150 O   0  0  0  0  0  0  0  0  0  0  0  0
   18.4058  -19.5127  -20.6368 O   0  0  0  0  0  0  0  0  0  0  0  0
   15.7062  -29.3101  -15.6971 C   0  0  0  0  0  0  0  0  0  0  0  0
   14.9315  -29.0325  -14.5890 C   0  0  0  0  0  0  0  0  0  0  0  0
   13.5890  -29.4557  -14.5476 C   0  0  0  0  0  0  0  0  0  0  0  0
   12.7754  -29.1883  -13.4325 O   0  0  0  0  0  0  0  0  0  0  0  0
   15.7000  -28.3598  -13.7154 N   0  0  0  0  0  0  0  0  0  0  0  0
   16.8971  -28.2266  -14.2593 C   0  0  0  0  0  0  0  0  0  0  0  0
   16.9192  -28.7898  -15.4529 N   0  0  0  0  0  0  0  0  0  0  0  0
  1  5  1  6  0  0  0
  1 14  1  0  0  0  0
  1 19  2  0  0  0  0
  1 23  1  0  0  0  0
  2 15  1  6  0  0  0
  2 20  2  0  0  0  0
  2 23  1  0  0  0  0
  2 24  1  0  0  0  0
  3 16  1  1  0  0  0
  3 21  1  0  0  0  0
  3 24  1  0  0  0  0
  3 25  2  0  0  0  0
  4  5  1  0  0  0  0
  6  4  1  1  0  0  0
  6  7  1  0  0  0  0
  6  8  1  0  0  0  0
  7 12  1  0  0  0  0
  8  9  1  6  0  0  0
  8 10  1  0  0  0  0
 10 11  1  6  0  0  0
 10 12  1  0  0  0  0
 12 32  1  1  0  0  0
 13 17  2  0  0  0  0
 13 28  1  0  0  0  0
 17 18  1  0  0  0  0
 17 22  1  0  0  0  0
 22 26  2  0  0  0  0
 26 27  1  0  0  0  0
 26 32  1  0  0  0  0
 27 28  2  0  0  0  0
 27 30  1  0  0  0  0
 28 29  1  0  0  0  0
 30 31  2  0  0  0  0
 31 32  1  0  0  0  0
M  CHG  3  14  -1  15  -1  21  -1
M  END
>  <CHROM.1>
-50.52762856,62.71022231,-167.13354728,61.82117229,-171.67649157,108.14162923
57.44388170,-71.44907927,16.69137586,-25.80934501,-17.57055074,1.18810818
0.62976888,-0.12087742

>  <Name>
ligand

>  <RI>
0

>  <Rbt.Current_Directory>
/home/itssahil/PROJECTS/Mol_Feturizer/New_Systems/rnas/4Y1I

>  <Rbt.Executable>
rbdock ($Id: //depot/dev/client3/rdock/2013.1/src/exe/rbdock.cxx#4 $)

>  <Rbt.Library>
libRbt.so (2013.1, Build901 2013/11/27)

>  <Rbt.Parameter_File>
/export/apps/rDock/src/rDock_2013.1_src/data/scripts/dock_solv.prm

>  <Rbt.Receptor>
prm/pocket_docking_3.prm

>  <SCORE>
-3.72657

>  <SCORE.INTER>
1.53729

>  <SCORE.INTER.CONST>
1

>  <SCORE.INTER.POLAR>
0

>  <SCORE.INTER.ROT>
8

>  <SCORE.INTER.SOLV>
10.0859

>  <SCORE.INTER.VDW>
-11.2705

>  <SCORE.INTER.norm>
0.0480402

>  <SCORE.INTRA>
-5.26385

>  <SCORE.INTRA.DIHEDRAL>
-8.69945

>  <SCORE.INTRA.DIHEDRAL.0>
10.9594

>  <SCORE.INTRA.POLAR>
0

>  <SCORE.INTRA.POLAR.0>
0

>  <SCORE.INTRA.REPUL>
0

>  <SCORE.INTRA.REPUL.0>
0

>  <SCORE.INTRA.SOLV>
-2.00387

>  <SCORE.INTRA.SOLV.lig_0>
-124.914

>  <SCORE.INTRA.VDW>
0.0878071

>  <SCORE.INTRA.VDW.0>
-4.69801

>  <SCORE.INTRA.norm>
-0.164495

>  <SCORE.RESTR>
0

>  <SCORE.RESTR.CAVITY>
0

>  <SCORE.RESTR.norm>
0

>  <SCORE.SYSTEM>
0

>  <SCORE.SYSTEM.CONST>
0

>  <SCORE.SYSTEM.DIHEDRAL>
0

>  <SCORE.SYSTEM.SOLV>
0

>  <SCORE.SYSTEM.norm>
0

>  <SCORE.heavy>
32

>  <SCORE.norm>
-0.116455

>  <RMSD>
7.862

$$$$
ligand
 OpenBabel11021811513D
libRbt.so/2013.1/901 2013/11/27
 32 34  0  0  0  0  0  0  0  0999 V2000
   19.2625  -24.9443  -18.4214 P   0  0  1  0  0  0  0  0  0  0  0  0
   22.0711  -24.6110  -18.9023 P   0  0  2  0  0  0  0  0  0  0  0  0
   24.9130  -23.9579  -18.5666 P   0  0  1  0  0  0  0  0  0  0  0  0
   17.7639  -23.4200  -19.9122 C   0  0  0  0  0  0  0  0  0  0  0  0
   19.0105  -23.5719  -19.2950 O   0  0  0  0  0  0  0  0  0  0  0  0
   16.8091  -23.0919  -18.9562 C   0  0  1  0  0  0  0  0  0  0  0  0
   17.2390  -21.8480  -18.2026 O   0  0  0  0  0  0  0  0  0  0  0  0
   15.4080  -22.7304  -19.6333 C   0  0  1  0  0  0  0  0  0  0  0  0
   14.3742  -23.7567  -19.2284 O   0  0  0  0  0  0  0  0  0  0  0  0
   15.0626  -21.6509  -19.1469 C   0  0  1  0  0  0  0  0  0  0  0  0
   14.1245  -21.8950  -18.0251 O   0  0  0  0  0  0  0  0  0  0  0  0
   16.4498  -20.9228  -18.5817 C   0  0  2  0  0  0  0  0  0  0  0  0
   15.7917  -17.6787  -22.5095 N   0  0  0  0  0  0  0  0  0  0  0  0
   18.3447  -24.9642  -17.2241 O   0  5  0  0  0  0  0  0  0  0  0  0
   21.8402  -23.2927  -19.5973 O   0  5  0  0  0  0  0  0  0  0  0  0
   25.2649  -24.6783  -19.8471 O   0  0  0  0  0  0  0  0  0  0  0  0
   14.8649  -18.2495  -21.7559 C   0  0  0  0  0  0  0  0  0  0  0  0
   13.4668  -17.9697  -22.0141 N   0  0  0  0  0  0  0  0  0  0  0  0
   19.0143  -26.1399  -19.3131 O   0  0  0  0  0  0  0  0  0  0  0  0
   22.1706  -25.7107  -19.9267 O   0  0  0  0  0  0  0  0  0  0  0  0
   24.7891  -22.4766  -18.8494 O   0  5  0  0  0  0  0  0  0  0  0  0
   15.1718  -19.0695  -20.7715 N   0  0  0  0  0  0  0  0  0  0  0  0
   20.8191  -24.9512  -17.8966 O   0  0  0  0  0  0  0  0  0  0  0  0
   23.4649  -24.5458  -18.0310 O   0  0  0  0  0  0  0  0  0  0  0  0
   26.0002  -24.2093  -17.5447 O   0  0  0  0  0  0  0  0  0  0  0  0
   16.4511  -19.3546  -20.5002 C   0  0  0  0  0  0  0  0  0  0  0  0
   17.4373  -18.7732  -21.2711 C   0  0  0  0  0  0  0  0  0  0  0  0
   17.0858  -17.8991  -22.3177 C   0  0  0  0  0  0  0  0  0  0  0  0
   18.0679  -17.2914  -23.1197 O   0  0  0  0  0  0  0  0  0  0  0  0
   18.6220  -19.2088  -20.8097 N   0  0  0  0  0  0  0  0  0  0  0  0
   18.3794  -20.0242  -19.7982 C   0  0  0  0  0  0  0  0  0  0  0  0
   17.0786  -20.1264  -19.5988 N   0  0  0  0  0  0  0  0  0  0  0  0
  1  5  1  6  0  0  0
  1 14  1  0  0  0  0
  1 19  2  0  0  0  0
  1 23  1  0  0  0  0
  2 15  1  6  0  0  0
  2 20  2  0  0  0  0
  2 23  1  0  0  0  0
  2 24  1  0  0  0  0
  3 16  1  6  0  0  0
  3 21  1  0  0  0  0
  3 24  1  0  0  0  0
  3 25  2  0  0  0  0
  4  5  1  0  0  0  0
  6  4  1  6  0  0  0
  6  7  1  0  0  0  0
  6  8  1  0  0  0  0
  7 12  1  0  0  0  0
  8  9  1  1  0  0  0
  8 10  1  0  0  0  0
 10 11  1  1  0  0  0
 10 12  1  0  0  0  0
 12 32  1  6  0  0  0
 13 17  2  0  0  0  0
 13 28  1  0  0  0  0
 17 18  1  0  0  0  0
 17 22  1  0  0  0  0
 22 26  2  0  0  0  0
 26 27  1  0  0  0  0
 26 32  1  0  0  0  0
 27 28  2  0  0  0  0
 27 30  1  0  0  0  0
 28 29  1  0  0  0  0
 30 31  2  0  0  0  0
 31 32  1  0  0  0  0
M  CHG  3  14  -1  15  -1  21  -1
M  END
>  <CHROM.1>
-65.45891578,53.14089780,-54.17792312,55.92988988,74.95604896,158.32660674
-47.12956952,-46.54684127,19.13239755,-22.36475000,-19.51049094,0.60104688
-0.05445402,2.65464719

>  <Name>
ligand

>  <RI>
0

>  <Rbt.Current_Directory>
/home/itssahil/PROJECTS/Mol_Feturizer/New_Systems/rnas/4Y1I

>  <Rbt.Executable>
rbdock ($Id: //depot/dev/client3/rdock/2013.1/src/exe/rbdock.cxx#4 $)

>  <Rbt.Library>
libRbt.so (2013.1, Build901 2013/11/27)

>  <Rbt.Parameter_File>
/export/apps/rDock/src/rDock_2013.1_src/data/scripts/dock_solv.prm

>  <Rbt.Receptor>
prm/pocket_docking_6.prm

>  <SCORE>
-10.467

>  <SCORE.INTER>
-5.68482

>  <SCORE.INTER.CONST>
1

>  <SCORE.INTER.POLAR>
0

>  <SCORE.INTER.ROT>
8

>  <SCORE.INTER.SOLV>
12.9501

>  <SCORE.INTER.VDW>
-17.0399

>  <SCORE.INTER.norm>
-0.177651

>  <SCORE.INTRA>
-4.78217

>  <SCORE.INTRA.DIHEDRAL>
-7.95829

>  <SCORE.INTRA.DIHEDRAL.0>
10.9594

>  <SCORE.INTRA.POLAR>
0

>  <SCORE.INTRA.POLAR.0>
0

>  <SCORE.INTRA.REPUL>
0

>  <SCORE.INTRA.REPUL.0>
0

>  <SCORE.INTRA.SOLV>
-2.07322

>  <SCORE.INTRA.SOLV.lig_0>
-124.914

>  <SCORE.INTRA.VDW>
0.233588

>  <SCORE.INTRA.VDW.0>
-4.69801

>  <SCORE.INTRA.norm>
-0.149443

>  <SCORE.RESTR>
0

>  <SCORE.RESTR.CAVITY>
0

>  <SCORE.RESTR.norm>
0

>  <SCORE.SYSTEM>
0

>  <SCORE.SYSTEM.CONST>
0

>  <SCORE.SYSTEM.DIHEDRAL>
0

>  <SCORE.SYSTEM.SOLV>
0

>  <SCORE.SYSTEM.norm>
0

>  <SCORE.heavy>
32

>  <SCORE.norm>
-0.327093

>  <RMSD>
7.866

$$$$
ligand
 OpenBabel11021811513D
libRbt.so/2013.1/901 2013/11/27
 32 34  0  0  0  0  0  0  0  0999 V2000
   19.4824  -22.7438  -19.2417 P   0  0  1  0  0  0  0  0  0  0  0  0
   16.7988  -21.8445  -18.7718 P   0  0  2  0  0  0  0  0  0  0  0  0
   16.0596  -20.2653  -21.1330 P   0  0  1  0  0  0  0  0  0  0  0  0
   20.5538  -24.8893  -18.2216 C   0  0  0  0  0  0  0  0  0  0  0  0
   19.6494  -23.8399  -18.0247 O   0  0  0  0  0  0  0  0  0  0  0  0
   19.9569  -25.8780  -18.9958 C   0  0  1  0  0  0  0  0  0  0  0  0
   21.0213  -26.7735  -19.6001 O   0  0  0  0  0  0  0  0  0  0  0  0
   19.0338  -26.8335  -18.1088 C   0  0  1  0  0  0  0  0  0  0  0  0
   17.5919  -26.6778  -18.5362 O   0  0  0  0  0  0  0  0  0  0  0  0
   19.3745  -27.9869  -18.3826 C   0  0  1  0  0  0  0  0  0  0  0  0
   18.4571  -28.5402  -19.4074 O   0  0  0  0  0  0  0  0  0  0  0  0
   20.9205  -27.8895  -18.9944 C   0  0  2  0  0  0  0  0  0  0  0  0
   25.1634  -25.8635  -16.9261 N   0  0  0  0  0  0  0  0  0  0  0  0
   20.8128  -22.0936  -19.5306 O   0  5  0  0  0  0  0  0  0  0  0  0
   16.1060  -20.8556  -17.8684 O   0  5  0  0  0  0  0  0  0  0  0  0
   15.2106  -19.3399  -20.2933 O   0  0  0  0  0  0  0  0  0  0  0  0
   24.4984  -25.4535  -17.9949 C   0  0  0  0  0  0  0  0  0  0  0  0
   24.9690  -24.2927  -18.7234 N   0  0  0  0  0  0  0  0  0  0  0  0
   18.9505  -23.4545  -20.4657 O   0  0  0  0  0  0  0  0  0  0  0  0
   16.5366  -23.2447  -18.2824 O   0  0  0  0  0  0  0  0  0  0  0  0
   17.4162  -19.6317  -21.3512 O   0  5  0  0  0  0  0  0  0  0  0  0
   23.4150  -26.0689  -18.4228 N   0  0  0  0  0  0  0  0  0  0  0  0
   18.4200  -21.5868  -18.7607 O   0  0  0  0  0  0  0  0  0  0  0  0
   16.2347  -21.6865  -20.3089 O   0  0  0  0  0  0  0  0  0  0  0  0
   15.3694  -20.5004  -22.4588 O   0  0  0  0  0  0  0  0  0  0  0  0
   22.9472  -27.1450  -17.7787 C   0  0  0  0  0  0  0  0  0  0  0  0
   23.6221  -27.5937  -16.6614 C   0  0  0  0  0  0  0  0  0  0  0  0
   24.7776  -26.9195  -16.2219 C   0  0  0  0  0  0  0  0  0  0  0  0
   25.4859  -27.3525  -15.0871 O   0  0  0  0  0  0  0  0  0  0  0  0
   22.9669  -28.6717  -16.1978 N   0  0  0  0  0  0  0  0  0  0  0  0
   21.9325  -28.8810  -16.9936 C   0  0  0  0  0  0  0  0  0  0  0  0
   21.9057  -27.9740  -17.9521 N   0  0  0  0  0  0  0  0  0  0  0  0
  1  5  1  1  0  0  0
  1 14  1  0  0  0  0
  1 19  2  0  0  0  0
  1 23  1  0  0  0  0
  2 15  1  1  0  0  0
  2 20  2  0  0  0  0
  2 23  1  0  0  0  0
  2 24  1  0  0  0  0
  3 16  1  1  0  0  0
  3 21  1  0  0  0  0
  3 24  1  0  0  0  0
  3 25  2  0  0  0  0
  4  5  1  0  0  0  0
  6  4  1  1  0  0  0
  6  7  1  0  0  0  0
  6  8  1  0  0  0  0
  7 12  1  0  0  0  0
  8  9  1  6  0  0  0
  8 10  1  0  0  0  0
 10 11  1  6  0  0  0
 10 12  1  0  0  0  0
 12 32  1  1  0  0  0
 13 17  2  0  0  0  0
 13 28  1  0  0  0  0
 17 18  1  0  0  0  0
 17 22  1  0  0  0  0
 22 26  2  0  0  0  0
 26 27  1  0  0  0  0
 26 32  1  0  0  0  0
 27 28  2  0  0  0  0
 27 30  1  0  0  0  0
 28 29  1  0  0  0  0
 30 31  2  0  0  0  0
 31 32  1  0  0  0  0
M  CHG  3  14  -1  15  -1  21  -1
M  END
>  <CHROM.1>
-59.00321012,160.51430871,-54.41599403,161.16496162,-80.66060121,-11.88719162
-78.07013301,47.79751096,19.74463986,-24.31301732,-18.78985596,-2.37030803
0.25073926,2.95352511

>  <Name>
ligand

>  <RI>
0

>  <Rbt.Current_Directory>
/home/itssahil/PROJECTS/Mol_Feturizer/New_Systems/rnas/4Y1I

>  <Rbt.Executable>
rbdock ($Id: //depot/dev/client3/rdock/2013.1/src/exe/rbdock.cxx#4 $)

>  <Rbt.Library>
libRbt.so (2013.1, Build901 2013/11/27)

>  <Rbt.Parameter_File>
/export/apps/rDock/src/rDock_2013.1_src/data/scripts/dock_solv.prm

>  <Rbt.Receptor>
prm/pocket_docking_6.prm

>  <SCORE>
-4.85111

>  <SCORE.INTER>
-0.889195

>  <SCORE.INTER.CONST>
1

>  <SCORE.INTER.POLAR>
0

>  <SCORE.INTER.ROT>
8

>  <SCORE.INTER.SOLV>
15.9164

>  <SCORE.INTER.VDW>
-14.8316

>  <SCORE.INTER.norm>
-0.0277873

>  <SCORE.INTRA>
-3.96191

>  <SCORE.INTRA.DIHEDRAL>
-5.29137

>  <SCORE.INTRA.DIHEDRAL.0>
10.9594

>  <SCORE.INTRA.POLAR>
0

>  <SCORE.INTRA.POLAR.0>
0

>  <SCORE.INTRA.REPUL>
0

>  <SCORE.INTRA.REPUL.0>
0

>  <SCORE.INTRA.SOLV>
-1.87746

>  <SCORE.INTRA.SOLV.lig_0>
-124.914

>  <SCORE.INTRA.VDW>
-0.377498

>  <SCORE.INTRA.VDW.0>
-4.69801

>  <SCORE.INTRA.norm>
-0.12381

>  <SCORE.RESTR>
0

>  <SCORE.RESTR.CAVITY>
0

>  <SCORE.RESTR.norm>
0

>  <SCORE.SYSTEM>
0

>  <SCORE.SYSTEM.CONST>
0

>  <SCORE.SYSTEM.DIHEDRAL>
0

>  <SCORE.SYSTEM.SOLV>
0

>  <SCORE.SYSTEM.norm>
0

>  <SCORE.heavy>
32

>  <SCORE.norm>
-0.151597

>  <RMSD>
7.868

$$$$
ligand
 OpenBabel11021811513D
libRbt.so/2013.1/901 2013/11/27
 32 34  0  0  0  0  0  0  0  0999 V2000
   16.6800  -21.7006  -18.8427 P   0  0  1  0  0  0  0  0  0  0  0  0
   18.9015  -19.9184  -19.1889 P   0  0  2  0  0  0  0  0  0  0  0  0
   18.8908  -18.7030  -21.8606 P   0  0  1  0  0  0  0  0  0  0  0  0
   17.8162  -22.3679  -21.0910 C   0  0  0  0  0  0  0  0  0  0  0  0
   17.4633  -22.7846  -19.8027 O   0  0  0  0  0  0  0  0  0  0  0  0
   18.3437  -23.4423  -21.7987 C   0  0  1  0  0  0  0  0  0  0  0  0
   19.5691  -23.9792  -21.0846 O   0  0  0  0  0  0  0  0  0  0  0  0
   17.3096  -24.6581  -21.8667 C   0  0  1  0  0  0  0  0  0  0  0  0
   16.8920  -24.8832  -23.3024 O   0  0  0  0  0  0  0  0  0  0  0  0
   17.9349  -25.6582  -21.5060 C   0  0  1  0  0  0  0  0  0  0  0  0
   18.4227  -26.3899  -22.6995 O   0  0  0  0  0  0  0  0  0  0  0  0
   19.2252  -25.1090  -20.6074 C   0  0  2  0  0  0  0  0  0  0  0  0
   15.6178  -25.7205  -17.0020 N   0  0  0  0  0  0  0  0  0  0  0  0
   15.6721  -20.9295  -19.6585 O   0  5  0  0  0  0  0  0  0  0  0  0
   19.9296  -20.9202  -19.6512 O   0  5  0  0  0  0  0  0  0  0  0  0
   19.3911  -19.9018  -22.6320 O   0  0  0  0  0  0  0  0  0  0  0  0
   15.5348  -25.9880  -18.2960 C   0  0  0  0  0  0  0  0  0  0  0  0
   14.3003  -26.5233  -18.8337 N   0  0  0  0  0  0  0  0  0  0  0  0
   16.0047  -22.4492  -17.7158 O   0  0  0  0  0  0  0  0  0  0  0  0
   19.5766  -18.8351  -18.3892 O   0  0  0  0  0  0  0  0  0  0  0  0
   17.8953  -17.9460  -22.7123 O   0  5  0  0  0  0  0  0  0  0  0  0
   16.5433  -25.7828  -19.1184 N   0  0  0  0  0  0  0  0  0  0  0  0
   17.7848  -20.6489  -18.2328 O   0  0  0  0  0  0  0  0  0  0  0  0
   18.1484  -19.2507  -20.4901 O   0  0  0  0  0  0  0  0  0  0  0  0
   20.0659  -17.8161  -21.5112 O   0  0  0  0  0  0  0  0  0  0  0  0
   17.7009  -25.2894  -18.6622 C   0  0  0  0  0  0  0  0  0  0  0  0
   17.8140  -25.0014  -17.3170 C   0  0  0  0  0  0  0  0  0  0  0  0
   16.7230  -25.2296  -16.4565 C   0  0  0  0  0  0  0  0  0  0  0  0
   16.8083  -24.9466  -15.0819 O   0  0  0  0  0  0  0  0  0  0  0  0
   19.0530  -24.5249  -17.1074 N   0  0  0  0  0  0  0  0  0  0  0  0
   19.6787  -24.5178  -18.2716 C   0  0  0  0  0  0  0  0  0  0  0  0
   18.8801  -24.9719  -19.2194 N   0  0  0  0  0  0  0  0  0  0  0  0
  1  5  1  6  0  0  0
  1 14  1  0  0  0  0
  1 19  2  0  0  0  0
  1 23  1  0  0  0  0
  2 15  1  6  0  0  0
  2 20  2  0  0  0  0
  2 23  1  0  0  0  0
  2 24  1  0  0  0  0
  3 16  1  6  0  0  0
  3 21  1  0  0  0  0
  3 24  1  0  0  0  0
  3 25  2  0  0  0  0
  4  5  1  0  0  0  0
  6  4  1  1  0  0  0
  6  7  1  0  0  0  0
  6  8  1  0  0  0  0
  7 12  1  0  0  0  0
  8  9  1  6  0  0  0
  8 10  1  0  0  0  0
 10 11  1  6  0  0  0
 10 12  1  0  0  0  0
 12 32  1  1  0  0  0
 13 17  2  0  0  0  0
 13 28  1  0  0  0  0
 17 18  1  0  0  0  0
 17 22  1  0  0  0  0
 22 26  2  0  0  0  0
 26 27  1  0  0  0  0
 26 32  1  0  0  0  0
 27 28  2  0  0  0  0
 27 30  1  0  0  0  0
 28 29  1  0  0  0  0
 30 31  2  0  0  0  0
 31 32  1  0  0  0  0
M  CHG  3  14  -1  15  -1  21  -1
M  END
>  <CHROM.1>
40.18561365,-70.75061463,71.02868221,-59.56606166,-174.12347841,121.87465304
48.17400544,-45.05968498,17.88208392,-22.59951278,-19.76694531,0.43804461
1.25886806,0.73123325

>  <Name>
ligand

>  <RI>
0

>  <Rbt.Current_Directory>
/home/itssahil/PROJECTS/Mol_Feturizer/New_Systems/rnas/4Y1I

>  <Rbt.Executable>
rbdock ($Id: //depot/dev/client3/rdock/2013.1/src/exe/rbdock.cxx#4 $)

>  <Rbt.Library>
libRbt.so (2013.1, Build901 2013/11/27)

>  <Rbt.Parameter_File>
/export/apps/rDock/src/rDock_2013.1_src/data/scripts/dock_solv.prm

>  <Rbt.Receptor>
prm/pocket_docking_5.prm

>  <SCORE>
-7.85671

>  <SCORE.INTER>
-0.883832

>  <SCORE.INTER.CONST>
1

>  <SCORE.INTER.POLAR>
0

>  <SCORE.INTER.ROT>
8

>  <SCORE.INTER.SOLV>
20.2968

>  <SCORE.INTER.VDW>
-16.2882

>  <SCORE.INTER.norm>
-0.0276198

>  <SCORE.INTRA>
-6.97288

>  <SCORE.INTRA.DIHEDRAL>
-8.08943

>  <SCORE.INTRA.DIHEDRAL.0>
10.9594

>  <SCORE.INTRA.POLAR>
0

>  <SCORE.INTRA.POLAR.0>
0

>  <SCORE.INTRA.REPUL>
0

>  <SCORE.INTRA.REPUL.0>
0

>  <SCORE.INTRA.SOLV>
-0.685735

>  <SCORE.INTRA.SOLV.lig_0>
-124.914

>  <SCORE.INTRA.VDW>
-2.58529

>  <SCORE.INTRA.VDW.0>
-4.69801

>  <SCORE.INTRA.norm>
-0.217902

>  <SCORE.RESTR>
0

>  <SCORE.RESTR.CAVITY>
0

>  <SCORE.RESTR.norm>
0

>  <SCORE.SYSTEM>
0

>  <SCORE.SYSTEM.CONST>
0

>  <SCORE.SYSTEM.DIHEDRAL>
0

>  <SCORE.SYSTEM.SOLV>
0

>  <SCORE.SYSTEM.norm>
0

>  <SCORE.heavy>
32

>  <SCORE.norm>
-0.245522

>  <RMSD>
7.872

$$$$
ligand
 OpenBabel11021811513D
libRbt.so/2013.1/901 2013/11/27
 32 34  0  0  0  0  0  0  0  0999 V2000
   15.9287  -21.7582  -18.1556 P   0  0  1  0  0  0  0  0  0  0  0  0
   18.2034  -20.2023  -18.9529 P   0  0  2  0  0  0  0  0  0  0  0  0
   20.1821  -22.1117  -19.9796 P   0  0  1  0  0  0  0  0  0  0  0  0
   16.1876  -24.2455  -17.4225 C   0  0  0  0  0  0  0  0  0  0  0  0
   16.8493  -23.0870  -17.8441 O   0  0  0  0  0  0  0  0  0  0  0  0
   17.1182  -25.1719  -16.9653 C   0  0  1  0  0  0  0  0  0  0  0  0
   16.4148  -26.2747  -16.1979 O   0  0  0  0  0  0  0  0  0  0  0  0
   17.8664  -25.8925  -18.1790 C   0  0  1  0  0  0  0  0  0  0  0  0
   19.3332  -25.5265  -18.1538 O   0  0  0  0  0  0  0  0  0  0  0  0
   17.7871  -27.1034  -17.9578 C   0  0  1  0  0  0  0  0  0  0  0  0
   19.0328  -27.5654  -17.2999 O   0  0  0  0  0  0  0  0  0  0  0  0
   16.4904  -27.3118  -16.9336 C   0  0  2  0  0  0  0  0  0  0  0  0
   11.4807  -28.4237  -16.7056 N   0  0  0  0  0  0  0  0  0  0  0  0
   15.3902  -21.8274  -19.5632 O   0  5  0  0  0  0  0  0  0  0  0  0
   18.9341  -18.9496  -18.5389 O   0  5  0  0  0  0  0  0  0  0  0  0
   19.3073  -22.6576  -21.0837 O   0  0  0  0  0  0  0  0  0  0  0  0
   12.3512  -28.3626  -15.7100 C   0  0  0  0  0  0  0  0  0  0  0  0
   11.9051  -28.6314  -14.3578 N   0  0  0  0  0  0  0  0  0  0  0  0
   14.8027  -21.7005  -17.1480 O   0  0  0  0  0  0  0  0  0  0  0  0
   17.7579  -20.0760  -20.3862 O   0  0  0  0  0  0  0  0  0  0  0  0
   21.0520  -21.0064  -20.5374 O   0  5  0  0  0  0  0  0  0  0  0  0
   13.6190  -28.0634  -15.9072 N   0  0  0  0  0  0  0  0  0  0  0  0
   16.8746  -20.4224  -18.0146 O   0  0  0  0  0  0  0  0  0  0  0  0
   19.1973  -21.5042  -18.8005 O   0  0  0  0  0  0  0  0  0  0  0  0
   21.0405  -23.2309  -19.4318 O   0  0  0  0  0  0  0  0  0  0  0  0
   14.0717  -27.8086  -17.1408 C   0  0  0  0  0  0  0  0  0  0  0  0
   13.1850  -27.8660  -18.1969 C   0  0  0  0  0  0  0  0  0  0  0  0
   11.8341  -28.1870  -17.9622 C   0  0  0  0  0  0  0  0  0  0  0  0
   10.9073  -28.2526  -19.0176 O   0  0  0  0  0  0  0  0  0  0  0  0
   13.8690  -27.5754  -19.3167 N   0  0  0  0  0  0  0  0  0  0  0  0
   15.1237  -27.3488  -18.9687 C   0  0  0  0  0  0  0  0  0  0  0  0
   15.2654  -27.4870  -17.6637 N   0  0  0  0  0  0  0  0  0  0  0  0
  1  5  1  1  0  0  0
  1 14  1  0  0  0  0
  1 19  2  0  0  0  0
  1 23  1  0  0  0  0
  2 15  1  1  0  0  0
  2 20  2  0  0  0  0
  2 23  1  0  0  0  0
  2 24  1  0  0  0  0
  3 16  1  6  0  0  0
  3 21  1  0  0  0  0
  3 24  1  0  0  0  0
  3 25  2  0  0  0  0
  4  5  1  0  0  0  0
  6  4  1  6  0  0  0
  6  7  1  0  0  0  0
  6  8  1  0  0  0  0
  7 12  1  0  0  0  0
  8  9  1  1  0  0  0
  8 10  1  0  0  0  0
 10 11  1  1  0  0  0
 10 12  1  0  0  0  0
 12 32  1  6  0  0  0
 13 17  2  0  0  0  0
 13 28  1  0  0  0  0
 17 18  1  0  0  0  0
 17 22  1  0  0  0  0
 22 26  2  0  0  0  0
 26 27  1  0  0  0  0
 26 32  1  0  0  0  0
 27 28  2  0  0  0  0
 27 30  1  0  0  0  0
 28 29  1  0  0  0  0
 30 31  2  0  0  0  0
 31 32  1  0  0  0  0
M  CHG  3  14  -1  15  -1  21  -1
M  END
>  <CHROM.1>
-84.36971808,-175.74723148,-66.09404732,166.07130583,-168.70392919,-67.99409763
59.95898310,-91.05568031,16.54083738,-24.34372175,-18.22070174,0.88352745
0.19664607,-0.16871215

>  <Name>
ligand

>  <RI>
0

>  <Rbt.Current_Directory>
/home/itssahil/PROJECTS/Mol_Feturizer/New_Systems/rnas/4Y1I

>  <Rbt.Executable>
rbdock ($Id: //depot/dev/client3/rdock/2013.1/src/exe/rbdock.cxx#4 $)

>  <Rbt.Library>
libRbt.so (2013.1, Build901 2013/11/27)

>  <Rbt.Parameter_File>
/export/apps/rDock/src/rDock_2013.1_src/data/scripts/dock_solv.prm

>  <Rbt.Receptor>
prm/pocket_docking_3.prm

>  <SCORE>
-5.60117

>  <SCORE.INTER>
-0.397495

>  <SCORE.INTER.CONST>
1

>  <SCORE.INTER.POLAR>
0

>  <SCORE.INTER.ROT>
8

>  <SCORE.INTER.SOLV>
21.3126

>  <SCORE.INTER.VDW>
-16.3025

>  <SCORE.INTER.norm>
-0.0124217

>  <SCORE.INTRA>
-5.20368

>  <SCORE.INTRA.DIHEDRAL>
-6.29961

>  <SCORE.INTRA.DIHEDRAL.0>
10.9594

>  <SCORE.INTRA.POLAR>
0

>  <SCORE.INTRA.POLAR.0>
0

>  <SCORE.INTRA.REPUL>
0.0321247

>  <SCORE.INTRA.REPUL.0>
0

>  <SCORE.INTRA.SOLV>
-3.76429

>  <SCORE.INTRA.SOLV.lig_0>
-124.914

>  <SCORE.INTRA.VDW>
-0.332352

>  <SCORE.INTRA.VDW.0>
-4.69801

>  <SCORE.INTRA.norm>
-0.162615

>  <SCORE.RESTR>
0

>  <SCORE.RESTR.CAVITY>
0

>  <SCORE.RESTR.norm>
0

>  <SCORE.SYSTEM>
0

>  <SCORE.SYSTEM.CONST>
0

>  <SCORE.SYSTEM.DIHEDRAL>
0

>  <SCORE.SYSTEM.SOLV>
0

>  <SCORE.SYSTEM.norm>
0

>  <SCORE.heavy>
32

>  <SCORE.norm>
-0.175037

>  <RMSD>
7.885

$$$$
ligand
 OpenBabel11021811513D
libRbt.so/2013.1/901 2013/11/27
 32 34  0  0  0  0  0  0  0  0999 V2000
   14.0367  -21.5835  -17.9986 P   0  0  1  0  0  0  0  0  0  0  0  0
   15.5560  -20.4185  -20.1352 P   0  0  2  0  0  0  0  0  0  0  0  0
   18.4112  -19.8891  -19.7073 P   0  0  1  0  0  0  0  0  0  0  0  0
   16.1888  -23.0507  -17.9119 C   0  0  0  0  0  0  0  0  0  0  0  0
   15.5277  -21.9316  -17.3936 O   0  0  0  0  0  0  0  0  0  0  0  0
   15.6313  -24.2077  -17.3792 C   0  0  1  0  0  0  0  0  0  0  0  0
   16.1745  -25.4238  -18.1045 O   0  0  0  0  0  0  0  0  0  0  0  0
   16.0369  -24.3962  -15.8455 C   0  0  1  0  0  0  0  0  0  0  0  0
   14.7991  -24.2993  -14.9826 O   0  0  0  0  0  0  0  0  0  0  0  0
   16.4642  -25.5489  -15.7450 C   0  0  1  0  0  0  0  0  0  0  0  0
   15.3783  -26.4354  -15.2626 O   0  0  0  0  0  0  0  0  0  0  0  0
   16.9405  -26.0103  -17.2728 C   0  0  2  0  0  0  0  0  0  0  0  0
   21.7932  -27.6408  -17.6949 N   0  0  0  0  0  0  0  0  0  0  0  0
   13.4112  -22.8328  -18.5679 O   0  5  0  0  0  0  0  0  0  0  0  0
   15.4221  -19.3385  -21.1793 O   0  5  0  0  0  0  0  0  0  0  0  0
   18.3754  -18.9218  -20.8673 O   0  0  0  0  0  0  0  0  0  0  0  0
   20.7123  -28.3528  -17.4164 C   0  0  0  0  0  0  0  0  0  0  0  0
   20.8386  -29.7784  -17.1903 N   0  0  0  0  0  0  0  0  0  0  0  0
   13.1846  -21.0092  -16.8894 O   0  0  0  0  0  0  0  0  0  0  0  0
   15.7283  -21.7540  -20.8101 O   0  0  0  0  0  0  0  0  0  0  0  0
   19.2468  -19.2966  -18.5937 O   0  5  0  0  0  0  0  0  0  0  0  0
   19.5163  -27.8060  -17.3372 N   0  0  0  0  0  0  0  0  0  0  0  0
   14.2063  -20.4792  -19.2029 O   0  0  0  0  0  0  0  0  0  0  0  0
   16.8612  -20.1138  -19.1815 O   0  0  0  0  0  0  0  0  0  0  0  0
   19.0097  -21.1977  -20.1749 O   0  0  0  0  0  0  0  0  0  0  0  0
   19.3564  -26.4925  -17.5390 C   0  0  0  0  0  0  0  0  0  0  0  0
   20.4672  -25.7269  -17.8305 C   0  0  0  0  0  0  0  0  0  0  0  0
   21.7357  -26.3331  -17.9108 C   0  0  0  0  0  0  0  0  0  0  0  0
   22.8853  -25.5795  -18.2064 O   0  0  0  0  0  0  0  0  0  0  0  0
   20.0546  -24.4576  -17.9883 N   0  0  0  0  0  0  0  0  0  0  0  0
   18.7462  -24.4387  -17.8022 C   0  0  0  0  0  0  0  0  0  0  0  0
   18.3086  -25.6535  -17.5282 N   0  0  0  0  0  0  0  0  0  0  0  0
  1  5  1  1  0  0  0
  1 14  1  0  0  0  0
  1 19  2  0  0  0  0
  1 23  1  0  0  0  0
  2 15  1  6  0  0  0
  2 20  2  0  0  0  0
  2 23  1  0  0  0  0
  2 24  1  0  0  0  0
  3 16  1  6  0  0  0
  3 21  1  0  0  0  0
  3 24  1  0  0  0  0
  3 25  2  0  0  0  0
  4  5  1  0  0  0  0
  6  4  1  6  0  0  0
  6  7  1  0  0  0  0
  6  8  1  0  0  0  0
  7 12  1  0  0  0  0
  8  9  1  1  0  0  0
  8 10  1  0  0  0  0
 10 11  1  6  0  0  0
 10 12  1  0  0  0  0
 12 32  1  6  0  0  0
 13 17  2  0  0  0  0
 13 28  1  0  0  0  0
 17 18  1  0  0  0  0
 17 22  1  0  0  0  0
 22 26  2  0  0  0  0
 26 27  1  0  0  0  0
 26 32  1  0  0  0  0
 27 28  2  0  0  0  0
 27 30  1  0  0  0  0
 28 29  1  0  0  0  0
 30 31  2  0  0  0  0
 31 32  1  0  0  0  0
M  CHG  3  14  -1  15  -1  21  -1
M  END
>  <CHROM.1>
24.05318855,178.42702731,46.96260414,170.43174814,-76.14260764,-136.46403700
30.39411252,-55.42008923,17.27817818,-23.29967480,-18.21778419,2.16612988
0.29342669,-0.49119228

>  <Name>
ligand

>  <RI>
0

>  <Rbt.Current_Directory>
/home/itssahil/PROJECTS/Mol_Feturizer/New_Systems/rnas/4Y1I

>  <Rbt.Executable>
rbdock ($Id: //depot/dev/client3/rdock/2013.1/src/exe/rbdock.cxx#4 $)

>  <Rbt.Library>
libRbt.so (2013.1, Build901 2013/11/27)

>  <Rbt.Parameter_File>
/export/apps/rDock/src/rDock_2013.1_src/data/scripts/dock_solv.prm

>  <Rbt.Receptor>
prm/pocket_docking_6.prm

>  <SCORE>
-9.48745

>  <SCORE.INTER>
-6.31588

>  <SCORE.INTER.CONST>
1

>  <SCORE.INTER.POLAR>
0

>  <SCORE.INTER.ROT>
8

>  <SCORE.INTER.SOLV>
19.0508

>  <SCORE.INTER.VDW>
-19.4942

>  <SCORE.INTER.norm>
-0.197371

>  <SCORE.INTRA>
-3.17157

>  <SCORE.INTRA.DIHEDRAL>
-5.18986

>  <SCORE.INTRA.DIHEDRAL.0>
10.9594

>  <SCORE.INTRA.POLAR>
0

>  <SCORE.INTRA.POLAR.0>
0

>  <SCORE.INTRA.REPUL>
0

>  <SCORE.INTRA.REPUL.0>
0

>  <SCORE.INTRA.SOLV>
-1.81976

>  <SCORE.INTRA.SOLV.lig_0>
-124.914

>  <SCORE.INTRA.VDW>
0.333246

>  <SCORE.INTRA.VDW.0>
-4.69801

>  <SCORE.INTRA.norm>
-0.0991114

>  <SCORE.RESTR>
0

>  <SCORE.RESTR.CAVITY>
0

>  <SCORE.RESTR.norm>
0

>  <SCORE.SYSTEM>
0

>  <SCORE.SYSTEM.CONST>
0

>  <SCORE.SYSTEM.DIHEDRAL>
0

>  <SCORE.SYSTEM.SOLV>
0

>  <SCORE.SYSTEM.norm>
0

>  <SCORE.heavy>
32

>  <SCORE.norm>
-0.296483

>  <RMSD>
7.886

$$$$
ligand
 OpenBabel11021811513D
libRbt.so/2013.1/901 2013/11/27
 32 34  0  0  0  0  0  0  0  0999 V2000
   17.8386  -25.1489  -18.4925 P   0  0  1  0  0  0  0  0  0  0  0  0
   16.7788  -22.4829  -18.4775 P   0  0  2  0  0  0  0  0  0  0  0  0
   18.5743  -20.2504  -19.1157 P   0  0  1  0  0  0  0  0  0  0  0  0
   16.9915  -27.0931  -16.9779 C   0  0  0  0  0  0  0  0  0  0  0  0
   17.3285  -25.7365  -17.0417 O   0  0  0  0  0  0  0  0  0  0  0  0
   16.8344  -27.4709  -15.6490 C   0  0  1  0  0  0  0  0  0  0  0  0
   15.6592  -26.7324  -15.0379 O   0  0  0  0  0  0  0  0  0  0  0  0
   16.4873  -29.0251  -15.5231 C   0  0  1  0  0  0  0  0  0  0  0  0
   17.6158  -29.7361  -14.8110 O   0  0  0  0  0  0  0  0  0  0  0  0
   15.4937  -29.0948  -14.7957 C   0  0  1  0  0  0  0  0  0  0  0  0
   15.9215  -29.3778  -13.4048 O   0  0  0  0  0  0  0  0  0  0  0  0
   14.7484  -27.6073  -14.8715 C   0  0  2  0  0  0  0  0  0  0  0  0
   12.3562  -30.1634  -18.6303 N   0  0  0  0  0  0  0  0  0  0  0  0
   19.1602  -25.7757  -18.8621 O   0  5  0  0  0  0  0  0  0  0  0  0
   15.7426  -22.7927  -17.4265 O   0  5  0  0  0  0  0  0  0  0  0  0
   19.0055  -19.0131  -18.3637 O   0  0  0  0  0  0  0  0  0  0  0  0
   13.2484  -30.6237  -17.7672 C   0  0  0  0  0  0  0  0  0  0  0  0
   13.6484  -32.0149  -17.8318 N   0  0  0  0  0  0  0  0  0  0  0  0
   16.7864  -25.4505  -19.5356 O   0  0  0  0  0  0  0  0  0  0  0  0
   16.1690  -22.6325  -19.8466 O   0  0  0  0  0  0  0  0  0  0  0  0
   19.7365  -21.2166  -19.1879 O   0  5  0  0  0  0  0  0  0  0  0  0
   13.7896  -29.8550  -16.8443 N   0  0  0  0  0  0  0  0  0  0  0  0
   18.0418  -23.5245  -18.3560 O   0  0  0  0  0  0  0  0  0  0  0  0
   17.3248  -20.9431  -18.2859 O   0  0  0  0  0  0  0  0  0  0  0  0
   18.1334  -19.8529  -20.5074 O   0  0  0  0  0  0  0  0  0  0  0  0
   13.4477  -28.5643  -16.7509 C   0  0  0  0  0  0  0  0  0  0  0  0
   12.5198  -28.0587  -17.6389 C   0  0  0  0  0  0  0  0  0  0  0  0
   11.9539  -28.8994  -18.6167 C   0  0  0  0  0  0  0  0  0  0  0  0
   11.0061  -28.4134  -19.5345 O   0  0  0  0  0  0  0  0  0  0  0  0
   12.3454  -26.7586  -17.3465 N   0  0  0  0  0  0  0  0  0  0  0  0
   13.1312  -26.4723  -16.3230 C   0  0  0  0  0  0  0  0  0  0  0  0
   13.8041  -27.5457  -15.9526 N   0  0  0  0  0  0  0  0  0  0  0  0
  1  5  1  1  0  0  0
  1 14  1  0  0  0  0
  1 19  2  0  0  0  0
  1 23  1  0  0  0  0
  2 15  1  1  0  0  0
  2 20  2  0  0  0  0
  2 23  1  0  0  0  0
  2 24  1  0  0  0  0
  3 16  1  1  0  0  0
  3 21  1  0  0  0  0
  3 24  1  0  0  0  0
  3 25  2  0  0  0  0
  4  5  1  0  0  0  0
  6  4  1  6  0  0  0
  6  7  1  0  0  0  0
  6  8  1  0  0  0  0
  7 12  1  0  0  0  0
  8  9  1  1  0  0  0
  8 10  1  0  0  0  0
 10 11  1  1  0  0  0
 10 12  1  0  0  0  0
 12 32  1  6  0  0  0
 13 17  2  0  0  0  0
 13 28  1  0  0  0  0
 17 18  1  0  0  0  0
 17 22  1  0  0  0  0
 22 26  2  0  0  0  0
 26 27  1  0  0  0  0
 26 32  1  0  0  0  0
 27 28  2  0  0  0  0
 27 30  1  0  0  0  0
 28 29  1  0  0  0  0
 30 31  2  0  0  0  0
 31 32  1  0  0  0  0
M  CHG  3  14  -1  15  -1  21  -1
M  END
>  <CHROM.1>
-66.19991360,58.84738096,-163.22563789,64.54829012,168.68726450,124.65647625
-81.86663198,173.06296191,16.00329769,-25.68283500,-17.59808406,-1.02488006
0.50754653,2.57667763

>  <Name>
ligand

>  <RI>
0

>  <Rbt.Current_Directory>
/home/itssahil/PROJECTS/Mol_Feturizer/New_Systems/rnas/4Y1I

>  <Rbt.Executable>
rbdock ($Id: //depot/dev/client3/rdock/2013.1/src/exe/rbdock.cxx#4 $)

>  <Rbt.Library>
libRbt.so (2013.1, Build901 2013/11/27)

>  <Rbt.Parameter_File>
/export/apps/rDock/src/rDock_2013.1_src/data/scripts/dock_solv.prm

>  <Rbt.Receptor>
prm/pocket_docking_3.prm

>  <SCORE>
-4.09111

>  <SCORE.INTER>
1.07613

>  <SCORE.INTER.CONST>
1

>  <SCORE.INTER.POLAR>
0

>  <SCORE.INTER.ROT>
8

>  <SCORE.INTER.SOLV>
12.21

>  <SCORE.INTER.VDW>
-12.2859

>  <SCORE.INTER.norm>
0.0336289

>  <SCORE.INTRA>
-5.17653

>  <SCORE.INTRA.DIHEDRAL>
-7.77049

>  <SCORE.INTRA.DIHEDRAL.0>
10.9594

>  <SCORE.INTRA.POLAR>
0

>  <SCORE.INTRA.POLAR.0>
0

>  <SCORE.INTRA.REPUL>
0

>  <SCORE.INTRA.REPUL.0>
0

>  <SCORE.INTRA.SOLV>
-3.32895

>  <SCORE.INTRA.SOLV.lig_0>
-124.914

>  <SCORE.INTRA.VDW>
0.373193

>  <SCORE.INTRA.VDW.0>
-4.69801

>  <SCORE.INTRA.norm>
-0.161767

>  <SCORE.RESTR>
0.00929645

>  <SCORE.RESTR.CAVITY>
0.00929645

>  <SCORE.RESTR.norm>
0.000290514

>  <SCORE.SYSTEM>
0

>  <SCORE.SYSTEM.CONST>
0

>  <SCORE.SYSTEM.DIHEDRAL>
0

>  <SCORE.SYSTEM.SOLV>
0

>  <SCORE.SYSTEM.norm>
0

>  <SCORE.heavy>
32

>  <SCORE.norm>
-0.127847

>  <RMSD>
7.899

$$$$
ligand
 OpenBabel11021811513D
libRbt.so/2013.1/901 2013/11/27
 32 34  0  0  0  0  0  0  0  0999 V2000
   21.2370  -24.5792  -19.3284 P   0  0  1  0  0  0  0  0  0  0  0  0
   21.1869  -21.7454  -19.7739 P   0  0  2  0  0  0  0  0  0  0  0  0
   18.6031  -20.4304  -19.3154 P   0  0  1  0  0  0  0  0  0  0  0  0
   18.8274  -25.5613  -19.1864 C   0  0  0  0  0  0  0  0  0  0  0  0
   19.6052  -24.3984  -19.2075 O   0  0  0  0  0  0  0  0  0  0  0  0
   17.4838  -25.2198  -19.0786 C   0  0  1  0  0  0  0  0  0  0  0  0
   16.6320  -26.4745  -19.0602 O   0  0  0  0  0  0  0  0  0  0  0  0
   17.1834  -24.4673  -17.7018 C   0  0  1  0  0  0  0  0  0  0  0  0
   16.7489  -23.0479  -17.9891 O   0  0  0  0  0  0  0  0  0  0  0  0
   16.2205  -25.0502  -17.1976 C   0  0  1  0  0  0  0  0  0  0  0  0
   14.9743  -24.3193  -17.5302 O   0  0  0  0  0  0  0  0  0  0  0  0
   16.1853  -26.5730  -17.8714 C   0  0  2  0  0  0  0  0  0  0  0  0
   17.2408  -28.5777  -13.2614 N   0  0  0  0  0  0  0  0  0  0  0  0
   21.7416  -25.4398  -18.1967 O   0  5  0  0  0  0  0  0  0  0  0  0
   20.8924  -21.8776  -21.2471 O   0  5  0  0  0  0  0  0  0  0  0  0
   17.5594  -20.4804  -18.2243 O   0  0  0  0  0  0  0  0  0  0  0  0
   16.3454  -27.6510  -13.5648 C   0  0  0  0  0  0  0  0  0  0  0  0
   15.5232  -27.0855  -12.5142 N   0  0  0  0  0  0  0  0  0  0  0  0
   21.5585  -25.2034  -20.6675 O   0  0  0  0  0  0  0  0  0  0  0  0
   22.0984  -20.5683  -19.5453 O   0  0  0  0  0  0  0  0  0  0  0  0
   19.1942  -19.0387  -19.3722 O   0  5  0  0  0  0  0  0  0  0  0  0
   16.1743  -27.2216  -14.7984 N   0  0  0  0  0  0  0  0  0  0  0  0
   21.9364  -23.0967  -19.2199 O   0  0  0  0  0  0  0  0  0  0  0  0
   19.7851  -21.5228  -18.9424 O   0  0  0  0  0  0  0  0  0  0  0  0
   17.9528  -20.7800  -20.6361 O   0  0  0  0  0  0  0  0  0  0  0  0
   16.9134  -27.7178  -15.7979 C   0  0  0  0  0  0  0  0  0  0  0  0
   17.8548  -28.6849  -15.5088 C   0  0  0  0  0  0  0  0  0  0  0  0
   18.0197  -29.1293  -14.1828 C   0  0  0  0  0  0  0  0  0  0  0  0
   18.9698  -30.1134  -13.8576 O   0  0  0  0  0  0  0  0  0  0  0  0
   18.4595  -29.0193  -16.6615 N   0  0  0  0  0  0  0  0  0  0  0  0
   17.9166  -28.2908  -17.6214 C   0  0  0  0  0  0  0  0  0  0  0  0
   16.9862  -27.4998  -17.1204 N   0  0  0  0  0  0  0  0  0  0  0  0
  1  5  1  1  0  0  0
  1 14  1  0  0  0  0
  1 19  2  0  0  0  0
  1 23  1  0  0  0  0
  2 15  1  6  0  0  0
  2 20  2  0  0  0  0
  2 23  1  0  0  0  0
  2 24  1  0  0  0  0
  3 16  1  1  0  0  0
  3 21  1  0  0  0  0
  3 24  1  0  0  0  0
  3 25  2  0  0  0  0
  4  5  1  0  0  0  0
  6  4  1  1  0  0  0
  6  7  1  0  0  0  0
  6  8  1  0  0  0  0
  7 12  1  0  0  0  0
  8  9  1  6  0  0  0
  8 10  1  0  0  0  0
 10 11  1  6  0  0  0
 10 12  1  0  0  0  0
 12 32  1  1  0  0  0
 13 17  2  0  0  0  0
 13 28  1  0  0  0  0
 17 18  1  0  0  0  0
 17 22  1  0  0  0  0
 22 26  2  0  0  0  0
 26 27  1  0  0  0  0
 26 32  1  0  0  0  0
 27 28  2  0  0  0  0
 27 30  1  0  0  0  0
 28 29  1  0  0  0  0
 30 31  2  0  0  0  0
 31 32  1  0  0  0  0
M  CHG  3  14  -1  15  -1  21  -1
M  END
>  <CHROM.1>
-56.91283817,-59.13976237,-175.04157727,179.79015141,179.88649614,170.85400627
-31.75369705,-48.97730782,18.64977008,-24.59259746,-17.92104630,-1.18200742
-0.43618075,2.70081712

>  <Name>
ligand

>  <RI>
0

>  <Rbt.Current_Directory>
/home/itssahil/PROJECTS/Mol_Feturizer/New_Systems/rnas/4Y1I

>  <Rbt.Executable>
rbdock ($Id: //depot/dev/client3/rdock/2013.1/src/exe/rbdock.cxx#4 $)

>  <Rbt.Library>
libRbt.so (2013.1, Build901 2013/11/27)

>  <Rbt.Parameter_File>
/export/apps/rDock/src/rDock_2013.1_src/data/scripts/dock_solv.prm

>  <Rbt.Receptor>
prm/pocket_docking_4.prm

>  <SCORE>
-7.1703

>  <SCORE.INTER>
-1.13329

>  <SCORE.INTER.CONST>
1

>  <SCORE.INTER.POLAR>
0

>  <SCORE.INTER.ROT>
8

>  <SCORE.INTER.SOLV>
15.2294

>  <SCORE.INTER.VDW>
-14.7653

>  <SCORE.INTER.norm>
-0.0354153

>  <SCORE.INTRA>
-6.04046

>  <SCORE.INTRA.DIHEDRAL>
-8.41409

>  <SCORE.INTRA.DIHEDRAL.0>
10.9594

>  <SCORE.INTRA.POLAR>
0

>  <SCORE.INTRA.POLAR.0>
0

>  <SCORE.INTRA.REPUL>
0.0198545

>  <SCORE.INTRA.REPUL.0>
0

>  <SCORE.INTRA.SOLV>
-2.79202

>  <SCORE.INTRA.SOLV.lig_0>
-124.914

>  <SCORE.INTRA.VDW>
-0.53668

>  <SCORE.INTRA.VDW.0>
-4.69801

>  <SCORE.INTRA.norm>
-0.188764

>  <SCORE.RESTR>
0.0034536

>  <SCORE.RESTR.CAVITY>
0.0034536

>  <SCORE.RESTR.norm>
0.000107925

>  <SCORE.SYSTEM>
0

>  <SCORE.SYSTEM.CONST>
0

>  <SCORE.SYSTEM.DIHEDRAL>
0

>  <SCORE.SYSTEM.SOLV>
0

>  <SCORE.SYSTEM.norm>
0

>  <SCORE.heavy>
32

>  <SCORE.norm>
-0.224072

>  <RMSD>
7.917

$$$$
ligand
 OpenBabel11021811513D
libRbt.so/2013.1/901 2013/11/27
 32 34  0  0  0  0  0  0  0  0999 V2000
   18.6316  -26.2122  -18.5212 P   0  0  1  0  0  0  0  0  0  0  0  0
   18.4143  -23.4331  -19.1996 P   0  0  2  0  0  0  0  0  0  0  0  0
   18.3737  -20.5044  -19.0090 P   0  0  1  0  0  0  0  0  0  0  0  0
   18.3403  -28.4172  -17.1630 C   0  0  0  0  0  0  0  0  0  0  0  0
   18.6469  -27.0531  -17.1060 O   0  0  0  0  0  0  0  0  0  0  0  0
   18.3023  -28.9392  -15.8749 C   0  0  1  0  0  0  0  0  0  0  0  0
   17.2807  -28.1878  -15.0432 O   0  0  0  0  0  0  0  0  0  0  0  0
   17.8264  -30.4642  -15.8788 C   0  0  1  0  0  0  0  0  0  0  0  0
   18.9570  -31.3449  -15.3970 O   0  0  0  0  0  0  0  0  0  0  0  0
   16.9211  -30.5411  -15.0447 C   0  0  1  0  0  0  0  0  0  0  0  0
   17.4778  -31.0240  -13.7583 O   0  0  0  0  0  0  0  0  0  0  0  0
   16.3164  -29.0001  -14.8614 C   0  0  2  0  0  0  0  0  0  0  0  0
   11.8296  -30.5377  -16.8335 N   0  0  0  0  0  0  0  0  0  0  0  0
   19.7224  -26.7215  -19.4306 O   0  5  0  0  0  0  0  0  0  0  0  0
   16.9077  -23.3822  -19.2448 O   0  5  0  0  0  0  0  0  0  0  0  0
   17.0329  -20.3980  -18.3209 O   0  0  0  0  0  0  0  0  0  0  0  0
   12.5518  -31.1221  -15.8903 C   0  0  0  0  0  0  0  0  0  0  0  0
   12.0784  -32.3546  -15.2932 N   0  0  0  0  0  0  0  0  0  0  0  0
   17.2728  -26.3702  -19.1653 O   0  0  0  0  0  0  0  0  0  0  0  0
   18.9509  -23.7193  -20.5776 O   0  0  0  0  0  0  0  0  0  0  0  0
   19.2915  -19.4264  -18.4750 O   0  5  0  0  0  0  0  0  0  0  0  0
   13.6950  -30.6183  -15.4722 N   0  0  0  0  0  0  0  0  0  0  0  0
   18.9134  -24.6279  -18.1906 O   0  0  0  0  0  0  0  0  0  0  0  0
   19.0056  -21.9926  -18.6694 O   0  0  0  0  0  0  0  0  0  0  0  0
   18.1773  -20.3371  -20.4999 O   0  0  0  0  0  0  0  0  0  0  0  0
   14.1679  -29.4818  -15.9979 C   0  0  0  0  0  0  0  0  0  0  0  0
   13.4346  -28.8522  -16.9833 C   0  0  0  0  0  0  0  0  0  0  0  0
   12.2149  -29.4088  -17.4140 C   0  0  0  0  0  0  0  0  0  0  0  0
   11.4457  -28.7903  -18.4154 O   0  0  0  0  0  0  0  0  0  0  0  0
   14.1077  -27.7468  -17.3456 N   0  0  0  0  0  0  0  0  0  0  0  0
   15.2091  -27.6950  -16.6169 C   0  0  0  0  0  0  0  0  0  0  0  0
   15.2639  -28.7320  -15.8020 N   0  0  0  0  0  0  0  0  0  0  0  0
  1  5  1  1  0  0  0
  1 14  1  0  0  0  0
  1 19  2  0  0  0  0
  1 23  1  0  0  0  0
  2 15  1  6  0  0  0
  2 20  2  0  0  0  0
  2 23  1  0  0  0  0
  2 24  1  0  0  0  0
  3 16  1  1  0  0  0
  3 21  1  0  0  0  0
  3 24  1  0  0  0  0
  3 25  2  0  0  0  0
  4  5  1  0  0  0  0
  6  4  1  6  0  0  0
  6  7  1  0  0  0  0
  6  8  1  0  0  0  0
  7 12  1  0  0  0  0
  8  9  1  1  0  0  0
  8 10  1  0  0  0  0
 10 11  1  1  0  0  0
 10 12  1  0  0  0  0
 12 32  1  6  0  0  0
 13 17  2  0  0  0  0
 13 28  1  0  0  0  0
 17 18  1  0  0  0  0
 17 22  1  0  0  0  0
 22 26  2  0  0  0  0
 26 27  1  0  0  0  0
 26 32  1  0  0  0  0
 27 28  2  0  0  0  0
 27 30  1  0  0  0  0
 28 29  1  0  0  0  0
 30 31  2  0  0  0  0
 31 32  1  0  0  0  0
M  CHG  3  14  -1  15  -1  21  -1
M  END
>  <CHROM.1>
-65.10148072,65.78059652,67.78983853,57.85622313,-175.54949663,172.05747923
-155.84305979,-36.00330497,16.78380129,-26.57336625,-17.46997097,-1.16034537
0.12060593,2.71657366

>  <Name>
ligand

>  <RI>
0

>  <Rbt.Current_Directory>
/home/itssahil/PROJECTS/Mol_Feturizer/New_Systems/rnas/4Y1I

>  <Rbt.Executable>
rbdock ($Id: //depot/dev/client3/rdock/2013.1/src/exe/rbdock.cxx#4 $)

>  <Rbt.Library>
libRbt.so (2013.1, Build901 2013/11/27)

>  <Rbt.Parameter_File>
/export/apps/rDock/src/rDock_2013.1_src/data/scripts/dock_solv.prm

>  <Rbt.Receptor>
prm/pocket_docking_3.prm

>  <SCORE>
-2.43249

>  <SCORE.INTER>
2.49408

>  <SCORE.INTER.CONST>
1

>  <SCORE.INTER.POLAR>
0

>  <SCORE.INTER.ROT>
8

>  <SCORE.INTER.SOLV>
12.9827

>  <SCORE.INTER.VDW>
-11.5982

>  <SCORE.INTER.norm>
0.07794

>  <SCORE.INTRA>
-4.92657

>  <SCORE.INTRA.DIHEDRAL>
-7.80668

>  <SCORE.INTRA.DIHEDRAL.0>
10.9594

>  <SCORE.INTRA.POLAR>
0

>  <SCORE.INTRA.POLAR.0>
0

>  <SCORE.INTRA.REPUL>
0

>  <SCORE.INTRA.REPUL.0>
0

>  <SCORE.INTRA.SOLV>
-2.49115

>  <SCORE.INTRA.SOLV.lig_0>
-124.914

>  <SCORE.INTRA.VDW>
0.222343

>  <SCORE.INTRA.VDW.0>
-4.69801

>  <SCORE.INTRA.norm>
-0.153955

>  <SCORE.RESTR>
0

>  <SCORE.RESTR.CAVITY>
0

>  <SCORE.RESTR.norm>
0

>  <SCORE.SYSTEM>
0

>  <SCORE.SYSTEM.CONST>
0

>  <SCORE.SYSTEM.DIHEDRAL>
0

>  <SCORE.SYSTEM.SOLV>
0

>  <SCORE.SYSTEM.norm>
0

>  <SCORE.heavy>
32

>  <SCORE.norm>
-0.0760154

>  <RMSD>
7.972

$$$$
ligand
 OpenBabel11021811513D
libRbt.so/2013.1/901 2013/11/27
 32 34  0  0  0  0  0  0  0  0999 V2000
   18.5886  -25.1023  -18.0088 P   0  0  1  0  0  0  0  0  0  0  0  0
   18.3122  -23.0464  -19.9908 P   0  0  2  0  0  0  0  0  0  0  0  0
   18.2630  -20.2456  -19.1142 P   0  0  1  0  0  0  0  0  0  0  0  0
   16.2909  -25.9129  -17.0842 C   0  0  0  0  0  0  0  0  0  0  0  0
   17.6628  -25.7933  -16.8360 O   0  0  0  0  0  0  0  0  0  0  0  0
   16.0875  -26.7493  -18.1762 C   0  0  1  0  0  0  0  0  0  0  0  0
   16.5047  -28.1649  -17.8270 O   0  0  0  0  0  0  0  0  0  0  0  0
   14.5402  -26.8329  -18.5647 C   0  0  1  0  0  0  0  0  0  0  0  0
   14.3332  -26.2320  -19.9367 O   0  0  0  0  0  0  0  0  0  0  0  0
   14.2737  -28.0344  -18.6471 C   0  0  1  0  0  0  0  0  0  0  0  0
   14.3513  -28.4591  -20.0653 O   0  0  0  0  0  0  0  0  0  0  0  0
   15.4246  -28.8355  -17.7483 C   0  0  2  0  0  0  0  0  0  0  0  0
   11.5281  -28.9029  -14.4020 N   0  0  0  0  0  0  0  0  0  0  0  0
   19.8258  -24.4967  -17.3934 O   0  5  0  0  0  0  0  0  0  0  0  0
   17.2033  -22.6856  -20.9471 O   0  5  0  0  0  0  0  0  0  0  0  0
   17.1811  -20.5035  -18.0918 O   0  0  0  0  0  0  0  0  0  0  0  0
   11.4762  -28.7392  -15.7147 C   0  0  0  0  0  0  0  0  0  0  0  0
   10.1915  -28.5499  -16.3576 N   0  0  0  0  0  0  0  0  0  0  0  0
   18.9529  -26.1601  -19.0261 O   0  0  0  0  0  0  0  0  0  0  0  0
   19.3377  -23.8894  -20.7024 O   0  0  0  0  0  0  0  0  0  0  0  0
   19.2530  -19.2513  -18.5480 O   0  5  0  0  0  0  0  0  0  0  0  0
   12.5605  -28.7426  -16.4630 N   0  0  0  0  0  0  0  0  0  0  0  0
   17.7165  -23.9106  -18.7286 O   0  0  0  0  0  0  0  0  0  0  0  0
   19.0265  -21.6779  -19.4225 O   0  0  0  0  0  0  0  0  0  0  0  0
   17.6298  -19.6979  -20.3746 O   0  0  0  0  0  0  0  0  0  0  0  0
   13.7666  -28.9142  -15.9085 C   0  0  0  0  0  0  0  0  0  0  0  0
   13.8489  -29.0866  -14.5416 C   0  0  0  0  0  0  0  0  0  0  0  0
   12.6764  -29.0802  -13.7617 C   0  0  0  0  0  0  0  0  0  0  0  0
   12.7284  -29.2538  -12.3674 O   0  0  0  0  0  0  0  0  0  0  0  0
   15.1475  -29.2370  -14.2295 N   0  0  0  0  0  0  0  0  0  0  0  0
   15.8381  -29.1605  -15.3537 C   0  0  0  0  0  0  0  0  0  0  0  0
   15.0246  -28.9638  -16.3744 N   0  0  0  0  0  0  0  0  0  0  0  0
  1  5  1  1  0  0  0
  1 14  1  0  0  0  0
  1 19  2  0  0  0  0
  1 23  1  0  0  0  0
  2 15  1  6  0  0  0
  2 20  2  0  0  0  0
  2 23  1  0  0  0  0
  2 24  1  0  0  0  0
  3 16  1  1  0  0  0
  3 21  1  0  0  0  0
  3 24  1  0  0  0  0
  3 25  2  0  0  0  0
  4  5  1  0  0  0  0
  6  4  1  1  0  0  0
  6  7  1  0  0  0  0
  6  8  1  0  0  0  0
  7 12  1  0  0  0  0
  8  9  1  6  0  0  0
  8 10  1  0  0  0  0
 10 11  1  6  0  0  0
 10 12  1  0  0  0  0
 12 32  1  1  0  0  0
 13 17  2  0  0  0  0
 13 28  1  0  0  0  0
 17 18  1  0  0  0  0
 17 22  1  0  0  0  0
 22 26  2  0  0  0  0
 26 27  1  0  0  0  0
 26 32  1  0  0  0  0
 27 28  2  0  0  0  0
 27 30  1  0  0  0  0
 28 29  1  0  0  0  0
 30 31  2  0  0  0  0
 31 32  1  0  0  0  0
M  CHG  3  14  -1  15  -1  21  -1
M  END
>  <CHROM.1>
154.63159774,145.74876148,58.74815568,67.11965770,63.07878433,141.60981403
-177.48526391,34.67791849,16.18478291,-25.58226991,-17.77266622,-0.81842126
-0.65934078,-3.11391734

>  <Name>
ligand

>  <RI>
0

>  <Rbt.Current_Directory>
/home/itssahil/PROJECTS/Mol_Feturizer/New_Systems/rnas/4Y1I

>  <Rbt.Executable>
rbdock ($Id: //depot/dev/client3/rdock/2013.1/src/exe/rbdock.cxx#4 $)

>  <Rbt.Library>
libRbt.so (2013.1, Build901 2013/11/27)

>  <Rbt.Parameter_File>
/export/apps/rDock/src/rDock_2013.1_src/data/scripts/dock_solv.prm

>  <Rbt.Receptor>
prm/pocket_docking_4.prm

>  <SCORE>
-0.704727

>  <SCORE.INTER>
3.34782

>  <SCORE.INTER.CONST>
1

>  <SCORE.INTER.POLAR>
0

>  <SCORE.INTER.ROT>
8

>  <SCORE.INTER.SOLV>
19.5481

>  <SCORE.INTER.VDW>
-13.2175

>  <SCORE.INTER.norm>
0.104619

>  <SCORE.INTRA>
-4.05254

>  <SCORE.INTRA.DIHEDRAL>
-6.2749

>  <SCORE.INTRA.DIHEDRAL.0>
10.9594

>  <SCORE.INTRA.POLAR>
0

>  <SCORE.INTRA.POLAR.0>
0

>  <SCORE.INTRA.REPUL>
0

>  <SCORE.INTRA.REPUL.0>
0

>  <SCORE.INTRA.SOLV>
-2.89751

>  <SCORE.INTRA.SOLV.lig_0>
-124.914

>  <SCORE.INTRA.VDW>
0.533658

>  <SCORE.INTRA.VDW.0>
-4.69801

>  <SCORE.INTRA.norm>
-0.126642

>  <SCORE.RESTR>
0

>  <SCORE.RESTR.CAVITY>
0

>  <SCORE.RESTR.norm>
0

>  <SCORE.SYSTEM>
0

>  <SCORE.SYSTEM.CONST>
0

>  <SCORE.SYSTEM.DIHEDRAL>
0

>  <SCORE.SYSTEM.SOLV>
0

>  <SCORE.SYSTEM.norm>
0

>  <SCORE.heavy>
32

>  <SCORE.norm>
-0.0220227

>  <RMSD>
7.979

$$$$
ligand
 OpenBabel11021811513D
libRbt.so/2013.1/901 2013/11/27
 32 34  0  0  0  0  0  0  0  0999 V2000
   14.3376  -26.6936  -14.4555 P   0  0  1  0  0  0  0  0  0  0  0  0
   11.7678  -26.1167  -13.3177 P   0  0  2  0  0  0  0  0  0  0  0  0
    8.9602  -26.1721  -12.4636 P   0  0  1  0  0  0  0  0  0  0  0  0
   15.2827  -28.8831  -13.4048 C   0  0  0  0  0  0  0  0  0  0  0  0
   15.2357  -28.0706  -14.5429 O   0  0  0  0  0  0  0  0  0  0  0  0
   16.1348  -29.9574  -13.6357 C   0  0  1  0  0  0  0  0  0  0  0  0
   17.5148  -29.4510  -14.0083 O   0  0  0  0  0  0  0  0  0  0  0  0
   16.3331  -30.8367  -12.3167 C   0  0  1  0  0  0  0  0  0  0  0  0
   15.7527  -32.2150  -12.5393 O   0  0  0  0  0  0  0  0  0  0  0  0
   17.5512  -30.9704  -12.1761 C   0  0  1  0  0  0  0  0  0  0  0  0
   17.9727  -32.2698  -12.7520 O   0  0  0  0  0  0  0  0  0  0  0  0
   18.2629  -29.7184  -13.0126 C   0  0  2  0  0  0  0  0  0  0  0  0
   21.5074  -26.6885  -10.4284 N   0  0  0  0  0  0  0  0  0  0  0  0
   14.8393  -25.8265  -13.3274 O   0  5  0  0  0  0  0  0  0  0  0  0
   11.6579  -24.7797  -14.0065 O   0  5  0  0  0  0  0  0  0  0  0  0
    9.2793  -26.0370  -10.9931 O   0  0  0  0  0  0  0  0  0  0  0  0
   21.7866  -27.7763  -11.1294 C   0  0  0  0  0  0  0  0  0  0  0  0
   23.1599  -28.2287  -11.2236 N   0  0  0  0  0  0  0  0  0  0  0  0
   14.4315  -25.9678  -15.7786 O   0  0  0  0  0  0  0  0  0  0  0  0
   12.3284  -25.9260  -11.9327 O   0  0  0  0  0  0  0  0  0  0  0  0
    8.6649  -24.8023  -13.0345 O   0  5  0  0  0  0  0  0  0  0  0  0
   20.8519  -28.4675  -11.7493 N   0  0  0  0  0  0  0  0  0  0  0  0
   12.7765  -27.1062  -14.1533 O   0  0  0  0  0  0  0  0  0  0  0  0
   10.2824  -26.8161  -13.2163 O   0  0  0  0  0  0  0  0  0  0  0  0
    7.7605  -27.0797  -12.6264 O   0  0  0  0  0  0  0  0  0  0  0  0
   19.5711  -28.0837  -11.6873 C   0  0  0  0  0  0  0  0  0  0  0  0
   19.2526  -26.9531  -10.9626 C   0  0  0  0  0  0  0  0  0  0  0  0
   20.2685  -26.2296  -10.3087 C   0  0  0  0  0  0  0  0  0  0  0  0
   19.9750  -25.0739   -9.5636 O   0  0  0  0  0  0  0  0  0  0  0  0
   17.9232  -26.7765  -11.0503 N   0  0  0  0  0  0  0  0  0  0  0  0
   17.4404  -27.7551  -11.7960 C   0  0  0  0  0  0  0  0  0  0  0  0
   18.4168  -28.5531  -12.1863 N   0  0  0  0  0  0  0  0  0  0  0  0
  1  5  1  6  0  0  0
  1 14  1  0  0  0  0
  1 19  2  0  0  0  0
  1 23  1  0  0  0  0
  2 15  1  6  0  0  0
  2 20  2  0  0  0  0
  2 23  1  0  0  0  0
  2 24  1  0  0  0  0
  3 16  1  1  0  0  0
  3 21  1  0  0  0  0
  3 24  1  0  0  0  0
  3 25  2  0  0  0  0
  4  5  1  0  0  0  0
  6  4  1  1  0  0  0
  6  7  1  0  0  0  0
  6  8  1  0  0  0  0
  7 12  1  0  0  0  0
  8  9  1  6  0  0  0
  8 10  1  0  0  0  0
 10 11  1  6  0  0  0
 10 12  1  0  0  0  0
 12 32  1  1  0  0  0
 13 17  2  0  0  0  0
 13 28  1  0  0  0  0
 17 18  1  0  0  0  0
 17 22  1  0  0  0  0
 22 26  2  0  0  0  0
 26 27  1  0  0  0  0
 26 32  1  0  0  0  0
 27 28  2  0  0  0  0
 27 30  1  0  0  0  0
 28 29  1  0  0  0  0
 30 31  2  0  0  0  0
 31 32  1  0  0  0  0
M  CHG  3  14  -1  15  -1  21  -1
M  END
>  <CHROM.1>
58.04583064,58.23821184,-63.03001783,57.44199014,-177.00721393,-133.29531882
150.12020634,-58.88198869,15.22594787,-27.52195261,-12.63708617,-2.97551634
0.20795874,-2.82717145

>  <Name>
ligand

>  <RI>
0

>  <Rbt.Current_Directory>
/home/itssahil/PROJECTS/Mol_Feturizer/New_Systems/rnas/4Y1I

>  <Rbt.Executable>
rbdock ($Id: //depot/dev/client3/rdock/2013.1/src/exe/rbdock.cxx#4 $)

>  <Rbt.Library>
libRbt.so (2013.1, Build901 2013/11/27)

>  <Rbt.Parameter_File>
/export/apps/rDock/src/rDock_2013.1_src/data/scripts/dock_solv.prm

>  <Rbt.Receptor>
prm/pocket_docking_8.prm

>  <SCORE>
-4.89218

>  <SCORE.INTER>
0.142253

>  <SCORE.INTER.CONST>
1

>  <SCORE.INTER.POLAR>
0

>  <SCORE.INTER.ROT>
8

>  <SCORE.INTER.SOLV>
9.94605

>  <SCORE.INTER.VDW>
-12.1538

>  <SCORE.INTER.norm>
0.0044454

>  <SCORE.INTRA>
-5.03443

>  <SCORE.INTRA.DIHEDRAL>
-8.42985

>  <SCORE.INTRA.DIHEDRAL.0>
10.9594

>  <SCORE.INTRA.POLAR>
0

>  <SCORE.INTRA.POLAR.0>
0

>  <SCORE.INTRA.REPUL>
0

>  <SCORE.INTRA.REPUL.0>
0

>  <SCORE.INTRA.SOLV>
-2.78587

>  <SCORE.INTRA.SOLV.lig_0>
-124.914

>  <SCORE.INTRA.VDW>
0.573427

>  <SCORE.INTRA.VDW.0>
-4.69801

>  <SCORE.INTRA.norm>
-0.157326

>  <SCORE.RESTR>
0

>  <SCORE.RESTR.CAVITY>
0

>  <SCORE.RESTR.norm>
0

>  <SCORE.SYSTEM>
0

>  <SCORE.SYSTEM.CONST>
0

>  <SCORE.SYSTEM.DIHEDRAL>
0

>  <SCORE.SYSTEM.SOLV>
0

>  <SCORE.SYSTEM.norm>
0

>  <SCORE.heavy>
32

>  <SCORE.norm>
-0.152881

>  <RMSD>
7.987

$$$$
ligand
 OpenBabel11021811513D
libRbt.so/2013.1/901 2013/11/27
 32 34  0  0  0  0  0  0  0  0999 V2000
   19.0894  -25.2428  -18.3882 P   0  0  1  0  0  0  0  0  0  0  0  0
   20.0221  -22.7140  -19.3712 P   0  0  2  0  0  0  0  0  0  0  0  0
   18.1289  -20.4866  -19.1078 P   0  0  1  0  0  0  0  0  0  0  0  0
   19.2250  -27.8118  -17.9715 C   0  0  0  0  0  0  0  0  0  0  0  0
   19.7155  -26.5520  -17.6107 O   0  0  0  0  0  0  0  0  0  0  0  0
   19.8138  -28.7859  -17.1729 C   0  0  1  0  0  0  0  0  0  0  0  0
   19.4047  -28.5845  -15.7266 O   0  0  0  0  0  0  0  0  0  0  0  0
   19.3082  -30.2481  -17.5707 C   0  0  1  0  0  0  0  0  0  0  0  0
   20.4697  -31.0525  -18.1091 O   0  0  0  0  0  0  0  0  0  0  0  0
   18.9489  -30.7826  -16.5187 C   0  0  1  0  0  0  0  0  0  0  0  0
   20.0502  -31.6251  -15.9942 O   0  0  0  0  0  0  0  0  0  0  0  0
   18.6179  -29.5477  -15.4513 C   0  0  2  0  0  0  0  0  0  0  0  0
   13.7161  -30.9236  -16.1328 N   0  0  0  0  0  0  0  0  0  0  0  0
   18.5601  -25.6553  -19.7394 O   0  5  0  0  0  0  0  0  0  0  0  0
   19.6238  -22.9595  -20.8048 O   0  5  0  0  0  0  0  0  0  0  0  0
   16.9557  -20.1900  -18.2034 O   0  0  0  0  0  0  0  0  0  0  0  0
   14.7870  -31.7012  -16.1004 C   0  0  0  0  0  0  0  0  0  0  0  0
   14.6326  -33.1318  -16.2716 N   0  0  0  0  0  0  0  0  0  0  0  0
   17.9908  -24.6506  -17.5346 O   0  0  0  0  0  0  0  0  0  0  0  0
   21.2942  -21.9083  -19.3319 O   0  0  0  0  0  0  0  0  0  0  0  0
   19.1279  -19.3542  -19.0109 O   0  5  0  0  0  0  0  0  0  0  0  0
   15.9979  -31.2160  -15.9164 N   0  0  0  0  0  0  0  0  0  0  0  0
   20.2879  -24.1398  -18.6022 O   0  0  0  0  0  0  0  0  0  0  0  0
   18.8284  -21.8920  -18.5932 O   0  0  0  0  0  0  0  0  0  0  0  0
   17.6317  -20.6290  -20.5297 O   0  0  0  0  0  0  0  0  0  0  0  0
   16.1840  -29.9004  -15.7544 C   0  0  0  0  0  0  0  0  0  0  0  0
   15.0841  -29.0671  -15.7845 C   0  0  0  0  0  0  0  0  0  0  0  0
   13.7991  -29.6082  -15.9817 C   0  0  0  0  0  0  0  0  0  0  0  0
   12.6599  -28.7848  -16.0165 O   0  0  0  0  0  0  0  0  0  0  0  0
   15.5229  -27.8101  -15.6011 N   0  0  0  0  0  0  0  0  0  0  0  0
   16.8364  -27.8633  -15.4642 C   0  0  0  0  0  0  0  0  0  0  0  0
   17.2526  -29.1125  -15.5563 N   0  0  0  0  0  0  0  0  0  0  0  0
  1  5  1  1  0  0  0
  1 14  1  0  0  0  0
  1 19  2  0  0  0  0
  1 23  1  0  0  0  0
  2 15  1  6  0  0  0
  2 20  2  0  0  0  0
  2 23  1  0  0  0  0
  2 24  1  0  0  0  0
  3 16  1  1  0  0  0
  3 21  1  0  0  0  0
  3 24  1  0  0  0  0
  3 25  2  0  0  0  0
  4  5  1  0  0  0  0
  6  4  1  6  0  0  0
  6  7  1  0  0  0  0
  6  8  1  0  0  0  0
  7 12  1  0  0  0  0
  8  9  1  1  0  0  0
  8 10  1  0  0  0  0
 10 11  1  1  0  0  0
 10 12  1  0  0  0  0
 12 32  1  6  0  0  0
 13 17  2  0  0  0  0
 13 28  1  0  0  0  0
 17 18  1  0  0  0  0
 17 22  1  0  0  0  0
 22 26  2  0  0  0  0
 26 27  1  0  0  0  0
 26 32  1  0  0  0  0
 27 28  2  0  0  0  0
 27 30  1  0  0  0  0
 28 29  1  0  0  0  0
 30 31  2  0  0  0  0
 31 32  1  0  0  0  0
M  CHG  3  14  -1  15  -1  21  -1
M  END
>  <CHROM.1>
-25.05465501,-63.12705404,172.04478932,64.27151028,-177.08669035,157.63514600
178.96896800,-52.16468861,18.01552401,-26.39334953,-17.61417130,-1.30300382
-0.23557802,2.87186191

>  <Name>
ligand

>  <RI>
0

>  <Rbt.Current_Directory>
/home/itssahil/PROJECTS/Mol_Feturizer/New_Systems/rnas/4Y1I

>  <Rbt.Executable>
rbdock ($Id: //depot/dev/client3/rdock/2013.1/src/exe/rbdock.cxx#4 $)

>  <Rbt.Library>
libRbt.so (2013.1, Build901 2013/11/27)

>  <Rbt.Parameter_File>
/export/apps/rDock/src/rDock_2013.1_src/data/scripts/dock_solv.prm

>  <Rbt.Receptor>
prm/pocket_docking_4.prm

>  <SCORE>
-4.15594

>  <SCORE.INTER>
0.762841

>  <SCORE.INTER.CONST>
1

>  <SCORE.INTER.POLAR>
0

>  <SCORE.INTER.ROT>
8

>  <SCORE.INTER.SOLV>
17.9409

>  <SCORE.INTER.VDW>
-14.4051

>  <SCORE.INTER.norm>
0.0238388

>  <SCORE.INTRA>
-4.91878

>  <SCORE.INTRA.DIHEDRAL>
-7.86093

>  <SCORE.INTRA.DIHEDRAL.0>
10.9594

>  <SCORE.INTRA.POLAR>
0

>  <SCORE.INTRA.POLAR.0>
0

>  <SCORE.INTRA.REPUL>
0

>  <SCORE.INTRA.REPUL.0>
0

>  <SCORE.INTRA.SOLV>
-2.6381

>  <SCORE.INTRA.SOLV.lig_0>
-124.914

>  <SCORE.INTRA.VDW>
0.33073

>  <SCORE.INTRA.VDW.0>
-4.69801

>  <SCORE.INTRA.norm>
-0.153712

>  <SCORE.RESTR>
0

>  <SCORE.RESTR.CAVITY>
0

>  <SCORE.RESTR.norm>
0

>  <SCORE.SYSTEM>
0

>  <SCORE.SYSTEM.CONST>
0

>  <SCORE.SYSTEM.DIHEDRAL>
0

>  <SCORE.SYSTEM.SOLV>
0

>  <SCORE.SYSTEM.norm>
0

>  <SCORE.heavy>
32

>  <SCORE.norm>
-0.129873

>  <RMSD>
7.989

$$$$
ligand
 OpenBabel11021811513D
libRbt.so/2013.1/901 2013/11/27
 32 34  0  0  0  0  0  0  0  0999 V2000
   17.2359  -26.9307  -17.5025 P   0  0  1  0  0  0  0  0  0  0  0  0
   15.7847  -24.8049  -16.2351 P   0  0  2  0  0  0  0  0  0  0  0  0
   15.6314  -22.8915  -18.4556 P   0  0  1  0  0  0  0  0  0  0  0  0
   16.8063  -29.0460  -16.0422 C   0  0  0  0  0  0  0  0  0  0  0  0
   17.6556  -27.9619  -16.2898 O   0  0  0  0  0  0  0  0  0  0  0  0
   17.3323  -29.8236  -15.0166 C   0  0  1  0  0  0  0  0  0  0  0  0
   17.2486  -29.0708  -13.7028 O   0  0  0  0  0  0  0  0  0  0  0  0
   16.4853  -31.1620  -14.8081 C   0  0  1  0  0  0  0  0  0  0  0  0
   17.3454  -32.3590  -15.1452 O   0  0  0  0  0  0  0  0  0  0  0  0
   16.2319  -31.2209  -13.6025 C   0  0  1  0  0  0  0  0  0  0  0  0
   17.2257  -32.0942  -12.9334 O   0  0  0  0  0  0  0  0  0  0  0  0
   16.3545  -29.6661  -13.0182 C   0  0  2  0  0  0  0  0  0  0  0  0
   11.2291  -29.9830  -12.8916 N   0  0  0  0  0  0  0  0  0  0  0  0
   18.3004  -25.8744  -17.6671 O   0  5  0  0  0  0  0  0  0  0  0  0
   16.6051  -24.9481  -14.9778 O   0  5  0  0  0  0  0  0  0  0  0  0
   15.2109  -23.9995  -19.3926 O   0  0  0  0  0  0  0  0  0  0  0  0
   12.1129  -30.9566  -12.7380 C   0  0  0  0  0  0  0  0  0  0  0  0
   11.6479  -32.3083  -12.5006 N   0  0  0  0  0  0  0  0  0  0  0  0
   17.0608  -27.7254  -18.7768 O   0  0  0  0  0  0  0  0  0  0  0  0
   14.3534  -24.5073  -15.8724 O   0  0  0  0  0  0  0  0  0  0  0  0
   14.4022  -22.1389  -17.9949 O   0  5  0  0  0  0  0  0  0  0  0  0
   13.4109  -30.7378  -12.7937 N   0  0  0  0  0  0  0  0  0  0  0  0
   15.8208  -26.1995  -17.1002 O   0  0  0  0  0  0  0  0  0  0  0  0
   16.3831  -23.5797  -17.1553 O   0  0  0  0  0  0  0  0  0  0  0  0
   16.5755  -21.9608  -19.1850 O   0  0  0  0  0  0  0  0  0  0  0  0
   13.8819  -29.5040  -13.0113 C   0  0  0  0  0  0  0  0  0  0  0  0
   12.9817  -28.4706  -13.1754 C   0  0  0  0  0  0  0  0  0  0  0  0
   11.5987  -28.7279  -13.1110 C   0  0  0  0  0  0  0  0  0  0  0  0
   10.6578  -27.6959  -13.2737 O   0  0  0  0  0  0  0  0  0  0  0  0
   13.6886  -27.3456  -13.3775 N   0  0  0  0  0  0  0  0  0  0  0  0
   14.9696  -27.6688  -13.3406 C   0  0  0  0  0  0  0  0  0  0  0  0
   15.1055  -28.9637  -13.1239 N   0  0  0  0  0  0  0  0  0  0  0  0
  1  5  1  1  0  0  0
  1 14  1  0  0  0  0
  1 19  2  0  0  0  0
  1 23  1  0  0  0  0
  2 15  1  1  0  0  0
  2 20  2  0  0  0  0
  2 23  1  0  0  0  0
  2 24  1  0  0  0  0
  3 16  1  6  0  0  0
  3 21  1  0  0  0  0
  3 24  1  0  0  0  0
  3 25  2  0  0  0  0
  4  5  1  0  0  0  0
  6  4  1  6  0  0  0
  6  7  1  0  0  0  0
  6  8  1  0  0  0  0
  7 12  1  0  0  0  0
  8  9  1  1  0  0  0
  8 10  1  0  0  0  0
 10 11  1  1  0  0  0
 10 12  1  0  0  0  0
 12 32  1  6  0  0  0
 13 17  2  0  0  0  0
 13 28  1  0  0  0  0
 17 18  1  0  0  0  0
 17 22  1  0  0  0  0
 22 26  2  0  0  0  0
 26 27  1  0  0  0  0
 26 32  1  0  0  0  0
 27 28  2  0  0  0  0
 27 30  1  0  0  0  0
 28 29  1  0  0  0  0
 30 31  2  0  0  0  0
 31 32  1  0  0  0  0
M  CHG  3  14  -1  15  -1  21  -1
M  END
>  <CHROM.1>
-177.05624233,-52.17897811,-51.36811433,69.41319931,178.41569426,152.19264179
88.73588411,-167.48243213,15.40316526,-27.41052301,-15.47275376,-1.32501846
-0.45181880,2.63457298

>  <Name>
ligand

>  <RI>
0

>  <Rbt.Current_Directory>
/home/itssahil/PROJECTS/Mol_Feturizer/New_Systems/rnas/4Y1I

>  <Rbt.Executable>
rbdock ($Id: //depot/dev/client3/rdock/2013.1/src/exe/rbdock.cxx#4 $)

>  <Rbt.Library>
libRbt.so (2013.1, Build901 2013/11/27)

>  <Rbt.Parameter_File>
/export/apps/rDock/src/rDock_2013.1_src/data/scripts/dock_solv.prm

>  <Rbt.Receptor>
prm/pocket_docking_5.prm

>  <SCORE>
-4.50461

>  <SCORE.INTER>
2.35891

>  <SCORE.INTER.CONST>
1

>  <SCORE.INTER.POLAR>
0

>  <SCORE.INTER.ROT>
8

>  <SCORE.INTER.SOLV>
10.2907

>  <SCORE.INTER.VDW>
-10.7909

>  <SCORE.INTER.norm>
0.073716

>  <SCORE.INTRA>
-6.86352

>  <SCORE.INTRA.DIHEDRAL>
-7.82409

>  <SCORE.INTRA.DIHEDRAL.0>
10.9594

>  <SCORE.INTRA.POLAR>
0

>  <SCORE.INTRA.POLAR.0>
0

>  <SCORE.INTRA.REPUL>
0

>  <SCORE.INTRA.REPUL.0>
0

>  <SCORE.INTRA.SOLV>
-4.48131

>  <SCORE.INTRA.SOLV.lig_0>
-124.914

>  <SCORE.INTRA.VDW>
-0.710819

>  <SCORE.INTRA.VDW.0>
-4.69801

>  <SCORE.INTRA.norm>
-0.214485

>  <SCORE.RESTR>
0

>  <SCORE.RESTR.CAVITY>
0

>  <SCORE.RESTR.norm>
0

>  <SCORE.SYSTEM>
0

>  <SCORE.SYSTEM.CONST>
0

>  <SCORE.SYSTEM.DIHEDRAL>
0

>  <SCORE.SYSTEM.SOLV>
0

>  <SCORE.SYSTEM.norm>
0

>  <SCORE.heavy>
32

>  <SCORE.norm>
-0.140769

>  <RMSD>
7.992

$$$$
ligand
 OpenBabel11021811513D
libRbt.so/2013.1/901 2013/11/27
 32 34  0  0  0  0  0  0  0  0999 V2000
   20.5568  -24.7233  -20.8482 P   0  0  1  0  0  0  0  0  0  0  0  0
   23.1695  -24.9147  -19.6785 P   0  0  2  0  0  0  0  0  0  0  0  0
   24.6505  -22.4172  -19.2497 P   0  0  1  0  0  0  0  0  0  0  0  0
   19.6027  -22.3004  -20.9532 C   0  0  0  0  0  0  0  0  0  0  0  0
   20.7548  -23.0890  -20.8583 O   0  0  0  0  0  0  0  0  0  0  0  0
   19.9576  -20.9561  -20.9419 C   0  0  1  0  0  0  0  0  0  0  0  0
   18.7351  -20.0971  -21.2016 O   0  0  0  0  0  0  0  0  0  0  0  0
   20.5078  -20.5116  -19.5094 C   0  0  1  0  0  0  0  0  0  0  0  0
   21.9642  -20.1232  -19.6287 O   0  0  0  0  0  0  0  0  0  0  0  0
   19.8812  -19.4940  -19.2042 C   0  0  1  0  0  0  0  0  0  0  0  0
   20.6832  -18.2983  -19.5577 O   0  0  0  0  0  0  0  0  0  0  0  0
   18.4747  -19.5209  -20.0958 C   0  0  2  0  0  0  0  0  0  0  0  0
   13.4216  -20.3226  -19.6394 N   0  0  0  0  0  0  0  0  0  0  0  0
   19.7421  -25.1324  -19.6461 O   0  5  0  0  0  0  0  0  0  0  0  0
   24.2885  -25.9207  -19.5777 O   0  5  0  0  0  0  0  0  0  0  0  0
   23.7991  -21.9965  -18.0748 O   0  0  0  0  0  0  0  0  0  0  0  0
   14.0486  -19.5089  -20.4745 C   0  0  0  0  0  0  0  0  0  0  0  0
   13.2757  -18.7128  -21.4065 N   0  0  0  0  0  0  0  0  0  0  0  0
   19.8728  -25.1375  -22.1315 O   0  0  0  0  0  0  0  0  0  0  0  0
   22.5121  -24.7549  -18.3327 O   0  0  0  0  0  0  0  0  0  0  0  0
   25.8927  -23.1131  -18.7375 O   0  5  0  0  0  0  0  0  0  0  0  0
   15.3612  -19.3969  -20.4882 N   0  0  0  0  0  0  0  0  0  0  0  0
   22.0373  -25.4283  -20.7505 O   0  0  0  0  0  0  0  0  0  0  0  0
   23.7663  -23.4637  -20.1728 O   0  0  0  0  0  0  0  0  0  0  0  0
   25.0275  -21.1896  -20.0500 O   0  0  0  0  0  0  0  0  0  0  0  0
   16.1118  -20.1143  -19.6436 C   0  0  0  0  0  0  0  0  0  0  0  0
   15.4832  -20.9701  -18.7618 C   0  0  0  0  0  0  0  0  0  0  0  0
   14.0788  -21.0741  -18.7658 C   0  0  0  0  0  0  0  0  0  0  0  0
   13.4102  -21.9374  -17.8800 O   0  0  0  0  0  0  0  0  0  0  0  0
   16.4371  -21.5697  -18.0292 N   0  0  0  0  0  0  0  0  0  0  0  0
   17.6044  -21.1049  -18.4392 C   0  0  0  0  0  0  0  0  0  0  0  0
   17.4287  -20.2262  -19.4083 N   0  0  0  0  0  0  0  0  0  0  0  0
  1  5  1  1  0  0  0
  1 14  1  0  0  0  0
  1 19  2  0  0  0  0
  1 23  1  0  0  0  0
  2 15  1  1  0  0  0
  2 20  2  0  0  0  0
  2 23  1  0  0  0  0
  2 24  1  0  0  0  0
  3 16  1  1  0  0  0
  3 21  1  0  0  0  0
  3 24  1  0  0  0  0
  3 25  2  0  0  0  0
  4  5  1  0  0  0  0
  6  4  1  1  0  0  0
  6  7  1  0  0  0  0
  6  8  1  0  0  0  0
  7 12  1  0  0  0  0
  8  9  1  6  0  0  0
  8 10  1  0  0  0  0
 10 11  1  6  0  0  0
 10 12  1  0  0  0  0
 12 32  1  1  0  0  0
 13 17  2  0  0  0  0
 13 28  1  0  0  0  0
 17 18  1  0  0  0  0
 17 22  1  0  0  0  0
 22 26  2  0  0  0  0
 26 27  1  0  0  0  0
 26 32  1  0  0  0  0
 27 28  2  0  0  0  0
 27 30  1  0  0  0  0
 28 29  1  0  0  0  0
 30 31  2  0  0  0  0
 31 32  1  0  0  0  0
M  CHG  3  14  -1  15  -1  21  -1
M  END
>  <CHROM.1>
-61.84512335,166.80558185,-61.03250686,173.62313587,179.74898711,-81.23757369
46.31549280,-73.98862231,19.97810253,-22.11131381,-19.78049902,0.38254506
0.04205571,-3.04858990

>  <Name>
ligand

>  <RI>
0

>  <Rbt.Current_Directory>
/home/itssahil/PROJECTS/Mol_Feturizer/New_Systems/rnas/4Y1I

>  <Rbt.Executable>
rbdock ($Id: //depot/dev/client3/rdock/2013.1/src/exe/rbdock.cxx#4 $)

>  <Rbt.Library>
libRbt.so (2013.1, Build901 2013/11/27)

>  <Rbt.Parameter_File>
/export/apps/rDock/src/rDock_2013.1_src/data/scripts/dock_solv.prm

>  <Rbt.Receptor>
prm/pocket_docking_6.prm

>  <SCORE>
-9.62944

>  <SCORE.INTER>
-2.72181

>  <SCORE.INTER.CONST>
1

>  <SCORE.INTER.POLAR>
0

>  <SCORE.INTER.ROT>
8

>  <SCORE.INTER.SOLV>
6.1008

>  <SCORE.INTER.VDW>
-12.7815

>  <SCORE.INTER.norm>
-0.0850566

>  <SCORE.INTRA>
-6.90762

>  <SCORE.INTRA.DIHEDRAL>
-8.71866

>  <SCORE.INTRA.DIHEDRAL.0>
10.9594

>  <SCORE.INTRA.POLAR>
0

>  <SCORE.INTRA.POLAR.0>
0

>  <SCORE.INTRA.REPUL>
0

>  <SCORE.INTRA.REPUL.0>
0

>  <SCORE.INTRA.SOLV>
-3.66909

>  <SCORE.INTRA.SOLV.lig_0>
-124.914

>  <SCORE.INTRA.VDW>
-0.713751

>  <SCORE.INTRA.VDW.0>
-4.69801

>  <SCORE.INTRA.norm>
-0.215863

>  <SCORE.RESTR>
0

>  <SCORE.RESTR.CAVITY>
0

>  <SCORE.RESTR.norm>
0

>  <SCORE.SYSTEM>
0

>  <SCORE.SYSTEM.CONST>
0

>  <SCORE.SYSTEM.DIHEDRAL>
0

>  <SCORE.SYSTEM.SOLV>
0

>  <SCORE.SYSTEM.norm>
0

>  <SCORE.heavy>
32

>  <SCORE.norm>
-0.30092

>  <RMSD>
8.012

$$$$
ligand
 OpenBabel11021811513D
libRbt.so/2013.1/901 2013/11/27
 32 34  0  0  0  0  0  0  0  0999 V2000
   15.4046  -18.0338  -21.6110 P   0  0  1  0  0  0  0  0  0  0  0  0
   13.0936  -18.9421  -20.1739 P   0  0  2  0  0  0  0  0  0  0  0  0
   11.2560  -19.9257  -18.1073 P   0  0  1  0  0  0  0  0  0  0  0  0
   17.6460  -19.3629  -21.6415 C   0  0  0  0  0  0  0  0  0  0  0  0
   17.0413  -18.1152  -21.4531 O   0  0  0  0  0  0  0  0  0  0  0  0
   18.9351  -19.3378  -21.1210 C   0  0  1  0  0  0  0  0  0  0  0  0
   18.8817  -19.1332  -19.6193 O   0  0  0  0  0  0  0  0  0  0  0  0
   19.6806  -20.7327  -21.3458 C   0  0  1  0  0  0  0  0  0  0  0  0
   20.8565  -20.5304  -22.2745 O   0  0  0  0  0  0  0  0  0  0  0  0
   20.1342  -21.0581  -20.2460 C   0  0  1  0  0  0  0  0  0  0  0  0
   21.5559  -20.6467  -20.1594 O   0  0  0  0  0  0  0  0  0  0  0  0
   19.2346  -20.2438  -19.1051 C   0  0  2  0  0  0  0  0  0  0  0  0
   17.2268  -24.8899  -18.2284 N   0  0  0  0  0  0  0  0  0  0  0  0
   14.9499  -16.6002  -21.4912 O   0  5  0  0  0  0  0  0  0  0  0  0
   12.4211  -19.6831  -21.3021 O   0  5  0  0  0  0  0  0  0  0  0  0
   10.4274  -20.6603  -19.1349 O   0  0  0  0  0  0  0  0  0  0  0  0
   18.4564  -24.5902  -18.6170 C   0  0  0  0  0  0  0  0  0  0  0  0
   19.4107  -25.6569  -18.8428 N   0  0  0  0  0  0  0  0  0  0  0  0
   15.0167  -18.6140  -22.9523 O   0  0  0  0  0  0  0  0  0  0  0  0
   12.5915  -17.5227  -20.1326 O   0  0  0  0  0  0  0  0  0  0  0  0
   11.3606  -20.7727  -16.8577 O   0  5  0  0  0  0  0  0  0  0  0  0
   18.8458  -23.3461  -18.8071 N   0  0  0  0  0  0  0  0  0  0  0  0
   14.7188  -18.9104  -20.4028 O   0  0  0  0  0  0  0  0  0  0  0  0
   12.7613  -19.6830  -18.7433 O   0  0  0  0  0  0  0  0  0  0  0  0
   10.5918  -18.6032  -17.7922 O   0  0  0  0  0  0  0  0  0  0  0  0
   17.9952  -22.3316  -18.6098 C   0  0  0  0  0  0  0  0  0  0  0  0
   16.7069  -22.6164  -18.2048 C   0  0  0  0  0  0  0  0  0  0  0  0
   16.3131  -23.9539  -18.0071 C   0  0  0  0  0  0  0  0  0  0  0  0
   15.0080  -24.2752  -17.5943 O   0  0  0  0  0  0  0  0  0  0  0  0
   16.0548  -21.4483  -18.0761 N   0  0  0  0  0  0  0  0  0  0  0  0
   16.9023  -20.4833  -18.3883 C   0  0  0  0  0  0  0  0  0  0  0  0
   18.0742  -20.9957  -18.7146 N   0  0  0  0  0  0  0  0  0  0  0  0
  1  5  1  1  0  0  0
  1 14  1  0  0  0  0
  1 19  2  0  0  0  0
  1 23  1  0  0  0  0
  2 15  1  6  0  0  0
  2 20  2  0  0  0  0
  2 23  1  0  0  0  0
  2 24  1  0  0  0  0
  3 16  1  6  0  0  0
  3 21  1  0  0  0  0
  3 24  1  0  0  0  0
  3 25  2  0  0  0  0
  4  5  1  0  0  0  0
  6  4  1  1  0  0  0
  6  7  1  0  0  0  0
  6  8  1  0  0  0  0
  7 12  1  0  0  0  0
  8  9  1  6  0  0  0
  8 10  1  0  0  0  0
 10 11  1  6  0  0  0
 10 12  1  0  0  0  0
 12 32  1  6  0  0  0
 13 17  2  0  0  0  0
 13 28  1  0  0  0  0
 17 18  1  0  0  0  0
 17 22  1  0  0  0  0
 22 26  2  0  0  0  0
 26 27  1  0  0  0  0
 26 32  1  0  0  0  0
 27 28  2  0  0  0  0
 27 30  1  0  0  0  0
 28 29  1  0  0  0  0
 30 31  2  0  0  0  0
 31 32  1  0  0  0  0
M  CHG  3  14  -1  15  -1  21  -1
M  END
>  <CHROM.1>
-175.18354099,69.12261950,54.96169318,64.41943246,-163.66908864,153.84442030
174.54761105,-59.34267392,15.82044217,-20.40858250,-19.69024083,-2.89208207
-0.25787434,2.55332570

>  <Name>
ligand

>  <RI>
0

>  <Rbt.Current_Directory>
/home/itssahil/PROJECTS/Mol_Feturizer/New_Systems/rnas/4Y1I

>  <Rbt.Executable>
rbdock ($Id: //depot/dev/client3/rdock/2013.1/src/exe/rbdock.cxx#4 $)

>  <Rbt.Library>
libRbt.so (2013.1, Build901 2013/11/27)

>  <Rbt.Parameter_File>
/export/apps/rDock/src/rDock_2013.1_src/data/scripts/dock_solv.prm

>  <Rbt.Receptor>
prm/pocket_docking_6.prm

>  <SCORE>
-13.196

>  <SCORE.INTER>
-7.26735

>  <SCORE.INTER.CONST>
1

>  <SCORE.INTER.POLAR>
0

>  <SCORE.INTER.ROT>
8

>  <SCORE.INTER.SOLV>
14.3658

>  <SCORE.INTER.VDW>
-18.5668

>  <SCORE.INTER.norm>
-0.227105

>  <SCORE.INTRA>
-5.92868

>  <SCORE.INTRA.DIHEDRAL>
-8.14405

>  <SCORE.INTRA.DIHEDRAL.0>
10.9594

>  <SCORE.INTRA.POLAR>
0

>  <SCORE.INTRA.POLAR.0>
0

>  <SCORE.INTRA.REPUL>
0

>  <SCORE.INTRA.REPUL.0>
0

>  <SCORE.INTRA.SOLV>
-3.20631

>  <SCORE.INTRA.SOLV.lig_0>
-124.914

>  <SCORE.INTRA.VDW>
-0.253499

>  <SCORE.INTRA.VDW.0>
-4.69801

>  <SCORE.INTRA.norm>
-0.185271

>  <SCORE.RESTR>
0

>  <SCORE.RESTR.CAVITY>
0

>  <SCORE.RESTR.norm>
0

>  <SCORE.SYSTEM>
0

>  <SCORE.SYSTEM.CONST>
0

>  <SCORE.SYSTEM.DIHEDRAL>
0

>  <SCORE.SYSTEM.SOLV>
0

>  <SCORE.SYSTEM.norm>
0

>  <SCORE.heavy>
32

>  <SCORE.norm>
-0.412376

>  <RMSD>
8.040

$$$$
ligand
 OpenBabel11021811513D
libRbt.so/2013.1/901 2013/11/27
 32 34  0  0  0  0  0  0  0  0999 V2000
   20.5075  -24.0425  -19.5462 P   0  0  1  0  0  0  0  0  0  0  0  0
   23.1898  -24.7592  -18.8231 P   0  0  2  0  0  0  0  0  0  0  0  0
   24.5954  -26.5425  -20.6831 P   0  0  1  0  0  0  0  0  0  0  0  0
   17.9825  -23.3978  -19.5641 C   0  0  0  0  0  0  0  0  0  0  0  0
   19.1109  -23.6401  -18.7730 O   0  0  0  0  0  0  0  0  0  0  0  0
   16.9049  -23.0707  -18.7487 C   0  0  1  0  0  0  0  0  0  0  0  0
   17.1600  -21.7416  -18.0643 O   0  0  0  0  0  0  0  0  0  0  0  0
   15.5685  -22.8737  -19.6016 C   0  0  1  0  0  0  0  0  0  0  0  0
   14.5682  -23.9423  -19.2227 O   0  0  0  0  0  0  0  0  0  0  0  0
   15.0968  -21.7894  -19.2509 C   0  0  1  0  0  0  0  0  0  0  0  0
   14.0561  -22.0165  -18.2198 O   0  0  0  0  0  0  0  0  0  0  0  0
   16.3575  -20.9133  -18.6051 C   0  0  2  0  0  0  0  0  0  0  0  0
   15.9279  -17.6417  -22.5418 N   0  0  0  0  0  0  0  0  0  0  0  0
   20.2671  -25.2219  -20.4557 O   0  5  0  0  0  0  0  0  0  0  0  0
   23.9437  -25.2981  -17.6335 O   0  5  0  0  0  0  0  0  0  0  0  0
   25.5572  -25.4353  -21.0453 O   0  0  0  0  0  0  0  0  0  0  0  0
   14.9617  -18.1607  -21.8004 C   0  0  0  0  0  0  0  0  0  0  0  0
   13.5844  -17.8057  -22.0769 N   0  0  0  0  0  0  0  0  0  0  0  0
   20.9906  -22.8438  -20.3312 O   0  0  0  0  0  0  0  0  0  0  0  0
   23.8184  -23.4675  -19.2758 O   0  0  0  0  0  0  0  0  0  0  0  0
   25.2386  -27.4385  -19.6471 O   0  5  0  0  0  0  0  0  0  0  0  0
   15.2107  -18.9953  -20.8119 N   0  0  0  0  0  0  0  0  0  0  0  0
   21.6268  -24.4613  -18.4191 O   0  0  0  0  0  0  0  0  0  0  0  0
   23.2338  -25.8508  -20.0530 O   0  0  0  0  0  0  0  0  0  0  0  0
   24.2626  -27.3338  -21.9291 O   0  0  0  0  0  0  0  0  0  0  0  0
   16.4690  -19.3492  -20.5237 C   0  0  0  0  0  0  0  0  0  0  0  0
   17.4953  -18.8228  -21.2817 C   0  0  0  0  0  0  0  0  0  0  0  0
   17.2055  -17.9318  -22.3330 C   0  0  0  0  0  0  0  0  0  0  0  0
   18.2296  -17.3790  -23.1220 O   0  0  0  0  0  0  0  0  0  0  0  0
   18.6485  -19.3216  -20.8047 N   0  0  0  0  0  0  0  0  0  0  0  0
   18.3488  -20.1217  -19.7964 C   0  0  0  0  0  0  0  0  0  0  0  0
   17.0419  -20.1531  -19.6141 N   0  0  0  0  0  0  0  0  0  0  0  0
  1  5  1  1  0  0  0
  1 14  1  0  0  0  0
  1 19  2  0  0  0  0
  1 23  1  0  0  0  0
  2 15  1  1  0  0  0
  2 20  2  0  0  0  0
  2 23  1  0  0  0  0
  2 24  1  0  0  0  0
  3 16  1  6  0  0  0
  3 21  1  0  0  0  0
  3 24  1  0  0  0  0
  3 25  2  0  0  0  0
  4  5  1  0  0  0  0
  6  4  1  6  0  0  0
  6  7  1  0  0  0  0
  6  8  1  0  0  0  0
  7 12  1  0  0  0  0
  8  9  1  1  0  0  0
  8 10  1  0  0  0  0
 10 11  1  1  0  0  0
 10 12  1  0  0  0  0
 12 32  1  6  0  0  0
 13 17  2  0  0  0  0
 13 28  1  0  0  0  0
 17 18  1  0  0  0  0
 17 22  1  0  0  0  0
 22 26  2  0  0  0  0
 26 27  1  0  0  0  0
 26 32  1  0  0  0  0
 27 28  2  0  0  0  0
 27 30  1  0  0  0  0
 28 29  1  0  0  0  0
 30 31  2  0  0  0  0
 31 32  1  0  0  0  0
M  CHG  3  14  -1  15  -1  21  -1
M  END
>  <CHROM.1>
-54.04236738,-172.37889547,-52.36090498,66.53739966,-179.83860441,168.69959985
-173.03728051,-52.98427431,19.51584826,-22.68947595,-20.00980131,0.59121802
-0.31374476,2.58243031

>  <Name>
ligand

>  <RI>
0

>  <Rbt.Current_Directory>
/home/itssahil/PROJECTS/Mol_Feturizer/New_Systems/rnas/4Y1I

>  <Rbt.Executable>
rbdock ($Id: //depot/dev/client3/rdock/2013.1/src/exe/rbdock.cxx#4 $)

>  <Rbt.Library>
libRbt.so (2013.1, Build901 2013/11/27)

>  <Rbt.Parameter_File>
/export/apps/rDock/src/rDock_2013.1_src/data/scripts/dock_solv.prm

>  <Rbt.Receptor>
prm/pocket_docking_7.prm

>  <SCORE>
-9.98527

>  <SCORE.INTER>
-3.4387

>  <SCORE.INTER.CONST>
1

>  <SCORE.INTER.POLAR>
0

>  <SCORE.INTER.ROT>
8

>  <SCORE.INTER.SOLV>
8.76172

>  <SCORE.INTER.VDW>
-14.1464

>  <SCORE.INTER.norm>
-0.107459

>  <SCORE.INTRA>
-6.54657

>  <SCORE.INTRA.DIHEDRAL>
-9.16654

>  <SCORE.INTRA.DIHEDRAL.0>
10.9594

>  <SCORE.INTRA.POLAR>
0

>  <SCORE.INTRA.POLAR.0>
0

>  <SCORE.INTRA.REPUL>
0

>  <SCORE.INTRA.REPUL.0>
0

>  <SCORE.INTRA.SOLV>
-4.19914

>  <SCORE.INTRA.SOLV.lig_0>
-124.914

>  <SCORE.INTRA.VDW>
0.136273

>  <SCORE.INTRA.VDW.0>
-4.69801

>  <SCORE.INTRA.norm>
-0.20458

>  <SCORE.RESTR>
0

>  <SCORE.RESTR.CAVITY>
0

>  <SCORE.RESTR.norm>
0

>  <SCORE.SYSTEM>
0

>  <SCORE.SYSTEM.CONST>
0

>  <SCORE.SYSTEM.DIHEDRAL>
0

>  <SCORE.SYSTEM.SOLV>
0

>  <SCORE.SYSTEM.norm>
0

>  <SCORE.heavy>
32

>  <SCORE.norm>
-0.31204

>  <RMSD>
8.057

$$$$
ligand
 OpenBabel11021811513D
libRbt.so/2013.1/901 2013/11/27
 32 34  0  0  0  0  0  0  0  0999 V2000
   20.5008  -22.9257  -24.2084 P   0  0  1  0  0  0  0  0  0  0  0  0
   21.1594  -24.7435  -22.0888 P   0  0  2  0  0  0  0  0  0  0  0  0
   21.4921  -23.3489  -19.5276 P   0  0  1  0  0  0  0  0  0  0  0  0
   20.1984  -20.7334  -22.8321 C   0  0  0  0  0  0  0  0  0  0  0  0
   21.1057  -21.5788  -23.4803 O   0  0  0  0  0  0  0  0  0  0  0  0
   20.8636  -19.6017  -22.3738 C   0  0  1  0  0  0  0  0  0  0  0  0
   19.8649  -18.6064  -21.8155 O   0  0  0  0  0  0  0  0  0  0  0  0
   21.8496  -19.9550  -21.1675 C   0  0  1  0  0  0  0  0  0  0  0  0
   23.2779  -19.7043  -21.5957 O   0  0  0  0  0  0  0  0  0  0  0  0
   21.5903  -19.1513  -20.2686 C   0  0  1  0  0  0  0  0  0  0  0  0
   22.5453  -18.0190  -20.3309 O   0  0  0  0  0  0  0  0  0  0  0  0
   20.0422  -18.6076  -20.5541 C   0  0  2  0  0  0  0  0  0  0  0  0
   15.1326  -20.1099  -20.3979 N   0  0  0  0  0  0  0  0  0  0  0  0
   19.2871  -22.5629  -25.0278 O   0  5  0  0  0  0  0  0  0  0  0  0
   22.2036  -25.4263  -22.9359 O   0  5  0  0  0  0  0  0  0  0  0  0
   22.1665  -22.0643  -19.1064 O   0  0  0  0  0  0  0  0  0  0  0  0
   15.6912  -19.2226  -21.2062 C   0  0  0  0  0  0  0  0  0  0  0  0
   14.8752  -18.5508  -22.1975 N   0  0  0  0  0  0  0  0  0  0  0  0
   21.5784  -23.5333  -25.0777 O   0  0  0  0  0  0  0  0  0  0  0  0
   20.4442  -25.7675  -21.2469 O   0  0  0  0  0  0  0  0  0  0  0  0
   19.9939  -23.1919  -19.3851 O   0  5  0  0  0  0  0  0  0  0  0  0
   16.9733  -18.9268  -21.1405 N   0  0  0  0  0  0  0  0  0  0  0  0
   20.0539  -23.9936  -23.0428 O   0  0  0  0  0  0  0  0  0  0  0  0
   21.8746  -23.6318  -21.1097 O   0  0  0  0  0  0  0  0  0  0  0  0
   21.9886  -24.4771  -18.6501 O   0  0  0  0  0  0  0  0  0  0  0  0
   17.7618  -19.5245  -20.2391 C   0  0  0  0  0  0  0  0  0  0  0  0
   17.2045  -20.4534  -19.3837 C   0  0  0  0  0  0  0  0  0  0  0  0
   15.8317  -20.7543  -19.4728 C   0  0  0  0  0  0  0  0  0  0  0  0
   15.2357  -21.6962  -18.6158 O   0  0  0  0  0  0  0  0  0  0  0  0
   18.1845  -20.9067  -18.5835 N   0  0  0  0  0  0  0  0  0  0  0  0
   19.2988  -20.2853  -18.9282 C   0  0  0  0  0  0  0  0  0  0  0  0
   19.0636  -19.4478  -19.9209 N   0  0  0  0  0  0  0  0  0  0  0  0
  1  5  1  1  0  0  0
  1 14  1  0  0  0  0
  1 19  2  0  0  0  0
  1 23  1  0  0  0  0
  2 15  1  6  0  0  0
  2 20  2  0  0  0  0
  2 23  1  0  0  0  0
  2 24  1  0  0  0  0
  3 16  1  1  0  0  0
  3 21  1  0  0  0  0
  3 24  1  0  0  0  0
  3 25  2  0  0  0  0
  4  5  1  0  0  0  0
  6  4  1  1  0  0  0
  6  7  1  0  0  0  0
  6  8  1  0  0  0  0
  7 12  1  0  0  0  0
  8  9  1  6  0  0  0
  8 10  1  0  0  0  0
 10 11  1  6  0  0  0
 10 12  1  0  0  0  0
 12 32  1  1  0  0  0
 13 17  2  0  0  0  0
 13 28  1  0  0  0  0
 17 18  1  0  0  0  0
 17 22  1  0  0  0  0
 22 26  2  0  0  0  0
 26 27  1  0  0  0  0
 26 32  1  0  0  0  0
 27 28  2  0  0  0  0
 27 30  1  0  0  0  0
 28 29  1  0  0  0  0
 30 31  2  0  0  0  0
 31 32  1  0  0  0  0
M  CHG  3  14  -1  15  -1  21  -1
M  END
>  <CHROM.1>
46.79857272,-53.45133544,-167.76866225,173.37602367,-175.17234792,-41.17452766
-68.30493207,-139.17325115,19.90512618,-21.63457616,-21.25082313,0.80868923
-0.06703169,-2.78258460

>  <Name>
ligand

>  <RI>
0

>  <Rbt.Current_Directory>
/home/itssahil/PROJECTS/Mol_Feturizer/New_Systems/rnas/4Y1I

>  <Rbt.Executable>
rbdock ($Id: //depot/dev/client3/rdock/2013.1/src/exe/rbdock.cxx#4 $)

>  <Rbt.Library>
libRbt.so (2013.1, Build901 2013/11/27)

>  <Rbt.Parameter_File>
/export/apps/rDock/src/rDock_2013.1_src/data/scripts/dock_solv.prm

>  <Rbt.Receptor>
prm/pocket_docking_8.prm

>  <SCORE>
-6.38641

>  <SCORE.INTER>
0.226756

>  <SCORE.INTER.CONST>
1

>  <SCORE.INTER.POLAR>
0

>  <SCORE.INTER.ROT>
8

>  <SCORE.INTER.SOLV>
6.91937

>  <SCORE.INTER.VDW>
-11.0886

>  <SCORE.INTER.norm>
0.00708613

>  <SCORE.INTRA>
-6.61317

>  <SCORE.INTRA.DIHEDRAL>
-6.9607

>  <SCORE.INTRA.DIHEDRAL.0>
10.9594

>  <SCORE.INTRA.POLAR>
0

>  <SCORE.INTRA.POLAR.0>
0

>  <SCORE.INTRA.REPUL>
0

>  <SCORE.INTRA.REPUL.0>
0

>  <SCORE.INTRA.SOLV>
-2.25208

>  <SCORE.INTRA.SOLV.lig_0>
-124.914

>  <SCORE.INTRA.VDW>
-2.00678

>  <SCORE.INTRA.VDW.0>
-4.69801

>  <SCORE.INTRA.norm>
-0.206662

>  <SCORE.RESTR>
0

>  <SCORE.RESTR.CAVITY>
0

>  <SCORE.RESTR.norm>
0

>  <SCORE.SYSTEM>
0

>  <SCORE.SYSTEM.CONST>
0

>  <SCORE.SYSTEM.DIHEDRAL>
0

>  <SCORE.SYSTEM.SOLV>
0

>  <SCORE.SYSTEM.norm>
0

>  <SCORE.heavy>
32

>  <SCORE.norm>
-0.199575

>  <RMSD>
8.061

$$$$
ligand
 OpenBabel11021811513D
libRbt.so/2013.1/901 2013/11/27
 32 34  0  0  0  0  0  0  0  0999 V2000
   14.8361  -18.6754  -21.6283 P   0  0  1  0  0  0  0  0  0  0  0  0
   13.0496  -19.6176  -19.5907 P   0  0  2  0  0  0  0  0  0  0  0  0
   10.3765  -19.8057  -20.7884 P   0  0  1  0  0  0  0  0  0  0  0  0
   17.2722  -19.5988  -21.5650 C   0  0  0  0  0  0  0  0  0  0  0  0
   16.3722  -18.6669  -21.0363 O   0  0  0  0  0  0  0  0  0  0  0  0
   18.5560  -19.3121  -21.1146 C   0  0  1  0  0  0  0  0  0  0  0  0
   18.5581  -19.1922  -19.6028 O   0  0  0  0  0  0  0  0  0  0  0  0
   19.5719  -20.4955  -21.4606 C   0  0  1  0  0  0  0  0  0  0  0  0
   20.6115  -19.9960  -22.4382 O   0  0  0  0  0  0  0  0  0  0  0  0
   20.1569  -20.7614  -20.4078 C   0  0  1  0  0  0  0  0  0  0  0  0
   21.4569  -20.0495  -20.3745 O   0  0  0  0  0  0  0  0  0  0  0  0
   19.1782  -20.2190  -19.1742 C   0  0  2  0  0  0  0  0  0  0  0  0
   18.3507  -25.2114  -18.2933 N   0  0  0  0  0  0  0  0  0  0  0  0
   14.6778  -17.5820  -22.6557 O   0  5  0  0  0  0  0  0  0  0  0  0
   12.3734  -19.0967  -18.3474 O   0  5  0  0  0  0  0  0  0  0  0  0
    9.7405  -19.6850  -19.4234 O   0  0  0  0  0  0  0  0  0  0  0  0
   19.4652  -24.6271  -18.7047 C   0  0  0  0  0  0  0  0  0  0  0  0
   20.6404  -25.4359  -18.9585 N   0  0  0  0  0  0  0  0  0  0  0  0
   14.5570  -20.0321  -22.2349 O   0  0  0  0  0  0  0  0  0  0  0  0
   14.0881  -20.6398  -19.2095 O   0  0  0  0  0  0  0  0  0  0  0  0
   10.3642  -18.4510  -21.4623 O   0  5  0  0  0  0  0  0  0  0  0  0
   19.5438  -23.3256  -18.8929 N   0  0  0  0  0  0  0  0  0  0  0  0
   13.7965  -18.3925  -20.3881 O   0  0  0  0  0  0  0  0  0  0  0  0
   11.9358  -20.3114  -20.5827 O   0  0  0  0  0  0  0  0  0  0  0  0
    9.5956  -20.8087  -21.6092 O   0  0  0  0  0  0  0  0  0  0  0  0
   18.4811  -22.5428  -18.6701 C   0  0  0  0  0  0  0  0  0  0  0  0
   17.3064  -23.1267  -18.2410 C   0  0  0  0  0  0  0  0  0  0  0  0
   17.2459  -24.5200  -18.0459 C   0  0  0  0  0  0  0  0  0  0  0  0
   16.0637  -25.1433  -17.6090 O   0  0  0  0  0  0  0  0  0  0  0  0
   16.3986  -22.1473  -18.0898 N   0  0  0  0  0  0  0  0  0  0  0  0
   16.9856  -21.0077  -18.4117 C   0  0  0  0  0  0  0  0  0  0  0  0
   18.2382  -21.2261  -18.7660 N   0  0  0  0  0  0  0  0  0  0  0  0
  1  5  1  1  0  0  0
  1 14  1  0  0  0  0
  1 19  2  0  0  0  0
  1 23  1  0  0  0  0
  2 15  1  1  0  0  0
  2 20  2  0  0  0  0
  2 23  1  0  0  0  0
  2 24  1  0  0  0  0
  3 16  1  1  0  0  0
  3 21  1  0  0  0  0
  3 24  1  0  0  0  0
  3 25  2  0  0  0  0
  4  5  1  0  0  0  0
  6  4  1  1  0  0  0
  6  7  1  0  0  0  0
  6  8  1  0  0  0  0
  7 12  1  0  0  0  0
  8  9  1  6  0  0  0
  8 10  1  0  0  0  0
 10 11  1  6  0  0  0
 10 12  1  0  0  0  0
 12 32  1  6  0  0  0
 13 17  2  0  0  0  0
 13 28  1  0  0  0  0
 17 18  1  0  0  0  0
 17 22  1  0  0  0  0
 22 26  2  0  0  0  0
 26 27  1  0  0  0  0
 26 32  1  0  0  0  0
 27 28  2  0  0  0  0
 27 30  1  0  0  0  0
 28 29  1  0  0  0  0
 30 31  2  0  0  0  0
 31 32  1  0  0  0  0
M  CHG  3  14  -1  15  -1  21  -1
M  END
>  <CHROM.1>
-99.41646573,169.06375278,-52.03177905,52.27571050,170.54885755,157.47520097
-96.15377693,35.02552996,15.75242380,-20.67728985,-20.05954208,-2.76149360
-0.07192249,2.57178176

>  <Name>
ligand

>  <RI>
0

>  <Rbt.Current_Directory>
/home/itssahil/PROJECTS/Mol_Feturizer/New_Systems/rnas/4Y1I

>  <Rbt.Executable>
rbdock ($Id: //depot/dev/client3/rdock/2013.1/src/exe/rbdock.cxx#4 $)

>  <Rbt.Library>
libRbt.so (2013.1, Build901 2013/11/27)

>  <Rbt.Parameter_File>
/export/apps/rDock/src/rDock_2013.1_src/data/scripts/dock_solv.prm

>  <Rbt.Receptor>
prm/pocket_docking_7.prm

>  <SCORE>
-8.755

>  <SCORE.INTER>
-4.40498

>  <SCORE.INTER.CONST>
1

>  <SCORE.INTER.POLAR>
0

>  <SCORE.INTER.ROT>
8

>  <SCORE.INTER.SOLV>
9.9417

>  <SCORE.INTER.VDW>
-15.1839

>  <SCORE.INTER.norm>
-0.137656

>  <SCORE.INTRA>
-4.35922

>  <SCORE.INTRA.DIHEDRAL>
-4.61925

>  <SCORE.INTRA.DIHEDRAL.0>
10.9594

>  <SCORE.INTRA.POLAR>
0

>  <SCORE.INTRA.POLAR.0>
0

>  <SCORE.INTRA.REPUL>
0

>  <SCORE.INTRA.REPUL.0>
0

>  <SCORE.INTRA.SOLV>
-4.05515

>  <SCORE.INTRA.SOLV.lig_0>
-124.914

>  <SCORE.INTRA.VDW>
-0.0220206

>  <SCORE.INTRA.VDW.0>
-4.69801

>  <SCORE.INTRA.norm>
-0.136226

>  <SCORE.RESTR>
0.0092057

>  <SCORE.RESTR.CAVITY>
0.0092057

>  <SCORE.RESTR.norm>
0.000287678

>  <SCORE.SYSTEM>
0

>  <SCORE.SYSTEM.CONST>
0

>  <SCORE.SYSTEM.DIHEDRAL>
0

>  <SCORE.SYSTEM.SOLV>
0

>  <SCORE.SYSTEM.norm>
0

>  <SCORE.heavy>
32

>  <SCORE.norm>
-0.273594

>  <RMSD>
8.081

$$$$
ligand
 OpenBabel11021811513D
libRbt.so/2013.1/901 2013/11/27
 32 34  0  0  0  0  0  0  0  0999 V2000
   14.9648  -21.1997  -19.2416 P   0  0  1  0  0  0  0  0  0  0  0  0
   13.4568  -19.4152  -20.9067 P   0  0  2  0  0  0  0  0  0  0  0  0
   12.5640  -20.5538  -23.4604 P   0  0  1  0  0  0  0  0  0  0  0  0
   17.3825  -20.4359  -18.6394 C   0  0  0  0  0  0  0  0  0  0  0  0
   16.2373  -21.1098  -18.2009 O   0  0  0  0  0  0  0  0  0  0  0  0
   18.0568  -21.2211  -19.5679 C   0  0  1  0  0  0  0  0  0  0  0  0
   18.9005  -20.3425  -20.4714 O   0  0  0  0  0  0  0  0  0  0  0  0
   19.0776  -22.2205  -18.8528 C   0  0  1  0  0  0  0  0  0  0  0  0
   18.6327  -23.6464  -19.0875 O   0  0  0  0  0  0  0  0  0  0  0  0
   20.1582  -22.0743  -19.4292 C   0  0  1  0  0  0  0  0  0  0  0  0
   20.3099  -23.1259  -20.4632 O   0  0  0  0  0  0  0  0  0  0  0  0
   20.1106  -20.5720  -20.1467 C   0  0  2  0  0  0  0  0  0  0  0  0
   24.1889  -18.1856  -18.1323 N   0  0  0  0  0  0  0  0  0  0  0  0
   15.3049  -22.1208  -20.3870 O   0  5  0  0  0  0  0  0  0  0  0  0
   13.5410  -18.0044  -21.4328 O   0  5  0  0  0  0  0  0  0  0  0  0
   11.1422  -20.6105  -22.9530 O   0  0  0  0  0  0  0  0  0  0  0  0
   24.1722  -19.1834  -19.0023 C   0  0  0  0  0  0  0  0  0  0  0  0
   25.4255  -19.7210  -19.4921 N   0  0  0  0  0  0  0  0  0  0  0  0
   13.7542  -21.7000  -18.4863 O   0  0  0  0  0  0  0  0  0  0  0  0
   12.1430  -19.6111  -20.1965 O   0  0  0  0  0  0  0  0  0  0  0  0
   12.7389  -19.3117  -24.3066 O   0  5  0  0  0  0  0  0  0  0  0  0
   23.0469  -19.7087  -19.4420 N   0  0  0  0  0  0  0  0  0  0  0  0
   14.6706  -19.6976  -19.8382 O   0  0  0  0  0  0  0  0  0  0  0  0
   13.5710  -20.4832  -22.1526 O   0  0  0  0  0  0  0  0  0  0  0  0
   12.8443  -21.7934  -24.2816 O   0  0  0  0  0  0  0  0  0  0  0  0
   21.8677  -19.2414  -19.0145 C   0  0  0  0  0  0  0  0  0  0  0  0
   21.8568  -18.2017  -18.1067 C   0  0  0  0  0  0  0  0  0  0  0  0
   23.0721  -17.6553  -17.6512 C   0  0  0  0  0  0  0  0  0  0  0  0
   23.0929  -16.5956  -16.7273 O   0  0  0  0  0  0  0  0  0  0  0  0
   20.5724  -17.9145  -17.8348 N   0  0  0  0  0  0  0  0  0  0  0  0
   19.8217  -18.7405  -18.5427 C   0  0  0  0  0  0  0  0  0  0  0  0
   20.5835  -19.5480  -19.2567 N   0  0  0  0  0  0  0  0  0  0  0  0
  1  5  1  1  0  0  0
  1 14  1  0  0  0  0
  1 19  2  0  0  0  0
  1 23  1  0  0  0  0
  2 15  1  6  0  0  0
  2 20  2  0  0  0  0
  2 23  1  0  0  0  0
  2 24  1  0  0  0  0
  3 16  1  1  0  0  0
  3 21  1  0  0  0  0
  3 24  1  0  0  0  0
  3 25  2  0  0  0  0
  4  5  1  0  0  0  0
  6  4  1  1  0  0  0
  6  7  1  0  0  0  0
  6  8  1  0  0  0  0
  7 12  1  0  0  0  0
  8  9  1  6  0  0  0
  8 10  1  0  0  0  0
 10 11  1  6  0  0  0
 10 12  1  0  0  0  0
 12 32  1  1  0  0  0
 13 17  2  0  0  0  0
 13 28  1  0  0  0  0
 17 18  1  0  0  0  0
 17 22  1  0  0  0  0
 22 26  2  0  0  0  0
 26 27  1  0  0  0  0
 26 32  1  0  0  0  0
 27 28  2  0  0  0  0
 27 30  1  0  0  0  0
 28 29  1  0  0  0  0
 30 31  2  0  0  0  0
 31 32  1  0  0  0  0
M  CHG  3  14  -1  15  -1  21  -1
M  END
>  <CHROM.1>
70.06886871,-171.87935205,-51.85671378,155.62485064,-73.88504855,-159.73226354
-179.67831877,-58.32519262,17.37641223,-20.19346031,-20.07067014,-2.97943489
-0.32414088,0.12985043

>  <Name>
ligand

>  <RI>
0

>  <Rbt.Current_Directory>
/home/itssahil/PROJECTS/Mol_Feturizer/New_Systems/rnas/4Y1I

>  <Rbt.Executable>
rbdock ($Id: //depot/dev/client3/rdock/2013.1/src/exe/rbdock.cxx#4 $)

>  <Rbt.Library>
libRbt.so (2013.1, Build901 2013/11/27)

>  <Rbt.Parameter_File>
/export/apps/rDock/src/rDock_2013.1_src/data/scripts/dock_solv.prm

>  <Rbt.Receptor>
prm/pocket_docking_8.prm

>  <SCORE>
-9.05494

>  <SCORE.INTER>
-4.95441

>  <SCORE.INTER.CONST>
1

>  <SCORE.INTER.POLAR>
0

>  <SCORE.INTER.ROT>
8

>  <SCORE.INTER.SOLV>
6.9321

>  <SCORE.INTER.VDW>
-14.547

>  <SCORE.INTER.norm>
-0.154825

>  <SCORE.INTRA>
-4.10053

>  <SCORE.INTRA.DIHEDRAL>
-6.55613

>  <SCORE.INTRA.DIHEDRAL.0>
10.9594

>  <SCORE.INTRA.POLAR>
0

>  <SCORE.INTRA.POLAR.0>
0

>  <SCORE.INTRA.REPUL>
0

>  <SCORE.INTRA.REPUL.0>
0

>  <SCORE.INTRA.SOLV>
-2.72688

>  <SCORE.INTRA.SOLV.lig_0>
-124.914

>  <SCORE.INTRA.VDW>
0.540972

>  <SCORE.INTRA.VDW.0>
-4.69801

>  <SCORE.INTRA.norm>
-0.128142

>  <SCORE.RESTR>
0

>  <SCORE.RESTR.CAVITY>
0

>  <SCORE.RESTR.norm>
0

>  <SCORE.SYSTEM>
0

>  <SCORE.SYSTEM.CONST>
0

>  <SCORE.SYSTEM.DIHEDRAL>
0

>  <SCORE.SYSTEM.SOLV>
0

>  <SCORE.SYSTEM.norm>
0

>  <SCORE.heavy>
32

>  <SCORE.norm>
-0.282967

>  <RMSD>
8.101

$$$$
ligand
 OpenBabel11021811513D
libRbt.so/2013.1/901 2013/11/27
 32 34  0  0  0  0  0  0  0  0999 V2000
   21.1413  -22.5956  -19.7411 P   0  0  1  0  0  0  0  0  0  0  0  0
   21.8668  -25.1841  -18.7389 P   0  0  2  0  0  0  0  0  0  0  0  0
   24.6175  -25.6142  -17.8096 P   0  0  1  0  0  0  0  0  0  0  0  0
   18.5375  -22.5098  -19.8041 C   0  0  0  0  0  0  0  0  0  0  0  0
   19.6773  -22.5161  -18.9925 O   0  0  0  0  0  0  0  0  0  0  0  0
   17.4012  -22.4123  -19.0088 C   0  0  1  0  0  0  0  0  0  0  0  0
   17.2669  -21.0007  -18.4710 O   0  0  0  0  0  0  0  0  0  0  0  0
   16.0738  -22.6861  -19.8544 C   0  0  1  0  0  0  0  0  0  0  0  0
   15.4064  -23.9452  -19.3490 O   0  0  0  0  0  0  0  0  0  0  0  0
   15.3140  -21.7456  -19.6105 C   0  0  1  0  0  0  0  0  0  0  0  0
   14.3651  -22.1443  -18.5435 O   0  0  0  0  0  0  0  0  0  0  0  0
   16.2721  -20.4903  -19.0812 C   0  0  2  0  0  0  0  0  0  0  0  0
   15.0435  -16.9968  -22.6409 N   0  0  0  0  0  0  0  0  0  0  0  0
   20.9798  -23.1885  -21.1190 O   0  5  0  0  0  0  0  0  0  0  0  0
   21.9659  -25.8310  -20.0975 O   0  5  0  0  0  0  0  0  0  0  0  0
   25.0325  -25.7396  -19.2568 O   0  0  0  0  0  0  0  0  0  0  0  0
   14.2564  -17.5491  -21.7310 C   0  0  0  0  0  0  0  0  0  0  0  0
   12.8597  -17.1677  -21.6729 N   0  0  0  0  0  0  0  0  0  0  0  0
   21.7243  -21.2025  -19.8167 O   0  0  0  0  0  0  0  0  0  0  0  0
   20.4871  -25.4027  -18.1755 O   0  0  0  0  0  0  0  0  0  0  0  0
   24.9666  -24.2284  -17.3123 O   0  5  0  0  0  0  0  0  0  0  0  0
   14.7021  -18.4406  -20.8694 N   0  0  0  0  0  0  0  0  0  0  0  0
   22.1278  -23.5678  -18.8577 O   0  0  0  0  0  0  0  0  0  0  0  0
   22.9833  -25.8411  -17.7251 O   0  0  0  0  0  0  0  0  0  0  0  0
   25.3433  -26.6633  -16.9959 O   0  0  0  0  0  0  0  0  0  0  0  0
   15.9854  -18.8205  -20.8895 C   0  0  0  0  0  0  0  0  0  0  0  0
   16.8276  -18.2604  -21.8286 C   0  0  0  0  0  0  0  0  0  0  0  0
   16.3292  -17.3087  -22.7391 C   0  0  0  0  0  0  0  0  0  0  0  0
   17.1628  -16.7203  -23.7065 O   0  0  0  0  0  0  0  0  0  0  0  0
   18.0475  -18.7949  -21.6491 N   0  0  0  0  0  0  0  0  0  0  0  0
   17.9636  -19.6486  -20.6437 C   0  0  0  0  0  0  0  0  0  0  0  0
   16.7299  -19.6795  -20.1755 N   0  0  0  0  0  0  0  0  0  0  0  0
  1  5  1  1  0  0  0
  1 14  1  0  0  0  0
  1 19  2  0  0  0  0
  1 23  1  0  0  0  0
  2 15  1  6  0  0  0
  2 20  2  0  0  0  0
  2 23  1  0  0  0  0
  2 24  1  0  0  0  0
  3 16  1  6  0  0  0
  3 21  1  0  0  0  0
  3 24  1  0  0  0  0
  3 25  2  0  0  0  0
  4  5  1  0  0  0  0
  6  4  1  6  0  0  0
  6  7  1  0  0  0  0
  6  8  1  0  0  0  0
  7 12  1  0  0  0  0
  8  9  1  1  0  0  0
  8 10  1  0  0  0  0
 10 11  1  1  0  0  0
 10 12  1  0  0  0  0
 12 32  1  6  0  0  0
 13 17  2  0  0  0  0
 13 28  1  0  0  0  0
 17 18  1  0  0  0  0
 17 22  1  0  0  0  0
 22 26  2  0  0  0  0
 26 27  1  0  0  0  0
 26 32  1  0  0  0  0
 27 28  2  0  0  0  0
 27 30  1  0  0  0  0
 28 29  1  0  0  0  0
 30 31  2  0  0  0  0
 31 32  1  0  0  0  0
M  CHG  3  14  -1  15  -1  21  -1
M  END
>  <CHROM.1>
-22.48472680,62.07674261,-44.32553493,74.08008340,-178.80971627,-168.09034862
68.60023811,70.81819769,19.28350060,-22.11925986,-19.72213151,-0.72495659
0.11375983,-0.55082511

>  <Name>
ligand

>  <RI>
0

>  <Rbt.Current_Directory>
/home/itssahil/PROJECTS/Mol_Feturizer/New_Systems/rnas/4Y1I

>  <Rbt.Executable>
rbdock ($Id: //depot/dev/client3/rdock/2013.1/src/exe/rbdock.cxx#4 $)

>  <Rbt.Library>
libRbt.so (2013.1, Build901 2013/11/27)

>  <Rbt.Parameter_File>
/export/apps/rDock/src/rDock_2013.1_src/data/scripts/dock_solv.prm

>  <Rbt.Receptor>
prm/pocket_docking_8.prm

>  <SCORE>
-11.754

>  <SCORE.INTER>
-6.41263

>  <SCORE.INTER.CONST>
1

>  <SCORE.INTER.POLAR>
0

>  <SCORE.INTER.ROT>
8

>  <SCORE.INTER.SOLV>
14.5567

>  <SCORE.INTER.VDW>
-18.0606

>  <SCORE.INTER.norm>
-0.200395

>  <SCORE.INTRA>
-5.34142

>  <SCORE.INTRA.DIHEDRAL>
-6.6378

>  <SCORE.INTRA.DIHEDRAL.0>
10.9594

>  <SCORE.INTRA.POLAR>
0

>  <SCORE.INTRA.POLAR.0>
0

>  <SCORE.INTRA.REPUL>
0

>  <SCORE.INTRA.REPUL.0>
0

>  <SCORE.INTRA.SOLV>
-5.02494

>  <SCORE.INTRA.SOLV.lig_0>
-124.914

>  <SCORE.INTRA.VDW>
0.489953

>  <SCORE.INTRA.VDW.0>
-4.69801

>  <SCORE.INTRA.norm>
-0.166919

>  <SCORE.RESTR>
0

>  <SCORE.RESTR.CAVITY>
0

>  <SCORE.RESTR.norm>
0

>  <SCORE.SYSTEM>
0

>  <SCORE.SYSTEM.CONST>
0

>  <SCORE.SYSTEM.DIHEDRAL>
0

>  <SCORE.SYSTEM.SOLV>
0

>  <SCORE.SYSTEM.norm>
0

>  <SCORE.heavy>
32

>  <SCORE.norm>
-0.367314

>  <RMSD>
8.122

$$$$
ligand
 OpenBabel11021811513D
libRbt.so/2013.1/901 2013/11/27
 32 34  0  0  0  0  0  0  0  0999 V2000
   19.4131  -19.8135  -20.4700 P   0  0  1  0  0  0  0  0  0  0  0  0
   16.6313  -19.6298  -21.1475 P   0  0  2  0  0  0  0  0  0  0  0  0
   15.2740  -21.3135  -19.1630 P   0  0  1  0  0  0  0  0  0  0  0  0
   19.2761  -22.0822  -19.1948 C   0  0  0  0  0  0  0  0  0  0  0  0
   19.3273  -21.4574  -20.4458 O   0  0  0  0  0  0  0  0  0  0  0  0
   19.1495  -23.4561  -19.3665 C   0  0  1  0  0  0  0  0  0  0  0  0
   20.2843  -23.9756  -20.2280 O   0  0  0  0  0  0  0  0  0  0  0  0
   19.2683  -24.2299  -17.9739 C   0  0  1  0  0  0  0  0  0  0  0  0
   17.9517  -24.9030  -17.6588 O   0  0  0  0  0  0  0  0  0  0  0  0
   20.1027  -25.1211  -18.1491 C   0  0  1  0  0  0  0  0  0  0  0  0
   19.4062  -26.3922  -18.4609 O   0  0  0  0  0  0  0  0  0  0  0  0
   21.0331  -24.6478  -19.4469 C   0  0  2  0  0  0  0  0  0  0  0  0
   25.6135  -24.5576  -17.1240 N   0  0  0  0  0  0  0  0  0  0  0  0
   20.3303  -19.3330  -19.3728 O   0  5  0  0  0  0  0  0  0  0  0  0
   17.0622  -19.7604  -22.5868 O   0  5  0  0  0  0  0  0  0  0  0  0
   14.1157  -20.3496  -19.0553 O   0  0  0  0  0  0  0  0  0  0  0  0
   24.8185  -25.5969  -17.3246 C   0  0  0  0  0  0  0  0  0  0  0  0
   25.2274  -26.9060  -16.8568 N   0  0  0  0  0  0  0  0  0  0  0  0
   19.9155  -19.3734  -21.8265 O   0  0  0  0  0  0  0  0  0  0  0  0
   15.5802  -18.5573  -21.0308 O   0  0  0  0  0  0  0  0  0  0  0  0
   14.7470  -22.7305  -19.0991 O   0  5  0  0  0  0  0  0  0  0  0  0
   23.6592  -25.4818  -17.9398 N   0  0  0  0  0  0  0  0  0  0  0  0
   17.9088  -19.2079  -20.2069 O   0  0  0  0  0  0  0  0  0  0  0  0
   16.0160  -21.0603  -20.6172 O   0  0  0  0  0  0  0  0  0  0  0  0
   16.2357  -21.0581  -18.0232 O   0  0  0  0  0  0  0  0  0  0  0  0
   23.2442  -24.2905  -18.3872 C   0  0  0  0  0  0  0  0  0  0  0  0
   24.0540  -23.1902  -18.1905 C   0  0  0  0  0  0  0  0  0  0  0  0
   25.2895  -23.3372  -17.5310 C   0  0  0  0  0  0  0  0  0  0  0  0
   26.1360  -22.2353  -17.3166 O   0  0  0  0  0  0  0  0  0  0  0  0
   23.4277  -22.1260  -18.7210 N   0  0  0  0  0  0  0  0  0  0  0  0
   22.2807  -22.5492  -19.2233 C   0  0  0  0  0  0  0  0  0  0  0  0
   22.1516  -23.8484  -19.0295 N   0  0  0  0  0  0  0  0  0  0  0  0
  1  5  1  1  0  0  0
  1 14  1  0  0  0  0
  1 19  2  0  0  0  0
  1 23  1  0  0  0  0
  2 15  1  6  0  0  0
  2 20  2  0  0  0  0
  2 23  1  0  0  0  0
  2 24  1  0  0  0  0
  3 16  1  1  0  0  0
  3 21  1  0  0  0  0
  3 24  1  0  0  0  0
  3 25  2  0  0  0  0
  4  5  1  0  0  0  0
  6  4  1  1  0  0  0
  6  7  1  0  0  0  0
  6  8  1  0  0  0  0
  7 12  1  0  0  0  0
  8  9  1  6  0  0  0
  8 10  1  0  0  0  0
 10 11  1  6  0  0  0
 10 12  1  0  0  0  0
 12 32  1  1  0  0  0
 13 17  2  0  0  0  0
 13 28  1  0  0  0  0
 17 18  1  0  0  0  0
 17 22  1  0  0  0  0
 22 26  2  0  0  0  0
 26 27  1  0  0  0  0
 26 32  1  0  0  0  0
 27 28  2  0  0  0  0
 27 30  1  0  0  0  0
 28 29  1  0  0  0  0
 30 31  2  0  0  0  0
 31 32  1  0  0  0  0
M  CHG  3  14  -1  15  -1  21  -1
M  END
>  <CHROM.1>
39.74154553,-37.97799822,56.47071601,55.95680672,177.47646830,-168.57660192
-55.54447153,-172.65941731,19.67474212,-22.25098110,-19.26899764,-2.58713963
0.05386766,2.70354055

>  <Name>
ligand

>  <RI>
0

>  <Rbt.Current_Directory>
/home/itssahil/PROJECTS/Mol_Feturizer/New_Systems/rnas/4Y1I

>  <Rbt.Executable>
rbdock ($Id: //depot/dev/client3/rdock/2013.1/src/exe/rbdock.cxx#4 $)

>  <Rbt.Library>
libRbt.so (2013.1, Build901 2013/11/27)

>  <Rbt.Parameter_File>
/export/apps/rDock/src/rDock_2013.1_src/data/scripts/dock_solv.prm

>  <Rbt.Receptor>
prm/pocket_docking_7.prm

>  <SCORE>
-9.99024

>  <SCORE.INTER>
-3.4393

>  <SCORE.INTER.CONST>
1

>  <SCORE.INTER.POLAR>
0

>  <SCORE.INTER.ROT>
8

>  <SCORE.INTER.SOLV>
16.7426

>  <SCORE.INTER.VDW>
-16.8071

>  <SCORE.INTER.norm>
-0.107478

>  <SCORE.INTRA>
-6.55374

>  <SCORE.INTRA.DIHEDRAL>
-8.21208

>  <SCORE.INTRA.DIHEDRAL.0>
10.9594

>  <SCORE.INTRA.POLAR>
0

>  <SCORE.INTRA.POLAR.0>
0

>  <SCORE.INTRA.REPUL>
0

>  <SCORE.INTRA.REPUL.0>
0

>  <SCORE.INTRA.SOLV>
-3.34463

>  <SCORE.INTRA.SOLV.lig_0>
-124.914

>  <SCORE.INTRA.VDW>
-0.775381

>  <SCORE.INTRA.VDW.0>
-4.69801

>  <SCORE.INTRA.norm>
-0.204804

>  <SCORE.RESTR>
0.00279728

>  <SCORE.RESTR.CAVITY>
0.00279728

>  <SCORE.RESTR.norm>
8.7415e-05

>  <SCORE.SYSTEM>
0

>  <SCORE.SYSTEM.CONST>
0

>  <SCORE.SYSTEM.DIHEDRAL>
0

>  <SCORE.SYSTEM.SOLV>
0

>  <SCORE.SYSTEM.norm>
0

>  <SCORE.heavy>
32

>  <SCORE.norm>
-0.312195

>  <RMSD>
8.126

$$$$
ligand
 OpenBabel11021811513D
libRbt.so/2013.1/901 2013/11/27
 32 34  0  0  0  0  0  0  0  0999 V2000
   18.1603  -29.5603  -12.4425 P   0  0  1  0  0  0  0  0  0  0  0  0
   17.8247  -31.5223  -10.3763 P   0  0  2  0  0  0  0  0  0  0  0  0
   15.4962  -33.2794  -10.7013 P   0  0  1  0  0  0  0  0  0  0  0  0
   17.7463  -27.2121  -11.3910 C   0  0  0  0  0  0  0  0  0  0  0  0
   18.1318  -27.9170  -12.5366 O   0  0  0  0  0  0  0  0  0  0  0  0
   17.6467  -25.8579  -11.6902 C   0  0  1  0  0  0  0  0  0  0  0  0
   16.7332  -25.6587  -12.8842 O   0  0  0  0  0  0  0  0  0  0  0  0
   16.9792  -25.0440  -10.4885 C   0  0  1  0  0  0  0  0  0  0  0  0
   17.9894  -24.0767   -9.9141 O   0  0  0  0  0  0  0  0  0  0  0  0
   16.0748  -24.3732  -10.9919 C   0  0  1  0  0  0  0  0  0  0  0  0
   16.5699  -23.0014  -11.2577 O   0  0  0  0  0  0  0  0  0  0  0  0
   15.6734  -25.1220  -12.4244 C   0  0  2  0  0  0  0  0  0  0  0  0
   13.2535  -29.2132  -14.3715 N   0  0  0  0  0  0  0  0  0  0  0  0
   16.9235  -30.1314  -13.0908 O   0  5  0  0  0  0  0  0  0  0  0  0
   18.2023  -31.7146   -8.9289 O   0  5  0  0  0  0  0  0  0  0  0  0
   16.1407  -34.0143  -11.8532 O   0  0  0  0  0  0  0  0  0  0  0  0
   14.2258  -28.5008  -14.9189 C   0  0  0  0  0  0  0  0  0  0  0  0
   14.7204  -28.8631  -16.2318 N   0  0  0  0  0  0  0  0  0  0  0  0
   19.4112  -30.0642  -13.1263 O   0  0  0  0  0  0  0  0  0  0  0  0
   18.6072  -32.4823  -11.2336 O   0  0  0  0  0  0  0  0  0  0  0  0
   15.7173  -34.0645   -9.4268 O   0  5  0  0  0  0  0  0  0  0  0  0
   14.7638  -27.4657  -14.3068 N   0  0  0  0  0  0  0  0  0  0  0  0
   18.1761  -29.9928  -10.8577 O   0  0  0  0  0  0  0  0  0  0  0  0
   16.2151  -31.7973  -10.5744 O   0  0  0  0  0  0  0  0  0  0  0  0
   14.0159  -33.1310  -10.9776 O   0  0  0  0  0  0  0  0  0  0  0  0
   14.3356  -27.0976  -13.0933 C   0  0  0  0  0  0  0  0  0  0  0  0
   13.3224  -27.8232  -12.5000 C   0  0  0  0  0  0  0  0  0  0  0  0
   12.7628  -28.9265  -13.1727 C   0  0  0  0  0  0  0  0  0  0  0  0
   11.7302  -29.6850  -12.5938 O   0  0  0  0  0  0  0  0  0  0  0  0
   13.0724  -27.2661  -11.3027 N   0  0  0  0  0  0  0  0  0  0  0  0
   13.8944  -26.2408  -11.1618 C   0  0  0  0  0  0  0  0  0  0  0  0
   14.6603  -26.1221  -12.2302 N   0  0  0  0  0  0  0  0  0  0  0  0
  1  5  1  6  0  0  0
  1 14  1  0  0  0  0
  1 19  2  0  0  0  0
  1 23  1  0  0  0  0
  2 15  1  1  0  0  0
  2 20  2  0  0  0  0
  2 23  1  0  0  0  0
  2 24  1  0  0  0  0
  3 16  1  6  0  0  0
  3 21  1  0  0  0  0
  3 24  1  0  0  0  0
  3 25  2  0  0  0  0
  4  5  1  0  0  0  0
  6  4  1  1  0  0  0
  6  7  1  0  0  0  0
  6  8  1  0  0  0  0
  7 12  1  0  0  0  0
  8  9  1  6  0  0  0
  8 10  1  0  0  0  0
 10 11  1  6  0  0  0
 10 12  1  0  0  0  0
 12 32  1  1  0  0  0
 13 17  2  0  0  0  0
 13 28  1  0  0  0  0
 17 18  1  0  0  0  0
 17 22  1  0  0  0  0
 22 26  2  0  0  0  0
 26 27  1  0  0  0  0
 26 32  1  0  0  0  0
 27 28  2  0  0  0  0
 27 30  1  0  0  0  0
 28 29  1  0  0  0  0
 30 31  2  0  0  0  0
 31 32  1  0  0  0  0
M  CHG  3  14  -1  15  -1  21  -1
M  END
>  <CHROM.1>
101.07523934,167.71716389,-56.53752164,53.57222424,-173.91014242,-44.77955476
164.20485558,-80.17109028,16.11914042,-29.04968428,-11.84389507,-1.48186020
-0.45209994,-0.11880606

>  <Name>
ligand

>  <RI>
0

>  <Rbt.Current_Directory>
/home/itssahil/PROJECTS/Mol_Feturizer/New_Systems/rnas/4Y1I

>  <Rbt.Executable>
rbdock ($Id: //depot/dev/client3/rdock/2013.1/src/exe/rbdock.cxx#4 $)

>  <Rbt.Library>
libRbt.so (2013.1, Build901 2013/11/27)

>  <Rbt.Parameter_File>
/export/apps/rDock/src/rDock_2013.1_src/data/scripts/dock_solv.prm

>  <Rbt.Receptor>
prm/pocket_docking_8.prm

>  <SCORE>
-6.18621

>  <SCORE.INTER>
-1.28298

>  <SCORE.INTER.CONST>
1

>  <SCORE.INTER.POLAR>
0

>  <SCORE.INTER.ROT>
8

>  <SCORE.INTER.SOLV>
14.8942

>  <SCORE.INTER.VDW>
-14.7534

>  <SCORE.INTER.norm>
-0.0400932

>  <SCORE.INTRA>
-4.90322

>  <SCORE.INTRA.DIHEDRAL>
-6.2299

>  <SCORE.INTRA.DIHEDRAL.0>
10.9594

>  <SCORE.INTRA.POLAR>
0

>  <SCORE.INTRA.POLAR.0>
0

>  <SCORE.INTRA.REPUL>
0

>  <SCORE.INTRA.REPUL.0>
0

>  <SCORE.INTRA.SOLV>
-2.98621

>  <SCORE.INTRA.SOLV.lig_0>
-124.914

>  <SCORE.INTRA.VDW>
-0.295167

>  <SCORE.INTRA.VDW.0>
-4.69801

>  <SCORE.INTRA.norm>
-0.153226

>  <SCORE.RESTR>
0

>  <SCORE.RESTR.CAVITY>
0

>  <SCORE.RESTR.norm>
0

>  <SCORE.SYSTEM>
0

>  <SCORE.SYSTEM.CONST>
0

>  <SCORE.SYSTEM.DIHEDRAL>
0

>  <SCORE.SYSTEM.SOLV>
0

>  <SCORE.SYSTEM.norm>
0

>  <SCORE.heavy>
32

>  <SCORE.norm>
-0.193319

>  <RMSD>
8.146

$$$$
ligand
 OpenBabel11021811513D
libRbt.so/2013.1/901 2013/11/27
 32 34  0  0  0  0  0  0  0  0999 V2000
   17.6643  -25.3199  -17.7390 P   0  0  1  0  0  0  0  0  0  0  0  0
   18.9364  -23.3069  -19.3392 P   0  0  2  0  0  0  0  0  0  0  0  0
   18.5002  -20.4230  -19.0107 P   0  0  1  0  0  0  0  0  0  0  0  0
   17.1708  -27.7317  -16.8840 C   0  0  0  0  0  0  0  0  0  0  0  0
   18.1479  -26.7498  -17.0821 O   0  0  0  0  0  0  0  0  0  0  0  0
   17.7646  -28.8827  -16.3780 C   0  0  1  0  0  0  0  0  0  0  0  0
   18.2370  -28.6384  -14.9578 O   0  0  0  0  0  0  0  0  0  0  0  0
   16.7181  -30.0866  -16.2897 C   0  0  1  0  0  0  0  0  0  0  0  0
   17.1377  -31.1879  -17.2368 O   0  0  0  0  0  0  0  0  0  0  0  0
   16.8093  -30.5342  -15.1440 C   0  0  1  0  0  0  0  0  0  0  0  0
   17.7143  -31.7085  -15.1456 O   0  0  0  0  0  0  0  0  0  0  0  0
   17.4579  -29.3159  -14.2118 C   0  0  2  0  0  0  0  0  0  0  0  0
   12.6292  -28.9739  -12.4936 N   0  0  0  0  0  0  0  0  0  0  0  0
   16.8211  -25.5785  -18.9631 O   0  5  0  0  0  0  0  0  0  0  0  0
   17.5722  -23.2800  -19.9815 O   0  5  0  0  0  0  0  0  0  0  0  0
   17.1527  -20.4297  -18.3276 O   0  0  0  0  0  0  0  0  0  0  0  0
   13.2587  -30.0423  -12.9573 C   0  0  0  0  0  0  0  0  0  0  0  0
   12.5593  -31.3099  -13.0166 N   0  0  0  0  0  0  0  0  0  0  0  0
   16.8852  -24.5466  -16.6992 O   0  0  0  0  0  0  0  0  0  0  0  0
   19.9789  -23.6152  -20.3818 O   0  0  0  0  0  0  0  0  0  0  0  0
   19.3169  -19.2631  -18.4841 O   0  5  0  0  0  0  0  0  0  0  0  0
   14.5089  -29.9929  -13.3699 N   0  0  0  0  0  0  0  0  0  0  0  0
   18.9988  -24.4714  -18.1838 O   0  0  0  0  0  0  0  0  0  0  0  0
   19.2603  -21.8462  -18.6555 O   0  0  0  0  0  0  0  0  0  0  0  0
   18.2954  -20.2871  -20.5037 O   0  0  0  0  0  0  0  0  0  0  0  0
   15.1906  -28.8416  -13.3320 C   0  0  0  0  0  0  0  0  0  0  0  0
   14.5575  -27.7123  -12.8534 C   0  0  0  0  0  0  0  0  0  0  0  0
   13.2208  -27.7890  -12.4170 C   0  0  0  0  0  0  0  0  0  0  0  0
   12.5498  -26.6560  -11.9240 O   0  0  0  0  0  0  0  0  0  0  0  0
   15.4371  -26.6980  -12.9145 N   0  0  0  0  0  0  0  0  0  0  0  0
   16.5644  -27.1784  -13.4096 C   0  0  0  0  0  0  0  0  0  0  0  0
   16.4343  -28.4660  -13.6693 N   0  0  0  0  0  0  0  0  0  0  0  0
  1  5  1  1  0  0  0
  1 14  1  0  0  0  0
  1 19  2  0  0  0  0
  1 23  1  0  0  0  0
  2 15  1  6  0  0  0
  2 20  2  0  0  0  0
  2 23  1  0  0  0  0
  2 24  1  0  0  0  0
  3 16  1  1  0  0  0
  3 21  1  0  0  0  0
  3 24  1  0  0  0  0
  3 25  2  0  0  0  0
  4  5  1  0  0  0  0
  6  4  1  1  0  0  0
  6  7  1  0  0  0  0
  6  8  1  0  0  0  0
  7 12  1  0  0  0  0
  8  9  1  6  0  0  0
  8 10  1  0  0  0  0
 10 11  1  6  0  0  0
 10 12  1  0  0  0  0
 12 32  1  6  0  0  0
 13 17  2  0  0  0  0
 13 28  1  0  0  0  0
 17 18  1  0  0  0  0
 17 22  1  0  0  0  0
 22 26  2  0  0  0  0
 26 27  1  0  0  0  0
 26 32  1  0  0  0  0
 27 28  2  0  0  0  0
 27 30  1  0  0  0  0
 28 29  1  0  0  0  0
 30 31  2  0  0  0  0
 31 32  1  0  0  0  0
M  CHG  3  14  -1  15  -1  21  -1
M  END
>  <CHROM.1>
-48.61810893,-6.35485631,77.07045661,69.40410033,177.50198059,150.55847716
156.76047340,-18.94579765,16.93278027,-26.08438756,-16.41608451,-1.01971758
-0.82021226,2.94589993

>  <Name>
ligand

>  <RI>
0

>  <Rbt.Current_Directory>
/home/itssahil/PROJECTS/Mol_Feturizer/New_Systems/rnas/4Y1I

>  <Rbt.Executable>
rbdock ($Id: //depot/dev/client3/rdock/2013.1/src/exe/rbdock.cxx#4 $)

>  <Rbt.Library>
libRbt.so (2013.1, Build901 2013/11/27)

>  <Rbt.Parameter_File>
/export/apps/rDock/src/rDock_2013.1_src/data/scripts/dock_solv.prm

>  <Rbt.Receptor>
prm/pocket_docking_6.prm

>  <SCORE>
-6.84011

>  <SCORE.INTER>
-4.03084

>  <SCORE.INTER.CONST>
1

>  <SCORE.INTER.POLAR>
0

>  <SCORE.INTER.ROT>
8

>  <SCORE.INTER.SOLV>
16.5579

>  <SCORE.INTER.VDW>
-17.1398

>  <SCORE.INTER.norm>
-0.125964

>  <SCORE.INTRA>
-2.80927

>  <SCORE.INTRA.DIHEDRAL>
-3.73858

>  <SCORE.INTRA.DIHEDRAL.0>
10.9594

>  <SCORE.INTRA.POLAR>
0

>  <SCORE.INTRA.POLAR.0>
0

>  <SCORE.INTRA.REPUL>
0

>  <SCORE.INTRA.REPUL.0>
0

>  <SCORE.INTRA.SOLV>
-3.2768

>  <SCORE.INTRA.SOLV.lig_0>
-124.914

>  <SCORE.INTRA.VDW>
0.698417

>  <SCORE.INTRA.VDW.0>
-4.69801

>  <SCORE.INTRA.norm>
-0.0877898

>  <SCORE.RESTR>
0

>  <SCORE.RESTR.CAVITY>
0

>  <SCORE.RESTR.norm>
0

>  <SCORE.SYSTEM>
0

>  <SCORE.SYSTEM.CONST>
0

>  <SCORE.SYSTEM.DIHEDRAL>
0

>  <SCORE.SYSTEM.SOLV>
0

>  <SCORE.SYSTEM.norm>
0

>  <SCORE.heavy>
32

>  <SCORE.norm>
-0.213754

>  <RMSD>
8.165

$$$$
ligand
 OpenBabel11021811513D
libRbt.so/2013.1/901 2013/11/27
 32 34  0  0  0  0  0  0  0  0999 V2000
   11.5982  -23.1415  -21.7058 P   0  0  1  0  0  0  0  0  0  0  0  0
   12.5938  -25.3898  -20.2276 P   0  0  2  0  0  0  0  0  0  0  0  0
   13.8535  -26.8865  -22.4158 P   0  0  1  0  0  0  0  0  0  0  0  0
   12.9781  -20.9389  -21.5171 C   0  0  0  0  0  0  0  0  0  0  0  0
   12.2000  -21.7510  -22.3496 O   0  0  0  0  0  0  0  0  0  0  0  0
   12.1693  -20.3580  -20.5467 C   0  0  1  0  0  0  0  0  0  0  0  0
   13.0166  -19.5441  -19.5878 O   0  0  0  0  0  0  0  0  0  0  0  0
   11.1314  -19.3300  -21.1934 C   0  0  1  0  0  0  0  0  0  0  0  0
    9.7235  -19.8427  -20.9908 O   0  0  0  0  0  0  0  0  0  0  0  0
   11.2376  -18.2856  -20.5460 C   0  0  1  0  0  0  0  0  0  0  0  0
   10.1823  -18.2427  -19.5056 O   0  0  0  0  0  0  0  0  0  0  0  0
   12.7415  -18.3245  -19.8313 C   0  0  2  0  0  0  0  0  0  0  0  0
   17.5007  -18.7304  -21.7209 N   0  0  0  0  0  0  0  0  0  0  0  0
   10.4759  -22.8192  -20.7505 O   0  5  0  0  0  0  0  0  0  0  0  0
   11.2985  -25.4513  -19.4577 O   0  5  0  0  0  0  0  0  0  0  0  0
   14.3412  -25.6099  -23.0597 O   0  0  0  0  0  0  0  0  0  0  0  0
   16.8862  -19.5386  -20.8713 C   0  0  0  0  0  0  0  0  0  0  0  0
   17.5832  -20.7055  -20.3690 N   0  0  0  0  0  0  0  0  0  0  0  0
   11.1131  -24.0274  -22.8310 O   0  0  0  0  0  0  0  0  0  0  0  0
   13.7465  -25.6667  -19.2984 O   0  0  0  0  0  0  0  0  0  0  0  0
   14.9731  -27.4857  -21.5930 O   0  5  0  0  0  0  0  0  0  0  0  0
   15.6532  -19.3175  -20.4633 N   0  0  0  0  0  0  0  0  0  0  0  0
   12.7993  -23.8964  -20.8775 O   0  0  0  0  0  0  0  0  0  0  0  0
   12.5803  -26.5091  -21.4329 O   0  0  0  0  0  0  0  0  0  0  0  0
   13.4221  -27.8513  -23.4987 O   0  0  0  0  0  0  0  0  0  0  0  0
   14.9744  -18.2510  -20.9030 C   0  0  0  0  0  0  0  0  0  0  0  0
   15.5920  -17.3918  -21.7892 C   0  0  0  0  0  0  0  0  0  0  0  0
   16.9105  -17.6486  -22.2122 C   0  0  0  0  0  0  0  0  0  0  0  0
   17.5655  -16.7921  -23.1144 O   0  0  0  0  0  0  0  0  0  0  0  0
   14.7189  -16.4121  -22.0793 N   0  0  0  0  0  0  0  0  0  0  0  0
   13.6101  -16.6543  -21.4019 C   0  0  0  0  0  0  0  0  0  0  0  0
   13.7459  -17.7551  -20.6865 N   0  0  0  0  0  0  0  0  0  0  0  0
  1  5  1  6  0  0  0
  1 14  1  0  0  0  0
  1 19  2  0  0  0  0
  1 23  1  0  0  0  0
  2 15  1  1  0  0  0
  2 20  2  0  0  0  0
  2 23  1  0  0  0  0
  2 24  1  0  0  0  0
  3 16  1  6  0  0  0
  3 21  1  0  0  0  0
  3 24  1  0  0  0  0
  3 25  2  0  0  0  0
  4  5  1  0  0  0  0
  6  4  1  6  0  0  0
  6  7  1  0  0  0  0
  6  8  1  0  0  0  0
  7 12  1  0  0  0  0
  8  9  1  1  0  0  0
  8 10  1  0  0  0  0
 10 11  1  1  0  0  0
 10 12  1  0  0  0  0
 12 32  1  6  0  0  0
 13 17  2  0  0  0  0
 13 28  1  0  0  0  0
 17 18  1  0  0  0  0
 17 22  1  0  0  0  0
 22 26  2  0  0  0  0
 26 27  1  0  0  0  0
 26 32  1  0  0  0  0
 27 28  2  0  0  0  0
 27 30  1  0  0  0  0
 28 29  1  0  0  0  0
 30 31  2  0  0  0  0
 31 32  1  0  0  0  0
M  CHG  3  14  -1  15  -1  21  -1
M  END
>  <CHROM.1>
73.06075757,-47.94577769,-54.63925918,176.51899695,-69.95584836,-17.92099513
-173.88069022,-173.38048207,13.37112857,-21.84148544,-21.24306388,1.77002983
-0.22637555,-3.05356941

>  <Name>
ligand

>  <RI>
0

>  <Rbt.Current_Directory>
/home/itssahil/PROJECTS/Mol_Feturizer/New_Systems/rnas/4Y1I

>  <Rbt.Executable>
rbdock ($Id: //depot/dev/client3/rdock/2013.1/src/exe/rbdock.cxx#4 $)

>  <Rbt.Library>
libRbt.so (2013.1, Build901 2013/11/27)

>  <Rbt.Parameter_File>
/export/apps/rDock/src/rDock_2013.1_src/data/scripts/dock_solv.prm

>  <Rbt.Receptor>
prm/pocket_docking_8.prm

>  <SCORE>
-5.58224

>  <SCORE.INTER>
-0.105536

>  <SCORE.INTER.CONST>
1

>  <SCORE.INTER.POLAR>
0

>  <SCORE.INTER.ROT>
8

>  <SCORE.INTER.SOLV>
4.32824

>  <SCORE.INTER.VDW>
-10.4464

>  <SCORE.INTER.norm>
-0.003298

>  <SCORE.INTRA>
-5.47671

>  <SCORE.INTRA.DIHEDRAL>
-8.48763

>  <SCORE.INTRA.DIHEDRAL.0>
10.9594

>  <SCORE.INTRA.POLAR>
0

>  <SCORE.INTRA.POLAR.0>
0

>  <SCORE.INTRA.REPUL>
0

>  <SCORE.INTRA.REPUL.0>
0

>  <SCORE.INTRA.SOLV>
-1.50039

>  <SCORE.INTRA.SOLV.lig_0>
-124.914

>  <SCORE.INTRA.VDW>
-0.482701

>  <SCORE.INTRA.VDW.0>
-4.69801

>  <SCORE.INTRA.norm>
-0.171147

>  <SCORE.RESTR>
0

>  <SCORE.RESTR.CAVITY>
0

>  <SCORE.RESTR.norm>
0

>  <SCORE.SYSTEM>
0

>  <SCORE.SYSTEM.CONST>
0

>  <SCORE.SYSTEM.DIHEDRAL>
0

>  <SCORE.SYSTEM.SOLV>
0

>  <SCORE.SYSTEM.norm>
0

>  <SCORE.heavy>
32

>  <SCORE.norm>
-0.174445

>  <RMSD>
8.191

$$$$
ligand
 OpenBabel11021811513D
libRbt.so/2013.1/901 2013/11/27
 32 34  0  0  0  0  0  0  0  0999 V2000
   16.0460  -20.1882  -22.8343 P   0  0  1  0  0  0  0  0  0  0  0  0
   14.4741  -18.2695  -21.3925 P   0  0  2  0  0  0  0  0  0  0  0  0
   11.5893  -18.7879  -21.2363 P   0  0  1  0  0  0  0  0  0  0  0  0
   18.5154  -20.2562  -22.0042 C   0  0  0  0  0  0  0  0  0  0  0  0
   17.3389  -19.5025  -22.0803 O   0  0  0  0  0  0  0  0  0  0  0  0
   19.4364  -19.5996  -21.1956 C   0  0  1  0  0  0  0  0  0  0  0  0
   18.7495  -19.0799  -19.9474 O   0  0  0  0  0  0  0  0  0  0  0  0
   20.5762  -20.5955  -20.6847 C   0  0  1  0  0  0  0  0  0  0  0  0
   21.9084  -20.1733  -21.2618 O   0  0  0  0  0  0  0  0  0  0  0  0
   20.6410  -20.4415  -19.4626 C   0  0  1  0  0  0  0  0  0  0  0  0
   21.7356  -19.4937  -19.1440 O   0  0  0  0  0  0  0  0  0  0  0  0
   19.1777  -19.8022  -18.9896 C   0  0  2  0  0  0  0  0  0  0  0  0
   18.3090  -24.8461  -18.5539 N   0  0  0  0  0  0  0  0  0  0  0  0
   16.3726  -20.4352  -24.2864 O   0  5  0  0  0  0  0  0  0  0  0  0
   15.3736  -17.0601  -21.3420 O   0  5  0  0  0  0  0  0  0  0  0  0
   11.7824  -19.6192  -19.9897 O   0  0  0  0  0  0  0  0  0  0  0  0
   19.4346  -24.2360  -18.8909 C   0  0  0  0  0  0  0  0  0  0  0  0
   20.6112  -25.0277  -19.1881 N   0  0  0  0  0  0  0  0  0  0  0  0
   15.7025  -21.4811  -22.1297 O   0  0  0  0  0  0  0  0  0  0  0  0
   14.7327  -19.1411  -20.1915 O   0  0  0  0  0  0  0  0  0  0  0  0
   10.3335  -17.9568  -21.0881 O   0  5  0  0  0  0  0  0  0  0  0  0
   19.5231  -22.9237  -18.9659 N   0  0  0  0  0  0  0  0  0  0  0  0
   14.7774  -19.1483  -22.7454 O   0  0  0  0  0  0  0  0  0  0  0  0
   12.8993  -17.7941  -21.3958 O   0  0  0  0  0  0  0  0  0  0  0  0
   11.4721  -19.7098  -22.4304 O   0  0  0  0  0  0  0  0  0  0  0  0
   18.4595  -22.1559  -18.6995 C   0  0  0  0  0  0  0  0  0  0  0  0
   17.2733  -22.7667  -18.3461 C   0  0  0  0  0  0  0  0  0  0  0  0
   17.2023  -24.1712  -18.2715 C   0  0  0  0  0  0  0  0  0  0  0  0
   16.0083  -24.8218  -17.9138 O   0  0  0  0  0  0  0  0  0  0  0  0
   16.3670  -21.7980  -18.1310 N   0  0  0  0  0  0  0  0  0  0  0  0
   16.9659  -20.6389  -18.3425 C   0  0  0  0  0  0  0  0  0  0  0  0
   18.2247  -20.8343  -18.6881 N   0  0  0  0  0  0  0  0  0  0  0  0
  1  5  1  1  0  0  0
  1 14  1  0  0  0  0
  1 19  2  0  0  0  0
  1 23  1  0  0  0  0
  2 15  1  1  0  0  0
  2 20  2  0  0  0  0
  2 23  1  0  0  0  0
  2 24  1  0  0  0  0
  3 16  1  1  0  0  0
  3 21  1  0  0  0  0
  3 24  1  0  0  0  0
  3 25  2  0  0  0  0
  4  5  1  0  0  0  0
  6  4  1  6  0  0  0
  6  7  1  0  0  0  0
  6  8  1  0  0  0  0
  7 12  1  0  0  0  0
  8  9  1  6  0  0  0
  8 10  1  0  0  0  0
 10 11  1  6  0  0  0
 10 12  1  0  0  0  0
 12 32  1  6  0  0  0
 13 17  2  0  0  0  0
 13 28  1  0  0  0  0
 17 18  1  0  0  0  0
 17 22  1  0  0  0  0
 22 26  2  0  0  0  0
 26 27  1  0  0  0  0
 26 32  1  0  0  0  0
 27 28  2  0  0  0  0
 27 30  1  0  0  0  0
 28 29  1  0  0  0  0
 30 31  2  0  0  0  0
 31 32  1  0  0  0  0
M  CHG  3  14  -1  15  -1  21  -1
M  END
>  <CHROM.1>
-63.37785144,80.35903153,53.00898013,44.27780915,-172.47458251,122.60050946
-39.43295257,-171.07988247,16.53912763,-20.45713630,-20.53916279,-2.61280506
-0.01564109,2.53422367

>  <Name>
ligand

>  <RI>
0

>  <Rbt.Current_Directory>
/home/itssahil/PROJECTS/Mol_Feturizer/New_Systems/rnas/4Y1I

>  <Rbt.Executable>
rbdock ($Id: //depot/dev/client3/rdock/2013.1/src/exe/rbdock.cxx#4 $)

>  <Rbt.Library>
libRbt.so (2013.1, Build901 2013/11/27)

>  <Rbt.Parameter_File>
/export/apps/rDock/src/rDock_2013.1_src/data/scripts/dock_solv.prm

>  <Rbt.Receptor>
prm/pocket_docking_7.prm

>  <SCORE>
-9.22096

>  <SCORE.INTER>
-2.91881

>  <SCORE.INTER.CONST>
1

>  <SCORE.INTER.POLAR>
0

>  <SCORE.INTER.ROT>
8

>  <SCORE.INTER.SOLV>
13.3605

>  <SCORE.INTER.VDW>
-15.3327

>  <SCORE.INTER.norm>
-0.0912127

>  <SCORE.INTRA>
-6.30216

>  <SCORE.INTRA.DIHEDRAL>
-7.16814

>  <SCORE.INTRA.DIHEDRAL.0>
10.9594

>  <SCORE.INTRA.POLAR>
0

>  <SCORE.INTRA.POLAR.0>
0

>  <SCORE.INTRA.REPUL>
0

>  <SCORE.INTRA.REPUL.0>
0

>  <SCORE.INTRA.SOLV>
-4.50556

>  <SCORE.INTRA.SOLV.lig_0>
-124.914

>  <SCORE.INTRA.VDW>
-0.465306

>  <SCORE.INTRA.VDW.0>
-4.69801

>  <SCORE.INTRA.norm>
-0.196942

>  <SCORE.RESTR>
0

>  <SCORE.RESTR.CAVITY>
0

>  <SCORE.RESTR.norm>
0

>  <SCORE.SYSTEM>
0

>  <SCORE.SYSTEM.CONST>
0

>  <SCORE.SYSTEM.DIHEDRAL>
0

>  <SCORE.SYSTEM.SOLV>
0

>  <SCORE.SYSTEM.norm>
0

>  <SCORE.heavy>
32

>  <SCORE.norm>
-0.288155

>  <RMSD>
8.207

$$$$
ligand
 OpenBabel11021811513D
libRbt.so/2013.1/901 2013/11/27
 32 34  0  0  0  0  0  0  0  0999 V2000
   14.0485  -21.4020  -18.8832 P   0  0  1  0  0  0  0  0  0  0  0  0
   12.6921  -19.5251  -20.5769 P   0  0  2  0  0  0  0  0  0  0  0  0
   14.3849  -17.7679  -22.2083 P   0  0  1  0  0  0  0  0  0  0  0  0
   16.6035  -20.9283  -18.6854 C   0  0  0  0  0  0  0  0  0  0  0  0
   15.4235  -20.6468  -19.3827 O   0  0  0  0  0  0  0  0  0  0  0  0
   17.6850  -20.3705  -19.3580 C   0  0  1  0  0  0  0  0  0  0  0  0
   18.9706  -20.6808  -18.6157 O   0  0  0  0  0  0  0  0  0  0  0  0
   17.8561  -21.0066  -20.8134 C   0  0  1  0  0  0  0  0  0  0  0  0
   17.6156  -19.9414  -21.8591 O   0  0  0  0  0  0  0  0  0  0  0  0
   19.0389  -21.3453  -20.9006 C   0  0  1  0  0  0  0  0  0  0  0  0
   19.8044  -20.2827  -21.5956 O   0  0  0  0  0  0  0  0  0  0  0  0
   19.5955  -21.5212  -19.3408 C   0  0  2  0  0  0  0  0  0  0  0  0
   21.6865  -26.0675  -18.1815 N   0  0  0  0  0  0  0  0  0  0  0  0
   14.2534  -22.8967  -18.8934 O   0  5  0  0  0  0  0  0  0  0  0  0
   12.6311  -18.4862  -19.4854 O   0  5  0  0  0  0  0  0  0  0  0  0
   14.7401  -16.8334  -21.0756 O   0  0  0  0  0  0  0  0  0  0  0  0
   22.2871  -24.9891  -18.6601 C   0  0  0  0  0  0  0  0  0  0  0  0
   23.7134  -25.0228  -18.9133 N   0  0  0  0  0  0  0  0  0  0  0  0
   13.7028  -20.9129  -17.4949 O   0  0  0  0  0  0  0  0  0  0  0  0
   11.4241  -19.4790  -21.3885 O   0  0  0  0  0  0  0  0  0  0  0  0
   15.5863  -17.9276  -23.1142 O   0  5  0  0  0  0  0  0  0  0  0  0
   21.6280  -23.8775  -18.9161 N   0  0  0  0  0  0  0  0  0  0  0  0
   12.8370  -21.0256  -19.9269 O   0  0  0  0  0  0  0  0  0  0  0  0
   13.9807  -19.2310  -21.5560 O   0  0  0  0  0  0  0  0  0  0  0  0
   13.2187  -17.1881  -22.9785 O   0  0  0  0  0  0  0  0  0  0  0  0
   20.3097  -23.8048  -18.6965 C   0  0  0  0  0  0  0  0  0  0  0  0
   19.6588  -24.9153  -18.1982 C   0  0  0  0  0  0  0  0  0  0  0  0
   20.3840  -26.0926  -17.9312 C   0  0  0  0  0  0  0  0  0  0  0  0
   19.7489  -27.2393  -17.4228 O   0  0  0  0  0  0  0  0  0  0  0  0
   18.3597  -24.5979  -18.0652 N   0  0  0  0  0  0  0  0  0  0  0  0
   18.2131  -23.3465  -18.4641 C   0  0  0  0  0  0  0  0  0  0  0  0
   19.3752  -22.8536  -18.8501 N   0  0  0  0  0  0  0  0  0  0  0  0
  1  5  1  6  0  0  0
  1 14  1  0  0  0  0
  1 19  2  0  0  0  0
  1 23  1  0  0  0  0
  2 15  1  1  0  0  0
  2 20  2  0  0  0  0
  2 23  1  0  0  0  0
  2 24  1  0  0  0  0
  3 16  1  1  0  0  0
  3 21  1  0  0  0  0
  3 24  1  0  0  0  0
  3 25  2  0  0  0  0
  4  5  1  0  0  0  0
  6  4  1  1  0  0  0
  6  7  1  0  0  0  0
  6  8  1  0  0  0  0
  7 12  1  0  0  0  0
  8  9  1  6  0  0  0
  8 10  1  0  0  0  0
 10 11  1  1  0  0  0
 10 12  1  0  0  0  0
 12 32  1  1  0  0  0
 13 17  2  0  0  0  0
 13 28  1  0  0  0  0
 17 18  1  0  0  0  0
 17 22  1  0  0  0  0
 22 26  2  0  0  0  0
 26 27  1  0  0  0  0
 26 32  1  0  0  0  0
 27 28  2  0  0  0  0
 27 30  1  0  0  0  0
 28 29  1  0  0  0  0
 30 31  2  0  0  0  0
 31 32  1  0  0  0  0
M  CHG  3  14  -1  15  -1  21  -1
M  END
>  <CHROM.1>
-56.01387372,-55.25891437,64.46449023,-179.50900763,171.11835761,-135.59851260
-38.26993446,-47.74954896,16.71001487,-21.29455938,-19.84305692,2.43904824
0.19353479,-0.63902212

>  <Name>
ligand

>  <RI>
0

>  <Rbt.Current_Directory>
/home/itssahil/PROJECTS/Mol_Feturizer/New_Systems/rnas/4Y1I

>  <Rbt.Executable>
rbdock ($Id: //depot/dev/client3/rdock/2013.1/src/exe/rbdock.cxx#4 $)

>  <Rbt.Library>
libRbt.so (2013.1, Build901 2013/11/27)

>  <Rbt.Parameter_File>
/export/apps/rDock/src/rDock_2013.1_src/data/scripts/dock_solv.prm

>  <Rbt.Receptor>
prm/pocket_docking_8.prm

>  <SCORE>
-13.0157

>  <SCORE.INTER>
-6.84963

>  <SCORE.INTER.CONST>
1

>  <SCORE.INTER.POLAR>
0

>  <SCORE.INTER.ROT>
8

>  <SCORE.INTER.SOLV>
12.1639

>  <SCORE.INTER.VDW>
-17.5544

>  <SCORE.INTER.norm>
-0.214051

>  <SCORE.INTRA>
-6.16612

>  <SCORE.INTRA.DIHEDRAL>
-8.31593

>  <SCORE.INTRA.DIHEDRAL.0>
10.9594

>  <SCORE.INTRA.POLAR>
0

>  <SCORE.INTRA.POLAR.0>
0

>  <SCORE.INTRA.REPUL>
0

>  <SCORE.INTRA.REPUL.0>
0

>  <SCORE.INTRA.SOLV>
-3.91201

>  <SCORE.INTRA.SOLV.lig_0>
-124.914

>  <SCORE.INTRA.VDW>
-0.0521491

>  <SCORE.INTRA.VDW.0>
-4.69801

>  <SCORE.INTRA.norm>
-0.192691

>  <SCORE.RESTR>
0

>  <SCORE.RESTR.CAVITY>
0

>  <SCORE.RESTR.norm>
0

>  <SCORE.SYSTEM>
0

>  <SCORE.SYSTEM.CONST>
0

>  <SCORE.SYSTEM.DIHEDRAL>
0

>  <SCORE.SYSTEM.SOLV>
0

>  <SCORE.SYSTEM.norm>
0

>  <SCORE.heavy>
32

>  <SCORE.norm>
-0.406742

>  <RMSD>
8.212

$$$$
ligand
 OpenBabel11021811513D
libRbt.so/2013.1/901 2013/11/27
 32 34  0  0  0  0  0  0  0  0999 V2000
   15.4577  -24.8611  -17.3268 P   0  0  1  0  0  0  0  0  0  0  0  0
   17.7960  -23.7438  -18.5576 P   0  0  2  0  0  0  0  0  0  0  0  0
   17.9733  -20.8485  -19.0059 P   0  0  1  0  0  0  0  0  0  0  0  0
   15.6450  -26.5144  -15.3210 C   0  0  0  0  0  0  0  0  0  0  0  0
   16.2616  -26.0179  -16.4749 O   0  0  0  0  0  0  0  0  0  0  0  0
   16.4718  -27.4580  -14.7217 C   0  0  1  0  0  0  0  0  0  0  0  0
   15.8670  -27.9144  -13.4080 O   0  0  0  0  0  0  0  0  0  0  0  0
   16.6037  -28.7713  -15.6217 C   0  0  1  0  0  0  0  0  0  0  0  0
   18.0333  -28.9169  -16.0920 O   0  0  0  0  0  0  0  0  0  0  0  0
   16.3655  -29.7227  -14.8738 C   0  0  1  0  0  0  0  0  0  0  0  0
   17.6423  -30.2896  -14.3776 O   0  0  0  0  0  0  0  0  0  0  0  0
   15.4803  -29.1125  -13.6018 C   0  0  2  0  0  0  0  0  0  0  0  0
   11.7180  -31.0199  -16.5330 N   0  0  0  0  0  0  0  0  0  0  0  0
   15.0199  -25.4182  -18.6587 O   0  5  0  0  0  0  0  0  0  0  0  0
   17.3777  -24.1195  -19.9569 O   0  5  0  0  0  0  0  0  0  0  0  0
   18.9696  -19.7792  -18.6233 O   0  0  0  0  0  0  0  0  0  0  0  0
   13.0161  -31.2703  -16.6028 C   0  0  0  0  0  0  0  0  0  0  0  0
   13.5102  -32.1889  -17.6086 N   0  0  0  0  0  0  0  0  0  0  0  0
   14.2678  -24.3998  -16.5159 O   0  0  0  0  0  0  0  0  0  0  0  0
   18.6880  -24.8178  -17.9922 O   0  0  0  0  0  0  0  0  0  0  0  0
   17.7472  -20.8028  -20.5013 O   0  5  0  0  0  0  0  0  0  0  0  0
   13.8814  -30.7092  -15.7830 N   0  0  0  0  0  0  0  0  0  0  0  0
   16.4787  -23.6010  -17.5886 O   0  0  0  0  0  0  0  0  0  0  0  0
   18.6086  -22.3137  -18.5830 O   0  0  0  0  0  0  0  0  0  0  0  0
   16.6751  -20.5988  -18.2697 O   0  0  0  0  0  0  0  0  0  0  0  0
   13.4664  -29.8548  -14.8399 C   0  0  0  0  0  0  0  0  0  0  0  0
   12.1179  -29.5758  -14.7458 C   0  0  0  0  0  0  0  0  0  0  0  0
   11.2112  -30.1880  -15.6324 C   0  0  0  0  0  0  0  0  0  0  0  0
    9.8320  -29.9240  -15.5607 O   0  0  0  0  0  0  0  0  0  0  0  0
   11.9540  -28.7033  -13.7368 N   0  0  0  0  0  0  0  0  0  0  0  0
   13.1484  -28.4532  -13.2293 C   0  0  0  0  0  0  0  0  0  0  0  0
   14.0712  -29.1350  -13.8818 N   0  0  0  0  0  0  0  0  0  0  0  0
  1  5  1  1  0  0  0
  1 14  1  0  0  0  0
  1 19  2  0  0  0  0
  1 23  1  0  0  0  0
  2 15  1  6  0  0  0
  2 20  2  0  0  0  0
  2 23  1  0  0  0  0
  2 24  1  0  0  0  0
  3 16  1  1  0  0  0
  3 21  1  0  0  0  0
  3 24  1  0  0  0  0
  3 25  2  0  0  0  0
  4  5  1  0  0  0  0
  6  4  1  6  0  0  0
  6  7  1  0  0  0  0
  6  8  1  0  0  0  0
  7 12  1  0  0  0  0
  8  9  1  1  0  0  0
  8 10  1  0  0  0  0
 10 11  1  1  0  0  0
 10 12  1  0  0  0  0
 12 32  1  6  0  0  0
 13 17  2  0  0  0  0
 13 28  1  0  0  0  0
 17 18  1  0  0  0  0
 17 22  1  0  0  0  0
 22 26  2  0  0  0  0
 26 27  1  0  0  0  0
 26 32  1  0  0  0  0
 27 28  2  0  0  0  0
 27 30  1  0  0  0  0
 28 29  1  0  0  0  0
 30 31  2  0  0  0  0
 31 32  1  0  0  0  0
M  CHG  3  14  -1  15  -1  21  -1
M  END
>  <CHROM.1>
-112.00869315,60.06805695,168.66400902,175.15179294,-178.93727139,136.22456661
67.01149649,65.06114838,15.63669644,-26.35512462,-16.66305776,1.10698241
-0.15148133,-0.50505611

>  <Name>
ligand

>  <RI>
0

>  <Rbt.Current_Directory>
/home/itssahil/PROJECTS/Mol_Feturizer/New_Systems/rnas/4Y1I

>  <Rbt.Executable>
rbdock ($Id: //depot/dev/client3/rdock/2013.1/src/exe/rbdock.cxx#4 $)

>  <Rbt.Library>
libRbt.so (2013.1, Build901 2013/11/27)

>  <Rbt.Parameter_File>
/export/apps/rDock/src/rDock_2013.1_src/data/scripts/dock_solv.prm

>  <Rbt.Receptor>
prm/pocket_docking_3.prm

>  <SCORE>
-3.13447

>  <SCORE.INTER>
1.32423

>  <SCORE.INTER.CONST>
1

>  <SCORE.INTER.POLAR>
0

>  <SCORE.INTER.ROT>
8

>  <SCORE.INTER.SOLV>
12.5128

>  <SCORE.INTER.VDW>
-12.2214

>  <SCORE.INTER.norm>
0.0413822

>  <SCORE.INTRA>
-4.4587

>  <SCORE.INTRA.DIHEDRAL>
-7.06695

>  <SCORE.INTRA.DIHEDRAL.0>
10.9594

>  <SCORE.INTRA.POLAR>
0

>  <SCORE.INTRA.POLAR.0>
0

>  <SCORE.INTRA.REPUL>
0

>  <SCORE.INTRA.REPUL.0>
0

>  <SCORE.INTRA.SOLV>
-3.60486

>  <SCORE.INTRA.SOLV.lig_0>
-124.914

>  <SCORE.INTRA.VDW>
0.877204

>  <SCORE.INTRA.VDW.0>
-4.69801

>  <SCORE.INTRA.norm>
-0.139334

>  <SCORE.RESTR>
0

>  <SCORE.RESTR.CAVITY>
0

>  <SCORE.RESTR.norm>
0

>  <SCORE.SYSTEM>
0

>  <SCORE.SYSTEM.CONST>
0

>  <SCORE.SYSTEM.DIHEDRAL>
0

>  <SCORE.SYSTEM.SOLV>
0

>  <SCORE.SYSTEM.norm>
0

>  <SCORE.heavy>
32

>  <SCORE.norm>
-0.0979523

>  <RMSD>
8.252

$$$$
ligand
 OpenBabel11021811513D
libRbt.so/2013.1/901 2013/11/27
 32 34  0  0  0  0  0  0  0  0999 V2000
   15.4307  -18.0111  -21.6857 P   0  0  1  0  0  0  0  0  0  0  0  0
   13.0926  -18.8155  -20.2306 P   0  0  2  0  0  0  0  0  0  0  0  0
   11.5302  -18.9740  -17.7509 P   0  0  1  0  0  0  0  0  0  0  0  0
   17.6760  -19.3326  -21.6241 C   0  0  0  0  0  0  0  0  0  0  0  0
   17.0620  -18.0839  -21.4767 O   0  0  0  0  0  0  0  0  0  0  0  0
   18.9526  -19.2904  -21.0747 C   0  0  1  0  0  0  0  0  0  0  0  0
   18.8625  -19.0961  -19.5734 O   0  0  0  0  0  0  0  0  0  0  0  0
   19.7250  -20.6720  -21.2911 C   0  0  1  0  0  0  0  0  0  0  0  0
   20.9179  -20.4453  -22.1920 O   0  0  0  0  0  0  0  0  0  0  0  0
   20.1591  -20.9971  -20.1833 C   0  0  1  0  0  0  0  0  0  0  0  0
   21.5718  -20.5638  -20.0624 O   0  0  0  0  0  0  0  0  0  0  0  0
   19.2215  -20.2043  -19.0580 C   0  0  2  0  0  0  0  0  0  0  0  0
   17.2650  -24.8875  -18.2679 N   0  0  0  0  0  0  0  0  0  0  0  0
   14.9662  -16.5789  -21.5905 O   0  5  0  0  0  0  0  0  0  0  0  0
   12.3578  -19.5872  -21.2978 O   0  5  0  0  0  0  0  0  0  0  0  0
   11.7488  -17.5199  -17.4040 O   0  0  0  0  0  0  0  0  0  0  0  0
   18.4974  -24.5662  -18.6292 C   0  0  0  0  0  0  0  0  0  0  0  0
   19.4715  -25.6166  -18.8468 N   0  0  0  0  0  0  0  0  0  0  0  0
   15.0871  -18.6027  -23.0341 O   0  0  0  0  0  0  0  0  0  0  0  0
   12.6641  -17.3719  -20.2666 O   0  0  0  0  0  0  0  0  0  0  0  0
   10.2038  -19.1192  -18.4644 O   0  5  0  0  0  0  0  0  0  0  0  0
   18.8722  -23.3147  -18.7990 N   0  0  0  0  0  0  0  0  0  0  0  0
   14.7117  -18.8822  -20.4929 O   0  0  0  0  0  0  0  0  0  0  0  0
   12.7558  -19.4505  -18.7510 O   0  0  0  0  0  0  0  0  0  0  0  0
   11.5346  -19.7907  -16.4772 O   0  0  0  0  0  0  0  0  0  0  0  0
   18.0033  -22.3146  -18.6083 C   0  0  0  0  0  0  0  0  0  0  0  0
   16.7115  -22.6222  -18.2316 C   0  0  0  0  0  0  0  0  0  0  0  0
   16.3335  -23.9672  -18.0552 C   0  0  0  0  0  0  0  0  0  0  0  0
   15.0254  -24.3114  -17.6715 O   0  0  0  0  0  0  0  0  0  0  0  0
   16.0401  -21.4649  -18.1041 N   0  0  0  0  0  0  0  0  0  0  0  0
   16.8793  -20.4847  -18.3898 C   0  0  0  0  0  0  0  0  0  0  0  0
   18.0647  -20.9767  -18.6981 N   0  0  0  0  0  0  0  0  0  0  0  0
  1  5  1  1  0  0  0
  1 14  1  0  0  0  0
  1 19  2  0  0  0  0
  1 23  1  0  0  0  0
  2 15  1  6  0  0  0
  2 20  2  0  0  0  0
  2 23  1  0  0  0  0
  2 24  1  0  0  0  0
  3 16  1  1  0  0  0
  3 21  1  0  0  0  0
  3 24  1  0  0  0  0
  3 25  2  0  0  0  0
  4  5  1  0  0  0  0
  6  4  1  1  0  0  0
  6  7  1  0  0  0  0
  6  8  1  0  0  0  0
  7 12  1  0  0  0  0
  8  9  1  6  0  0  0
  8 10  1  0  0  0  0
 10 11  1  6  0  0  0
 10 12  1  0  0  0  0
 12 32  1  6  0  0  0
 13 17  2  0  0  0  0
 13 28  1  0  0  0  0
 17 18  1  0  0  0  0
 17 22  1  0  0  0  0
 22 26  2  0  0  0  0
 26 27  1  0  0  0  0
 26 32  1  0  0  0  0
 27 28  2  0  0  0  0
 27 30  1  0  0  0  0
 28 29  1  0  0  0  0
 30 31  2  0  0  0  0
 31 32  1  0  0  0  0
M  CHG  3  14  -1  15  -1  21  -1
M  END
>  <CHROM.1>
-175.80149677,74.61100529,-60.85589951,66.13757092,-164.14290089,153.55298995
169.03913696,-91.20706711,15.88528020,-20.19789823,-19.63812905,-2.81430358
-0.33435306,2.52842693

>  <Name>
ligand

>  <RI>
0

>  <Rbt.Current_Directory>
/home/itssahil/PROJECTS/Mol_Feturizer/New_Systems/rnas/4Y1I

>  <Rbt.Executable>
rbdock ($Id: //depot/dev/client3/rdock/2013.1/src/exe/rbdock.cxx#4 $)

>  <Rbt.Library>
libRbt.so (2013.1, Build901 2013/11/27)

>  <Rbt.Parameter_File>
/export/apps/rDock/src/rDock_2013.1_src/data/scripts/dock_solv.prm

>  <Rbt.Receptor>
prm/pocket_docking_6.prm

>  <SCORE>
-14.1365

>  <SCORE.INTER>
-9.18227

>  <SCORE.INTER.CONST>
1

>  <SCORE.INTER.POLAR>
0

>  <SCORE.INTER.ROT>
8

>  <SCORE.INTER.SOLV>
16.1639

>  <SCORE.INTER.VDW>
-20.4428

>  <SCORE.INTER.norm>
-0.286946

>  <SCORE.INTRA>
-4.95421

>  <SCORE.INTRA.DIHEDRAL>
-6.55544

>  <SCORE.INTRA.DIHEDRAL.0>
10.9594

>  <SCORE.INTRA.POLAR>
0

>  <SCORE.INTRA.POLAR.0>
0

>  <SCORE.INTRA.REPUL>
0

>  <SCORE.INTRA.REPUL.0>
0

>  <SCORE.INTRA.SOLV>
-3.14492

>  <SCORE.INTRA.SOLV.lig_0>
-124.914

>  <SCORE.INTRA.VDW>
-0.104036

>  <SCORE.INTRA.VDW.0>
-4.69801

>  <SCORE.INTRA.norm>
-0.154819

>  <SCORE.RESTR>
0

>  <SCORE.RESTR.CAVITY>
0

>  <SCORE.RESTR.norm>
0

>  <SCORE.SYSTEM>
0

>  <SCORE.SYSTEM.CONST>
0

>  <SCORE.SYSTEM.DIHEDRAL>
0

>  <SCORE.SYSTEM.SOLV>
0

>  <SCORE.SYSTEM.norm>
0

>  <SCORE.heavy>
32

>  <SCORE.norm>
-0.441765

>  <RMSD>
8.256

$$$$
ligand
 OpenBabel11021811513D
libRbt.so/2013.1/901 2013/11/27
 32 34  0  0  0  0  0  0  0  0999 V2000
   16.2169  -21.6850  -18.4362 P   0  0  1  0  0  0  0  0  0  0  0  0
   18.5440  -20.1506  -19.1152 P   0  0  2  0  0  0  0  0  0  0  0  0
   20.9821  -18.5335  -18.8779 P   0  0  1  0  0  0  0  0  0  0  0  0
   16.3252  -24.1603  -17.6282 C   0  0  0  0  0  0  0  0  0  0  0  0
   17.0583  -23.0092  -17.9375 O   0  0  0  0  0  0  0  0  0  0  0  0
   17.1763  -25.1260  -17.1025 C   0  0  1  0  0  0  0  0  0  0  0  0
   16.3755  -26.3376  -16.6660 O   0  0  0  0  0  0  0  0  0  0  0  0
   18.2056  -25.6558  -18.2035 C   0  0  1  0  0  0  0  0  0  0  0  0
   19.6121  -25.2723  -17.8026 O   0  0  0  0  0  0  0  0  0  0  0  0
   18.1377  -26.8869  -18.1693 C   0  0  1  0  0  0  0  0  0  0  0  0
   19.2297  -27.4159  -17.3175 O   0  0  0  0  0  0  0  0  0  0  0  0
   16.6597  -27.2593  -17.4980 C   0  0  2  0  0  0  0  0  0  0  0  0
   15.4043  -28.8381  -22.2220 N   0  0  0  0  0  0  0  0  0  0  0  0
   15.8627  -21.8239  -19.8961 O   0  5  0  0  0  0  0  0  0  0  0  0
   18.2124  -19.7331  -20.5259 O   0  5  0  0  0  0  0  0  0  0  0  0
   20.8617  -17.8973  -20.2429 O   0  0  0  0  0  0  0  0  0  0  0  0
   16.5707  -28.9486  -21.6056 C   0  0  0  0  0  0  0  0  0  0  0  0
   17.6789  -29.5844  -22.2892 N   0  0  0  0  0  0  0  0  0  0  0  0
   14.9723  -21.5527  -17.5878 O   0  0  0  0  0  0  0  0  0  0  0  0
   19.2943  -21.4565  -19.1388 O   0  0  0  0  0  0  0  0  0  0  0  0
   21.5379  -17.5170  -17.9047 O   0  5  0  0  0  0  0  0  0  0  0  0
   16.7606  -28.4972  -20.3826 N   0  0  0  0  0  0  0  0  0  0  0  0
   17.1679  -20.3592  -18.2449 O   0  0  0  0  0  0  0  0  0  0  0  0
   19.4718  -18.9984  -18.3958 O   0  0  0  0  0  0  0  0  0  0  0  0
   21.9029  -19.7305  -18.9714 O   0  0  0  0  0  0  0  0  0  0  0  0
   15.7631  -27.9033  -19.7164 C   0  0  0  0  0  0  0  0  0  0  0  0
   14.5366  -27.7748  -20.3363 C   0  0  0  0  0  0  0  0  0  0  0  0
   14.3565  -28.2656  -21.6438 C   0  0  0  0  0  0  0  0  0  0  0  0
   13.1188  -28.1497  -22.3009 O   0  0  0  0  0  0  0  0  0  0  0  0
   13.7109  -27.1544  -19.4763 N   0  0  0  0  0  0  0  0  0  0  0  0
   14.3964  -26.9095  -18.3732 C   0  0  0  0  0  0  0  0  0  0  0  0
   15.6340  -27.3506  -18.4999 N   0  0  0  0  0  0  0  0  0  0  0  0
  1  5  1  1  0  0  0
  1 14  1  0  0  0  0
  1 19  2  0  0  0  0
  1 23  1  0  0  0  0
  2 15  1  6  0  0  0
  2 20  2  0  0  0  0
  2 23  1  0  0  0  0
  2 24  1  0  0  0  0
  3 16  1  6  0  0  0
  3 21  1  0  0  0  0
  3 24  1  0  0  0  0
  3 25  2  0  0  0  0
  4  5  1  0  0  0  0
  6  4  1  6  0  0  0
  6  7  1  0  0  0  0
  6  8  1  0  0  0  0
  7 12  1  0  0  0  0
  8  9  1  1  0  0  0
  8 10  1  0  0  0  0
 10 11  1  1  0  0  0
 10 12  1  0  0  0  0
 12 32  1  6  0  0  0
 13 17  2  0  0  0  0
 13 28  1  0  0  0  0
 17 18  1  0  0  0  0
 17 22  1  0  0  0  0
 22 26  2  0  0  0  0
 26 27  1  0  0  0  0
 26 32  1  0  0  0  0
 27 28  2  0  0  0  0
 27 30  1  0  0  0  0
 28 29  1  0  0  0  0
 30 31  2  0  0  0  0
 31 32  1  0  0  0  0
M  CHG  3  14  -1  15  -1  21  -1
M  END
>  <CHROM.1>
-80.27147342,75.83523874,64.98810057,175.69811813,-174.10595264,159.20988426
65.60364447,-62.83621496,17.46508901,-23.74317102,-19.07595570,1.11822982
-0.21703502,0.03434532

>  <Name>
ligand

>  <RI>
0

>  <Rbt.Current_Directory>
/home/itssahil/PROJECTS/Mol_Feturizer/New_Systems/rnas/4Y1I

>  <Rbt.Executable>
rbdock ($Id: //depot/dev/client3/rdock/2013.1/src/exe/rbdock.cxx#4 $)

>  <Rbt.Library>
libRbt.so (2013.1, Build901 2013/11/27)

>  <Rbt.Parameter_File>
/export/apps/rDock/src/rDock_2013.1_src/data/scripts/dock_solv.prm

>  <Rbt.Receptor>
prm/pocket_docking_6.prm

>  <SCORE>
-8.36189

>  <SCORE.INTER>
-2.91077

>  <SCORE.INTER.CONST>
1

>  <SCORE.INTER.POLAR>
0

>  <SCORE.INTER.ROT>
8

>  <SCORE.INTER.SOLV>
22.2992

>  <SCORE.INTER.VDW>
-18.3069

>  <SCORE.INTER.norm>
-0.0909617

>  <SCORE.INTRA>
-5.45112

>  <SCORE.INTRA.DIHEDRAL>
-8.44548

>  <SCORE.INTRA.DIHEDRAL.0>
10.9594

>  <SCORE.INTRA.POLAR>
0

>  <SCORE.INTRA.POLAR.0>
0

>  <SCORE.INTRA.REPUL>
0

>  <SCORE.INTRA.REPUL.0>
0

>  <SCORE.INTRA.SOLV>
-3.42063

>  <SCORE.INTRA.SOLV.lig_0>
-124.914

>  <SCORE.INTRA.VDW>
0.48194

>  <SCORE.INTRA.VDW.0>
-4.69801

>  <SCORE.INTRA.norm>
-0.170347

>  <SCORE.RESTR>
0

>  <SCORE.RESTR.CAVITY>
0

>  <SCORE.RESTR.norm>
0

>  <SCORE.SYSTEM>
0

>  <SCORE.SYSTEM.CONST>
0

>  <SCORE.SYSTEM.DIHEDRAL>
0

>  <SCORE.SYSTEM.SOLV>
0

>  <SCORE.SYSTEM.norm>
0

>  <SCORE.heavy>
32

>  <SCORE.norm>
-0.261309

>  <RMSD>
8.314

$$$$
ligand
 OpenBabel11021811513D
libRbt.so/2013.1/901 2013/11/27
 32 34  0  0  0  0  0  0  0  0999 V2000
   18.4849  -20.3923  -19.0586 P   0  0  1  0  0  0  0  0  0  0  0  0
   20.8079  -18.7312  -18.7838 P   0  0  2  0  0  0  0  0  0  0  0  0
   23.2597  -20.1791  -19.4962 P   0  0  1  0  0  0  0  0  0  0  0  0
   18.9583  -22.9257  -19.4449 C   0  0  0  0  0  0  0  0  0  0  0  0
   19.3320  -21.7698  -18.7504 O   0  0  0  0  0  0  0  0  0  0  0  0
   19.7639  -23.9871  -19.0480 C   0  0  1  0  0  0  0  0  0  0  0  0
   19.6225  -24.2124  -17.5549 O   0  0  0  0  0  0  0  0  0  0  0  0
   19.3099  -25.3530  -19.7410 C   0  0  1  0  0  0  0  0  0  0  0  0
   20.4081  -25.8403  -20.6590 O   0  0  0  0  0  0  0  0  0  0  0  0
   19.2008  -26.1777  -18.8303 C   0  0  1  0  0  0  0  0  0  0  0  0
   20.4453  -26.9784  -18.7407 O   0  0  0  0  0  0  0  0  0  0  0  0
   18.9816  -25.3059  -17.4283 C   0  0  2  0  0  0  0  0  0  0  0  0
   14.3244  -24.6266  -19.4859 N   0  0  0  0  0  0  0  0  0  0  0  0
   18.4100  -20.1601  -20.5474 O   0  5  0  0  0  0  0  0  0  0  0  0
   21.4557  -17.9196  -17.6902 O   0  5  0  0  0  0  0  0  0  0  0  0
   24.0874  -19.5577  -18.3956 O   0  0  0  0  0  0  0  0  0  0  0  0
   15.4653  -24.8771  -20.1089 C   0  0  0  0  0  0  0  0  0  0  0  0
   15.4773  -24.9873  -21.5537 N   0  0  0  0  0  0  0  0  0  0  0  0
   17.1021  -20.5289  -18.4622 O   0  0  0  0  0  0  0  0  0  0  0  0
   20.7593  -17.9206  -20.0524 O   0  0  0  0  0  0  0  0  0  0  0  0
   23.6742  -21.6236  -19.6725 O   0  5  0  0  0  0  0  0  0  0  0  0
   16.5992  -25.0312  -19.4561 N   0  0  0  0  0  0  0  0  0  0  0  0
   19.2716  -19.1286  -18.3636 O   0  0  0  0  0  0  0  0  0  0  0  0
   21.6721  -20.1063  -19.0448 O   0  0  0  0  0  0  0  0  0  0  0  0
   23.4845  -19.4071  -20.7779 O   0  0  0  0  0  0  0  0  0  0  0  0
   16.6314  -24.9369  -18.1213 C   0  0  0  0  0  0  0  0  0  0  0  0
   15.4558  -24.6758  -17.4470 C   0  0  0  0  0  0  0  0  0  0  0  0
   14.2554  -24.5156  -18.1657 C   0  0  0  0  0  0  0  0  0  0  0  0
   13.0422  -24.2496  -17.5067 O   0  0  0  0  0  0  0  0  0  0  0  0
   15.7429  -24.6290  -16.1349 N   0  0  0  0  0  0  0  0  0  0  0  0
   17.0391  -24.8509  -16.0033 C   0  0  0  0  0  0  0  0  0  0  0  0
   17.5911  -25.0357  -17.1880 N   0  0  0  0  0  0  0  0  0  0  0  0
  1  5  1  1  0  0  0
  1 14  1  0  0  0  0
  1 19  2  0  0  0  0
  1 23  1  0  0  0  0
  2 15  1  1  0  0  0
  2 20  2  0  0  0  0
  2 23  1  0  0  0  0
  2 24  1  0  0  0  0
  3 16  1  1  0  0  0
  3 21  1  0  0  0  0
  3 24  1  0  0  0  0
  3 25  2  0  0  0  0
  4  5  1  0  0  0  0
  6  4  1  6  0  0  0
  6  7  1  0  0  0  0
  6  8  1  0  0  0  0
  7 12  1  0  0  0  0
  8  9  1  6  0  0  0
  8 10  1  0  0  0  0
 10 11  1  1  0  0  0
 10 12  1  0  0  0  0
 12 32  1  6  0  0  0
 13 17  2  0  0  0  0
 13 28  1  0  0  0  0
 17 18  1  0  0  0  0
 17 22  1  0  0  0  0
 22 26  2  0  0  0  0
 26 27  1  0  0  0  0
 26 32  1  0  0  0  0
 27 28  2  0  0  0  0
 27 30  1  0  0  0  0
 28 29  1  0  0  0  0
 30 31  2  0  0  0  0
 31 32  1  0  0  0  0
M  CHG  3  14  -1  15  -1  21  -1
M  END
>  <CHROM.1>
-50.39448046,-158.87472405,62.80153321,59.11579432,-179.19585772,91.93902937
60.38589819,-59.30531048,19.09391456,-22.39329924,-18.86235013,0.74448719
0.14381373,0.00888489

>  <Name>
ligand

>  <RI>
0

>  <Rbt.Current_Directory>
/home/itssahil/PROJECTS/Mol_Feturizer/New_Systems/rnas/4Y1I

>  <Rbt.Executable>
rbdock ($Id: //depot/dev/client3/rdock/2013.1/src/exe/rbdock.cxx#4 $)

>  <Rbt.Library>
libRbt.so (2013.1, Build901 2013/11/27)

>  <Rbt.Parameter_File>
/export/apps/rDock/src/rDock_2013.1_src/data/scripts/dock_solv.prm

>  <Rbt.Receptor>
prm/pocket_docking_8.prm

>  <SCORE>
-11.269

>  <SCORE.INTER>
-4.10206

>  <SCORE.INTER.CONST>
1

>  <SCORE.INTER.POLAR>
0

>  <SCORE.INTER.ROT>
8

>  <SCORE.INTER.SOLV>
20.1164

>  <SCORE.INTER.VDW>
-18.3735

>  <SCORE.INTER.norm>
-0.128189

>  <SCORE.INTRA>
-7.16692

>  <SCORE.INTRA.DIHEDRAL>
-8.84612

>  <SCORE.INTRA.DIHEDRAL.0>
10.9594

>  <SCORE.INTRA.POLAR>
0

>  <SCORE.INTRA.POLAR.0>
0

>  <SCORE.INTRA.REPUL>
0

>  <SCORE.INTRA.REPUL.0>
0

>  <SCORE.INTRA.SOLV>
-4.76646

>  <SCORE.INTRA.SOLV.lig_0>
-124.914

>  <SCORE.INTRA.VDW>
-0.360636

>  <SCORE.INTRA.VDW.0>
-4.69801

>  <SCORE.INTRA.norm>
-0.223966

>  <SCORE.RESTR>
0

>  <SCORE.RESTR.CAVITY>
0

>  <SCORE.RESTR.norm>
0

>  <SCORE.SYSTEM>
0

>  <SCORE.SYSTEM.CONST>
0

>  <SCORE.SYSTEM.DIHEDRAL>
0

>  <SCORE.SYSTEM.SOLV>
0

>  <SCORE.SYSTEM.norm>
0

>  <SCORE.heavy>
32

>  <SCORE.norm>
-0.352156

>  <RMSD>
8.345

$$$$
ligand
 OpenBabel11021811513D
libRbt.so/2013.1/901 2013/11/27
 32 34  0  0  0  0  0  0  0  0999 V2000
   16.8918  -24.6780  -18.6225 P   0  0  1  0  0  0  0  0  0  0  0  0
   16.3360  -21.8768  -18.3476 P   0  0  2  0  0  0  0  0  0  0  0  0
   18.5880  -20.1533  -19.1046 P   0  0  1  0  0  0  0  0  0  0  0  0
   14.9079  -26.3097  -18.1834 C   0  0  0  0  0  0  0  0  0  0  0  0
   15.4938  -25.0826  -17.8532 O   0  0  0  0  0  0  0  0  0  0  0  0
   15.7034  -27.3469  -17.7095 C   0  0  1  0  0  0  0  0  0  0  0  0
   15.6560  -27.3831  -16.1941 O   0  0  0  0  0  0  0  0  0  0  0  0
   15.1593  -28.7673  -18.1978 C   0  0  1  0  0  0  0  0  0  0  0  0
   16.1765  -29.4068  -19.1157 O   0  0  0  0  0  0  0  0  0  0  0  0
   15.0852  -29.4701  -17.1869 C   0  0  1  0  0  0  0  0  0  0  0  0
   16.3062  -30.3038  -17.0773 O   0  0  0  0  0  0  0  0  0  0  0  0
   14.9898  -28.4261  -15.8927 C   0  0  2  0  0  0  0  0  0  0  0  0
   10.0711  -29.9060  -15.9224 N   0  0  0  0  0  0  0  0  0  0  0  0
   17.9846  -25.6452  -18.2399 O   0  5  0  0  0  0  0  0  0  0  0  0
   15.2607  -21.8774  -17.2902 O   0  5  0  0  0  0  0  0  0  0  0  0
   19.2570  -18.9592  -18.4650 O   0  0  0  0  0  0  0  0  0  0  0  0
   11.1337  -30.5906  -16.3161 C   0  0  0  0  0  0  0  0  0  0  0  0
   10.9632  -31.9340  -16.8318 N   0  0  0  0  0  0  0  0  0  0  0  0
   16.6487  -24.6993  -20.1147 O   0  0  0  0  0  0  0  0  0  0  0  0
   15.7027  -21.9703  -19.7111 O   0  0  0  0  0  0  0  0  0  0  0  0
   19.5293  -21.3368  -19.0500 O   0  5  0  0  0  0  0  0  0  0  0  0
   12.3504  -30.0892  -16.2549 N   0  0  0  0  0  0  0  0  0  0  0  0
   17.3306  -23.1675  -18.1487 O   0  0  0  0  0  0  0  0  0  0  0  0
   17.2174  -20.4916  -18.2465 O   0  0  0  0  0  0  0  0  0  0  0  0
   18.2479  -19.8175  -20.5402 O   0  0  0  0  0  0  0  0  0  0  0  0
   12.5512  -28.8520  -15.7852 C   0  0  0  0  0  0  0  0  0  0  0  0
   11.4602  -28.1164  -15.3684 C   0  0  0  0  0  0  0  0  0  0  0  0
   10.1689  -28.6732  -15.4423 C   0  0  0  0  0  0  0  0  0  0  0  0
    9.0386  -27.9486  -15.0248 O   0  0  0  0  0  0  0  0  0  0  0  0
   11.9132  -26.9240  -14.9450 N   0  0  0  0  0  0  0  0  0  0  0  0
   13.2264  -26.9218  -15.0938 C   0  0  0  0  0  0  0  0  0  0  0  0
   13.6283  -28.0724  -15.6005 N   0  0  0  0  0  0  0  0  0  0  0  0
  1  5  1  1  0  0  0
  1 14  1  0  0  0  0
  1 19  2  0  0  0  0
  1 23  1  0  0  0  0
  2 15  1  1  0  0  0
  2 20  2  0  0  0  0
  2 23  1  0  0  0  0
  2 24  1  0  0  0  0
  3 16  1  1  0  0  0
  3 21  1  0  0  0  0
  3 24  1  0  0  0  0
  3 25  2  0  0  0  0
  4  5  1  0  0  0  0
  6  4  1  6  0  0  0
  6  7  1  0  0  0  0
  6  8  1  0  0  0  0
  7 12  1  0  0  0  0
  8  9  1  6  0  0  0
  8 10  1  0  0  0  0
 10 11  1  1  0  0  0
 10 12  1  0  0  0  0
 12 32  1  6  0  0  0
 13 17  2  0  0  0  0
 13 28  1  0  0  0  0
 17 18  1  0  0  0  0
 17 22  1  0  0  0  0
 22 26  2  0  0  0  0
 26 27  1  0  0  0  0
 26 32  1  0  0  0  0
 27 28  2  0  0  0  0
 27 30  1  0  0  0  0
 28 29  1  0  0  0  0
 30 31  2  0  0  0  0
 31 32  1  0  0  0  0
M  CHG  3  14  -1  15  -1  21  -1
M  END
>  <CHROM.1>
-64.81177873,77.62300969,-165.87224003,69.14086269,69.18160700,150.54476003
-57.59945194,173.05812140,15.22760436,-25.54282717,-17.58368199,-0.91423074
-0.45361428,3.13582346

>  <Name>
ligand

>  <RI>
0

>  <Rbt.Current_Directory>
/home/itssahil/PROJECTS/Mol_Feturizer/New_Systems/rnas/4Y1I

>  <Rbt.Executable>
rbdock ($Id: //depot/dev/client3/rdock/2013.1/src/exe/rbdock.cxx#4 $)

>  <Rbt.Library>
libRbt.so (2013.1, Build901 2013/11/27)

>  <Rbt.Parameter_File>
/export/apps/rDock/src/rDock_2013.1_src/data/scripts/dock_solv.prm

>  <Rbt.Receptor>
prm/pocket_docking_3.prm

>  <SCORE>
-2.26854

>  <SCORE.INTER>
2.21104

>  <SCORE.INTER.CONST>
1

>  <SCORE.INTER.POLAR>
0

>  <SCORE.INTER.ROT>
8

>  <SCORE.INTER.SOLV>
14.2147

>  <SCORE.INTER.VDW>
-12.1975

>  <SCORE.INTER.norm>
0.069095

>  <SCORE.INTRA>
-4.48425

>  <SCORE.INTRA.DIHEDRAL>
-8.12329

>  <SCORE.INTRA.DIHEDRAL.0>
10.9594

>  <SCORE.INTRA.POLAR>
0

>  <SCORE.INTRA.POLAR.0>
0

>  <SCORE.INTRA.REPUL>
0

>  <SCORE.INTRA.REPUL.0>
0

>  <SCORE.INTRA.SOLV>
-1.41098

>  <SCORE.INTRA.SOLV.lig_0>
-124.914

>  <SCORE.INTRA.VDW>
0.282881

>  <SCORE.INTRA.VDW.0>
-4.69801

>  <SCORE.INTRA.norm>
-0.140133

>  <SCORE.RESTR>
0.00467796

>  <SCORE.RESTR.CAVITY>
0.00467796

>  <SCORE.RESTR.norm>
0.000146186

>  <SCORE.SYSTEM>
0

>  <SCORE.SYSTEM.CONST>
0

>  <SCORE.SYSTEM.DIHEDRAL>
0

>  <SCORE.SYSTEM.SOLV>
0

>  <SCORE.SYSTEM.norm>
0

>  <SCORE.heavy>
32

>  <SCORE.norm>
-0.0708917

>  <RMSD>
8.373

$$$$
ligand
 OpenBabel11021811513D
libRbt.so/2013.1/901 2013/11/27
 32 34  0  0  0  0  0  0  0  0999 V2000
   16.0253  -21.2261  -18.7062 P   0  0  1  0  0  0  0  0  0  0  0  0
   14.1664  -19.7974  -20.3599 P   0  0  2  0  0  0  0  0  0  0  0  0
   14.8901  -17.5662  -22.1243 P   0  0  1  0  0  0  0  0  0  0  0  0
   18.5842  -21.0331  -19.1601 C   0  0  0  0  0  0  0  0  0  0  0  0
   17.5778  -21.0488  -18.1881 O   0  0  0  0  0  0  0  0  0  0  0  0
   18.7515  -22.3132  -19.6765 C   0  0  1  0  0  0  0  0  0  0  0  0
   19.9039  -22.3258  -20.6622 O   0  0  0  0  0  0  0  0  0  0  0  0
   19.1442  -23.3557  -18.5315 C   0  0  1  0  0  0  0  0  0  0  0  0
   18.0367  -24.3734  -18.3767 O   0  0  0  0  0  0  0  0  0  0  0  0
   20.1390  -23.9568  -18.9442 C   0  0  1  0  0  0  0  0  0  0  0  0
   19.7187  -25.2384  -19.5596 O   0  0  0  0  0  0  0  0  0  0  0  0
   20.8400  -22.9757  -20.0931 C   0  0  2  0  0  0  0  0  0  0  0  0
   25.2641  -22.4378  -17.5390 N   0  0  0  0  0  0  0  0  0  0  0  0
   15.9062  -22.4724  -19.5481 O   0  5  0  0  0  0  0  0  0  0  0  0
   13.0627  -20.1129  -19.3819 O   0  5  0  0  0  0  0  0  0  0  0  0
   16.2966  -17.4015  -21.5982 O   0  0  0  0  0  0  0  0  0  0  0  0
   24.6771  -23.5577  -17.9315 C   0  0  0  0  0  0  0  0  0  0  0  0
   25.3048  -24.8303  -17.6381 N   0  0  0  0  0  0  0  0  0  0  0  0
   15.1163  -21.2992  -17.5002 O   0  0  0  0  0  0  0  0  0  0  0  0
   14.1214  -20.7758  -21.5042 O   0  0  0  0  0  0  0  0  0  0  0  0
   14.9188  -18.4620  -23.3434 O   0  5  0  0  0  0  0  0  0  0  0  0
   23.5330  -23.5555  -18.5847 N   0  0  0  0  0  0  0  0  0  0  0  0
   15.6298  -19.9243  -19.6269 O   0  0  0  0  0  0  0  0  0  0  0  0
   13.9798  -18.2688  -20.9381 O   0  0  0  0  0  0  0  0  0  0  0  0
   14.3359  -16.2051  -22.4846 O   0  0  0  0  0  0  0  0  0  0  0  0
   22.9202  -22.4015  -18.8753 C   0  0  0  0  0  0  0  0  0  0  0  0
   23.5107  -21.2192  -18.4771 C   0  0  0  0  0  0  0  0  0  0  0  0
   24.7343  -21.2458  -17.7806 C   0  0  0  0  0  0  0  0  0  0  0  0
   25.3601  -20.0581  -17.3627 O   0  0  0  0  0  0  0  0  0  0  0  0
   22.7155  -20.2133  -18.8797 N   0  0  0  0  0  0  0  0  0  0  0  0
   21.6785  -20.7497  -19.4992 C   0  0  0  0  0  0  0  0  0  0  0  0
   21.7829  -22.0655  -19.5042 N   0  0  0  0  0  0  0  0  0  0  0  0
  1  5  1  1  0  0  0
  1 14  1  0  0  0  0
  1 19  2  0  0  0  0
  1 23  1  0  0  0  0
  2 15  1  1  0  0  0
  2 20  2  0  0  0  0
  2 23  1  0  0  0  0
  2 24  1  0  0  0  0
  3 16  1  1  0  0  0
  3 21  1  0  0  0  0
  3 24  1  0  0  0  0
  3 25  2  0  0  0  0
  4  5  1  0  0  0  0
  6  4  1  1  0  0  0
  6  7  1  0  0  0  0
  6  8  1  0  0  0  0
  7 12  1  0  0  0  0
  8  9  1  6  0  0  0
  8 10  1  0  0  0  0
 10 11  1  6  0  0  0
 10 12  1  0  0  0  0
 12 32  1  1  0  0  0
 13 17  2  0  0  0  0
 13 28  1  0  0  0  0
 17 18  1  0  0  0  0
 17 22  1  0  0  0  0
 22 26  2  0  0  0  0
 26 27  1  0  0  0  0
 26 32  1  0  0  0  0
 27 28  2  0  0  0  0
 27 30  1  0  0  0  0
 28 29  1  0  0  0  0
 30 31  2  0  0  0  0
 31 32  1  0  0  0  0
M  CHG  3  14  -1  15  -1  21  -1
M  END
>  <CHROM.1>
55.08561359,47.83864453,-66.48511854,-176.15638163,-72.13299833,-176.97633371
177.57550559,-174.49748575,18.51461657,-21.08366614,-19.59286572,2.68580227
-0.11035532,-0.40841417

>  <Name>
ligand

>  <RI>
0

>  <Rbt.Current_Directory>
/home/itssahil/PROJECTS/Mol_Feturizer/New_Systems/rnas/4Y1I

>  <Rbt.Executable>
rbdock ($Id: //depot/dev/client3/rdock/2013.1/src/exe/rbdock.cxx#4 $)

>  <Rbt.Library>
libRbt.so (2013.1, Build901 2013/11/27)

>  <Rbt.Parameter_File>
/export/apps/rDock/src/rDock_2013.1_src/data/scripts/dock_solv.prm

>  <Rbt.Receptor>
prm/pocket_docking_7.prm

>  <SCORE>
-14.4589

>  <SCORE.INTER>
-10.1224

>  <SCORE.INTER.CONST>
1

>  <SCORE.INTER.POLAR>
0

>  <SCORE.INTER.ROT>
8

>  <SCORE.INTER.SOLV>
17.3417

>  <SCORE.INTER.VDW>
-21.4622

>  <SCORE.INTER.norm>
-0.316326

>  <SCORE.INTRA>
-4.33652

>  <SCORE.INTRA.DIHEDRAL>
-8.59408

>  <SCORE.INTRA.DIHEDRAL.0>
10.9594

>  <SCORE.INTRA.POLAR>
0

>  <SCORE.INTRA.POLAR.0>
0

>  <SCORE.INTRA.REPUL>
0

>  <SCORE.INTRA.REPUL.0>
0

>  <SCORE.INTRA.SOLV>
-1.12997

>  <SCORE.INTRA.SOLV.lig_0>
-124.914

>  <SCORE.INTRA.VDW>
0.525505

>  <SCORE.INTRA.VDW.0>
-4.69801

>  <SCORE.INTRA.norm>
-0.135516

>  <SCORE.RESTR>
0

>  <SCORE.RESTR.CAVITY>
0

>  <SCORE.RESTR.norm>
0

>  <SCORE.SYSTEM>
0

>  <SCORE.SYSTEM.CONST>
0

>  <SCORE.SYSTEM.DIHEDRAL>
0

>  <SCORE.SYSTEM.SOLV>
0

>  <SCORE.SYSTEM.norm>
0

>  <SCORE.heavy>
32

>  <SCORE.norm>
-0.451842

>  <RMSD>
8.397

$$$$
ligand
 OpenBabel11021811513D
libRbt.so/2013.1/901 2013/11/27
 32 34  0  0  0  0  0  0  0  0999 V2000
   18.8138  -20.7102  -19.3239 P   0  0  1  0  0  0  0  0  0  0  0  0
   16.4848  -20.2964  -20.9474 P   0  0  2  0  0  0  0  0  0  0  0  0
   16.6515  -17.9126  -22.6520 P   0  0  1  0  0  0  0  0  0  0  0  0
   20.5068  -22.4090  -20.3435 C   0  0  0  0  0  0  0  0  0  0  0  0
   20.3438  -21.2814  -19.5310 O   0  0  0  0  0  0  0  0  0  0  0  0
   21.8318  -22.8278  -20.2967 C   0  0  1  0  0  0  0  0  0  0  0  0
   22.2138  -23.1743  -18.8705 O   0  0  0  0  0  0  0  0  0  0  0  0
   22.0499  -24.1641  -21.1446 C   0  0  1  0  0  0  0  0  0  0  0  0
   22.9656  -23.8747  -22.3124 O   0  0  0  0  0  0  0  0  0  0  0  0
   22.6430  -24.9478  -20.3994 C   0  0  1  0  0  0  0  0  0  0  0  0
   24.0980  -24.8836  -20.6765 O   0  0  0  0  0  0  0  0  0  0  0  0
   22.3364  -24.4419  -18.8425 C   0  0  2  0  0  0  0  0  0  0  0  0
   20.0352  -28.7480  -17.2466 N   0  0  0  0  0  0  0  0  0  0  0  0
   18.0276  -21.6578  -18.4521 O   0  5  0  0  0  0  0  0  0  0  0  0
   15.7519  -20.6827  -19.6873 O   0  5  0  0  0  0  0  0  0  0  0  0
   16.4927  -18.8970  -23.7869 O   0  0  0  0  0  0  0  0  0  0  0  0
   21.2697  -28.6006  -17.7016 C   0  0  0  0  0  0  0  0  0  0  0  0
   22.1386  -29.7569  -17.7880 N   0  0  0  0  0  0  0  0  0  0  0  0
   18.8891  -19.3358  -18.6981 O   0  0  0  0  0  0  0  0  0  0  0  0
   15.9492  -21.0943  -22.1073 O   0  0  0  0  0  0  0  0  0  0  0  0
   15.6998  -16.7553  -22.8630 O   0  5  0  0  0  0  0  0  0  0  0  0
   21.7395  -27.4299  -18.0815 N   0  0  0  0  0  0  0  0  0  0  0  0
   18.0876  -20.6163  -20.7945 O   0  0  0  0  0  0  0  0  0  0  0  0
   16.2776  -18.6916  -21.2439 O   0  0  0  0  0  0  0  0  0  0  0  0
   18.0816  -17.4192  -22.6237 O   0  0  0  0  0  0  0  0  0  0  0  0
   20.9694  -26.3370  -18.0179 C   0  0  0  0  0  0  0  0  0  0  0  0
   19.6779  -26.4630  -17.5476 C   0  0  0  0  0  0  0  0  0  0  0  0
   19.1973  -27.7243  -17.1463 C   0  0  0  0  0  0  0  0  0  0  0  0
   17.8868  -27.8839  -16.6626 O   0  0  0  0  0  0  0  0  0  0  0  0
   19.1144  -25.2433  -17.5788 N   0  0  0  0  0  0  0  0  0  0  0  0
   20.0173  -24.3999  -18.0482 C   0  0  0  0  0  0  0  0  0  0  0  0
   21.1390  -25.0402  -18.3204 N   0  0  0  0  0  0  0  0  0  0  0  0
  1  5  1  6  0  0  0
  1 14  1  0  0  0  0
  1 19  2  0  0  0  0
  1 23  1  0  0  0  0
  2 15  1  1  0  0  0
  2 20  2  0  0  0  0
  2 23  1  0  0  0  0
  2 24  1  0  0  0  0
  3 16  1  6  0  0  0
  3 21  1  0  0  0  0
  3 24  1  0  0  0  0
  3 25  2  0  0  0  0
  4  5  1  0  0  0  0
  6  4  1  1  0  0  0
  6  7  1  0  0  0  0
  6  8  1  0  0  0  0
  7 12  1  0  0  0  0
  8  9  1  6  0  0  0
  8 10  1  0  0  0  0
 10 11  1  6  0  0  0
 10 12  1  0  0  0  0
 12 32  1  6  0  0  0
 13 17  2  0  0  0  0
 13 28  1  0  0  0  0
 17 18  1  0  0  0  0
 17 22  1  0  0  0  0
 22 26  2  0  0  0  0
 26 27  1  0  0  0  0
 26 32  1  0  0  0  0
 27 28  2  0  0  0  0
 27 30  1  0  0  0  0
 28 29  1  0  0  0  0
 30 31  2  0  0  0  0
 31 32  1  0  0  0  0
M  CHG  3  14  -1  15  -1  21  -1
M  END
>  <CHROM.1>
71.40788222,-23.72417933,29.99025669,59.75711750,-174.05894565,-172.43401098
170.86907641,-167.38664492,19.29320549,-22.69633476,-19.89235467,2.04962286
0.30631443,-0.57274671

>  <Name>
ligand

>  <RI>
0

>  <Rbt.Current_Directory>
/home/itssahil/PROJECTS/Mol_Feturizer/New_Systems/rnas/4Y1I

>  <Rbt.Executable>
rbdock ($Id: //depot/dev/client3/rdock/2013.1/src/exe/rbdock.cxx#4 $)

>  <Rbt.Library>
libRbt.so (2013.1, Build901 2013/11/27)

>  <Rbt.Parameter_File>
/export/apps/rDock/src/rDock_2013.1_src/data/scripts/dock_solv.prm

>  <Rbt.Receptor>
prm/pocket_docking_7.prm

>  <SCORE>
-8.97156

>  <SCORE.INTER>
-3.7371

>  <SCORE.INTER.CONST>
1

>  <SCORE.INTER.POLAR>
0

>  <SCORE.INTER.ROT>
8

>  <SCORE.INTER.SOLV>
23.4554

>  <SCORE.INTER.VDW>
-19.2432

>  <SCORE.INTER.norm>
-0.116784

>  <SCORE.INTRA>
-5.23447

>  <SCORE.INTRA.DIHEDRAL>
-6.11918

>  <SCORE.INTRA.DIHEDRAL.0>
10.9594

>  <SCORE.INTRA.POLAR>
0

>  <SCORE.INTRA.POLAR.0>
0

>  <SCORE.INTRA.REPUL>
0

>  <SCORE.INTRA.REPUL.0>
0

>  <SCORE.INTRA.SOLV>
-4.85461

>  <SCORE.INTRA.SOLV.lig_0>
-124.914

>  <SCORE.INTRA.VDW>
0.252432

>  <SCORE.INTRA.VDW.0>
-4.69801

>  <SCORE.INTRA.norm>
-0.163577

>  <SCORE.RESTR>
0

>  <SCORE.RESTR.CAVITY>
0

>  <SCORE.RESTR.norm>
0

>  <SCORE.SYSTEM>
0

>  <SCORE.SYSTEM.CONST>
0

>  <SCORE.SYSTEM.DIHEDRAL>
0

>  <SCORE.SYSTEM.SOLV>
0

>  <SCORE.SYSTEM.norm>
0

>  <SCORE.heavy>
32

>  <SCORE.norm>
-0.280361

>  <RMSD>
8.426

$$$$
ligand
 OpenBabel11021811513D
libRbt.so/2013.1/901 2013/11/27
 32 34  0  0  0  0  0  0  0  0999 V2000
   20.8966  -24.1207  -20.0400 P   0  0  1  0  0  0  0  0  0  0  0  0
   23.4650  -24.8237  -18.9723 P   0  0  2  0  0  0  0  0  0  0  0  0
   25.6703  -23.4627  -20.3506 P   0  0  1  0  0  0  0  0  0  0  0  0
   21.4929  -21.6381  -19.5177 C   0  0  0  0  0  0  0  0  0  0  0  0
   21.3372  -22.6072  -20.5150 O   0  0  0  0  0  0  0  0  0  0  0  0
   21.6415  -20.3866  -20.1051 C   0  0  1  0  0  0  0  0  0  0  0  0
   20.4827  -20.1168  -21.0455 O   0  0  0  0  0  0  0  0  0  0  0  0
   21.5978  -19.2221  -19.0123 C   0  0  1  0  0  0  0  0  0  0  0  0
   22.9407  -18.5290  -18.9623 O   0  0  0  0  0  0  0  0  0  0  0  0
   20.7760  -18.3994  -19.4233 C   0  0  1  0  0  0  0  0  0  0  0  0
   21.4857  -17.3074  -20.1317 O   0  0  0  0  0  0  0  0  0  0  0  0
   19.7820  -19.2143  -20.4825 C   0  0  2  0  0  0  0  0  0  0  0  0
   14.6838  -19.8209  -20.3208 N   0  0  0  0  0  0  0  0  0  0  0  0
   19.4597  -24.1144  -19.5801 O   0  5  0  0  0  0  0  0  0  0  0  0
   23.7100  -26.1018  -19.7345 O   0  5  0  0  0  0  0  0  0  0  0  0
   25.9608  -24.7265  -21.1257 O   0  0  0  0  0  0  0  0  0  0  0  0
   15.3972  -19.1209  -21.1890 C   0  0  0  0  0  0  0  0  0  0  0  0
   14.7213  -18.4099  -22.2555 N   0  0  0  0  0  0  0  0  0  0  0  0
   21.0885  -25.0693  -21.2017 O   0  0  0  0  0  0  0  0  0  0  0  0
   24.0938  -24.9220  -17.6072 O   0  0  0  0  0  0  0  0  0  0  0  0
   25.8085  -22.2721  -21.2742 O   0  5  0  0  0  0  0  0  0  0  0  0
   16.7105  -19.0475  -21.1167 N   0  0  0  0  0  0  0  0  0  0  0  0
   21.8536  -24.5734  -18.7839 O   0  0  0  0  0  0  0  0  0  0  0  0
   24.1199  -23.5537  -19.7873 O   0  0  0  0  0  0  0  0  0  0  0  0
   26.6485  -23.3533  -19.2014 O   0  0  0  0  0  0  0  0  0  0  0  0
   17.3733  -19.6890  -20.1468 C   0  0  0  0  0  0  0  0  0  0  0  0
   16.6534  -20.4259  -19.2281 C   0  0  0  0  0  0  0  0  0  0  0  0
   15.2501  -20.4907  -19.3255 C   0  0  0  0  0  0  0  0  0  0  0  0
   14.4899  -21.2334  -18.4049 O   0  0  0  0  0  0  0  0  0  0  0  0
   17.5309  -20.9682  -18.3666 N   0  0  0  0  0  0  0  0  0  0  0  0
   18.7402  -20.5835  -18.7357 C   0  0  0  0  0  0  0  0  0  0  0  0
   18.6652  -19.8111  -19.8035 N   0  0  0  0  0  0  0  0  0  0  0  0
  1  5  1  6  0  0  0
  1 14  1  0  0  0  0
  1 19  2  0  0  0  0
  1 23  1  0  0  0  0
  2 15  1  6  0  0  0
  2 20  2  0  0  0  0
  2 23  1  0  0  0  0
  2 24  1  0  0  0  0
  3 16  1  6  0  0  0
  3 21  1  0  0  0  0
  3 24  1  0  0  0  0
  3 25  2  0  0  0  0
  4  5  1  0  0  0  0
  6  4  1  1  0  0  0
  6  7  1  0  0  0  0
  6  8  1  0  0  0  0
  7 12  1  0  0  0  0
  8  9  1  6  0  0  0
  8 10  1  0  0  0  0
 10 11  1  6  0  0  0
 10 12  1  0  0  0  0
 12 32  1  1  0  0  0
 13 17  2  0  0  0  0
 13 28  1  0  0  0  0
 17 18  1  0  0  0  0
 17 22  1  0  0  0  0
 22 26  2  0  0  0  0
 26 27  1  0  0  0  0
 26 32  1  0  0  0  0
 27 28  2  0  0  0  0
 27 30  1  0  0  0  0
 28 29  1  0  0  0  0
 30 31  2  0  0  0  0
 31 32  1  0  0  0  0
M  CHG  3  14  -1  15  -1  21  -1
M  END
>  <CHROM.1>
71.10388750,-72.44387523,49.96449261,54.26640140,-170.06466387,-111.57654408
-66.38387258,-51.33860967,20.91559915,-21.87738215,-19.85977854,0.50236381
-0.02791523,3.02603554

>  <Name>
ligand

>  <RI>
0

>  <Rbt.Current_Directory>
/home/itssahil/PROJECTS/Mol_Feturizer/New_Systems/rnas/4Y1I

>  <Rbt.Executable>
rbdock ($Id: //depot/dev/client3/rdock/2013.1/src/exe/rbdock.cxx#4 $)

>  <Rbt.Library>
libRbt.so (2013.1, Build901 2013/11/27)

>  <Rbt.Parameter_File>
/export/apps/rDock/src/rDock_2013.1_src/data/scripts/dock_solv.prm

>  <Rbt.Receptor>
prm/pocket_docking_7.prm

>  <SCORE>
-10.8349

>  <SCORE.INTER>
-3.46975

>  <SCORE.INTER.CONST>
1

>  <SCORE.INTER.POLAR>
0

>  <SCORE.INTER.ROT>
8

>  <SCORE.INTER.SOLV>
6.66431

>  <SCORE.INTER.VDW>
-13.4679

>  <SCORE.INTER.norm>
-0.10843

>  <SCORE.INTRA>
-7.36517

>  <SCORE.INTRA.DIHEDRAL>
-8.33673

>  <SCORE.INTRA.DIHEDRAL.0>
10.9594

>  <SCORE.INTRA.POLAR>
0

>  <SCORE.INTRA.POLAR.0>
0

>  <SCORE.INTRA.REPUL>
0

>  <SCORE.INTRA.REPUL.0>
0

>  <SCORE.INTRA.SOLV>
-5.29246

>  <SCORE.INTRA.SOLV.lig_0>
-124.914

>  <SCORE.INTRA.VDW>
-0.550576

>  <SCORE.INTRA.VDW.0>
-4.69801

>  <SCORE.INTRA.norm>
-0.230162

>  <SCORE.RESTR>
0

>  <SCORE.RESTR.CAVITY>
0

>  <SCORE.RESTR.norm>
0

>  <SCORE.SYSTEM>
0

>  <SCORE.SYSTEM.CONST>
0

>  <SCORE.SYSTEM.DIHEDRAL>
0

>  <SCORE.SYSTEM.SOLV>
0

>  <SCORE.SYSTEM.norm>
0

>  <SCORE.heavy>
32

>  <SCORE.norm>
-0.338591

>  <RMSD>
8.454

$$$$
ligand
 OpenBabel11021811513D
libRbt.so/2013.1/901 2013/11/27
 32 34  0  0  0  0  0  0  0  0999 V2000
   13.4598  -26.5612  -17.8901 P   0  0  1  0  0  0  0  0  0  0  0  0
   14.9562  -24.7866  -19.5762 P   0  0  2  0  0  0  0  0  0  0  0  0
   15.2998  -22.0824  -18.4880 P   0  0  1  0  0  0  0  0  0  0  0  0
   13.0704  -26.2113  -15.3372 C   0  0  0  0  0  0  0  0  0  0  0  0
   13.9457  -26.0222  -16.4124 O   0  0  0  0  0  0  0  0  0  0  0  0
   13.6513  -25.7203  -14.1733 C   0  0  1  0  0  0  0  0  0  0  0  0
   12.6871  -25.8696  -13.0123 O   0  0  0  0  0  0  0  0  0  0  0  0
   14.9508  -26.5589  -13.7729 C   0  0  1  0  0  0  0  0  0  0  0  0
   16.1707  -25.6704  -13.8652 O   0  0  0  0  0  0  0  0  0  0  0  0
   14.8081  -26.8631  -12.5862 C   0  0  1  0  0  0  0  0  0  0  0  0
   15.5349  -25.8883  -11.7380 O   0  0  0  0  0  0  0  0  0  0  0  0
   13.1743  -26.7849  -12.2724 C   0  0  2  0  0  0  0  0  0  0  0  0
    9.0382  -29.1401  -14.2042 N   0  0  0  0  0  0  0  0  0  0  0  0
   13.1905  -28.0445  -17.8304 O   0  5  0  0  0  0  0  0  0  0  0  0
   13.8519  -24.3821  -20.5202 O   0  5  0  0  0  0  0  0  0  0  0  0
   15.3140  -21.4815  -17.1020 O   0  0  0  0  0  0  0  0  0  0  0  0
    9.2773  -27.8403  -14.1255 C   0  0  0  0  0  0  0  0  0  0  0  0
    8.2920  -26.9043  -14.6283 N   0  0  0  0  0  0  0  0  0  0  0  0
   12.2180  -25.8020  -18.2997 O   0  0  0  0  0  0  0  0  0  0  0  0
   16.2669  -24.8191  -20.3176 O   0  0  0  0  0  0  0  0  0  0  0  0
   16.6353  -21.8278  -19.1521 O   0  5  0  0  0  0  0  0  0  0  0  0
   10.3886  -27.3644  -13.6020 N   0  0  0  0  0  0  0  0  0  0  0  0
   14.6665  -26.2844  -18.9700 O   0  0  0  0  0  0  0  0  0  0  0  0
   15.0538  -23.7091  -18.3372 O   0  0  0  0  0  0  0  0  0  0  0  0
   14.1843  -21.4475  -19.2893 O   0  0  0  0  0  0  0  0  0  0  0  0
   11.3241  -28.1949  -13.1260 C   0  0  0  0  0  0  0  0  0  0  0  0
   11.0997  -29.5550  -13.1954 C   0  0  0  0  0  0  0  0  0  0  0  0
    9.9047  -30.0411  -13.7599 C   0  0  0  0  0  0  0  0  0  0  0  0
    9.6481  -31.4209  -13.8449 O   0  0  0  0  0  0  0  0  0  0  0  0
   12.1687  -30.1699  -12.6612 N   0  0  0  0  0  0  0  0  0  0  0  0
   13.0168  -29.2316  -12.2778 C   0  0  0  0  0  0  0  0  0  0  0  0
   12.5247  -28.0368  -12.5469 N   0  0  0  0  0  0  0  0  0  0  0  0
  1  5  1  1  0  0  0
  1 14  1  0  0  0  0
  1 19  2  0  0  0  0
  1 23  1  0  0  0  0
  2 15  1  6  0  0  0
  2 20  2  0  0  0  0
  2 23  1  0  0  0  0
  2 24  1  0  0  0  0
  3 16  1  1  0  0  0
  3 21  1  0  0  0  0
  3 24  1  0  0  0  0
  3 25  2  0  0  0  0
  4  5  1  0  0  0  0
  6  4  1  6  0  0  0
  6  7  1  0  0  0  0
  6  8  1  0  0  0  0
  7 12  1  0  0  0  0
  8  9  1  1  0  0  0
  8 10  1  0  0  0  0
 10 11  1  1  0  0  0
 10 12  1  0  0  0  0
 12 32  1  6  0  0  0
 13 17  2  0  0  0  0
 13 28  1  0  0  0  0
 17 18  1  0  0  0  0
 17 22  1  0  0  0  0
 22 26  2  0  0  0  0
 26 27  1  0  0  0  0
 26 32  1  0  0  0  0
 27 28  2  0  0  0  0
 27 30  1  0  0  0  0
 28 29  1  0  0  0  0
 30 31  2  0  0  0  0
 31 32  1  0  0  0  0
M  CHG  3  14  -1  15  -1  21  -1
M  END
>  <CHROM.1>
-58.89833957,-70.70110138,179.75102192,177.70989014,178.93938930,-20.77735661
-76.61428110,-57.42958763,13.35793022,-26.09050550,-15.98239738,0.93009511
-0.71699346,-1.27557981

>  <Name>
ligand

>  <RI>
0

>  <Rbt.Current_Directory>
/home/itssahil/PROJECTS/Mol_Feturizer/New_Systems/rnas/4Y1I

>  <Rbt.Executable>
rbdock ($Id: //depot/dev/client3/rdock/2013.1/src/exe/rbdock.cxx#4 $)

>  <Rbt.Library>
libRbt.so (2013.1, Build901 2013/11/27)

>  <Rbt.Parameter_File>
/export/apps/rDock/src/rDock_2013.1_src/data/scripts/dock_solv.prm

>  <Rbt.Receptor>
prm/pocket_docking_6.prm

>  <SCORE>
-4.95838

>  <SCORE.INTER>
1.36968

>  <SCORE.INTER.CONST>
1

>  <SCORE.INTER.POLAR>
0

>  <SCORE.INTER.ROT>
8

>  <SCORE.INTER.SOLV>
5.52127

>  <SCORE.INTER.VDW>
-9.86063

>  <SCORE.INTER.norm>
0.0428026

>  <SCORE.INTRA>
-6.32807

>  <SCORE.INTRA.DIHEDRAL>
-9.0717

>  <SCORE.INTRA.DIHEDRAL.0>
10.9594

>  <SCORE.INTRA.POLAR>
0

>  <SCORE.INTRA.POLAR.0>
0

>  <SCORE.INTRA.REPUL>
0

>  <SCORE.INTRA.REPUL.0>
0

>  <SCORE.INTRA.SOLV>
-3.74867

>  <SCORE.INTRA.SOLV.lig_0>
-124.914

>  <SCORE.INTRA.VDW>
0.082117

>  <SCORE.INTRA.VDW.0>
-4.69801

>  <SCORE.INTRA.norm>
-0.197752

>  <SCORE.RESTR>
0

>  <SCORE.RESTR.CAVITY>
0

>  <SCORE.RESTR.norm>
0

>  <SCORE.SYSTEM>
0

>  <SCORE.SYSTEM.CONST>
0

>  <SCORE.SYSTEM.DIHEDRAL>
0

>  <SCORE.SYSTEM.SOLV>
0

>  <SCORE.SYSTEM.norm>
0

>  <SCORE.heavy>
32

>  <SCORE.norm>
-0.154949

>  <RMSD>
8.458

$$$$
ligand
 OpenBabel11021811513D
libRbt.so/2013.1/901 2013/11/27
 32 34  0  0  0  0  0  0  0  0999 V2000
   17.8065  -21.0438  -19.9113 P   0  0  1  0  0  0  0  0  0  0  0  0
   19.5914  -23.2570  -19.5282 P   0  0  2  0  0  0  0  0  0  0  0  0
   21.2674  -25.6425  -19.8680 P   0  0  1  0  0  0  0  0  0  0  0  0
   16.4264  -19.1285  -21.0153 C   0  0  0  0  0  0  0  0  0  0  0  0
   16.8308  -20.4651  -21.1044 O   0  0  0  0  0  0  0  0  0  0  0  0
   15.8090  -18.7497  -22.2021 C   0  0  1  0  0  0  0  0  0  0  0  0
   14.4696  -19.4488  -22.3334 O   0  0  0  0  0  0  0  0  0  0  0  0
   15.4886  -17.1847  -22.2176 C   0  0  1  0  0  0  0  0  0  0  0  0
   16.3028  -16.5156  -23.3018 O   0  0  0  0  0  0  0  0  0  0  0  0
   14.3012  -17.0828  -22.5355 C   0  0  1  0  0  0  0  0  0  0  0  0
   14.2030  -16.8193  -23.9911 O   0  0  0  0  0  0  0  0  0  0  0  0
   13.5884  -18.5434  -22.1713 C   0  0  2  0  0  0  0  0  0  0  0  0
   12.7017  -21.3800  -17.9818 N   0  0  0  0  0  0  0  0  0  0  0  0
   18.9254  -20.0670  -19.6468 O   0  5  0  0  0  0  0  0  0  0  0  0
   19.0292  -23.6566  -18.1872 O   0  5  0  0  0  0  0  0  0  0  0  0
   20.9338  -26.1171  -18.4730 O   0  0  0  0  0  0  0  0  0  0  0  0
   13.2092  -21.7694  -19.1409 C   0  0  0  0  0  0  0  0  0  0  0  0
   13.5852  -23.1569  -19.3225 N   0  0  0  0  0  0  0  0  0  0  0  0
   16.9748  -21.2633  -18.6678 O   0  0  0  0  0  0  0  0  0  0  0  0
   20.7632  -22.3318  -19.3286 O   0  0  0  0  0  0  0  0  0  0  0  0
   21.3047  -26.8333  -20.8008 O   0  5  0  0  0  0  0  0  0  0  0  0
   13.3860  -20.9326  -20.1430 N   0  0  0  0  0  0  0  0  0  0  0  0
   18.4534  -22.4689  -20.4106 O   0  0  0  0  0  0  0  0  0  0  0  0
   20.0833  -24.5954  -20.3484 O   0  0  0  0  0  0  0  0  0  0  0  0
   22.6127  -24.9503  -19.8447 O   0  0  0  0  0  0  0  0  0  0  0  0
   13.0516  -19.6428  -20.0165 C   0  0  0  0  0  0  0  0  0  0  0  0
   12.5199  -19.2106  -18.8184 C   0  0  0  0  0  0  0  0  0  0  0  0
   12.3407  -20.1228  -17.7606 C   0  0  0  0  0  0  0  0  0  0  0  0
   11.8020  -19.7122  -16.5285 O   0  0  0  0  0  0  0  0  0  0  0  0
   12.2691  -17.8956  -18.9371 N   0  0  0  0  0  0  0  0  0  0  0  0
   12.6293  -17.5304  -20.1551 C   0  0  0  0  0  0  0  0  0  0  0  0
   13.1001  -18.5688  -20.8203 N   0  0  0  0  0  0  0  0  0  0  0  0
  1  5  1  6  0  0  0
  1 14  1  0  0  0  0
  1 19  2  0  0  0  0
  1 23  1  0  0  0  0
  2 15  1  1  0  0  0
  2 20  2  0  0  0  0
  2 23  1  0  0  0  0
  2 24  1  0  0  0  0
  3 16  1  1  0  0  0
  3 21  1  0  0  0  0
  3 24  1  0  0  0  0
  3 25  2  0  0  0  0
  4  5  1  0  0  0  0
  6  4  1  1  0  0  0
  6  7  1  0  0  0  0
  6  8  1  0  0  0  0
  7 12  1  0  0  0  0
  8  9  1  6  0  0  0
  8 10  1  0  0  0  0
 10 11  1  6  0  0  0
 10 12  1  0  0  0  0
 12 32  1  1  0  0  0
 13 17  2  0  0  0  0
 13 28  1  0  0  0  0
 17 18  1  0  0  0  0
 17 22  1  0  0  0  0
 22 26  2  0  0  0  0
 26 27  1  0  0  0  0
 26 32  1  0  0  0  0
 27 28  2  0  0  0  0
 27 30  1  0  0  0  0
 28 29  1  0  0  0  0
 30 31  2  0  0  0  0
 31 32  1  0  0  0  0
M  CHG  3  14  -1  15  -1  21  -1
M  END
>  <CHROM.1>
-46.80492796,62.39531231,54.14178504,69.91455806,169.91454951,-28.14937114
173.98218569,-62.03012339,16.63924159,-21.16188452,-20.13755733,-0.58669917
0.42947903,-0.71697625

>  <Name>
ligand

>  <RI>
0

>  <Rbt.Current_Directory>
/home/itssahil/PROJECTS/Mol_Feturizer/New_Systems/rnas/4Y1I

>  <Rbt.Executable>
rbdock ($Id: //depot/dev/client3/rdock/2013.1/src/exe/rbdock.cxx#4 $)

>  <Rbt.Library>
libRbt.so (2013.1, Build901 2013/11/27)

>  <Rbt.Parameter_File>
/export/apps/rDock/src/rDock_2013.1_src/data/scripts/dock_solv.prm

>  <Rbt.Receptor>
prm/pocket_docking_8.prm

>  <SCORE>
-6.17694

>  <SCORE.INTER>
-0.816356

>  <SCORE.INTER.CONST>
1

>  <SCORE.INTER.POLAR>
0

>  <SCORE.INTER.ROT>
8

>  <SCORE.INTER.SOLV>
14.796

>  <SCORE.INTER.VDW>
-14.4096

>  <SCORE.INTER.norm>
-0.0255111

>  <SCORE.INTRA>
-5.36058

>  <SCORE.INTRA.DIHEDRAL>
-8.41948

>  <SCORE.INTRA.DIHEDRAL.0>
10.9594

>  <SCORE.INTRA.POLAR>
0

>  <SCORE.INTRA.POLAR.0>
0

>  <SCORE.INTRA.REPUL>
0

>  <SCORE.INTRA.REPUL.0>
0

>  <SCORE.INTRA.SOLV>
-1.88254

>  <SCORE.INTRA.SOLV.lig_0>
-124.914

>  <SCORE.INTRA.VDW>
-0.209568

>  <SCORE.INTRA.VDW.0>
-4.69801

>  <SCORE.INTRA.norm>
-0.167518

>  <SCORE.RESTR>
0

>  <SCORE.RESTR.CAVITY>
0

>  <SCORE.RESTR.norm>
0

>  <SCORE.SYSTEM>
0

>  <SCORE.SYSTEM.CONST>
0

>  <SCORE.SYSTEM.DIHEDRAL>
0

>  <SCORE.SYSTEM.SOLV>
0

>  <SCORE.SYSTEM.norm>
0

>  <SCORE.heavy>
32

>  <SCORE.norm>
-0.193029

>  <RMSD>
8.575

$$$$
ligand
 OpenBabel11021811513D
libRbt.so/2013.1/901 2013/11/27
 32 34  0  0  0  0  0  0  0  0999 V2000
   15.5500  -28.7662  -16.7985 P   0  0  1  0  0  0  0  0  0  0  0  0
   16.2966  -26.0502  -16.2537 P   0  0  2  0  0  0  0  0  0  0  0  0
   18.5126  -25.0442  -17.8945 P   0  0  1  0  0  0  0  0  0  0  0  0
   13.8446  -28.2622  -14.8935 C   0  0  0  0  0  0  0  0  0  0  0  0
   14.9090  -29.0681  -15.3125 O   0  0  0  0  0  0  0  0  0  0  0  0
   13.4175  -28.6734  -13.6358 C   0  0  1  0  0  0  0  0  0  0  0  0
   12.2017  -27.8704  -13.2153 O   0  0  0  0  0  0  0  0  0  0  0  0
   12.9489  -30.2005  -13.6510 C   0  0  1  0  0  0  0  0  0  0  0  0
   13.8743  -31.0191  -12.7794 O   0  0  0  0  0  0  0  0  0  0  0  0
   11.8347  -30.2206  -13.1223 C   0  0  1  0  0  0  0  0  0  0  0  0
   11.9758  -30.5836  -11.6918 O   0  0  0  0  0  0  0  0  0  0  0  0
   11.2189  -28.6794  -13.2611 C   0  0  2  0  0  0  0  0  0  0  0  0
   10.4014  -30.4083  -18.0285 N   0  0  0  0  0  0  0  0  0  0  0  0
   16.2028  -30.0151  -17.3373 O   0  5  0  0  0  0  0  0  0  0  0  0
   15.8862  -25.9683  -14.8048 O   0  5  0  0  0  0  0  0  0  0  0  0
   19.7510  -24.2273  -17.6093 O   0  0  0  0  0  0  0  0  0  0  0  0
   11.2322  -30.8875  -17.1158 C   0  0  0  0  0  0  0  0  0  0  0  0
   12.0453  -32.0444  -17.4318 N   0  0  0  0  0  0  0  0  0  0  0  0
   14.4456  -28.2939  -17.7169 O   0  0  0  0  0  0  0  0  0  0  0  0
   15.1500  -25.6149  -17.1281 O   0  0  0  0  0  0  0  0  0  0  0  0
   18.9225  -26.4531  -18.2641 O   0  5  0  0  0  0  0  0  0  0  0  0
   11.3462  -30.3449  -15.9208 N   0  0  0  0  0  0  0  0  0  0  0  0
   16.6912  -27.5943  -16.6470 O   0  0  0  0  0  0  0  0  0  0  0  0
   17.5926  -25.0735  -16.5226 O   0  0  0  0  0  0  0  0  0  0  0  0
   17.7501  -24.4024  -19.0331 O   0  0  0  0  0  0  0  0  0  0  0  0
   10.6135  -29.2750  -15.5889 C   0  0  0  0  0  0  0  0  0  0  0  0
    9.7396  -28.7552  -16.5223 C   0  0  0  0  0  0  0  0  0  0  0  0
    9.6338  -29.3522  -17.7933 C   0  0  0  0  0  0  0  0  0  0  0  0
    8.7524  -28.8456  -18.7645 O   0  0  0  0  0  0  0  0  0  0  0  0
    9.1271  -27.6992  -15.9601 N   0  0  0  0  0  0  0  0  0  0  0  0
    9.6015  -27.5712  -14.7332 C   0  0  0  0  0  0  0  0  0  0  0  0
   10.4988  -28.5088  -14.4927 N   0  0  0  0  0  0  0  0  0  0  0  0
  1  5  1  1  0  0  0
  1 14  1  0  0  0  0
  1 19  2  0  0  0  0
  1 23  1  0  0  0  0
  2 15  1  1  0  0  0
  2 20  2  0  0  0  0
  2 23  1  0  0  0  0
  2 24  1  0  0  0  0
  3 16  1  1  0  0  0
  3 21  1  0  0  0  0
  3 24  1  0  0  0  0
  3 25  2  0  0  0  0
  4  5  1  0  0  0  0
  6  4  1  6  0  0  0
  6  7  1  0  0  0  0
  6  8  1  0  0  0  0
  7 12  1  0  0  0  0
  8  9  1  1  0  0  0
  8 10  1  0  0  0  0
 10 11  1  1  0  0  0
 10 12  1  0  0  0  0
 12 32  1  6  0  0  0
 13 17  2  0  0  0  0
 13 28  1  0  0  0  0
 17 18  1  0  0  0  0
 17 22  1  0  0  0  0
 22 26  2  0  0  0  0
 26 27  1  0  0  0  0
 26 32  1  0  0  0  0
 27 28  2  0  0  0  0
 27 30  1  0  0  0  0
 28 29  1  0  0  0  0
 30 31  2  0  0  0  0
 31 32  1  0  0  0  0
M  CHG  3  14  -1  15  -1  21  -1
M  END
>  <CHROM.1>
-154.98632281,72.17688962,-168.24616350,-176.01202971,178.89532415,99.43024598
-67.79077638,169.40600239,13.99636679,-28.06900806,-16.06478104,0.40520162
-0.41591940,-1.24877860

>  <Name>
ligand

>  <RI>
0

>  <Rbt.Current_Directory>
/home/itssahil/PROJECTS/Mol_Feturizer/New_Systems/rnas/4Y1I

>  <Rbt.Executable>
rbdock ($Id: //depot/dev/client3/rdock/2013.1/src/exe/rbdock.cxx#4 $)

>  <Rbt.Library>
libRbt.so (2013.1, Build901 2013/11/27)

>  <Rbt.Parameter_File>
/export/apps/rDock/src/rDock_2013.1_src/data/scripts/dock_solv.prm

>  <Rbt.Receptor>
prm/pocket_docking_5.prm

>  <SCORE>
-1.47893

>  <SCORE.INTER>
3.37662

>  <SCORE.INTER.CONST>
1

>  <SCORE.INTER.POLAR>
0

>  <SCORE.INTER.ROT>
8

>  <SCORE.INTER.SOLV>
7.10011

>  <SCORE.INTER.VDW>
-9.04895

>  <SCORE.INTER.norm>
0.10552

>  <SCORE.INTRA>
-4.86253

>  <SCORE.INTRA.DIHEDRAL>
-7.9544

>  <SCORE.INTRA.DIHEDRAL.0>
10.9594

>  <SCORE.INTRA.POLAR>
0

>  <SCORE.INTRA.POLAR.0>
0

>  <SCORE.INTRA.REPUL>
0

>  <SCORE.INTRA.REPUL.0>
0

>  <SCORE.INTRA.SOLV>
-1.47779

>  <SCORE.INTRA.SOLV.lig_0>
-124.914

>  <SCORE.INTRA.VDW>
-0.146439

>  <SCORE.INTRA.VDW.0>
-4.69801

>  <SCORE.INTRA.norm>
-0.151954

>  <SCORE.RESTR>
0.00697773

>  <SCORE.RESTR.CAVITY>
0.00697773

>  <SCORE.RESTR.norm>
0.000218054

>  <SCORE.SYSTEM>
0

>  <SCORE.SYSTEM.CONST>
0

>  <SCORE.SYSTEM.DIHEDRAL>
0

>  <SCORE.SYSTEM.SOLV>
0

>  <SCORE.SYSTEM.norm>
0

>  <SCORE.heavy>
32

>  <SCORE.norm>
-0.0462166

>  <RMSD>
8.593

$$$$
ligand
 OpenBabel11021811513D
libRbt.so/2013.1/901 2013/11/27
 32 34  0  0  0  0  0  0  0  0999 V2000
   16.4161  -17.7538  -22.7566 P   0  0  1  0  0  0  0  0  0  0  0  0
   13.8871  -17.2078  -21.5168 P   0  0  2  0  0  0  0  0  0  0  0  0
   12.7388  -19.1613  -19.6512 P   0  0  1  0  0  0  0  0  0  0  0  0
   18.2784  -19.3019  -21.7939 C   0  0  0  0  0  0  0  0  0  0  0  0
   17.7346  -18.0127  -21.8054 O   0  0  0  0  0  0  0  0  0  0  0  0
   19.4800  -19.2931  -21.0944 C   0  0  1  0  0  0  0  0  0  0  0  0
   19.2187  -19.0395  -19.6222 O   0  0  0  0  0  0  0  0  0  0  0  0
   20.2082  -20.7130  -21.1708 C   0  0  1  0  0  0  0  0  0  0  0  0
   21.5102  -20.5703  -21.9262 O   0  0  0  0  0  0  0  0  0  0  0  0
   20.4901  -21.0147  -20.0086 C   0  0  1  0  0  0  0  0  0  0  0  0
   21.8964  -20.6370  -19.7301 O   0  0  0  0  0  0  0  0  0  0  0  0
   19.4613  -20.1418  -19.0320 C   0  0  2  0  0  0  0  0  0  0  0  0
   17.1927  -24.7123  -18.4411 N   0  0  0  0  0  0  0  0  0  0  0  0
   16.8394  -17.1089  -24.0532 O   0  5  0  0  0  0  0  0  0  0  0  0
   13.1290  -17.7439  -22.7051 O   0  5  0  0  0  0  0  0  0  0  0  0
   13.3033  -20.1786  -18.6876 O   0  0  0  0  0  0  0  0  0  0  0  0
   18.4707  -24.4575  -18.6746 C   0  0  0  0  0  0  0  0  0  0  0  0
   19.4058  -25.5584  -18.7902 N   0  0  0  0  0  0  0  0  0  0  0  0
   15.7322  -19.0785  -23.0095 O   0  0  0  0  0  0  0  0  0  0  0  0
   13.1644  -16.0115  -20.9552 O   0  0  0  0  0  0  0  0  0  0  0  0
   11.8846  -18.1744  -18.8858 O   0  5  0  0  0  0  0  0  0  0  0  0
   18.9257  -23.2282  -18.8065 N   0  0  0  0  0  0  0  0  0  0  0  0
   15.3940  -16.7380  -21.9678 O   0  0  0  0  0  0  0  0  0  0  0  0
   14.0048  -18.3704  -20.3591 O   0  0  0  0  0  0  0  0  0  0  0  0
   11.9087  -19.8775  -20.6940 O   0  0  0  0  0  0  0  0  0  0  0  0
   18.0951  -22.1834  -18.7070 C   0  0  0  0  0  0  0  0  0  0  0  0
   16.7574  -22.4212  -18.4642 C   0  0  0  0  0  0  0  0  0  0  0  0
   16.2937  -23.7436  -18.3260 C   0  0  0  0  0  0  0  0  0  0  0  0
   14.9370  -24.0173  -18.0779 O   0  0  0  0  0  0  0  0  0  0  0  0
   16.1377  -21.2300  -18.4075 N   0  0  0  0  0  0  0  0  0  0  0  0
   17.0517  -20.2963  -18.6068 C   0  0  0  0  0  0  0  0  0  0  0  0
   18.2351  -20.8510  -18.7915 N   0  0  0  0  0  0  0  0  0  0  0  0
  1  5  1  1  0  0  0
  1 14  1  0  0  0  0
  1 19  2  0  0  0  0
  1 23  1  0  0  0  0
  2 15  1  6  0  0  0
  2 20  2  0  0  0  0
  2 23  1  0  0  0  0
  2 24  1  0  0  0  0
  3 16  1  1  0  0  0
  3 21  1  0  0  0  0
  3 24  1  0  0  0  0
  3 25  2  0  0  0  0
  4  5  1  0  0  0  0
  6  4  1  6  0  0  0
  6  7  1  0  0  0  0
  6  8  1  0  0  0  0
  7 12  1  0  0  0  0
  8  9  1  6  0  0  0
  8 10  1  0  0  0  0
 10 11  1  1  0  0  0
 10 12  1  0  0  0  0
 12 32  1  6  0  0  0
 13 17  2  0  0  0  0
 13 28  1  0  0  0  0
 17 18  1  0  0  0  0
 17 22  1  0  0  0  0
 22 26  2  0  0  0  0
 26 27  1  0  0  0  0
 26 32  1  0  0  0  0
 27 28  2  0  0  0  0
 27 30  1  0  0  0  0
 28 29  1  0  0  0  0
 30 31  2  0  0  0  0
 31 32  1  0  0  0  0
M  CHG  3  14  -1  15  -1  21  -1
M  END
>  <CHROM.1>
-99.35411768,-54.09288234,177.82689849,68.36008360,171.75895865,151.43023310
-116.84550764,-56.92479083,16.48184666,-19.93731472,-20.35453846,-2.41313990
-0.19458610,2.52801500

>  <Name>
ligand

>  <RI>
0

>  <Rbt.Current_Directory>
/home/itssahil/PROJECTS/Mol_Feturizer/New_Systems/rnas/4Y1I

>  <Rbt.Executable>
rbdock ($Id: //depot/dev/client3/rdock/2013.1/src/exe/rbdock.cxx#4 $)

>  <Rbt.Library>
libRbt.so (2013.1, Build901 2013/11/27)

>  <Rbt.Parameter_File>
/export/apps/rDock/src/rDock_2013.1_src/data/scripts/dock_solv.prm

>  <Rbt.Receptor>
prm/pocket_docking_8.prm

>  <SCORE>
-13.7266

>  <SCORE.INTER>
-9.92221

>  <SCORE.INTER.CONST>
1

>  <SCORE.INTER.POLAR>
0

>  <SCORE.INTER.ROT>
8

>  <SCORE.INTER.SOLV>
15.1604

>  <SCORE.INTER.VDW>
-20.6016

>  <SCORE.INTER.norm>
-0.310069

>  <SCORE.INTRA>
-3.80443

>  <SCORE.INTRA.DIHEDRAL>
-4.98271

>  <SCORE.INTRA.DIHEDRAL.0>
10.9594

>  <SCORE.INTRA.POLAR>
0

>  <SCORE.INTRA.POLAR.0>
0

>  <SCORE.INTRA.REPUL>
0

>  <SCORE.INTRA.REPUL.0>
0

>  <SCORE.INTRA.SOLV>
-2.87344

>  <SCORE.INTRA.SOLV.lig_0>
-124.914

>  <SCORE.INTRA.VDW>
0.123649

>  <SCORE.INTRA.VDW.0>
-4.69801

>  <SCORE.INTRA.norm>
-0.118888

>  <SCORE.RESTR>
0

>  <SCORE.RESTR.CAVITY>
0

>  <SCORE.RESTR.norm>
0

>  <SCORE.SYSTEM>
0

>  <SCORE.SYSTEM.CONST>
0

>  <SCORE.SYSTEM.DIHEDRAL>
0

>  <SCORE.SYSTEM.SOLV>
0

>  <SCORE.SYSTEM.norm>
0

>  <SCORE.heavy>
32

>  <SCORE.norm>
-0.428958

>  <RMSD>
8.643

$$$$
ligand
 OpenBabel11021811513D
libRbt.so/2013.1/901 2013/11/27
 32 34  0  0  0  0  0  0  0  0999 V2000
   16.0904  -24.7692  -12.8593 P   0  0  1  0  0  0  0  0  0  0  0  0
   15.6987  -24.6584  -15.6992 P   0  0  2  0  0  0  0  0  0  0  0  0
   17.8634  -24.9089  -17.6655 P   0  0  1  0  0  0  0  0  0  0  0  0
   17.0908  -26.9982  -11.9524 C   0  0  0  0  0  0  0  0  0  0  0  0
   17.1005  -25.6020  -11.8610 O   0  0  0  0  0  0  0  0  0  0  0  0
   17.8646  -27.5362  -10.9301 C   0  0  1  0  0  0  0  0  0  0  0  0
   17.7519  -29.0485  -10.9384 O   0  0  0  0  0  0  0  0  0  0  0  0
   19.4146  -27.2122  -11.1415 C   0  0  1  0  0  0  0  0  0  0  0  0
   19.8986  -26.3181  -10.0224 O   0  0  0  0  0  0  0  0  0  0  0  0
   20.0061  -28.2890  -11.0319 C   0  0  1  0  0  0  0  0  0  0  0  0
   20.5244  -28.4267   -9.6498 O   0  0  0  0  0  0  0  0  0  0  0  0
   18.8817  -29.4783  -11.3402 C   0  0  2  0  0  0  0  0  0  0  0  0
   17.8354  -33.0344  -14.8962 N   0  0  0  0  0  0  0  0  0  0  0  0
   14.7116  -25.3800  -12.8172 O   0  5  0  0  0  0  0  0  0  0  0  0
   14.6066  -23.6678  -15.3822 O   0  5  0  0  0  0  0  0  0  0  0  0
   19.0832  -24.7118  -16.7963 O   0  0  0  0  0  0  0  0  0  0  0  0
   17.7678  -33.1500  -13.5791 C   0  0  0  0  0  0  0  0  0  0  0  0
   17.3536  -34.4103  -12.9961 N   0  0  0  0  0  0  0  0  0  0  0  0
   16.0553  -23.3234  -12.4184 O   0  0  0  0  0  0  0  0  0  0  0  0
   15.0860  -25.9866  -16.0591 O   0  0  0  0  0  0  0  0  0  0  0  0
   17.5493  -26.3866  -17.7508 O   0  5  0  0  0  0  0  0  0  0  0  0
   18.0662  -32.1513  -12.7734 N   0  0  0  0  0  0  0  0  0  0  0  0
   16.6697  -24.8725  -14.3931 O   0  0  0  0  0  0  0  0  0  0  0  0
   16.5999  -24.1105  -16.9616 O   0  0  0  0  0  0  0  0  0  0  0  0
   18.1444  -24.3504  -19.0435 O   0  0  0  0  0  0  0  0  0  0  0  0
   18.4533  -30.9707  -13.2714 C   0  0  0  0  0  0  0  0  0  0  0  0
   18.5327  -30.8235  -14.6414 C   0  0  0  0  0  0  0  0  0  0  0  0
   18.2081  -31.9047  -15.4833 C   0  0  0  0  0  0  0  0  0  0  0  0
   18.2789  -31.7848  -16.8824 O   0  0  0  0  0  0  0  0  0  0  0  0
   18.9380  -29.5666  -14.8912 N   0  0  0  0  0  0  0  0  0  0  0  0
   19.1026  -28.9631  -13.7270 C   0  0  0  0  0  0  0  0  0  0  0  0
   18.8182  -29.7929  -12.7407 N   0  0  0  0  0  0  0  0  0  0  0  0
  1  5  1  1  0  0  0
  1 14  1  0  0  0  0
  1 19  2  0  0  0  0
  1 23  1  0  0  0  0
  2 15  1  1  0  0  0
  2 20  2  0  0  0  0
  2 23  1  0  0  0  0
  2 24  1  0  0  0  0
  3 16  1  1  0  0  0
  3 21  1  0  0  0  0
  3 24  1  0  0  0  0
  3 25  2  0  0  0  0
  4  5  1  0  0  0  0
  6  4  1  6  0  0  0
  6  7  1  0  0  0  0
  6  8  1  0  0  0  0
  7 12  1  0  0  0  0
  8  9  1  1  0  0  0
  8 10  1  0  0  0  0
 10 11  1  1  0  0  0
 10 12  1  0  0  0  0
 12 32  1  6  0  0  0
 13 17  2  0  0  0  0
 13 28  1  0  0  0  0
 17 18  1  0  0  0  0
 17 22  1  0  0  0  0
 22 26  2  0  0  0  0
 26 27  1  0  0  0  0
 26 32  1  0  0  0  0
 27 28  2  0  0  0  0
 27 30  1  0  0  0  0
 28 29  1  0  0  0  0
 30 31  2  0  0  0  0
 31 32  1  0  0  0  0
M  CHG  3  14  -1  15  -1  21  -1
M  END
>  <CHROM.1>
47.44030157,32.15535255,-79.79445858,174.52320682,-172.34491756,-88.33575088
157.34575126,-177.75171672,17.58443219,-27.41589309,-14.03092649,-3.04812525
1.30355608,-2.08234684

>  <Name>
ligand

>  <RI>
0

>  <Rbt.Current_Directory>
/home/itssahil/PROJECTS/Mol_Feturizer/New_Systems/rnas/4Y1I

>  <Rbt.Executable>
rbdock ($Id: //depot/dev/client3/rdock/2013.1/src/exe/rbdock.cxx#4 $)

>  <Rbt.Library>
libRbt.so (2013.1, Build901 2013/11/27)

>  <Rbt.Parameter_File>
/export/apps/rDock/src/rDock_2013.1_src/data/scripts/dock_solv.prm

>  <Rbt.Receptor>
prm/pocket_docking_8.prm

>  <SCORE>
-3.97187

>  <SCORE.INTER>
0.880219

>  <SCORE.INTER.CONST>
1

>  <SCORE.INTER.POLAR>
0

>  <SCORE.INTER.ROT>
8

>  <SCORE.INTER.SOLV>
11.9524

>  <SCORE.INTER.VDW>
-12.3307

>  <SCORE.INTER.norm>
0.0275068

>  <SCORE.INTRA>
-4.85209

>  <SCORE.INTRA.DIHEDRAL>
-6.73423

>  <SCORE.INTRA.DIHEDRAL.0>
10.9594

>  <SCORE.INTRA.POLAR>
0

>  <SCORE.INTRA.POLAR.0>
0

>  <SCORE.INTRA.REPUL>
0

>  <SCORE.INTRA.REPUL.0>
0

>  <SCORE.INTRA.SOLV>
-3.93554

>  <SCORE.INTRA.SOLV.lig_0>
-124.914

>  <SCORE.INTRA.VDW>
0.482796

>  <SCORE.INTRA.VDW.0>
-4.69801

>  <SCORE.INTRA.norm>
-0.151628

>  <SCORE.RESTR>
0

>  <SCORE.RESTR.CAVITY>
0

>  <SCORE.RESTR.norm>
0

>  <SCORE.SYSTEM>
0

>  <SCORE.SYSTEM.CONST>
0

>  <SCORE.SYSTEM.DIHEDRAL>
0

>  <SCORE.SYSTEM.SOLV>
0

>  <SCORE.SYSTEM.norm>
0

>  <SCORE.heavy>
32

>  <SCORE.norm>
-0.124121

>  <RMSD>
8.688

$$$$
ligand
 OpenBabel11021811513D
libRbt.so/2013.1/901 2013/11/27
 32 34  0  0  0  0  0  0  0  0999 V2000
   16.4135  -21.6233  -18.5966 P   0  0  1  0  0  0  0  0  0  0  0  0
   18.7163  -19.9639  -19.0145 P   0  0  2  0  0  0  0  0  0  0  0  0
   21.1042  -18.3185  -18.5607 P   0  0  1  0  0  0  0  0  0  0  0  0
   15.0148  -23.4350  -17.3505 C   0  0  0  0  0  0  0  0  0  0  0  0
   15.5705  -22.1525  -17.2853 O   0  0  0  0  0  0  0  0  0  0  0  0
   14.3122  -23.6971  -16.1796 C   0  0  1  0  0  0  0  0  0  0  0  0
   13.6962  -25.0813  -16.2459 O   0  0  0  0  0  0  0  0  0  0  0  0
   15.2816  -23.7104  -14.9100 C   0  0  1  0  0  0  0  0  0  0  0  0
   14.9172  -22.5695  -13.9871 O   0  0  0  0  0  0  0  0  0  0  0  0
   15.0408  -24.7597  -14.3080 C   0  0  1  0  0  0  0  0  0  0  0  0
   14.0851  -24.4870  -13.2080 O   0  0  0  0  0  0  0  0  0  0  0  0
   14.3525  -25.7930  -15.4181 C   0  0  2  0  0  0  0  0  0  0  0  0
   15.9848  -27.6268  -19.9302 N   0  0  0  0  0  0  0  0  0  0  0  0
   17.2452  -22.7495  -19.1587 O   0  5  0  0  0  0  0  0  0  0  0  0
   18.2707  -19.4032  -20.3416 O   0  5  0  0  0  0  0  0  0  0  0  0
   21.9878  -19.5373  -18.6873 O   0  0  0  0  0  0  0  0  0  0  0  0
   14.9112  -26.8916  -19.6861 C   0  0  0  0  0  0  0  0  0  0  0  0
   14.0403  -26.5188  -20.7825 N   0  0  0  0  0  0  0  0  0  0  0  0
   15.4347  -21.1072  -19.6271 O   0  0  0  0  0  0  0  0  0  0  0  0
   19.5764  -21.1791  -19.2435 O   0  0  0  0  0  0  0  0  0  0  0  0
   21.0882  -17.5788  -19.8806 O   0  5  0  0  0  0  0  0  0  0  0  0
   14.6046  -26.4837  -18.4715 N   0  0  0  0  0  0  0  0  0  0  0  0
   17.4148  -20.4113  -18.1198 O   0  0  0  0  0  0  0  0  0  0  0  0
   19.5776  -18.8302  -18.1906 O   0  0  0  0  0  0  0  0  0  0  0  0
   21.6472  -17.4276  -17.4649 O   0  0  0  0  0  0  0  0  0  0  0  0
   15.3825  -26.8064  -17.4312 C   0  0  0  0  0  0  0  0  0  0  0  0
   16.5079  -27.5726  -17.6579 C   0  0  0  0  0  0  0  0  0  0  0  0
   16.8163  -27.9966  -18.9649 C   0  0  0  0  0  0  0  0  0  0  0  0
   17.9558  -28.7774  -19.2271 O   0  0  0  0  0  0  0  0  0  0  0  0
   17.1156  -27.7604  -16.4741 N   0  0  0  0  0  0  0  0  0  0  0  0
   16.3976  -27.1383  -15.5553 C   0  0  0  0  0  0  0  0  0  0  0  0
   15.3494  -26.5606  -16.1119 N   0  0  0  0  0  0  0  0  0  0  0  0
  1  5  1  1  0  0  0
  1 14  1  0  0  0  0
  1 19  2  0  0  0  0
  1 23  1  0  0  0  0
  2 15  1  6  0  0  0
  2 20  2  0  0  0  0
  2 23  1  0  0  0  0
  2 24  1  0  0  0  0
  3 16  1  6  0  0  0
  3 21  1  0  0  0  0
  3 24  1  0  0  0  0
  3 25  2  0  0  0  0
  4  5  1  0  0  0  0
  6  4  1  6  0  0  0
  6  7  1  0  0  0  0
  6  8  1  0  0  0  0
  7 12  1  0  0  0  0
  8  9  1  1  0  0  0
  8 10  1  0  0  0  0
 10 11  1  1  0  0  0
 10 12  1  0  0  0  0
 12 32  1  6  0  0  0
 13 17  2  0  0  0  0
 13 28  1  0  0  0  0
 17 18  1  0  0  0  0
 17 22  1  0  0  0  0
 22 26  2  0  0  0  0
 26 27  1  0  0  0  0
 26 32  1  0  0  0  0
 27 28  2  0  0  0  0
 27 30  1  0  0  0  0
 28 29  1  0  0  0  0
 30 31  2  0  0  0  0
 31 32  1  0  0  0  0
M  CHG  3  14  -1  15  -1  21  -1
M  END
>  <CHROM.1>
-40.07094094,64.47982973,-52.19489804,179.53240261,-178.31035272,-17.11379903
160.58851070,-71.83961838,17.02691821,-23.01408483,-17.81985036,0.61990259
0.86408590,0.59064275

>  <Name>
ligand

>  <RI>
0

>  <Rbt.Current_Directory>
/home/itssahil/PROJECTS/Mol_Feturizer/New_Systems/rnas/4Y1I

>  <Rbt.Executable>
rbdock ($Id: //depot/dev/client3/rdock/2013.1/src/exe/rbdock.cxx#4 $)

>  <Rbt.Library>
libRbt.so (2013.1, Build901 2013/11/27)

>  <Rbt.Parameter_File>
/export/apps/rDock/src/rDock_2013.1_src/data/scripts/dock_solv.prm

>  <Rbt.Receptor>
prm/pocket_docking_7.prm

>  <SCORE>
-8.0371

>  <SCORE.INTER>
-3.13603

>  <SCORE.INTER.CONST>
1

>  <SCORE.INTER.POLAR>
0

>  <SCORE.INTER.ROT>
8

>  <SCORE.INTER.SOLV>
19.6635

>  <SCORE.INTER.VDW>
-17.5785

>  <SCORE.INTER.norm>
-0.0980009

>  <SCORE.INTRA>
-4.90107

>  <SCORE.INTRA.DIHEDRAL>
-8.11662

>  <SCORE.INTRA.DIHEDRAL.0>
10.9594

>  <SCORE.INTRA.POLAR>
0

>  <SCORE.INTRA.POLAR.0>
0

>  <SCORE.INTRA.REPUL>
0

>  <SCORE.INTRA.REPUL.0>
0

>  <SCORE.INTRA.SOLV>
-2.72696

>  <SCORE.INTRA.SOLV.lig_0>
-124.914

>  <SCORE.INTRA.VDW>
0.520714

>  <SCORE.INTRA.VDW.0>
-4.69801

>  <SCORE.INTRA.norm>
-0.153158

>  <SCORE.RESTR>
0

>  <SCORE.RESTR.CAVITY>
0

>  <SCORE.RESTR.norm>
0

>  <SCORE.SYSTEM>
0

>  <SCORE.SYSTEM.CONST>
0

>  <SCORE.SYSTEM.DIHEDRAL>
0

>  <SCORE.SYSTEM.SOLV>
0

>  <SCORE.SYSTEM.norm>
0

>  <SCORE.heavy>
32

>  <SCORE.norm>
-0.251159

>  <RMSD>
8.696

$$$$
ligand
 OpenBabel11021811513D
libRbt.so/2013.1/901 2013/11/27
 32 34  0  0  0  0  0  0  0  0999 V2000
   15.2930  -23.6387  -16.9575 P   0  0  1  0  0  0  0  0  0  0  0  0
   17.5009  -23.3925  -18.7729 P   0  0  2  0  0  0  0  0  0  0  0  0
   18.4973  -20.7389  -19.5350 P   0  0  1  0  0  0  0  0  0  0  0  0
   15.2890  -25.3556  -14.9969 C   0  0  0  0  0  0  0  0  0  0  0  0
   16.0425  -24.7618  -16.0155 O   0  0  0  0  0  0  0  0  0  0  0  0
   16.0782  -26.2693  -14.3074 C   0  0  1  0  0  0  0  0  0  0  0  0
   15.4937  -26.5213  -12.9309 O   0  0  0  0  0  0  0  0  0  0  0  0
   16.0995  -27.6890  -15.0398 C   0  0  1  0  0  0  0  0  0  0  0  0
   17.5004  -27.9822  -15.5273 O   0  0  0  0  0  0  0  0  0  0  0  0
   15.8310  -28.5241  -14.1727 C   0  0  1  0  0  0  0  0  0  0  0  0
   17.0882  -29.1061  -13.6449 O   0  0  0  0  0  0  0  0  0  0  0  0
   15.0293  -27.7069  -12.9630 C   0  0  2  0  0  0  0  0  0  0  0  0
   10.7182  -30.4290  -13.5877 N   0  0  0  0  0  0  0  0  0  0  0  0
   14.4559  -24.3275  -18.0067 O   0  5  0  0  0  0  0  0  0  0  0  0
   16.7949  -23.7506  -20.0566 O   0  5  0  0  0  0  0  0  0  0  0  0
   17.7990  -20.0146  -18.4080 O   0  0  0  0  0  0  0  0  0  0  0  0
   11.9452  -30.8778  -13.3736 C   0  0  0  0  0  0  0  0  0  0  0  0
   12.1761  -32.3060  -13.2934 N   0  0  0  0  0  0  0  0  0  0  0  0
   14.4373  -22.7580  -16.0752 O   0  0  0  0  0  0  0  0  0  0  0  0
   18.0867  -24.6354  -18.1558 O   0  0  0  0  0  0  0  0  0  0  0  0
   19.8459  -20.0965  -19.7766 O   0  5  0  0  0  0  0  0  0  0  0  0
   12.9717  -30.0647  -13.2298 N   0  0  0  0  0  0  0  0  0  0  0  0
   16.4419  -22.7336  -17.7056 O   0  0  0  0  0  0  0  0  0  0  0  0
   18.7040  -22.3136  -19.0799 O   0  0  0  0  0  0  0  0  0  0  0  0
   17.6429  -20.6527  -20.7808 O   0  0  0  0  0  0  0  0  0  0  0  0
   12.8014  -28.7388  -13.2974 C   0  0  0  0  0  0  0  0  0  0  0  0
   11.5321  -28.2444  -13.5202 C   0  0  0  0  0  0  0  0  0  0  0  0
   10.4496  -29.1325  -13.6701 C   0  0  0  0  0  0  0  0  0  0  0  0
    9.1454  -28.6588  -13.8975 O   0  0  0  0  0  0  0  0  0  0  0  0
   11.6182  -26.9035  -13.5460 N   0  0  0  0  0  0  0  0  0  0  0  0
   12.8850  -26.5824  -13.3484 C   0  0  0  0  0  0  0  0  0  0  0  0
   13.6124  -27.6737  -13.1994 N   0  0  0  0  0  0  0  0  0  0  0  0
  1  5  1  1  0  0  0
  1 14  1  0  0  0  0
  1 19  2  0  0  0  0
  1 23  1  0  0  0  0
  2 15  1  6  0  0  0
  2 20  2  0  0  0  0
  2 23  1  0  0  0  0
  2 24  1  0  0  0  0
  3 16  1  1  0  0  0
  3 21  1  0  0  0  0
  3 24  1  0  0  0  0
  3 25  2  0  0  0  0
  4  5  1  0  0  0  0
  6  4  1  6  0  0  0
  6  7  1  0  0  0  0
  6  8  1  0  0  0  0
  7 12  1  0  0  0  0
  8  9  1  1  0  0  0
  8 10  1  0  0  0  0
 10 11  1  1  0  0  0
 10 12  1  0  0  0  0
 12 32  1  6  0  0  0
 13 17  2  0  0  0  0
 13 28  1  0  0  0  0
 17 18  1  0  0  0  0
 17 22  1  0  0  0  0
 22 26  2  0  0  0  0
 26 27  1  0  0  0  0
 26 32  1  0  0  0  0
 27 28  2  0  0  0  0
 27 30  1  0  0  0  0
 28 29  1  0  0  0  0
 30 31  2  0  0  0  0
 31 32  1  0  0  0  0
M  CHG  3  14  -1  15  -1  21  -1
M  END
>  <CHROM.1>
-80.16849005,71.51316834,63.52639176,158.58514435,-179.88075822,179.79965523
63.25500877,69.65555647,15.33243673,-25.51305788,-16.06306466,1.04344875
0.11509697,-0.58098711

>  <Name>
ligand

>  <RI>
0

>  <Rbt.Current_Directory>
/home/itssahil/PROJECTS/Mol_Feturizer/New_Systems/rnas/4Y1I

>  <Rbt.Executable>
rbdock ($Id: //depot/dev/client3/rdock/2013.1/src/exe/rbdock.cxx#4 $)

>  <Rbt.Library>
libRbt.so (2013.1, Build901 2013/11/27)

>  <Rbt.Parameter_File>
/export/apps/rDock/src/rDock_2013.1_src/data/scripts/dock_solv.prm

>  <Rbt.Receptor>
prm/pocket_docking_4.prm

>  <SCORE>
-8.10383

>  <SCORE.INTER>
-2.41964

>  <SCORE.INTER.CONST>
1

>  <SCORE.INTER.POLAR>
0

>  <SCORE.INTER.ROT>
8

>  <SCORE.INTER.SOLV>
11.2574

>  <SCORE.INTER.VDW>
-14.2989

>  <SCORE.INTER.norm>
-0.0756136

>  <SCORE.INTRA>
-5.68419

>  <SCORE.INTRA.DIHEDRAL>
-7.31225

>  <SCORE.INTRA.DIHEDRAL.0>
10.9594

>  <SCORE.INTRA.POLAR>
0

>  <SCORE.INTRA.POLAR.0>
0

>  <SCORE.INTRA.REPUL>
0

>  <SCORE.INTRA.REPUL.0>
0

>  <SCORE.INTRA.SOLV>
-4.90384

>  <SCORE.INTRA.SOLV.lig_0>
-124.914

>  <SCORE.INTRA.VDW>
0.423852

>  <SCORE.INTRA.VDW.0>
-4.69801

>  <SCORE.INTRA.norm>
-0.177631

>  <SCORE.RESTR>
0

>  <SCORE.RESTR.CAVITY>
0

>  <SCORE.RESTR.norm>
0

>  <SCORE.SYSTEM>
0

>  <SCORE.SYSTEM.CONST>
0

>  <SCORE.SYSTEM.DIHEDRAL>
0

>  <SCORE.SYSTEM.SOLV>
0

>  <SCORE.SYSTEM.norm>
0

>  <SCORE.heavy>
32

>  <SCORE.norm>
-0.253245

>  <RMSD>
8.701

$$$$
ligand
 OpenBabel11021811513D
libRbt.so/2013.1/901 2013/11/27
 32 34  0  0  0  0  0  0  0  0999 V2000
   12.7401  -19.5821  -20.1419 P   0  0  1  0  0  0  0  0  0  0  0  0
   14.3134  -18.0267  -21.9685 P   0  0  2  0  0  0  0  0  0  0  0  0
   17.2038  -18.4057  -22.3111 P   0  0  1  0  0  0  0  0  0  0  0  0
   13.5013  -21.1750  -18.2250 C   0  0  0  0  0  0  0  0  0  0  0  0
   12.8331  -21.0731  -19.4501 O   0  0  0  0  0  0  0  0  0  0  0  0
   13.7497  -22.5133  -17.9411 C   0  0  1  0  0  0  0  0  0  0  0  0
   14.7888  -23.0605  -18.9007 O   0  0  0  0  0  0  0  0  0  0  0  0
   14.3675  -22.6930  -16.4788 C   0  0  1  0  0  0  0  0  0  0  0  0
   13.3967  -23.4650  -15.6142 O   0  0  0  0  0  0  0  0  0  0  0  0
   15.3726  -23.3944  -16.6171 C   0  0  1  0  0  0  0  0  0  0  0  0
   15.0298  -24.8072  -16.3269 O   0  0  0  0  0  0  0  0  0  0  0  0
   15.8426  -23.2369  -18.2072 C   0  0  2  0  0  0  0  0  0  0  0  0
   20.5501  -21.7003  -19.5722 N   0  0  0  0  0  0  0  0  0  0  0  0
   11.6195  -19.5557  -21.1517 O   0  5  0  0  0  0  0  0  0  0  0  0
   14.4169  -16.7210  -21.2212 O   0  5  0  0  0  0  0  0  0  0  0  0
   17.1288  -18.9502  -20.9040 O   0  0  0  0  0  0  0  0  0  0  0  0
   20.0702  -22.9337  -19.5376 C   0  0  0  0  0  0  0  0  0  0  0  0
   20.9241  -24.0401  -19.9198 N   0  0  0  0  0  0  0  0  0  0  0  0
   12.5131  -18.5558  -19.0550 O   0  0  0  0  0  0  0  0  0  0  0  0
   13.0998  -18.0028  -22.8602 O   0  0  0  0  0  0  0  0  0  0  0  0
   17.9765  -19.3762  -23.1775 O   0  5  0  0  0  0  0  0  0  0  0  0
   18.8333  -23.1923  -19.1648 N   0  0  0  0  0  0  0  0  0  0  0  0
   14.1572  -19.2752  -20.9141 O   0  0  0  0  0  0  0  0  0  0  0  0
   15.6614  -18.2545  -22.8834 O   0  0  0  0  0  0  0  0  0  0  0  0
   17.8953  -17.0602  -22.2829 O   0  0  0  0  0  0  0  0  0  0  0  0
   18.0120  -22.1990  -18.8038 C   0  0  0  0  0  0  0  0  0  0  0  0
   18.4875  -20.9035  -18.8305 C   0  0  0  0  0  0  0  0  0  0  0  0
   19.8130  -20.6507  -19.2332 C   0  0  0  0  0  0  0  0  0  0  0  0
   20.3254  -19.3419  -19.2710 O   0  0  0  0  0  0  0  0  0  0  0  0
   17.4893  -20.0971  -18.4309 N   0  0  0  0  0  0  0  0  0  0  0  0
   16.4426  -20.8601  -18.1682 C   0  0  0  0  0  0  0  0  0  0  0  0
   16.7389  -22.1281  -18.3842 N   0  0  0  0  0  0  0  0  0  0  0  0
  1  5  1  1  0  0  0
  1 14  1  0  0  0  0
  1 19  2  0  0  0  0
  1 23  1  0  0  0  0
  2 15  1  1  0  0  0
  2 20  2  0  0  0  0
  2 23  1  0  0  0  0
  2 24  1  0  0  0  0
  3 16  1  1  0  0  0
  3 21  1  0  0  0  0
  3 24  1  0  0  0  0
  3 25  2  0  0  0  0
  4  5  1  0  0  0  0
  6  4  1  6  0  0  0
  6  7  1  0  0  0  0
  6  8  1  0  0  0  0
  7 12  1  0  0  0  0
  8  9  1  1  0  0  0
  8 10  1  0  0  0  0
 10 11  1  6  0  0  0
 10 12  1  0  0  0  0
 12 32  1  1  0  0  0
 13 17  2  0  0  0  0
 13 28  1  0  0  0  0
 17 18  1  0  0  0  0
 17 22  1  0  0  0  0
 22 26  2  0  0  0  0
 26 27  1  0  0  0  0
 26 32  1  0  0  0  0
 27 28  2  0  0  0  0
 27 30  1  0  0  0  0
 28 29  1  0  0  0  0
 30 31  2  0  0  0  0
 31 32  1  0  0  0  0
M  CHG  3  14  -1  15  -1  21  -1
M  END
>  <CHROM.1>
-160.24787031,75.89785241,26.56665713,69.22787839,-166.56944337,-123.60089186
167.12209701,62.27099487,15.87407525,-20.49516717,-19.81997583,1.97318680
0.14609417,-0.74029088

>  <Name>
ligand

>  <RI>
0

>  <Rbt.Current_Directory>
/home/itssahil/PROJECTS/Mol_Feturizer/New_Systems/rnas/4Y1I

>  <Rbt.Executable>
rbdock ($Id: //depot/dev/client3/rdock/2013.1/src/exe/rbdock.cxx#4 $)

>  <Rbt.Library>
libRbt.so (2013.1, Build901 2013/11/27)

>  <Rbt.Parameter_File>
/export/apps/rDock/src/rDock_2013.1_src/data/scripts/dock_solv.prm

>  <Rbt.Receptor>
prm/pocket_docking_7.prm

>  <SCORE>
-11.9984

>  <SCORE.INTER>
-6.41233

>  <SCORE.INTER.CONST>
1

>  <SCORE.INTER.POLAR>
0

>  <SCORE.INTER.ROT>
8

>  <SCORE.INTER.SOLV>
17.6839

>  <SCORE.INTER.VDW>
-19.1028

>  <SCORE.INTER.norm>
-0.200385

>  <SCORE.INTRA>
-5.5861

>  <SCORE.INTRA.DIHEDRAL>
-5.82739

>  <SCORE.INTRA.DIHEDRAL.0>
10.9594

>  <SCORE.INTRA.POLAR>
0

>  <SCORE.INTRA.POLAR.0>
0

>  <SCORE.INTRA.REPUL>
0

>  <SCORE.INTRA.REPUL.0>
0

>  <SCORE.INTRA.SOLV>
-4.752

>  <SCORE.INTRA.SOLV.lig_0>
-124.914

>  <SCORE.INTRA.VDW>
-0.296407

>  <SCORE.INTRA.VDW.0>
-4.69801

>  <SCORE.INTRA.norm>
-0.174566

>  <SCORE.RESTR>
0

>  <SCORE.RESTR.CAVITY>
0

>  <SCORE.RESTR.norm>
0

>  <SCORE.SYSTEM>
0

>  <SCORE.SYSTEM.CONST>
0

>  <SCORE.SYSTEM.DIHEDRAL>
0

>  <SCORE.SYSTEM.SOLV>
0

>  <SCORE.SYSTEM.norm>
0

>  <SCORE.heavy>
32

>  <SCORE.norm>
-0.374951

>  <RMSD>
8.711

$$$$
ligand
 OpenBabel11021811513D
libRbt.so/2013.1/901 2013/11/27
 32 34  0  0  0  0  0  0  0  0999 V2000
   12.2625  -32.6303  -17.4175 P   0  0  1  0  0  0  0  0  0  0  0  0
   11.7466  -29.8133  -17.2464 P   0  0  2  0  0  0  0  0  0  0  0  0
   11.4651  -28.9602  -20.0408 P   0  0  1  0  0  0  0  0  0  0  0  0
   11.9967  -33.0143  -14.8536 C   0  0  0  0  0  0  0  0  0  0  0  0
   12.8949  -32.8327  -15.9110 O   0  0  0  0  0  0  0  0  0  0  0  0
   12.7028  -33.1823  -13.6677 C   0  0  1  0  0  0  0  0  0  0  0  0
   13.4555  -31.9097  -13.3301 O   0  0  0  0  0  0  0  0  0  0  0  0
   11.7190  -33.4478  -12.4373 C   0  0  1  0  0  0  0  0  0  0  0  0
   11.9522  -34.8413  -11.8988 O   0  0  0  0  0  0  0  0  0  0  0  0
   12.0540  -32.6534  -11.5553 C   0  0  1  0  0  0  0  0  0  0  0  0
   12.9596  -33.3339  -10.5989 O   0  0  0  0  0  0  0  0  0  0  0  0
   12.8604  -31.4126  -12.3195 C   0  0  2  0  0  0  0  0  0  0  0  0
   12.1387  -26.3785  -13.0422 N   0  0  0  0  0  0  0  0  0  0  0  0
   13.3667  -32.3239  -18.3988 O   0  5  0  0  0  0  0  0  0  0  0  0
   12.8133  -29.7140  -16.1850 O   0  5  0  0  0  0  0  0  0  0  0  0
   10.5663  -27.7917  -19.7105 O   0  0  0  0  0  0  0  0  0  0  0  0
   13.2206  -26.9931  -12.5901 C   0  0  0  0  0  0  0  0  0  0  0  0
   14.3870  -26.2103  -12.2344 N   0  0  0  0  0  0  0  0  0  0  0  0
   11.5261  -33.8917  -17.8084 O   0  0  0  0  0  0  0  0  0  0  0  0
   10.5765  -28.9434  -16.8686 O   0  0  0  0  0  0  0  0  0  0  0  0
   12.3909  -28.5690  -21.1719 O   0  5  0  0  0  0  0  0  0  0  0  0
   13.2743  -28.3021  -12.4512 N   0  0  0  0  0  0  0  0  0  0  0  0
   11.2191  -31.3621  -17.3801 O   0  0  0  0  0  0  0  0  0  0  0  0
   12.3520  -29.3194  -18.6940 O   0  0  0  0  0  0  0  0  0  0  0  0
   10.6099  -30.1410  -20.4454 O   0  0  0  0  0  0  0  0  0  0  0  0
   12.2187  -29.0616  -12.7681 C   0  0  0  0  0  0  0  0  0  0  0  0
   11.0777  -28.4459  -13.2415 C   0  0  0  0  0  0  0  0  0  0  0  0
   11.0434  -27.0452  -13.3825 C   0  0  0  0  0  0  0  0  0  0  0  0
    9.8959  -26.3897  -13.8625 O   0  0  0  0  0  0  0  0  0  0  0  0
   10.1704  -29.4067  -13.4860 N   0  0  0  0  0  0  0  0  0  0  0  0
   10.7254  -30.5657  -13.1771 C   0  0  0  0  0  0  0  0  0  0  0  0
   11.9569  -30.3779  -12.7409 N   0  0  0  0  0  0  0  0  0  0  0  0
  1  5  1  1  0  0  0
  1 14  1  0  0  0  0
  1 19  2  0  0  0  0
  1 23  1  0  0  0  0
  2 15  1  1  0  0  0
  2 20  2  0  0  0  0
  2 23  1  0  0  0  0
  2 24  1  0  0  0  0
  3 16  1  1  0  0  0
  3 21  1  0  0  0  0
  3 24  1  0  0  0  0
  3 25  2  0  0  0  0
  4  5  1  0  0  0  0
  6  4  1  6  0  0  0
  6  7  1  0  0  0  0
  6  8  1  0  0  0  0
  7 12  1  0  0  0  0
  8  9  1  1  0  0  0
  8 10  1  0  0  0  0
 10 11  1  1  0  0  0
 10 12  1  0  0  0  0
 12 32  1  6  0  0  0
 13 17  2  0  0  0  0
 13 28  1  0  0  0  0
 17 18  1  0  0  0  0
 17 22  1  0  0  0  0
 22 26  2  0  0  0  0
 26 27  1  0  0  0  0
 26 32  1  0  0  0  0
 27 28  2  0  0  0  0
 27 30  1  0  0  0  0
 28 29  1  0  0  0  0
 30 31  2  0  0  0  0
 31 32  1  0  0  0  0
M  CHG  3  14  -1  15  -1  21  -1
M  END
>  <CHROM.1>
174.80244237,-44.91975216,62.16844649,65.10766702,179.35566312,-95.58030239
71.98943448,-166.13452738,11.97024512,-30.35366659,-15.48995885,-2.58277790
-1.44504327,0.75974506

>  <Name>
ligand

>  <RI>
0

>  <Rbt.Current_Directory>
/home/itssahil/PROJECTS/Mol_Feturizer/New_Systems/rnas/4Y1I

>  <Rbt.Executable>
rbdock ($Id: //depot/dev/client3/rdock/2013.1/src/exe/rbdock.cxx#4 $)

>  <Rbt.Library>
libRbt.so (2013.1, Build901 2013/11/27)

>  <Rbt.Parameter_File>
/export/apps/rDock/src/rDock_2013.1_src/data/scripts/dock_solv.prm

>  <Rbt.Receptor>
prm/pocket_docking_7.prm

>  <SCORE>
-3.10917

>  <SCORE.INTER>
4.08829

>  <SCORE.INTER.CONST>
1

>  <SCORE.INTER.POLAR>
0

>  <SCORE.INTER.ROT>
8

>  <SCORE.INTER.SOLV>
3.51822

>  <SCORE.INTER.VDW>
-7.38054

>  <SCORE.INTER.norm>
0.127759

>  <SCORE.INTRA>
-7.19746

>  <SCORE.INTRA.DIHEDRAL>
-8.73106

>  <SCORE.INTRA.DIHEDRAL.0>
10.9594

>  <SCORE.INTRA.POLAR>
0

>  <SCORE.INTRA.POLAR.0>
0

>  <SCORE.INTRA.REPUL>
0

>  <SCORE.INTRA.REPUL.0>
0

>  <SCORE.INTRA.SOLV>
-2.24823

>  <SCORE.INTRA.SOLV.lig_0>
-124.914

>  <SCORE.INTRA.VDW>
-1.70782

>  <SCORE.INTRA.VDW.0>
-4.69801

>  <SCORE.INTRA.norm>
-0.224921

>  <SCORE.RESTR>
0

>  <SCORE.RESTR.CAVITY>
0

>  <SCORE.RESTR.norm>
0

>  <SCORE.SYSTEM>
0

>  <SCORE.SYSTEM.CONST>
0

>  <SCORE.SYSTEM.DIHEDRAL>
0

>  <SCORE.SYSTEM.SOLV>
0

>  <SCORE.SYSTEM.norm>
0

>  <SCORE.heavy>
32

>  <SCORE.norm>
-0.0971616

>  <RMSD>
8.717

$$$$
ligand
 OpenBabel11021811513D
libRbt.so/2013.1/901 2013/11/27
 32 34  0  0  0  0  0  0  0  0999 V2000
   15.1150  -30.7215  -17.5183 P   0  0  1  0  0  0  0  0  0  0  0  0
   17.1640  -28.9124  -16.6467 P   0  0  2  0  0  0  0  0  0  0  0  0
   16.0062  -27.2996  -14.4848 P   0  0  1  0  0  0  0  0  0  0  0  0
   14.6907  -30.7698  -14.9475 C   0  0  0  0  0  0  0  0  0  0  0  0
   15.1035  -31.4997  -16.0677 O   0  0  0  0  0  0  0  0  0  0  0  0
   14.5814  -31.6204  -13.8531 C   0  0  1  0  0  0  0  0  0  0  0  0
   14.5615  -30.8115  -12.5704 O   0  0  0  0  0  0  0  0  0  0  0  0
   13.2044  -32.4300  -13.8807 C   0  0  1  0  0  0  0  0  0  0  0  0
   13.4917  -33.9048  -14.0502 O   0  0  0  0  0  0  0  0  0  0  0  0
   12.6988  -32.2811  -12.7656 C   0  0  1  0  0  0  0  0  0  0  0  0
   13.0301  -33.4497  -11.9156 O   0  0  0  0  0  0  0  0  0  0  0  0
   13.3721  -30.8998  -12.1231 C   0  0  2  0  0  0  0  0  0  0  0  0
    8.9667  -29.0383  -13.9974 N   0  0  0  0  0  0  0  0  0  0  0  0
   16.0308  -31.4408  -18.4775 O   0  5  0  0  0  0  0  0  0  0  0  0
   17.8597  -27.8102  -17.4053 O   0  5  0  0  0  0  0  0  0  0  0  0
   14.5772  -27.7372  -14.7058 O   0  0  0  0  0  0  0  0  0  0  0  0
    9.3021  -30.3038  -13.8006 C   0  0  0  0  0  0  0  0  0  0  0  0
    8.3564  -31.3501  -14.1333 N   0  0  0  0  0  0  0  0  0  0  0  0
   13.7019  -30.6720  -18.0540 O   0  0  0  0  0  0  0  0  0  0  0  0
   17.9734  -30.1790  -16.7420 O   0  0  0  0  0  0  0  0  0  0  0  0
   16.2448  -27.1169  -13.0018 O   0  5  0  0  0  0  0  0  0  0  0  0
   10.4749  -30.6480  -13.3090 N   0  0  0  0  0  0  0  0  0  0  0  0
   15.6800  -29.1961  -17.2885 O   0  0  0  0  0  0  0  0  0  0  0  0
   16.9993  -28.4847  -15.0669 O   0  0  0  0  0  0  0  0  0  0  0  0
   16.2427  -25.9984  -15.2199 O   0  0  0  0  0  0  0  0  0  0  0  0
   11.3770  -29.7124  -12.9889 C   0  0  0  0  0  0  0  0  0  0  0  0
   11.0529  -28.3851  -13.1846 C   0  0  0  0  0  0  0  0  0  0  0  0
    9.7929  -28.0407  -13.7107 C   0  0  0  0  0  0  0  0  0  0  0  0
    9.4339  -26.6976  -13.9206 O   0  0  0  0  0  0  0  0  0  0  0  0
   12.1068  -27.6486  -12.7932 N   0  0  0  0  0  0  0  0  0  0  0  0
   13.0418  -28.4835  -12.3744 C   0  0  0  0  0  0  0  0  0  0  0  0
   12.6219  -29.7297  -12.4871 N   0  0  0  0  0  0  0  0  0  0  0  0
  1  5  1  1  0  0  0
  1 14  1  0  0  0  0
  1 19  2  0  0  0  0
  1 23  1  0  0  0  0
  2 15  1  6  0  0  0
  2 20  2  0  0  0  0
  2 23  1  0  0  0  0
  2 24  1  0  0  0  0
  3 16  1  6  0  0  0
  3 21  1  0  0  0  0
  3 24  1  0  0  0  0
  3 25  2  0  0  0  0
  4  5  1  0  0  0  0
  6  4  1  6  0  0  0
  6  7  1  0  0  0  0
  6  8  1  0  0  0  0
  7 12  1  0  0  0  0
  8  9  1  1  0  0  0
  8 10  1  0  0  0  0
 10 11  1  1  0  0  0
 10 12  1  0  0  0  0
 12 32  1  6  0  0  0
 13 17  2  0  0  0  0
 13 28  1  0  0  0  0
 17 18  1  0  0  0  0
 17 22  1  0  0  0  0
 22 26  2  0  0  0  0
 26 27  1  0  0  0  0
 26 32  1  0  0  0  0
 27 28  2  0  0  0  0
 27 30  1  0  0  0  0
 28 29  1  0  0  0  0
 30 31  2  0  0  0  0
 31 32  1  0  0  0  0
M  CHG  3  14  -1  15  -1  21  -1
M  END
>  <CHROM.1>
159.19979848,137.11954025,66.94408268,162.54530674,172.51710149,134.50523489
58.28369946,69.41658137,13.97122103,-29.70138976,-14.73628035,-0.06827113
-0.51871042,-2.96378469

>  <Name>
ligand

>  <RI>
0

>  <Rbt.Current_Directory>
/home/itssahil/PROJECTS/Mol_Feturizer/New_Systems/rnas/4Y1I

>  <Rbt.Executable>
rbdock ($Id: //depot/dev/client3/rdock/2013.1/src/exe/rbdock.cxx#4 $)

>  <Rbt.Library>
libRbt.so (2013.1, Build901 2013/11/27)

>  <Rbt.Parameter_File>
/export/apps/rDock/src/rDock_2013.1_src/data/scripts/dock_solv.prm

>  <Rbt.Receptor>
prm/pocket_docking_6.prm

>  <SCORE>
-4.07145

>  <SCORE.INTER>
2.36416

>  <SCORE.INTER.CONST>
1

>  <SCORE.INTER.POLAR>
0

>  <SCORE.INTER.ROT>
8

>  <SCORE.INTER.SOLV>
5.65208

>  <SCORE.INTER.VDW>
-9.24125

>  <SCORE.INTER.norm>
0.0738801

>  <SCORE.INTRA>
-6.43561

>  <SCORE.INTRA.DIHEDRAL>
-5.72098

>  <SCORE.INTRA.DIHEDRAL.0>
10.9594

>  <SCORE.INTRA.POLAR>
0

>  <SCORE.INTRA.POLAR.0>
0

>  <SCORE.INTRA.REPUL>
0

>  <SCORE.INTRA.REPUL.0>
0

>  <SCORE.INTRA.SOLV>
-3.91302

>  <SCORE.INTRA.SOLV.lig_0>
-124.914

>  <SCORE.INTRA.VDW>
-1.61861

>  <SCORE.INTRA.VDW.0>
-4.69801

>  <SCORE.INTRA.norm>
-0.201113

>  <SCORE.RESTR>
0

>  <SCORE.RESTR.CAVITY>
0

>  <SCORE.RESTR.norm>
0

>  <SCORE.SYSTEM>
0

>  <SCORE.SYSTEM.CONST>
0

>  <SCORE.SYSTEM.DIHEDRAL>
0

>  <SCORE.SYSTEM.SOLV>
0

>  <SCORE.SYSTEM.norm>
0

>  <SCORE.heavy>
32

>  <SCORE.norm>
-0.127233

>  <RMSD>
8.725

$$$$
ligand
 OpenBabel11021811513D
libRbt.so/2013.1/901 2013/11/27
 32 34  0  0  0  0  0  0  0  0999 V2000
   15.2309  -23.9395  -16.2529 P   0  0  1  0  0  0  0  0  0  0  0  0
   17.5871  -24.9069  -17.5734 P   0  0  2  0  0  0  0  0  0  0  0  0
   20.3490  -25.6546  -18.2275 P   0  0  1  0  0  0  0  0  0  0  0  0
   13.6355  -25.6721  -15.1372 C   0  0  0  0  0  0  0  0  0  0  0  0
   14.1864  -25.2093  -16.3374 O   0  0  0  0  0  0  0  0  0  0  0  0
   14.6420  -26.2029  -14.3382 C   0  0  1  0  0  0  0  0  0  0  0  0
   14.1017  -26.4915  -12.9509 O   0  0  0  0  0  0  0  0  0  0  0  0
   15.1580  -27.6040  -14.9065 C   0  0  1  0  0  0  0  0  0  0  0  0
   16.6011  -27.4710  -15.3375 O   0  0  0  0  0  0  0  0  0  0  0  0
   15.1306  -28.3887  -13.9553 C   0  0  1  0  0  0  0  0  0  0  0  0
   16.4801  -28.4713  -13.3472 O   0  0  0  0  0  0  0  0  0  0  0  0
   14.0478  -27.7606  -12.8567 C   0  0  2  0  0  0  0  0  0  0  0  0
   11.0186  -31.7505  -13.9925 N   0  0  0  0  0  0  0  0  0  0  0  0
   15.0802  -23.0709  -17.4772 O   0  5  0  0  0  0  0  0  0  0  0  0
   17.6759  -23.7056  -18.4808 O   0  5  0  0  0  0  0  0  0  0  0  0
   21.0009  -24.3168  -18.4880 O   0  0  0  0  0  0  0  0  0  0  0  0
   12.3317  -31.7423  -13.8241 C   0  0  0  0  0  0  0  0  0  0  0  0
   13.0742  -32.9789  -13.9624 N   0  0  0  0  0  0  0  0  0  0  0  0
   14.9401  -23.1546  -14.9937 O   0  0  0  0  0  0  0  0  0  0  0  0
   16.8520  -26.0173  -18.2771 O   0  0  0  0  0  0  0  0  0  0  0  0
   21.3661  -26.5896  -17.6103 O   0  5  0  0  0  0  0  0  0  0  0  0
   12.9922  -30.6403  -13.5328 N   0  0  0  0  0  0  0  0  0  0  0  0
   16.7644  -24.5267  -16.2047 O   0  0  0  0  0  0  0  0  0  0  0  0
   19.0989  -25.4173  -17.1738 O   0  0  0  0  0  0  0  0  0  0  0  0
   19.8418  -26.2191  -19.5366 O   0  0  0  0  0  0  0  0  0  0  0  0
   12.3442  -29.4771  -13.3966 C   0  0  0  0  0  0  0  0  0  0  0  0
   10.9747  -29.4577  -13.5674 C   0  0  0  0  0  0  0  0  0  0  0  0
   10.2894  -30.6482  -13.8777 C   0  0  0  0  0  0  0  0  0  0  0  0
    8.8949  -30.6599  -14.0570 O   0  0  0  0  0  0  0  0  0  0  0  0
   10.5610  -28.1925  -13.3820 N   0  0  0  0  0  0  0  0  0  0  0  0
   11.6275  -27.4613  -13.1090 C   0  0  0  0  0  0  0  0  0  0  0  0
   12.7101  -28.2164  -13.1160 N   0  0  0  0  0  0  0  0  0  0  0  0
  1  5  1  6  0  0  0
  1 14  1  0  0  0  0
  1 19  2  0  0  0  0
  1 23  1  0  0  0  0
  2 15  1  6  0  0  0
  2 20  2  0  0  0  0
  2 23  1  0  0  0  0
  2 24  1  0  0  0  0
  3 16  1  6  0  0  0
  3 21  1  0  0  0  0
  3 24  1  0  0  0  0
  3 25  2  0  0  0  0
  4  5  1  0  0  0  0
  6  4  1  6  0  0  0
  6  7  1  0  0  0  0
  6  8  1  0  0  0  0
  7 12  1  0  0  0  0
  8  9  1  1  0  0  0
  8 10  1  0  0  0  0
 10 11  1  1  0  0  0
 10 12  1  0  0  0  0
 12 32  1  6  0  0  0
 13 17  2  0  0  0  0
 13 28  1  0  0  0  0
 17 18  1  0  0  0  0
 17 22  1  0  0  0  0
 22 26  2  0  0  0  0
 26 27  1  0  0  0  0
 26 32  1  0  0  0  0
 27 28  2  0  0  0  0
 27 30  1  0  0  0  0
 28 29  1  0  0  0  0
 30 31  2  0  0  0  0
 31 32  1  0  0  0  0
M  CHG  3  14  -1  15  -1  21  -1
M  END
>  <CHROM.1>
-145.84071001,57.39170740,82.47024564,170.49107928,-65.39433515,164.13232751
84.96657680,-47.80491573,15.33555499,-26.88167063,-15.60102723,0.62376428
0.42176071,-0.19667462

>  <Name>
ligand

>  <RI>
0

>  <Rbt.Current_Directory>
/home/itssahil/PROJECTS/Mol_Feturizer/New_Systems/rnas/4Y1I

>  <Rbt.Executable>
rbdock ($Id: //depot/dev/client3/rdock/2013.1/src/exe/rbdock.cxx#4 $)

>  <Rbt.Library>
libRbt.so (2013.1, Build901 2013/11/27)

>  <Rbt.Parameter_File>
/export/apps/rDock/src/rDock_2013.1_src/data/scripts/dock_solv.prm

>  <Rbt.Receptor>
prm/pocket_docking_4.prm

>  <SCORE>
-2.14917

>  <SCORE.INTER>
0.71352

>  <SCORE.INTER.CONST>
1

>  <SCORE.INTER.POLAR>
0

>  <SCORE.INTER.ROT>
8

>  <SCORE.INTER.SOLV>
15.2331

>  <SCORE.INTER.VDW>
-13.5354

>  <SCORE.INTER.norm>
0.0222975

>  <SCORE.INTRA>
-2.87306

>  <SCORE.INTRA.DIHEDRAL>
-5.94076

>  <SCORE.INTRA.DIHEDRAL.0>
10.9594

>  <SCORE.INTRA.POLAR>
0

>  <SCORE.INTRA.POLAR.0>
0

>  <SCORE.INTRA.REPUL>
0

>  <SCORE.INTRA.REPUL.0>
0

>  <SCORE.INTRA.SOLV>
-0.178917

>  <SCORE.INTRA.SOLV.lig_0>
-124.914

>  <SCORE.INTRA.VDW>
0.186776

>  <SCORE.INTRA.VDW.0>
-4.69801

>  <SCORE.INTRA.norm>
-0.0897833

>  <SCORE.RESTR>
0.0103729

>  <SCORE.RESTR.CAVITY>
0.0103729

>  <SCORE.RESTR.norm>
0.000324153

>  <SCORE.SYSTEM>
0

>  <SCORE.SYSTEM.CONST>
0

>  <SCORE.SYSTEM.DIHEDRAL>
0

>  <SCORE.SYSTEM.SOLV>
0

>  <SCORE.SYSTEM.norm>
0

>  <SCORE.heavy>
32

>  <SCORE.norm>
-0.0671616

>  <RMSD>
8.742

$$$$
ligand
 OpenBabel11021811513D
libRbt.so/2013.1/901 2013/11/27
 32 34  0  0  0  0  0  0  0  0999 V2000
   11.8458  -29.8808  -17.8660 P   0  0  1  0  0  0  0  0  0  0  0  0
   13.0327  -31.4036  -19.9880 P   0  0  2  0  0  0  0  0  0  0  0  0
   11.2824  -32.2404  -22.1906 P   0  0  1  0  0  0  0  0  0  0  0  0
   13.3976  -28.9244  -16.0036 C   0  0  0  0  0  0  0  0  0  0  0  0
   12.2989  -28.6801  -16.8348 O   0  0  0  0  0  0  0  0  0  0  0  0
   13.6655  -27.7920  -15.2426 C   0  0  1  0  0  0  0  0  0  0  0  0
   12.4633  -27.4509  -14.3834 O   0  0  0  0  0  0  0  0  0  0  0  0
   14.8714  -28.0460  -14.2260 C   0  0  1  0  0  0  0  0  0  0  0  0
   16.0369  -27.1567  -14.5962 O   0  0  0  0  0  0  0  0  0  0  0  0
   14.4678  -27.6792  -13.1197 C   0  0  1  0  0  0  0  0  0  0  0  0
   14.9294  -26.2941  -12.8624 O   0  0  0  0  0  0  0  0  0  0  0  0
   12.8041  -27.7224  -13.1865 C   0  0  2  0  0  0  0  0  0  0  0  0
    8.9562  -31.1010  -13.5907 N   0  0  0  0  0  0  0  0  0  0  0  0
   11.5649  -31.1432  -17.0892 O   0  5  0  0  0  0  0  0  0  0  0  0
   12.9500  -32.7234  -19.2632 O   0  5  0  0  0  0  0  0  0  0  0  0
   12.4645  -32.3956  -23.1186 O   0  0  0  0  0  0  0  0  0  0  0  0
    9.0526  -29.9013  -14.1421 C   0  0  0  0  0  0  0  0  0  0  0  0
    7.9740  -29.4139  -14.9779 N   0  0  0  0  0  0  0  0  0  0  0  0
   10.6196  -29.4300  -18.6273 O   0  0  0  0  0  0  0  0  0  0  0  0
   14.2894  -31.3615  -20.8174 O   0  0  0  0  0  0  0  0  0  0  0  0
   10.9185  -33.5942  -21.6210 O   0  5  0  0  0  0  0  0  0  0  0  0
   10.1035  -29.1288  -13.9560 N   0  0  0  0  0  0  0  0  0  0  0  0
   13.0804  -30.1651  -18.9117 O   0  0  0  0  0  0  0  0  0  0  0  0
   11.7235  -31.2216  -20.9672 O   0  0  0  0  0  0  0  0  0  0  0  0
   10.1178  -31.6663  -22.9675 O   0  0  0  0  0  0  0  0  0  0  0  0
   11.1214  -29.5413  -13.1909 C   0  0  0  0  0  0  0  0  0  0  0  0
   11.0460  -30.7881  -12.6037 C   0  0  0  0  0  0  0  0  0  0  0  0
    9.9132  -31.5969  -12.8173 C   0  0  0  0  0  0  0  0  0  0  0  0
    9.8080  -32.8715  -12.2331 O   0  0  0  0  0  0  0  0  0  0  0  0
   12.1730  -30.9710  -11.8947 N   0  0  0  0  0  0  0  0  0  0  0  0
   12.9127  -29.8850  -12.0366 C   0  0  0  0  0  0  0  0  0  0  0  0
   12.2952  -29.0125  -12.8110 N   0  0  0  0  0  0  0  0  0  0  0  0
  1  5  1  1  0  0  0
  1 14  1  0  0  0  0
  1 19  2  0  0  0  0
  1 23  1  0  0  0  0
  2 15  1  1  0  0  0
  2 20  2  0  0  0  0
  2 23  1  0  0  0  0
  2 24  1  0  0  0  0
  3 16  1  6  0  0  0
  3 21  1  0  0  0  0
  3 24  1  0  0  0  0
  3 25  2  0  0  0  0
  4  5  1  0  0  0  0
  6  4  1  1  0  0  0
  6  7  1  0  0  0  0
  6  8  1  0  0  0  0
  7 12  1  0  0  0  0
  8  9  1  6  0  0  0
  8 10  1  0  0  0  0
 10 11  1  6  0  0  0
 10 12  1  0  0  0  0
 12 32  1  6  0  0  0
 13 17  2  0  0  0  0
 13 28  1  0  0  0  0
 17 18  1  0  0  0  0
 17 22  1  0  0  0  0
 22 26  2  0  0  0  0
 26 27  1  0  0  0  0
 26 32  1  0  0  0  0
 27 28  2  0  0  0  0
 27 30  1  0  0  0  0
 28 29  1  0  0  0  0
 30 31  2  0  0  0  0
 31 32  1  0  0  0  0
M  CHG  3  14  -1  15  -1  21  -1
M  END
>  <CHROM.1>
56.39760850,-61.70059908,-54.35161285,60.30678473,177.79223028,-35.53214517
173.85255869,-58.65168984,12.03886820,-30.18291029,-16.75846354,-1.63614177
0.60066554,1.26847291

>  <Name>
ligand

>  <RI>
0

>  <Rbt.Current_Directory>
/home/itssahil/PROJECTS/Mol_Feturizer/New_Systems/rnas/4Y1I

>  <Rbt.Executable>
rbdock ($Id: //depot/dev/client3/rdock/2013.1/src/exe/rbdock.cxx#4 $)

>  <Rbt.Library>
libRbt.so (2013.1, Build901 2013/11/27)

>  <Rbt.Parameter_File>
/export/apps/rDock/src/rDock_2013.1_src/data/scripts/dock_solv.prm

>  <Rbt.Receptor>
prm/pocket_docking_8.prm

>  <SCORE>
-4.04525

>  <SCORE.INTER>
3.45833

>  <SCORE.INTER.CONST>
1

>  <SCORE.INTER.POLAR>
0

>  <SCORE.INTER.ROT>
8

>  <SCORE.INTER.SOLV>
2.95669

>  <SCORE.INTER.VDW>
-7.61334

>  <SCORE.INTER.norm>
0.108073

>  <SCORE.INTRA>
-7.50358

>  <SCORE.INTRA.DIHEDRAL>
-9.56155

>  <SCORE.INTRA.DIHEDRAL.0>
10.9594

>  <SCORE.INTRA.POLAR>
0

>  <SCORE.INTRA.POLAR.0>
0

>  <SCORE.INTRA.REPUL>
0

>  <SCORE.INTRA.REPUL.0>
0

>  <SCORE.INTRA.SOLV>
-4.57579

>  <SCORE.INTRA.SOLV.lig_0>
-124.914

>  <SCORE.INTRA.VDW>
-0.434916

>  <SCORE.INTRA.VDW.0>
-4.69801

>  <SCORE.INTRA.norm>
-0.234487

>  <SCORE.RESTR>
0

>  <SCORE.RESTR.CAVITY>
0

>  <SCORE.RESTR.norm>
0

>  <SCORE.SYSTEM>
0

>  <SCORE.SYSTEM.CONST>
0

>  <SCORE.SYSTEM.DIHEDRAL>
0

>  <SCORE.SYSTEM.SOLV>
0

>  <SCORE.SYSTEM.norm>
0

>  <SCORE.heavy>
32

>  <SCORE.norm>
-0.126414

>  <RMSD>
8.748

$$$$
ligand
 OpenBabel11021811513D
libRbt.so/2013.1/901 2013/11/27
 32 34  0  0  0  0  0  0  0  0999 V2000
   18.2923  -20.6025  -19.0327 P   0  0  1  0  0  0  0  0  0  0  0  0
   20.4297  -18.6889  -19.0608 P   0  0  2  0  0  0  0  0  0  0  0  0
   21.2976  -17.4154  -21.5589 P   0  0  1  0  0  0  0  0  0  0  0  0
   19.0132  -23.0629  -19.4999 C   0  0  0  0  0  0  0  0  0  0  0  0
   19.3420  -21.8597  -18.8657 O   0  0  0  0  0  0  0  0  0  0  0  0
   19.9468  -24.0364  -19.1623 C   0  0  1  0  0  0  0  0  0  0  0  0
   19.9025  -24.2984  -17.6692 O   0  0  0  0  0  0  0  0  0  0  0  0
   19.6100  -25.4328  -19.8613 C   0  0  1  0  0  0  0  0  0  0  0  0
   20.7090  -25.7837  -20.8387 O   0  0  0  0  0  0  0  0  0  0  0  0
   19.6345  -26.2782  -18.9636 C   0  0  1  0  0  0  0  0  0  0  0  0
   20.9610  -26.9401  -18.9478 O   0  0  0  0  0  0  0  0  0  0  0  0
   19.3902  -25.4569  -17.5354 C   0  0  2  0  0  0  0  0  0  0  0  0
   15.2098  -27.7744  -15.6542 N   0  0  0  0  0  0  0  0  0  0  0  0
   17.9677  -20.3975  -20.4917 O   0  5  0  0  0  0  0  0  0  0  0  0
   21.4884  -19.7594  -18.9743 O   0  5  0  0  0  0  0  0  0  0  0  0
   22.6518  -18.0619  -21.3847 O   0  0  0  0  0  0  0  0  0  0  0  0
   16.4301  -28.2703  -15.7869 C   0  0  0  0  0  0  0  0  0  0  0  0
   16.6935  -29.6326  -15.3693 N   0  0  0  0  0  0  0  0  0  0  0  0
   17.0422  -20.9047  -18.2376 O   0  0  0  0  0  0  0  0  0  0  0  0
   20.8570  -17.4905  -18.2546 O   0  0  0  0  0  0  0  0  0  0  0  0
   20.8920  -17.4991  -23.0143 O   0  5  0  0  0  0  0  0  0  0  0  0
   17.4215  -27.5628  -16.2891 N   0  0  0  0  0  0  0  0  0  0  0  0
   19.0091  -19.2428  -18.4527 O   0  0  0  0  0  0  0  0  0  0  0  0
   20.2121  -18.2447  -20.6297 O   0  0  0  0  0  0  0  0  0  0  0  0
   21.3808  -15.9703  -21.1183 O   0  0  0  0  0  0  0  0  0  0  0  0
   17.2204  -26.3007  -16.6870 C   0  0  0  0  0  0  0  0  0  0  0  0
   15.9570  -25.7594  -16.5602 C   0  0  0  0  0  0  0  0  0  0  0  0
   14.9127  -26.5342  -16.0197 C   0  0  0  0  0  0  0  0  0  0  0  0
   13.6158  -26.0102  -15.8776 O   0  0  0  0  0  0  0  0  0  0  0  0
   16.0084  -24.4981  -17.0214 N   0  0  0  0  0  0  0  0  0  0  0  0
   17.2486  -24.2693  -17.4167 C   0  0  0  0  0  0  0  0  0  0  0  0
   17.9918  -25.3433  -17.2257 N   0  0  0  0  0  0  0  0  0  0  0  0
  1  5  1  1  0  0  0
  1 14  1  0  0  0  0
  1 19  2  0  0  0  0
  1 23  1  0  0  0  0
  2 15  1  1  0  0  0
  2 20  2  0  0  0  0
  2 23  1  0  0  0  0
  2 24  1  0  0  0  0
  3 16  1  1  0  0  0
  3 21  1  0  0  0  0
  3 24  1  0  0  0  0
  3 25  2  0  0  0  0
  4  5  1  0  0  0  0
  6  4  1  1  0  0  0
  6  7  1  0  0  0  0
  6  8  1  0  0  0  0
  7 12  1  0  0  0  0
  8  9  1  6  0  0  0
  8 10  1  0  0  0  0
 10 11  1  1  0  0  0
 10 12  1  0  0  0  0
 12 32  1  6  0  0  0
 13 17  2  0  0  0  0
 13 28  1  0  0  0  0
 17 18  1  0  0  0  0
 17 22  1  0  0  0  0
 22 26  2  0  0  0  0
 26 27  1  0  0  0  0
 26 32  1  0  0  0  0
 27 28  2  0  0  0  0
 27 30  1  0  0  0  0
 28 29  1  0  0  0  0
 30 31  2  0  0  0  0
 31 32  1  0  0  0  0
M  CHG  3  14  -1  15  -1  21  -1
M  END
>  <CHROM.1>
-50.74052194,-56.23247267,47.09327410,62.83542546,-175.10590707,-161.60873734
58.28845894,-69.18232665,18.93251190,-22.49062505,-18.71217517,1.10148323
0.56654626,-0.14973658

>  <Name>
ligand

>  <RI>
0

>  <Rbt.Current_Directory>
/home/itssahil/PROJECTS/Mol_Feturizer/New_Systems/rnas/4Y1I

>  <Rbt.Executable>
rbdock ($Id: //depot/dev/client3/rdock/2013.1/src/exe/rbdock.cxx#4 $)

>  <Rbt.Library>
libRbt.so (2013.1, Build901 2013/11/27)

>  <Rbt.Parameter_File>
/export/apps/rDock/src/rDock_2013.1_src/data/scripts/dock_solv.prm

>  <Rbt.Receptor>
prm/pocket_docking_7.prm

>  <SCORE>
-10.0645

>  <SCORE.INTER>
-3.37016

>  <SCORE.INTER.CONST>
1

>  <SCORE.INTER.POLAR>
0

>  <SCORE.INTER.ROT>
8

>  <SCORE.INTER.SOLV>
21.3113

>  <SCORE.INTER.VDW>
-18.2839

>  <SCORE.INTER.norm>
-0.105318

>  <SCORE.INTRA>
-6.69436

>  <SCORE.INTRA.DIHEDRAL>
-8.96126

>  <SCORE.INTRA.DIHEDRAL.0>
10.9594

>  <SCORE.INTRA.POLAR>
0

>  <SCORE.INTRA.POLAR.0>
0

>  <SCORE.INTRA.REPUL>
0

>  <SCORE.INTRA.REPUL.0>
0

>  <SCORE.INTRA.SOLV>
-4.8617

>  <SCORE.INTRA.SOLV.lig_0>
-124.914

>  <SCORE.INTRA.VDW>
0.217122

>  <SCORE.INTRA.VDW.0>
-4.69801

>  <SCORE.INTRA.norm>
-0.209199

>  <SCORE.RESTR>
0

>  <SCORE.RESTR.CAVITY>
0

>  <SCORE.RESTR.norm>
0

>  <SCORE.SYSTEM>
0

>  <SCORE.SYSTEM.CONST>
0

>  <SCORE.SYSTEM.DIHEDRAL>
0

>  <SCORE.SYSTEM.SOLV>
0

>  <SCORE.SYSTEM.norm>
0

>  <SCORE.heavy>
32

>  <SCORE.norm>
-0.314516

>  <RMSD>
8.923

$$$$
ligand
 OpenBabel11021811513D
libRbt.so/2013.1/901 2013/11/27
 32 34  0  0  0  0  0  0  0  0999 V2000
   21.2124  -23.2438  -21.1645 P   0  0  1  0  0  0  0  0  0  0  0  0
   23.9514  -22.3911  -21.1263 P   0  0  2  0  0  0  0  0  0  0  0  0
   25.1209  -21.1568  -18.7338 P   0  0  1  0  0  0  0  0  0  0  0  0
   19.4924  -21.8756  -19.7641 C   0  0  0  0  0  0  0  0  0  0  0  0
   19.8983  -23.1494  -20.1773 O   0  0  0  0  0  0  0  0  0  0  0  0
   18.3480  -21.9836  -18.9818 C   0  0  1  0  0  0  0  0  0  0  0  0
   17.8848  -20.6052  -18.5514 O   0  0  0  0  0  0  0  0  0  0  0  0
   17.1352  -22.6139  -19.8088 C   0  0  1  0  0  0  0  0  0  0  0  0
   16.7623  -23.9525  -19.2130 O   0  0  0  0  0  0  0  0  0  0  0  0
   16.1763  -21.8570  -19.6382 C   0  0  1  0  0  0  0  0  0  0  0  0
   15.3219  -22.3844  -18.5474 O   0  0  0  0  0  0  0  0  0  0  0  0
   16.8124  -20.3811  -19.2012 C   0  0  2  0  0  0  0  0  0  0  0  0
   15.0057  -16.9835  -22.6038 N   0  0  0  0  0  0  0  0  0  0  0  0
   21.5159  -24.6886  -21.4752 O   0  5  0  0  0  0  0  0  0  0  0  0
   23.9268  -21.1678  -22.0080 O   0  5  0  0  0  0  0  0  0  0  0  0
   23.8411  -21.3528  -17.9553 O   0  0  0  0  0  0  0  0  0  0  0  0
   14.3628  -17.5533  -21.5964 C   0  0  0  0  0  0  0  0  0  0  0  0
   12.9709  -17.2241  -21.3640 N   0  0  0  0  0  0  0  0  0  0  0  0
   20.9259  -22.4671  -22.4298 O   0  0  0  0  0  0  0  0  0  0  0  0
   24.2255  -23.6119  -21.9650 O   0  0  0  0  0  0  0  0  0  0  0  0
   26.3001  -21.4253  -17.8244 O   0  5  0  0  0  0  0  0  0  0  0  0
   14.9489  -18.4159  -20.7915 N   0  0  0  0  0  0  0  0  0  0  0  0
   22.5003  -22.5871  -20.3843 O   0  0  0  0  0  0  0  0  0  0  0  0
   25.1270  -22.2339  -19.9865 O   0  0  0  0  0  0  0  0  0  0  0  0
   25.1697  -19.7364  -19.2529 O   0  0  0  0  0  0  0  0  0  0  0  0
   16.2331  -18.7473  -20.9718 C   0  0  0  0  0  0  0  0  0  0  0  0
   16.9266  -18.1680  -22.0151 C   0  0  0  0  0  0  0  0  0  0  0  0
   16.2797  -17.2479  -22.8625 C   0  0  0  0  0  0  0  0  0  0  0  0
   16.9600  -16.6412  -23.9330 O   0  0  0  0  0  0  0  0  0  0  0  0
   18.1795  -18.6537  -21.9882 N   0  0  0  0  0  0  0  0  0  0  0  0
   18.2575  -19.4967  -20.9733 C   0  0  0  0  0  0  0  0  0  0  0  0
   17.0954  -19.5681  -20.3515 N   0  0  0  0  0  0  0  0  0  0  0  0
  1  5  1  1  0  0  0
  1 14  1  0  0  0  0
  1 19  2  0  0  0  0
  1 23  1  0  0  0  0
  2 15  1  6  0  0  0
  2 20  2  0  0  0  0
  2 23  1  0  0  0  0
  2 24  1  0  0  0  0
  3 16  1  1  0  0  0
  3 21  1  0  0  0  0
  3 24  1  0  0  0  0
  3 25  2  0  0  0  0
  4  5  1  0  0  0  0
  6  4  1  6  0  0  0
  6  7  1  0  0  0  0
  6  8  1  0  0  0  0
  7 12  1  0  0  0  0
  8  9  1  1  0  0  0
  8 10  1  0  0  0  0
 10 11  1  1  0  0  0
 10 12  1  0  0  0  0
 12 32  1  6  0  0  0
 13 17  2  0  0  0  0
 13 28  1  0  0  0  0
 17 18  1  0  0  0  0
 17 22  1  0  0  0  0
 22 26  2  0  0  0  0
 26 27  1  0  0  0  0
 26 32  1  0  0  0  0
 27 28  2  0  0  0  0
 27 30  1  0  0  0  0
 28 29  1  0  0  0  0
 30 31  2  0  0  0  0
 31 32  1  0  0  0  0
M  CHG  3  14  -1  15  -1  21  -1
M  END
>  <CHROM.1>
178.67322763,79.26435182,55.05908497,-178.90443213,177.86805145,-154.03239818
-174.43647859,68.13745247,19.93428507,-20.98995952,-20.50161234,0.38540920
-0.02332841,2.72538721

>  <Name>
ligand

>  <RI>
0

>  <Rbt.Current_Directory>
/home/itssahil/PROJECTS/Mol_Feturizer/New_Systems/rnas/4Y1I

>  <Rbt.Executable>
rbdock ($Id: //depot/dev/client3/rdock/2013.1/src/exe/rbdock.cxx#4 $)

>  <Rbt.Library>
libRbt.so (2013.1, Build901 2013/11/27)

>  <Rbt.Parameter_File>
/export/apps/rDock/src/rDock_2013.1_src/data/scripts/dock_solv.prm

>  <Rbt.Receptor>
prm/pocket_docking_8.prm

>  <SCORE>
-9.96981

>  <SCORE.INTER>
-4.18651

>  <SCORE.INTER.CONST>
1

>  <SCORE.INTER.POLAR>
0

>  <SCORE.INTER.ROT>
8

>  <SCORE.INTER.SOLV>
7.49591

>  <SCORE.INTER.VDW>
-14.223

>  <SCORE.INTER.norm>
-0.130828

>  <SCORE.INTRA>
-5.7833

>  <SCORE.INTRA.DIHEDRAL>
-8.92595

>  <SCORE.INTRA.DIHEDRAL.0>
10.9594

>  <SCORE.INTRA.POLAR>
0

>  <SCORE.INTRA.POLAR.0>
0

>  <SCORE.INTRA.REPUL>
0

>  <SCORE.INTRA.REPUL.0>
0

>  <SCORE.INTRA.SOLV>
-4.31639

>  <SCORE.INTRA.SOLV.lig_0>
-124.914

>  <SCORE.INTRA.VDW>
0.837876

>  <SCORE.INTRA.VDW.0>
-4.69801

>  <SCORE.INTRA.norm>
-0.180728

>  <SCORE.RESTR>
0

>  <SCORE.RESTR.CAVITY>
0

>  <SCORE.RESTR.norm>
0

>  <SCORE.SYSTEM>
0

>  <SCORE.SYSTEM.CONST>
0

>  <SCORE.SYSTEM.DIHEDRAL>
0

>  <SCORE.SYSTEM.SOLV>
0

>  <SCORE.SYSTEM.norm>
0

>  <SCORE.heavy>
32

>  <SCORE.norm>
-0.311557

>  <RMSD>
9.138

$$$$
ligand
 OpenBabel11021811513D
libRbt.so/2013.1/901 2013/11/27
 32 34  0  0  0  0  0  0  0  0999 V2000
   16.2766  -28.8989  -14.1297 P   0  0  1  0  0  0  0  0  0  0  0  0
   16.1366  -26.4542  -12.6347 P   0  0  2  0  0  0  0  0  0  0  0  0
   17.6498  -26.1498  -10.1381 P   0  0  1  0  0  0  0  0  0  0  0  0
   14.0161  -29.7009  -13.1107 C   0  0  0  0  0  0  0  0  0  0  0  0
   15.3647  -30.0074  -13.3235 O   0  0  0  0  0  0  0  0  0  0  0  0
   13.4708  -30.6062  -12.2072 C   0  0  1  0  0  0  0  0  0  0  0  0
   12.0719  -30.1683  -11.8181 O   0  0  0  0  0  0  0  0  0  0  0  0
   13.3094  -32.0549  -12.8608 C   0  0  1  0  0  0  0  0  0  0  0  0
   14.2145  -33.0327  -12.1459 O   0  0  0  0  0  0  0  0  0  0  0  0
   12.1469  -32.4019  -12.6383 C   0  0  1  0  0  0  0  0  0  0  0  0
   12.1134  -33.2640  -11.4327 O   0  0  0  0  0  0  0  0  0  0  0  0
   11.2821  -31.0051  -12.3644 C   0  0  2  0  0  0  0  0  0  0  0  0
    9.8680  -26.7816  -14.9232 N   0  0  0  0  0  0  0  0  0  0  0  0
   17.4082  -29.5921  -14.8474 O   0  5  0  0  0  0  0  0  0  0  0  0
   14.8028  -26.7591  -12.0003 O   0  5  0  0  0  0  0  0  0  0  0  0
   17.6590  -27.6599  -10.1819 O   0  0  0  0  0  0  0  0  0  0  0  0
   10.3432  -26.8707  -13.6907 C   0  0  0  0  0  0  0  0  0  0  0  0
   10.5127  -25.6650  -12.9050 N   0  0  0  0  0  0  0  0  0  0  0  0
   15.3903  -28.1583  -15.1055 O   0  0  0  0  0  0  0  0  0  0  0  0
   15.9259  -25.6480  -13.8894 O   0  0  0  0  0  0  0  0  0  0  0  0
   19.0634  -25.6515   -9.9311 O   0  5  0  0  0  0  0  0  0  0  0  0
   10.6701  -28.0264  -13.1494 N   0  0  0  0  0  0  0  0  0  0  0  0
   16.9071  -27.8468  -13.0369 O   0  0  0  0  0  0  0  0  0  0  0  0
   17.0717  -25.6002  -11.5849 O   0  0  0  0  0  0  0  0  0  0  0  0
   16.7600  -25.6949   -9.0020 O   0  0  0  0  0  0  0  0  0  0  0  0
   10.5286  -29.1635  -13.8411 C   0  0  0  0  0  0  0  0  0  0  0  0
   10.0347  -29.0988  -15.1283 C   0  0  0  0  0  0  0  0  0  0  0  0
    9.6927  -27.8522  -15.6868 C   0  0  0  0  0  0  0  0  0  0  0  0
    9.1878  -27.7545  -16.9954 O   0  0  0  0  0  0  0  0  0  0  0  0
    9.9863  -30.3536  -15.6074 N   0  0  0  0  0  0  0  0  0  0  0  0
   10.4302  -31.1591  -14.6582 C   0  0  0  0  0  0  0  0  0  0  0  0
   10.7587  -30.4613  -13.5870 N   0  0  0  0  0  0  0  0  0  0  0  0
  1  5  1  1  0  0  0
  1 14  1  0  0  0  0
  1 19  2  0  0  0  0
  1 23  1  0  0  0  0
  2 15  1  1  0  0  0
  2 20  2  0  0  0  0
  2 23  1  0  0  0  0
  2 24  1  0  0  0  0
  3 16  1  6  0  0  0
  3 21  1  0  0  0  0
  3 24  1  0  0  0  0
  3 25  2  0  0  0  0
  4  5  1  0  0  0  0
  6  4  1  6  0  0  0
  6  7  1  0  0  0  0
  6  8  1  0  0  0  0
  7 12  1  0  0  0  0
  8  9  1  1  0  0  0
  8 10  1  0  0  0  0
 10 11  1  1  0  0  0
 10 12  1  0  0  0  0
 12 32  1  6  0  0  0
 13 17  2  0  0  0  0
 13 28  1  0  0  0  0
 17 18  1  0  0  0  0
 17 22  1  0  0  0  0
 22 26  2  0  0  0  0
 26 27  1  0  0  0  0
 26 32  1  0  0  0  0
 27 28  2  0  0  0  0
 27 30  1  0  0  0  0
 28 29  1  0  0  0  0
 30 31  2  0  0  0  0
 31 32  1  0  0  0  0
M  CHG  3  14  -1  15  -1  21  -1
M  END
>  <CHROM.1>
-152.36250314,62.24514110,22.02597568,171.95838918,-168.56333439,-31.18748643
-91.69692684,64.81149278,13.95865758,-28.53572418,-12.94694662,-0.34800235
0.46298783,3.00505907

>  <Name>
ligand

>  <RI>
0

>  <Rbt.Current_Directory>
/home/itssahil/PROJECTS/Mol_Feturizer/New_Systems/rnas/4Y1I

>  <Rbt.Executable>
rbdock ($Id: //depot/dev/client3/rdock/2013.1/src/exe/rbdock.cxx#4 $)

>  <Rbt.Library>
libRbt.so (2013.1, Build901 2013/11/27)

>  <Rbt.Parameter_File>
/export/apps/rDock/src/rDock_2013.1_src/data/scripts/dock_solv.prm

>  <Rbt.Receptor>
prm/pocket_docking_8.prm

>  <SCORE>
-5.46821

>  <SCORE.INTER>
-1.2384

>  <SCORE.INTER.CONST>
1

>  <SCORE.INTER.POLAR>
0

>  <SCORE.INTER.ROT>
8

>  <SCORE.INTER.SOLV>
12.1189

>  <SCORE.INTER.VDW>
-13.7986

>  <SCORE.INTER.norm>
-0.0386999

>  <SCORE.INTRA>
-4.22981

>  <SCORE.INTRA.DIHEDRAL>
-4.7065

>  <SCORE.INTRA.DIHEDRAL.0>
10.9594

>  <SCORE.INTRA.POLAR>
0

>  <SCORE.INTRA.POLAR.0>
0

>  <SCORE.INTRA.REPUL>
0

>  <SCORE.INTRA.REPUL.0>
0

>  <SCORE.INTRA.SOLV>
-4.15948

>  <SCORE.INTRA.SOLV.lig_0>
-124.914

>  <SCORE.INTRA.VDW>
0.203181

>  <SCORE.INTRA.VDW.0>
-4.69801

>  <SCORE.INTRA.norm>
-0.132182

>  <SCORE.RESTR>
0

>  <SCORE.RESTR.CAVITY>
0

>  <SCORE.RESTR.norm>
0

>  <SCORE.SYSTEM>
0

>  <SCORE.SYSTEM.CONST>
0

>  <SCORE.SYSTEM.DIHEDRAL>
0

>  <SCORE.SYSTEM.SOLV>
0

>  <SCORE.SYSTEM.norm>
0

>  <SCORE.heavy>
32

>  <SCORE.norm>
-0.170882

>  <RMSD>
9.221

$$$$
ligand
 OpenBabel11021811513D
libRbt.so/2013.1/901 2013/11/27
 32 34  0  0  0  0  0  0  0  0999 V2000
   13.2304  -30.4176  -12.6223 P   0  0  1  0  0  0  0  0  0  0  0  0
   11.1085  -32.1972  -11.8729 P   0  0  2  0  0  0  0  0  0  0  0  0
    8.2996  -33.0384  -12.0046 P   0  0  1  0  0  0  0  0  0  0  0  0
   12.7544  -27.8864  -13.0196 C   0  0  0  0  0  0  0  0  0  0  0  0
   13.6069  -28.8265  -12.4303 O   0  0  0  0  0  0  0  0  0  0  0  0
   13.1555  -26.6049  -12.6589 C   0  0  1  0  0  0  0  0  0  0  0  0
   12.2187  -25.5798  -13.2686 O   0  0  0  0  0  0  0  0  0  0  0  0
   13.0680  -26.3912  -11.0781 C   0  0  1  0  0  0  0  0  0  0  0  0
   14.4573  -26.1727  -10.5227 O   0  0  0  0  0  0  0  0  0  0  0  0
   12.4375  -25.3446  -10.9098 C   0  0  1  0  0  0  0  0  0  0  0  0
   13.3882  -24.2241  -10.7136 O   0  0  0  0  0  0  0  0  0  0  0  0
   11.5483  -25.1014  -12.2969 C   0  0  2  0  0  0  0  0  0  0  0  0
    8.0188  -27.9374  -14.7228 N   0  0  0  0  0  0  0  0  0  0  0  0
   13.0295  -30.7226  -14.0861 O   0  5  0  0  0  0  0  0  0  0  0  0
   11.7645  -33.1364  -10.8921 O   0  5  0  0  0  0  0  0  0  0  0  0
    8.3528  -33.1250  -13.5119 O   0  0  0  0  0  0  0  0  0  0  0  0
    9.1818  -27.5070  -15.1861 C   0  0  0  0  0  0  0  0  0  0  0  0
    9.5750  -27.8398  -16.5405 N   0  0  0  0  0  0  0  0  0  0  0  0
   14.3491  -31.2545  -12.0440 O   0  0  0  0  0  0  0  0  0  0  0  0
   11.2499  -32.7458  -13.2685 O   0  0  0  0  0  0  0  0  0  0  0  0
    8.5089  -34.4188  -11.4212 O   0  5  0  0  0  0  0  0  0  0  0  0
   10.0009  -26.7809  -14.4530 N   0  0  0  0  0  0  0  0  0  0  0  0
   11.8302  -30.7237  -11.8197 O   0  0  0  0  0  0  0  0  0  0  0  0
    9.5131  -32.0336  -11.5072 O   0  0  0  0  0  0  0  0  0  0  0  0
    6.9515  -32.4908  -11.5895 O   0  0  0  0  0  0  0  0  0  0  0  0
    9.6755  -26.4513  -13.1972 C   0  0  0  0  0  0  0  0  0  0  0  0
    8.4682  -26.8869  -12.6896 C   0  0  0  0  0  0  0  0  0  0  0  0
    7.6089  -27.6627  -13.4913 C   0  0  0  0  0  0  0  0  0  0  0  0
    6.3731  -28.1213  -13.0019 O   0  0  0  0  0  0  0  0  0  0  0  0
    8.3719  -26.4340  -11.4279 N   0  0  0  0  0  0  0  0  0  0  0  0
    9.4709  -25.7480  -11.1666 C   0  0  0  0  0  0  0  0  0  0  0  0
   10.2660  -25.7451  -12.2202 N   0  0  0  0  0  0  0  0  0  0  0  0
  1  5  1  1  0  0  0
  1 14  1  0  0  0  0
  1 19  2  0  0  0  0
  1 23  1  0  0  0  0
  2 15  1  1  0  0  0
  2 20  2  0  0  0  0
  2 23  1  0  0  0  0
  2 24  1  0  0  0  0
  3 16  1  6  0  0  0
  3 21  1  0  0  0  0
  3 24  1  0  0  0  0
  3 25  2  0  0  0  0
  4  5  1  0  0  0  0
  6  4  1  1  0  0  0
  6  7  1  0  0  0  0
  6  8  1  0  0  0  0
  7 12  1  0  0  0  0
  8  9  1  6  0  0  0
  8 10  1  0  0  0  0
 10 11  1  6  0  0  0
 10 12  1  0  0  0  0
 12 32  1  1  0  0  0
 13 17  2  0  0  0  0
 13 28  1  0  0  0  0
 17 18  1  0  0  0  0
 17 22  1  0  0  0  0
 22 26  2  0  0  0  0
 26 27  1  0  0  0  0
 26 32  1  0  0  0  0
 27 28  2  0  0  0  0
 27 30  1  0  0  0  0
 28 29  1  0  0  0  0
 30 31  2  0  0  0  0
 31 32  1  0  0  0  0
M  CHG  3  14  -1  15  -1  21  -1
M  END
>  <CHROM.1>
52.33421019,81.39209194,-54.97625300,-178.77129387,174.79284899,-17.75050439
176.23589708,-85.34164649,10.74604540,-29.18965594,-12.48579353,-1.92015777
-0.22961361,-0.08542551

>  <Name>
ligand

>  <RI>
0

>  <Rbt.Current_Directory>
/home/itssahil/PROJECTS/Mol_Feturizer/New_Systems/rnas/4Y1I

>  <Rbt.Executable>
rbdock ($Id: //depot/dev/client3/rdock/2013.1/src/exe/rbdock.cxx#4 $)

>  <Rbt.Library>
libRbt.so (2013.1, Build901 2013/11/27)

>  <Rbt.Parameter_File>
/export/apps/rDock/src/rDock_2013.1_src/data/scripts/dock_solv.prm

>  <Rbt.Receptor>
prm/pocket_docking_8.prm

>  <SCORE>
-10.4711

>  <SCORE.INTER>
-5.45416

>  <SCORE.INTER.CONST>
1

>  <SCORE.INTER.POLAR>
0

>  <SCORE.INTER.ROT>
8

>  <SCORE.INTER.SOLV>
12.8826

>  <SCORE.INTER.VDW>
-16.8636

>  <SCORE.INTER.norm>
-0.170442

>  <SCORE.INTRA>
-5.01693

>  <SCORE.INTRA.DIHEDRAL>
-7.8235

>  <SCORE.INTRA.DIHEDRAL.0>
10.9594

>  <SCORE.INTRA.POLAR>
0

>  <SCORE.INTRA.POLAR.0>
0

>  <SCORE.INTRA.REPUL>
0

>  <SCORE.INTRA.REPUL.0>
0

>  <SCORE.INTRA.SOLV>
-3.0779

>  <SCORE.INTRA.SOLV.lig_0>
-124.914

>  <SCORE.INTRA.VDW>
0.433763

>  <SCORE.INTRA.VDW.0>
-4.69801

>  <SCORE.INTRA.norm>
-0.156779

>  <SCORE.RESTR>
0

>  <SCORE.RESTR.CAVITY>
0

>  <SCORE.RESTR.norm>
0

>  <SCORE.SYSTEM>
0

>  <SCORE.SYSTEM.CONST>
0

>  <SCORE.SYSTEM.DIHEDRAL>
0

>  <SCORE.SYSTEM.SOLV>
0

>  <SCORE.SYSTEM.norm>
0

>  <SCORE.heavy>
32

>  <SCORE.norm>
-0.327222

>  <RMSD>
9.279

$$$$
ligand
 OpenBabel11021811513D
libRbt.so/2013.1/901 2013/11/27
 32 34  0  0  0  0  0  0  0  0999 V2000
   21.1317  -21.3099  -19.7125 P   0  0  1  0  0  0  0  0  0  0  0  0
   21.2063  -18.5830  -18.8240 P   0  0  2  0  0  0  0  0  0  0  0  0
   21.2408  -16.3434  -16.9270 P   0  0  1  0  0  0  0  0  0  0  0  0
   18.7319  -22.3260  -19.7056 C   0  0  0  0  0  0  0  0  0  0  0  0
   19.7107  -21.6609  -18.9589 O   0  0  0  0  0  0  0  0  0  0  0  0
   17.6094  -22.5407  -18.9136 C   0  0  1  0  0  0  0  0  0  0  0  0
   17.1475  -21.2300  -18.3065 O   0  0  0  0  0  0  0  0  0  0  0  0
   16.3799  -23.0783  -19.7805 C   0  0  1  0  0  0  0  0  0  0  0  0
   16.0328  -24.4835  -19.3433 O   0  0  0  0  0  0  0  0  0  0  0  0
   15.4203  -22.3581  -19.4945 C   0  0  1  0  0  0  0  0  0  0  0  0
   14.5989  -23.0235  -18.4550 O   0  0  0  0  0  0  0  0  0  0  0  0
   16.0566  -20.9398  -18.8967 C   0  0  2  0  0  0  0  0  0  0  0  0
   14.0830  -17.3120  -21.9511 N   0  0  0  0  0  0  0  0  0  0  0  0
   22.0346  -22.5183  -19.6902 O   0  5  0  0  0  0  0  0  0  0  0  0
   19.7058  -18.6632  -18.9520 O   0  5  0  0  0  0  0  0  0  0  0  0
   19.7478  -16.1571  -17.0636 O   0  0  0  0  0  0  0  0  0  0  0  0
   13.4636  -18.0279  -21.0256 C   0  0  0  0  0  0  0  0  0  0  0  0
   12.0500  -17.8149  -20.7895 N   0  0  0  0  0  0  0  0  0  0  0  0
   20.8356  -20.8821  -21.1323 O   0  0  0  0  0  0  0  0  0  0  0  0
   21.7658  -17.7602  -19.9547 O   0  0  0  0  0  0  0  0  0  0  0  0
   21.6359  -16.1358  -15.4812 O   0  5  0  0  0  0  0  0  0  0  0  0
   14.0928  -18.9344  -20.3059 N   0  0  0  0  0  0  0  0  0  0  0  0
   21.8651  -20.0846  -18.9004 O   0  0  0  0  0  0  0  0  0  0  0  0
   21.6075  -17.8867  -17.3886 O   0  0  0  0  0  0  0  0  0  0  0  0
   21.9459  -15.3408  -17.8142 O   0  0  0  0  0  0  0  0  0  0  0  0
   15.3984  -19.1622  -20.4927 C   0  0  0  0  0  0  0  0  0  0  0  0
   16.0681  -18.4297  -21.4519 C   0  0  0  0  0  0  0  0  0  0  0  0
   15.3753  -17.4653  -22.2088 C   0  0  0  0  0  0  0  0  0  0  0  0
   16.0304  -16.7035  -23.1923 O   0  0  0  0  0  0  0  0  0  0  0  0
   17.3495  -18.8352  -21.4501 N   0  0  0  0  0  0  0  0  0  0  0  0
   17.4672  -19.7774  -20.5308 C   0  0  0  0  0  0  0  0  0  0  0  0
   16.3031  -19.9896  -19.9460 N   0  0  0  0  0  0  0  0  0  0  0  0
  1  5  1  1  0  0  0
  1 14  1  0  0  0  0
  1 19  2  0  0  0  0
  1 23  1  0  0  0  0
  2 15  1  6  0  0  0
  2 20  2  0  0  0  0
  2 23  1  0  0  0  0
  2 24  1  0  0  0  0
  3 16  1  6  0  0  0
  3 21  1  0  0  0  0
  3 24  1  0  0  0  0
  3 25  2  0  0  0  0
  4  5  1  0  0  0  0
  6  4  1  6  0  0  0
  6  7  1  0  0  0  0
  6  8  1  0  0  0  0
  7 12  1  0  0  0  0
  8  9  1  1  0  0  0
  8 10  1  0  0  0  0
 10 11  1  1  0  0  0
 10 12  1  0  0  0  0
 12 32  1  6  0  0  0
 13 17  2  0  0  0  0
 13 28  1  0  0  0  0
 17 18  1  0  0  0  0
 17 22  1  0  0  0  0
 22 26  2  0  0  0  0
 26 27  1  0  0  0  0
 26 32  1  0  0  0  0
 27 28  2  0  0  0  0
 27 30  1  0  0  0  0
 28 29  1  0  0  0  0
 30 31  2  0  0  0  0
 31 32  1  0  0  0  0
M  CHG  3  14  -1  15  -1  21  -1
M  END
>  <CHROM.1>
-82.40177713,27.39084218,54.42625913,53.66041738,179.87627495,-158.16999417
-65.05626549,-63.03251070,18.41285339,-19.46843777,-19.41991716,-0.31340831
0.35926430,-3.12555804

>  <Name>
ligand

>  <RI>
0

>  <Rbt.Current_Directory>
/home/itssahil/PROJECTS/Mol_Feturizer/New_Systems/rnas/4Y1I

>  <Rbt.Executable>
rbdock ($Id: //depot/dev/client3/rdock/2013.1/src/exe/rbdock.cxx#4 $)

>  <Rbt.Library>
libRbt.so (2013.1, Build901 2013/11/27)

>  <Rbt.Parameter_File>
/export/apps/rDock/src/rDock_2013.1_src/data/scripts/dock_solv.prm

>  <Rbt.Receptor>
prm/pocket_docking_8.prm

>  <SCORE>
-14.1723

>  <SCORE.INTER>
-9.5274

>  <SCORE.INTER.CONST>
1

>  <SCORE.INTER.POLAR>
0

>  <SCORE.INTER.ROT>
8

>  <SCORE.INTER.SOLV>
17.3276

>  <SCORE.INTER.VDW>
-21.0608

>  <SCORE.INTER.norm>
-0.297731

>  <SCORE.INTRA>
-4.64493

>  <SCORE.INTRA.DIHEDRAL>
-7.4387

>  <SCORE.INTRA.DIHEDRAL.0>
10.9594

>  <SCORE.INTRA.POLAR>
0

>  <SCORE.INTRA.POLAR.0>
0

>  <SCORE.INTRA.REPUL>
0.0665387

>  <SCORE.INTRA.REPUL.0>
0

>  <SCORE.INTRA.SOLV>
-2.50702

>  <SCORE.INTRA.SOLV.lig_0>
-124.914

>  <SCORE.INTRA.VDW>
-0.00476756

>  <SCORE.INTRA.VDW.0>
-4.69801

>  <SCORE.INTRA.norm>
-0.145154

>  <SCORE.RESTR>
0

>  <SCORE.RESTR.CAVITY>
0

>  <SCORE.RESTR.norm>
0

>  <SCORE.SYSTEM>
0

>  <SCORE.SYSTEM.CONST>
0

>  <SCORE.SYSTEM.DIHEDRAL>
0

>  <SCORE.SYSTEM.SOLV>
0

>  <SCORE.SYSTEM.norm>
0

>  <SCORE.heavy>
32

>  <SCORE.norm>
-0.442885

>  <RMSD>
9.374

$$$$
ligand
 OpenBabel11021811513D
libRbt.so/2013.1/901 2013/11/27
 32 34  0  0  0  0  0  0  0  0999 V2000
   17.0504  -17.6340  -22.9127 P   0  0  1  0  0  0  0  0  0  0  0  0
   14.3684  -17.0484  -22.0791 P   0  0  2  0  0  0  0  0  0  0  0  0
   11.9987  -16.1557  -20.5949 P   0  0  1  0  0  0  0  0  0  0  0  0
   17.1541  -19.5660  -21.1668 C   0  0  0  0  0  0  0  0  0  0  0  0
   16.9667  -19.2285  -22.5117 O   0  0  0  0  0  0  0  0  0  0  0  0
   18.4549  -19.2551  -20.7866 C   0  0  1  0  0  0  0  0  0  0  0  0
   18.5956  -19.3752  -19.2814 O   0  0  0  0  0  0  0  0  0  0  0  0
   19.5048  -20.2868  -21.4075 C   0  0  1  0  0  0  0  0  0  0  0  0
   20.4115  -19.5602  -22.3750 O   0  0  0  0  0  0  0  0  0  0  0  0
   20.2045  -20.6691  -20.4664 C   0  0  1  0  0  0  0  0  0  0  0  0
   21.4543  -19.8726  -20.4278 O   0  0  0  0  0  0  0  0  0  0  0  0
   19.3175  -20.4055  -19.0816 C   0  0  2  0  0  0  0  0  0  0  0  0
   19.0676  -25.4886  -18.3850 N   0  0  0  0  0  0  0  0  0  0  0  0
   18.4420  -17.1132  -22.6511 O   0  5  0  0  0  0  0  0  0  0  0  0
   14.0401  -18.4948  -21.8062 O   0  5  0  0  0  0  0  0  0  0  0  0
   11.7325  -17.4960  -19.9506 O   0  0  0  0  0  0  0  0  0  0  0  0
   20.1246  -24.7574  -18.7025 C   0  0  0  0  0  0  0  0  0  0  0  0
   21.4065  -25.4056  -18.8931 N   0  0  0  0  0  0  0  0  0  0  0  0
   16.6803  -17.4798  -24.3706 O   0  0  0  0  0  0  0  0  0  0  0  0
   13.9207  -16.6834  -23.4702 O   0  0  0  0  0  0  0  0  0  0  0  0
   11.6665  -15.0571  -19.6088 O   0  5  0  0  0  0  0  0  0  0  0  0
   20.0513  -23.4506  -18.8524 N   0  0  0  0  0  0  0  0  0  0  0  0
   15.9881  -16.8030  -21.9748 O   0  0  0  0  0  0  0  0  0  0  0  0
   13.6022  -16.0865  -20.9866 O   0  0  0  0  0  0  0  0  0  0  0  0
   11.1417  -16.0261  -21.8352 O   0  0  0  0  0  0  0  0  0  0  0  0
   18.8862  -22.8132  -18.6855 C   0  0  0  0  0  0  0  0  0  0  0  0
   17.7683  -23.5520  -18.3545 C   0  0  0  0  0  0  0  0  0  0  0  0
   17.8706  -24.9478  -18.1987 C   0  0  0  0  0  0  0  0  0  0  0  0
   16.7497  -25.7268  -17.8615 O   0  0  0  0  0  0  0  0  0  0  0  0
   16.7365  -22.6981  -18.2431 N   0  0  0  0  0  0  0  0  0  0  0  0
   17.1957  -21.4845  -18.4946 C   0  0  0  0  0  0  0  0  0  0  0  0
   18.4866  -21.5342  -18.7655 N   0  0  0  0  0  0  0  0  0  0  0  0
  1  5  1  1  0  0  0
  1 14  1  0  0  0  0
  1 19  2  0  0  0  0
  1 23  1  0  0  0  0
  2 15  1  1  0  0  0
  2 20  2  0  0  0  0
  2 23  1  0  0  0  0
  2 24  1  0  0  0  0
  3 16  1  1  0  0  0
  3 21  1  0  0  0  0
  3 24  1  0  0  0  0
  3 25  2  0  0  0  0
  4  5  1  0  0  0  0
  6  4  1  1  0  0  0
  6  7  1  0  0  0  0
  6  8  1  0  0  0  0
  7 12  1  0  0  0  0
  8  9  1  6  0  0  0
  8 10  1  0  0  0  0
 10 11  1  1  0  0  0
 10 12  1  0  0  0  0
 12 32  1  6  0  0  0
 13 17  2  0  0  0  0
 13 28  1  0  0  0  0
 17 18  1  0  0  0  0
 17 22  1  0  0  0  0
 22 26  2  0  0  0  0
 26 27  1  0  0  0  0
 26 32  1  0  0  0  0
 27 28  2  0  0  0  0
 27 30  1  0  0  0  0
 28 29  1  0  0  0  0
 30 31  2  0  0  0  0
 31 32  1  0  0  0  0
M  CHG  3  14  -1  15  -1  21  -1
M  END
>  <CHROM.1>
64.21497336,57.92878813,64.30563222,169.64451394,-65.14428897,169.79165019
-64.51512796,-49.75838578,16.72283996,-19.58932953,-20.64491676,-2.28841974
-0.31212648,2.51237120

>  <Name>
ligand

>  <RI>
0

>  <Rbt.Current_Directory>
/home/itssahil/PROJECTS/Mol_Feturizer/New_Systems/rnas/4Y1I

>  <Rbt.Executable>
rbdock ($Id: //depot/dev/client3/rdock/2013.1/src/exe/rbdock.cxx#4 $)

>  <Rbt.Library>
libRbt.so (2013.1, Build901 2013/11/27)

>  <Rbt.Parameter_File>
/export/apps/rDock/src/rDock_2013.1_src/data/scripts/dock_solv.prm

>  <Rbt.Receptor>
prm/pocket_docking_8.prm

>  <SCORE>
-14.3001

>  <SCORE.INTER>
-9.83559

>  <SCORE.INTER.CONST>
1

>  <SCORE.INTER.POLAR>
0

>  <SCORE.INTER.ROT>
8

>  <SCORE.INTER.SOLV>
15.8202

>  <SCORE.INTER.VDW>
-20.7638

>  <SCORE.INTER.norm>
-0.307362

>  <SCORE.INTRA>
-4.46454

>  <SCORE.INTRA.DIHEDRAL>
-8.97241

>  <SCORE.INTRA.DIHEDRAL.0>
10.9594

>  <SCORE.INTRA.POLAR>
0

>  <SCORE.INTRA.POLAR.0>
0

>  <SCORE.INTRA.REPUL>
0

>  <SCORE.INTRA.REPUL.0>
0

>  <SCORE.INTRA.SOLV>
-0.542601

>  <SCORE.INTRA.SOLV.lig_0>
-124.914

>  <SCORE.INTRA.VDW>
0.292969

>  <SCORE.INTRA.VDW.0>
-4.69801

>  <SCORE.INTRA.norm>
-0.139517

>  <SCORE.RESTR>
0

>  <SCORE.RESTR.CAVITY>
0

>  <SCORE.RESTR.norm>
0

>  <SCORE.SYSTEM>
0

>  <SCORE.SYSTEM.CONST>
0

>  <SCORE.SYSTEM.DIHEDRAL>
0

>  <SCORE.SYSTEM.SOLV>
0

>  <SCORE.SYSTEM.norm>
0

>  <SCORE.heavy>
32

>  <SCORE.norm>
-0.446879

>  <RMSD>
9.412

$$$$
ligand
 OpenBabel11021811513D
libRbt.so/2013.1/901 2013/11/27
 32 34  0  0  0  0  0  0  0  0999 V2000
   15.8941  -17.6907  -22.8927 P   0  0  1  0  0  0  0  0  0  0  0  0
   13.4399  -16.9391  -21.6110 P   0  0  2  0  0  0  0  0  0  0  0  0
   11.5985  -15.9805  -19.5359 P   0  0  1  0  0  0  0  0  0  0  0  0
   17.6183  -18.8646  -21.3305 C   0  0  0  0  0  0  0  0  0  0  0  0
   17.4398  -18.0433  -22.4492 O   0  0  0  0  0  0  0  0  0  0  0  0
   18.9762  -18.9926  -21.0599 C   0  0  1  0  0  0  0  0  0  0  0  0
   19.1980  -19.0827  -19.5624 O   0  0  0  0  0  0  0  0  0  0  0  0
   19.5664  -20.3453  -21.6713 C   0  0  1  0  0  0  0  0  0  0  0  0
   20.5761  -20.0126  -22.7464 O   0  0  0  0  0  0  0  0  0  0  0  0
   20.1776  -20.8966  -20.7527 C   0  0  1  0  0  0  0  0  0  0  0  0
   21.6193  -20.5666  -20.8540 O   0  0  0  0  0  0  0  0  0  0  0  0
   19.5511  -20.2854  -19.3358 C   0  0  2  0  0  0  0  0  0  0  0  0
   17.7105  -24.9415  -18.1877 N   0  0  0  0  0  0  0  0  0  0  0  0
   15.8879  -16.5084  -23.8298 O   0  5  0  0  0  0  0  0  0  0  0  0
   12.7104  -17.9420  -22.4691 O   0  5  0  0  0  0  0  0  0  0  0  0
   12.1518  -14.5850  -19.3663 O   0  0  0  0  0  0  0  0  0  0  0  0
   18.9222  -24.6237  -18.6159 C   0  0  0  0  0  0  0  0  0  0  0  0
   19.9059  -25.6702  -18.8079 N   0  0  0  0  0  0  0  0  0  0  0  0
   15.2890  -18.9083  -23.5541 O   0  0  0  0  0  0  0  0  0  0  0  0
   13.2899  -15.5631  -22.2051 O   0  0  0  0  0  0  0  0  0  0  0  0
   10.4739  -15.9481  -20.5477 O   0  5  0  0  0  0  0  0  0  0  0  0
   19.2678  -23.3792  -18.8757 N   0  0  0  0  0  0  0  0  0  0  0  0
   15.0391  -17.3034  -21.5445 O   0  0  0  0  0  0  0  0  0  0  0  0
   12.8171  -16.9496  -20.0885 O   0  0  0  0  0  0  0  0  0  0  0  0
   11.0897  -16.4750  -18.1995 O   0  0  0  0  0  0  0  0  0  0  0  0
   18.3890  -22.3830  -18.7117 C   0  0  0  0  0  0  0  0  0  0  0  0
   17.1183  -22.6870  -18.2667 C   0  0  0  0  0  0  0  0  0  0  0  0
   16.7715  -24.0244  -17.9946 C   0  0  0  0  0  0  0  0  0  0  0  0
   15.4854  -24.3649  -17.5396 O   0  0  0  0  0  0  0  0  0  0  0  0
   16.4317  -21.5347  -18.1830 N   0  0  0  0  0  0  0  0  0  0  0  0
   17.2416  -20.5608  -18.5602 C   0  0  0  0  0  0  0  0  0  0  0  0
   18.4230  -21.0523  -18.8846 N   0  0  0  0  0  0  0  0  0  0  0  0
  1  5  1  1  0  0  0
  1 14  1  0  0  0  0
  1 19  2  0  0  0  0
  1 23  1  0  0  0  0
  2 15  1  6  0  0  0
  2 20  2  0  0  0  0
  2 23  1  0  0  0  0
  2 24  1  0  0  0  0
  3 16  1  1  0  0  0
  3 21  1  0  0  0  0
  3 24  1  0  0  0  0
  3 25  2  0  0  0  0
  4  5  1  0  0  0  0
  6  4  1  1  0  0  0
  6  7  1  0  0  0  0
  6  8  1  0  0  0  0
  7 12  1  0  0  0  0
  8  9  1  6  0  0  0
  8 10  1  0  0  0  0
 10 11  1  6  0  0  0
 10 12  1  0  0  0  0
 12 32  1  6  0  0  0
 13 17  2  0  0  0  0
 13 28  1  0  0  0  0
 17 18  1  0  0  0  0
 17 22  1  0  0  0  0
 22 26  2  0  0  0  0
 26 27  1  0  0  0  0
 26 32  1  0  0  0  0
 27 28  2  0  0  0  0
 27 30  1  0  0  0  0
 28 29  1  0  0  0  0
 30 31  2  0  0  0  0
 31 32  1  0  0  0  0
M  CHG  3  14  -1  15  -1  21  -1
M  END
>  <CHROM.1>
163.58641800,45.96545187,-73.30114556,145.37151360,-176.65548982,171.25827983
-178.11387298,-91.88879045,16.15689489,-19.33691828,-20.44160746,-2.43455434
-0.42587527,2.44479891

>  <Name>
ligand

>  <RI>
0

>  <Rbt.Current_Directory>
/home/itssahil/PROJECTS/Mol_Feturizer/New_Systems/rnas/4Y1I

>  <Rbt.Executable>
rbdock ($Id: //depot/dev/client3/rdock/2013.1/src/exe/rbdock.cxx#4 $)

>  <Rbt.Library>
libRbt.so (2013.1, Build901 2013/11/27)

>  <Rbt.Parameter_File>
/export/apps/rDock/src/rDock_2013.1_src/data/scripts/dock_solv.prm

>  <Rbt.Receptor>
prm/pocket_docking_8.prm

>  <SCORE>
-13.1008

>  <SCORE.INTER>
-10.0391

>  <SCORE.INTER.CONST>
1

>  <SCORE.INTER.POLAR>
0

>  <SCORE.INTER.ROT>
8

>  <SCORE.INTER.SOLV>
13.0421

>  <SCORE.INTER.VDW>
-19.9734

>  <SCORE.INTER.norm>
-0.313722

>  <SCORE.INTRA>
-3.06171

>  <SCORE.INTRA.DIHEDRAL>
-4.16318

>  <SCORE.INTRA.DIHEDRAL.0>
10.9594

>  <SCORE.INTRA.POLAR>
0

>  <SCORE.INTRA.POLAR.0>
0

>  <SCORE.INTRA.REPUL>
0

>  <SCORE.INTRA.REPUL.0>
0

>  <SCORE.INTRA.SOLV>
-3.02582

>  <SCORE.INTRA.SOLV.lig_0>
-124.914

>  <SCORE.INTRA.VDW>
0.532792

>  <SCORE.INTRA.VDW.0>
-4.69801

>  <SCORE.INTRA.norm>
-0.0956784

>  <SCORE.RESTR>
0

>  <SCORE.RESTR.CAVITY>
0

>  <SCORE.RESTR.norm>
0

>  <SCORE.SYSTEM>
0

>  <SCORE.SYSTEM.CONST>
0

>  <SCORE.SYSTEM.DIHEDRAL>
0

>  <SCORE.SYSTEM.SOLV>
0

>  <SCORE.SYSTEM.norm>
0

>  <SCORE.heavy>
32

>  <SCORE.norm>
-0.4094

>  <RMSD>
9.431

$$$$
ligand
 OpenBabel11021811513D
libRbt.so/2013.1/901 2013/11/27
 32 34  0  0  0  0  0  0  0  0999 V2000
   13.3111  -22.4000  -15.1009 P   0  0  1  0  0  0  0  0  0  0  0  0
   13.7333  -21.4980  -17.7915 P   0  0  2  0  0  0  0  0  0  0  0  0
   12.0229  -19.3082  -18.7374 P   0  0  1  0  0  0  0  0  0  0  0  0
   13.5865  -23.1907  -12.6331 C   0  0  0  0  0  0  0  0  0  0  0  0
   14.2173  -23.0091  -13.8688 O   0  0  0  0  0  0  0  0  0  0  0  0
   14.4837  -23.7525  -11.7315 C   0  0  1  0  0  0  0  0  0  0  0  0
   13.9192  -23.6764  -10.3260 O   0  0  0  0  0  0  0  0  0  0  0  0
   14.7107  -25.3058  -12.0280 C   0  0  1  0  0  0  0  0  0  0  0  0
   16.1456  -25.5333  -12.4468 O   0  0  0  0  0  0  0  0  0  0  0  0
   14.5468  -25.8858  -10.9518 C   0  0  1  0  0  0  0  0  0  0  0  0
   15.8642  -26.1158  -10.3119 O   0  0  0  0  0  0  0  0  0  0  0  0
   13.6227  -24.8732  -10.0061 C   0  0  2  0  0  0  0  0  0  0  0  0
    9.9893  -26.8726  -13.0370 N   0  0  0  0  0  0  0  0  0  0  0  0
   12.3251  -23.4397  -15.5732 O   0  5  0  0  0  0  0  0  0  0  0  0
   12.9109  -22.5813  -18.4428 O   0  5  0  0  0  0  0  0  0  0  0  0
   11.0478  -20.2413  -19.4162 O   0  0  0  0  0  0  0  0  0  0  0  0
   11.2996  -26.8645  -13.2267 C   0  0  0  0  0  0  0  0  0  0  0  0
   11.8495  -27.4792  -14.4180 N   0  0  0  0  0  0  0  0  0  0  0  0
   12.5972  -21.1602  -14.6117 O   0  0  0  0  0  0  0  0  0  0  0  0
   14.9026  -21.1519  -18.6756 O   0  0  0  0  0  0  0  0  0  0  0  0
   11.2588  -18.1597  -18.1157 O   0  5  0  0  0  0  0  0  0  0  0  0
   12.1275  -26.3128  -12.3632 N   0  0  0  0  0  0  0  0  0  0  0  0
   14.3124  -22.0149  -16.3451 O   0  0  0  0  0  0  0  0  0  0  0  0
   12.8074  -20.1585  -17.5580 O   0  0  0  0  0  0  0  0  0  0  0  0
   13.0065  -18.7909  -19.7642 O   0  0  0  0  0  0  0  0  0  0  0  0
   11.6604  -25.7342  -11.2502 C   0  0  0  0  0  0  0  0  0  0  0  0
   10.2981  -25.7283  -11.0283 C   0  0  0  0  0  0  0  0  0  0  0  0
    9.4321  -26.3249  -11.9649 C   0  0  0  0  0  0  0  0  0  0  0  0
    8.0402  -26.3350  -11.7661 O   0  0  0  0  0  0  0  0  0  0  0  0
   10.0803  -25.0984   -9.8613 N   0  0  0  0  0  0  0  0  0  0  0  0
   11.2559  -24.7303   -9.3826 C   0  0  0  0  0  0  0  0  0  0  0  0
   12.2184  -25.1019  -10.2059 N   0  0  0  0  0  0  0  0  0  0  0  0
  1  5  1  1  0  0  0
  1 14  1  0  0  0  0
  1 19  2  0  0  0  0
  1 23  1  0  0  0  0
  2 15  1  6  0  0  0
  2 20  2  0  0  0  0
  2 23  1  0  0  0  0
  2 24  1  0  0  0  0
  3 16  1  6  0  0  0
  3 21  1  0  0  0  0
  3 24  1  0  0  0  0
  3 25  2  0  0  0  0
  4  5  1  0  0  0  0
  6  4  1  6  0  0  0
  6  7  1  0  0  0  0
  6  8  1  0  0  0  0
  7 12  1  0  0  0  0
  8  9  1  1  0  0  0
  8 10  1  0  0  0  0
 10 11  1  1  0  0  0
 10 12  1  0  0  0  0
 12 32  1  6  0  0  0
 13 17  2  0  0  0  0
 13 28  1  0  0  0  0
 17 18  1  0  0  0  0
 17 22  1  0  0  0  0
 22 26  2  0  0  0  0
 26 27  1  0  0  0  0
 26 32  1  0  0  0  0
 27 28  2  0  0  0  0
 27 30  1  0  0  0  0
 28 29  1  0  0  0  0
 30 31  2  0  0  0  0
 31 32  1  0  0  0  0
M  CHG  3  14  -1  15  -1  21  -1
M  END
>  <CHROM.1>
-71.57565993,-63.48473765,60.10949720,167.74222011,177.93792949,100.80066569
174.70470087,-58.72970252,12.70125648,-23.32321223,-14.33555677,-1.51876625
0.18425538,2.21301488

>  <Name>
ligand

>  <RI>
0

>  <Rbt.Current_Directory>
/home/itssahil/PROJECTS/Mol_Feturizer/New_Systems/rnas/4Y1I

>  <Rbt.Executable>
rbdock ($Id: //depot/dev/client3/rdock/2013.1/src/exe/rbdock.cxx#4 $)

>  <Rbt.Library>
libRbt.so (2013.1, Build901 2013/11/27)

>  <Rbt.Parameter_File>
/export/apps/rDock/src/rDock_2013.1_src/data/scripts/dock_solv.prm

>  <Rbt.Receptor>
prm/pocket_docking_8.prm

>  <SCORE>
-9.97783

>  <SCORE.INTER>
-3.99469

>  <SCORE.INTER.CONST>
1

>  <SCORE.INTER.POLAR>
0

>  <SCORE.INTER.ROT>
8

>  <SCORE.INTER.SOLV>
15.1324

>  <SCORE.INTER.VDW>
-16.6406

>  <SCORE.INTER.norm>
-0.124834

>  <SCORE.INTRA>
-5.98315

>  <SCORE.INTRA.DIHEDRAL>
-8.9395

>  <SCORE.INTRA.DIHEDRAL.0>
10.9594

>  <SCORE.INTRA.POLAR>
0

>  <SCORE.INTRA.POLAR.0>
0

>  <SCORE.INTRA.REPUL>
0

>  <SCORE.INTRA.REPUL.0>
0

>  <SCORE.INTRA.SOLV>
-3.30992

>  <SCORE.INTRA.SOLV.lig_0>
-124.914

>  <SCORE.INTRA.VDW>
0.14156

>  <SCORE.INTRA.VDW.0>
-4.69801

>  <SCORE.INTRA.norm>
-0.186973

>  <SCORE.RESTR>
0

>  <SCORE.RESTR.CAVITY>
0

>  <SCORE.RESTR.norm>
0

>  <SCORE.SYSTEM>
0

>  <SCORE.SYSTEM.CONST>
0

>  <SCORE.SYSTEM.DIHEDRAL>
0

>  <SCORE.SYSTEM.SOLV>
0

>  <SCORE.SYSTEM.norm>
0

>  <SCORE.heavy>
32

>  <SCORE.norm>
-0.311807

>  <RMSD>
9.467

$$$$
ligand
 OpenBabel11021811513D
libRbt.so/2013.1/901 2013/11/27
 32 34  0  0  0  0  0  0  0  0999 V2000
   14.5798  -18.4815  -21.1414 P   0  0  1  0  0  0  0  0  0  0  0  0
   17.1322  -17.9300  -22.3298 P   0  0  2  0  0  0  0  0  0  0  0  0
   19.3679  -19.7422  -21.7528 P   0  0  1  0  0  0  0  0  0  0  0  0
   14.4730  -20.7916  -19.9399 C   0  0  0  0  0  0  0  0  0  0  0  0
   15.1894  -19.6001  -20.0987 O   0  0  0  0  0  0  0  0  0  0  0  0
   15.2042  -21.6716  -19.1497 C   0  0  1  0  0  0  0  0  0  0  0  0
   15.4248  -21.0699  -17.7752 O   0  0  0  0  0  0  0  0  0  0  0  0
   14.4077  -23.0350  -18.9073 C   0  0  1  0  0  0  0  0  0  0  0  0
   15.1556  -24.1767  -19.5578 O   0  0  0  0  0  0  0  0  0  0  0  0
   14.4283  -23.2301  -17.6896 C   0  0  1  0  0  0  0  0  0  0  0  0
   15.5348  -24.1600  -17.3595 O   0  0  0  0  0  0  0  0  0  0  0  0
   14.6980  -21.7482  -16.9789 C   0  0  2  0  0  0  0  0  0  0  0  0
   10.9817  -20.6999  -13.5913 N   0  0  0  0  0  0  0  0  0  0  0  0
   14.0891  -19.1640  -22.3942 O   0  5  0  0  0  0  0  0  0  0  0  0
   18.0688  -16.7675  -22.5439 O   0  5  0  0  0  0  0  0  0  0  0  0
   20.3761  -18.6171  -21.7618 O   0  0  0  0  0  0  0  0  0  0  0  0
   12.0504  -21.4631  -13.4232 C   0  0  0  0  0  0  0  0  0  0  0  0
   12.2637  -22.1171  -12.1479 N   0  0  0  0  0  0  0  0  0  0  0  0
   13.4561  -17.7389  -20.4545 O   0  0  0  0  0  0  0  0  0  0  0  0
   16.7249  -18.5017  -23.6624 O   0  0  0  0  0  0  0  0  0  0  0  0
   19.7341  -20.7270  -20.6640 O   0  5  0  0  0  0  0  0  0  0  0  0
   12.9338  -21.6501  -14.3824 N   0  0  0  0  0  0  0  0  0  0  0  0
   15.7794  -17.4336  -21.5435 O   0  0  0  0  0  0  0  0  0  0  0  0
   17.8811  -19.0934  -21.4401 O   0  0  0  0  0  0  0  0  0  0  0  0
   19.3777  -20.4238  -23.1036 O   0  0  0  0  0  0  0  0  0  0  0  0
   12.7739  -21.0644  -15.5753 C   0  0  0  0  0  0  0  0  0  0  0  0
   11.6678  -20.2638  -15.7773 C   0  0  0  0  0  0  0  0  0  0  0  0
   10.7370  -20.0777  -14.7371 C   0  0  0  0  0  0  0  0  0  0  0  0
    9.6012  -19.2677  -14.9128 O   0  0  0  0  0  0  0  0  0  0  0  0
   11.7304  -19.7961  -17.0357 N   0  0  0  0  0  0  0  0  0  0  0  0
   12.8266  -20.2861  -17.5881 C   0  0  0  0  0  0  0  0  0  0  0  0
   13.4661  -21.0537  -16.7254 N   0  0  0  0  0  0  0  0  0  0  0  0
  1  5  1  1  0  0  0
  1 14  1  0  0  0  0
  1 19  2  0  0  0  0
  1 23  1  0  0  0  0
  2 15  1  6  0  0  0
  2 20  2  0  0  0  0
  2 23  1  0  0  0  0
  2 24  1  0  0  0  0
  3 16  1  6  0  0  0
  3 21  1  0  0  0  0
  3 24  1  0  0  0  0
  3 25  2  0  0  0  0
  4  5  1  0  0  0  0
  6  4  1  6  0  0  0
  6  7  1  0  0  0  0
  6  8  1  0  0  0  0
  7 12  1  0  0  0  0
  8  9  1  6  0  0  0
  8 10  1  0  0  0  0
 10 11  1  6  0  0  0
 10 12  1  0  0  0  0
 12 32  1  6  0  0  0
 13 17  2  0  0  0  0
 13 28  1  0  0  0  0
 17 18  1  0  0  0  0
 17 22  1  0  0  0  0
 22 26  2  0  0  0  0
 26 27  1  0  0  0  0
 26 32  1  0  0  0  0
 27 28  2  0  0  0  0
 27 30  1  0  0  0  0
 28 29  1  0  0  0  0
 30 31  2  0  0  0  0
 31 32  1  0  0  0  0
M  CHG  3  14  -1  15  -1  21  -1
M  END
>  <CHROM.1>
-42.68568023,-178.88048040,58.14438050,61.47380112,173.26998124,-146.42598198
62.31887741,-50.86077679,15.11003107,-20.15258232,-19.10691675,0.74259633
0.57497849,-0.72485858

>  <Name>
ligand

>  <RI>
0

>  <Rbt.Current_Directory>
/home/itssahil/PROJECTS/Mol_Feturizer/New_Systems/rnas/4Y1I

>  <Rbt.Executable>
rbdock ($Id: //depot/dev/client3/rdock/2013.1/src/exe/rbdock.cxx#4 $)

>  <Rbt.Library>
libRbt.so (2013.1, Build901 2013/11/27)

>  <Rbt.Parameter_File>
/export/apps/rDock/src/rDock_2013.1_src/data/scripts/dock_solv.prm

>  <Rbt.Receptor>
prm/pocket_docking_8.prm

>  <SCORE>
-8.48014

>  <SCORE.INTER>
-1.88385

>  <SCORE.INTER.CONST>
1

>  <SCORE.INTER.POLAR>
0

>  <SCORE.INTER.ROT>
8

>  <SCORE.INTER.SOLV>
15.9722

>  <SCORE.INTER.VDW>
-15.5133

>  <SCORE.INTER.norm>
-0.0588702

>  <SCORE.INTRA>
-6.59629

>  <SCORE.INTRA.DIHEDRAL>
-8.83862

>  <SCORE.INTRA.DIHEDRAL.0>
10.9594

>  <SCORE.INTRA.POLAR>
0

>  <SCORE.INTRA.POLAR.0>
0

>  <SCORE.INTRA.REPUL>
0

>  <SCORE.INTRA.REPUL.0>
0

>  <SCORE.INTRA.SOLV>
-5.23994

>  <SCORE.INTRA.SOLV.lig_0>
-124.914

>  <SCORE.INTRA.VDW>
0.442986

>  <SCORE.INTRA.VDW.0>
-4.69801

>  <SCORE.INTRA.norm>
-0.206134

>  <SCORE.RESTR>
0

>  <SCORE.RESTR.CAVITY>
0

>  <SCORE.RESTR.norm>
0

>  <SCORE.SYSTEM>
0

>  <SCORE.SYSTEM.CONST>
0

>  <SCORE.SYSTEM.DIHEDRAL>
0

>  <SCORE.SYSTEM.SOLV>
0

>  <SCORE.SYSTEM.norm>
0

>  <SCORE.heavy>
32

>  <SCORE.norm>
-0.265004

>  <RMSD>
9.496

$$$$
ligand
 OpenBabel11021811513D
libRbt.so/2013.1/901 2013/11/27
 32 34  0  0  0  0  0  0  0  0999 V2000
   17.7807  -17.9566  -22.5952 P   0  0  1  0  0  0  0  0  0  0  0  0
   15.0293  -17.6338  -21.8491 P   0  0  2  0  0  0  0  0  0  0  0  0
   12.5182  -16.6757  -20.6695 P   0  0  1  0  0  0  0  0  0  0  0  0
   18.8957  -20.0938  -21.6050 C   0  0  0  0  0  0  0  0  0  0  0  0
   17.7136  -19.3557  -21.7302 O   0  0  0  0  0  0  0  0  0  0  0  0
   18.6123  -21.3332  -21.0420 C   0  0  1  0  0  0  0  0  0  0  0  0
   19.8827  -22.1544  -20.9350 O   0  0  0  0  0  0  0  0  0  0  0  0
   18.0625  -21.1823  -19.5496 C   0  0  1  0  0  0  0  0  0  0  0  0
   16.6309  -21.6650  -19.4901 O   0  0  0  0  0  0  0  0  0  0  0  0
   18.7369  -21.9496  -18.8585 C   0  0  1  0  0  0  0  0  0  0  0  0
   18.0052  -23.2275  -18.6862 O   0  0  0  0  0  0  0  0  0  0  0  0
   20.1547  -22.2125  -19.6920 C   0  0  2  0  0  0  0  0  0  0  0  0
   25.0600  -21.3261  -18.4520 N   0  0  0  0  0  0  0  0  0  0  0  0
   19.0667  -17.2287  -22.2915 O   0  5  0  0  0  0  0  0  0  0  0  0
   15.1384  -18.8088  -20.9101 O   0  5  0  0  0  0  0  0  0  0  0  0
   12.5019  -17.7948  -19.6547 O   0  0  0  0  0  0  0  0  0  0  0  0
   24.4761  -22.4881  -18.7004 C   0  0  0  0  0  0  0  0  0  0  0  0
   25.2584  -23.7059  -18.6325 N   0  0  0  0  0  0  0  0  0  0  0  0
   17.6826  -18.2904  -24.0667 O   0  0  0  0  0  0  0  0  0  0  0  0
   14.4293  -18.0854  -23.1547 O   0  0  0  0  0  0  0  0  0  0  0  0
   12.0261  -15.4043  -20.0129 O   0  5  0  0  0  0  0  0  0  0  0  0
   23.1986  -22.5766  -19.0097 N   0  0  0  0  0  0  0  0  0  0  0  0
   16.5160  -17.0068  -22.1514 O   0  0  0  0  0  0  0  0  0  0  0  0
   14.0759  -16.4718  -21.1805 O   0  0  0  0  0  0  0  0  0  0  0  0
   11.6219  -17.0493  -21.8299 O   0  0  0  0  0  0  0  0  0  0  0  0
   22.4407  -21.4757  -19.0828 C   0  0  0  0  0  0  0  0  0  0  0  0
   23.0246  -20.2513  -18.8279 C   0  0  0  0  0  0  0  0  0  0  0  0
   24.3922  -20.1808  -18.4999 C   0  0  0  0  0  0  0  0  0  0  0  0
   25.0150  -18.9482  -18.2357 O   0  0  0  0  0  0  0  0  0  0  0  0
   22.0724  -19.3124  -18.9624 N   0  0  0  0  0  0  0  0  0  0  0  0
   20.9489  -19.9288  -19.2857 C   0  0  0  0  0  0  0  0  0  0  0  0
   21.1503  -21.2312  -19.3602 N   0  0  0  0  0  0  0  0  0  0  0  0
  1  5  1  1  0  0  0
  1 14  1  0  0  0  0
  1 19  2  0  0  0  0
  1 23  1  0  0  0  0
  2 15  1  1  0  0  0
  2 20  2  0  0  0  0
  2 23  1  0  0  0  0
  2 24  1  0  0  0  0
  3 16  1  1  0  0  0
  3 21  1  0  0  0  0
  3 24  1  0  0  0  0
  3 25  2  0  0  0  0
  4  5  1  0  0  0  0
  6  4  1  1  0  0  0
  6  7  1  0  0  0  0
  6  8  1  0  0  0  0
  7 12  1  0  0  0  0
  8  9  1  6  0  0  0
  8 10  1  0  0  0  0
 10 11  1  6  0  0  0
 10 12  1  0  0  0  0
 12 32  1  1  0  0  0
 13 17  2  0  0  0  0
 13 28  1  0  0  0  0
 17 18  1  0  0  0  0
 17 22  1  0  0  0  0
 22 26  2  0  0  0  0
 26 27  1  0  0  0  0
 26 32  1  0  0  0  0
 27 28  2  0  0  0  0
 27 30  1  0  0  0  0
 28 29  1  0  0  0  0
 30 31  2  0  0  0  0
 31 32  1  0  0  0  0
M  CHG  3  14  -1  15  -1  21  -1
M  END
>  <CHROM.1>
-39.96618167,49.27199915,56.56186971,178.55609023,-170.33059346,-106.33904021
-39.10804108,-56.68845146,18.23680099,-19.45175718,-20.49404576,-2.66014338
-0.00301278,2.62274485

>  <Name>
ligand

>  <RI>
0

>  <Rbt.Current_Directory>
/home/itssahil/PROJECTS/Mol_Feturizer/New_Systems/rnas/4Y1I

>  <Rbt.Executable>
rbdock ($Id: //depot/dev/client3/rdock/2013.1/src/exe/rbdock.cxx#4 $)

>  <Rbt.Library>
libRbt.so (2013.1, Build901 2013/11/27)

>  <Rbt.Parameter_File>
/export/apps/rDock/src/rDock_2013.1_src/data/scripts/dock_solv.prm

>  <Rbt.Receptor>
prm/pocket_docking_8.prm

>  <SCORE>
-13.3563

>  <SCORE.INTER>
-8.22674

>  <SCORE.INTER.CONST>
1

>  <SCORE.INTER.POLAR>
0

>  <SCORE.INTER.ROT>
8

>  <SCORE.INTER.SOLV>
15.8117

>  <SCORE.INTER.VDW>
-19.6884

>  <SCORE.INTER.norm>
-0.257086

>  <SCORE.INTRA>
-5.12952

>  <SCORE.INTRA.DIHEDRAL>
-7.7877

>  <SCORE.INTRA.DIHEDRAL.0>
10.9594

>  <SCORE.INTRA.POLAR>
0

>  <SCORE.INTRA.POLAR.0>
0

>  <SCORE.INTRA.REPUL>
0

>  <SCORE.INTRA.REPUL.0>
0

>  <SCORE.INTRA.SOLV>
-3.141

>  <SCORE.INTRA.SOLV.lig_0>
-124.914

>  <SCORE.INTRA.VDW>
0.334834

>  <SCORE.INTRA.VDW.0>
-4.69801

>  <SCORE.INTRA.norm>
-0.160297

>  <SCORE.RESTR>
0

>  <SCORE.RESTR.CAVITY>
0

>  <SCORE.RESTR.norm>
0

>  <SCORE.SYSTEM>
0

>  <SCORE.SYSTEM.CONST>
0

>  <SCORE.SYSTEM.DIHEDRAL>
0

>  <SCORE.SYSTEM.SOLV>
0

>  <SCORE.SYSTEM.norm>
0

>  <SCORE.heavy>
32

>  <SCORE.norm>
-0.417383

>  <RMSD>
9.617

$$$$
ligand
 OpenBabel11021811513D
libRbt.so/2013.1/901 2013/11/27
 32 34  0  0  0  0  0  0  0  0999 V2000
   13.4443  -26.3759  -17.3096 P   0  0  1  0  0  0  0  0  0  0  0  0
   14.8946  -24.3397  -18.7174 P   0  0  2  0  0  0  0  0  0  0  0  0
   17.6189  -24.9898  -17.8393 P   0  0  1  0  0  0  0  0  0  0  0  0
   11.9874  -25.9007  -15.2019 C   0  0  0  0  0  0  0  0  0  0  0  0
   12.0019  -26.3805  -16.5162 O   0  0  0  0  0  0  0  0  0  0  0  0
   10.7019  -26.0071  -14.6825 C   0  0  1  0  0  0  0  0  0  0  0  0
   10.2816  -27.4636  -14.6391 O   0  0  0  0  0  0  0  0  0  0  0  0
   10.6396  -25.4889  -13.1727 C   0  0  1  0  0  0  0  0  0  0  0  0
    9.7608  -24.2608  -13.0985 O   0  0  0  0  0  0  0  0  0  0  0  0
   10.0795  -26.3797  -12.5293 C   0  0  1  0  0  0  0  0  0  0  0  0
    8.6395  -26.0550  -12.3911 O   0  0  0  0  0  0  0  0  0  0  0  0
   10.2657  -27.7833  -13.4062 C   0  0  2  0  0  0  0  0  0  0  0  0
   12.4644  -32.2275  -12.0642 N   0  0  0  0  0  0  0  0  0  0  0  0
   14.4686  -27.1459  -16.5133 O   0  5  0  0  0  0  0  0  0  0  0  0
   15.2533  -22.8821  -18.5728 O   0  5  0  0  0  0  0  0  0  0  0  0
   17.1912  -24.8174  -16.4007 O   0  0  0  0  0  0  0  0  0  0  0  0
   11.1868  -31.9907  -12.3178 C   0  0  0  0  0  0  0  0  0  0  0  0
   10.2303  -33.0752  -12.2247 N   0  0  0  0  0  0  0  0  0  0  0  0
   13.2484  -26.9909  -18.6770 O   0  0  0  0  0  0  0  0  0  0  0  0
   14.1264  -24.5457  -19.9964 O   0  0  0  0  0  0  0  0  0  0  0  0
   18.5404  -26.1856  -17.9424 O   0  5  0  0  0  0  0  0  0  0  0  0
   10.7510  -30.7939  -12.6546 N   0  0  0  0  0  0  0  0  0  0  0  0
   13.9513  -24.8208  -17.4630 O   0  0  0  0  0  0  0  0  0  0  0  0
   16.2638  -25.2510  -18.7476 O   0  0  0  0  0  0  0  0  0  0  0  0
   18.3317  -23.7355  -18.2955 O   0  0  0  0  0  0  0  0  0  0  0  0
   11.6016  -29.7649  -12.7516 C   0  0  0  0  0  0  0  0  0  0  0  0
   12.9393  -29.9845  -12.4920 C   0  0  0  0  0  0  0  0  0  0  0  0
   13.3825  -31.2724  -12.1344 C   0  0  0  0  0  0  0  0  0  0  0  0
   14.7387  -31.5269  -11.8647 O   0  0  0  0  0  0  0  0  0  0  0  0
   13.5809  -28.8147  -12.6537 N   0  0  0  0  0  0  0  0  0  0  0  0
   12.6798  -27.9111  -12.9976 C   0  0  0  0  0  0  0  0  0  0  0  0
   11.4826  -28.4637  -13.0590 N   0  0  0  0  0  0  0  0  0  0  0  0
  1  5  1  1  0  0  0
  1 14  1  0  0  0  0
  1 19  2  0  0  0  0
  1 23  1  0  0  0  0
  2 15  1  1  0  0  0
  2 20  2  0  0  0  0
  2 23  1  0  0  0  0
  2 24  1  0  0  0  0
  3 16  1  1  0  0  0
  3 21  1  0  0  0  0
  3 24  1  0  0  0  0
  3 25  2  0  0  0  0
  4  5  1  0  0  0  0
  6  4  1  1  0  0  0
  6  7  1  0  0  0  0
  6  8  1  0  0  0  0
  7 12  1  0  0  0  0
  8  9  1  6  0  0  0
  8 10  1  0  0  0  0
 10 11  1  6  0  0  0
 10 12  1  0  0  0  0
 12 32  1  1  0  0  0
 13 17  2  0  0  0  0
 13 28  1  0  0  0  0
 17 18  1  0  0  0  0
 17 22  1  0  0  0  0
 22 26  2  0  0  0  0
 26 27  1  0  0  0  0
 26 32  1  0  0  0  0
 27 28  2  0  0  0  0
 27 30  1  0  0  0  0
 28 29  1  0  0  0  0
 30 31  2  0  0  0  0
 31 32  1  0  0  0  0
M  CHG  3  14  -1  15  -1  21  -1
M  END
>  <CHROM.1>
55.74339837,-177.63515860,49.84861772,62.20144812,-178.65564569,-110.20974532
-151.01362389,38.25662242,13.33975903,-26.96828555,-15.41666531,0.95159499
0.40542737,-0.58078864

>  <Name>
ligand

>  <RI>
0

>  <Rbt.Current_Directory>
/home/itssahil/PROJECTS/Mol_Feturizer/New_Systems/rnas/4Y1I

>  <Rbt.Executable>
rbdock ($Id: //depot/dev/client3/rdock/2013.1/src/exe/rbdock.cxx#4 $)

>  <Rbt.Library>
libRbt.so (2013.1, Build901 2013/11/27)

>  <Rbt.Parameter_File>
/export/apps/rDock/src/rDock_2013.1_src/data/scripts/dock_solv.prm

>  <Rbt.Receptor>
prm/pocket_docking_7.prm

>  <SCORE>
-6.71741

>  <SCORE.INTER>
-0.661571

>  <SCORE.INTER.CONST>
1

>  <SCORE.INTER.POLAR>
0

>  <SCORE.INTER.ROT>
8

>  <SCORE.INTER.SOLV>
8.35307

>  <SCORE.INTER.VDW>
-12.1587

>  <SCORE.INTER.norm>
-0.0206741

>  <SCORE.INTRA>
-6.05584

>  <SCORE.INTRA.DIHEDRAL>
-7.68046

>  <SCORE.INTRA.DIHEDRAL.0>
10.9594

>  <SCORE.INTRA.POLAR>
0

>  <SCORE.INTRA.POLAR.0>
0

>  <SCORE.INTRA.REPUL>
0

>  <SCORE.INTRA.REPUL.0>
0

>  <SCORE.INTRA.SOLV>
-4.42513

>  <SCORE.INTRA.SOLV.lig_0>
-124.914

>  <SCORE.INTRA.VDW>
-0.0030505

>  <SCORE.INTRA.VDW.0>
-4.69801

>  <SCORE.INTRA.norm>
-0.189245

>  <SCORE.RESTR>
0

>  <SCORE.RESTR.CAVITY>
0

>  <SCORE.RESTR.norm>
0

>  <SCORE.SYSTEM>
0

>  <SCORE.SYSTEM.CONST>
0

>  <SCORE.SYSTEM.DIHEDRAL>
0

>  <SCORE.SYSTEM.SOLV>
0

>  <SCORE.SYSTEM.norm>
0

>  <SCORE.heavy>
32

>  <SCORE.norm>
-0.209919

>  <RMSD>
9.638

$$$$
ligand
 OpenBabel11021811513D
libRbt.so/2013.1/901 2013/11/27
 32 34  0  0  0  0  0  0  0  0999 V2000
   21.3421  -20.6243  -19.5774 P   0  0  1  0  0  0  0  0  0  0  0  0
   23.8707  -21.9762  -19.4813 P   0  0  2  0  0  0  0  0  0  0  0  0
   25.6324  -21.6404  -21.8049 P   0  0  1  0  0  0  0  0  0  0  0  0
   19.0138  -21.7902  -19.6847 C   0  0  0  0  0  0  0  0  0  0  0  0
   19.8164  -20.8653  -19.0076 O   0  0  0  0  0  0  0  0  0  0  0  0
   17.8247  -21.9718  -18.9873 C   0  0  1  0  0  0  0  0  0  0  0  0
   17.2588  -20.6273  -18.5726 O   0  0  0  0  0  0  0  0  0  0  0  0
   16.7088  -22.6510  -19.9068 C   0  0  1  0  0  0  0  0  0  0  0  0
   16.3676  -24.0175  -19.3569 O   0  0  0  0  0  0  0  0  0  0  0  0
   15.7010  -21.9489  -19.7948 C   0  0  1  0  0  0  0  0  0  0  0  0
   14.8016  -22.5392  -18.7747 O   0  0  0  0  0  0  0  0  0  0  0  0
   16.2242  -20.4491  -19.2940 C   0  0  2  0  0  0  0  0  0  0  0  0
   14.6197  -16.7356  -22.4596 N   0  0  0  0  0  0  0  0  0  0  0  0
   21.3088  -20.4659  -21.0774 O   0  5  0  0  0  0  0  0  0  0  0  0
   24.4245  -23.3425  -19.1638 O   0  5  0  0  0  0  0  0  0  0  0  0
   25.4472  -21.1600  -23.2252 O   0  0  0  0  0  0  0  0  0  0  0  0
   13.9591  -17.3020  -21.4619 C   0  0  0  0  0  0  0  0  0  0  0  0
   12.6077  -16.8698  -21.1677 N   0  0  0  0  0  0  0  0  0  0  0  0
   21.9184  -19.3928  -18.9161 O   0  0  0  0  0  0  0  0  0  0  0  0
   24.5289  -20.9477  -18.5993 O   0  0  0  0  0  0  0  0  0  0  0  0
   26.5863  -20.7103  -21.0876 O   0  5  0  0  0  0  0  0  0  0  0  0
   14.4917  -18.2524  -20.7211 N   0  0  0  0  0  0  0  0  0  0  0  0
   22.2534  -21.9388  -19.2030 O   0  0  0  0  0  0  0  0  0  0  0  0
   24.1586  -21.6102  -21.0590 O   0  0  0  0  0  0  0  0  0  0  0  0
   26.1880  -23.0476  -21.8289 O   0  0  0  0  0  0  0  0  0  0  0  0
   15.7372  -18.6805  -20.9599 C   0  0  0  0  0  0  0  0  0  0  0  0
   16.4480  -18.1070  -21.9947 C   0  0  0  0  0  0  0  0  0  0  0  0
   15.8586  -17.0920  -22.7728 C   0  0  0  0  0  0  0  0  0  0  0  0
   16.5578  -16.4885  -23.8329 O   0  0  0  0  0  0  0  0  0  0  0  0
   17.6549  -18.6970  -22.0333 N   0  0  0  0  0  0  0  0  0  0  0  0
   17.6891  -19.5963  -21.0654 C   0  0  0  0  0  0  0  0  0  0  0  0
   16.5432  -19.6027  -20.4104 N   0  0  0  0  0  0  0  0  0  0  0  0
  1  5  1  1  0  0  0
  1 14  1  0  0  0  0
  1 19  2  0  0  0  0
  1 23  1  0  0  0  0
  2 15  1  1  0  0  0
  2 20  2  0  0  0  0
  2 23  1  0  0  0  0
  2 24  1  0  0  0  0
  3 16  1  6  0  0  0
  3 21  1  0  0  0  0
  3 24  1  0  0  0  0
  3 25  2  0  0  0  0
  4  5  1  0  0  0  0
  6  4  1  6  0  0  0
  6  7  1  0  0  0  0
  6  8  1  0  0  0  0
  7 12  1  0  0  0  0
  8  9  1  1  0  0  0
  8 10  1  0  0  0  0
 10 11  1  1  0  0  0
 10 12  1  0  0  0  0
 12 32  1  6  0  0  0
 13 17  2  0  0  0  0
 13 28  1  0  0  0  0
 17 18  1  0  0  0  0
 17 22  1  0  0  0  0
 22 26  2  0  0  0  0
 26 27  1  0  0  0  0
 26 32  1  0  0  0  0
 27 28  2  0  0  0  0
 27 30  1  0  0  0  0
 28 29  1  0  0  0  0
 30 31  2  0  0  0  0
 31 32  1  0  0  0  0
M  CHG  3  14  -1  15  -1  21  -1
M  END
>  <CHROM.1>
45.94324788,-174.70395654,-176.81260989,45.78562827,173.58753764,-143.97965962
-173.49734980,-54.07676808,19.82539093,-20.53339442,-20.48649416,0.24497017
-0.15603270,2.47305973

>  <Name>
ligand

>  <RI>
0

>  <Rbt.Current_Directory>
/home/itssahil/PROJECTS/Mol_Feturizer/New_Systems/rnas/4Y1I

>  <Rbt.Executable>
rbdock ($Id: //depot/dev/client3/rdock/2013.1/src/exe/rbdock.cxx#4 $)

>  <Rbt.Library>
libRbt.so (2013.1, Build901 2013/11/27)

>  <Rbt.Parameter_File>
/export/apps/rDock/src/rDock_2013.1_src/data/scripts/dock_solv.prm

>  <Rbt.Receptor>
prm/pocket_docking_8.prm

>  <SCORE>
-10.7177

>  <SCORE.INTER>
-5.71643

>  <SCORE.INTER.CONST>
1

>  <SCORE.INTER.POLAR>
0

>  <SCORE.INTER.ROT>
8

>  <SCORE.INTER.SOLV>
12.1994

>  <SCORE.INTER.VDW>
-16.8108

>  <SCORE.INTER.norm>
-0.178638

>  <SCORE.INTRA>
-5.00128

>  <SCORE.INTRA.DIHEDRAL>
-8.38261

>  <SCORE.INTRA.DIHEDRAL.0>
10.9594

>  <SCORE.INTRA.POLAR>
0

>  <SCORE.INTRA.POLAR.0>
0

>  <SCORE.INTRA.REPUL>
0

>  <SCORE.INTRA.REPUL.0>
0

>  <SCORE.INTRA.SOLV>
-2.90604

>  <SCORE.INTRA.SOLV.lig_0>
-124.914

>  <SCORE.INTRA.VDW>
0.643042

>  <SCORE.INTRA.VDW.0>
-4.69801

>  <SCORE.INTRA.norm>
-0.15629

>  <SCORE.RESTR>
0

>  <SCORE.RESTR.CAVITY>
0

>  <SCORE.RESTR.norm>
0

>  <SCORE.SYSTEM>
0

>  <SCORE.SYSTEM.CONST>
0

>  <SCORE.SYSTEM.DIHEDRAL>
0

>  <SCORE.SYSTEM.SOLV>
0

>  <SCORE.SYSTEM.norm>
0

>  <SCORE.heavy>
32

>  <SCORE.norm>
-0.334928

>  <RMSD>
9.660

$$$$
ligand
 OpenBabel11021811513D
libRbt.so/2013.1/901 2013/11/27
 32 34  0  0  0  0  0  0  0  0999 V2000
   13.9022  -23.9446  -15.3323 P   0  0  1  0  0  0  0  0  0  0  0  0
   15.1576  -23.3441  -17.8411 P   0  0  2  0  0  0  0  0  0  0  0  0
   17.9110  -24.1710  -18.4330 P   0  0  1  0  0  0  0  0  0  0  0  0
   12.0336  -25.7279  -14.9867 C   0  0  0  0  0  0  0  0  0  0  0  0
   12.4047  -24.3899  -14.8132 O   0  0  0  0  0  0  0  0  0  0  0  0
   10.7221  -25.9053  -14.5602 C   0  0  1  0  0  0  0  0  0  0  0  0
   10.3431  -27.3709  -14.6520 O   0  0  0  0  0  0  0  0  0  0  0  0
   10.5509  -25.5050  -13.0232 C   0  0  1  0  0  0  0  0  0  0  0  0
    9.6332  -24.3083  -12.9145 O   0  0  0  0  0  0  0  0  0  0  0  0
    9.9785  -26.4557  -12.4849 C   0  0  1  0  0  0  0  0  0  0  0  0
    8.5238  -26.1783  -12.4156 O   0  0  0  0  0  0  0  0  0  0  0  0
   10.2602  -27.7837  -13.4498 C   0  0  2  0  0  0  0  0  0  0  0  0
   12.4477  -32.2117  -12.0381 N   0  0  0  0  0  0  0  0  0  0  0  0
   14.2045  -22.5386  -14.8761 O   0  5  0  0  0  0  0  0  0  0  0  0
   15.3452  -21.8898  -17.4887 O   0  5  0  0  0  0  0  0  0  0  0  0
   18.3926  -22.7431  -18.5400 O   0  0  0  0  0  0  0  0  0  0  0  0
   11.1740  -31.9804  -12.3154 C   0  0  0  0  0  0  0  0  0  0  0  0
   10.2191  -33.0670  -12.2309 N   0  0  0  0  0  0  0  0  0  0  0  0
   14.9170  -24.9214  -14.7827 O   0  0  0  0  0  0  0  0  0  0  0  0
   14.8281  -23.4698  -19.3055 O   0  0  0  0  0  0  0  0  0  0  0  0
   18.9790  -25.0050  -17.7596 O   0  5  0  0  0  0  0  0  0  0  0  0
   10.7409  -30.7873  -12.6683 N   0  0  0  0  0  0  0  0  0  0  0  0
   13.9193  -23.9846  -16.9745 O   0  0  0  0  0  0  0  0  0  0  0  0
   16.5369  -24.1795  -17.5159 O   0  0  0  0  0  0  0  0  0  0  0  0
   17.6274  -24.7010  -19.8216 O   0  0  0  0  0  0  0  0  0  0  0  0
   11.5902  -29.7566  -12.7580 C   0  0  0  0  0  0  0  0  0  0  0  0
   12.9238  -29.9705  -12.4738 C   0  0  0  0  0  0  0  0  0  0  0  0
   13.3643  -31.2545  -12.0994 C   0  0  0  0  0  0  0  0  0  0  0  0
   14.7164  -31.5031  -11.8044 O   0  0  0  0  0  0  0  0  0  0  0  0
   13.5648  -28.8000  -12.6328 N   0  0  0  0  0  0  0  0  0  0  0  0
   12.6672  -27.9015  -12.9987 C   0  0  0  0  0  0  0  0  0  0  0  0
   11.4729  -28.4580  -13.0768 N   0  0  0  0  0  0  0  0  0  0  0  0
  1  5  1  1  0  0  0
  1 14  1  0  0  0  0
  1 19  2  0  0  0  0
  1 23  1  0  0  0  0
  2 15  1  1  0  0  0
  2 20  2  0  0  0  0
  2 23  1  0  0  0  0
  2 24  1  0  0  0  0
  3 16  1  6  0  0  0
  3 21  1  0  0  0  0
  3 24  1  0  0  0  0
  3 25  2  0  0  0  0
  4  5  1  0  0  0  0
  6  4  1  1  0  0  0
  6  7  1  0  0  0  0
  6  8  1  0  0  0  0
  7 12  1  0  0  0  0
  8  9  1  6  0  0  0
  8 10  1  0  0  0  0
 10 11  1  6  0  0  0
 10 12  1  0  0  0  0
 12 32  1  1  0  0  0
 13 17  2  0  0  0  0
 13 28  1  0  0  0  0
 17 18  1  0  0  0  0
 17 22  1  0  0  0  0
 22 26  2  0  0  0  0
 26 27  1  0  0  0  0
 26 32  1  0  0  0  0
 27 28  2  0  0  0  0
 27 30  1  0  0  0  0
 28 29  1  0  0  0  0
 30 31  2  0  0  0  0
 31 32  1  0  0  0  0
M  CHG  3  14  -1  15  -1  21  -1
M  END
>  <CHROM.1>
-171.36447901,-56.67293308,58.08741805,-175.99792266,-176.83898868,-115.79320464
168.77619435,-76.57226248,13.50575871,-26.24029882,-15.03364250,0.92697200
0.46910915,-0.39421574

>  <Name>
ligand

>  <RI>
0

>  <Rbt.Current_Directory>
/home/itssahil/PROJECTS/Mol_Feturizer/New_Systems/rnas/4Y1I

>  <Rbt.Executable>
rbdock ($Id: //depot/dev/client3/rdock/2013.1/src/exe/rbdock.cxx#4 $)

>  <Rbt.Library>
libRbt.so (2013.1, Build901 2013/11/27)

>  <Rbt.Parameter_File>
/export/apps/rDock/src/rDock_2013.1_src/data/scripts/dock_solv.prm

>  <Rbt.Receptor>
prm/pocket_docking_8.prm

>  <SCORE>
-7.8363

>  <SCORE.INTER>
-1.8298

>  <SCORE.INTER.CONST>
1

>  <SCORE.INTER.POLAR>
0

>  <SCORE.INTER.ROT>
8

>  <SCORE.INTER.SOLV>
14.3561

>  <SCORE.INTER.VDW>
-14.9386

>  <SCORE.INTER.norm>
-0.0571811

>  <SCORE.INTRA>
-6.0065

>  <SCORE.INTRA.DIHEDRAL>
-8.8064

>  <SCORE.INTRA.DIHEDRAL.0>
10.9594

>  <SCORE.INTRA.POLAR>
0

>  <SCORE.INTRA.POLAR.0>
0

>  <SCORE.INTRA.REPUL>
0

>  <SCORE.INTRA.REPUL.0>
0

>  <SCORE.INTRA.SOLV>
-4.58312

>  <SCORE.INTRA.SOLV.lig_0>
-124.914

>  <SCORE.INTRA.VDW>
0.688253

>  <SCORE.INTRA.VDW.0>
-4.69801

>  <SCORE.INTRA.norm>
-0.187703

>  <SCORE.RESTR>
0

>  <SCORE.RESTR.CAVITY>
0

>  <SCORE.RESTR.norm>
0

>  <SCORE.SYSTEM>
0

>  <SCORE.SYSTEM.CONST>
0

>  <SCORE.SYSTEM.DIHEDRAL>
0

>  <SCORE.SYSTEM.SOLV>
0

>  <SCORE.SYSTEM.norm>
0

>  <SCORE.heavy>
32

>  <SCORE.norm>
-0.244884

>  <RMSD>
9.984

$$$$
ligand
 OpenBabel11021811513D
libRbt.so/2013.1/901 2013/11/27
 32 34  0  0  0  0  0  0  0  0999 V2000
   14.5172  -24.2471  -13.6454 P   0  0  1  0  0  0  0  0  0  0  0  0
   16.2374  -25.0958  -15.7788 P   0  0  2  0  0  0  0  0  0  0  0  0
   18.3892  -25.3150  -17.7630 P   0  0  1  0  0  0  0  0  0  0  0  0
   13.0426  -25.9634  -12.3526 C   0  0  0  0  0  0  0  0  0  0  0  0
   14.2092  -25.7698  -13.1006 O   0  0  0  0  0  0  0  0  0  0  0  0
   11.9352  -25.8818  -13.1894 C   0  0  1  0  0  0  0  0  0  0  0  0
   11.9853  -26.9916  -14.2218 O   0  0  0  0  0  0  0  0  0  0  0  0
   10.5760  -26.1000  -12.3788 C   0  0  1  0  0  0  0  0  0  0  0  0
    9.7597  -24.8278  -12.4143 O   0  0  0  0  0  0  0  0  0  0  0  0
    9.9434  -26.9586  -12.9984 C   0  0  1  0  0  0  0  0  0  0  0  0
    8.9617  -26.2972  -13.8910 O   0  0  0  0  0  0  0  0  0  0  0  0
   11.0573  -27.8039  -13.9032 C   0  0  2  0  0  0  0  0  0  0  0  0
   10.3058  -32.5628  -12.1218 N   0  0  0  0  0  0  0  0  0  0  0  0
   13.4578  -23.8346  -14.6372 O   0  5  0  0  0  0  0  0  0  0  0  0
   15.2053  -24.7341  -16.8172 O   0  5  0  0  0  0  0  0  0  0  0  0
   19.8350  -24.8805  -17.8198 O   0  0  0  0  0  0  0  0  0  0  0  0
    9.4722  -31.8110  -12.8237 C   0  0  0  0  0  0  0  0  0  0  0  0
    8.1649  -32.3313  -13.1699 N   0  0  0  0  0  0  0  0  0  0  0  0
   14.5472  -23.3052  -12.4629 O   0  0  0  0  0  0  0  0  0  0  0  0
   16.1387  -26.5645  -15.4597 O   0  0  0  0  0  0  0  0  0  0  0  0
   18.3245  -26.8265  -17.7937 O   0  5  0  0  0  0  0  0  0  0  0  0
    9.7923  -30.5966  -13.2216 N   0  0  0  0  0  0  0  0  0  0  0  0
   15.9774  -24.2468  -14.3981 O   0  0  0  0  0  0  0  0  0  0  0  0
   17.7435  -24.7585  -16.3478 O   0  0  0  0  0  0  0  0  0  0  0  0
   17.6525  -24.7328  -18.9495 O   0  0  0  0  0  0  0  0  0  0  0  0
   10.9897  -30.0785  -12.9225 C   0  0  0  0  0  0  0  0  0  0  0  0
   11.8777  -30.8412  -12.1912 C   0  0  0  0  0  0  0  0  0  0  0  0
   11.5141  -32.1372  -11.7772 C   0  0  0  0  0  0  0  0  0  0  0  0
   12.3973  -32.9380  -11.0318 O   0  0  0  0  0  0  0  0  0  0  0  0
   12.9941  -30.1125  -12.0217 N   0  0  0  0  0  0  0  0  0  0  0  0
   12.8050  -28.9499  -12.6213 C   0  0  0  0  0  0  0  0  0  0  0  0
   11.6037  -28.9100  -13.1667 N   0  0  0  0  0  0  0  0  0  0  0  0
  1  5  1  1  0  0  0
  1 14  1  0  0  0  0
  1 19  2  0  0  0  0
  1 23  1  0  0  0  0
  2 15  1  6  0  0  0
  2 20  2  0  0  0  0
  2 23  1  0  0  0  0
  2 24  1  0  0  0  0
  3 16  1  6  0  0  0
  3 21  1  0  0  0  0
  3 24  1  0  0  0  0
  3 25  2  0  0  0  0
  4  5  1  0  0  0  0
  6  4  1  1  0  0  0
  6  7  1  0  0  0  0
  6  8  1  0  0  0  0
  7 12  1  0  0  0  0
  8  9  1  6  0  0  0
  8 10  1  0  0  0  0
 10 11  1  6  0  0  0
 10 12  1  0  0  0  0
 12 32  1  1  0  0  0
 13 17  2  0  0  0  0
 13 28  1  0  0  0  0
 17 18  1  0  0  0  0
 17 22  1  0  0  0  0
 22 26  2  0  0  0  0
 26 27  1  0  0  0  0
 26 32  1  0  0  0  0
 27 28  2  0  0  0  0
 27 30  1  0  0  0  0
 28 29  1  0  0  0  0
 30 31  2  0  0  0  0
 31 32  1  0  0  0  0
M  CHG  3  14  -1  15  -1  21  -1
M  END
>  <CHROM.1>
-65.03215289,53.43734547,-174.17037325,62.88237274,72.00205126,-164.69920710
65.23759970,-54.77378234,13.62596026,-26.99091795,-14.24332500,0.59513517
0.54409693,-0.00753233

>  <Name>
ligand

>  <RI>
0

>  <Rbt.Current_Directory>
/home/itssahil/PROJECTS/Mol_Feturizer/New_Systems/rnas/4Y1I

>  <Rbt.Executable>
rbdock ($Id: //depot/dev/client3/rdock/2013.1/src/exe/rbdock.cxx#4 $)

>  <Rbt.Library>
libRbt.so (2013.1, Build901 2013/11/27)

>  <Rbt.Parameter_File>
/export/apps/rDock/src/rDock_2013.1_src/data/scripts/dock_solv.prm

>  <Rbt.Receptor>
prm/pocket_docking_8.prm

>  <SCORE>
-9.87369

>  <SCORE.INTER>
-5.82291

>  <SCORE.INTER.CONST>
1

>  <SCORE.INTER.POLAR>
0

>  <SCORE.INTER.ROT>
8

>  <SCORE.INTER.SOLV>
10.4136

>  <SCORE.INTER.VDW>
-16.2865

>  <SCORE.INTER.norm>
-0.181966

>  <SCORE.INTRA>
-4.05078

>  <SCORE.INTRA.DIHEDRAL>
-8.77625

>  <SCORE.INTRA.DIHEDRAL.0>
10.9594

>  <SCORE.INTRA.POLAR>
0

>  <SCORE.INTRA.POLAR.0>
0

>  <SCORE.INTRA.REPUL>
0

>  <SCORE.INTRA.REPUL.0>
0

>  <SCORE.INTRA.SOLV>
-0.492151

>  <SCORE.INTRA.SOLV.lig_0>
-124.914

>  <SCORE.INTRA.VDW>
0.583426

>  <SCORE.INTRA.VDW.0>
-4.69801

>  <SCORE.INTRA.norm>
-0.126587

>  <SCORE.RESTR>
0

>  <SCORE.RESTR.CAVITY>
0

>  <SCORE.RESTR.norm>
0

>  <SCORE.SYSTEM>
0

>  <SCORE.SYSTEM.CONST>
0

>  <SCORE.SYSTEM.DIHEDRAL>
0

>  <SCORE.SYSTEM.SOLV>
0

>  <SCORE.SYSTEM.norm>
0

>  <SCORE.heavy>
32

>  <SCORE.norm>
-0.308553

>  <RMSD>
10.099

$$$$
ligand
 OpenBabel11021811513D
libRbt.so/2013.1/901 2013/11/27
 32 34  0  0  0  0  0  0  0  0999 V2000
   13.6974  -31.1097  -17.2075 P   0  0  1  0  0  0  0  0  0  0  0  0
   14.2114  -32.9197  -19.3733 P   0  0  2  0  0  0  0  0  0  0  0  0
   16.2769  -34.9465  -18.8825 P   0  0  1  0  0  0  0  0  0  0  0  0
   12.7159  -29.2459  -15.6731 C   0  0  0  0  0  0  0  0  0  0  0  0
   12.4697  -30.1177  -16.7396 O   0  0  0  0  0  0  0  0  0  0  0  0
   11.5607  -28.5283  -15.3834 C   0  0  1  0  0  0  0  0  0  0  0  0
   10.4767  -29.4699  -14.8953 O   0  0  0  0  0  0  0  0  0  0  0  0
   11.8042  -27.4886  -14.1952 C   0  0  1  0  0  0  0  0  0  0  0  0
   11.6497  -26.0793  -14.7207 O   0  0  0  0  0  0  0  0  0  0  0  0
   10.8948  -27.6788  -13.3839 C   0  0  1  0  0  0  0  0  0  0  0  0
    9.8080  -26.6998  -13.6253 O   0  0  0  0  0  0  0  0  0  0  0  0
   10.3387  -29.2256  -13.6528 C   0  0  2  0  0  0  0  0  0  0  0  0
   10.1360  -33.5495  -10.8873 N   0  0  0  0  0  0  0  0  0  0  0  0
   14.8737  -30.2853  -17.6687 O   0  5  0  0  0  0  0  0  0  0  0  0
   15.1203  -32.0108  -20.1620 O   0  5  0  0  0  0  0  0  0  0  0  0
   15.6852  -35.8335  -19.9528 O   0  0  0  0  0  0  0  0  0  0  0  0
    9.1422  -32.9188  -11.4935 C   0  0  0  0  0  0  0  0  0  0  0  0
    7.8004  -33.4591  -11.4090 N   0  0  0  0  0  0  0  0  0  0  0  0
   14.0798  -31.9924  -16.0410 O   0  0  0  0  0  0  0  0  0  0  0  0
   13.4053  -33.7710  -20.3188 O   0  0  0  0  0  0  0  0  0  0  0  0
   17.4454  -34.1808  -19.4637 O   0  5  0  0  0  0  0  0  0  0  0  0
    9.3322  -31.8083  -12.1764 N   0  0  0  0  0  0  0  0  0  0  0  0
   13.1736  -32.0340  -18.4605 O   0  0  0  0  0  0  0  0  0  0  0  0
   15.1069  -33.8887  -18.3910 O   0  0  0  0  0  0  0  0  0  0  0  0
   16.7354  -35.8079  -17.7261 O   0  0  0  0  0  0  0  0  0  0  0  0
   10.5560  -31.2761  -12.2787 C   0  0  0  0  0  0  0  0  0  0  0  0
   11.6099  -31.9135  -11.6557 C   0  0  0  0  0  0  0  0  0  0  0  0
   11.3833  -33.0999  -10.9318 C   0  0  0  0  0  0  0  0  0  0  0  0
   12.4368  -33.7719  -10.2871 O   0  0  0  0  0  0  0  0  0  0  0  0
   12.7196  -31.1961  -11.9011 N   0  0  0  0  0  0  0  0  0  0  0  0
   12.3677  -30.1603  -12.6427 C   0  0  0  0  0  0  0  0  0  0  0  0
   11.0692  -30.1901  -12.8780 N   0  0  0  0  0  0  0  0  0  0  0  0
  1  5  1  1  0  0  0
  1 14  1  0  0  0  0
  1 19  2  0  0  0  0
  1 23  1  0  0  0  0
  2 15  1  6  0  0  0
  2 20  2  0  0  0  0
  2 23  1  0  0  0  0
  2 24  1  0  0  0  0
  3 16  1  6  0  0  0
  3 21  1  0  0  0  0
  3 24  1  0  0  0  0
  3 25  2  0  0  0  0
  4  5  1  0  0  0  0
  6  4  1  1  0  0  0
  6  7  1  0  0  0  0
  6  8  1  0  0  0  0
  7 12  1  0  0  0  0
  8  9  1  6  0  0  0
  8 10  1  0  0  0  0
 10 11  1  6  0  0  0
 10 12  1  0  0  0  0
 12 32  1  1  0  0  0
 13 17  2  0  0  0  0
 13 28  1  0  0  0  0
 17 18  1  0  0  0  0
 17 22  1  0  0  0  0
 22 26  2  0  0  0  0
 26 27  1  0  0  0  0
 26 32  1  0  0  0  0
 27 28  2  0  0  0  0
 27 30  1  0  0  0  0
 28 29  1  0  0  0  0
 30 31  2  0  0  0  0
 31 32  1  0  0  0  0
M  CHG  3  14  -1  15  -1  21  -1
M  END
>  <CHROM.1>
-61.30652092,-66.75833802,-52.32614044,64.53349693,-177.65587017,-99.09620569
167.54694939,-58.81263377,12.83052599,-31.64838709,-15.64697617,-0.01185582
0.99305952,-0.47167315

>  <Name>
ligand

>  <RI>
0

>  <Rbt.Current_Directory>
/home/itssahil/PROJECTS/Mol_Feturizer/New_Systems/rnas/4Y1I

>  <Rbt.Executable>
rbdock ($Id: //depot/dev/client3/rdock/2013.1/src/exe/rbdock.cxx#4 $)

>  <Rbt.Library>
libRbt.so (2013.1, Build901 2013/11/27)

>  <Rbt.Parameter_File>
/export/apps/rDock/src/rDock_2013.1_src/data/scripts/dock_solv.prm

>  <Rbt.Receptor>
prm/pocket_docking_8.prm

>  <SCORE>
-4.45278

>  <SCORE.INTER>
2.15886

>  <SCORE.INTER.CONST>
1

>  <SCORE.INTER.POLAR>
0

>  <SCORE.INTER.ROT>
8

>  <SCORE.INTER.SOLV>
3.30265

>  <SCORE.INTER.VDW>
-8.59497

>  <SCORE.INTER.norm>
0.0674645

>  <SCORE.INTRA>
-6.61164

>  <SCORE.INTRA.DIHEDRAL>
-9.22529

>  <SCORE.INTRA.DIHEDRAL.0>
10.9594

>  <SCORE.INTRA.POLAR>
0

>  <SCORE.INTRA.POLAR.0>
0

>  <SCORE.INTRA.REPUL>
0

>  <SCORE.INTRA.REPUL.0>
0

>  <SCORE.INTRA.SOLV>
-4.43509

>  <SCORE.INTRA.SOLV.lig_0>
-124.914

>  <SCORE.INTRA.VDW>
0.218548

>  <SCORE.INTRA.VDW.0>
-4.69801

>  <SCORE.INTRA.norm>
-0.206614

>  <SCORE.RESTR>
0

>  <SCORE.RESTR.CAVITY>
0

>  <SCORE.RESTR.norm>
0

>  <SCORE.SYSTEM>
0

>  <SCORE.SYSTEM.CONST>
0

>  <SCORE.SYSTEM.DIHEDRAL>
0

>  <SCORE.SYSTEM.SOLV>
0

>  <SCORE.SYSTEM.norm>
0

>  <SCORE.heavy>
32

>  <SCORE.norm>
-0.139149

>  <RMSD>
10.264

$$$$
ligand
 OpenBabel11021811513D
libRbt.so/2013.1/901 2013/11/27
 32 34  0  0  0  0  0  0  0  0999 V2000
   21.4085  -18.3429  -19.1457 P   0  0  1  0  0  0  0  0  0  0  0  0
   21.0846  -15.5334  -18.6632 P   0  0  2  0  0  0  0  0  0  0  0  0
   19.5149  -14.8706  -16.2732 P   0  0  1  0  0  0  0  0  0  0  0  0
   19.5968  -20.1970  -19.4128 C   0  0  0  0  0  0  0  0  0  0  0  0
   20.0536  -19.1267  -18.6358 O   0  0  0  0  0  0  0  0  0  0  0  0
   18.5769  -20.8589  -18.7382 C   0  0  1  0  0  0  0  0  0  0  0  0
   17.3404  -19.9826  -18.6837 O   0  0  0  0  0  0  0  0  0  0  0  0
   18.1372  -22.1880  -19.5079 C   0  0  1  0  0  0  0  0  0  0  0  0
   18.4654  -23.3938  -18.6568 O   0  0  0  0  0  0  0  0  0  0  0  0
   16.9091  -22.1336  -19.6080 C   0  0  1  0  0  0  0  0  0  0  0  0
   16.2913  -22.9157  -18.5105 O   0  0  0  0  0  0  0  0  0  0  0  0
   16.4950  -20.5266  -19.4659 C   0  0  2  0  0  0  0  0  0  0  0  0
   14.3652  -20.1453  -24.1246 N   0  0  0  0  0  0  0  0  0  0  0  0
   22.3851  -18.2134  -18.0030 O   0  5  0  0  0  0  0  0  0  0  0  0
   20.3726  -14.3548  -19.2783 O   0  5  0  0  0  0  0  0  0  0  0  0
   18.1077  -14.8392  -16.8219 O   0  0  0  0  0  0  0  0  0  0  0  0
   14.0344  -20.9643  -23.1385 C   0  0  0  0  0  0  0  0  0  0  0  0
   12.9428  -21.8986  -23.3260 N   0  0  0  0  0  0  0  0  0  0  0  0
   22.0166  -19.1197  -20.2915 O   0  0  0  0  0  0  0  0  0  0  0  0
   22.5397  -15.1975  -18.4672 O   0  0  0  0  0  0  0  0  0  0  0  0
   19.4801  -15.3792  -14.8485 O   0  5  0  0  0  0  0  0  0  0  0  0
   14.6678  -20.9594  -21.9834 N   0  0  0  0  0  0  0  0  0  0  0  0
   20.9829  -16.8394  -19.6526 O   0  0  0  0  0  0  0  0  0  0  0  0
   20.4059  -15.8991  -17.2101 O   0  0  0  0  0  0  0  0  0  0  0  0
   20.0933  -13.4731  -16.3189 O   0  0  0  0  0  0  0  0  0  0  0  0
   15.6817  -20.1121  -21.7695 C   0  0  0  0  0  0  0  0  0  0  0  0
   16.0474  -19.2477  -22.7815 C   0  0  0  0  0  0  0  0  0  0  0  0
   15.3554  -19.2702  -24.0077 C   0  0  0  0  0  0  0  0  0  0  0  0
   15.7046  -18.4015  -25.0567 O   0  0  0  0  0  0  0  0  0  0  0  0
   17.0754  -18.5083  -22.3311 N   0  0  0  0  0  0  0  0  0  0  0  0
   17.3346  -18.8985  -21.0953 C   0  0  0  0  0  0  0  0  0  0  0  0
   16.5079  -19.8646  -20.7409 N   0  0  0  0  0  0  0  0  0  0  0  0
  1  5  1  1  0  0  0
  1 14  1  0  0  0  0
  1 19  2  0  0  0  0
  1 23  1  0  0  0  0
  2 15  1  6  0  0  0
  2 20  2  0  0  0  0
  2 23  1  0  0  0  0
  2 24  1  0  0  0  0
  3 16  1  6  0  0  0
  3 21  1  0  0  0  0
  3 24  1  0  0  0  0
  3 25  2  0  0  0  0
  4  5  1  0  0  0  0
  6  4  1  6  0  0  0
  6  7  1  0  0  0  0
  6  8  1  0  0  0  0
  7 12  1  0  0  0  0
  8  9  1  1  0  0  0
  8 10  1  0  0  0  0
 10 11  1  1  0  0  0
 10 12  1  0  0  0  0
 12 32  1  6  0  0  0
 13 17  2  0  0  0  0
 13 28  1  0  0  0  0
 17 18  1  0  0  0  0
 17 22  1  0  0  0  0
 22 26  2  0  0  0  0
 26 27  1  0  0  0  0
 26 32  1  0  0  0  0
 27 28  2  0  0  0  0
 27 30  1  0  0  0  0
 28 29  1  0  0  0  0
 30 31  2  0  0  0  0
 31 32  1  0  0  0  0
M  CHG  3  14  -1  15  -1  21  -1
M  END
>  <CHROM.1>
-130.41282691,-168.28212311,80.89134964,69.55198421,171.19580829,-174.98091018
95.39293490,-21.80532214,18.50828178,-18.44839839,-19.58949438,-0.50504147
0.82175295,2.94287756

>  <Name>
ligand

>  <RI>
0

>  <Rbt.Current_Directory>
/home/itssahil/PROJECTS/Mol_Feturizer/New_Systems/rnas/4Y1I

>  <Rbt.Executable>
rbdock ($Id: //depot/dev/client3/rdock/2013.1/src/exe/rbdock.cxx#4 $)

>  <Rbt.Library>
libRbt.so (2013.1, Build901 2013/11/27)

>  <Rbt.Parameter_File>
/export/apps/rDock/src/rDock_2013.1_src/data/scripts/dock_solv.prm

>  <Rbt.Receptor>
prm/pocket_docking_8.prm

>  <SCORE>
-8.08426

>  <SCORE.INTER>
-5.235

>  <SCORE.INTER.CONST>
1

>  <SCORE.INTER.POLAR>
0

>  <SCORE.INTER.ROT>
8

>  <SCORE.INTER.SOLV>
17.2638

>  <SCORE.INTER.VDW>
-18.1779

>  <SCORE.INTER.norm>
-0.163594

>  <SCORE.INTRA>
-2.84926

>  <SCORE.INTRA.DIHEDRAL>
-2.69782

>  <SCORE.INTRA.DIHEDRAL.0>
10.9594

>  <SCORE.INTRA.POLAR>
0

>  <SCORE.INTRA.POLAR.0>
0

>  <SCORE.INTRA.REPUL>
0

>  <SCORE.INTRA.REPUL.0>
0

>  <SCORE.INTRA.SOLV>
-4.84795

>  <SCORE.INTRA.SOLV.lig_0>
-124.914

>  <SCORE.INTRA.VDW>
0.923622

>  <SCORE.INTRA.VDW.0>
-4.69801

>  <SCORE.INTRA.norm>
-0.0890394

>  <SCORE.RESTR>
0

>  <SCORE.RESTR.CAVITY>
0

>  <SCORE.RESTR.norm>
0

>  <SCORE.SYSTEM>
0

>  <SCORE.SYSTEM.CONST>
0

>  <SCORE.SYSTEM.DIHEDRAL>
0

>  <SCORE.SYSTEM.SOLV>
0

>  <SCORE.SYSTEM.norm>
0

>  <SCORE.heavy>
32

>  <SCORE.norm>
-0.252633

>  <RMSD>
10.402

$$$$
ligand
 OpenBabel11021811513D
libRbt.so/2013.1/901 2013/11/27
 32 34  0  0  0  0  0  0  0  0999 V2000
   20.0941  -22.6839   -8.7846 P   0  0  1  0  0  0  0  0  0  0  0  0
   18.3351  -21.5418   -6.8268 P   0  0  2  0  0  0  0  0  0  0  0  0
   19.7351  -19.7244   -4.9959 P   0  0  1  0  0  0  0  0  0  0  0  0
   20.2350  -25.1076   -9.7318 C   0  0  0  0  0  0  0  0  0  0  0  0
   19.5091  -24.2154   -8.9350 O   0  0  0  0  0  0  0  0  0  0  0  0
   19.6608  -26.3716   -9.6555 C   0  0  1  0  0  0  0  0  0  0  0  0
   18.4663  -26.3406   -8.7217 O   0  0  0  0  0  0  0  0  0  0  0  0
   19.0946  -26.8401  -11.0740 C   0  0  1  0  0  0  0  0  0  0  0  0
   19.8738  -28.0438  -11.5537 O   0  0  0  0  0  0  0  0  0  0  0  0
   17.9354  -27.2103  -10.8731 C   0  0  1  0  0  0  0  0  0  0  0  0
   17.9118  -28.6833  -10.7062 O   0  0  0  0  0  0  0  0  0  0  0  0
   17.4406  -26.4692   -9.4661 C   0  0  2  0  0  0  0  0  0  0  0  0
   15.8906  -23.0983  -13.0185 N   0  0  0  0  0  0  0  0  0  0  0  0
   21.5847  -22.6806   -9.0173 O   0  5  0  0  0  0  0  0  0  0  0  0
   17.3239  -22.6502   -6.6749 O   0  5  0  0  0  0  0  0  0  0  0  0
   19.3097  -18.9179   -3.7913 O   0  0  0  0  0  0  0  0  0  0  0  0
   16.4334  -24.2914  -13.2047 C   0  0  0  0  0  0  0  0  0  0  0  0
   16.6470  -24.7728  -14.5546 N   0  0  0  0  0  0  0  0  0  0  0  0
   19.3887  -21.7944   -9.7833 O   0  0  0  0  0  0  0  0  0  0  0  0
   17.8836  -20.5912   -7.9044 O   0  0  0  0  0  0  0  0  0  0  0  0
   20.9536  -20.5465   -4.6366 O   0  5  0  0  0  0  0  0  0  0  0  0
   16.7888  -25.0626  -12.1974 N   0  0  0  0  0  0  0  0  0  0  0  0
   19.7945  -22.1578   -7.2574 O   0  0  0  0  0  0  0  0  0  0  0  0
   18.4878  -20.7271   -5.4059 O   0  0  0  0  0  0  0  0  0  0  0  0
   20.0548  -18.7797   -6.1338 O   0  0  0  0  0  0  0  0  0  0  0  0
   16.6089  -24.6554  -10.9351 C   0  0  0  0  0  0  0  0  0  0  0  0
   16.0453  -23.4151  -10.7130 C   0  0  0  0  0  0  0  0  0  0  0  0
   15.6724  -22.6082  -11.8052 C   0  0  0  0  0  0  0  0  0  0  0  0
   15.0957  -21.3407  -11.6106 O   0  0  0  0  0  0  0  0  0  0  0  0
   15.9696  -23.2366   -9.3831 N   0  0  0  0  0  0  0  0  0  0  0  0
   16.4649  -24.3185   -8.8078 C   0  0  0  0  0  0  0  0  0  0  0  0
   16.8571  -25.1822   -9.7257 N   0  0  0  0  0  0  0  0  0  0  0  0
  1  5  1  6  0  0  0
  1 14  1  0  0  0  0
  1 19  2  0  0  0  0
  1 23  1  0  0  0  0
  2 15  1  1  0  0  0
  2 20  2  0  0  0  0
  2 23  1  0  0  0  0
  2 24  1  0  0  0  0
  3 16  1  1  0  0  0
  3 21  1  0  0  0  0
  3 24  1  0  0  0  0
  3 25  2  0  0  0  0
  4  5  1  0  0  0  0
  6  4  1  6  0  0  0
  6  7  1  0  0  0  0
  6  8  1  0  0  0  0
  7 12  1  0  0  0  0
  8  9  1  1  0  0  0
  8 10  1  0  0  0  0
 10 11  1  1  0  0  0
 10 12  1  0  0  0  0
 12 32  1  6  0  0  0
 13 17  2  0  0  0  0
 13 28  1  0  0  0  0
 17 18  1  0  0  0  0
 17 22  1  0  0  0  0
 22 26  2  0  0  0  0
 26 27  1  0  0  0  0
 26 32  1  0  0  0  0
 27 28  2  0  0  0  0
 27 30  1  0  0  0  0
 28 29  1  0  0  0  0
 30 31  2  0  0  0  0
 31 32  1  0  0  0  0
M  CHG  3  14  -1  15  -1  21  -1
M  END
>  <CHROM.1>
-25.23030980,75.33771038,165.30817425,-0.84123745,175.11535544,124.88508115
-82.14750602,162.82534228,18.37220452,-23.26312409,-8.95415092,-1.22818278
0.75453617,-2.56530259

>  <Name>
ligand

>  <RI>
0

>  <Rbt.Current_Directory>
/home/itssahil/PROJECTS/Mol_Feturizer/New_Systems/rnas/4Y1I

>  <Rbt.Executable>
rbdock ($Id: //depot/dev/client3/rdock/2013.1/src/exe/rbdock.cxx#4 $)

>  <Rbt.Library>
libRbt.so (2013.1, Build901 2013/11/27)

>  <Rbt.Parameter_File>
/export/apps/rDock/src/rDock_2013.1_src/data/scripts/dock_solv.prm

>  <Rbt.Receptor>
prm/blind_docking_40.prm

>  <SCORE>
-4.11746

>  <SCORE.INTER>
-2.5416

>  <SCORE.INTER.CONST>
1

>  <SCORE.INTER.POLAR>
0

>  <SCORE.INTER.ROT>
8

>  <SCORE.INTER.SOLV>
26.0977

>  <SCORE.INTER.VDW>
-19.327

>  <SCORE.INTER.norm>
-0.079425

>  <SCORE.INTRA>
-1.58521

>  <SCORE.INTRA.DIHEDRAL>
-0.914114

>  <SCORE.INTRA.DIHEDRAL.0>
10.9594

>  <SCORE.INTRA.POLAR>
0

>  <SCORE.INTRA.POLAR.0>
0

>  <SCORE.INTRA.REPUL>
0

>  <SCORE.INTRA.REPUL.0>
0

>  <SCORE.INTRA.SOLV>
-2.4567

>  <SCORE.INTRA.SOLV.lig_0>
-124.914

>  <SCORE.INTRA.VDW>
0.100194

>  <SCORE.INTRA.VDW.0>
-4.69801

>  <SCORE.INTRA.norm>
-0.0495379

>  <SCORE.RESTR>
0.00935552

>  <SCORE.RESTR.CAVITY>
0.00935552

>  <SCORE.RESTR.norm>
0.00029236

>  <SCORE.SYSTEM>
0

>  <SCORE.SYSTEM.CONST>
0

>  <SCORE.SYSTEM.DIHEDRAL>
0

>  <SCORE.SYSTEM.SOLV>
0

>  <SCORE.SYSTEM.norm>
0

>  <SCORE.heavy>
32

>  <SCORE.norm>
-0.128671

>  <RMSD>
11.080

$$$$
ligand
 OpenBabel11021811513D
libRbt.so/2013.1/901 2013/11/27
 32 34  0  0  0  0  0  0  0  0999 V2000
   20.0639  -21.1785   -8.1458 P   0  0  1  0  0  0  0  0  0  0  0  0
   17.9885  -21.9326   -6.3141 P   0  0  2  0  0  0  0  0  0  0  0  0
   18.9579  -20.2975   -4.0776 P   0  0  1  0  0  0  0  0  0  0  0  0
   19.4055  -22.7304  -10.1331 C   0  0  0  0  0  0  0  0  0  0  0  0
   19.1829  -21.5037   -9.4979 O   0  0  0  0  0  0  0  0  0  0  0  0
   18.8616  -23.7557   -9.3674 C   0  0  1  0  0  0  0  0  0  0  0  0
   17.3474  -23.6829   -9.4079 O   0  0  0  0  0  0  0  0  0  0  0  0
   19.2463  -25.1896   -9.9574 C   0  0  1  0  0  0  0  0  0  0  0  0
   20.1195  -25.9237   -8.9652 O   0  0  0  0  0  0  0  0  0  0  0  0
   18.1878  -25.8163  -10.0478 C   0  0  1  0  0  0  0  0  0  0  0  0
   18.0230  -26.6777   -8.8525 O   0  0  0  0  0  0  0  0  0  0  0  0
   16.9707  -24.6808  -10.1043 C   0  0  2  0  0  0  0  0  0  0  0  0
   16.2841  -26.1286  -14.9846 N   0  0  0  0  0  0  0  0  0  0  0  0
   21.5154  -21.5107   -8.3888 O   0  5  0  0  0  0  0  0  0  0  0  0
   17.5906  -23.1522   -5.5213 O   0  5  0  0  0  0  0  0  0  0  0  0
   19.4495  -21.6227   -3.5443 O   0  0  0  0  0  0  0  0  0  0  0  0
   16.5429  -26.8912  -13.9338 C   0  0  0  0  0  0  0  0  0  0  0  0
   16.6611  -28.3249  -14.1074 N   0  0  0  0  0  0  0  0  0  0  0  0
   19.8948  -19.7173   -7.7957 O   0  0  0  0  0  0  0  0  0  0  0  0
   17.0359  -21.7469   -7.4660 O   0  0  0  0  0  0  0  0  0  0  0  0
   20.1425  -19.4837   -4.5510 O   0  5  0  0  0  0  0  0  0  0  0  0
   16.6979  -26.3881  -12.7261 N   0  0  0  0  0  0  0  0  0  0  0  0
   19.5035  -22.1163   -6.9189 O   0  0  0  0  0  0  0  0  0  0  0  0
   17.9472  -20.6014   -5.3486 O   0  0  0  0  0  0  0  0  0  0  0  0
   18.2228  -19.5650   -2.9764 O   0  0  0  0  0  0  0  0  0  0  0  0
   16.5968  -25.0690  -12.5229 C   0  0  0  0  0  0  0  0  0  0  0  0
   16.3280  -24.2511  -13.6017 C   0  0  0  0  0  0  0  0  0  0  0  0
   16.1653  -24.8112  -14.8834 C   0  0  0  0  0  0  0  0  0  0  0  0
   15.8903  -24.0038  -16.0012 O   0  0  0  0  0  0  0  0  0  0  0  0
   16.2751  -22.9869  -13.1486 N   0  0  0  0  0  0  0  0  0  0  0  0
   16.5019  -23.0212  -11.8470 C   0  0  0  0  0  0  0  0  0  0  0  0
   16.7002  -24.2652  -11.4528 N   0  0  0  0  0  0  0  0  0  0  0  0
  1  5  1  6  0  0  0
  1 14  1  0  0  0  0
  1 19  2  0  0  0  0
  1 23  1  0  0  0  0
  2 15  1  1  0  0  0
  2 20  2  0  0  0  0
  2 23  1  0  0  0  0
  2 24  1  0  0  0  0
  3 16  1  1  0  0  0
  3 21  1  0  0  0  0
  3 24  1  0  0  0  0
  3 25  2  0  0  0  0
  4  5  1  0  0  0  0
  6  4  1  6  0  0  0
  6  7  1  0  0  0  0
  6  8  1  0  0  0  0
  7 12  1  0  0  0  0
  8  9  1  1  0  0  0
  8 10  1  0  0  0  0
 10 11  1  1  0  0  0
 10 12  1  0  0  0  0
 12 32  1  6  0  0  0
 13 17  2  0  0  0  0
 13 28  1  0  0  0  0
 17 18  1  0  0  0  0
 17 22  1  0  0  0  0
 22 26  2  0  0  0  0
 26 27  1  0  0  0  0
 26 32  1  0  0  0  0
 27 28  2  0  0  0  0
 27 30  1  0  0  0  0
 28 29  1  0  0  0  0
 30 31  2  0  0  0  0
 31 32  1  0  0  0  0
M  CHG  3  14  -1  15  -1  21  -1
M  END
>  <CHROM.1>
46.42415150,162.77160896,-26.22560066,70.03627837,72.51340236,163.03406975
-65.32558747,67.43254548,18.17428333,-23.07967361,-9.05562356,0.18425427
-1.31900332,-0.32959667

>  <Name>
ligand

>  <RI>
0

>  <Rbt.Current_Directory>
/home/itssahil/PROJECTS/Mol_Feturizer/New_Systems/rnas/4Y1I

>  <Rbt.Executable>
rbdock ($Id: //depot/dev/client3/rdock/2013.1/src/exe/rbdock.cxx#4 $)

>  <Rbt.Library>
libRbt.so (2013.1, Build901 2013/11/27)

>  <Rbt.Parameter_File>
/export/apps/rDock/src/rDock_2013.1_src/data/scripts/dock_solv.prm

>  <Rbt.Receptor>
prm/blind_docking_40.prm

>  <SCORE>
-6.88016

>  <SCORE.INTER>
-2.85268

>  <SCORE.INTER.CONST>
1

>  <SCORE.INTER.POLAR>
0

>  <SCORE.INTER.ROT>
8

>  <SCORE.INTER.SOLV>
22.3715

>  <SCORE.INTER.VDW>
-18.2923

>  <SCORE.INTER.norm>
-0.0891461

>  <SCORE.INTRA>
-4.49356

>  <SCORE.INTRA.DIHEDRAL>
-6.38096

>  <SCORE.INTRA.DIHEDRAL.0>
10.9594

>  <SCORE.INTRA.POLAR>
0

>  <SCORE.INTRA.POLAR.0>
0

>  <SCORE.INTRA.REPUL>
0

>  <SCORE.INTRA.REPUL.0>
0

>  <SCORE.INTRA.SOLV>
-0.141788

>  <SCORE.INTRA.SOLV.lig_0>
-124.914

>  <SCORE.INTRA.VDW>
-1.23219

>  <SCORE.INTRA.VDW.0>
-4.69801

>  <SCORE.INTRA.norm>
-0.140424

>  <SCORE.RESTR>
0.466077

>  <SCORE.RESTR.CAVITY>
0.466077

>  <SCORE.RESTR.norm>
0.0145649

>  <SCORE.SYSTEM>
0

>  <SCORE.SYSTEM.CONST>
0

>  <SCORE.SYSTEM.DIHEDRAL>
0

>  <SCORE.SYSTEM.SOLV>
0

>  <SCORE.SYSTEM.norm>
0

>  <SCORE.heavy>
32

>  <SCORE.norm>
-0.215005

>  <RMSD>
11.230

$$$$
ligand
 OpenBabel11021811513D
libRbt.so/2013.1/901 2013/11/27
 32 34  0  0  0  0  0  0  0  0999 V2000
   20.1304  -21.6875   -9.6109 P   0  0  1  0  0  0  0  0  0  0  0  0
   21.0372  -21.9540   -6.9021 P   0  0  2  0  0  0  0  0  0  0  0  0
   19.9241  -19.5023   -5.7336 P   0  0  1  0  0  0  0  0  0  0  0  0
   18.9747  -22.8952  -11.6103 C   0  0  0  0  0  0  0  0  0  0  0  0
   19.8621  -23.0227  -10.5359 O   0  0  0  0  0  0  0  0  0  0  0  0
   18.8012  -24.1332  -12.2190 C   0  0  1  0  0  0  0  0  0  0  0  0
   19.0263  -25.2415  -11.2086 O   0  0  0  0  0  0  0  0  0  0  0  0
   17.3040  -24.3184  -12.7446 C   0  0  1  0  0  0  0  0  0  0  0  0
   17.3092  -24.4153  -14.2534 O   0  0  0  0  0  0  0  0  0  0  0  0
   16.9218  -25.4072  -12.3089 C   0  0  1  0  0  0  0  0  0  0  0  0
   17.1046  -26.4453  -13.3514 O   0  0  0  0  0  0  0  0  0  0  0  0
   17.8790  -25.7495  -10.9895 C   0  0  2  0  0  0  0  0  0  0  0  0
   15.0570  -22.0233   -8.8595 N   0  0  0  0  0  0  0  0  0  0  0  0
   20.5961  -20.5470  -10.4818 O   0  5  0  0  0  0  0  0  0  0  0  0
   22.0487  -22.7908   -6.1599 O   0  5  0  0  0  0  0  0  0  0  0  0
   20.2339  -18.0391   -5.9467 O   0  0  0  0  0  0  0  0  0  0  0  0
   15.3732  -22.1822  -10.1353 C   0  0  0  0  0  0  0  0  0  0  0  0
   14.8977  -21.2220  -11.1108 N   0  0  0  0  0  0  0  0  0  0  0  0
   18.8496  -21.3303   -8.8910 O   0  0  0  0  0  0  0  0  0  0  0  0
   19.6511  -22.4741   -6.6246 O   0  0  0  0  0  0  0  0  0  0  0  0
   18.6129  -19.8350   -6.4116 O   0  5  0  0  0  0  0  0  0  0  0  0
   16.1108  -23.1910  -10.5522 N   0  0  0  0  0  0  0  0  0  0  0  0
   21.3074  -22.0361   -8.5192 O   0  0  0  0  0  0  0  0  0  0  0  0
   21.1427  -20.3869   -6.4131 O   0  0  0  0  0  0  0  0  0  0  0  0
   19.8324  -19.7756   -4.2482 O   0  0  0  0  0  0  0  0  0  0  0  0
   16.5701  -24.0998   -9.6836 C   0  0  0  0  0  0  0  0  0  0  0  0
   16.2555  -23.9574   -8.3473 C   0  0  0  0  0  0  0  0  0  0  0  0
   15.4648  -22.8715   -7.9245 C   0  0  0  0  0  0  0  0  0  0  0  0
   15.1273  -22.7002   -6.5704 O   0  0  0  0  0  0  0  0  0  0  0  0
   16.8240  -24.9798   -7.6857 N   0  0  0  0  0  0  0  0  0  0  0  0
   17.4628  -25.7218   -8.5736 C   0  0  0  0  0  0  0  0  0  0  0  0
   17.3235  -25.2066   -9.7808 N   0  0  0  0  0  0  0  0  0  0  0  0
  1  5  1  6  0  0  0
  1 14  1  0  0  0  0
  1 19  2  0  0  0  0
  1 23  1  0  0  0  0
  2 15  1  1  0  0  0
  2 20  2  0  0  0  0
  2 23  1  0  0  0  0
  2 24  1  0  0  0  0
  3 16  1  6  0  0  0
  3 21  1  0  0  0  0
  3 24  1  0  0  0  0
  3 25  2  0  0  0  0
  4  5  1  0  0  0  0
  6  4  1  1  0  0  0
  6  7  1  0  0  0  0
  6  8  1  0  0  0  0
  7 12  1  0  0  0  0
  8  9  1  6  0  0  0
  8 10  1  0  0  0  0
 10 11  1  6  0  0  0
 10 12  1  0  0  0  0
 12 32  1  1  0  0  0
 13 17  2  0  0  0  0
 13 28  1  0  0  0  0
 17 18  1  0  0  0  0
 17 22  1  0  0  0  0
 22 26  2  0  0  0  0
 26 27  1  0  0  0  0
 26 32  1  0  0  0  0
 27 28  2  0  0  0  0
 27 30  1  0  0  0  0
 28 29  1  0  0  0  0
 30 31  2  0  0  0  0
 31 32  1  0  0  0  0
M  CHG  3  14  -1  15  -1  21  -1
M  END
>  <CHROM.1>
-55.53000455,158.65884223,-157.57657564,27.50525229,-176.00160832,89.05448316
-119.73715281,-120.82667662,18.53534078,-22.56654557,-8.97020132,-1.13690484
-0.17774432,-2.14838089

>  <Name>
ligand

>  <RI>
0

>  <Rbt.Current_Directory>
/home/itssahil/PROJECTS/Mol_Feturizer/New_Systems/rnas/4Y1I

>  <Rbt.Executable>
rbdock ($Id: //depot/dev/client3/rdock/2013.1/src/exe/rbdock.cxx#4 $)

>  <Rbt.Library>
libRbt.so (2013.1, Build901 2013/11/27)

>  <Rbt.Parameter_File>
/export/apps/rDock/src/rDock_2013.1_src/data/scripts/dock_solv.prm

>  <Rbt.Receptor>
prm/blind_docking_40.prm

>  <SCORE>
-2.78115

>  <SCORE.INTER>
-2.47879

>  <SCORE.INTER.CONST>
1

>  <SCORE.INTER.POLAR>
0

>  <SCORE.INTER.ROT>
8

>  <SCORE.INTER.SOLV>
31.0194

>  <SCORE.INTER.VDW>
-20.9257

>  <SCORE.INTER.norm>
-0.0774623

>  <SCORE.INTRA>
-0.30463

>  <SCORE.INTRA.DIHEDRAL>
-0.471325

>  <SCORE.INTRA.DIHEDRAL.0>
10.9594

>  <SCORE.INTRA.POLAR>
0

>  <SCORE.INTRA.POLAR.0>
0

>  <SCORE.INTRA.REPUL>
0

>  <SCORE.INTRA.REPUL.0>
0

>  <SCORE.INTRA.SOLV>
0.921265

>  <SCORE.INTRA.SOLV.lig_0>
-124.914

>  <SCORE.INTRA.VDW>
-0.5296

>  <SCORE.INTRA.VDW.0>
-4.69801

>  <SCORE.INTRA.norm>
-0.0095197

>  <SCORE.RESTR>
0.00226945

>  <SCORE.RESTR.CAVITY>
0.00226945

>  <SCORE.RESTR.norm>
7.09205e-05

>  <SCORE.SYSTEM>
0

>  <SCORE.SYSTEM.CONST>
0

>  <SCORE.SYSTEM.DIHEDRAL>
0

>  <SCORE.SYSTEM.SOLV>
0

>  <SCORE.SYSTEM.norm>
0

>  <SCORE.heavy>
32

>  <SCORE.norm>
-0.0869111

>  <RMSD>
11.437

$$$$
ligand
 OpenBabel11021811513D
libRbt.so/2013.1/901 2013/11/27
 32 34  0  0  0  0  0  0  0  0999 V2000
   18.5985  -21.7851   -9.7095 P   0  0  1  0  0  0  0  0  0  0  0  0
   18.7477  -21.3306   -6.8807 P   0  0  2  0  0  0  0  0  0  0  0  0
   21.0380  -19.8267   -5.8279 P   0  0  1  0  0  0  0  0  0  0  0  0
   18.7148  -22.9757  -12.0247 C   0  0  0  0  0  0  0  0  0  0  0  0
   18.2006  -23.0191  -10.7241 O   0  0  0  0  0  0  0  0  0  0  0  0
   18.1271  -23.9767  -12.7903 C   0  0  1  0  0  0  0  0  0  0  0  0
   18.5143  -25.3380  -12.2454 O   0  0  0  0  0  0  0  0  0  0  0  0
   16.5330  -23.9108  -12.7094 C   0  0  1  0  0  0  0  0  0  0  0  0
   15.9738  -23.5757  -14.0737 O   0  0  0  0  0  0  0  0  0  0  0  0
   16.1582  -25.0522  -12.4302 C   0  0  1  0  0  0  0  0  0  0  0  0
   15.7732  -25.7612  -13.6740 O   0  0  0  0  0  0  0  0  0  0  0  0
   17.4570  -25.8142  -11.7185 C   0  0  2  0  0  0  0  0  0  0  0  0
   15.3310  -23.4130   -7.7060 N   0  0  0  0  0  0  0  0  0  0  0  0
   20.0252  -21.3607   -9.9551 O   0  5  0  0  0  0  0  0  0  0  0  0
   18.4115  -22.0368   -5.5913 O   0  5  0  0  0  0  0  0  0  0  0  0
   20.7244  -18.4259   -6.2988 O   0  0  0  0  0  0  0  0  0  0  0  0
   14.9904  -23.3310   -8.9827 C   0  0  0  0  0  0  0  0  0  0  0  0
   13.8876  -22.4751   -9.3710 N   0  0  0  0  0  0  0  0  0  0  0  0
   17.6442  -20.6361   -9.9448 O   0  0  0  0  0  0  0  0  0  0  0  0
   17.8850  -20.1042   -7.0239 O   0  0  0  0  0  0  0  0  0  0  0  0
   20.4646  -20.0233   -4.4414 O   0  5  0  0  0  0  0  0  0  0  0  0
   15.6241  -24.0059   -9.9200 N   0  0  0  0  0  0  0  0  0  0  0  0
   18.4625  -22.3173   -8.1612 O   0  0  0  0  0  0  0  0  0  0  0  0
   20.3323  -20.8888   -6.8782 O   0  0  0  0  0  0  0  0  0  0  0  0
   22.5391  -20.0158   -5.8080 O   0  0  0  0  0  0  0  0  0  0  0  0
   16.6483  -24.8075   -9.6036 C   0  0  0  0  0  0  0  0  0  0  0  0
   17.0242  -24.9109   -8.2796 C   0  0  0  0  0  0  0  0  0  0  0  0
   16.3317  -24.1806   -7.2946 C   0  0  0  0  0  0  0  0  0  0  0  0
   16.6911  -24.2658   -5.9379 O   0  0  0  0  0  0  0  0  0  0  0  0
   18.0612  -25.7636   -8.2181 N   0  0  0  0  0  0  0  0  0  0  0  0
   18.3159  -26.1695   -9.4498 C   0  0  0  0  0  0  0  0  0  0  0  0
   17.4777  -25.6029  -10.2975 N   0  0  0  0  0  0  0  0  0  0  0  0
  1  5  1  6  0  0  0
  1 14  1  0  0  0  0
  1 19  2  0  0  0  0
  1 23  1  0  0  0  0
  2 15  1  1  0  0  0
  2 20  2  0  0  0  0
  2 23  1  0  0  0  0
  2 24  1  0  0  0  0
  3 16  1  6  0  0  0
  3 21  1  0  0  0  0
  3 24  1  0  0  0  0
  3 25  2  0  0  0  0
  4  5  1  0  0  0  0
  6  4  1  1  0  0  0
  6  7  1  0  0  0  0
  6  8  1  0  0  0  0
  7 12  1  0  0  0  0
  8  9  1  6  0  0  0
  8 10  1  0  0  0  0
 10 11  1  6  0  0  0
 10 12  1  0  0  0  0
 12 32  1  1  0  0  0
 13 17  2  0  0  0  0
 13 28  1  0  0  0  0
 17 18  1  0  0  0  0
 17 22  1  0  0  0  0
 22 26  2  0  0  0  0
 26 27  1  0  0  0  0
 26 32  1  0  0  0  0
 27 28  2  0  0  0  0
 27 30  1  0  0  0  0
 28 29  1  0  0  0  0
 30 31  2  0  0  0  0
 31 32  1  0  0  0  0
M  CHG  3  14  -1  15  -1  21  -1
M  END
>  <CHROM.1>
-37.33845697,174.14934911,-80.11857470,-64.48588993,-171.38372333,113.56823615
-178.37853599,-63.05419987,18.07119303,-22.72878671,-8.97040490,-0.93608332
-0.72313687,-1.77445944

>  <Name>
ligand

>  <RI>
0

>  <Rbt.Current_Directory>
/home/itssahil/PROJECTS/Mol_Feturizer/New_Systems/rnas/4Y1I

>  <Rbt.Executable>
rbdock ($Id: //depot/dev/client3/rdock/2013.1/src/exe/rbdock.cxx#4 $)

>  <Rbt.Library>
libRbt.so (2013.1, Build901 2013/11/27)

>  <Rbt.Parameter_File>
/export/apps/rDock/src/rDock_2013.1_src/data/scripts/dock_solv.prm

>  <Rbt.Receptor>
prm/blind_docking_40.prm

>  <SCORE>
-11.8115

>  <SCORE.INTER>
-5.46469

>  <SCORE.INTER.CONST>
1

>  <SCORE.INTER.POLAR>
0

>  <SCORE.INTER.ROT>
8

>  <SCORE.INTER.SOLV>
29.1496

>  <SCORE.INTER.VDW>
-22.293

>  <SCORE.INTER.norm>
-0.170772

>  <SCORE.INTRA>
-6.35923

>  <SCORE.INTRA.DIHEDRAL>
-7.81341

>  <SCORE.INTRA.DIHEDRAL.0>
10.9594

>  <SCORE.INTRA.POLAR>
0

>  <SCORE.INTRA.POLAR.0>
0

>  <SCORE.INTRA.REPUL>
0

>  <SCORE.INTRA.REPUL.0>
0

>  <SCORE.INTRA.SOLV>
-0.403549

>  <SCORE.INTRA.SOLV.lig_0>
-124.914

>  <SCORE.INTRA.VDW>
-2.25075

>  <SCORE.INTRA.VDW.0>
-4.69801

>  <SCORE.INTRA.norm>
-0.198726

>  <SCORE.RESTR>
0.0123753

>  <SCORE.RESTR.CAVITY>
0.0123753

>  <SCORE.RESTR.norm>
0.00038673

>  <SCORE.SYSTEM>
0

>  <SCORE.SYSTEM.CONST>
0

>  <SCORE.SYSTEM.DIHEDRAL>
0

>  <SCORE.SYSTEM.SOLV>
0

>  <SCORE.SYSTEM.norm>
0

>  <SCORE.heavy>
32

>  <SCORE.norm>
-0.369111

>  <RMSD>
11.579

$$$$
ligand
 OpenBabel11021811513D
libRbt.so/2013.1/901 2013/11/27
 32 34  0  0  0  0  0  0  0  0999 V2000
   16.7210  -23.6956   -6.7300 P   0  0  1  0  0  0  0  0  0  0  0  0
   18.2244  -21.8326   -5.1489 P   0  0  2  0  0  0  0  0  0  0  0  0
   20.7518  -22.7792   -3.9950 P   0  0  1  0  0  0  0  0  0  0  0  0
   17.2527  -23.2944   -9.2495 C   0  0  0  0  0  0  0  0  0  0  0  0
   17.7117  -23.1668   -7.9338 O   0  0  0  0  0  0  0  0  0  0  0  0
   18.0941  -22.5923  -10.1053 C   0  0  1  0  0  0  0  0  0  0  0  0
   19.5148  -23.1046   -9.9676 O   0  0  0  0  0  0  0  0  0  0  0  0
   17.6926  -22.8227  -11.6343 C   0  0  1  0  0  0  0  0  0  0  0  0
   17.2253  -21.5157  -12.2339 O   0  0  0  0  0  0  0  0  0  0  0  0
   18.7327  -23.1413  -12.2157 C   0  0  1  0  0  0  0  0  0  0  0  0
   19.3244  -21.9427  -12.8568 O   0  0  0  0  0  0  0  0  0  0  0  0
   19.7639  -23.7311  -11.0484 C   0  0  2  0  0  0  0  0  0  0  0  0
   17.0589  -27.9238  -12.2688 N   0  0  0  0  0  0  0  0  0  0  0  0
   15.3486  -23.0911   -6.8944 O   0  5  0  0  0  0  0  0  0  0  0  0
   17.9244  -21.1525   -3.8367 O   0  5  0  0  0  0  0  0  0  0  0  0
   20.7361  -21.7577   -2.8821 O   0  0  0  0  0  0  0  0  0  0  0  0
   16.8911  -26.6858  -12.7069 C   0  0  0  0  0  0  0  0  0  0  0  0
   15.8297  -26.4037  -13.6522 N   0  0  0  0  0  0  0  0  0  0  0  0
   16.6568  -25.2054   -6.7821 O   0  0  0  0  0  0  0  0  0  0  0  0
   17.8579  -20.9167   -6.2871 O   0  0  0  0  0  0  0  0  0  0  0  0
   20.1656  -24.0774   -3.4843 O   0  5  0  0  0  0  0  0  0  0  0  0
   17.6615  -25.6934  -12.3105 N   0  0  0  0  0  0  0  0  0  0  0  0
   17.3448  -23.2114   -5.2895 O   0  0  0  0  0  0  0  0  0  0  0  0
   19.8257  -22.1992   -5.2341 O   0  0  0  0  0  0  0  0  0  0  0  0
   22.1791  -22.9899   -4.4508 O   0  0  0  0  0  0  0  0  0  0  0  0
   18.6530  -25.9114  -11.4381 C   0  0  0  0  0  0  0  0  0  0  0  0
   18.8494  -27.1931  -10.9651 C   0  0  0  0  0  0  0  0  0  0  0  0
   18.0139  -28.2385  -11.4035 C   0  0  0  0  0  0  0  0  0  0  0  0
   18.1898  -29.5542  -10.9400 O   0  0  0  0  0  0  0  0  0  0  0  0
   19.8894  -27.1564  -10.1146 N   0  0  0  0  0  0  0  0  0  0  0  0
   20.3172  -25.9069  -10.0632 C   0  0  0  0  0  0  0  0  0  0  0  0
   19.5838  -25.1428  -10.8510 N   0  0  0  0  0  0  0  0  0  0  0  0
  1  5  1  6  0  0  0
  1 14  1  0  0  0  0
  1 19  2  0  0  0  0
  1 23  1  0  0  0  0
  2 15  1  1  0  0  0
  2 20  2  0  0  0  0
  2 23  1  0  0  0  0
  2 24  1  0  0  0  0
  3 16  1  1  0  0  0
  3 21  1  0  0  0  0
  3 24  1  0  0  0  0
  3 25  2  0  0  0  0
  4  5  1  0  0  0  0
  6  4  1  1  0  0  0
  6  7  1  0  0  0  0
  6  8  1  0  0  0  0
  7 12  1  0  0  0  0
  8  9  1  6  0  0  0
  8 10  1  0  0  0  0
 10 11  1  1  0  0  0
 10 12  1  0  0  0  0
 12 32  1  1  0  0  0
 13 17  2  0  0  0  0
 13 28  1  0  0  0  0
 17 18  1  0  0  0  0
 17 22  1  0  0  0  0
 22 26  2  0  0  0  0
 26 27  1  0  0  0  0
 26 32  1  0  0  0  0
 27 28  2  0  0  0  0
 27 30  1  0  0  0  0
 28 29  1  0  0  0  0
 30 31  2  0  0  0  0
 31 32  1  0  0  0  0
M  CHG  3  14  -1  15  -1  21  -1
M  END
>  <CHROM.1>
-51.42868643,143.10909876,-60.48335384,57.53852695,169.48821175,114.55208662
30.17941892,40.36656266,18.45397560,-23.94837264,-8.38255750,1.07926162,-1.21718532
0.66517558

>  <Name>
ligand

>  <RI>
0

>  <Rbt.Current_Directory>
/home/itssahil/PROJECTS/Mol_Feturizer/New_Systems/rnas/4Y1I

>  <Rbt.Executable>
rbdock ($Id: //depot/dev/client3/rdock/2013.1/src/exe/rbdock.cxx#4 $)

>  <Rbt.Library>
libRbt.so (2013.1, Build901 2013/11/27)

>  <Rbt.Parameter_File>
/export/apps/rDock/src/rDock_2013.1_src/data/scripts/dock_solv.prm

>  <Rbt.Receptor>
prm/blind_docking_40.prm

>  <SCORE>
-13.1122

>  <SCORE.INTER>
-8.17623

>  <SCORE.INTER.CONST>
1

>  <SCORE.INTER.POLAR>
0

>  <SCORE.INTER.ROT>
8

>  <SCORE.INTER.SOLV>
40.6067

>  <SCORE.INTER.VDW>
-27.9197

>  <SCORE.INTER.norm>
-0.255507

>  <SCORE.INTRA>
-4.93594

>  <SCORE.INTRA.DIHEDRAL>
-5.63104

>  <SCORE.INTRA.DIHEDRAL.0>
10.9594

>  <SCORE.INTRA.POLAR>
0

>  <SCORE.INTRA.POLAR.0>
0

>  <SCORE.INTRA.REPUL>
0

>  <SCORE.INTRA.REPUL.0>
0

>  <SCORE.INTRA.SOLV>
-5.02444

>  <SCORE.INTRA.SOLV.lig_0>
-124.914

>  <SCORE.INTRA.VDW>
0.391798

>  <SCORE.INTRA.VDW.0>
-4.69801

>  <SCORE.INTRA.norm>
-0.154248

>  <SCORE.RESTR>
0

>  <SCORE.RESTR.CAVITY>
0

>  <SCORE.RESTR.norm>
0

>  <SCORE.SYSTEM>
0

>  <SCORE.SYSTEM.CONST>
0

>  <SCORE.SYSTEM.DIHEDRAL>
0

>  <SCORE.SYSTEM.SOLV>
0

>  <SCORE.SYSTEM.norm>
0

>  <SCORE.heavy>
32

>  <SCORE.norm>
-0.409755

>  <RMSD>
11.658

$$$$
ligand
 OpenBabel11021811513D
libRbt.so/2013.1/901 2013/11/27
 32 34  0  0  0  0  0  0  0  0999 V2000
   20.1923  -20.7935   -8.9635 P   0  0  1  0  0  0  0  0  0  0  0  0
   20.9435  -20.9924   -6.2018 P   0  0  2  0  0  0  0  0  0  0  0  0
   18.5633  -21.3104   -4.5140 P   0  0  1  0  0  0  0  0  0  0  0  0
   18.3146  -22.5545   -8.5580 C   0  0  0  0  0  0  0  0  0  0  0  0
   19.6458  -22.3462   -8.9353 O   0  0  0  0  0  0  0  0  0  0  0  0
   17.4689  -21.9909   -9.5069 C   0  0  1  0  0  0  0  0  0  0  0  0
   17.9807  -22.2970  -10.9013 O   0  0  0  0  0  0  0  0  0  0  0  0
   16.0042  -22.6239   -9.4301 C   0  0  1  0  0  0  0  0  0  0  0  0
   15.0172  -21.5580   -9.0108 O   0  0  0  0  0  0  0  0  0  0  0  0
   15.7159  -22.9573  -10.5821 C   0  0  1  0  0  0  0  0  0  0  0  0
   14.9032  -21.8904  -11.2138 O   0  0  0  0  0  0  0  0  0  0  0  0
   17.1578  -23.1335  -11.3969 C   0  0  2  0  0  0  0  0  0  0  0  0
   16.8366  -28.0266  -12.9265 N   0  0  0  0  0  0  0  0  0  0  0  0
   21.6053  -20.7580   -9.4910 O   0  5  0  0  0  0  0  0  0  0  0  0
   22.3476  -20.4676   -6.0358 O   0  5  0  0  0  0  0  0  0  0  0  0
   17.6528  -20.7341   -5.5728 O   0  0  0  0  0  0  0  0  0  0  0  0
   16.1033  -26.9969  -13.3196 C   0  0  0  0  0  0  0  0  0  0  0  0
   15.0596  -27.2015  -14.3036 N   0  0  0  0  0  0  0  0  0  0  0  0
   19.2695  -19.9697   -9.8331 O   0  0  0  0  0  0  0  0  0  0  0  0
   20.9898  -22.4612   -6.5324 O   0  0  0  0  0  0  0  0  0  0  0  0
   18.5291  -22.8208   -4.5997 O   0  5  0  0  0  0  0  0  0  0  0  0
   16.2909  -25.7828  -12.8437 N   0  0  0  0  0  0  0  0  0  0  0  0
   20.1844  -20.2088   -7.4284 O   0  0  0  0  0  0  0  0  0  0  0  0
   20.0965  -20.7704   -4.8093 O   0  0  0  0  0  0  0  0  0  0  0  0
   18.0898  -20.8499   -3.1527 O   0  0  0  0  0  0  0  0  0  0  0  0
   17.2443  -25.5511  -11.9332 C   0  0  0  0  0  0  0  0  0  0  0  0
   18.0229  -26.6075  -11.5058 C   0  0  0  0  0  0  0  0  0  0  0  0
   17.8049  -27.8966  -12.0290 C   0  0  0  0  0  0  0  0  0  0  0  0
   18.5822  -28.9921  -11.6134 O   0  0  0  0  0  0  0  0  0  0  0  0
   18.8965  -26.1282  -10.6039 N   0  0  0  0  0  0  0  0  0  0  0  0
   18.6680  -24.8325  -10.4785 C   0  0  0  0  0  0  0  0  0  0  0  0
   17.6757  -24.4675  -11.2687 N   0  0  0  0  0  0  0  0  0  0  0  0
  1  5  1  1  0  0  0
  1 14  1  0  0  0  0
  1 19  2  0  0  0  0
  1 23  1  0  0  0  0
  2 15  1  1  0  0  0
  2 20  2  0  0  0  0
  2 23  1  0  0  0  0
  2 24  1  0  0  0  0
  3 16  1  6  0  0  0
  3 21  1  0  0  0  0
  3 24  1  0  0  0  0
  3 25  2  0  0  0  0
  4  5  1  0  0  0  0
  6  4  1  1  0  0  0
  6  7  1  0  0  0  0
  6  8  1  0  0  0  0
  7 12  1  0  0  0  0
  8  9  1  6  0  0  0
  8 10  1  0  0  0  0
 10 11  1  6  0  0  0
 10 12  1  0  0  0  0
 12 32  1  1  0  0  0
 13 17  2  0  0  0  0
 13 28  1  0  0  0  0
 17 18  1  0  0  0  0
 17 22  1  0  0  0  0
 22 26  2  0  0  0  0
 26 27  1  0  0  0  0
 26 32  1  0  0  0  0
 27 28  2  0  0  0  0
 27 30  1  0  0  0  0
 28 29  1  0  0  0  0
 30 31  2  0  0  0  0
 31 32  1  0  0  0  0
M  CHG  3  14  -1  15  -1  21  -1
M  END
>  <CHROM.1>
-175.72161667,92.86186103,-57.67040869,42.56177096,65.55407448,-163.73938009
53.74163876,-174.65411799,18.41770490,-22.95213069,-8.94123128,-1.20891279
0.36946163,-2.39954097

>  <Name>
ligand

>  <RI>
0

>  <Rbt.Current_Directory>
/home/itssahil/PROJECTS/Mol_Feturizer/New_Systems/rnas/4Y1I

>  <Rbt.Executable>
rbdock ($Id: //depot/dev/client3/rdock/2013.1/src/exe/rbdock.cxx#4 $)

>  <Rbt.Library>
libRbt.so (2013.1, Build901 2013/11/27)

>  <Rbt.Parameter_File>
/export/apps/rDock/src/rDock_2013.1_src/data/scripts/dock_solv.prm

>  <Rbt.Receptor>
prm/blind_docking_40.prm

>  <SCORE>
-6.18772

>  <SCORE.INTER>
-2.52835

>  <SCORE.INTER.CONST>
1

>  <SCORE.INTER.POLAR>
0

>  <SCORE.INTER.ROT>
8

>  <SCORE.INTER.SOLV>
24.7981

>  <SCORE.INTER.VDW>
-18.8849

>  <SCORE.INTER.norm>
-0.0790108

>  <SCORE.INTRA>
-3.66466

>  <SCORE.INTRA.DIHEDRAL>
-7.00917

>  <SCORE.INTRA.DIHEDRAL.0>
10.9594

>  <SCORE.INTRA.POLAR>
0

>  <SCORE.INTRA.POLAR.0>
0

>  <SCORE.INTRA.REPUL>
0

>  <SCORE.INTRA.REPUL.0>
0

>  <SCORE.INTRA.SOLV>
-1.33011

>  <SCORE.INTRA.SOLV.lig_0>
-124.914

>  <SCORE.INTRA.VDW>
0.50498

>  <SCORE.INTRA.VDW.0>
-4.69801

>  <SCORE.INTRA.norm>
-0.114521

>  <SCORE.RESTR>
0.00528104

>  <SCORE.RESTR.CAVITY>
0.00528104

>  <SCORE.RESTR.norm>
0.000165033

>  <SCORE.SYSTEM>
0

>  <SCORE.SYSTEM.CONST>
0

>  <SCORE.SYSTEM.DIHEDRAL>
0

>  <SCORE.SYSTEM.SOLV>
0

>  <SCORE.SYSTEM.norm>
0

>  <SCORE.heavy>
32

>  <SCORE.norm>
-0.193366

>  <RMSD>
11.771

$$$$
ligand
 OpenBabel11021811513D
libRbt.so/2013.1/901 2013/11/27
 32 34  0  0  0  0  0  0  0  0999 V2000
   16.5087  -24.2394   -8.3053 P   0  0  1  0  0  0  0  0  0  0  0  0
   17.8167  -25.2512  -10.6497 P   0  0  2  0  0  0  0  0  0  0  0  0
   16.3108  -26.8719  -12.5787 P   0  0  1  0  0  0  0  0  0  0  0  0
   17.8240  -22.3821   -7.0357 C   0  0  0  0  0  0  0  0  0  0  0  0
   16.5622  -22.8683   -7.3956 O   0  0  0  0  0  0  0  0  0  0  0  0
   18.4131  -21.7621   -8.1320 C   0  0  1  0  0  0  0  0  0  0  0  0
   18.4775  -20.2640   -7.9051 O   0  0  0  0  0  0  0  0  0  0  0  0
   19.9249  -22.2399   -8.3278 C   0  0  1  0  0  0  0  0  0  0  0  0
   20.0491  -22.9927   -9.6332 O   0  0  0  0  0  0  0  0  0  0  0  0
   20.5968  -21.2109   -8.4330 C   0  0  1  0  0  0  0  0  0  0  0  0
   20.8144  -20.9105   -9.8683 O   0  0  0  0  0  0  0  0  0  0  0  0
   19.7089  -19.9933   -7.7239 C   0  0  2  0  0  0  0  0  0  0  0  0
   21.3950  -22.3704   -3.4941 N   0  0  0  0  0  0  0  0  0  0  0  0
   17.0786  -25.3958   -7.5217 O   0  5  0  0  0  0  0  0  0  0  0  0
   18.6499  -26.2698   -9.9131 O   0  5  0  0  0  0  0  0  0  0  0  0
   14.8879  -27.3703  -12.6749 O   0  0  0  0  0  0  0  0  0  0  0  0
   21.2742  -22.8638   -4.7166 C   0  0  0  0  0  0  0  0  0  0  0  0
   21.6460  -24.2417   -4.9673 N   0  0  0  0  0  0  0  0  0  0  0  0
   15.0728  -24.5066   -8.6967 O   0  0  0  0  0  0  0  0  0  0  0  0
   18.6044  -24.6979  -11.8083 O   0  0  0  0  0  0  0  0  0  0  0  0
   16.6215  -26.0225  -13.7918 O   0  5  0  0  0  0  0  0  0  0  0  0
   20.8243  -22.1401   -5.7213 N   0  0  0  0  0  0  0  0  0  0  0  0
   17.4219  -24.0094   -9.6513 O   0  0  0  0  0  0  0  0  0  0  0  0
   16.4400  -25.9561  -11.2097 O   0  0  0  0  0  0  0  0  0  0  0  0
   17.2461  -28.0596  -12.5147 O   0  0  0  0  0  0  0  0  0  0  0  0
   20.4698  -20.8633   -5.5322 C   0  0  0  0  0  0  0  0  0  0  0  0
   20.5855  -20.3242   -4.2669 C   0  0  0  0  0  0  0  0  0  0  0  0
   21.0697  -21.1164   -3.2081 C   0  0  0  0  0  0  0  0  0  0  0  0
   21.1991  -20.5950   -1.9088 O   0  0  0  0  0  0  0  0  0  0  0  0
   20.1740  -19.0464   -4.3317 N   0  0  0  0  0  0  0  0  0  0  0  0
   19.8190  -18.8058   -5.5818 C   0  0  0  0  0  0  0  0  0  0  0  0
   19.9875  -19.8881   -6.3184 N   0  0  0  0  0  0  0  0  0  0  0  0
  1  5  1  1  0  0  0
  1 14  1  0  0  0  0
  1 19  2  0  0  0  0
  1 23  1  0  0  0  0
  2 15  1  1  0  0  0
  2 20  2  0  0  0  0
  2 23  1  0  0  0  0
  2 24  1  0  0  0  0
  3 16  1  6  0  0  0
  3 21  1  0  0  0  0
  3 24  1  0  0  0  0
  3 25  2  0  0  0  0
  4  5  1  0  0  0  0
  6  4  1  1  0  0  0
  6  7  1  0  0  0  0
  6  8  1  0  0  0  0
  7 12  1  0  0  0  0
  8  9  1  6  0  0  0
  8 10  1  0  0  0  0
 10 11  1  6  0  0  0
 10 12  1  0  0  0  0
 12 32  1  1  0  0  0
 13 17  2  0  0  0  0
 13 28  1  0  0  0  0
 17 18  1  0  0  0  0
 17 22  1  0  0  0  0
 22 26  2  0  0  0  0
 26 27  1  0  0  0  0
 26 32  1  0  0  0  0
 27 28  2  0  0  0  0
 27 30  1  0  0  0  0
 28 29  1  0  0  0  0
 30 31  2  0  0  0  0
 31 32  1  0  0  0  0
M  CHG  3  14  -1  15  -1  21  -1
M  END
>  <CHROM.1>
64.13919838,-62.36023883,177.33233821,110.21665023,75.84661068,95.63311764
168.81146082,-80.57709461,18.56337444,-23.35615977,-8.34062518,2.60759063
-1.07684982,-1.25927452

>  <Name>
ligand

>  <RI>
0

>  <Rbt.Current_Directory>
/home/itssahil/PROJECTS/Mol_Feturizer/New_Systems/rnas/4Y1I

>  <Rbt.Executable>
rbdock ($Id: //depot/dev/client3/rdock/2013.1/src/exe/rbdock.cxx#4 $)

>  <Rbt.Library>
libRbt.so (2013.1, Build901 2013/11/27)

>  <Rbt.Parameter_File>
/export/apps/rDock/src/rDock_2013.1_src/data/scripts/dock_solv.prm

>  <Rbt.Receptor>
prm/blind_docking_40.prm

>  <SCORE>
-5.43705

>  <SCORE.INTER>
-3.61093

>  <SCORE.INTER.CONST>
1

>  <SCORE.INTER.POLAR>
0

>  <SCORE.INTER.ROT>
8

>  <SCORE.INTER.SOLV>
25.9703

>  <SCORE.INTER.VDW>
-19.9974

>  <SCORE.INTER.norm>
-0.112842

>  <SCORE.INTRA>
-1.88414

>  <SCORE.INTRA.DIHEDRAL>
-2.72566

>  <SCORE.INTRA.DIHEDRAL.0>
10.9594

>  <SCORE.INTRA.POLAR>
0

>  <SCORE.INTRA.POLAR.0>
0

>  <SCORE.INTRA.REPUL>
0

>  <SCORE.INTRA.REPUL.0>
0

>  <SCORE.INTRA.SOLV>
0.441725

>  <SCORE.INTRA.SOLV.lig_0>
-124.914

>  <SCORE.INTRA.VDW>
-0.742174

>  <SCORE.INTRA.VDW.0>
-4.69801

>  <SCORE.INTRA.norm>
-0.0588794

>  <SCORE.RESTR>
0.0580281

>  <SCORE.RESTR.CAVITY>
0.0580281

>  <SCORE.RESTR.norm>
0.00181338

>  <SCORE.SYSTEM>
0

>  <SCORE.SYSTEM.CONST>
0

>  <SCORE.SYSTEM.DIHEDRAL>
0

>  <SCORE.SYSTEM.SOLV>
0

>  <SCORE.SYSTEM.norm>
0

>  <SCORE.heavy>
32

>  <SCORE.norm>
-0.169908

>  <RMSD>
11.794

$$$$
ligand
 OpenBabel11021811513D
libRbt.so/2013.1/901 2013/11/27
 32 34  0  0  0  0  0  0  0  0999 V2000
   19.9891  -20.7078   -8.0759 P   0  0  1  0  0  0  0  0  0  0  0  0
   18.7151  -21.8584   -5.7772 P   0  0  2  0  0  0  0  0  0  0  0  0
   20.7436  -22.8131   -3.8827 P   0  0  1  0  0  0  0  0  0  0  0  0
   17.8775  -21.5891   -9.3231 C   0  0  0  0  0  0  0  0  0  0  0  0
   18.5921  -20.4591   -8.9105 O   0  0  0  0  0  0  0  0  0  0  0  0
   17.3751  -21.3795  -10.6026 C   0  0  1  0  0  0  0  0  0  0  0  0
   18.4399  -21.6990  -11.6341 O   0  0  0  0  0  0  0  0  0  0  0  0
   16.1542  -22.3610  -10.9162 C   0  0  1  0  0  0  0  0  0  0  0  0
   14.8912  -21.5499  -11.0984 O   0  0  0  0  0  0  0  0  0  0  0  0
   16.4106  -22.8883  -12.0014 C   0  0  1  0  0  0  0  0  0  0  0  0
   15.7140  -22.1513  -13.0828 O   0  0  0  0  0  0  0  0  0  0  0  0
   18.0598  -22.7730  -12.2038 C   0  0  2  0  0  0  0  0  0  0  0  0
   18.2022  -27.8794  -11.6653 N   0  0  0  0  0  0  0  0  0  0  0  0
   21.1001  -21.0636   -9.0326 O   0  5  0  0  0  0  0  0  0  0  0  0
   17.3323  -22.2761   -6.2104 O   0  5  0  0  0  0  0  0  0  0  0  0
   21.4943  -24.0268   -4.3786 O   0  0  0  0  0  0  0  0  0  0  0  0
   17.3232  -27.1519  -12.3366 C   0  0  0  0  0  0  0  0  0  0  0  0
   16.2368  -27.8120  -13.0321 N   0  0  0  0  0  0  0  0  0  0  0  0
   20.3228  -19.4522   -7.3024 O   0  0  0  0  0  0  0  0  0  0  0  0
   18.6842  -20.4303   -5.2993 O   0  0  0  0  0  0  0  0  0  0  0  0
   21.4803  -21.5641   -4.3151 O   0  5  0  0  0  0  0  0  0  0  0  0
   17.4022  -25.8381  -12.3950 N   0  0  0  0  0  0  0  0  0  0  0  0
   19.7616  -21.9605   -7.0378 O   0  0  0  0  0  0  0  0  0  0  0  0
   19.2363  -22.8330   -4.5588 O   0  0  0  0  0  0  0  0  0  0  0  0
   20.6510  -22.8733   -2.3737 O   0  0  0  0  0  0  0  0  0  0  0  0
   18.3901  -25.1896  -11.7664 C   0  0  0  0  0  0  0  0  0  0  0  0
   19.3199  -25.9243  -11.0588 C   0  0  0  0  0  0  0  0  0  0  0  0
   19.2159  -27.3279  -11.0110 C   0  0  0  0  0  0  0  0  0  0  0  0
   20.1480  -28.1031  -10.2989 O   0  0  0  0  0  0  0  0  0  0  0  0
   20.1987  -25.0591  -10.5247 N   0  0  0  0  0  0  0  0  0  0  0  0
   19.8286  -23.8427  -10.8855 C   0  0  0  0  0  0  0  0  0  0  0  0
   18.7408  -23.9010  -11.6309 N   0  0  0  0  0  0  0  0  0  0  0  0
  1  5  1  6  0  0  0
  1 14  1  0  0  0  0
  1 19  2  0  0  0  0
  1 23  1  0  0  0  0
  2 15  1  6  0  0  0
  2 20  2  0  0  0  0
  2 23  1  0  0  0  0
  2 24  1  0  0  0  0
  3 16  1  6  0  0  0
  3 21  1  0  0  0  0
  3 24  1  0  0  0  0
  3 25  2  0  0  0  0
  4  5  1  0  0  0  0
  6  4  1  1  0  0  0
  6  7  1  0  0  0  0
  6  8  1  0  0  0  0
  7 12  1  0  0  0  0
  8  9  1  6  0  0  0
  8 10  1  0  0  0  0
 10 11  1  6  0  0  0
 10 12  1  0  0  0  0
 12 32  1  1  0  0  0
 13 17  2  0  0  0  0
 13 28  1  0  0  0  0
 17 18  1  0  0  0  0
 17 22  1  0  0  0  0
 22 26  2  0  0  0  0
 26 27  1  0  0  0  0
 26 32  1  0  0  0  0
 27 28  2  0  0  0  0
 27 30  1  0  0  0  0
 28 29  1  0  0  0  0
 30 31  2  0  0  0  0
 31 32  1  0  0  0  0
M  CHG  3  14  -1  15  -1  21  -1
M  END
>  <CHROM.1>
79.11278319,88.14801875,-105.74716989,83.41633112,-140.12045971,164.34443453
-65.96240339,174.19752284,18.83495250,-23.07731613,-8.72932664,0.86567400
-1.05898532,0.51135958

>  <Name>
ligand

>  <RI>
0

>  <Rbt.Current_Directory>
/home/itssahil/PROJECTS/Mol_Feturizer/New_Systems/rnas/4Y1I

>  <Rbt.Executable>
rbdock ($Id: //depot/dev/client3/rdock/2013.1/src/exe/rbdock.cxx#4 $)

>  <Rbt.Library>
libRbt.so (2013.1, Build901 2013/11/27)

>  <Rbt.Parameter_File>
/export/apps/rDock/src/rDock_2013.1_src/data/scripts/dock_solv.prm

>  <Rbt.Receptor>
prm/blind_docking_40.prm

>  <SCORE>
-10.7541

>  <SCORE.INTER>
-9.91549

>  <SCORE.INTER.CONST>
1

>  <SCORE.INTER.POLAR>
0

>  <SCORE.INTER.ROT>
8

>  <SCORE.INTER.SOLV>
27.8072

>  <SCORE.INTER.VDW>
-24.8127

>  <SCORE.INTER.norm>
-0.309859

>  <SCORE.INTRA>
-0.847393

>  <SCORE.INTRA.DIHEDRAL>
1.29543

>  <SCORE.INTRA.DIHEDRAL.0>
10.9594

>  <SCORE.INTRA.POLAR>
0

>  <SCORE.INTRA.POLAR.0>
0

>  <SCORE.INTRA.REPUL>
0

>  <SCORE.INTRA.REPUL.0>
0

>  <SCORE.INTRA.SOLV>
-1.87908

>  <SCORE.INTRA.SOLV.lig_0>
-124.914

>  <SCORE.INTRA.VDW>
-0.555568

>  <SCORE.INTRA.VDW.0>
-4.69801

>  <SCORE.INTRA.norm>
-0.026481

>  <SCORE.RESTR>
0.00880425

>  <SCORE.RESTR.CAVITY>
0.00880425

>  <SCORE.RESTR.norm>
0.000275133

>  <SCORE.SYSTEM>
0

>  <SCORE.SYSTEM.CONST>
0

>  <SCORE.SYSTEM.DIHEDRAL>
0

>  <SCORE.SYSTEM.SOLV>
0

>  <SCORE.SYSTEM.norm>
0

>  <SCORE.heavy>
32

>  <SCORE.norm>
-0.336065

>  <RMSD>
11.857

$$$$
ligand
 OpenBabel11021811513D
libRbt.so/2013.1/901 2013/11/27
 32 34  0  0  0  0  0  0  0  0999 V2000
   17.3562  -24.8014   -9.1375 P   0  0  1  0  0  0  0  0  0  0  0  0
   18.5710  -24.0498  -11.6255 P   0  0  2  0  0  0  0  0  0  0  0  0
   16.4882  -25.4316  -13.1643 P   0  0  1  0  0  0  0  0  0  0  0  0
   18.1573  -23.3471   -7.1288 C   0  0  0  0  0  0  0  0  0  0  0  0
   17.0776  -24.0131   -7.7193 O   0  0  0  0  0  0  0  0  0  0  0  0
   18.4650  -22.2120   -7.8706 C   0  0  1  0  0  0  0  0  0  0  0  0
   17.7646  -21.0036   -7.2799 O   0  0  0  0  0  0  0  0  0  0  0  0
   20.0274  -21.8841   -7.8114 C   0  0  1  0  0  0  0  0  0  0  0  0
   20.6254  -22.0343   -9.1919 O   0  0  0  0  0  0  0  0  0  0  0  0
   20.1144  -20.6932   -7.5021 C   0  0  1  0  0  0  0  0  0  0  0  0
   20.2884  -19.8784   -8.7283 O   0  0  0  0  0  0  0  0  0  0  0  0
   18.6819  -20.2949   -6.7516 C   0  0  2  0  0  0  0  0  0  0  0  0
   21.6752  -20.8353   -2.6124 N   0  0  0  0  0  0  0  0  0  0  0  0
   18.5552  -25.7057   -8.9930 O   0  5  0  0  0  0  0  0  0  0  0  0
   19.9992  -24.3246  -11.2265 O   0  5  0  0  0  0  0  0  0  0  0  0
   16.4159  -26.7463  -13.9051 O   0  0  0  0  0  0  0  0  0  0  0  0
   22.0421  -20.5939   -3.8613 C   0  0  0  0  0  0  0  0  0  0  0  0
   23.4498  -20.4521   -4.1743 N   0  0  0  0  0  0  0  0  0  0  0  0
   16.1217  -25.5942   -9.5030 O   0  0  0  0  0  0  0  0  0  0  0  0
   18.5276  -22.8753  -12.5676 O   0  0  0  0  0  0  0  0  0  0  0  0
   15.3535  -25.3625  -12.1657 O   0  5  0  0  0  0  0  0  0  0  0  0
   21.1651  -20.4771   -4.8374 N   0  0  0  0  0  0  0  0  0  0  0  0
   17.6702  -23.6863  -10.3022 O   0  0  0  0  0  0  0  0  0  0  0  0
   17.9349  -25.3723  -12.3686 O   0  0  0  0  0  0  0  0  0  0  0  0
   16.3820  -24.2978  -14.1606 O   0  0  0  0  0  0  0  0  0  0  0  0
   19.8554  -20.6015   -4.5909 C   0  0  0  0  0  0  0  0  0  0  0  0
   19.4458  -20.8538   -3.2972 C   0  0  0  0  0  0  0  0  0  0  0  0
   20.4012  -20.9740   -2.2696 C   0  0  0  0  0  0  0  0  0  0  0  0
   20.0145  -21.2303   -0.9423 O   0  0  0  0  0  0  0  0  0  0  0  0
   18.1044  -20.9353   -3.3053 N   0  0  0  0  0  0  0  0  0  0  0  0
   17.7018  -20.7424   -4.5493 C   0  0  0  0  0  0  0  0  0  0  0  0
   18.7415  -20.5425   -5.3376 N   0  0  0  0  0  0  0  0  0  0  0  0
  1  5  1  1  0  0  0
  1 14  1  0  0  0  0
  1 19  2  0  0  0  0
  1 23  1  0  0  0  0
  2 15  1  1  0  0  0
  2 20  2  0  0  0  0
  2 23  1  0  0  0  0
  2 24  1  0  0  0  0
  3 16  1  6  0  0  0
  3 21  1  0  0  0  0
  3 24  1  0  0  0  0
  3 25  2  0  0  0  0
  4  5  1  0  0  0  0
  6  4  1  1  0  0  0
  6  7  1  0  0  0  0
  6  8  1  0  0  0  0
  7 12  1  0  0  0  0
  8  9  1  6  0  0  0
  8 10  1  0  0  0  0
 10 11  1  6  0  0  0
 10 12  1  0  0  0  0
 12 32  1  1  0  0  0
 13 17  2  0  0  0  0
 13 28  1  0  0  0  0
 17 18  1  0  0  0  0
 17 22  1  0  0  0  0
 22 26  2  0  0  0  0
 26 27  1  0  0  0  0
 26 32  1  0  0  0  0
 27 28  2  0  0  0  0
 27 30  1  0  0  0  0
 28 29  1  0  0  0  0
 30 31  2  0  0  0  0
 31 32  1  0  0  0  0
M  CHG  3  14  -1  15  -1  21  -1
M  END
>  <CHROM.1>
51.07771968,-66.91676422,169.65368348,94.76186433,71.88066292,142.49187960
154.21522617,-170.14401711,18.64532969,-22.88468984,-8.32631577,1.97964913
-0.62763423,-1.79342325

>  <Name>
ligand

>  <RI>
0

>  <Rbt.Current_Directory>
/home/itssahil/PROJECTS/Mol_Feturizer/New_Systems/rnas/4Y1I

>  <Rbt.Executable>
rbdock ($Id: //depot/dev/client3/rdock/2013.1/src/exe/rbdock.cxx#4 $)

>  <Rbt.Library>
libRbt.so (2013.1, Build901 2013/11/27)

>  <Rbt.Parameter_File>
/export/apps/rDock/src/rDock_2013.1_src/data/scripts/dock_solv.prm

>  <Rbt.Receptor>
prm/blind_docking_40.prm

>  <SCORE>
-6.49473

>  <SCORE.INTER>
-4.55207

>  <SCORE.INTER.CONST>
1

>  <SCORE.INTER.POLAR>
0

>  <SCORE.INTER.ROT>
8

>  <SCORE.INTER.SOLV>
21.6207

>  <SCORE.INTER.VDW>
-19.1749

>  <SCORE.INTER.norm>
-0.142252

>  <SCORE.INTRA>
-1.94799

>  <SCORE.INTRA.DIHEDRAL>
-4.34052

>  <SCORE.INTRA.DIHEDRAL.0>
10.9594

>  <SCORE.INTRA.POLAR>
0

>  <SCORE.INTRA.POLAR.0>
0

>  <SCORE.INTRA.REPUL>
0

>  <SCORE.INTRA.REPUL.0>
0

>  <SCORE.INTRA.SOLV>
2.29302

>  <SCORE.INTRA.SOLV.lig_0>
-124.914

>  <SCORE.INTRA.VDW>
-0.924239

>  <SCORE.INTRA.VDW.0>
-4.69801

>  <SCORE.INTRA.norm>
-0.0608746

>  <SCORE.RESTR>
0.00532582

>  <SCORE.RESTR.CAVITY>
0.00532582

>  <SCORE.RESTR.norm>
0.000166432

>  <SCORE.SYSTEM>
0

>  <SCORE.SYSTEM.CONST>
0

>  <SCORE.SYSTEM.DIHEDRAL>
0

>  <SCORE.SYSTEM.SOLV>
0

>  <SCORE.SYSTEM.norm>
0

>  <SCORE.heavy>
32

>  <SCORE.norm>
-0.20296

>  <RMSD>
12.100

$$$$
ligand
 OpenBabel11021811513D
libRbt.so/2013.1/901 2013/11/27
 32 34  0  0  0  0  0  0  0  0999 V2000
   16.8662  -25.0400   -8.3266 P   0  0  1  0  0  0  0  0  0  0  0  0
   16.6142  -25.8011  -11.0813 P   0  0  2  0  0  0  0  0  0  0  0  0
   17.1733  -23.0943  -12.0693 P   0  0  1  0  0  0  0  0  0  0  0  0
   18.3625  -22.9586   -7.8573 C   0  0  0  0  0  0  0  0  0  0  0  0
   17.1277  -23.4146   -8.3320 O   0  0  0  0  0  0  0  0  0  0  0  0
   18.6426  -21.7145   -8.4116 C   0  0  1  0  0  0  0  0  0  0  0  0
   17.9095  -20.6307   -7.6449 O   0  0  0  0  0  0  0  0  0  0  0  0
   20.1958  -21.3605   -8.2916 C   0  0  1  0  0  0  0  0  0  0  0  0
   20.8013  -21.2791   -9.6747 O   0  0  0  0  0  0  0  0  0  0  0  0
   20.2510  -20.2304   -7.8004 C   0  0  1  0  0  0  0  0  0  0  0  0
   20.4072  -19.2307   -8.8839 O   0  0  0  0  0  0  0  0  0  0  0  0
   18.8066  -19.9900   -7.0068 C   0  0  2  0  0  0  0  0  0  0  0  0
   21.7962  -21.0403   -2.9640 N   0  0  0  0  0  0  0  0  0  0  0  0
   18.1825  -25.7702   -8.4279 O   0  5  0  0  0  0  0  0  0  0  0  0
   15.5383  -25.9877  -12.1214 O   0  5  0  0  0  0  0  0  0  0  0  0
   18.4107  -22.3687  -12.5432 O   0  0  0  0  0  0  0  0  0  0  0  0
   22.1594  -20.5907   -4.1550 C   0  0  0  0  0  0  0  0  0  0  0  0
   23.5611  -20.3404   -4.4237 N   0  0  0  0  0  0  0  0  0  0  0  0
   16.1387  -25.4105   -7.0539 O   0  0  0  0  0  0  0  0  0  0  0  0
   17.3945  -27.0803  -10.9276 O   0  0  0  0  0  0  0  0  0  0  0  0
   16.2077  -23.2349  -13.2258 O   0  5  0  0  0  0  0  0  0  0  0  0
   21.2839  -20.3609   -5.1123 N   0  0  0  0  0  0  0  0  0  0  0  0
   15.9442  -25.4252   -9.6306 O   0  0  0  0  0  0  0  0  0  0  0  0
   17.6299  -24.5912  -11.5398 O   0  0  0  0  0  0  0  0  0  0  0  0
   16.5377  -22.3037  -10.9466 O   0  0  0  0  0  0  0  0  0  0  0  0
   19.9797  -20.5793   -4.9052 C   0  0  0  0  0  0  0  0  0  0  0  0
   19.5741  -21.0486   -3.6722 C   0  0  0  0  0  0  0  0  0  0  0  0
   20.5277  -21.2863   -2.6636 C   0  0  0  0  0  0  0  0  0  0  0  0
   20.1449  -21.7637   -1.3977 O   0  0  0  0  0  0  0  0  0  0  0  0
   18.2378  -21.1862   -3.7104 N   0  0  0  0  0  0  0  0  0  0  0  0
   17.8344  -20.8188   -4.9142 C   0  0  0  0  0  0  0  0  0  0  0  0
   18.8688  -20.4529   -5.6480 N   0  0  0  0  0  0  0  0  0  0  0  0
  1  5  1  6  0  0  0
  1 14  1  0  0  0  0
  1 19  2  0  0  0  0
  1 23  1  0  0  0  0
  2 15  1  6  0  0  0
  2 20  2  0  0  0  0
  2 23  1  0  0  0  0
  2 24  1  0  0  0  0
  3 16  1  6  0  0  0
  3 21  1  0  0  0  0
  3 24  1  0  0  0  0
  3 25  2  0  0  0  0
  4  5  1  0  0  0  0
  6  4  1  1  0  0  0
  6  7  1  0  0  0  0
  6  8  1  0  0  0  0
  7 12  1  0  0  0  0
  8  9  1  6  0  0  0
  8 10  1  0  0  0  0
 10 11  1  6  0  0  0
 10 12  1  0  0  0  0
 12 32  1  1  0  0  0
 13 17  2  0  0  0  0
 13 28  1  0  0  0  0
 17 18  1  0  0  0  0
 17 22  1  0  0  0  0
 22 26  2  0  0  0  0
 26 27  1  0  0  0  0
 26 32  1  0  0  0  0
 27 28  2  0  0  0  0
 27 30  1  0  0  0  0
 28 29  1  0  0  0  0
 30 31  2  0  0  0  0
 31 32  1  0  0  0  0
M  CHG  3  14  -1  15  -1  21  -1
M  END
>  <CHROM.1>
-26.73904597,-174.86639826,-173.04133315,81.17689416,155.74849990,143.60680407
89.36212248,48.58797064,18.45560580,-22.71126044,-8.11346755,2.42885473,-0.96582800
-1.32953098

>  <Name>
ligand

>  <RI>
0

>  <Rbt.Current_Directory>
/home/itssahil/PROJECTS/Mol_Feturizer/New_Systems/rnas/4Y1I

>  <Rbt.Executable>
rbdock ($Id: //depot/dev/client3/rdock/2013.1/src/exe/rbdock.cxx#4 $)

>  <Rbt.Library>
libRbt.so (2013.1, Build901 2013/11/27)

>  <Rbt.Parameter_File>
/export/apps/rDock/src/rDock_2013.1_src/data/scripts/dock_solv.prm

>  <Rbt.Receptor>
prm/blind_docking_40.prm

>  <SCORE>
-9.57626

>  <SCORE.INTER>
-7.32409

>  <SCORE.INTER.CONST>
1

>  <SCORE.INTER.POLAR>
0

>  <SCORE.INTER.ROT>
8

>  <SCORE.INTER.SOLV>
23.6269

>  <SCORE.INTER.VDW>
-21.6917

>  <SCORE.INTER.norm>
-0.228878

>  <SCORE.INTRA>
-2.7112

>  <SCORE.INTRA.DIHEDRAL>
-2.80342

>  <SCORE.INTRA.DIHEDRAL.0>
10.9594

>  <SCORE.INTRA.POLAR>
0

>  <SCORE.INTRA.POLAR.0>
0

>  <SCORE.INTRA.REPUL>
0

>  <SCORE.INTRA.REPUL.0>
0

>  <SCORE.INTRA.SOLV>
-0.998443

>  <SCORE.INTRA.SOLV.lig_0>
-124.914

>  <SCORE.INTRA.VDW>
-0.810269

>  <SCORE.INTRA.VDW.0>
-4.69801

>  <SCORE.INTRA.norm>
-0.084725

>  <SCORE.RESTR>
0.459031

>  <SCORE.RESTR.CAVITY>
0.459031

>  <SCORE.RESTR.norm>
0.0143447

>  <SCORE.SYSTEM>
0

>  <SCORE.SYSTEM.CONST>
0

>  <SCORE.SYSTEM.DIHEDRAL>
0

>  <SCORE.SYSTEM.SOLV>
0

>  <SCORE.SYSTEM.norm>
0

>  <SCORE.heavy>
32

>  <SCORE.norm>
-0.299258

>  <RMSD>
12.124

$$$$
ligand
 OpenBabel11021811513D
libRbt.so/2013.1/901 2013/11/27
 32 34  0  0  0  0  0  0  0  0999 V2000
   20.0392  -21.1333   -8.4710 P   0  0  1  0  0  0  0  0  0  0  0  0
   20.0865  -19.4199   -6.1703 P   0  0  2  0  0  0  0  0  0  0  0  0
   18.6768  -20.5677   -3.8659 P   0  0  1  0  0  0  0  0  0  0  0  0
   19.3992  -22.1188  -10.7970 C   0  0  0  0  0  0  0  0  0  0  0  0
   19.8017  -20.9787  -10.0927 O   0  0  0  0  0  0  0  0  0  0  0  0
   18.1444  -21.9012  -11.3551 C   0  0  1  0  0  0  0  0  0  0  0  0
   17.7935  -23.0380  -12.2956 O   0  0  0  0  0  0  0  0  0  0  0  0
   17.0038  -21.8914  -10.2366 C   0  0  1  0  0  0  0  0  0  0  0  0
   16.3832  -20.5146  -10.1635 O   0  0  0  0  0  0  0  0  0  0  0  0
   16.1303  -22.6665  -10.6335 C   0  0  1  0  0  0  0  0  0  0  0  0
   15.0615  -21.8960  -11.3131 O   0  0  0  0  0  0  0  0  0  0  0  0
   16.8683  -23.6945  -11.7163 C   0  0  2  0  0  0  0  0  0  0  0  0
   17.7524  -28.7499  -11.9311 N   0  0  0  0  0  0  0  0  0  0  0  0
   18.9212  -21.9453   -7.8654 O   0  5  0  0  0  0  0  0  0  0  0  0
   20.0048  -17.9520   -5.8342 O   0  5  0  0  0  0  0  0  0  0  0  0
   17.3508  -21.2624   -3.6619 O   0  0  0  0  0  0  0  0  0  0  0  0
   17.1516  -27.9857  -12.8298 C   0  0  0  0  0  0  0  0  0  0  0  0
   16.6552  -28.5826  -14.0533 N   0  0  0  0  0  0  0  0  0  0  0  0
   21.3776  -21.7968   -8.2373 O   0  0  0  0  0  0  0  0  0  0  0  0
   21.3869  -19.9827   -5.6594 O   0  0  0  0  0  0  0  0  0  0  0  0
   19.7929  -21.4935   -3.4336 O   0  5  0  0  0  0  0  0  0  0  0  0
   16.9881  -26.6909  -12.6493 N   0  0  0  0  0  0  0  0  0  0  0  0
   20.0320  -19.6352   -7.7967 O   0  0  0  0  0  0  0  0  0  0  0  0
   18.8308  -20.2226   -5.4741 O   0  0  0  0  0  0  0  0  0  0  0  0
   18.6993  -19.2973   -3.0444 O   0  0  0  0  0  0  0  0  0  0  0  0
   17.4318  -26.1005  -11.5330 C   0  0  0  0  0  0  0  0  0  0  0  0
   18.0615  -26.8746  -10.5795 C   0  0  0  0  0  0  0  0  0  0  0  0
   18.2259  -28.2566  -10.7943 C   0  0  0  0  0  0  0  0  0  0  0  0
   18.8636  -29.0707   -9.8417 O   0  0  0  0  0  0  0  0  0  0  0  0
   18.4109  -26.0643   -9.5658 N   0  0  0  0  0  0  0  0  0  0  0  0
   18.0144  -24.8429   -9.8781 C   0  0  0  0  0  0  0  0  0  0  0  0
   17.4208  -24.8454  -11.0571 N   0  0  0  0  0  0  0  0  0  0  0  0
  1  5  1  6  0  0  0
  1 14  1  0  0  0  0
  1 19  2  0  0  0  0
  1 23  1  0  0  0  0
  2 15  1  1  0  0  0
  2 20  2  0  0  0  0
  2 23  1  0  0  0  0
  2 24  1  0  0  0  0
  3 16  1  1  0  0  0
  3 21  1  0  0  0  0
  3 24  1  0  0  0  0
  3 25  2  0  0  0  0
  4  5  1  0  0  0  0
  6  4  1  1  0  0  0
  6  7  1  0  0  0  0
  6  8  1  0  0  0  0
  7 12  1  0  0  0  0
  8  9  1  6  0  0  0
  8 10  1  0  0  0  0
 10 11  1  6  0  0  0
 10 12  1  0  0  0  0
 12 32  1  1  0  0  0
 13 17  2  0  0  0  0
 13 28  1  0  0  0  0
 17 18  1  0  0  0  0
 17 22  1  0  0  0  0
 22 26  2  0  0  0  0
 26 27  1  0  0  0  0
 26 32  1  0  0  0  0
 27 28  2  0  0  0  0
 27 30  1  0  0  0  0
 28 29  1  0  0  0  0
 30 31  2  0  0  0  0
 31 32  1  0  0  0  0
M  CHG  3  14  -1  15  -1  21  -1
M  END
>  <CHROM.1>
-43.46825293,-177.44894013,177.68590810,171.16934662,117.50179678,-98.55882807
173.55548491,-73.46050510,18.51213668,-22.72923204,-8.71183648,0.71201275
-1.28649931,-0.05854478

>  <Name>
ligand

>  <RI>
0

>  <Rbt.Current_Directory>
/home/itssahil/PROJECTS/Mol_Feturizer/New_Systems/rnas/4Y1I

>  <Rbt.Executable>
rbdock ($Id: //depot/dev/client3/rdock/2013.1/src/exe/rbdock.cxx#4 $)

>  <Rbt.Library>
libRbt.so (2013.1, Build901 2013/11/27)

>  <Rbt.Parameter_File>
/export/apps/rDock/src/rDock_2013.1_src/data/scripts/dock_solv.prm

>  <Rbt.Receptor>
prm/blind_docking_40.prm

>  <SCORE>
-12.9524

>  <SCORE.INTER>
-11.7801

>  <SCORE.INTER.CONST>
1

>  <SCORE.INTER.POLAR>
0

>  <SCORE.INTER.ROT>
8

>  <SCORE.INTER.SOLV>
23.5209

>  <SCORE.INTER.VDW>
-24.6271

>  <SCORE.INTER.norm>
-0.36813

>  <SCORE.INTRA>
-1.17227

>  <SCORE.INTRA.DIHEDRAL>
-1.45396

>  <SCORE.INTRA.DIHEDRAL.0>
10.9594

>  <SCORE.INTRA.POLAR>
0

>  <SCORE.INTRA.POLAR.0>
0

>  <SCORE.INTRA.REPUL>
0

>  <SCORE.INTRA.REPUL.0>
0

>  <SCORE.INTRA.SOLV>
-0.0522109

>  <SCORE.INTRA.SOLV.lig_0>
-124.914

>  <SCORE.INTRA.VDW>
-0.419182

>  <SCORE.INTRA.VDW.0>
-4.69801

>  <SCORE.INTRA.norm>
-0.0366334

>  <SCORE.RESTR>
0

>  <SCORE.RESTR.CAVITY>
0

>  <SCORE.RESTR.norm>
0

>  <SCORE.SYSTEM>
0

>  <SCORE.SYSTEM.CONST>
0

>  <SCORE.SYSTEM.DIHEDRAL>
0

>  <SCORE.SYSTEM.SOLV>
0

>  <SCORE.SYSTEM.norm>
0

>  <SCORE.heavy>
32

>  <SCORE.norm>
-0.404763

>  <RMSD>
12.133

$$$$
ligand
 OpenBabel11021811513D
libRbt.so/2013.1/901 2013/11/27
 32 34  0  0  0  0  0  0  0  0999 V2000
   17.9272  -22.2532   -5.8115 P   0  0  1  0  0  0  0  0  0  0  0  0
   20.7673  -22.6595   -5.8157 P   0  0  2  0  0  0  0  0  0  0  0  0
   22.1667  -20.4387   -4.5024 P   0  0  1  0  0  0  0  0  0  0  0  0
   17.7228  -23.1522   -8.2490 C   0  0  0  0  0  0  0  0  0  0  0  0
   17.1452  -22.3522   -7.2569 O   0  0  0  0  0  0  0  0  0  0  0  0
   18.9185  -22.5805   -8.6694 C   0  0  1  0  0  0  0  0  0  0  0  0
   19.6138  -23.5020   -9.6529 O   0  0  0  0  0  0  0  0  0  0  0  0
   18.6648  -21.2132   -9.4558 C   0  0  1  0  0  0  0  0  0  0  0  0
   19.2589  -20.0648   -8.6720 O   0  0  0  0  0  0  0  0  0  0  0  0
   19.2984  -21.3037  -10.5102 C   0  0  1  0  0  0  0  0  0  0  0  0
   20.6098  -20.6299  -10.3549 O   0  0  0  0  0  0  0  0  0  0  0  0
   19.5226  -22.9305  -10.7876 C   0  0  2  0  0  0  0  0  0  0  0  0
   17.0203  -27.1961  -12.1761 N   0  0  0  0  0  0  0  0  0  0  0  0
   17.2141  -21.2760   -4.9100 O   0  5  0  0  0  0  0  0  0  0  0  0
   21.0103  -23.5578   -7.0024 O   0  5  0  0  0  0  0  0  0  0  0  0
   23.5958  -19.9499   -4.4713 O   0  0  0  0  0  0  0  0  0  0  0  0
   18.0885  -27.0900  -11.4013 C   0  0  0  0  0  0  0  0  0  0  0  0
   18.6806  -28.2867  -10.8384 N   0  0  0  0  0  0  0  0  0  0  0  0
   17.9722  -23.6302   -5.1885 O   0  0  0  0  0  0  0  0  0  0  0  0
   20.5087  -23.4991   -4.5921 O   0  0  0  0  0  0  0  0  0  0  0  0
   21.2697  -19.3174   -4.9795 O   0  5  0  0  0  0  0  0  0  0  0  0
   18.6364  -25.9249  -11.1219 N   0  0  0  0  0  0  0  0  0  0  0  0
   19.4543  -21.7103   -6.0797 O   0  0  0  0  0  0  0  0  0  0  0  0
   22.0831  -21.7065   -5.5584 O   0  0  0  0  0  0  0  0  0  0  0  0
   21.7654  -20.8776   -3.1111 O   0  0  0  0  0  0  0  0  0  0  0  0
   18.1206  -24.7955  -11.6218 C   0  0  0  0  0  0  0  0  0  0  0  0
   17.0070  -24.8781  -12.4331 C   0  0  0  0  0  0  0  0  0  0  0  0
   16.4377  -26.1343  -12.7175 C   0  0  0  0  0  0  0  0  0  0  0  0
   15.3032  -26.2501  -13.5400 O   0  0  0  0  0  0  0  0  0  0  0  0
   16.6826  -23.6279  -12.8047 N   0  0  0  0  0  0  0  0  0  0  0  0
   17.5573  -22.8081  -12.2483 C   0  0  0  0  0  0  0  0  0  0  0  0
   18.4318  -23.4927  -11.5349 N   0  0  0  0  0  0  0  0  0  0  0  0
  1  5  1  6  0  0  0
  1 14  1  0  0  0  0
  1 19  2  0  0  0  0
  1 23  1  0  0  0  0
  2 15  1  6  0  0  0
  2 20  2  0  0  0  0
  2 23  1  0  0  0  0
  2 24  1  0  0  0  0
  3 16  1  1  0  0  0
  3 21  1  0  0  0  0
  3 24  1  0  0  0  0
  3 25  2  0  0  0  0
  4  5  1  0  0  0  0
  6  4  1  6  0  0  0
  6  7  1  0  0  0  0
  6  8  1  0  0  0  0
  7 12  1  0  0  0  0
  8  9  1  1  0  0  0
  8 10  1  0  0  0  0
 10 11  1  1  0  0  0
 10 12  1  0  0  0  0
 12 32  1  1  0  0  0
 13 17  2  0  0  0  0
 13 28  1  0  0  0  0
 17 18  1  0  0  0  0
 17 22  1  0  0  0  0
 22 26  2  0  0  0  0
 26 27  1  0  0  0  0
 26 32  1  0  0  0  0
 27 28  2  0  0  0  0
 27 30  1  0  0  0  0
 28 29  1  0  0  0  0
 30 31  2  0  0  0  0
 31 32  1  0  0  0  0
M  CHG  3  14  -1  15  -1  21  -1
M  END
>  <CHROM.1>
175.97030297,82.72720903,173.60270968,174.90324922,-67.37498464,-42.13695257
-113.30927984,170.96352865,19.21154960,-22.87658978,-8.18387736,0.54227614
1.06855949,1.99823084

>  <Name>
ligand

>  <RI>
0

>  <Rbt.Current_Directory>
/home/itssahil/PROJECTS/Mol_Feturizer/New_Systems/rnas/4Y1I

>  <Rbt.Executable>
rbdock ($Id: //depot/dev/client3/rdock/2013.1/src/exe/rbdock.cxx#4 $)

>  <Rbt.Library>
libRbt.so (2013.1, Build901 2013/11/27)

>  <Rbt.Parameter_File>
/export/apps/rDock/src/rDock_2013.1_src/data/scripts/dock_solv.prm

>  <Rbt.Receptor>
prm/blind_docking_40.prm

>  <SCORE>
-6.06948

>  <SCORE.INTER>
-3.77206

>  <SCORE.INTER.CONST>
1

>  <SCORE.INTER.POLAR>
0

>  <SCORE.INTER.ROT>
8

>  <SCORE.INTER.SOLV>
24.5463

>  <SCORE.INTER.VDW>
-19.6301

>  <SCORE.INTER.norm>
-0.117877

>  <SCORE.INTRA>
-2.36328

>  <SCORE.INTRA.DIHEDRAL>
-6.04326

>  <SCORE.INTRA.DIHEDRAL.0>
10.9594

>  <SCORE.INTRA.POLAR>
0

>  <SCORE.INTRA.POLAR.0>
0

>  <SCORE.INTRA.REPUL>
0

>  <SCORE.INTRA.REPUL.0>
0

>  <SCORE.INTRA.SOLV>
1.71169

>  <SCORE.INTRA.SOLV.lig_0>
-124.914

>  <SCORE.INTRA.VDW>
-0.1975

>  <SCORE.INTRA.VDW.0>
-4.69801

>  <SCORE.INTRA.norm>
-0.0738526

>  <SCORE.RESTR>
0.0658594

>  <SCORE.RESTR.CAVITY>
0.0658594

>  <SCORE.RESTR.norm>
0.00205811

>  <SCORE.SYSTEM>
0

>  <SCORE.SYSTEM.CONST>
0

>  <SCORE.SYSTEM.DIHEDRAL>
0

>  <SCORE.SYSTEM.SOLV>
0

>  <SCORE.SYSTEM.norm>
0

>  <SCORE.heavy>
32

>  <SCORE.norm>
-0.189671

>  <RMSD>
12.162

$$$$
ligand
 OpenBabel11021811513D
libRbt.so/2013.1/901 2013/11/27
 32 34  0  0  0  0  0  0  0  0999 V2000
   19.9064  -20.7293   -7.1936 P   0  0  1  0  0  0  0  0  0  0  0  0
   18.4429  -21.3525   -4.8059 P   0  0  2  0  0  0  0  0  0  0  0  0
   18.6807  -19.7177   -2.3797 P   0  0  1  0  0  0  0  0  0  0  0  0
   19.5642  -22.3342   -9.2180 C   0  0  0  0  0  0  0  0  0  0  0  0
   19.0272  -21.8488   -8.0206 O   0  0  0  0  0  0  0  0  0  0  0  0
   18.9679  -21.6833  -10.2923 C   0  0  1  0  0  0  0  0  0  0  0  0
   19.5209  -22.2256  -11.5961 O   0  0  0  0  0  0  0  0  0  0  0  0
   17.3945  -21.9565  -10.3376 C   0  0  1  0  0  0  0  0  0  0  0  0
   16.6522  -20.6599  -10.1057 O   0  0  0  0  0  0  0  0  0  0  0  0
   17.1447  -22.3207  -11.4892 C   0  0  1  0  0  0  0  0  0  0  0  0
   16.6694  -21.1600  -12.2796 O   0  0  0  0  0  0  0  0  0  0  0  0
   18.5739  -22.8951  -12.1228 C   0  0  2  0  0  0  0  0  0  0  0  0
   16.7149  -27.6480  -12.7054 N   0  0  0  0  0  0  0  0  0  0  0  0
   21.2092  -21.3376   -6.7369 O   0  5  0  0  0  0  0  0  0  0  0  0
   19.5285  -22.2945   -4.3492 O   0  5  0  0  0  0  0  0  0  0  0  0
   19.7487  -20.6366   -1.8345 O   0  0  0  0  0  0  0  0  0  0  0  0
   16.2066  -26.5103  -13.1526 C   0  0  0  0  0  0  0  0  0  0  0  0
   14.9716  -26.5323  -13.9101 N   0  0  0  0  0  0  0  0  0  0  0  0
   20.1511  -19.5409   -8.0959 O   0  0  0  0  0  0  0  0  0  0  0  0
   17.3523  -22.1337   -5.4906 O   0  0  0  0  0  0  0  0  0  0  0  0
   19.3408  -18.5192   -3.0258 O   0  5  0  0  0  0  0  0  0  0  0  0
   16.7890  -25.3495  -12.9312 N   0  0  0  0  0  0  0  0  0  0  0  0
   19.0477  -20.2618   -5.8734 O   0  0  0  0  0  0  0  0  0  0  0  0
   17.8156  -20.5545   -3.5114 O   0  0  0  0  0  0  0  0  0  0  0  0
   17.7838  -19.2756   -1.2441 O   0  0  0  0  0  0  0  0  0  0  0  0
   17.9309  -25.2854  -12.2357 C   0  0  0  0  0  0  0  0  0  0  0  0
   18.4821  -26.4570  -11.7576 C   0  0  0  0  0  0  0  0  0  0  0  0
   17.8423  -27.6864  -12.0071 C   0  0  0  0  0  0  0  0  0  0  0  0
   18.3799  -28.8962  -11.5336 O   0  0  0  0  0  0  0  0  0  0  0  0
   19.6100  -26.1359  -11.1013 N   0  0  0  0  0  0  0  0  0  0  0  0
   19.7502  -24.8235  -11.1698 C   0  0  0  0  0  0  0  0  0  0  0  0
   18.7480  -24.2942  -11.8463 N   0  0  0  0  0  0  0  0  0  0  0  0
  1  5  1  6  0  0  0
  1 14  1  0  0  0  0
  1 19  2  0  0  0  0
  1 23  1  0  0  0  0
  2 15  1  1  0  0  0
  2 20  2  0  0  0  0
  2 23  1  0  0  0  0
  2 24  1  0  0  0  0
  3 16  1  1  0  0  0
  3 21  1  0  0  0  0
  3 24  1  0  0  0  0
  3 25  2  0  0  0  0
  4  5  1  0  0  0  0
  6  4  1  1  0  0  0
  6  7  1  0  0  0  0
  6  8  1  0  0  0  0
  7 12  1  0  0  0  0
  8  9  1  6  0  0  0
  8 10  1  0  0  0  0
 10 11  1  6  0  0  0
 10 12  1  0  0  0  0
 12 32  1  1  0  0  0
 13 17  2  0  0  0  0
 13 28  1  0  0  0  0
 17 18  1  0  0  0  0
 17 22  1  0  0  0  0
 22 26  2  0  0  0  0
 26 27  1  0  0  0  0
 26 32  1  0  0  0  0
 27 28  2  0  0  0  0
 27 30  1  0  0  0  0
 28 29  1  0  0  0  0
 30 31  2  0  0  0  0
 31 32  1  0  0  0  0
M  CHG  3  14  -1  15  -1  21  -1
M  END
>  <CHROM.1>
-63.80666655,51.82114970,-53.23489121,-178.70893824,-99.96699471,179.27965432
52.64331482,52.31034127,18.46515462,-22.53826846,-8.28219211,-0.26597444
-1.43597844,-0.82780620

>  <Name>
ligand

>  <RI>
0

>  <Rbt.Current_Directory>
/home/itssahil/PROJECTS/Mol_Feturizer/New_Systems/rnas/4Y1I

>  <Rbt.Executable>
rbdock ($Id: //depot/dev/client3/rdock/2013.1/src/exe/rbdock.cxx#4 $)

>  <Rbt.Library>
libRbt.so (2013.1, Build901 2013/11/27)

>  <Rbt.Parameter_File>
/export/apps/rDock/src/rDock_2013.1_src/data/scripts/dock_solv.prm

>  <Rbt.Receptor>
prm/blind_docking_40.prm

>  <SCORE>
-14.4332

>  <SCORE.INTER>
-10.7723

>  <SCORE.INTER.CONST>
1

>  <SCORE.INTER.POLAR>
0

>  <SCORE.INTER.ROT>
8

>  <SCORE.INTER.SOLV>
30.0181

>  <SCORE.INTER.VDW>
-26.1209

>  <SCORE.INTER.norm>
-0.336633

>  <SCORE.INTRA>
-3.66098

>  <SCORE.INTRA.DIHEDRAL>
-3.95072

>  <SCORE.INTRA.DIHEDRAL.0>
10.9594

>  <SCORE.INTRA.POLAR>
0

>  <SCORE.INTRA.POLAR.0>
0

>  <SCORE.INTRA.REPUL>
0

>  <SCORE.INTRA.REPUL.0>
0

>  <SCORE.INTRA.SOLV>
-3.89599

>  <SCORE.INTRA.SOLV.lig_0>
-124.914

>  <SCORE.INTRA.VDW>
0.26237

>  <SCORE.INTRA.VDW.0>
-4.69801

>  <SCORE.INTRA.norm>
-0.114406

>  <SCORE.RESTR>
0

>  <SCORE.RESTR.CAVITY>
0

>  <SCORE.RESTR.norm>
0

>  <SCORE.SYSTEM>
0

>  <SCORE.SYSTEM.CONST>
0

>  <SCORE.SYSTEM.DIHEDRAL>
0

>  <SCORE.SYSTEM.SOLV>
0

>  <SCORE.SYSTEM.norm>
0

>  <SCORE.heavy>
32

>  <SCORE.norm>
-0.451039

>  <RMSD>
12.270

$$$$
ligand
 OpenBabel11021811513D
libRbt.so/2013.1/901 2013/11/27
 32 34  0  0  0  0  0  0  0  0999 V2000
   18.1941  -21.8535   -7.0103 P   0  0  1  0  0  0  0  0  0  0  0  0
   18.9527  -20.4416   -4.6308 P   0  0  2  0  0  0  0  0  0  0  0  0
   18.6291  -19.1931   -1.9942 P   0  0  1  0  0  0  0  0  0  0  0  0
   18.3966  -21.8297   -9.6083 C   0  0  0  0  0  0  0  0  0  0  0  0
   17.6589  -21.4001   -8.4997 O   0  0  0  0  0  0  0  0  0  0  0  0
   17.6976  -21.5359  -10.7738 C   0  0  1  0  0  0  0  0  0  0  0  0
   18.4669  -22.0419  -11.9788 O   0  0  0  0  0  0  0  0  0  0  0  0
   16.2866  -22.2841  -10.8103 C   0  0  1  0  0  0  0  0  0  0  0  0
   15.1739  -21.2610  -10.7752 O   0  0  0  0  0  0  0  0  0  0  0  0
   16.2291  -22.8504  -11.9045 C   0  0  1  0  0  0  0  0  0  0  0  0
   15.4736  -22.0027  -12.8576 O   0  0  0  0  0  0  0  0  0  0  0  0
   17.8008  -23.0317  -12.4249 C   0  0  2  0  0  0  0  0  0  0  0  0
   17.3715  -28.1441  -12.1701 N   0  0  0  0  0  0  0  0  0  0  0  0
   17.3563  -22.9960   -6.4917 O   0  5  0  0  0  0  0  0  0  0  0  0
   20.1740  -19.5997   -4.9032 O   0  5  0  0  0  0  0  0  0  0  0  0
   19.7884  -20.0700   -1.5828 O   0  0  0  0  0  0  0  0  0  0  0  0
   16.5509  -27.2822  -12.7501 C   0  0  0  0  0  0  0  0  0  0  0  0
   15.3610  -27.7714  -13.4167 N   0  0  0  0  0  0  0  0  0  0  0  0
   19.6480  -22.2544   -7.1180 O   0  0  0  0  0  0  0  0  0  0  0  0
   19.3769  -21.8224   -4.2039 O   0  0  0  0  0  0  0  0  0  0  0  0
   19.1169  -17.7698   -2.1551 O   0  5  0  0  0  0  0  0  0  0  0  0
   16.7801  -25.9849  -12.7424 N   0  0  0  0  0  0  0  0  0  0  0  0
   18.0400  -20.5764   -5.9886 O   0  0  0  0  0  0  0  0  0  0  0  0
   18.0536  -19.7513   -3.4387 O   0  0  0  0  0  0  0  0  0  0  0  0
   17.5554  -19.2641   -0.9304 O   0  0  0  0  0  0  0  0  0  0  0  0
   17.8676  -25.4920  -12.1374 C   0  0  0  0  0  0  0  0  0  0  0  0
   18.7396  -26.3689  -11.5245 C   0  0  0  0  0  0  0  0  0  0  0  0
   18.4746  -27.7518  -11.5461 C   0  0  0  0  0  0  0  0  0  0  0  0
   19.3444  -28.6695  -10.9311 O   0  0  0  0  0  0  0  0  0  0  0  0
   19.7395  -25.6431  -10.9958 N   0  0  0  0  0  0  0  0  0  0  0  0
   19.4966  -24.3730  -11.2692 C   0  0  0  0  0  0  0  0  0  0  0  0
   18.3732  -24.2622  -11.9532 N   0  0  0  0  0  0  0  0  0  0  0  0
  1  5  1  6  0  0  0
  1 14  1  0  0  0  0
  1 19  2  0  0  0  0
  1 23  1  0  0  0  0
  2 15  1  6  0  0  0
  2 20  2  0  0  0  0
  2 23  1  0  0  0  0
  2 24  1  0  0  0  0
  3 16  1  1  0  0  0
  3 21  1  0  0  0  0
  3 24  1  0  0  0  0
  3 25  2  0  0  0  0
  4  5  1  0  0  0  0
  6  4  1  1  0  0  0
  6  7  1  0  0  0  0
  6  8  1  0  0  0  0
  7 12  1  0  0  0  0
  8  9  1  6  0  0  0
  8 10  1  0  0  0  0
 10 11  1  6  0  0  0
 10 12  1  0  0  0  0
 12 32  1  1  0  0  0
 13 17  2  0  0  0  0
 13 28  1  0  0  0  0
 17 18  1  0  0  0  0
 17 22  1  0  0  0  0
 22 26  2  0  0  0  0
 26 27  1  0  0  0  0
 26 32  1  0  0  0  0
 27 28  2  0  0  0  0
 27 30  1  0  0  0  0
 28 29  1  0  0  0  0
 30 31  2  0  0  0  0
 31 32  1  0  0  0  0
M  CHG  3  14  -1  15  -1  21  -1
M  END
>  <CHROM.1>
-102.18999035,94.54957343,-33.02503428,-178.01601459,170.90534870,174.27908397
-156.44058247,-47.92608631,18.07914633,-22.59356971,-8.17408367,1.30692314
-1.08494600,0.75719172

>  <Name>
ligand

>  <RI>
0

>  <Rbt.Current_Directory>
/home/itssahil/PROJECTS/Mol_Feturizer/New_Systems/rnas/4Y1I

>  <Rbt.Executable>
rbdock ($Id: //depot/dev/client3/rdock/2013.1/src/exe/rbdock.cxx#4 $)

>  <Rbt.Library>
libRbt.so (2013.1, Build901 2013/11/27)

>  <Rbt.Parameter_File>
/export/apps/rDock/src/rDock_2013.1_src/data/scripts/dock_solv.prm

>  <Rbt.Receptor>
prm/blind_docking_40.prm

>  <SCORE>
-12.7707

>  <SCORE.INTER>
-10.2764

>  <SCORE.INTER.CONST>
1

>  <SCORE.INTER.POLAR>
0

>  <SCORE.INTER.ROT>
8

>  <SCORE.INTER.SOLV>
28.403

>  <SCORE.INTER.VDW>
-25.2519

>  <SCORE.INTER.norm>
-0.321137

>  <SCORE.INTRA>
-2.4943

>  <SCORE.INTRA.DIHEDRAL>
-3.94091

>  <SCORE.INTRA.DIHEDRAL.0>
10.9594

>  <SCORE.INTRA.POLAR>
0

>  <SCORE.INTRA.POLAR.0>
0

>  <SCORE.INTRA.REPUL>
0

>  <SCORE.INTRA.REPUL.0>
0

>  <SCORE.INTRA.SOLV>
-3.33772

>  <SCORE.INTRA.SOLV.lig_0>
-124.914

>  <SCORE.INTRA.VDW>
1.14502

>  <SCORE.INTRA.VDW.0>
-4.69801

>  <SCORE.INTRA.norm>
-0.0779468

>  <SCORE.RESTR>
0

>  <SCORE.RESTR.CAVITY>
0

>  <SCORE.RESTR.norm>
0

>  <SCORE.SYSTEM>
0

>  <SCORE.SYSTEM.CONST>
0

>  <SCORE.SYSTEM.DIHEDRAL>
0

>  <SCORE.SYSTEM.SOLV>
0

>  <SCORE.SYSTEM.norm>
0

>  <SCORE.heavy>
32

>  <SCORE.norm>
-0.399083

>  <RMSD>
12.473

$$$$
ligand
 OpenBabel11021811513D
libRbt.so/2013.1/901 2013/11/27
 32 34  0  0  0  0  0  0  0  0999 V2000
   16.3338  -24.8035   -7.7365 P   0  0  1  0  0  0  0  0  0  0  0  0
   17.7135  -25.4424  -10.1694 P   0  0  2  0  0  0  0  0  0  0  0  0
   17.6566  -23.1093  -11.9495 P   0  0  1  0  0  0  0  0  0  0  0  0
   18.1389  -22.9358   -7.5251 C   0  0  0  0  0  0  0  0  0  0  0  0
   16.8152  -23.2346   -7.8666 O   0  0  0  0  0  0  0  0  0  0  0  0
   18.5156  -21.7405   -8.1274 C   0  0  1  0  0  0  0  0  0  0  0  0
   17.8724  -20.5728   -7.4044 O   0  0  0  0  0  0  0  0  0  0  0  0
   20.0922  -21.5064   -8.0199 C   0  0  1  0  0  0  0  0  0  0  0  0
   20.6992  -21.5274   -9.4046 O   0  0  0  0  0  0  0  0  0  0  0  0
   20.2379  -20.3660   -7.5733 C   0  0  1  0  0  0  0  0  0  0  0  0
   20.4706  -19.4249   -8.6950 O   0  0  0  0  0  0  0  0  0  0  0  0
   18.8189  -19.9808   -6.7911 C   0  0  2  0  0  0  0  0  0  0  0  0
   21.7222  -21.0531   -2.6915 N   0  0  0  0  0  0  0  0  0  0  0  0
   16.3675  -25.2307   -6.2899 O   0  5  0  0  0  0  0  0  0  0  0  0
   16.8612  -26.3107  -11.0605 O   0  5  0  0  0  0  0  0  0  0  0  0
   16.8861  -23.8779  -12.9973 O   0  0  0  0  0  0  0  0  0  0  0  0
   22.1170  -20.6728   -3.8965 C   0  0  0  0  0  0  0  0  0  0  0  0
   23.5324  -20.5186   -4.1654 N   0  0  0  0  0  0  0  0  0  0  0  0
   14.9391  -24.9323   -8.3062 O   0  0  0  0  0  0  0  0  0  0  0  0
   19.1688  -25.7470  -10.4109 O   0  0  0  0  0  0  0  0  0  0  0  0
   17.1287  -21.6927  -11.8860 O   0  5  0  0  0  0  0  0  0  0  0  0
   21.2611  -20.4276   -4.8676 N   0  0  0  0  0  0  0  0  0  0  0  0
   17.3762  -25.7425   -8.5912 O   0  0  0  0  0  0  0  0  0  0  0  0
   17.4244  -23.8560  -10.4941 O   0  0  0  0  0  0  0  0  0  0  0  0
   19.1240  -23.1078  -12.3187 O   0  0  0  0  0  0  0  0  0  0  0  0
   19.9451  -20.5584   -4.6608 C   0  0  0  0  0  0  0  0  0  0  0  0
   19.5066  -20.9542   -3.4134 C   0  0  0  0  0  0  0  0  0  0  0  0
   20.4398  -21.2100   -2.3902 C   0  0  0  0  0  0  0  0  0  0  0  0
   20.0234  -21.6140   -1.1094 O   0  0  0  0  0  0  0  0  0  0  0  0
   18.1646  -21.0119   -3.4550 N   0  0  0  0  0  0  0  0  0  0  0  0
   17.7893  -20.6676   -4.6746 C   0  0  0  0  0  0  0  0  0  0  0  0
   18.8471  -20.3937   -5.4152 N   0  0  0  0  0  0  0  0  0  0  0  0
  1  5  1  6  0  0  0
  1 14  1  0  0  0  0
  1 19  2  0  0  0  0
  1 23  1  0  0  0  0
  2 15  1  6  0  0  0
  2 20  2  0  0  0  0
  2 23  1  0  0  0  0
  2 24  1  0  0  0  0
  3 16  1  6  0  0  0
  3 21  1  0  0  0  0
  3 24  1  0  0  0  0
  3 25  2  0  0  0  0
  4  5  1  0  0  0  0
  6  4  1  1  0  0  0
  6  7  1  0  0  0  0
  6  8  1  0  0  0  0
  7 12  1  0  0  0  0
  8  9  1  6  0  0  0
  8 10  1  0  0  0  0
 10 11  1  6  0  0  0
 10 12  1  0  0  0  0
 12 32  1  1  0  0  0
 13 17  2  0  0  0  0
 13 28  1  0  0  0  0
 17 18  1  0  0  0  0
 17 22  1  0  0  0  0
 22 26  2  0  0  0  0
 26 27  1  0  0  0  0
 26 32  1  0  0  0  0
 27 28  2  0  0  0  0
 27 30  1  0  0  0  0
 28 29  1  0  0  0  0
 30 31  2  0  0  0  0
 31 32  1  0  0  0  0
M  CHG  3  14  -1  15  -1  21  -1
M  END
>  <CHROM.1>
65.15127497,-96.87032365,54.75208646,74.67562370,158.58001948,144.73049404
-53.67696410,-60.18518741,18.58124408,-22.62720896,-7.74483156,2.16895698
-0.84457411,-1.57835292

>  <Name>
ligand

>  <RI>
0

>  <Rbt.Current_Directory>
/home/itssahil/PROJECTS/Mol_Feturizer/New_Systems/rnas/4Y1I

>  <Rbt.Executable>
rbdock ($Id: //depot/dev/client3/rdock/2013.1/src/exe/rbdock.cxx#4 $)

>  <Rbt.Library>
libRbt.so (2013.1, Build901 2013/11/27)

>  <Rbt.Parameter_File>
/export/apps/rDock/src/rDock_2013.1_src/data/scripts/dock_solv.prm

>  <Rbt.Receptor>
prm/blind_docking_40.prm

>  <SCORE>
-12.1716

>  <SCORE.INTER>
-6.66063

>  <SCORE.INTER.CONST>
1

>  <SCORE.INTER.POLAR>
0

>  <SCORE.INTER.ROT>
8

>  <SCORE.INTER.SOLV>
28.8677

>  <SCORE.INTER.VDW>
-22.9963

>  <SCORE.INTER.norm>
-0.208145

>  <SCORE.INTRA>
-5.68081

>  <SCORE.INTRA.DIHEDRAL>
-5.19027

>  <SCORE.INTRA.DIHEDRAL.0>
10.9594

>  <SCORE.INTRA.POLAR>
0

>  <SCORE.INTRA.POLAR.0>
0

>  <SCORE.INTRA.REPUL>
0

>  <SCORE.INTRA.REPUL.0>
0

>  <SCORE.INTRA.SOLV>
-4.02646

>  <SCORE.INTRA.SOLV.lig_0>
-124.914

>  <SCORE.INTRA.VDW>
-1.07245

>  <SCORE.INTRA.VDW.0>
-4.69801

>  <SCORE.INTRA.norm>
-0.177525

>  <SCORE.RESTR>
0.169847

>  <SCORE.RESTR.CAVITY>
0.169847

>  <SCORE.RESTR.norm>
0.00530772

>  <SCORE.SYSTEM>
0

>  <SCORE.SYSTEM.CONST>
0

>  <SCORE.SYSTEM.DIHEDRAL>
0

>  <SCORE.SYSTEM.SOLV>
0

>  <SCORE.SYSTEM.norm>
0

>  <SCORE.heavy>
32

>  <SCORE.norm>
-0.380362

>  <RMSD>
12.483

$$$$
ligand
 OpenBabel11021811513D
libRbt.so/2013.1/901 2013/11/27
 32 34  0  0  0  0  0  0  0  0999 V2000
   16.2616  -24.8070   -7.8144 P   0  0  1  0  0  0  0  0  0  0  0  0
   17.6188  -25.5989  -10.2148 P   0  0  2  0  0  0  0  0  0  0  0  0
   17.7925  -23.3373  -12.0777 P   0  0  1  0  0  0  0  0  0  0  0  0
   17.9309  -22.8377   -7.4582 C   0  0  0  0  0  0  0  0  0  0  0  0
   16.7355  -23.2493   -8.0579 O   0  0  0  0  0  0  0  0  0  0  0  0
   18.3759  -21.6679   -8.0639 C   0  0  1  0  0  0  0  0  0  0  0  0
   17.8261  -20.4627   -7.3255 O   0  0  0  0  0  0  0  0  0  0  0  0
   19.9664  -21.5405   -7.9852 C   0  0  1  0  0  0  0  0  0  0  0  0
   20.5449  -21.5963   -9.3810 O   0  0  0  0  0  0  0  0  0  0  0  0
   20.1966  -20.4143   -7.5380 C   0  0  1  0  0  0  0  0  0  0  0  0
   20.4711  -19.4862   -8.6610 O   0  0  0  0  0  0  0  0  0  0  0  0
   18.8213  -19.9382   -6.7282 C   0  0  2  0  0  0  0  0  0  0  0  0
   21.7163  -21.0093   -2.6224 N   0  0  0  0  0  0  0  0  0  0  0  0
   16.3172  -25.1345   -6.3428 O   0  5  0  0  0  0  0  0  0  0  0  0
   16.5838  -26.3086  -11.0511 O   0  5  0  0  0  0  0  0  0  0  0  0
   19.1740  -23.6836  -12.5817 O   0  0  0  0  0  0  0  0  0  0  0  0
   22.1130  -20.6198   -3.8239 C   0  0  0  0  0  0  0  0  0  0  0  0
   23.5283  -20.4535   -4.0863 N   0  0  0  0  0  0  0  0  0  0  0  0
   14.8596  -24.9779   -8.3541 O   0  0  0  0  0  0  0  0  0  0  0  0
   18.9804  -26.1764  -10.5002 O   0  0  0  0  0  0  0  0  0  0  0  0
   16.7610  -23.9288  -13.0136 O   0  5  0  0  0  0  0  0  0  0  0  0
   21.2591  -20.3762   -4.7971 N   0  0  0  0  0  0  0  0  0  0  0  0
   17.2953  -25.7992   -8.6180 O   0  0  0  0  0  0  0  0  0  0  0  0
   17.6189  -23.9930  -10.5713 O   0  0  0  0  0  0  0  0  0  0  0  0
   17.6508  -21.8319  -12.0225 O   0  0  0  0  0  0  0  0  0  0  0  0
   19.9434  -20.5180   -4.5964 C   0  0  0  0  0  0  0  0  0  0  0  0
   19.5029  -20.9235   -3.3527 C   0  0  0  0  0  0  0  0  0  0  0  0
   20.4339  -21.1775   -2.3271 C   0  0  0  0  0  0  0  0  0  0  0  0
   20.0155  -21.5911   -1.0501 O   0  0  0  0  0  0  0  0  0  0  0  0
   18.1615  -20.9912   -3.4001 N   0  0  0  0  0  0  0  0  0  0  0  0
   17.7886  -20.6435   -4.6194 C   0  0  0  0  0  0  0  0  0  0  0  0
   18.8472  -20.3578   -5.3543 N   0  0  0  0  0  0  0  0  0  0  0  0
  1  5  1  6  0  0  0
  1 14  1  0  0  0  0
  1 19  2  0  0  0  0
  1 23  1  0  0  0  0
  2 15  1  6  0  0  0
  2 20  2  0  0  0  0
  2 23  1  0  0  0  0
  2 24  1  0  0  0  0
  3 16  1  6  0  0  0
  3 21  1  0  0  0  0
  3 24  1  0  0  0  0
  3 25  2  0  0  0  0
  4  5  1  0  0  0  0
  6  4  1  1  0  0  0
  6  7  1  0  0  0  0
  6  8  1  0  0  0  0
  7 12  1  0  0  0  0
  8  9  1  6  0  0  0
  8 10  1  0  0  0  0
 10 11  1  6  0  0  0
 10 12  1  0  0  0  0
 12 32  1  1  0  0  0
 13 17  2  0  0  0  0
 13 28  1  0  0  0  0
 17 18  1  0  0  0  0
 17 22  1  0  0  0  0
 22 26  2  0  0  0  0
 26 27  1  0  0  0  0
 26 32  1  0  0  0  0
 27 28  2  0  0  0  0
 27 30  1  0  0  0  0
 28 29  1  0  0  0  0
 30 31  2  0  0  0  0
 31 32  1  0  0  0  0
M  CHG  3  14  -1  15  -1  21  -1
M  END
>  <CHROM.1>
49.53327902,-85.77286373,-64.46833134,91.22156156,162.69271759,149.20839173
-53.16352626,-54.29884349,18.55512538,-22.67901692,-7.75837553,2.13802182
-0.83243626,-1.62677113

>  <Name>
ligand

>  <RI>
0

>  <Rbt.Current_Directory>
/home/itssahil/PROJECTS/Mol_Feturizer/New_Systems/rnas/4Y1I

>  <Rbt.Executable>
rbdock ($Id: //depot/dev/client3/rdock/2013.1/src/exe/rbdock.cxx#4 $)

>  <Rbt.Library>
libRbt.so (2013.1, Build901 2013/11/27)

>  <Rbt.Parameter_File>
/export/apps/rDock/src/rDock_2013.1_src/data/scripts/dock_solv.prm

>  <Rbt.Receptor>
prm/blind_docking_40.prm

>  <SCORE>
-12.1752

>  <SCORE.INTER>
-7.08505

>  <SCORE.INTER.CONST>
1

>  <SCORE.INTER.POLAR>
0

>  <SCORE.INTER.ROT>
8

>  <SCORE.INTER.SOLV>
27.6798

>  <SCORE.INTER.VDW>
-22.8833

>  <SCORE.INTER.norm>
-0.221408

>  <SCORE.INTRA>
-5.18167

>  <SCORE.INTRA.DIHEDRAL>
-4.3452

>  <SCORE.INTRA.DIHEDRAL.0>
10.9594

>  <SCORE.INTRA.POLAR>
0

>  <SCORE.INTRA.POLAR.0>
0

>  <SCORE.INTRA.REPUL>
0

>  <SCORE.INTRA.REPUL.0>
0

>  <SCORE.INTRA.SOLV>
-4.48124

>  <SCORE.INTRA.SOLV.lig_0>
-124.914

>  <SCORE.INTRA.VDW>
-0.768447

>  <SCORE.INTRA.VDW.0>
-4.69801

>  <SCORE.INTRA.norm>
-0.161927

>  <SCORE.RESTR>
0.0915273

>  <SCORE.RESTR.CAVITY>
0.0915273

>  <SCORE.RESTR.norm>
0.00286023

>  <SCORE.SYSTEM>
0

>  <SCORE.SYSTEM.CONST>
0

>  <SCORE.SYSTEM.DIHEDRAL>
0

>  <SCORE.SYSTEM.SOLV>
0

>  <SCORE.SYSTEM.norm>
0

>  <SCORE.heavy>
32

>  <SCORE.norm>
-0.380475

>  <RMSD>
12.485

$$$$
ligand
 OpenBabel11021811513D
libRbt.so/2013.1/901 2013/11/27
 32 34  0  0  0  0  0  0  0  0999 V2000
   16.8857  -24.5471   -7.4063 P   0  0  1  0  0  0  0  0  0  0  0  0
   18.0674  -25.5369   -9.8260 P   0  0  2  0  0  0  0  0  0  0  0  0
   17.8865  -23.5993  -12.0233 P   0  0  1  0  0  0  0  0  0  0  0  0
   18.0646  -22.3673   -6.6001 C   0  0  0  0  0  0  0  0  0  0  0  0
   18.2399  -23.6742   -7.0683 O   0  0  0  0  0  0  0  0  0  0  0  0
   18.4287  -21.4651   -7.5935 C   0  0  1  0  0  0  0  0  0  0  0  0
   18.2830  -20.0455   -7.0804 O   0  0  0  0  0  0  0  0  0  0  0  0
   19.9666  -21.6296   -7.9936 C   0  0  1  0  0  0  0  0  0  0  0  0
   20.0657  -22.0985   -9.4276 O   0  0  0  0  0  0  0  0  0  0  0  0
   20.4549  -20.4980   -7.9437 C   0  0  1  0  0  0  0  0  0  0  0  0
   20.4675  -19.9077   -9.3035 O   0  0  0  0  0  0  0  0  0  0  0  0
   19.4695  -19.6029   -6.9428 C   0  0  2  0  0  0  0  0  0  0  0  0
   21.5053  -22.5854   -3.2898 N   0  0  0  0  0  0  0  0  0  0  0  0
   16.3095  -25.1117   -6.1314 O   0  5  0  0  0  0  0  0  0  0  0  0
   17.9085  -26.7371  -10.7251 O   0  5  0  0  0  0  0  0  0  0  0  0
   17.5446  -24.6252  -13.0782 O   0  0  0  0  0  0  0  0  0  0  0  0
   21.2659  -22.8905   -4.5556 C   0  0  0  0  0  0  0  0  0  0  0  0
   21.5943  -24.2152   -5.0423 N   0  0  0  0  0  0  0  0  0  0  0  0
   15.8877  -23.6465   -8.0985 O   0  0  0  0  0  0  0  0  0  0  0  0
   19.5293  -25.3069   -9.5454 O   0  0  0  0  0  0  0  0  0  0  0  0
   17.1229  -22.3240  -12.3064 O   0  5  0  0  0  0  0  0  0  0  0  0
   20.7352  -22.0248   -5.3950 N   0  0  0  0  0  0  0  0  0  0  0  0
   17.2991  -25.7901   -8.3976 O   0  0  0  0  0  0  0  0  0  0  0  0
   17.4331  -24.2056  -10.5549 O   0  0  0  0  0  0  0  0  0  0  0  0
   19.3766  -23.3381  -12.0542 O   0  0  0  0  0  0  0  0  0  0  0  0
   20.4170  -20.7908   -4.9856 C   0  0  0  0  0  0  0  0  0  0  0  0
   20.6559  -20.4469   -3.6704 C   0  0  0  0  0  0  0  0  0  0  0  0
   21.2247  -21.3885   -2.7912 C   0  0  0  0  0  0  0  0  0  0  0  0
   21.4802  -21.0673   -1.4464 O   0  0  0  0  0  0  0  0  0  0  0  0
   20.2576  -19.1740   -3.5055 N   0  0  0  0  0  0  0  0  0  0  0  0
   19.7923  -18.7492   -4.6673 C   0  0  0  0  0  0  0  0  0  0  0  0
   19.8777  -19.7091   -5.5694 N   0  0  0  0  0  0  0  0  0  0  0  0
  1  5  1  1  0  0  0
  1 14  1  0  0  0  0
  1 19  2  0  0  0  0
  1 23  1  0  0  0  0
  2 15  1  6  0  0  0
  2 20  2  0  0  0  0
  2 23  1  0  0  0  0
  2 24  1  0  0  0  0
  3 16  1  6  0  0  0
  3 21  1  0  0  0  0
  3 24  1  0  0  0  0
  3 25  2  0  0  0  0
  4  5  1  0  0  0  0
  6  4  1  1  0  0  0
  6  7  1  0  0  0  0
  6  8  1  0  0  0  0
  7 12  1  0  0  0  0
  8  9  1  6  0  0  0
  8 10  1  0  0  0  0
 10 11  1  6  0  0  0
 10 12  1  0  0  0  0
 12 32  1  1  0  0  0
 13 17  2  0  0  0  0
 13 28  1  0  0  0  0
 17 18  1  0  0  0  0
 17 22  1  0  0  0  0
 22 26  2  0  0  0  0
 26 27  1  0  0  0  0
 26 32  1  0  0  0  0
 27 28  2  0  0  0  0
 27 30  1  0  0  0  0
 28 29  1  0  0  0  0
 30 31  2  0  0  0  0
 31 32  1  0  0  0  0
M  CHG  3  14  -1  15  -1  21  -1
M  END
>  <CHROM.1>
-80.53538152,-160.74550078,64.34947682,-178.25138266,-108.01762294,85.42726618
-55.60346731,-57.72330409,18.94034144,-22.77501265,-7.73046594,2.59804247
-1.15007814,-1.07787132

>  <Name>
ligand

>  <RI>
0

>  <Rbt.Current_Directory>
/home/itssahil/PROJECTS/Mol_Feturizer/New_Systems/rnas/4Y1I

>  <Rbt.Executable>
rbdock ($Id: //depot/dev/client3/rdock/2013.1/src/exe/rbdock.cxx#4 $)

>  <Rbt.Library>
libRbt.so (2013.1, Build901 2013/11/27)

>  <Rbt.Parameter_File>
/export/apps/rDock/src/rDock_2013.1_src/data/scripts/dock_solv.prm

>  <Rbt.Receptor>
prm/blind_docking_40.prm

>  <SCORE>
-8.90514

>  <SCORE.INTER>
-6.52244

>  <SCORE.INTER.CONST>
1

>  <SCORE.INTER.POLAR>
0

>  <SCORE.INTER.ROT>
8

>  <SCORE.INTER.SOLV>
34.4895

>  <SCORE.INTER.VDW>
-24.7781

>  <SCORE.INTER.norm>
-0.203826

>  <SCORE.INTRA>
-2.39322

>  <SCORE.INTRA.DIHEDRAL>
-1.97276

>  <SCORE.INTRA.DIHEDRAL.0>
10.9594

>  <SCORE.INTRA.POLAR>
0

>  <SCORE.INTRA.POLAR.0>
0

>  <SCORE.INTRA.REPUL>
0

>  <SCORE.INTRA.REPUL.0>
0

>  <SCORE.INTRA.SOLV>
-0.525518

>  <SCORE.INTRA.SOLV.lig_0>
-124.914

>  <SCORE.INTRA.VDW>
-1.14408

>  <SCORE.INTRA.VDW.0>
-4.69801

>  <SCORE.INTRA.norm>
-0.0747882

>  <SCORE.RESTR>
0.010519

>  <SCORE.RESTR.CAVITY>
0.010519

>  <SCORE.RESTR.norm>
0.000328718

>  <SCORE.SYSTEM>
0

>  <SCORE.SYSTEM.CONST>
0

>  <SCORE.SYSTEM.DIHEDRAL>
0

>  <SCORE.SYSTEM.SOLV>
0

>  <SCORE.SYSTEM.norm>
0

>  <SCORE.heavy>
32

>  <SCORE.norm>
-0.278286

>  <RMSD>
12.553

$$$$
ligand
 OpenBabel11021811513D
libRbt.so/2013.1/901 2013/11/27
 32 34  0  0  0  0  0  0  0  0999 V2000
   18.2168  -21.7359   -6.0876 P   0  0  1  0  0  0  0  0  0  0  0  0
   19.8560  -20.4016   -4.1475 P   0  0  2  0  0  0  0  0  0  0  0  0
   22.6800  -21.0771   -4.5763 P   0  0  1  0  0  0  0  0  0  0  0  0
   17.2099  -21.9954   -8.4771 C   0  0  0  0  0  0  0  0  0  0  0  0
   17.7721  -21.1151   -7.5460 O   0  0  0  0  0  0  0  0  0  0  0  0
   17.0899  -21.3569   -9.7065 C   0  0  1  0  0  0  0  0  0  0  0  0
   18.4455  -21.2777  -10.3816 O   0  0  0  0  0  0  0  0  0  0  0  0
   16.1532  -22.1834  -10.7024 C   0  0  1  0  0  0  0  0  0  0  0  0
   14.9099  -21.3788  -11.0071 O   0  0  0  0  0  0  0  0  0  0  0  0
   16.7866  -22.2918  -11.7551 C   0  0  1  0  0  0  0  0  0  0  0  0
   16.3568  -21.2322  -12.6987 O   0  0  0  0  0  0  0  0  0  0  0  0
   18.3924  -22.0885  -11.3626 C   0  0  2  0  0  0  0  0  0  0  0  0
   18.2851  -27.2066  -11.7853 N   0  0  0  0  0  0  0  0  0  0  0  0
   17.1056  -22.5951   -5.5370 O   0  5  0  0  0  0  0  0  0  0  0  0
   19.8040  -21.4010   -3.0193 O   0  5  0  0  0  0  0  0  0  0  0  0
   22.5556  -21.7637   -3.2363 O   0  0  0  0  0  0  0  0  0  0  0  0
   17.4540  -26.3243  -12.3177 C   0  0  0  0  0  0  0  0  0  0  0  0
   16.3513  -26.7889  -13.1348 N   0  0  0  0  0  0  0  0  0  0  0  0
   19.4839  -22.5408   -6.2685 O   0  0  0  0  0  0  0  0  0  0  0  0
   19.9632  -19.0091   -3.5833 O   0  0  0  0  0  0  0  0  0  0  0  0
   23.3449  -22.0193   -5.5560 O   0  5  0  0  0  0  0  0  0  0  0  0
   17.5956  -25.0281  -12.1290 N   0  0  0  0  0  0  0  0  0  0  0  0
   18.4881  -20.4909   -5.0506 O   0  0  0  0  0  0  0  0  0  0  0  0
   21.1589  -20.7071   -5.1041 O   0  0  0  0  0  0  0  0  0  0  0  0
   23.5065  -19.8205   -4.4115 O   0  0  0  0  0  0  0  0  0  0  0  0
   18.6007  -24.5575  -11.3808 C   0  0  0  0  0  0  0  0  0  0  0  0
   19.4815  -25.4562  -10.8136 C   0  0  0  0  0  0  0  0  0  0  0  0
   19.3109  -26.8373  -11.0296 C   0  0  0  0  0  0  0  0  0  0  0  0
   20.1921  -27.7766  -10.4655 O   0  0  0  0  0  0  0  0  0  0  0  0
   20.3896  -24.7501  -10.1187 N   0  0  0  0  0  0  0  0  0  0  0  0
   20.0839  -23.4710  -10.2497 C   0  0  0  0  0  0  0  0  0  0  0  0
   19.0089  -23.3356  -11.0036 N   0  0  0  0  0  0  0  0  0  0  0  0
  1  5  1  6  0  0  0
  1 14  1  0  0  0  0
  1 19  2  0  0  0  0
  1 23  1  0  0  0  0
  2 15  1  1  0  0  0
  2 20  2  0  0  0  0
  2 23  1  0  0  0  0
  2 24  1  0  0  0  0
  3 16  1  1  0  0  0
  3 21  1  0  0  0  0
  3 24  1  0  0  0  0
  3 25  2  0  0  0  0
  4  5  1  0  0  0  0
  6  4  1  1  0  0  0
  6  7  1  0  0  0  0
  6  8  1  0  0  0  0
  7 12  1  0  0  0  0
  8  9  1  6  0  0  0
  8 10  1  0  0  0  0
 10 11  1  6  0  0  0
 10 12  1  0  0  0  0
 12 32  1  1  0  0  0
 13 17  2  0  0  0  0
 13 28  1  0  0  0  0
 17 18  1  0  0  0  0
 17 22  1  0  0  0  0
 22 26  2  0  0  0  0
 26 27  1  0  0  0  0
 26 32  1  0  0  0  0
 27 28  2  0  0  0  0
 27 30  1  0  0  0  0
 28 29  1  0  0  0  0
 30 31  2  0  0  0  0
 31 32  1  0  0  0  0
M  CHG  3  14  -1  15  -1  21  -1
M  END
>  <CHROM.1>
-47.16835777,-74.12915849,28.52860218,76.32293038,-170.80976840,143.07593163
-130.59561592,-43.41853697,19.11271890,-22.53450601,-8.05105112,1.09412938
-0.60630416,0.80668102

>  <Name>
ligand

>  <RI>
0

>  <Rbt.Current_Directory>
/home/itssahil/PROJECTS/Mol_Feturizer/New_Systems/rnas/4Y1I

>  <Rbt.Executable>
rbdock ($Id: //depot/dev/client3/rdock/2013.1/src/exe/rbdock.cxx#4 $)

>  <Rbt.Library>
libRbt.so (2013.1, Build901 2013/11/27)

>  <Rbt.Parameter_File>
/export/apps/rDock/src/rDock_2013.1_src/data/scripts/dock_solv.prm

>  <Rbt.Receptor>
prm/blind_docking_40.prm

>  <SCORE>
-6.49786

>  <SCORE.INTER>
-3.22008

>  <SCORE.INTER.CONST>
1

>  <SCORE.INTER.POLAR>
0

>  <SCORE.INTER.ROT>
8

>  <SCORE.INTER.SOLV>
20.9717

>  <SCORE.INTER.VDW>
-18.0706

>  <SCORE.INTER.norm>
-0.100627

>  <SCORE.INTRA>
-3.43186

>  <SCORE.INTRA.DIHEDRAL>
-3.90472

>  <SCORE.INTRA.DIHEDRAL.0>
10.9594

>  <SCORE.INTRA.POLAR>
0

>  <SCORE.INTRA.POLAR.0>
0

>  <SCORE.INTRA.REPUL>
0

>  <SCORE.INTRA.REPUL.0>
0

>  <SCORE.INTRA.SOLV>
-3.71785

>  <SCORE.INTRA.SOLV.lig_0>
-124.914

>  <SCORE.INTRA.VDW>
0.379422

>  <SCORE.INTRA.VDW.0>
-4.69801

>  <SCORE.INTRA.norm>
-0.107246

>  <SCORE.RESTR>
0.154077

>  <SCORE.RESTR.CAVITY>
0.154077

>  <SCORE.RESTR.norm>
0.00481492

>  <SCORE.SYSTEM>
0

>  <SCORE.SYSTEM.CONST>
0

>  <SCORE.SYSTEM.DIHEDRAL>
0

>  <SCORE.SYSTEM.SOLV>
0

>  <SCORE.SYSTEM.norm>
0

>  <SCORE.heavy>
32

>  <SCORE.norm>
-0.203058

>  <RMSD>
12.688

$$$$
ligand
 OpenBabel11021811513D
libRbt.so/2013.1/901 2013/11/27
 32 34  0  0  0  0  0  0  0  0999 V2000
   18.5679  -21.9284   -6.2694 P   0  0  1  0  0  0  0  0  0  0  0  0
   20.1156  -20.4968   -4.3236 P   0  0  2  0  0  0  0  0  0  0  0  0
   18.8068  -19.7555   -1.8032 P   0  0  1  0  0  0  0  0  0  0  0  0
   19.7138  -23.3020   -8.1645 C   0  0  0  0  0  0  0  0  0  0  0  0
   19.7732  -22.1531   -7.3680 O   0  0  0  0  0  0  0  0  0  0  0  0
   20.0823  -22.9840   -9.4670 C   0  0  1  0  0  0  0  0  0  0  0  0
   19.8922  -24.1901  -10.3665 O   0  0  0  0  0  0  0  0  0  0  0  0
   19.1499  -21.8364  -10.0717 C   0  0  1  0  0  0  0  0  0  0  0  0
   19.9796  -20.5993  -10.3315 O   0  0  0  0  0  0  0  0  0  0  0  0
   18.7618  -22.2535  -11.1656 C   0  0  1  0  0  0  0  0  0  0  0  0
   19.6292  -21.7065  -12.2362 O   0  0  0  0  0  0  0  0  0  0  0  0
   18.8984  -23.9126  -11.1133 C   0  0  2  0  0  0  0  0  0  0  0  0
   14.0523  -23.2224   -9.5565 N   0  0  0  0  0  0  0  0  0  0  0  0
   17.2503  -21.7559   -6.9838 O   0  5  0  0  0  0  0  0  0  0  0  0
   20.7458  -19.1268   -4.3295 O   0  5  0  0  0  0  0  0  0  0  0  0
   17.8652  -18.8997   -2.6176 O   0  0  0  0  0  0  0  0  0  0  0  0
   14.9039  -22.3144  -10.0069 C   0  0  0  0  0  0  0  0  0  0  0  0
   14.4847  -20.9305  -10.0999 N   0  0  0  0  0  0  0  0  0  0  0  0
   18.5279  -23.1215   -5.3415 O   0  0  0  0  0  0  0  0  0  0  0  0
   21.1460  -21.5277   -4.7035 O   0  0  0  0  0  0  0  0  0  0  0  0
   18.0145  -20.5004   -0.7510 O   0  5  0  0  0  0  0  0  0  0  0  0
   16.1290  -22.6276  -10.3766 N   0  0  0  0  0  0  0  0  0  0  0  0
   18.8893  -20.5640   -5.4129 O   0  0  0  0  0  0  0  0  0  0  0  0
   19.5290  -20.8348   -2.8244 O   0  0  0  0  0  0  0  0  0  0  0  0
   19.8419  -18.8658   -1.1504 O   0  0  0  0  0  0  0  0  0  0  0  0
   16.5558  -23.8942  -10.3061 C   0  0  0  0  0  0  0  0  0  0  0  0
   15.6879  -24.8607   -9.8395 C   0  0  0  0  0  0  0  0  0  0  0  0
   14.3826  -24.5029   -9.4506 C   0  0  0  0  0  0  0  0  0  0  0  0
   13.4760  -25.4651   -8.9719 O   0  0  0  0  0  0  0  0  0  0  0  0
   16.3395  -26.0359   -9.8627 N   0  0  0  0  0  0  0  0  0  0  0  0
   17.5571  -25.8065  -10.3229 C   0  0  0  0  0  0  0  0  0  0  0  0
   17.7065  -24.5231  -10.5926 N   0  0  0  0  0  0  0  0  0  0  0  0
  1  5  1  6  0  0  0
  1 14  1  0  0  0  0
  1 19  2  0  0  0  0
  1 23  1  0  0  0  0
  2 15  1  6  0  0  0
  2 20  2  0  0  0  0
  2 23  1  0  0  0  0
  2 24  1  0  0  0  0
  3 16  1  6  0  0  0
  3 21  1  0  0  0  0
  3 24  1  0  0  0  0
  3 25  2  0  0  0  0
  4  5  1  0  0  0  0
  6  4  1  1  0  0  0
  6  7  1  0  0  0  0
  6  8  1  0  0  0  0
  7 12  1  0  0  0  0
  8  9  1  6  0  0  0
  8 10  1  0  0  0  0
 10 11  1  6  0  0  0
 10 12  1  0  0  0  0
 12 32  1  1  0  0  0
 13 17  2  0  0  0  0
 13 28  1  0  0  0  0
 17 18  1  0  0  0  0
 17 22  1  0  0  0  0
 22 26  2  0  0  0  0
 26 27  1  0  0  0  0
 26 32  1  0  0  0  0
 27 28  2  0  0  0  0
 27 30  1  0  0  0  0
 28 29  1  0  0  0  0
 30 31  2  0  0  0  0
 31 32  1  0  0  0  0
M  CHG  3  14  -1  15  -1  21  -1
M  END
>  <CHROM.1>
-63.76587064,144.80860176,42.73824228,-174.53559037,139.27348021,125.80963118
-70.74095237,37.30076621,18.20974741,-22.07657129,-7.17963959,-1.26989882
-0.33142992,-1.92578181

>  <Name>
ligand

>  <RI>
0

>  <Rbt.Current_Directory>
/home/itssahil/PROJECTS/Mol_Feturizer/New_Systems/rnas/4Y1I

>  <Rbt.Executable>
rbdock ($Id: //depot/dev/client3/rdock/2013.1/src/exe/rbdock.cxx#4 $)

>  <Rbt.Library>
libRbt.so (2013.1, Build901 2013/11/27)

>  <Rbt.Parameter_File>
/export/apps/rDock/src/rDock_2013.1_src/data/scripts/dock_solv.prm

>  <Rbt.Receptor>
prm/blind_docking_40.prm

>  <SCORE>
-4.65773

>  <SCORE.INTER>
-2.07031

>  <SCORE.INTER.CONST>
1

>  <SCORE.INTER.POLAR>
0

>  <SCORE.INTER.ROT>
8

>  <SCORE.INTER.SOLV>
28.8406

>  <SCORE.INTER.VDW>
-19.9271

>  <SCORE.INTER.norm>
-0.0646971

>  <SCORE.INTRA>
-2.58924

>  <SCORE.INTRA.DIHEDRAL>
-1.16834

>  <SCORE.INTRA.DIHEDRAL.0>
10.9594

>  <SCORE.INTRA.POLAR>
0

>  <SCORE.INTRA.POLAR.0>
0

>  <SCORE.INTRA.REPUL>
0

>  <SCORE.INTRA.REPUL.0>
0

>  <SCORE.INTRA.SOLV>
-3.74201

>  <SCORE.INTRA.SOLV.lig_0>
-124.914

>  <SCORE.INTRA.VDW>
-0.134069

>  <SCORE.INTRA.VDW.0>
-4.69801

>  <SCORE.INTRA.norm>
-0.0809138

>  <SCORE.RESTR>
0.00182027

>  <SCORE.RESTR.CAVITY>
0.00182027

>  <SCORE.RESTR.norm>
5.68834e-05

>  <SCORE.SYSTEM>
0

>  <SCORE.SYSTEM.CONST>
0

>  <SCORE.SYSTEM.DIHEDRAL>
0

>  <SCORE.SYSTEM.SOLV>
0

>  <SCORE.SYSTEM.norm>
0

>  <SCORE.heavy>
32

>  <SCORE.norm>
-0.145554

>  <RMSD>
12.691

$$$$
ligand
 OpenBabel11021811513D
libRbt.so/2013.1/901 2013/11/27
 32 34  0  0  0  0  0  0  0  0999 V2000
   20.7728  -21.7053   -7.4164 P   0  0  1  0  0  0  0  0  0  0  0  0
   20.2175  -19.3431   -5.8858 P   0  0  2  0  0  0  0  0  0  0  0  0
   20.6880  -20.6647   -3.3076 P   0  0  1  0  0  0  0  0  0  0  0  0
   18.5606  -21.4471   -8.7695 C   0  0  0  0  0  0  0  0  0  0  0  0
   19.8995  -21.0577   -8.6526 O   0  0  0  0  0  0  0  0  0  0  0  0
   18.0641  -21.0395  -10.0027 C   0  0  1  0  0  0  0  0  0  0  0  0
   19.0272  -21.4380  -11.1043 O   0  0  0  0  0  0  0  0  0  0  0  0
   16.6840  -21.7681  -10.3439 C   0  0  1  0  0  0  0  0  0  0  0  0
   15.5744  -20.7425  -10.3995 O   0  0  0  0  0  0  0  0  0  0  0  0
   16.8138  -22.2294  -11.4804 C   0  0  1  0  0  0  0  0  0  0  0  0
   16.2225  -21.2896  -12.4628 O   0  0  0  0  0  0  0  0  0  0  0  0
   18.4515  -22.3758  -11.7459 C   0  0  2  0  0  0  0  0  0  0  0  0
   17.7580  -26.3959   -8.6244 N   0  0  0  0  0  0  0  0  0  0  0  0
   19.9110  -22.6581   -6.6255 O   0  5  0  0  0  0  0  0  0  0  0  0
   18.8511  -19.5547   -6.4879 O   0  5  0  0  0  0  0  0  0  0  0  0
   20.0905  -21.9525   -3.8241 O   0  0  0  0  0  0  0  0  0  0  0  0
   17.0067  -25.3121   -8.7417 C   0  0  0  0  0  0  0  0  0  0  0  0
   15.8233  -25.1745   -7.9169 N   0  0  0  0  0  0  0  0  0  0  0  0
   21.9766  -22.4160   -7.9925 O   0  0  0  0  0  0  0  0  0  0  0  0
   20.7426  -17.9904   -6.2898 O   0  0  0  0  0  0  0  0  0  0  0  0
   22.1954  -20.7397   -3.4148 O   0  5  0  0  0  0  0  0  0  0  0  0
   17.2997  -24.3467   -9.5888 N   0  0  0  0  0  0  0  0  0  0  0  0
   21.2619  -20.4875   -6.4282 O   0  0  0  0  0  0  0  0  0  0  0  0
   20.1238  -19.4273   -4.2457 O   0  0  0  0  0  0  0  0  0  0  0  0
   20.2721  -20.4717   -1.8656 O   0  0  0  0  0  0  0  0  0  0  0  0
   18.3840  -24.4346  -10.3687 C   0  0  0  0  0  0  0  0  0  0  0  0
   19.1849  -25.5541  -10.2660 C   0  0  0  0  0  0  0  0  0  0  0  0
   18.8516  -26.5739   -9.3540 C   0  0  0  0  0  0  0  0  0  0  0  0
   19.6476  -27.7260   -9.2273 O   0  0  0  0  0  0  0  0  0  0  0  0
   20.1964  -25.4102  -11.1392 N   0  0  0  0  0  0  0  0  0  0  0  0
   20.0290  -24.2526  -11.7545 C   0  0  0  0  0  0  0  0  0  0  0  0
   18.9451  -23.6501  -11.3022 N   0  0  0  0  0  0  0  0  0  0  0  0
  1  5  1  6  0  0  0
  1 14  1  0  0  0  0
  1 19  2  0  0  0  0
  1 23  1  0  0  0  0
  2 15  1  6  0  0  0
  2 20  2  0  0  0  0
  2 23  1  0  0  0  0
  2 24  1  0  0  0  0
  3 16  1  6  0  0  0
  3 21  1  0  0  0  0
  3 24  1  0  0  0  0
  3 25  2  0  0  0  0
  4  5  1  0  0  0  0
  6  4  1  1  0  0  0
  6  7  1  0  0  0  0
  6  8  1  0  0  0  0
  7 12  1  0  0  0  0
  8  9  1  6  0  0  0
  8 10  1  0  0  0  0
 10 11  1  6  0  0  0
 10 12  1  0  0  0  0
 12 32  1  1  0  0  0
 13 17  2  0  0  0  0
 13 28  1  0  0  0  0
 17 18  1  0  0  0  0
 17 22  1  0  0  0  0
 22 26  2  0  0  0  0
 26 27  1  0  0  0  0
 26 32  1  0  0  0  0
 27 28  2  0  0  0  0
 27 30  1  0  0  0  0
 28 29  1  0  0  0  0
 30 31  2  0  0  0  0
 31 32  1  0  0  0  0
M  CHG  3  14  -1  15  -1  21  -1
M  END
>  <CHROM.1>
0.88776058,-3.27063578,-53.78499066,48.46571978,-167.52063906,95.08564569
48.80570371,107.74334260,19.25194594,-22.18423650,-7.94325412,-0.68913297
1.10885143,-2.95540741

>  <Name>
ligand

>  <RI>
0

>  <Rbt.Current_Directory>
/home/itssahil/PROJECTS/Mol_Feturizer/New_Systems/rnas/4Y1I

>  <Rbt.Executable>
rbdock ($Id: //depot/dev/client3/rdock/2013.1/src/exe/rbdock.cxx#4 $)

>  <Rbt.Library>
libRbt.so (2013.1, Build901 2013/11/27)

>  <Rbt.Parameter_File>
/export/apps/rDock/src/rDock_2013.1_src/data/scripts/dock_solv.prm

>  <Rbt.Receptor>
prm/blind_docking_40.prm

>  <SCORE>
-6.05963

>  <SCORE.INTER>
-3.86723

>  <SCORE.INTER.CONST>
1

>  <SCORE.INTER.POLAR>
0

>  <SCORE.INTER.ROT>
8

>  <SCORE.INTER.SOLV>
29.2132

>  <SCORE.INTER.VDW>
-21.2492

>  <SCORE.INTER.norm>
-0.120851

>  <SCORE.INTRA>
-2.2431

>  <SCORE.INTRA.DIHEDRAL>
-1.32786

>  <SCORE.INTRA.DIHEDRAL.0>
10.9594

>  <SCORE.INTRA.POLAR>
0

>  <SCORE.INTRA.POLAR.0>
0

>  <SCORE.INTRA.REPUL>
0

>  <SCORE.INTRA.REPUL.0>
0

>  <SCORE.INTRA.SOLV>
-2.58974

>  <SCORE.INTRA.SOLV.lig_0>
-124.914

>  <SCORE.INTRA.VDW>
-0.2843

>  <SCORE.INTRA.VDW.0>
-4.69801

>  <SCORE.INTRA.norm>
-0.0700968

>  <SCORE.RESTR>
0.0506987

>  <SCORE.RESTR.CAVITY>
0.0506987

>  <SCORE.RESTR.norm>
0.00158433

>  <SCORE.SYSTEM>
0

>  <SCORE.SYSTEM.CONST>
0

>  <SCORE.SYSTEM.DIHEDRAL>
0

>  <SCORE.SYSTEM.SOLV>
0

>  <SCORE.SYSTEM.norm>
0

>  <SCORE.heavy>
32

>  <SCORE.norm>
-0.189363

>  <RMSD>
12.694

$$$$
ligand
 OpenBabel11021811513D
libRbt.so/2013.1/901 2013/11/27
 32 34  0  0  0  0  0  0  0  0999 V2000
   20.6543  -21.7324   -6.7584 P   0  0  1  0  0  0  0  0  0  0  0  0
   19.8665  -19.6325   -4.9693 P   0  0  2  0  0  0  0  0  0  0  0  0
   19.1971  -19.1260   -2.1567 P   0  0  1  0  0  0  0  0  0  0  0  0
   20.2047  -21.7821   -9.3249 C   0  0  0  0  0  0  0  0  0  0  0  0
   20.0178  -21.0797   -8.1292 O   0  0  0  0  0  0  0  0  0  0  0  0
   19.3588  -21.2694  -10.3021 C   0  0  1  0  0  0  0  0  0  0  0  0
   19.6639  -21.9154  -11.6398 O   0  0  0  0  0  0  0  0  0  0  0  0
   17.8309  -21.6144   -9.9883 C   0  0  1  0  0  0  0  0  0  0  0  0
   17.0711  -20.3348   -9.7210 O   0  0  0  0  0  0  0  0  0  0  0  0
   17.3721  -22.1033  -11.0236 C   0  0  1  0  0  0  0  0  0  0  0  0
   16.6704  -21.0500  -11.7957 O   0  0  0  0  0  0  0  0  0  0  0  0
   18.6732  -22.6754  -11.8919 C   0  0  2  0  0  0  0  0  0  0  0  0
   17.2408  -27.6052  -12.0661 N   0  0  0  0  0  0  0  0  0  0  0  0
   19.6383  -22.6335   -6.1014 O   0  5  0  0  0  0  0  0  0  0  0  0
   18.5266  -20.3114   -5.1040 O   0  5  0  0  0  0  0  0  0  0  0  0
   18.0566  -20.1140   -2.2307 O   0  0  0  0  0  0  0  0  0  0  0  0
   16.6082  -26.5517  -12.5586 C   0  0  0  0  0  0  0  0  0  0  0  0
   15.3466  -26.7372  -13.2468 N   0  0  0  0  0  0  0  0  0  0  0  0
   21.9044  -22.5013   -7.1219 O   0  0  0  0  0  0  0  0  0  0  0  0
   19.8089  -18.2710   -5.6111 O   0  0  0  0  0  0  0  0  0  0  0  0
   19.8946  -19.2733   -0.8220 O   0  5  0  0  0  0  0  0  0  0  0  0
   17.0895  -25.3307  -12.4441 N   0  0  0  0  0  0  0  0  0  0  0  0
   21.0288  -20.5124   -5.7239 O   0  0  0  0  0  0  0  0  0  0  0  0
   20.2537  -19.4727   -3.3786 O   0  0  0  0  0  0  0  0  0  0  0  0
   18.6466  -17.7250   -2.3107 O   0  0  0  0  0  0  0  0  0  0  0  0
   18.2515  -25.1159  -11.8155 C   0  0  0  0  0  0  0  0  0  0  0  0
   18.9314  -26.1971  -11.2922 C   0  0  0  0  0  0  0  0  0  0  0  0
   18.3982  -27.4935  -11.4274 C   0  0  0  0  0  0  0  0  0  0  0  0
   19.0678  -28.6142  -10.9054 O   0  0  0  0  0  0  0  0  0  0  0  0
   20.0538  -25.7311  -10.7186 N   0  0  0  0  0  0  0  0  0  0  0  0
   20.0676  -24.4193  -10.8794 C   0  0  0  0  0  0  0  0  0  0  0  0
   18.9899  -24.0306  -11.5349 N   0  0  0  0  0  0  0  0  0  0  0  0
  1  5  1  6  0  0  0
  1 14  1  0  0  0  0
  1 19  2  0  0  0  0
  1 23  1  0  0  0  0
  2 15  1  6  0  0  0
  2 20  2  0  0  0  0
  2 23  1  0  0  0  0
  2 24  1  0  0  0  0
  3 16  1  6  0  0  0
  3 21  1  0  0  0  0
  3 24  1  0  0  0  0
  3 25  2  0  0  0  0
  4  5  1  0  0  0  0
  6  4  1  1  0  0  0
  6  7  1  0  0  0  0
  6  8  1  0  0  0  0
  7 12  1  0  0  0  0
  8  9  1  6  0  0  0
  8 10  1  0  0  0  0
 10 11  1  6  0  0  0
 10 12  1  0  0  0  0
 12 32  1  1  0  0  0
 13 17  2  0  0  0  0
 13 28  1  0  0  0  0
 17 18  1  0  0  0  0
 17 22  1  0  0  0  0
 22 26  2  0  0  0  0
 26 27  1  0  0  0  0
 26 32  1  0  0  0  0
 27 28  2  0  0  0  0
 27 30  1  0  0  0  0
 28 29  1  0  0  0  0
 30 31  2  0  0  0  0
 31 32  1  0  0  0  0
M  CHG  3  14  -1  15  -1  21  -1
M  END
>  <CHROM.1>
-90.41052259,13.52902033,52.49639200,173.59548599,166.28059463,-171.08883518
70.37103430,-37.39530571,19.02372710,-22.20388483,-8.00944376,-1.14967758
1.19567268,-2.59021346

>  <Name>
ligand

>  <RI>
0

>  <Rbt.Current_Directory>
/home/itssahil/PROJECTS/Mol_Feturizer/New_Systems/rnas/4Y1I

>  <Rbt.Executable>
rbdock ($Id: //depot/dev/client3/rdock/2013.1/src/exe/rbdock.cxx#4 $)

>  <Rbt.Library>
libRbt.so (2013.1, Build901 2013/11/27)

>  <Rbt.Parameter_File>
/export/apps/rDock/src/rDock_2013.1_src/data/scripts/dock_solv.prm

>  <Rbt.Receptor>
prm/blind_docking_40.prm

>  <SCORE>
-13.5742

>  <SCORE.INTER>
-10.4021

>  <SCORE.INTER.CONST>
1

>  <SCORE.INTER.POLAR>
0

>  <SCORE.INTER.ROT>
8

>  <SCORE.INTER.SOLV>
29.0108

>  <SCORE.INTER.VDW>
-25.5383

>  <SCORE.INTER.norm>
-0.325067

>  <SCORE.INTRA>
-3.17211

>  <SCORE.INTRA.DIHEDRAL>
-4.43917

>  <SCORE.INTRA.DIHEDRAL.0>
10.9594

>  <SCORE.INTRA.POLAR>
0

>  <SCORE.INTRA.POLAR.0>
0

>  <SCORE.INTRA.REPUL>
0

>  <SCORE.INTRA.REPUL.0>
0

>  <SCORE.INTRA.SOLV>
-4.11108

>  <SCORE.INTRA.SOLV.lig_0>
-124.914

>  <SCORE.INTRA.VDW>
1.10301

>  <SCORE.INTRA.VDW.0>
-4.69801

>  <SCORE.INTRA.norm>
-0.0991286

>  <SCORE.RESTR>
0

>  <SCORE.RESTR.CAVITY>
0

>  <SCORE.RESTR.norm>
0

>  <SCORE.SYSTEM>
0

>  <SCORE.SYSTEM.CONST>
0

>  <SCORE.SYSTEM.DIHEDRAL>
0

>  <SCORE.SYSTEM.SOLV>
0

>  <SCORE.SYSTEM.norm>
0

>  <SCORE.heavy>
32

>  <SCORE.norm>
-0.424195

>  <RMSD>
12.700

$$$$
ligand
 OpenBabel11021811513D
libRbt.so/2013.1/901 2013/11/27
 32 34  0  0  0  0  0  0  0  0999 V2000
   18.9660  -21.2744   -6.8295 P   0  0  1  0  0  0  0  0  0  0  0  0
   20.4822  -19.8920   -4.8243 P   0  0  2  0  0  0  0  0  0  0  0  0
   19.1284  -18.9288   -2.4046 P   0  0  1  0  0  0  0  0  0  0  0  0
   17.5942  -21.8966   -8.9562 C   0  0  0  0  0  0  0  0  0  0  0  0
   18.5205  -21.0121   -8.3925 O   0  0  0  0  0  0  0  0  0  0  0  0
   17.2891  -21.4880  -10.2497 C   0  0  1  0  0  0  0  0  0  0  0  0
   18.5114  -21.6265  -11.1367 O   0  0  0  0  0  0  0  0  0  0  0  0
   16.1666  -22.4174  -10.9040 C   0  0  1  0  0  0  0  0  0  0  0  0
   14.9195  -21.5997  -11.1536 O   0  0  0  0  0  0  0  0  0  0  0  0
   16.6063  -22.7601  -12.0043 C   0  0  1  0  0  0  0  0  0  0  0  0
   16.0603  -21.8648  -13.0523 O   0  0  0  0  0  0  0  0  0  0  0  0
   18.2618  -22.5980  -11.9219 C   0  0  2  0  0  0  0  0  0  0  0  0
   18.2031  -27.7335  -11.8326 N   0  0  0  0  0  0  0  0  0  0  0  0
   17.7569  -21.1872   -5.9315 O   0  5  0  0  0  0  0  0  0  0  0  0
   21.7925  -19.1490   -4.7511 O   0  5  0  0  0  0  0  0  0  0  0  0
   17.9401  -18.0382   -2.1270 O   0  0  0  0  0  0  0  0  0  0  0  0
   17.3706  -26.9167  -12.4590 C   0  0  0  0  0  0  0  0  0  0  0  0
   16.2813  -27.4711  -13.2372 N   0  0  0  0  0  0  0  0  0  0  0  0
   19.6152  -22.6365   -6.7317 O   0  0  0  0  0  0  0  0  0  0  0  0
   20.6326  -21.2448   -4.1794 O   0  0  0  0  0  0  0  0  0  0  0  0
   18.8639  -20.3022   -1.8273 O   0  5  0  0  0  0  0  0  0  0  0  0
   17.4990  -25.6069  -12.3993 N   0  0  0  0  0  0  0  0  0  0  0  0
   20.0385  -20.1105   -6.3896 O   0  0  0  0  0  0  0  0  0  0  0  0
   19.3127  -19.0391   -4.0427 O   0  0  0  0  0  0  0  0  0  0  0  0
   20.3598  -18.3198   -1.7703 O   0  0  0  0  0  0  0  0  0  0  0  0
   18.4915  -25.0544  -11.6913 C   0  0  0  0  0  0  0  0  0  0  0  0
   19.3734  -25.8835  -11.0280 C   0  0  0  0  0  0  0  0  0  0  0  0
   19.2171  -27.2808  -11.1068 C   0  0  0  0  0  0  0  0  0  0  0  0
   20.0998  -28.1507  -10.4427 O   0  0  0  0  0  0  0  0  0  0  0  0
   20.2675  -25.1028  -10.3976 N   0  0  0  0  0  0  0  0  0  0  0  0
   19.9524  -23.8462  -10.6589 C   0  0  0  0  0  0  0  0  0  0  0  0
   18.8848  -23.7971  -11.4337 N   0  0  0  0  0  0  0  0  0  0  0  0
  1  5  1  6  0  0  0
  1 14  1  0  0  0  0
  1 19  2  0  0  0  0
  1 23  1  0  0  0  0
  2 15  1  1  0  0  0
  2 20  2  0  0  0  0
  2 23  1  0  0  0  0
  2 24  1  0  0  0  0
  3 16  1  1  0  0  0
  3 21  1  0  0  0  0
  3 24  1  0  0  0  0
  3 25  2  0  0  0  0
  4  5  1  0  0  0  0
  6  4  1  1  0  0  0
  6  7  1  0  0  0  0
  6  8  1  0  0  0  0
  7 12  1  0  0  0  0
  8  9  1  6  0  0  0
  8 10  1  0  0  0  0
 10 11  1  6  0  0  0
 10 12  1  0  0  0  0
 12 32  1  1  0  0  0
 13 17  2  0  0  0  0
 13 28  1  0  0  0  0
 17 18  1  0  0  0  0
 17 22  1  0  0  0  0
 22 26  2  0  0  0  0
 26 27  1  0  0  0  0
 26 32  1  0  0  0  0
 27 28  2  0  0  0  0
 27 30  1  0  0  0  0
 28 29  1  0  0  0  0
 30 31  2  0  0  0  0
 31 32  1  0  0  0  0
M  CHG  3  14  -1  15  -1  21  -1
M  END
>  <CHROM.1>
-60.55383163,159.45351997,179.49240226,66.45902774,177.17819244,155.07639943
168.44162074,-76.15047050,18.69341367,-22.22740676,-8.05550803,1.31305627
-0.85716114,0.76639327

>  <Name>
ligand

>  <RI>
0

>  <Rbt.Current_Directory>
/home/itssahil/PROJECTS/Mol_Feturizer/New_Systems/rnas/4Y1I

>  <Rbt.Executable>
rbdock ($Id: //depot/dev/client3/rdock/2013.1/src/exe/rbdock.cxx#4 $)

>  <Rbt.Library>
libRbt.so (2013.1, Build901 2013/11/27)

>  <Rbt.Parameter_File>
/export/apps/rDock/src/rDock_2013.1_src/data/scripts/dock_solv.prm

>  <Rbt.Receptor>
prm/blind_docking_40.prm

>  <SCORE>
-15.3658

>  <SCORE.INTER>
-10.3778

>  <SCORE.INTER.CONST>
1

>  <SCORE.INTER.POLAR>
0

>  <SCORE.INTER.ROT>
8

>  <SCORE.INTER.SOLV>
22.5882

>  <SCORE.INTER.VDW>
-23.3812

>  <SCORE.INTER.norm>
-0.324305

>  <SCORE.INTRA>
-4.98801

>  <SCORE.INTRA.DIHEDRAL>
-8.30279

>  <SCORE.INTRA.DIHEDRAL.0>
10.9594

>  <SCORE.INTRA.POLAR>
0

>  <SCORE.INTRA.POLAR.0>
0

>  <SCORE.INTRA.REPUL>
0

>  <SCORE.INTRA.REPUL.0>
0

>  <SCORE.INTRA.SOLV>
-2.03372

>  <SCORE.INTRA.SOLV.lig_0>
-124.914

>  <SCORE.INTRA.VDW>
0.180238

>  <SCORE.INTRA.VDW.0>
-4.69801

>  <SCORE.INTRA.norm>
-0.155875

>  <SCORE.RESTR>
0

>  <SCORE.RESTR.CAVITY>
0

>  <SCORE.RESTR.norm>
0

>  <SCORE.SYSTEM>
0

>  <SCORE.SYSTEM.CONST>
0

>  <SCORE.SYSTEM.DIHEDRAL>
0

>  <SCORE.SYSTEM.SOLV>
0

>  <SCORE.SYSTEM.norm>
0

>  <SCORE.heavy>
32

>  <SCORE.norm>
-0.480181

>  <RMSD>
12.747

$$$$
ligand
 OpenBabel11021811513D
libRbt.so/2013.1/901 2013/11/27
 32 34  0  0  0  0  0  0  0  0999 V2000
   19.2281  -21.4889   -6.2854 P   0  0  1  0  0  0  0  0  0  0  0  0
   19.1404  -20.1230   -3.7639 P   0  0  2  0  0  0  0  0  0  0  0  0
   20.5519  -21.4948   -1.5865 P   0  0  1  0  0  0  0  0  0  0  0  0
   19.2528  -21.7520   -8.8780 C   0  0  0  0  0  0  0  0  0  0  0  0
   18.6146  -21.1669   -7.7787 O   0  0  0  0  0  0  0  0  0  0  0  0
   18.6945  -21.2632  -10.0538 C   0  0  1  0  0  0  0  0  0  0  0  0
   19.4957  -21.7484  -11.2465 O   0  0  0  0  0  0  0  0  0  0  0  0
   17.2118  -21.8177  -10.2684 C   0  0  1  0  0  0  0  0  0  0  0  0
   16.2314  -20.6682  -10.2074 O   0  0  0  0  0  0  0  0  0  0  0  0
   17.1786  -22.2670  -11.4166 C   0  0  1  0  0  0  0  0  0  0  0  0
   16.6133  -21.2439  -12.3286 O   0  0  0  0  0  0  0  0  0  0  0  0
   18.7551  -22.5986  -11.8391 C   0  0  2  0  0  0  0  0  0  0  0  0
   17.5423  -27.5896  -11.9069 N   0  0  0  0  0  0  0  0  0  0  0  0
   19.0029  -22.9405   -5.9419 O   0  5  0  0  0  0  0  0  0  0  0  0
   18.1381  -19.4231   -2.8808 O   0  5  0  0  0  0  0  0  0  0  0  0
   20.6283  -22.9280   -1.1149 O   0  0  0  0  0  0  0  0  0  0  0  0
   16.8609  -26.5752  -12.4162 C   0  0  0  0  0  0  0  0  0  0  0  0
   15.6051  -26.8303  -13.0928 N   0  0  0  0  0  0  0  0  0  0  0  0
   20.7029  -21.1553   -6.2841 O   0  0  0  0  0  0  0  0  0  0  0  0
   20.2873  -19.1929   -4.0609 O   0  0  0  0  0  0  0  0  0  0  0  0
   21.9537  -20.9735   -1.8166 O   0  5  0  0  0  0  0  0  0  0  0  0
   17.2880  -25.3320  -12.3288 N   0  0  0  0  0  0  0  0  0  0  0  0
   18.4424  -20.5554   -5.1853 O   0  0  0  0  0  0  0  0  0  0  0  0
   19.7078  -21.4685   -3.0065 O   0  0  0  0  0  0  0  0  0  0  0  0
   19.8487  -20.6661   -0.5338 O   0  0  0  0  0  0  0  0  0  0  0  0
   18.4427  -25.0534  -11.7119 C   0  0  0  0  0  0  0  0  0  0  0  0
   19.1727  -26.0928  -11.1716 C   0  0  0  0  0  0  0  0  0  0  0  0
   18.6969  -27.4139  -11.2777 C   0  0  0  0  0  0  0  0  0  0  0  0
   19.4185  -28.4932  -10.7379 O   0  0  0  0  0  0  0  0  0  0  0  0
   20.2764  -25.5660  -10.6142 N   0  0  0  0  0  0  0  0  0  0  0  0
   20.2310  -24.2584  -10.8010 C   0  0  0  0  0  0  0  0  0  0  0  0
   19.1336  -23.9310  -11.4574 N   0  0  0  0  0  0  0  0  0  0  0  0
  1  5  1  6  0  0  0
  1 14  1  0  0  0  0
  1 19  2  0  0  0  0
  1 23  1  0  0  0  0
  2 15  1  1  0  0  0
  2 20  2  0  0  0  0
  2 23  1  0  0  0  0
  2 24  1  0  0  0  0
  3 16  1  1  0  0  0
  3 21  1  0  0  0  0
  3 24  1  0  0  0  0
  3 25  2  0  0  0  0
  4  5  1  0  0  0  0
  6  4  1  1  0  0  0
  6  7  1  0  0  0  0
  6  8  1  0  0  0  0
  7 12  1  0  0  0  0
  8  9  1  6  0  0  0
  8 10  1  0  0  0  0
 10 11  1  6  0  0  0
 10 12  1  0  0  0  0
 12 32  1  1  0  0  0
 13 17  2  0  0  0  0
 13 28  1  0  0  0  0
 17 18  1  0  0  0  0
 17 22  1  0  0  0  0
 22 26  2  0  0  0  0
 26 27  1  0  0  0  0
 26 32  1  0  0  0  0
 27 28  2  0  0  0  0
 27 30  1  0  0  0  0
 28 29  1  0  0  0  0
 30 31  2  0  0  0  0
 31 32  1  0  0  0  0
M  CHG  3  14  -1  15  -1  21  -1
M  END
>  <CHROM.1>
-68.08383898,-172.75027796,168.65758030,172.59102224,-173.76879200,168.51921923
-154.07490037,-62.28698587,18.93543561,-22.62900279,-7.60735706,1.03164545
-1.17743813,0.63108331

>  <Name>
ligand

>  <RI>
0

>  <Rbt.Current_Directory>
/home/itssahil/PROJECTS/Mol_Feturizer/New_Systems/rnas/4Y1I

>  <Rbt.Executable>
rbdock ($Id: //depot/dev/client3/rdock/2013.1/src/exe/rbdock.cxx#4 $)

>  <Rbt.Library>
libRbt.so (2013.1, Build901 2013/11/27)

>  <Rbt.Parameter_File>
/export/apps/rDock/src/rDock_2013.1_src/data/scripts/dock_solv.prm

>  <Rbt.Receptor>
prm/blind_docking_40.prm

>  <SCORE>
-14.1753

>  <SCORE.INTER>
-9.14643

>  <SCORE.INTER.CONST>
1

>  <SCORE.INTER.POLAR>
0

>  <SCORE.INTER.ROT>
8

>  <SCORE.INTER.SOLV>
22.1191

>  <SCORE.INTER.VDW>
-22.404

>  <SCORE.INTER.norm>
-0.285826

>  <SCORE.INTRA>
-5.02886

>  <SCORE.INTRA.DIHEDRAL>
-8.03745

>  <SCORE.INTRA.DIHEDRAL.0>
10.9594

>  <SCORE.INTRA.POLAR>
0

>  <SCORE.INTRA.POLAR.0>
0

>  <SCORE.INTRA.REPUL>
0

>  <SCORE.INTRA.REPUL.0>
0

>  <SCORE.INTRA.SOLV>
-2.93181

>  <SCORE.INTRA.SOLV.lig_0>
-124.914

>  <SCORE.INTRA.VDW>
0.455773

>  <SCORE.INTRA.VDW.0>
-4.69801

>  <SCORE.INTRA.norm>
-0.157152

>  <SCORE.RESTR>
0

>  <SCORE.RESTR.CAVITY>
0

>  <SCORE.RESTR.norm>
0

>  <SCORE.SYSTEM>
0

>  <SCORE.SYSTEM.CONST>
0

>  <SCORE.SYSTEM.DIHEDRAL>
0

>  <SCORE.SYSTEM.SOLV>
0

>  <SCORE.SYSTEM.norm>
0

>  <SCORE.heavy>
32

>  <SCORE.norm>
-0.442978

>  <RMSD>
12.875

$$$$
ligand
 OpenBabel11021811513D
libRbt.so/2013.1/901 2013/11/27
 32 34  0  0  0  0  0  0  0  0999 V2000
   20.4775  -21.5799   -6.7513 P   0  0  1  0  0  0  0  0  0  0  0  0
   20.4421  -19.1941   -5.1583 P   0  0  2  0  0  0  0  0  0  0  0  0
   19.2662  -18.9399   -2.4810 P   0  0  1  0  0  0  0  0  0  0  0  0
   18.5445  -21.6162   -8.4988 C   0  0  0  0  0  0  0  0  0  0  0  0
   19.8428  -21.1775   -8.2160 O   0  0  0  0  0  0  0  0  0  0  0  0
   18.1643  -21.1622   -9.7568 C   0  0  1  0  0  0  0  0  0  0  0  0
   19.2336  -21.5076  -10.7753 O   0  0  0  0  0  0  0  0  0  0  0  0
   16.8321  -21.8870  -10.2588 C   0  0  1  0  0  0  0  0  0  0  0  0
   15.7210  -20.8688  -10.3804 O   0  0  0  0  0  0  0  0  0  0  0  0
   17.0762  -22.3003  -11.3950 C   0  0  1  0  0  0  0  0  0  0  0  0
   16.5712  -21.3257  -12.3915 O   0  0  0  0  0  0  0  0  0  0  0  0
   18.7334  -22.4228  -11.5065 C   0  0  2  0  0  0  0  0  0  0  0  0
   17.9994  -27.5059  -11.5958 N   0  0  0  0  0  0  0  0  0  0  0  0
   20.1705  -23.0239   -6.4401 O   0  5  0  0  0  0  0  0  0  0  0  0
   20.6056  -18.2992   -6.3611 O   0  5  0  0  0  0  0  0  0  0  0  0
   20.3404  -18.2727   -1.6544 O   0  0  0  0  0  0  0  0  0  0  0  0
   17.2765  -26.5647  -12.1825 C   0  0  0  0  0  0  0  0  0  0  0  0
   16.1172  -26.9426  -12.9652 N   0  0  0  0  0  0  0  0  0  0  0  0
   21.9699  -21.3396   -6.7862 O   0  0  0  0  0  0  0  0  0  0  0  0
   21.7896  -19.4588   -4.5397 O   0  0  0  0  0  0  0  0  0  0  0  0
   17.9089  -18.4948   -1.9820 O   0  5  0  0  0  0  0  0  0  0  0  0
   17.5769  -25.2861  -12.0787 N   0  0  0  0  0  0  0  0  0  0  0  0
   19.7847  -20.6310   -5.6031 O   0  0  0  0  0  0  0  0  0  0  0  0
   19.4640  -18.4690   -4.0522 O   0  0  0  0  0  0  0  0  0  0  0  0
   19.4072  -20.4410   -2.3536 O   0  0  0  0  0  0  0  0  0  0  0  0
   18.6393  -24.8948  -11.3648 C   0  0  0  0  0  0  0  0  0  0  0  0
   19.4098  -25.8561  -10.7425 C   0  0  0  0  0  0  0  0  0  0  0  0
   19.0702  -27.2170  -10.8679 C   0  0  0  0  0  0  0  0  0  0  0  0
   19.8361  -28.2188  -10.2461 O   0  0  0  0  0  0  0  0  0  0  0  0
   20.4042  -25.2231  -10.0969 N   0  0  0  0  0  0  0  0  0  0  0  0
   20.2552  -23.9273  -10.3101 C   0  0  0  0  0  0  0  0  0  0  0  0
   19.1970  -23.7103  -11.0687 N   0  0  0  0  0  0  0  0  0  0  0  0
  1  5  1  6  0  0  0
  1 14  1  0  0  0  0
  1 19  2  0  0  0  0
  1 23  1  0  0  0  0
  2 15  1  6  0  0  0
  2 20  2  0  0  0  0
  2 23  1  0  0  0  0
  2 24  1  0  0  0  0
  3 16  1  1  0  0  0
  3 21  1  0  0  0  0
  3 24  1  0  0  0  0
  3 25  2  0  0  0  0
  4  5  1  0  0  0  0
  6  4  1  1  0  0  0
  6  7  1  0  0  0  0
  6  8  1  0  0  0  0
  7 12  1  0  0  0  0
  8  9  1  6  0  0  0
  8 10  1  0  0  0  0
 10 11  1  6  0  0  0
 10 12  1  0  0  0  0
 12 32  1  1  0  0  0
 13 17  2  0  0  0  0
 13 28  1  0  0  0  0
 17 18  1  0  0  0  0
 17 22  1  0  0  0  0
 22 26  2  0  0  0  0
 26 27  1  0  0  0  0
 26 32  1  0  0  0  0
 27 28  2  0  0  0  0
 27 30  1  0  0  0  0
 28 29  1  0  0  0  0
 30 31  2  0  0  0  0
 31 32  1  0  0  0  0
M  CHG  3  14  -1  15  -1  21  -1
M  END
>  <CHROM.1>
43.71834756,56.27941931,86.94445259,50.73415730,178.67821276,162.05858216
-91.00738384,-166.60624573,19.14597739,-22.03235494,-7.92824309,-1.27085695
0.93283041,-2.47164023

>  <Name>
ligand

>  <RI>
0

>  <Rbt.Current_Directory>
/home/itssahil/PROJECTS/Mol_Feturizer/New_Systems/rnas/4Y1I

>  <Rbt.Executable>
rbdock ($Id: //depot/dev/client3/rdock/2013.1/src/exe/rbdock.cxx#4 $)

>  <Rbt.Library>
libRbt.so (2013.1, Build901 2013/11/27)

>  <Rbt.Parameter_File>
/export/apps/rDock/src/rDock_2013.1_src/data/scripts/dock_solv.prm

>  <Rbt.Receptor>
prm/blind_docking_40.prm

>  <SCORE>
-14.9685

>  <SCORE.INTER>
-9.78888

>  <SCORE.INTER.CONST>
1

>  <SCORE.INTER.POLAR>
0

>  <SCORE.INTER.ROT>
8

>  <SCORE.INTER.SOLV>
28.709

>  <SCORE.INTER.VDW>
-25.0289

>  <SCORE.INTER.norm>
-0.305902

>  <SCORE.INTRA>
-5.17957

>  <SCORE.INTRA.DIHEDRAL>
-6.50716

>  <SCORE.INTRA.DIHEDRAL.0>
10.9594

>  <SCORE.INTRA.POLAR>
0

>  <SCORE.INTRA.POLAR.0>
0

>  <SCORE.INTRA.REPUL>
0

>  <SCORE.INTRA.REPUL.0>
0

>  <SCORE.INTRA.SOLV>
-4.13123

>  <SCORE.INTRA.SOLV.lig_0>
-124.914

>  <SCORE.INTRA.VDW>
0.139623

>  <SCORE.INTRA.VDW.0>
-4.69801

>  <SCORE.INTRA.norm>
-0.161862

>  <SCORE.RESTR>
0

>  <SCORE.RESTR.CAVITY>
0

>  <SCORE.RESTR.norm>
0

>  <SCORE.SYSTEM>
0

>  <SCORE.SYSTEM.CONST>
0

>  <SCORE.SYSTEM.DIHEDRAL>
0

>  <SCORE.SYSTEM.SOLV>
0

>  <SCORE.SYSTEM.norm>
0

>  <SCORE.heavy>
32

>  <SCORE.norm>
-0.467764

>  <RMSD>
12.891

$$$$
ligand
 OpenBabel11021811513D
libRbt.so/2013.1/901 2013/11/27
 32 34  0  0  0  0  0  0  0  0999 V2000
   18.6634  -22.2672   -6.0124 P   0  0  1  0  0  0  0  0  0  0  0  0
   20.5900  -22.8968   -3.9820 P   0  0  2  0  0  0  0  0  0  0  0  0
   20.9447  -22.2318   -1.1452 P   0  0  1  0  0  0  0  0  0  0  0  0
   16.7021  -23.5675   -7.1322 C   0  0  0  0  0  0  0  0  0  0  0  0
   17.0584  -22.5132   -6.2840 O   0  0  0  0  0  0  0  0  0  0  0  0
   15.3753  -23.4222   -7.5219 C   0  0  1  0  0  0  0  0  0  0  0  0
   15.1430  -22.0198   -8.0504 O   0  0  0  0  0  0  0  0  0  0  0  0
   15.0108  -24.4085   -8.7247 C   0  0  1  0  0  0  0  0  0  0  0  0
   13.9815  -25.4125   -8.2572 O   0  0  0  0  0  0  0  0  0  0  0  0
   14.4750  -23.7097   -9.5883 C   0  0  1  0  0  0  0  0  0  0  0  0
   13.0017  -23.8039   -9.4524 O   0  0  0  0  0  0  0  0  0  0  0  0
   14.9746  -22.1460   -9.3067 C   0  0  2  0  0  0  0  0  0  0  0  0
   18.1091  -23.3653  -13.1891 N   0  0  0  0  0  0  0  0  0  0  0  0
   19.4710  -22.8801   -7.1296 O   0  5  0  0  0  0  0  0  0  0  0  0
   21.1429  -21.5077   -4.1795 O   0  5  0  0  0  0  0  0  0  0  0  0
   22.3243  -21.6812   -1.4207 O   0  0  0  0  0  0  0  0  0  0  0  0
   16.9642  -23.9378  -12.8514 C   0  0  0  0  0  0  0  0  0  0  0  0
   16.4709  -25.0553  -13.6307 N   0  0  0  0  0  0  0  0  0  0  0  0
   18.9169  -20.7797   -5.9148 O   0  0  0  0  0  0  0  0  0  0  0  0
   21.4626  -23.8937   -4.6987 O   0  0  0  0  0  0  0  0  0  0  0  0
   19.9553  -21.0879   -1.0962 O   0  5  0  0  0  0  0  0  0  0  0  0
   16.2518  -23.5235  -11.8235 N   0  0  0  0  0  0  0  0  0  0  0  0
   19.0723  -22.9984   -4.5994 O   0  0  0  0  0  0  0  0  0  0  0  0
   20.5487  -23.2582   -2.3778 O   0  0  0  0  0  0  0  0  0  0  0  0
   20.9626  -22.9687    0.1761 O   0  0  0  0  0  0  0  0  0  0  0  0
   16.6722  -22.4946  -11.0777 C   0  0  0  0  0  0  0  0  0  0  0  0
   17.8631  -21.8800  -11.4078 C   0  0  0  0  0  0  0  0  0  0  0  0
   18.6074  -22.3394  -12.5114 C   0  0  0  0  0  0  0  0  0  0  0  0
   19.8237  -21.7333  -12.8724 O   0  0  0  0  0  0  0  0  0  0  0  0
   18.0665  -20.8888  -10.5233 N   0  0  0  0  0  0  0  0  0  0  0  0
   17.0466  -20.8905   -9.6827 C   0  0  0  0  0  0  0  0  0  0  0  0
   16.1987  -21.8514   -9.9988 N   0  0  0  0  0  0  0  0  0  0  0  0
  1  5  1  6  0  0  0
  1 14  1  0  0  0  0
  1 19  2  0  0  0  0
  1 23  1  0  0  0  0
  2 15  1  6  0  0  0
  2 20  2  0  0  0  0
  2 23  1  0  0  0  0
  2 24  1  0  0  0  0
  3 16  1  6  0  0  0
  3 21  1  0  0  0  0
  3 24  1  0  0  0  0
  3 25  2  0  0  0  0
  4  5  1  0  0  0  0
  6  4  1  6  0  0  0
  6  7  1  0  0  0  0
  6  8  1  0  0  0  0
  7 12  1  0  0  0  0
  8  9  1  1  0  0  0
  8 10  1  0  0  0  0
 10 11  1  1  0  0  0
 10 12  1  0  0  0  0
 12 32  1  6  0  0  0
 13 17  2  0  0  0  0
 13 28  1  0  0  0  0
 17 18  1  0  0  0  0
 17 22  1  0  0  0  0
 22 26  2  0  0  0  0
 26 27  1  0  0  0  0
 26 32  1  0  0  0  0
 27 28  2  0  0  0  0
 27 30  1  0  0  0  0
 28 29  1  0  0  0  0
 30 31  2  0  0  0  0
 31 32  1  0  0  0  0
M  CHG  3  14  -1  15  -1  21  -1
M  END
>  <CHROM.1>
21.84763270,39.69745273,-53.22066581,50.78925775,-164.71834583,141.23312774
-177.17182634,4.09722827,18.16833561,-22.70159655,-7.09555539,-1.09368055
-0.28262400,-1.51564608

>  <Name>
ligand

>  <RI>
0

>  <Rbt.Current_Directory>
/home/itssahil/PROJECTS/Mol_Feturizer/New_Systems/rnas/4Y1I

>  <Rbt.Executable>
rbdock ($Id: //depot/dev/client3/rdock/2013.1/src/exe/rbdock.cxx#4 $)

>  <Rbt.Library>
libRbt.so (2013.1, Build901 2013/11/27)

>  <Rbt.Parameter_File>
/export/apps/rDock/src/rDock_2013.1_src/data/scripts/dock_solv.prm

>  <Rbt.Receptor>
prm/blind_docking_40.prm

>  <SCORE>
-10.1585

>  <SCORE.INTER>
-7.71215

>  <SCORE.INTER.CONST>
1

>  <SCORE.INTER.POLAR>
0

>  <SCORE.INTER.ROT>
8

>  <SCORE.INTER.SOLV>
34.4776

>  <SCORE.INTER.VDW>
-25.5673

>  <SCORE.INTER.norm>
-0.241005

>  <SCORE.INTRA>
-3.14223

>  <SCORE.INTRA.DIHEDRAL>
-3.66335

>  <SCORE.INTRA.DIHEDRAL.0>
10.9594

>  <SCORE.INTRA.POLAR>
0

>  <SCORE.INTRA.POLAR.0>
0

>  <SCORE.INTRA.REPUL>
0

>  <SCORE.INTRA.REPUL.0>
0

>  <SCORE.INTRA.SOLV>
-3.48171

>  <SCORE.INTRA.SOLV.lig_0>
-124.914

>  <SCORE.INTRA.VDW>
0.430301

>  <SCORE.INTRA.VDW.0>
-4.69801

>  <SCORE.INTRA.norm>
-0.0981947

>  <SCORE.RESTR>
0.695832

>  <SCORE.RESTR.CAVITY>
0.695832

>  <SCORE.RESTR.norm>
0.0217447

>  <SCORE.SYSTEM>
0

>  <SCORE.SYSTEM.CONST>
0

>  <SCORE.SYSTEM.DIHEDRAL>
0

>  <SCORE.SYSTEM.SOLV>
0

>  <SCORE.SYSTEM.norm>
0

>  <SCORE.heavy>
32

>  <SCORE.norm>
-0.317455

>  <RMSD>
12.914

$$$$
ligand
 OpenBabel11021811513D
libRbt.so/2013.1/901 2013/11/27
 32 34  0  0  0  0  0  0  0  0999 V2000
   18.2671  -21.8791   -6.0027 P   0  0  1  0  0  0  0  0  0  0  0  0
   20.5157  -22.3381   -4.2810 P   0  0  2  0  0  0  0  0  0  0  0  0
   20.7912  -20.5379   -1.9791 P   0  0  1  0  0  0  0  0  0  0  0  0
   17.0326  -21.9121   -8.2975 C   0  0  0  0  0  0  0  0  0  0  0  0
   18.0211  -21.2957   -7.5224 O   0  0  0  0  0  0  0  0  0  0  0  0
   17.0736  -21.4053   -9.5916 C   0  0  1  0  0  0  0  0  0  0  0  0
   18.4446  -21.6414  -10.1954 O   0  0  0  0  0  0  0  0  0  0  0  0
   16.0396  -22.1620  -10.5459 C   0  0  1  0  0  0  0  0  0  0  0  0
   14.9732  -21.1917  -11.0014 O   0  0  0  0  0  0  0  0  0  0  0  0
   16.6803  -22.4976  -11.5449 C   0  0  1  0  0  0  0  0  0  0  0  0
   16.4825  -21.4924  -12.6164 O   0  0  0  0  0  0  0  0  0  0  0  0
   18.2814  -22.5357  -11.0876 C   0  0  2  0  0  0  0  0  0  0  0  0
   17.6405  -27.6242  -11.3735 N   0  0  0  0  0  0  0  0  0  0  0  0
   17.7426  -20.8954   -4.9861 O   0  5  0  0  0  0  0  0  0  0  0  0
   22.0217  -22.2798   -4.3346 O   0  5  0  0  0  0  0  0  0  0  0  0
   22.0955  -20.0004   -2.5196 O   0  0  0  0  0  0  0  0  0  0  0  0
   17.0561  -26.6841  -12.0997 C   0  0  0  0  0  0  0  0  0  0  0  0
   16.1041  -27.0651  -13.1234 N   0  0  0  0  0  0  0  0  0  0  0  0
   17.5673  -23.2133   -5.8755 O   0  0  0  0  0  0  0  0  0  0  0  0
   20.0799  -23.7034   -3.8176 O   0  0  0  0  0  0  0  0  0  0  0  0
   19.9974  -19.3990   -1.3770 O   0  5  0  0  0  0  0  0  0  0  0  0
   17.3121  -25.4039  -11.9228 N   0  0  0  0  0  0  0  0  0  0  0  0
   19.8823  -22.0701   -5.7715 O   0  0  0  0  0  0  0  0  0  0  0  0
   19.9499  -21.1988   -3.2380 O   0  0  0  0  0  0  0  0  0  0  0  0
   21.0873  -21.5858   -0.9285 O   0  0  0  0  0  0  0  0  0  0  0  0
   18.1848  -25.0097  -10.9876 C   0  0  0  0  0  0  0  0  0  0  0  0
   18.8079  -25.9697  -10.2162 C   0  0  0  0  0  0  0  0  0  0  0  0
   18.5194  -27.3324  -10.4236 C   0  0  0  0  0  0  0  0  0  0  0  0
   19.1386  -28.3330   -9.6540 O   0  0  0  0  0  0  0  0  0  0  0  0
   19.6269  -25.3338   -9.3612 N   0  0  0  0  0  0  0  0  0  0  0  0
   19.5151  -24.0375   -9.5931 C   0  0  0  0  0  0  0  0  0  0  0  0
   18.6499  -23.8230  -10.5666 N   0  0  0  0  0  0  0  0  0  0  0  0
  1  5  1  6  0  0  0
  1 14  1  0  0  0  0
  1 19  2  0  0  0  0
  1 23  1  0  0  0  0
  2 15  1  6  0  0  0
  2 20  2  0  0  0  0
  2 23  1  0  0  0  0
  2 24  1  0  0  0  0
  3 16  1  6  0  0  0
  3 21  1  0  0  0  0
  3 24  1  0  0  0  0
  3 25  2  0  0  0  0
  4  5  1  0  0  0  0
  6  4  1  1  0  0  0
  6  7  1  0  0  0  0
  6  8  1  0  0  0  0
  7 12  1  0  0  0  0
  8  9  1  6  0  0  0
  8 10  1  0  0  0  0
 10 11  1  6  0  0  0
 10 12  1  0  0  0  0
 12 32  1  1  0  0  0
 13 17  2  0  0  0  0
 13 28  1  0  0  0  0
 17 18  1  0  0  0  0
 17 22  1  0  0  0  0
 22 26  2  0  0  0  0
 26 27  1  0  0  0  0
 26 32  1  0  0  0  0
 27 28  2  0  0  0  0
 27 30  1  0  0  0  0
 28 29  1  0  0  0  0
 30 31  2  0  0  0  0
 31 32  1  0  0  0  0
M  CHG  3  14  -1  15  -1  21  -1
M  END
>  <CHROM.1>
-108.04366455,-172.01262320,53.53617839,58.47776715,-172.82188768,154.15608888
167.24464069,-24.29006611,18.72382243,-22.91807372,-7.45278249,0.96080819
-0.97781516,0.62966613

>  <Name>
ligand

>  <RI>
0

>  <Rbt.Current_Directory>
/home/itssahil/PROJECTS/Mol_Feturizer/New_Systems/rnas/4Y1I

>  <Rbt.Executable>
rbdock ($Id: //depot/dev/client3/rdock/2013.1/src/exe/rbdock.cxx#4 $)

>  <Rbt.Library>
libRbt.so (2013.1, Build901 2013/11/27)

>  <Rbt.Parameter_File>
/export/apps/rDock/src/rDock_2013.1_src/data/scripts/dock_solv.prm

>  <Rbt.Receptor>
prm/blind_docking_40.prm

>  <SCORE>
-8.98204

>  <SCORE.INTER>
-4.8225

>  <SCORE.INTER.CONST>
1

>  <SCORE.INTER.POLAR>
0

>  <SCORE.INTER.ROT>
8

>  <SCORE.INTER.SOLV>
24.9697

>  <SCORE.INTER.VDW>
-20.4716

>  <SCORE.INTER.norm>
-0.150703

>  <SCORE.INTRA>
-4.15954

>  <SCORE.INTRA.DIHEDRAL>
-5.36801

>  <SCORE.INTRA.DIHEDRAL.0>
10.9594

>  <SCORE.INTRA.POLAR>
0

>  <SCORE.INTRA.POLAR.0>
0

>  <SCORE.INTRA.REPUL>
0

>  <SCORE.INTRA.REPUL.0>
0

>  <SCORE.INTRA.SOLV>
-4.0173

>  <SCORE.INTRA.SOLV.lig_0>
-124.914

>  <SCORE.INTRA.VDW>
0.533114

>  <SCORE.INTRA.VDW.0>
-4.69801

>  <SCORE.INTRA.norm>
-0.129986

>  <SCORE.RESTR>
0

>  <SCORE.RESTR.CAVITY>
0

>  <SCORE.RESTR.norm>
0

>  <SCORE.SYSTEM>
0

>  <SCORE.SYSTEM.CONST>
0

>  <SCORE.SYSTEM.DIHEDRAL>
0

>  <SCORE.SYSTEM.SOLV>
0

>  <SCORE.SYSTEM.norm>
0

>  <SCORE.heavy>
32

>  <SCORE.norm>
-0.280689

>  <RMSD>
12.921

$$$$
ligand
 OpenBabel11021811513D
libRbt.so/2013.1/901 2013/11/27
 32 34  0  0  0  0  0  0  0  0999 V2000
   16.6541  -24.2440   -8.2714 P   0  0  1  0  0  0  0  0  0  0  0  0
   17.1623  -25.1124  -10.9581 P   0  0  2  0  0  0  0  0  0  0  0  0
   18.1811  -22.5321  -11.9170 P   0  0  1  0  0  0  0  0  0  0  0  0
   17.7836  -22.9511   -6.3108 C   0  0  0  0  0  0  0  0  0  0  0  0
   17.6035  -24.1942   -6.9273 O   0  0  0  0  0  0  0  0  0  0  0  0
   18.5577  -22.1349   -7.1281 C   0  0  1  0  0  0  0  0  0  0  0  0
   18.9236  -20.8621   -6.3890 O   0  0  0  0  0  0  0  0  0  0  0  0
   19.9432  -22.8351   -7.5051 C   0  0  1  0  0  0  0  0  0  0  0  0
   19.9862  -23.0956   -8.9938 O   0  0  0  0  0  0  0  0  0  0  0  0
   20.8230  -22.0085   -7.2522 C   0  0  1  0  0  0  0  0  0  0  0  0
   21.1882  -21.2842   -8.4931 O   0  0  0  0  0  0  0  0  0  0  0  0
   20.1707  -20.9492   -6.1448 C   0  0  2  0  0  0  0  0  0  0  0  0
   19.1663  -20.1988   -1.1635 N   0  0  0  0  0  0  0  0  0  0  0  0
   15.2690  -24.7143   -7.9021 O   0  5  0  0  0  0  0  0  0  0  0  0
   15.8167  -24.5191  -11.2922 O   0  5  0  0  0  0  0  0  0  0  0  0
   18.2339  -21.7044  -10.6543 O   0  0  0  0  0  0  0  0  0  0  0  0
   18.7483  -19.4869   -2.1985 C   0  0  0  0  0  0  0  0  0  0  0  0
   17.8965  -18.3366   -1.9731 N   0  0  0  0  0  0  0  0  0  0  0  0
   16.6105  -22.8634   -8.8865 O   0  0  0  0  0  0  0  0  0  0  0  0
   17.2962  -26.4610  -11.6156 O   0  0  0  0  0  0  0  0  0  0  0  0
   19.3144  -22.1168  -12.8295 O   0  5  0  0  0  0  0  0  0  0  0  0
   19.0824  -19.7903   -3.4363 N   0  0  0  0  0  0  0  0  0  0  0  0
   17.3101  -25.3101   -9.3352 O   0  0  0  0  0  0  0  0  0  0  0  0
   18.3589  -24.1195  -11.4952 O   0  0  0  0  0  0  0  0  0  0  0  0
   16.8486  -22.3083  -12.5979 O   0  0  0  0  0  0  0  0  0  0  0  0
   19.8676  -20.8447   -3.6878 C   0  0  0  0  0  0  0  0  0  0  0  0
   20.3177  -21.6036   -2.6264 C   0  0  0  0  0  0  0  0  0  0  0  0
   19.9472  -21.2610   -1.3118 C   0  0  0  0  0  0  0  0  0  0  0  0
   20.3895  -22.0152   -0.2106 O   0  0  0  0  0  0  0  0  0  0  0  0
   21.0780  -22.5917   -3.1283 N   0  0  0  0  0  0  0  0  0  0  0  0
   21.0979  -22.4500   -4.4422 C   0  0  0  0  0  0  0  0  0  0  0  0
   20.3773  -21.4026   -4.7972 N   0  0  0  0  0  0  0  0  0  0  0  0
  1  5  1  1  0  0  0
  1 14  1  0  0  0  0
  1 19  2  0  0  0  0
  1 23  1  0  0  0  0
  2 15  1  6  0  0  0
  2 20  2  0  0  0  0
  2 23  1  0  0  0  0
  2 24  1  0  0  0  0
  3 16  1  1  0  0  0
  3 21  1  0  0  0  0
  3 24  1  0  0  0  0
  3 25  2  0  0  0  0
  4  5  1  0  0  0  0
  6  4  1  1  0  0  0
  6  7  1  0  0  0  0
  6  8  1  0  0  0  0
  7 12  1  0  0  0  0
  8  9  1  6  0  0  0
  8 10  1  0  0  0  0
 10 11  1  6  0  0  0
 10 12  1  0  0  0  0
 12 32  1  1  0  0  0
 13 17  2  0  0  0  0
 13 28  1  0  0  0  0
 17 18  1  0  0  0  0
 17 22  1  0  0  0  0
 22 26  2  0  0  0  0
 26 27  1  0  0  0  0
 26 32  1  0  0  0  0
 27 28  2  0  0  0  0
 27 30  1  0  0  0  0
 28 29  1  0  0  0  0
 30 31  2  0  0  0  0
 31 32  1  0  0  0  0
M  CHG  3  14  -1  15  -1  21  -1
M  END
>  <CHROM.1>
-99.03161027,-35.34742929,82.72159915,-172.00840421,-69.34015800,-54.25892192
-148.58773433,17.13018435,18.54025576,-22.61587177,-7.47312680,1.93059683
-0.80524257,-1.65146226

>  <Name>
ligand

>  <RI>
0

>  <Rbt.Current_Directory>
/home/itssahil/PROJECTS/Mol_Feturizer/New_Systems/rnas/4Y1I

>  <Rbt.Executable>
rbdock ($Id: //depot/dev/client3/rdock/2013.1/src/exe/rbdock.cxx#4 $)

>  <Rbt.Library>
libRbt.so (2013.1, Build901 2013/11/27)

>  <Rbt.Parameter_File>
/export/apps/rDock/src/rDock_2013.1_src/data/scripts/dock_solv.prm

>  <Rbt.Receptor>
prm/blind_docking_40.prm

>  <SCORE>
-3.62813

>  <SCORE.INTER>
-3.28406

>  <SCORE.INTER.CONST>
1

>  <SCORE.INTER.POLAR>
0

>  <SCORE.INTER.ROT>
8

>  <SCORE.INTER.SOLV>
34.0057

>  <SCORE.INTER.VDW>
-22.458

>  <SCORE.INTER.norm>
-0.102627

>  <SCORE.INTRA>
-0.347092

>  <SCORE.INTRA.DIHEDRAL>
-2.51492

>  <SCORE.INTRA.DIHEDRAL.0>
10.9594

>  <SCORE.INTRA.POLAR>
0

>  <SCORE.INTRA.POLAR.0>
0

>  <SCORE.INTRA.REPUL>
0

>  <SCORE.INTRA.REPUL.0>
0

>  <SCORE.INTRA.SOLV>
2.02684

>  <SCORE.INTRA.SOLV.lig_0>
-124.914

>  <SCORE.INTRA.VDW>
-0.103052

>  <SCORE.INTRA.VDW.0>
-4.69801

>  <SCORE.INTRA.norm>
-0.0108466

>  <SCORE.RESTR>
0.00302649

>  <SCORE.RESTR.CAVITY>
0.00302649

>  <SCORE.RESTR.norm>
9.4578e-05

>  <SCORE.SYSTEM>
0

>  <SCORE.SYSTEM.CONST>
0

>  <SCORE.SYSTEM.DIHEDRAL>
0

>  <SCORE.SYSTEM.SOLV>
0

>  <SCORE.SYSTEM.norm>
0

>  <SCORE.heavy>
32

>  <SCORE.norm>
-0.113379

>  <RMSD>
12.982

$$$$
ligand
 OpenBabel11021811513D
libRbt.so/2013.1/901 2013/11/27
 32 34  0  0  0  0  0  0  0  0999 V2000
   19.2461  -20.9258   -5.8821 P   0  0  1  0  0  0  0  0  0  0  0  0
   19.0851  -20.0434   -3.1569 P   0  0  2  0  0  0  0  0  0  0  0  0
   20.9260  -22.0075   -1.9870 P   0  0  1  0  0  0  0  0  0  0  0  0
   19.6249  -22.5191   -7.9092 C   0  0  0  0  0  0  0  0  0  0  0  0
   18.9708  -22.3359   -6.6859 O   0  0  0  0  0  0  0  0  0  0  0  0
   19.0485  -21.6980   -8.8719 C   0  0  1  0  0  0  0  0  0  0  0  0
   19.7360  -21.9068  -10.2074 O   0  0  0  0  0  0  0  0  0  0  0  0
   17.5125  -22.0681   -9.1084 C   0  0  1  0  0  0  0  0  0  0  0  0
   16.6437  -20.9084   -8.6767 O   0  0  0  0  0  0  0  0  0  0  0  0
   17.3760  -22.1942  -10.3277 C   0  0  1  0  0  0  0  0  0  0  0  0
   16.8550  -20.9285  -10.8974 O   0  0  0  0  0  0  0  0  0  0  0  0
   18.8908  -22.5146  -10.9414 C   0  0  2  0  0  0  0  0  0  0  0  0
   17.2120  -27.2143  -12.1578 N   0  0  0  0  0  0  0  0  0  0  0  0
   20.7302  -20.6709   -5.7900 O   0  5  0  0  0  0  0  0  0  0  0  0
   17.9033  -19.2290   -2.6937 O   0  5  0  0  0  0  0  0  0  0  0  0
   22.1846  -21.2535   -2.3474 O   0  0  0  0  0  0  0  0  0  0  0  0
   16.5936  -26.0558  -12.3259 C   0  0  0  0  0  0  0  0  0  0  0  0
   15.2733  -26.0344  -12.9225 N   0  0  0  0  0  0  0  0  0  0  0  0
   18.5491  -19.8035   -6.6175 O   0  0  0  0  0  0  0  0  0  0  0  0
   20.1553  -19.1243   -3.6848 O   0  0  0  0  0  0  0  0  0  0  0  0
   21.1152  -22.6730   -0.6413 O   0  5  0  0  0  0  0  0  0  0  0  0
   17.1411  -24.9126  -11.9669 N   0  0  0  0  0  0  0  0  0  0  0  0
   18.6363  -21.0627   -4.3628 O   0  0  0  0  0  0  0  0  0  0  0  0
   19.6856  -20.9196   -1.9009 O   0  0  0  0  0  0  0  0  0  0  0  0
   20.6507  -23.0453   -3.0531 O   0  0  0  0  0  0  0  0  0  0  0  0
   18.3589  -24.8885  -11.4120 C   0  0  0  0  0  0  0  0  0  0  0  0
   19.0254  -26.0826  -11.2250 C   0  0  0  0  0  0  0  0  0  0  0  0
   18.4210  -27.2925  -11.6172 C   0  0  0  0  0  0  0  0  0  0  0  0
   19.0753  -28.5242  -11.4400 O   0  0  0  0  0  0  0  0  0  0  0  0
   20.2117  -25.8004  -10.6598 N   0  0  0  0  0  0  0  0  0  0  0  0
   20.2759  -24.4896  -10.5035 C   0  0  0  0  0  0  0  0  0  0  0  0
   19.1691  -23.9241  -10.9479 N   0  0  0  0  0  0  0  0  0  0  0  0
  1  5  1  6  0  0  0
  1 14  1  0  0  0  0
  1 19  2  0  0  0  0
  1 23  1  0  0  0  0
  2 15  1  1  0  0  0
  2 20  2  0  0  0  0
  2 23  1  0  0  0  0
  2 24  1  0  0  0  0
  3 16  1  6  0  0  0
  3 21  1  0  0  0  0
  3 24  1  0  0  0  0
  3 25  2  0  0  0  0
  4  5  1  0  0  0  0
  6  4  1  1  0  0  0
  6  7  1  0  0  0  0
  6  8  1  0  0  0  0
  7 12  1  0  0  0  0
  8  9  1  6  0  0  0
  8 10  1  0  0  0  0
 10 11  1  6  0  0  0
 10 12  1  0  0  0  0
 12 32  1  1  0  0  0
 13 17  2  0  0  0  0
 13 28  1  0  0  0  0
 17 18  1  0  0  0  0
 17 22  1  0  0  0  0
 22 26  2  0  0  0  0
 26 27  1  0  0  0  0
 26 32  1  0  0  0  0
 27 28  2  0  0  0  0
 27 30  1  0  0  0  0
 28 29  1  0  0  0  0
 30 31  2  0  0  0  0
 31 32  1  0  0  0  0
M  CHG  3  14  -1  15  -1  21  -1
M  END
>  <CHROM.1>
-49.64118760,115.82441262,65.09339257,-179.05629113,-72.43175891,167.42735419
162.50102780,176.47987758,19.00734703,-22.59719351,-7.27837036,1.14457572
-1.02952721,0.73097629

>  <Name>
ligand

>  <RI>
0

>  <Rbt.Current_Directory>
/home/itssahil/PROJECTS/Mol_Feturizer/New_Systems/rnas/4Y1I

>  <Rbt.Executable>
rbdock ($Id: //depot/dev/client3/rdock/2013.1/src/exe/rbdock.cxx#4 $)

>  <Rbt.Library>
libRbt.so (2013.1, Build901 2013/11/27)

>  <Rbt.Parameter_File>
/export/apps/rDock/src/rDock_2013.1_src/data/scripts/dock_solv.prm

>  <Rbt.Receptor>
prm/blind_docking_40.prm

>  <SCORE>
-7.2665

>  <SCORE.INTER>
-5.06845

>  <SCORE.INTER.CONST>
1

>  <SCORE.INTER.POLAR>
0

>  <SCORE.INTER.ROT>
8

>  <SCORE.INTER.SOLV>
28.474

>  <SCORE.INTER.VDW>
-21.8036

>  <SCORE.INTER.norm>
-0.158389

>  <SCORE.INTRA>
-2.19805

>  <SCORE.INTRA.DIHEDRAL>
-5.88151

>  <SCORE.INTRA.DIHEDRAL.0>
10.9594

>  <SCORE.INTRA.POLAR>
0

>  <SCORE.INTRA.POLAR.0>
0

>  <SCORE.INTRA.REPUL>
0

>  <SCORE.INTRA.REPUL.0>
0

>  <SCORE.INTRA.SOLV>
1.15576

>  <SCORE.INTRA.SOLV.lig_0>
-124.914

>  <SCORE.INTRA.VDW>
0.164824

>  <SCORE.INTRA.VDW.0>
-4.69801

>  <SCORE.INTRA.norm>
-0.0686892

>  <SCORE.RESTR>
0

>  <SCORE.RESTR.CAVITY>
0

>  <SCORE.RESTR.norm>
0

>  <SCORE.SYSTEM>
0

>  <SCORE.SYSTEM.CONST>
0

>  <SCORE.SYSTEM.DIHEDRAL>
0

>  <SCORE.SYSTEM.SOLV>
0

>  <SCORE.SYSTEM.norm>
0

>  <SCORE.heavy>
32

>  <SCORE.norm>
-0.227078

>  <RMSD>
13.102

$$$$
ligand
 OpenBabel11021811513D
libRbt.so/2013.1/901 2013/11/27
 32 34  0  0  0  0  0  0  0  0999 V2000
   18.7046  -21.7041   -5.2749 P   0  0  1  0  0  0  0  0  0  0  0  0
   21.0020  -22.6146   -3.8176 P   0  0  2  0  0  0  0  0  0  0  0  0
   21.2525  -21.9529   -0.9690 P   0  0  1  0  0  0  0  0  0  0  0  0
   18.9781  -21.7489   -7.8662 C   0  0  0  0  0  0  0  0  0  0  0  0
   19.5643  -22.0575   -6.6337 O   0  0  0  0  0  0  0  0  0  0  0  0
   19.6649  -22.4017   -8.8838 C   0  0  1  0  0  0  0  0  0  0  0  0
   19.5539  -23.9031   -8.7010 O   0  0  0  0  0  0  0  0  0  0  0  0
   19.0243  -22.0869  -10.3131 C   0  0  1  0  0  0  0  0  0  0  0  0
   20.0207  -21.3196  -11.1525 O   0  0  0  0  0  0  0  0  0  0  0  0
   18.8515  -23.1800  -10.8576 C   0  0  1  0  0  0  0  0  0  0  0  0
   19.9934  -23.4662  -11.7587 O   0  0  0  0  0  0  0  0  0  0  0  0
   18.7916  -24.3110   -9.6364 C   0  0  2  0  0  0  0  0  0  0  0  0
   13.9015  -22.7555   -9.8646 N   0  0  0  0  0  0  0  0  0  0  0  0
   17.9856  -20.3896   -5.4520 O   0  5  0  0  0  0  0  0  0  0  0  0
   21.8939  -22.5971   -5.0336 O   0  5  0  0  0  0  0  0  0  0  0  0
   22.4106  -21.7181   -0.0277 O   0  0  0  0  0  0  0  0  0  0  0  0
   14.9385  -22.2967  -10.5478 C   0  0  0  0  0  0  0  0  0  0  0  0
   14.7441  -21.2204  -11.4982 N   0  0  0  0  0  0  0  0  0  0  0  0
   17.7247  -22.8259   -5.0149 O   0  0  0  0  0  0  0  0  0  0  0  0
   20.4412  -23.9989   -3.6233 O   0  0  0  0  0  0  0  0  0  0  0  0
   20.3522  -20.7368   -0.9600 O   0  5  0  0  0  0  0  0  0  0  0  0
   16.1508  -22.7886  -10.3926 N   0  0  0  0  0  0  0  0  0  0  0  0
   19.7502  -21.5712   -4.0149 O   0  0  0  0  0  0  0  0  0  0  0  0
   21.8653  -22.1811   -2.4862 O   0  0  0  0  0  0  0  0  0  0  0  0
   20.4879  -23.1769   -0.5142 O   0  0  0  0  0  0  0  0  0  0  0  0
   16.3732  -23.7831   -9.5248 C   0  0  0  0  0  0  0  0  0  0  0  0
   15.3092  -24.2796   -8.7992 C   0  0  0  0  0  0  0  0  0  0  0  0
   14.0219  -23.7388   -8.9822 C   0  0  0  0  0  0  0  0  0  0  0  0
   12.9187  -24.2241   -8.2581 O   0  0  0  0  0  0  0  0  0  0  0  0
   15.7799  -25.2585   -8.0078 N   0  0  0  0  0  0  0  0  0  0  0  0
   17.0780  -25.3627   -8.2334 C   0  0  0  0  0  0  0  0  0  0  0  0
   17.4536  -24.4813   -9.1413 N   0  0  0  0  0  0  0  0  0  0  0  0
  1  5  1  6  0  0  0
  1 14  1  0  0  0  0
  1 19  2  0  0  0  0
  1 23  1  0  0  0  0
  2 15  1  6  0  0  0
  2 20  2  0  0  0  0
  2 23  1  0  0  0  0
  2 24  1  0  0  0  0
  3 16  1  1  0  0  0
  3 21  1  0  0  0  0
  3 24  1  0  0  0  0
  3 25  2  0  0  0  0
  4  5  1  0  0  0  0
  6  4  1  1  0  0  0
  6  7  1  0  0  0  0
  6  8  1  0  0  0  0
  7 12  1  0  0  0  0
  8  9  1  6  0  0  0
  8 10  1  0  0  0  0
 10 11  1  6  0  0  0
 10 12  1  0  0  0  0
 12 32  1  1  0  0  0
 13 17  2  0  0  0  0
 13 28  1  0  0  0  0
 17 18  1  0  0  0  0
 17 22  1  0  0  0  0
 22 26  2  0  0  0  0
 26 27  1  0  0  0  0
 26 32  1  0  0  0  0
 27 28  2  0  0  0  0
 27 30  1  0  0  0  0
 28 29  1  0  0  0  0
 30 31  2  0  0  0  0
 31 32  1  0  0  0  0
M  CHG  3  14  -1  15  -1  21  -1
M  END
>  <CHROM.1>
-38.71572872,57.92564104,173.72056609,62.61182423,-165.21348912,115.20425146
-41.60437216,174.78859240,18.65857632,-22.70179114,-6.53923190,1.04010918
0.17437189,1.53418125

>  <Name>
ligand

>  <RI>
0

>  <Rbt.Current_Directory>
/home/itssahil/PROJECTS/Mol_Feturizer/New_Systems/rnas/4Y1I

>  <Rbt.Executable>
rbdock ($Id: //depot/dev/client3/rdock/2013.1/src/exe/rbdock.cxx#4 $)

>  <Rbt.Library>
libRbt.so (2013.1, Build901 2013/11/27)

>  <Rbt.Parameter_File>
/export/apps/rDock/src/rDock_2013.1_src/data/scripts/dock_solv.prm

>  <Rbt.Receptor>
prm/blind_docking_40.prm

>  <SCORE>
-3.72471

>  <SCORE.INTER>
0.877988

>  <SCORE.INTER.CONST>
1

>  <SCORE.INTER.POLAR>
0

>  <SCORE.INTER.ROT>
8

>  <SCORE.INTER.SOLV>
37.919

>  <SCORE.INTER.VDW>
-20.9877

>  <SCORE.INTER.norm>
0.0274371

>  <SCORE.INTRA>
-5.41549

>  <SCORE.INTRA.DIHEDRAL>
-7.33081

>  <SCORE.INTRA.DIHEDRAL.0>
10.9594

>  <SCORE.INTRA.POLAR>
0

>  <SCORE.INTRA.POLAR.0>
0

>  <SCORE.INTRA.REPUL>
0

>  <SCORE.INTRA.REPUL.0>
0

>  <SCORE.INTRA.SOLV>
-3.53482

>  <SCORE.INTRA.SOLV.lig_0>
-124.914

>  <SCORE.INTRA.VDW>
0.0173245

>  <SCORE.INTRA.VDW.0>
-4.69801

>  <SCORE.INTRA.norm>
-0.169234

>  <SCORE.RESTR>
0.812796

>  <SCORE.RESTR.CAVITY>
0.812796

>  <SCORE.RESTR.norm>
0.0253999

>  <SCORE.SYSTEM>
0

>  <SCORE.SYSTEM.CONST>
0

>  <SCORE.SYSTEM.DIHEDRAL>
0

>  <SCORE.SYSTEM.SOLV>
0

>  <SCORE.SYSTEM.norm>
0

>  <SCORE.heavy>
32

>  <SCORE.norm>
-0.116397

>  <RMSD>
13.129

$$$$
ligand
 OpenBabel11021811513D
libRbt.so/2013.1/901 2013/11/27
 32 34  0  0  0  0  0  0  0  0999 V2000
   19.8962  -22.3928   -5.7831 P   0  0  1  0  0  0  0  0  0  0  0  0
   20.0867  -19.5976   -5.1653 P   0  0  2  0  0  0  0  0  0  0  0  0
   19.2203  -18.8570   -2.4605 P   0  0  1  0  0  0  0  0  0  0  0  0
   17.5424  -22.3090   -6.8984 C   0  0  0  0  0  0  0  0  0  0  0  0
   18.3996  -23.0229   -6.0536 O   0  0  0  0  0  0  0  0  0  0  0  0
   16.3270  -22.9768   -6.9990 C   0  0  1  0  0  0  0  0  0  0  0  0
   15.3933  -22.2139   -7.9189 O   0  0  0  0  0  0  0  0  0  0  0  0
   16.5089  -24.4198   -7.6598 C   0  0  1  0  0  0  0  0  0  0  0  0
   16.1565  -25.4850   -6.6462 O   0  0  0  0  0  0  0  0  0  0  0  0
   15.6756  -24.4871   -8.5666 C   0  0  1  0  0  0  0  0  0  0  0  0
   14.4669  -25.1891   -8.0724 O   0  0  0  0  0  0  0  0  0  0  0  0
   15.2961  -22.9179   -8.9760 C   0  0  2  0  0  0  0  0  0  0  0  0
   19.6898  -23.5660  -11.5567 N   0  0  0  0  0  0  0  0  0  0  0  0
   20.7921  -23.4445   -5.1770 O   0  5  0  0  0  0  0  0  0  0  0  0
   19.5394  -19.3162   -6.5422 O   0  5  0  0  0  0  0  0  0  0  0  0
   20.2727  -18.0699   -1.7154 O   0  0  0  0  0  0  0  0  0  0  0  0
   19.1810  -24.3303  -10.6029 C   0  0  0  0  0  0  0  0  0  0  0  0
   19.8998  -25.5162  -10.1826 N   0  0  0  0  0  0  0  0  0  0  0  0
   20.4579  -21.8948   -7.0956 O   0  0  0  0  0  0  0  0  0  0  0  0
   21.5819  -19.4158   -5.1700 O   0  0  0  0  0  0  0  0  0  0  0  0
   17.8494  -18.3934   -2.0184 O   0  5  0  0  0  0  0  0  0  0  0  0
   18.0348  -24.0481  -10.0179 N   0  0  0  0  0  0  0  0  0  0  0  0
   19.7539  -21.1437   -4.7256 O   0  0  0  0  0  0  0  0  0  0  0  0
   19.4126  -18.5662   -4.0754 O   0  0  0  0  0  0  0  0  0  0  0  0
   19.4003  -20.3288   -2.1596 O   0  0  0  0  0  0  0  0  0  0  0  0
   17.3397  -22.9620  -10.3766 C   0  0  0  0  0  0  0  0  0  0  0  0
   17.8480  -22.1477  -11.3684 C   0  0  0  0  0  0  0  0  0  0  0  0
   19.0748  -22.4695  -11.9803 C   0  0  0  0  0  0  0  0  0  0  0  0
   19.6176  -21.6598  -12.9935 O   0  0  0  0  0  0  0  0  0  0  0  0
   16.9804  -21.1370  -11.5473 N   0  0  0  0  0  0  0  0  0  0  0  0
   15.9797  -21.3178  -10.7031 C   0  0  0  0  0  0  0  0  0  0  0  0
   16.1796  -22.4093   -9.9884 N   0  0  0  0  0  0  0  0  0  0  0  0
  1  5  1  6  0  0  0
  1 14  1  0  0  0  0
  1 19  2  0  0  0  0
  1 23  1  0  0  0  0
  2 15  1  6  0  0  0
  2 20  2  0  0  0  0
  2 23  1  0  0  0  0
  2 24  1  0  0  0  0
  3 16  1  1  0  0  0
  3 21  1  0  0  0  0
  3 24  1  0  0  0  0
  3 25  2  0  0  0  0
  4  5  1  0  0  0  0
  6  4  1  6  0  0  0
  6  7  1  0  0  0  0
  6  8  1  0  0  0  0
  7 12  1  0  0  0  0
  8  9  1  1  0  0  0
  8 10  1  0  0  0  0
 10 11  1  1  0  0  0
 10 12  1  0  0  0  0
 12 32  1  6  0  0  0
 13 17  2  0  0  0  0
 13 28  1  0  0  0  0
 17 18  1  0  0  0  0
 17 22  1  0  0  0  0
 22 26  2  0  0  0  0
 26 27  1  0  0  0  0
 26 32  1  0  0  0  0
 27 28  2  0  0  0  0
 27 30  1  0  0  0  0
 28 29  1  0  0  0  0
 30 31  2  0  0  0  0
 31 32  1  0  0  0  0
M  CHG  3  14  -1  15  -1  21  -1
M  END
>  <CHROM.1>
-164.79818206,41.55959606,104.03173265,-179.70700439,-179.34933171,105.26448782
-114.42870095,153.79711033,18.44756907,-21.82045091,-7.06390510,-1.23095788
-0.63363077,-1.88474388

>  <Name>
ligand

>  <RI>
0

>  <Rbt.Current_Directory>
/home/itssahil/PROJECTS/Mol_Feturizer/New_Systems/rnas/4Y1I

>  <Rbt.Executable>
rbdock ($Id: //depot/dev/client3/rdock/2013.1/src/exe/rbdock.cxx#4 $)

>  <Rbt.Library>
libRbt.so (2013.1, Build901 2013/11/27)

>  <Rbt.Parameter_File>
/export/apps/rDock/src/rDock_2013.1_src/data/scripts/dock_solv.prm

>  <Rbt.Receptor>
prm/blind_docking_40.prm

>  <SCORE>
-12.6688

>  <SCORE.INTER>
-9.95841

>  <SCORE.INTER.CONST>
1

>  <SCORE.INTER.POLAR>
0

>  <SCORE.INTER.ROT>
8

>  <SCORE.INTER.SOLV>
31.8576

>  <SCORE.INTER.VDW>
-26.1915

>  <SCORE.INTER.norm>
-0.3112

>  <SCORE.INTRA>
-2.72797

>  <SCORE.INTRA.DIHEDRAL>
-3.49001

>  <SCORE.INTRA.DIHEDRAL.0>
10.9594

>  <SCORE.INTRA.POLAR>
0

>  <SCORE.INTRA.POLAR.0>
0

>  <SCORE.INTRA.REPUL>
0

>  <SCORE.INTRA.REPUL.0>
0

>  <SCORE.INTRA.SOLV>
-2.79795

>  <SCORE.INTRA.SOLV.lig_0>
-124.914

>  <SCORE.INTRA.VDW>
0.416015

>  <SCORE.INTRA.VDW.0>
-4.69801

>  <SCORE.INTRA.norm>
-0.0852489

>  <SCORE.RESTR>
0.0175653

>  <SCORE.RESTR.CAVITY>
0.0175653

>  <SCORE.RESTR.norm>
0.000548916

>  <SCORE.SYSTEM>
0

>  <SCORE.SYSTEM.CONST>
0

>  <SCORE.SYSTEM.DIHEDRAL>
0

>  <SCORE.SYSTEM.SOLV>
0

>  <SCORE.SYSTEM.norm>
0

>  <SCORE.heavy>
32

>  <SCORE.norm>
-0.3959

>  <RMSD>
13.131

$$$$
ligand
 OpenBabel11021811513D
libRbt.so/2013.1/901 2013/11/27
 32 34  0  0  0  0  0  0  0  0999 V2000
   20.7484  -21.8728   -5.5928 P   0  0  1  0  0  0  0  0  0  0  0  0
   18.7102  -20.5906   -4.0331 P   0  0  2  0  0  0  0  0  0  0  0  0
   19.1179  -20.2151   -1.1508 P   0  0  1  0  0  0  0  0  0  0  0  0
   20.3383  -21.6093   -8.1529 C   0  0  0  0  0  0  0  0  0  0  0  0
   19.8168  -21.4119   -6.8695 O   0  0  0  0  0  0  0  0  0  0  0  0
   19.5017  -21.0146   -9.0909 C   0  0  1  0  0  0  0  0  0  0  0  0
   19.9394  -21.3998  -10.4909 O   0  0  0  0  0  0  0  0  0  0  0  0
   17.9989  -21.5362   -8.9437 C   0  0  1  0  0  0  0  0  0  0  0  0
   17.1070  -20.3887   -8.5269 O   0  0  0  0  0  0  0  0  0  0  0  0
   17.6460  -21.8827  -10.0737 C   0  0  1  0  0  0  0  0  0  0  0  0
   16.8900  -20.7790  -10.7126 O   0  0  0  0  0  0  0  0  0  0  0  0
   19.0411  -22.1887  -10.9304 C   0  0  2  0  0  0  0  0  0  0  0  0
   17.9897  -27.1376  -11.8183 N   0  0  0  0  0  0  0  0  0  0  0  0
   21.1844  -23.3063   -5.7689 O   0  5  0  0  0  0  0  0  0  0  0  0
   17.5443  -20.8460   -4.9549 O   0  5  0  0  0  0  0  0  0  0  0  0
   18.2102  -20.1708    0.0561 O   0  0  0  0  0  0  0  0  0  0  0  0
   17.2713  -26.0764  -12.1504 C   0  0  0  0  0  0  0  0  0  0  0  0
   16.0184  -26.2579  -12.8554 N   0  0  0  0  0  0  0  0  0  0  0  0
   21.9436  -20.9507   -5.5060 O   0  0  0  0  0  0  0  0  0  0  0  0
   19.3318  -19.2589   -4.3630 O   0  0  0  0  0  0  0  0  0  0  0  0
   20.1645  -21.2882   -0.9445 O   0  5  0  0  0  0  0  0  0  0  0  0
   17.6588  -24.8511  -11.8602 N   0  0  0  0  0  0  0  0  0  0  0  0
   19.8509  -21.7559   -4.2219 O   0  0  0  0  0  0  0  0  0  0  0  0
   18.1952  -20.5832   -2.4708 O   0  0  0  0  0  0  0  0  0  0  0  0
   19.7767  -18.8638   -1.3220 O   0  0  0  0  0  0  0  0  0  0  0  0
   18.8094  -24.6399  -11.2097 C   0  0  0  0  0  0  0  0  0  0  0  0
   19.5774  -25.7292  -10.8513 C   0  0  0  0  0  0  0  0  0  0  0  0
   19.1437  -27.0298  -11.1728 C   0  0  0  0  0  0  0  0  0  0  0  0
   19.9046  -28.1587  -10.8214 O   0  0  0  0  0  0  0  0  0  0  0  0
   20.6685  -25.2653  -10.2184 N   0  0  0  0  0  0  0  0  0  0  0  0
   20.5791  -23.9470  -10.1863 C   0  0  0  0  0  0  0  0  0  0  0  0
   19.4659  -23.5525  -10.7756 N   0  0  0  0  0  0  0  0  0  0  0  0
  1  5  1  6  0  0  0
  1 14  1  0  0  0  0
  1 19  2  0  0  0  0
  1 23  1  0  0  0  0
  2 15  1  6  0  0  0
  2 20  2  0  0  0  0
  2 23  1  0  0  0  0
  2 24  1  0  0  0  0
  3 16  1  1  0  0  0
  3 21  1  0  0  0  0
  3 24  1  0  0  0  0
  3 25  2  0  0  0  0
  4  5  1  0  0  0  0
  6  4  1  1  0  0  0
  6  7  1  0  0  0  0
  6  8  1  0  0  0  0
  7 12  1  0  0  0  0
  8  9  1  6  0  0  0
  8 10  1  0  0  0  0
 10 11  1  6  0  0  0
 10 12  1  0  0  0  0
 12 32  1  1  0  0  0
 13 17  2  0  0  0  0
 13 28  1  0  0  0  0
 17 18  1  0  0  0  0
 17 22  1  0  0  0  0
 22 26  2  0  0  0  0
 26 27  1  0  0  0  0
 26 32  1  0  0  0  0
 27 28  2  0  0  0  0
 27 30  1  0  0  0  0
 28 29  1  0  0  0  0
 30 31  2  0  0  0  0
 31 32  1  0  0  0  0
M  CHG  3  14  -1  15  -1  21  -1
M  END
>  <CHROM.1>
-52.78223701,69.28508450,173.28743440,-171.42354336,-172.52769555,-175.32930407
-33.78393326,-174.52073159,19.12769937,-22.35192184,-7.13354143,-1.42103340
1.04957695,-2.18725318

>  <Name>
ligand

>  <RI>
0

>  <Rbt.Current_Directory>
/home/itssahil/PROJECTS/Mol_Feturizer/New_Systems/rnas/4Y1I

>  <Rbt.Executable>
rbdock ($Id: //depot/dev/client3/rdock/2013.1/src/exe/rbdock.cxx#4 $)

>  <Rbt.Library>
libRbt.so (2013.1, Build901 2013/11/27)

>  <Rbt.Parameter_File>
/export/apps/rDock/src/rDock_2013.1_src/data/scripts/dock_solv.prm

>  <Rbt.Receptor>
prm/blind_docking_40.prm

>  <SCORE>
-12.2829

>  <SCORE.INTER>
-7.24917

>  <SCORE.INTER.CONST>
1

>  <SCORE.INTER.POLAR>
0

>  <SCORE.INTER.ROT>
8

>  <SCORE.INTER.SOLV>
22.2159

>  <SCORE.INTER.VDW>
-21.1714

>  <SCORE.INTER.norm>
-0.226537

>  <SCORE.INTRA>
-5.03377

>  <SCORE.INTRA.DIHEDRAL>
-7.86642

>  <SCORE.INTRA.DIHEDRAL.0>
10.9594

>  <SCORE.INTRA.POLAR>
0

>  <SCORE.INTRA.POLAR.0>
0

>  <SCORE.INTRA.REPUL>
0

>  <SCORE.INTRA.REPUL.0>
0

>  <SCORE.INTRA.SOLV>
-3.083

>  <SCORE.INTRA.SOLV.lig_0>
-124.914

>  <SCORE.INTRA.VDW>
0.440938

>  <SCORE.INTRA.VDW.0>
-4.69801

>  <SCORE.INTRA.norm>
-0.157305

>  <SCORE.RESTR>
0

>  <SCORE.RESTR.CAVITY>
0

>  <SCORE.RESTR.norm>
0

>  <SCORE.SYSTEM>
0

>  <SCORE.SYSTEM.CONST>
0

>  <SCORE.SYSTEM.DIHEDRAL>
0

>  <SCORE.SYSTEM.SOLV>
0

>  <SCORE.SYSTEM.norm>
0

>  <SCORE.heavy>
32

>  <SCORE.norm>
-0.383842

>  <RMSD>
13.136

$$$$
ligand
 OpenBabel11021811513D
libRbt.so/2013.1/901 2013/11/27
 32 34  0  0  0  0  0  0  0  0999 V2000
   18.1632  -22.7235   -5.3907 P   0  0  1  0  0  0  0  0  0  0  0  0
   18.6750  -20.4069   -3.7774 P   0  0  2  0  0  0  0  0  0  0  0  0
   20.8881  -20.4691   -1.8504 P   0  0  1  0  0  0  0  0  0  0  0  0
   17.6061  -22.6067   -7.9338 C   0  0  0  0  0  0  0  0  0  0  0  0
   18.4194  -22.1243   -6.9025 O   0  0  0  0  0  0  0  0  0  0  0  0
   18.0046  -22.0445   -9.1415 C   0  0  1  0  0  0  0  0  0  0  0  0
   19.4083  -22.5032   -9.4863 O   0  0  0  0  0  0  0  0  0  0  0  0
   17.0763  -22.5346  -10.3458 C   0  0  1  0  0  0  0  0  0  0  0  0
   16.3155  -21.3545  -10.9065 O   0  0  0  0  0  0  0  0  0  0  0  0
   17.8426  -22.9292  -11.2281 C   0  0  1  0  0  0  0  0  0  0  0  0
   18.0520  -21.8456  -12.2179 O   0  0  0  0  0  0  0  0  0  0  0  0
   19.2809  -23.2979  -10.4736 C   0  0  2  0  0  0  0  0  0  0  0  0
   17.5133  -28.0754  -11.1340 N   0  0  0  0  0  0  0  0  0  0  0  0
   17.1034  -23.7962   -5.4385 O   0  5  0  0  0  0  0  0  0  0  0  0
   17.9174  -19.3864   -2.9657 O   0  5  0  0  0  0  0  0  0  0  0  0
   20.1972  -19.3901   -1.0500 O   0  0  0  0  0  0  0  0  0  0  0  0
   17.2203  -26.9908  -11.8342 C   0  0  0  0  0  0  0  0  0  0  0  0
   16.2909  -27.0887  -12.9416 N   0  0  0  0  0  0  0  0  0  0  0  0
   19.4671  -23.2747   -4.8594 O   0  0  0  0  0  0  0  0  0  0  0  0
   19.4035  -19.7177   -4.9013 O   0  0  0  0  0  0  0  0  0  0  0  0
   21.4729  -21.4924   -0.9015 O   0  5  0  0  0  0  0  0  0  0  0  0
   17.7484  -25.8160  -11.5573 N   0  0  0  0  0  0  0  0  0  0  0  0
   17.6380  -21.5016   -4.4264 O   0  0  0  0  0  0  0  0  0  0  0  0
   19.7597  -21.1886   -2.8191 O   0  0  0  0  0  0  0  0  0  0  0  0
   21.9823  -19.8398   -2.6848 O   0  0  0  0  0  0  0  0  0  0  0  0
   18.6110  -25.6825  -10.5425 C   0  0  0  0  0  0  0  0  0  0  0  0
   18.9333  -26.7978   -9.7959 C   0  0  0  0  0  0  0  0  0  0  0  0
   18.3571  -28.0435  -10.1108 C   0  0  0  0  0  0  0  0  0  0  0  0
   18.6664  -29.1971   -9.3689 O   0  0  0  0  0  0  0  0  0  0  0  0
   19.8056  -26.4131   -8.8486 N   0  0  0  0  0  0  0  0  0  0  0  0
   20.0134  -25.1169   -9.0020 C   0  0  0  0  0  0  0  0  0  0  0  0
   19.3011  -24.6593  -10.0147 N   0  0  0  0  0  0  0  0  0  0  0  0
  1  5  1  6  0  0  0
  1 14  1  0  0  0  0
  1 19  2  0  0  0  0
  1 23  1  0  0  0  0
  2 15  1  1  0  0  0
  2 20  2  0  0  0  0
  2 23  1  0  0  0  0
  2 24  1  0  0  0  0
  3 16  1  1  0  0  0
  3 21  1  0  0  0  0
  3 24  1  0  0  0  0
  3 25  2  0  0  0  0
  4  5  1  0  0  0  0
  6  4  1  1  0  0  0
  6  7  1  0  0  0  0
  6  8  1  0  0  0  0
  7 12  1  0  0  0  0
  8  9  1  6  0  0  0
  8 10  1  0  0  0  0
 10 11  1  6  0  0  0
 10 12  1  0  0  0  0
 12 32  1  1  0  0  0
 13 17  2  0  0  0  0
 13 28  1  0  0  0  0
 17 18  1  0  0  0  0
 17 22  1  0  0  0  0
 22 26  2  0  0  0  0
 26 27  1  0  0  0  0
 26 32  1  0  0  0  0
 27 28  2  0  0  0  0
 27 30  1  0  0  0  0
 28 29  1  0  0  0  0
 30 31  2  0  0  0  0
 31 32  1  0  0  0  0
M  CHG  3  14  -1  15  -1  21  -1
M  END
>  <CHROM.1>
3.78790105,178.72400286,48.28290783,64.61499867,-177.08326108,146.11383909
-79.61216578,-52.38770168,18.74114878,-23.03135279,-7.07636717,-1.02976533
1.18589252,-2.64721740

>  <Name>
ligand

>  <RI>
0

>  <Rbt.Current_Directory>
/home/itssahil/PROJECTS/Mol_Feturizer/New_Systems/rnas/4Y1I

>  <Rbt.Executable>
rbdock ($Id: //depot/dev/client3/rdock/2013.1/src/exe/rbdock.cxx#4 $)

>  <Rbt.Library>
libRbt.so (2013.1, Build901 2013/11/27)

>  <Rbt.Parameter_File>
/export/apps/rDock/src/rDock_2013.1_src/data/scripts/dock_solv.prm

>  <Rbt.Receptor>
prm/blind_docking_40.prm

>  <SCORE>
-11.7431

>  <SCORE.INTER>
-6.65074

>  <SCORE.INTER.CONST>
1

>  <SCORE.INTER.POLAR>
0

>  <SCORE.INTER.ROT>
8

>  <SCORE.INTER.SOLV>
28.4058

>  <SCORE.INTER.VDW>
-22.8358

>  <SCORE.INTER.norm>
-0.207836

>  <SCORE.INTRA>
-5.09236

>  <SCORE.INTRA.DIHEDRAL>
-6.35967

>  <SCORE.INTRA.DIHEDRAL.0>
10.9594

>  <SCORE.INTRA.POLAR>
0

>  <SCORE.INTRA.POLAR.0>
0

>  <SCORE.INTRA.REPUL>
0

>  <SCORE.INTRA.REPUL.0>
0

>  <SCORE.INTRA.SOLV>
-4.97663

>  <SCORE.INTRA.SOLV.lig_0>
-124.914

>  <SCORE.INTRA.VDW>
0.575789

>  <SCORE.INTRA.VDW.0>
-4.69801

>  <SCORE.INTRA.norm>
-0.159136

>  <SCORE.RESTR>
0

>  <SCORE.RESTR.CAVITY>
0

>  <SCORE.RESTR.norm>
0

>  <SCORE.SYSTEM>
0

>  <SCORE.SYSTEM.CONST>
0

>  <SCORE.SYSTEM.DIHEDRAL>
0

>  <SCORE.SYSTEM.SOLV>
0

>  <SCORE.SYSTEM.norm>
0

>  <SCORE.heavy>
32

>  <SCORE.norm>
-0.366972

>  <RMSD>
13.175

$$$$
ligand
 OpenBabel11021811513D
libRbt.so/2013.1/901 2013/11/27
 32 34  0  0  0  0  0  0  0  0999 V2000
   17.9508  -22.3504   -5.7895 P   0  0  1  0  0  0  0  0  0  0  0  0
   20.5894  -21.3895   -5.2017 P   0  0  2  0  0  0  0  0  0  0  0  0
   21.0829  -21.3928   -2.3083 P   0  0  1  0  0  0  0  0  0  0  0  0
   15.7197  -22.9595   -6.9906 C   0  0  0  0  0  0  0  0  0  0  0  0
   17.0744  -22.6477   -7.1509 O   0  0  0  0  0  0  0  0  0  0  0  0
   15.1172  -23.0691   -8.2388 C   0  0  1  0  0  0  0  0  0  0  0  0
   15.2754  -21.7695   -9.0044 O   0  0  0  0  0  0  0  0  0  0  0  0
   15.8248  -24.1903   -9.1301 C   0  0  1  0  0  0  0  0  0  0  0  0
   14.8486  -25.3150   -9.3913 O   0  0  0  0  0  0  0  0  0  0  0  0
   16.0700  -23.6586  -10.2156 C   0  0  1  0  0  0  0  0  0  0  0  0
   14.9927  -23.9886  -11.1791 O   0  0  0  0  0  0  0  0  0  0  0  0
   16.1044  -22.0165   -9.9394 C   0  0  2  0  0  0  0  0  0  0  0  0
   21.0011  -23.3264   -9.1080 N   0  0  0  0  0  0  0  0  0  0  0  0
   17.4301  -21.1100   -5.1066 O   0  5  0  0  0  0  0  0  0  0  0  0
   20.4165  -19.8915   -5.2234 O   0  5  0  0  0  0  0  0  0  0  0  0
   22.5773  -21.4477   -2.5233 O   0  0  0  0  0  0  0  0  0  0  0  0
   19.9973  -24.1062   -9.4779 C   0  0  0  0  0  0  0  0  0  0  0  0
   20.2364  -25.5189   -9.6940 N   0  0  0  0  0  0  0  0  0  0  0  0
   17.8527  -23.5519   -4.8768 O   0  0  0  0  0  0  0  0  0  0  0  0
   21.9817  -21.7431   -5.6549 O   0  0  0  0  0  0  0  0  0  0  0  0
   20.6700  -19.9581   -2.0623 O   0  5  0  0  0  0  0  0  0  0  0  0
   18.7787  -23.6390   -9.6579 N   0  0  0  0  0  0  0  0  0  0  0  0
   19.5165  -22.1011   -6.2200 O   0  0  0  0  0  0  0  0  0  0  0  0
   20.3488  -21.9569   -3.6766 O   0  0  0  0  0  0  0  0  0  0  0  0
   20.7241  -22.2550   -1.1177 O   0  0  0  0  0  0  0  0  0  0  0  0
   18.5155  -22.3404   -9.4685 C   0  0  0  0  0  0  0  0  0  0  0  0
   19.5443  -21.5053   -9.0822 C   0  0  0  0  0  0  0  0  0  0  0  0
   20.8391  -22.0268   -8.8965 C   0  0  0  0  0  0  0  0  0  0  0  0
   21.9072  -21.2010   -8.5038 O   0  0  0  0  0  0  0  0  0  0  0  0
   19.0366  -20.2671   -8.9585 N   0  0  0  0  0  0  0  0  0  0  0  0
   17.7503  -20.3333   -9.2548 C   0  0  0  0  0  0  0  0  0  0  0  0
   17.4178  -21.5733   -9.5616 N   0  0  0  0  0  0  0  0  0  0  0  0
  1  5  1  6  0  0  0
  1 14  1  0  0  0  0
  1 19  2  0  0  0  0
  1 23  1  0  0  0  0
  2 15  1  6  0  0  0
  2 20  2  0  0  0  0
  2 23  1  0  0  0  0
  2 24  1  0  0  0  0
  3 16  1  6  0  0  0
  3 21  1  0  0  0  0
  3 24  1  0  0  0  0
  3 25  2  0  0  0  0
  4  5  1  0  0  0  0
  6  4  1  1  0  0  0
  6  7  1  0  0  0  0
  6  8  1  0  0  0  0
  7 12  1  0  0  0  0
  8  9  1  6  0  0  0
  8 10  1  0  0  0  0
 10 11  1  6  0  0  0
 10 12  1  0  0  0  0
 12 32  1  1  0  0  0
 13 17  2  0  0  0  0
 13 28  1  0  0  0  0
 17 18  1  0  0  0  0
 17 22  1  0  0  0  0
 22 26  2  0  0  0  0
 26 27  1  0  0  0  0
 26 32  1  0  0  0  0
 27 28  2  0  0  0  0
 27 30  1  0  0  0  0
 28 29  1  0  0  0  0
 30 31  2  0  0  0  0
 31 32  1  0  0  0  0
M  CHG  3  14  -1  15  -1  21  -1
M  END
>  <CHROM.1>
-64.52814044,-80.09099135,-54.75071467,-58.45953634,175.10606009,120.95065080
163.23240011,-51.51870752,18.80849431,-22.25365713,-6.85673727,0.96974101
0.19714034,1.40730550

>  <Name>
ligand

>  <RI>
0

>  <Rbt.Current_Directory>
/home/itssahil/PROJECTS/Mol_Feturizer/New_Systems/rnas/4Y1I

>  <Rbt.Executable>
rbdock ($Id: //depot/dev/client3/rdock/2013.1/src/exe/rbdock.cxx#4 $)

>  <Rbt.Library>
libRbt.so (2013.1, Build901 2013/11/27)

>  <Rbt.Parameter_File>
/export/apps/rDock/src/rDock_2013.1_src/data/scripts/dock_solv.prm

>  <Rbt.Receptor>
prm/blind_docking_40.prm

>  <SCORE>
-10.1719

>  <SCORE.INTER>
-2.53733

>  <SCORE.INTER.CONST>
1

>  <SCORE.INTER.POLAR>
0

>  <SCORE.INTER.ROT>
8

>  <SCORE.INTER.SOLV>
22.4638

>  <SCORE.INTER.VDW>
-18.1128

>  <SCORE.INTER.norm>
-0.0792916

>  <SCORE.INTRA>
-7.78508

>  <SCORE.INTRA.DIHEDRAL>
-8.39937

>  <SCORE.INTRA.DIHEDRAL.0>
10.9594

>  <SCORE.INTRA.POLAR>
0

>  <SCORE.INTRA.POLAR.0>
0

>  <SCORE.INTRA.REPUL>
0

>  <SCORE.INTRA.REPUL.0>
0

>  <SCORE.INTRA.SOLV>
-1.7624

>  <SCORE.INTRA.SOLV.lig_0>
-124.914

>  <SCORE.INTRA.VDW>
-2.7042

>  <SCORE.INTRA.VDW.0>
-4.69801

>  <SCORE.INTRA.norm>
-0.243284

>  <SCORE.RESTR>
0.150465

>  <SCORE.RESTR.CAVITY>
0.150465

>  <SCORE.RESTR.norm>
0.00470204

>  <SCORE.SYSTEM>
0

>  <SCORE.SYSTEM.CONST>
0

>  <SCORE.SYSTEM.DIHEDRAL>
0

>  <SCORE.SYSTEM.SOLV>
0

>  <SCORE.SYSTEM.norm>
0

>  <SCORE.heavy>
32

>  <SCORE.norm>
-0.317873

>  <RMSD>
13.181

$$$$
ligand
 OpenBabel11021811513D
libRbt.so/2013.1/901 2013/11/27
 32 34  0  0  0  0  0  0  0  0999 V2000
   20.2911  -22.0740   -5.7320 P   0  0  1  0  0  0  0  0  0  0  0  0
   20.1306  -19.3215   -4.9389 P   0  0  2  0  0  0  0  0  0  0  0  0
   19.0558  -18.9531   -2.2325 P   0  0  1  0  0  0  0  0  0  0  0  0
   20.0232  -22.8747   -8.1974 C   0  0  0  0  0  0  0  0  0  0  0  0
   19.5705  -23.0081   -6.8802 O   0  0  0  0  0  0  0  0  0  0  0  0
   19.5546  -21.6793   -8.7311 C   0  0  1  0  0  0  0  0  0  0  0  0
   19.8202  -21.6409  -10.2237 O   0  0  0  0  0  0  0  0  0  0  0  0
   17.9710  -21.5494   -8.5654 C   0  0  1  0  0  0  0  0  0  0  0  0
   17.6551  -20.3936   -7.6432 O   0  0  0  0  0  0  0  0  0  0  0  0
   17.5342  -21.2576   -9.6814 C   0  0  1  0  0  0  0  0  0  0  0  0
   17.3510  -19.7890   -9.7689 O   0  0  0  0  0  0  0  0  0  0  0  0
   18.6810  -21.7555  -10.7818 C   0  0  2  0  0  0  0  0  0  0  0  0
   16.9888  -26.4154   -9.4372 N   0  0  0  0  0  0  0  0  0  0  0  0
   19.7147  -22.3954   -4.3753 O   0  5  0  0  0  0  0  0  0  0  0  0
   19.9400  -17.9625   -5.5643 O   0  5  0  0  0  0  0  0  0  0  0  0
   18.7714  -17.4712   -2.3056 O   0  0  0  0  0  0  0  0  0  0  0  0
   17.0241  -25.3145   -8.7027 C   0  0  0  0  0  0  0  0  0  0  0  0
   16.5404  -25.3548   -7.3374 N   0  0  0  0  0  0  0  0  0  0  0  0
   21.7808  -22.3312   -5.7615 O   0  0  0  0  0  0  0  0  0  0  0  0
   21.5069  -19.4096   -4.3333 O   0  0  0  0  0  0  0  0  0  0  0  0
   17.9968  -19.6195   -1.3817 O   0  5  0  0  0  0  0  0  0  0  0  0
   17.4872  -24.1745   -9.1734 N   0  0  0  0  0  0  0  0  0  0  0  0
   19.9888  -20.4965   -6.0765 O   0  0  0  0  0  0  0  0  0  0  0  0
   19.0002  -19.5604   -3.7679 O   0  0  0  0  0  0  0  0  0  0  0  0
   20.4263  -19.1628   -1.6265 O   0  0  0  0  0  0  0  0  0  0  0  0
   17.9436  -24.0947  -10.4291 C   0  0  0  0  0  0  0  0  0  0  0  0
   17.9185  -25.2281  -11.2164 C   0  0  0  0  0  0  0  0  0  0  0  0
   17.4182  -26.4356  -10.6923 C   0  0  0  0  0  0  0  0  0  0  0  0
   17.3795  -27.6063  -11.4701 O   0  0  0  0  0  0  0  0  0  0  0  0
   18.4218  -24.8981  -12.4181 N   0  0  0  0  0  0  0  0  0  0  0  0
   18.7445  -23.6171  -12.3759 C   0  0  0  0  0  0  0  0  0  0  0  0
   18.4664  -23.1174  -11.1863 N   0  0  0  0  0  0  0  0  0  0  0  0
  1  5  1  6  0  0  0
  1 14  1  0  0  0  0
  1 19  2  0  0  0  0
  1 23  1  0  0  0  0
  2 15  1  6  0  0  0
  2 20  2  0  0  0  0
  2 23  1  0  0  0  0
  2 24  1  0  0  0  0
  3 16  1  6  0  0  0
  3 21  1  0  0  0  0
  3 24  1  0  0  0  0
  3 25  2  0  0  0  0
  4  5  1  0  0  0  0
  6  4  1  6  0  0  0
  6  7  1  0  0  0  0
  6  8  1  0  0  0  0
  7 12  1  0  0  0  0
  8  9  1  1  0  0  0
  8 10  1  0  0  0  0
 10 11  1  1  0  0  0
 10 12  1  0  0  0  0
 12 32  1  1  0  0  0
 13 17  2  0  0  0  0
 13 28  1  0  0  0  0
 17 18  1  0  0  0  0
 17 22  1  0  0  0  0
 22 26  2  0  0  0  0
 26 27  1  0  0  0  0
 26 32  1  0  0  0  0
 27 28  2  0  0  0  0
 27 30  1  0  0  0  0
 28 29  1  0  0  0  0
 30 31  2  0  0  0  0
 31 32  1  0  0  0  0
M  CHG  3  14  -1  15  -1  21  -1
M  END
>  <CHROM.1>
-177.66688235,173.91336729,72.76398231,-169.67237177,-74.28014052,87.35886500
160.48490484,-79.41873368,18.94007579,-21.82824631,-7.09542255,0.69117175
1.32772647,1.79877398

>  <Name>
ligand

>  <RI>
0

>  <Rbt.Current_Directory>
/home/itssahil/PROJECTS/Mol_Feturizer/New_Systems/rnas/4Y1I

>  <Rbt.Executable>
rbdock ($Id: //depot/dev/client3/rdock/2013.1/src/exe/rbdock.cxx#4 $)

>  <Rbt.Library>
libRbt.so (2013.1, Build901 2013/11/27)

>  <Rbt.Parameter_File>
/export/apps/rDock/src/rDock_2013.1_src/data/scripts/dock_solv.prm

>  <Rbt.Receptor>
prm/blind_docking_40.prm

>  <SCORE>
-12.4778

>  <SCORE.INTER>
-8.72827

>  <SCORE.INTER.CONST>
1

>  <SCORE.INTER.POLAR>
0

>  <SCORE.INTER.ROT>
8

>  <SCORE.INTER.SOLV>
33.2086

>  <SCORE.INTER.VDW>
-25.8217

>  <SCORE.INTER.norm>
-0.272759

>  <SCORE.INTRA>
-3.75325

>  <SCORE.INTRA.DIHEDRAL>
-6.88273

>  <SCORE.INTRA.DIHEDRAL.0>
10.9594

>  <SCORE.INTRA.POLAR>
0

>  <SCORE.INTRA.POLAR.0>
0

>  <SCORE.INTRA.REPUL>
0.0182559

>  <SCORE.INTRA.REPUL.0>
0

>  <SCORE.INTRA.SOLV>
-0.106405

>  <SCORE.INTRA.SOLV.lig_0>
-124.914

>  <SCORE.INTRA.VDW>
-0.34996

>  <SCORE.INTRA.VDW.0>
-4.69801

>  <SCORE.INTRA.norm>
-0.117289

>  <SCORE.RESTR>
0.0037073

>  <SCORE.RESTR.CAVITY>
0.0037073

>  <SCORE.RESTR.norm>
0.000115853

>  <SCORE.SYSTEM>
0

>  <SCORE.SYSTEM.CONST>
0

>  <SCORE.SYSTEM.DIHEDRAL>
0

>  <SCORE.SYSTEM.SOLV>
0

>  <SCORE.SYSTEM.norm>
0

>  <SCORE.heavy>
32

>  <SCORE.norm>
-0.389932

>  <RMSD>
13.252

$$$$
ligand
 OpenBabel11021811513D
libRbt.so/2013.1/901 2013/11/27
 32 34  0  0  0  0  0  0  0  0999 V2000
   19.2621  -21.3723   -6.4110 P   0  0  1  0  0  0  0  0  0  0  0  0
   20.2374  -21.4424   -3.7138 P   0  0  2  0  0  0  0  0  0  0  0  0
   19.0246  -19.3757   -2.0188 P   0  0  1  0  0  0  0  0  0  0  0  0
   18.4239  -23.4508   -7.7408 C   0  0  0  0  0  0  0  0  0  0  0  0
   19.3120  -22.3697   -7.7198 O   0  0  0  0  0  0  0  0  0  0  0  0
   17.1972  -23.0348   -8.2462 C   0  0  1  0  0  0  0  0  0  0  0  0
   17.1289  -23.3183   -9.7344 O   0  0  0  0  0  0  0  0  0  0  0  0
   15.9907  -23.8507   -7.5899 C   0  0  1  0  0  0  0  0  0  0  0  0
   15.1298  -22.9092   -6.7783 O   0  0  0  0  0  0  0  0  0  0  0  0
   15.3031  -24.2575   -8.5296 C   0  0  1  0  0  0  0  0  0  0  0  0
   14.1692  -23.3277   -8.7477 O   0  0  0  0  0  0  0  0  0  0  0  0
   16.2944  -24.2713   -9.8680 C   0  0  2  0  0  0  0  0  0  0  0  0
   17.4080  -28.2783  -12.8828 N   0  0  0  0  0  0  0  0  0  0  0  0
   20.1669  -20.1863   -6.6370 O   0  5  0  0  0  0  0  0  0  0  0  0
   21.3868  -20.5024   -3.9773 O   0  5  0  0  0  0  0  0  0  0  0  0
   19.2062  -18.0781   -2.7710 O   0  0  0  0  0  0  0  0  0  0  0  0
   16.6510  -27.2290  -13.1633 C   0  0  0  0  0  0  0  0  0  0  0  0
   16.0253  -27.1315  -14.4666 N   0  0  0  0  0  0  0  0  0  0  0  0
   17.8332  -20.9287   -6.1927 O   0  0  0  0  0  0  0  0  0  0  0  0
   20.6578  -22.4847   -2.7109 O   0  0  0  0  0  0  0  0  0  0  0  0
   17.7308  -19.3178   -1.2362 O   0  5  0  0  0  0  0  0  0  0  0  0
   16.4451  -26.2626  -12.2920 N   0  0  0  0  0  0  0  0  0  0  0  0
   19.7962  -22.2045   -5.0992 O   0  0  0  0  0  0  0  0  0  0  0  0
   18.9525  -20.6013   -3.1242 O   0  0  0  0  0  0  0  0  0  0  0  0
   20.1972  -19.5714   -1.0829 O   0  0  0  0  0  0  0  0  0  0  0  0
   17.0044  -26.3144  -11.0770 C   0  0  0  0  0  0  0  0  0  0  0  0
   17.7979  -27.3979  -10.7586 C   0  0  0  0  0  0  0  0  0  0  0  0
   18.0047  -28.4188  -11.7063 C   0  0  0  0  0  0  0  0  0  0  0  0
   18.8081  -29.5342  -11.4113 O   0  0  0  0  0  0  0  0  0  0  0  0
   18.2383  -27.2221   -9.5011 N   0  0  0  0  0  0  0  0  0  0  0  0
   17.7388  -26.0805   -9.0607 C   0  0  0  0  0  0  0  0  0  0  0  0
   16.9916  -25.5213   -9.9941 N   0  0  0  0  0  0  0  0  0  0  0  0
  1  5  1  6  0  0  0
  1 14  1  0  0  0  0
  1 19  2  0  0  0  0
  1 23  1  0  0  0  0
  2 15  1  6  0  0  0
  2 20  2  0  0  0  0
  2 23  1  0  0  0  0
  2 24  1  0  0  0  0
  3 16  1  6  0  0  0
  3 21  1  0  0  0  0
  3 24  1  0  0  0  0
  3 25  2  0  0  0  0
  4  5  1  0  0  0  0
  6  4  1  1  0  0  0
  6  7  1  0  0  0  0
  6  8  1  0  0  0  0
  7 12  1  0  0  0  0
  8  9  1  1  0  0  0
  8 10  1  0  0  0  0
 10 11  1  6  0  0  0
 10 12  1  0  0  0  0
 12 32  1  1  0  0  0
 13 17  2  0  0  0  0
 13 28  1  0  0  0  0
 17 18  1  0  0  0  0
 17 22  1  0  0  0  0
 22 26  2  0  0  0  0
 26 27  1  0  0  0  0
 26 32  1  0  0  0  0
 27 28  2  0  0  0  0
 27 30  1  0  0  0  0
 28 29  1  0  0  0  0
 30 31  2  0  0  0  0
 31 32  1  0  0  0  0
M  CHG  3  14  -1  15  -1  21  -1
M  END
>  <CHROM.1>
-173.45468442,-60.73726444,88.94830042,94.79126033,84.98794805,-114.82792415
164.44997029,-40.82893444,18.16676610,-23.17670545,-7.14088982,-1.32593476
0.41157328,-2.34162901

>  <Name>
ligand

>  <RI>
0

>  <Rbt.Current_Directory>
/home/itssahil/PROJECTS/Mol_Feturizer/New_Systems/rnas/4Y1I

>  <Rbt.Executable>
rbdock ($Id: //depot/dev/client3/rdock/2013.1/src/exe/rbdock.cxx#4 $)

>  <Rbt.Library>
libRbt.so (2013.1, Build901 2013/11/27)

>  <Rbt.Parameter_File>
/export/apps/rDock/src/rDock_2013.1_src/data/scripts/dock_solv.prm

>  <Rbt.Receptor>
prm/blind_docking_40.prm

>  <SCORE>
-8.96803

>  <SCORE.INTER>
-7.19541

>  <SCORE.INTER.CONST>
1

>  <SCORE.INTER.POLAR>
0

>  <SCORE.INTER.ROT>
8

>  <SCORE.INTER.SOLV>
19.3337

>  <SCORE.INTER.VDW>
-20.1748

>  <SCORE.INTER.norm>
-0.224856

>  <SCORE.INTRA>
-1.77262

>  <SCORE.INTRA.DIHEDRAL>
-1.64221

>  <SCORE.INTRA.DIHEDRAL.0>
10.9594

>  <SCORE.INTRA.POLAR>
0

>  <SCORE.INTRA.POLAR.0>
0

>  <SCORE.INTRA.REPUL>
0

>  <SCORE.INTRA.REPUL.0>
0

>  <SCORE.INTRA.SOLV>
-2.2597

>  <SCORE.INTRA.SOLV.lig_0>
-124.914

>  <SCORE.INTRA.VDW>
0.178329

>  <SCORE.INTRA.VDW.0>
-4.69801

>  <SCORE.INTRA.norm>
-0.0553945

>  <SCORE.RESTR>
0

>  <SCORE.RESTR.CAVITY>
0

>  <SCORE.RESTR.norm>
0

>  <SCORE.SYSTEM>
0

>  <SCORE.SYSTEM.CONST>
0

>  <SCORE.SYSTEM.DIHEDRAL>
0

>  <SCORE.SYSTEM.SOLV>
0

>  <SCORE.SYSTEM.norm>
0

>  <SCORE.heavy>
32

>  <SCORE.norm>
-0.280251

>  <RMSD>
13.304

$$$$
ligand
 OpenBabel11021811513D
libRbt.so/2013.1/901 2013/11/27
 32 34  0  0  0  0  0  0  0  0999 V2000
   21.6079  -22.4416   -5.0416 P   0  0  1  0  0  0  0  0  0  0  0  0
   21.2167  -21.1371   -2.5165 P   0  0  2  0  0  0  0  0  0  0  0  0
   18.7248  -19.6348   -2.9022 P   0  0  1  0  0  0  0  0  0  0  0  0
   21.0948  -21.6638   -7.4754 C   0  0  0  0  0  0  0  0  0  0  0  0
   20.7869  -21.5066   -6.1195 O   0  0  0  0  0  0  0  0  0  0  0  0
   20.2821  -20.8308   -8.2361 C   0  0  1  0  0  0  0  0  0  0  0  0
   20.5652  -21.0398   -9.7113 O   0  0  0  0  0  0  0  0  0  0  0  0
   18.7369  -21.1822   -8.0336 C   0  0  1  0  0  0  0  0  0  0  0  0
   18.0383  -20.0152   -7.3731 O   0  0  0  0  0  0  0  0  0  0  0  0
   18.2626  -21.2999   -9.1660 C   0  0  1  0  0  0  0  0  0  0  0  0
   17.6186  -20.0252   -9.5641 O   0  0  0  0  0  0  0  0  0  0  0  0
   19.5407  -21.6338  -10.1803 C   0  0  2  0  0  0  0  0  0  0  0  0
   17.9509  -26.1643  -12.0059 N   0  0  0  0  0  0  0  0  0  0  0  0
   21.5886  -23.8807   -5.4939 O   0  5  0  0  0  0  0  0  0  0  0  0
   22.0744  -20.0869   -3.1765 O   0  5  0  0  0  0  0  0  0  0  0  0
   17.8244  -20.6461   -3.5723 O   0  0  0  0  0  0  0  0  0  0  0  0
   17.3853  -24.9770  -12.1582 C   0  0  0  0  0  0  0  0  0  0  0  0
   16.1609  -24.8656  -12.9250 N   0  0  0  0  0  0  0  0  0  0  0  0
   23.0258  -21.9274   -4.9341 O   0  0  0  0  0  0  0  0  0  0  0  0
   21.9621  -21.7402   -1.3548 O   0  0  0  0  0  0  0  0  0  0  0  0
   17.8879  -18.7333   -2.0210 O   0  5  0  0  0  0  0  0  0  0  0  0
   17.9011  -23.8844  -11.6330 N   0  0  0  0  0  0  0  0  0  0  0  0
   20.8616  -22.3343   -3.5821 O   0  0  0  0  0  0  0  0  0  0  0  0
   19.8187  -20.4581   -1.9775 O   0  0  0  0  0  0  0  0  0  0  0  0
   19.4312  -18.8225   -3.9656 O   0  0  0  0  0  0  0  0  0  0  0  0
   19.0308  -23.9439  -10.9175 C   0  0  0  0  0  0  0  0  0  0  0  0
   19.6406  -25.1697  -10.7430 C   0  0  0  0  0  0  0  0  0  0  0  0
   19.0717  -26.3242  -11.3144 C   0  0  0  0  0  0  0  0  0  0  0  0
   19.6701  -27.5864  -11.1543 O   0  0  0  0  0  0  0  0  0  0  0  0
   20.7428  -24.9719   -9.9998 N   0  0  0  0  0  0  0  0  0  0  0  0
   20.8115  -23.6807   -9.7262 C   0  0  0  0  0  0  0  0  0  0  0  0
   19.7885  -23.0464  -10.2678 N   0  0  0  0  0  0  0  0  0  0  0  0
  1  5  1  6  0  0  0
  1 14  1  0  0  0  0
  1 19  2  0  0  0  0
  1 23  1  0  0  0  0
  2 15  1  6  0  0  0
  2 20  2  0  0  0  0
  2 23  1  0  0  0  0
  2 24  1  0  0  0  0
  3 16  1  6  0  0  0
  3 21  1  0  0  0  0
  3 24  1  0  0  0  0
  3 25  2  0  0  0  0
  4  5  1  0  0  0  0
  6  4  1  1  0  0  0
  6  7  1  0  0  0  0
  6  8  1  0  0  0  0
  7 12  1  0  0  0  0
  8  9  1  6  0  0  0
  8 10  1  0  0  0  0
 10 11  1  6  0  0  0
 10 12  1  0  0  0  0
 12 32  1  1  0  0  0
 13 17  2  0  0  0  0
 13 28  1  0  0  0  0
 17 18  1  0  0  0  0
 17 22  1  0  0  0  0
 22 26  2  0  0  0  0
 26 27  1  0  0  0  0
 26 32  1  0  0  0  0
 27 28  2  0  0  0  0
 27 30  1  0  0  0  0
 28 29  1  0  0  0  0
 30 31  2  0  0  0  0
 31 32  1  0  0  0  0
M  CHG  3  14  -1  15  -1  21  -1
M  END
>  <CHROM.1>
-48.69154254,10.54467768,82.83931181,-177.46559570,178.18198673,-167.97761948
-86.54312138,57.14242926,19.78023957,-22.14133051,-6.88246745,-1.33692408
0.73749504,-2.18567472

>  <Name>
ligand

>  <RI>
0

>  <Rbt.Current_Directory>
/home/itssahil/PROJECTS/Mol_Feturizer/New_Systems/rnas/4Y1I

>  <Rbt.Executable>
rbdock ($Id: //depot/dev/client3/rdock/2013.1/src/exe/rbdock.cxx#4 $)

>  <Rbt.Library>
libRbt.so (2013.1, Build901 2013/11/27)

>  <Rbt.Parameter_File>
/export/apps/rDock/src/rDock_2013.1_src/data/scripts/dock_solv.prm

>  <Rbt.Receptor>
prm/blind_docking_40.prm

>  <SCORE>
-11.6943

>  <SCORE.INTER>
-7.6506

>  <SCORE.INTER.CONST>
1

>  <SCORE.INTER.POLAR>
0

>  <SCORE.INTER.ROT>
8

>  <SCORE.INTER.SOLV>
26.8613

>  <SCORE.INTER.VDW>
-22.9875

>  <SCORE.INTER.norm>
-0.239081

>  <SCORE.INTRA>
-4.0437

>  <SCORE.INTRA.DIHEDRAL>
-5.46911

>  <SCORE.INTRA.DIHEDRAL.0>
10.9594

>  <SCORE.INTRA.POLAR>
0

>  <SCORE.INTRA.POLAR.0>
0

>  <SCORE.INTRA.REPUL>
0

>  <SCORE.INTRA.REPUL.0>
0

>  <SCORE.INTRA.SOLV>
-3.49931

>  <SCORE.INTRA.SOLV.lig_0>
-124.914

>  <SCORE.INTRA.VDW>
0.440507

>  <SCORE.INTRA.VDW.0>
-4.69801

>  <SCORE.INTRA.norm>
-0.126366

>  <SCORE.RESTR>
0

>  <SCORE.RESTR.CAVITY>
0

>  <SCORE.RESTR.norm>
0

>  <SCORE.SYSTEM>
0

>  <SCORE.SYSTEM.CONST>
0

>  <SCORE.SYSTEM.DIHEDRAL>
0

>  <SCORE.SYSTEM.SOLV>
0

>  <SCORE.SYSTEM.norm>
0

>  <SCORE.heavy>
32

>  <SCORE.norm>
-0.365447

>  <RMSD>
13.399

$$$$
ligand
 OpenBabel11021811513D
libRbt.so/2013.1/901 2013/11/27
 32 34  0  0  0  0  0  0  0  0999 V2000
   20.9894  -20.0060   -5.5480 P   0  0  1  0  0  0  0  0  0  0  0  0
   19.1569  -20.1259   -3.3438 P   0  0  2  0  0  0  0  0  0  0  0  0
   20.4552  -21.4847   -1.0892 P   0  0  1  0  0  0  0  0  0  0  0  0
   20.4023  -21.8533   -7.2898 C   0  0  0  0  0  0  0  0  0  0  0  0
   21.4243  -21.1093   -6.6898 O   0  0  0  0  0  0  0  0  0  0  0  0
   19.7382  -21.0635   -8.2217 C   0  0  1  0  0  0  0  0  0  0  0  0
   20.2144  -21.4045   -9.6206 O   0  0  0  0  0  0  0  0  0  0  0  0
   18.1666  -21.3502   -8.2129 C   0  0  1  0  0  0  0  0  0  0  0  0
   17.4321  -20.1114   -7.7527 O   0  0  0  0  0  0  0  0  0  0  0  0
   17.8496  -21.5487   -9.3882 C   0  0  1  0  0  0  0  0  0  0  0  0
   17.3204  -20.2935   -9.9732 O   0  0  0  0  0  0  0  0  0  0  0  0
   19.2411  -22.0051  -10.1815 C   0  0  2  0  0  0  0  0  0  0  0  0
   17.3005  -26.6556  -11.1774 N   0  0  0  0  0  0  0  0  0  0  0  0
   22.2086  -19.2566   -5.0703 O   0  5  0  0  0  0  0  0  0  0  0  0
   17.8094  -20.2749   -4.0043 O   0  5  0  0  0  0  0  0  0  0  0  0
   21.0185  -22.6001   -1.9383 O   0  0  0  0  0  0  0  0  0  0  0  0
   16.7480  -25.4736  -11.4014 C   0  0  0  0  0  0  0  0  0  0  0  0
   15.4306  -25.4065  -12.0011 N   0  0  0  0  0  0  0  0  0  0  0  0
   19.9741  -19.0601   -6.1486 O   0  0  0  0  0  0  0  0  0  0  0  0
   19.4756  -18.6638   -3.1719 O   0  0  0  0  0  0  0  0  0  0  0  0
   21.5073  -20.4102   -0.9213 O   0  5  0  0  0  0  0  0  0  0  0  0
   17.3590  -24.3471  -11.0959 N   0  0  0  0  0  0  0  0  0  0  0  0
   20.3256  -20.8050   -4.2754 O   0  0  0  0  0  0  0  0  0  0  0  0
   19.1412  -20.8602   -1.8719 O   0  0  0  0  0  0  0  0  0  0  0  0
   20.0556  -22.0447    0.2584 O   0  0  0  0  0  0  0  0  0  0  0  0
   18.5766  -24.3651  -10.5403 C   0  0  0  0  0  0  0  0  0  0  0  0
   19.1752  -25.5845  -10.2956 C   0  0  0  0  0  0  0  0  0  0  0  0
   18.5036  -26.7758  -10.6313 C   0  0  0  0  0  0  0  0  0  0  0  0
   19.0879  -28.0325  -10.3946 O   0  0  0  0  0  0  0  0  0  0  0  0
   20.3757  -25.3427   -9.7419 N   0  0  0  0  0  0  0  0  0  0  0  0
   20.5135  -24.0317   -9.6477 C   0  0  0  0  0  0  0  0  0  0  0  0
   19.4399  -23.4268  -10.1207 N   0  0  0  0  0  0  0  0  0  0  0  0
  1  5  1  6  0  0  0
  1 14  1  0  0  0  0
  1 19  2  0  0  0  0
  1 23  1  0  0  0  0
  2 15  1  6  0  0  0
  2 20  2  0  0  0  0
  2 23  1  0  0  0  0
  2 24  1  0  0  0  0
  3 16  1  6  0  0  0
  3 21  1  0  0  0  0
  3 24  1  0  0  0  0
  3 25  2  0  0  0  0
  4  5  1  0  0  0  0
  6  4  1  1  0  0  0
  6  7  1  0  0  0  0
  6  8  1  0  0  0  0
  7 12  1  0  0  0  0
  8  9  1  6  0  0  0
  8 10  1  0  0  0  0
 10 11  1  6  0  0  0
 10 12  1  0  0  0  0
 12 32  1  1  0  0  0
 13 17  2  0  0  0  0
 13 28  1  0  0  0  0
 17 18  1  0  0  0  0
 17 22  1  0  0  0  0
 22 26  2  0  0  0  0
 26 27  1  0  0  0  0
 26 32  1  0  0  0  0
 27 28  2  0  0  0  0
 27 30  1  0  0  0  0
 28 29  1  0  0  0  0
 30 31  2  0  0  0  0
 31 32  1  0  0  0  0
M  CHG  3  14  -1  15  -1  21  -1
M  END
>  <CHROM.1>
-177.07299658,81.88700891,-62.35052018,101.19290175,76.44202871,175.74255624
-149.06489673,153.44308994,19.39932022,-22.06644873,-6.65426082,0.40557061
-1.32862889,-0.05964608

>  <Name>
ligand

>  <RI>
0

>  <Rbt.Current_Directory>
/home/itssahil/PROJECTS/Mol_Feturizer/New_Systems/rnas/4Y1I

>  <Rbt.Executable>
rbdock ($Id: //depot/dev/client3/rdock/2013.1/src/exe/rbdock.cxx#4 $)

>  <Rbt.Library>
libRbt.so (2013.1, Build901 2013/11/27)

>  <Rbt.Parameter_File>
/export/apps/rDock/src/rDock_2013.1_src/data/scripts/dock_solv.prm

>  <Rbt.Receptor>
prm/blind_docking_40.prm

>  <SCORE>
-8.30484

>  <SCORE.INTER>
-6.78639

>  <SCORE.INTER.CONST>
1

>  <SCORE.INTER.POLAR>
0

>  <SCORE.INTER.ROT>
8

>  <SCORE.INTER.SOLV>
23.7797

>  <SCORE.INTER.VDW>
-21.3842

>  <SCORE.INTER.norm>
-0.212075

>  <SCORE.INTRA>
-1.53504

>  <SCORE.INTRA.DIHEDRAL>
-1.40269

>  <SCORE.INTRA.DIHEDRAL.0>
10.9594

>  <SCORE.INTRA.POLAR>
0

>  <SCORE.INTRA.POLAR.0>
0

>  <SCORE.INTRA.REPUL>
0

>  <SCORE.INTRA.REPUL.0>
0

>  <SCORE.INTRA.SOLV>
-1.4198

>  <SCORE.INTRA.SOLV.lig_0>
-124.914

>  <SCORE.INTRA.VDW>
-0.123793

>  <SCORE.INTRA.VDW.0>
-4.69801

>  <SCORE.INTRA.norm>
-0.04797

>  <SCORE.RESTR>
0.0165944

>  <SCORE.RESTR.CAVITY>
0.0165944

>  <SCORE.RESTR.norm>
0.000518574

>  <SCORE.SYSTEM>
0

>  <SCORE.SYSTEM.CONST>
0

>  <SCORE.SYSTEM.DIHEDRAL>
0

>  <SCORE.SYSTEM.SOLV>
0

>  <SCORE.SYSTEM.norm>
0

>  <SCORE.heavy>
32

>  <SCORE.norm>
-0.259526

>  <RMSD>
13.694

$$$$
ligand
 OpenBabel11021811513D
libRbt.so/2013.1/901 2013/11/27
 32 34  0  0  0  0  0  0  0  0999 V2000
   20.2389  -19.4321   -4.9448 P   0  0  1  0  0  0  0  0  0  0  0  0
   19.3294  -19.3592   -2.2248 P   0  0  2  0  0  0  0  0  0  0  0  0
   20.3312  -21.4622   -0.4389 P   0  0  1  0  0  0  0  0  0  0  0  0
   20.5162  -21.0230   -6.9902 C   0  0  0  0  0  0  0  0  0  0  0  0
   19.9646  -20.8613   -5.7144 O   0  0  0  0  0  0  0  0  0  0  0  0
   19.7532  -20.3233   -7.9184 C   0  0  1  0  0  0  0  0  0  0  0  0
   20.3371  -20.5021   -9.3065 O   0  0  0  0  0  0  0  0  0  0  0  0
   18.2627  -20.8932   -7.9944 C   0  0  1  0  0  0  0  0  0  0  0  0
   17.2946  -19.8340   -7.5180 O   0  0  0  0  0  0  0  0  0  0  0  0
   18.0328  -21.0883   -9.1904 C   0  0  1  0  0  0  0  0  0  0  0  0
   17.3030  -19.9241   -9.7469 O   0  0  0  0  0  0  0  0  0  0  0  0
   19.5139  -21.2425   -9.9364 C   0  0  2  0  0  0  0  0  0  0  0  0
   18.7042  -26.0519  -11.5487 N   0  0  0  0  0  0  0  0  0  0  0  0
   21.5679  -19.4815   -4.2325 O   0  5  0  0  0  0  0  0  0  0  0  0
   18.0629  -19.1039   -1.4469 O   0  5  0  0  0  0  0  0  0  0  0  0
   21.5586  -20.7018    0.0058 O   0  0  0  0  0  0  0  0  0  0  0  0
   17.9801  -24.9723  -11.7994 C   0  0  0  0  0  0  0  0  0  0  0  0
   16.7955  -25.0866  -12.6260 N   0  0  0  0  0  0  0  0  0  0  0  0
   20.2138  -18.3178   -5.9665 O   0  0  0  0  0  0  0  0  0  0  0  0
   20.3791  -18.3567   -1.8226 O   0  0  0  0  0  0  0  0  0  0  0  0
   19.2192  -21.2372    0.5623 O   0  5  0  0  0  0  0  0  0  0  0  0
   18.3015  -23.7881  -11.3198 N   0  0  0  0  0  0  0  0  0  0  0  0
   19.0504  -19.2000   -3.8346 O   0  0  0  0  0  0  0  0  0  0  0  0
   19.8767  -20.8796   -1.9165 O   0  0  0  0  0  0  0  0  0  0  0  0
   20.6688  -22.9344   -0.5282 O   0  0  0  0  0  0  0  0  0  0  0  0
   19.3877  -23.6394  -10.5519 C   0  0  0  0  0  0  0  0  0  0  0  0
   20.1600  -24.7492  -10.2746 C   0  0  0  0  0  0  0  0  0  0  0  0
   19.7976  -26.0050  -10.7988 C   0  0  0  0  0  0  0  0  0  0  0  0
   20.5647  -27.1532  -10.5343 O   0  0  0  0  0  0  0  0  0  0  0  0
   21.1799  -24.3491   -9.4962 N   0  0  0  0  0  0  0  0  0  0  0  0
   21.0442  -23.0492   -9.2999 C   0  0  0  0  0  0  0  0  0  0  0  0
   19.9700  -22.6049   -9.9253 N   0  0  0  0  0  0  0  0  0  0  0  0
  1  5  1  6  0  0  0
  1 14  1  0  0  0  0
  1 19  2  0  0  0  0
  1 23  1  0  0  0  0
  2 15  1  1  0  0  0
  2 20  2  0  0  0  0
  2 23  1  0  0  0  0
  2 24  1  0  0  0  0
  3 16  1  1  0  0  0
  3 21  1  0  0  0  0
  3 24  1  0  0  0  0
  3 25  2  0  0  0  0
  4  5  1  0  0  0  0
  6  4  1  1  0  0  0
  6  7  1  0  0  0  0
  6  8  1  0  0  0  0
  7 12  1  0  0  0  0
  8  9  1  6  0  0  0
  8 10  1  0  0  0  0
 10 11  1  6  0  0  0
 10 12  1  0  0  0  0
 12 32  1  1  0  0  0
 13 17  2  0  0  0  0
 13 28  1  0  0  0  0
 17 18  1  0  0  0  0
 17 22  1  0  0  0  0
 22 26  2  0  0  0  0
 26 27  1  0  0  0  0
 26 32  1  0  0  0  0
 27 28  2  0  0  0  0
 27 30  1  0  0  0  0
 28 29  1  0  0  0  0
 30 31  2  0  0  0  0
 31 32  1  0  0  0  0
M  CHG  3  14  -1  15  -1  21  -1
M  END
>  <CHROM.1>
-84.71609292,-179.42152815,-65.43099294,-179.53365330,-77.05591489,-176.24304112
106.96179700,-61.06983175,19.59664473,-21.51992494,-6.20597317,1.24438778
-1.27913650,0.86136428

>  <Name>
ligand

>  <RI>
0

>  <Rbt.Current_Directory>
/home/itssahil/PROJECTS/Mol_Feturizer/New_Systems/rnas/4Y1I

>  <Rbt.Executable>
rbdock ($Id: //depot/dev/client3/rdock/2013.1/src/exe/rbdock.cxx#4 $)

>  <Rbt.Library>
libRbt.so (2013.1, Build901 2013/11/27)

>  <Rbt.Parameter_File>
/export/apps/rDock/src/rDock_2013.1_src/data/scripts/dock_solv.prm

>  <Rbt.Receptor>
prm/blind_docking_40.prm

>  <SCORE>
-10.6437

>  <SCORE.INTER>
-8.28888

>  <SCORE.INTER.CONST>
1

>  <SCORE.INTER.POLAR>
0

>  <SCORE.INTER.ROT>
8

>  <SCORE.INTER.SOLV>
31.8675

>  <SCORE.INTER.VDW>
-25.0817

>  <SCORE.INTER.norm>
-0.259028

>  <SCORE.INTRA>
-2.71022

>  <SCORE.INTRA.DIHEDRAL>
-5.39459

>  <SCORE.INTRA.DIHEDRAL.0>
10.9594

>  <SCORE.INTRA.POLAR>
0

>  <SCORE.INTRA.POLAR.0>
0

>  <SCORE.INTRA.REPUL>
0

>  <SCORE.INTRA.REPUL.0>
0

>  <SCORE.INTRA.SOLV>
-1.75887

>  <SCORE.INTRA.SOLV.lig_0>
-124.914

>  <SCORE.INTRA.VDW>
0.866505

>  <SCORE.INTRA.VDW.0>
-4.69801

>  <SCORE.INTRA.norm>
-0.0846944

>  <SCORE.RESTR>
0.355409

>  <SCORE.RESTR.CAVITY>
0.355409

>  <SCORE.RESTR.norm>
0.0111065

>  <SCORE.SYSTEM>
0

>  <SCORE.SYSTEM.CONST>
0

>  <SCORE.SYSTEM.DIHEDRAL>
0

>  <SCORE.SYSTEM.SOLV>
0

>  <SCORE.SYSTEM.norm>
0

>  <SCORE.heavy>
32

>  <SCORE.norm>
-0.332615

>  <RMSD>
14.249

$$$$
ligand
 OpenBabel11021811513D
libRbt.so/2013.1/901 2013/11/27
 32 34  0  0  0  0  0  0  0  0999 V2000
   17.0550  -23.8569   -6.8086 P   0  0  1  0  0  0  0  0  0  0  0  0
   16.6926  -24.9430   -9.4392 P   0  0  2  0  0  0  0  0  0  0  0  0
   16.4262  -22.6483  -11.2498 P   0  0  1  0  0  0  0  0  0  0  0  0
   18.0745  -22.5908   -4.7716 C   0  0  0  0  0  0  0  0  0  0  0  0
   18.3307  -23.4364   -5.8567 O   0  0  0  0  0  0  0  0  0  0  0  0
   18.1019  -21.2674   -5.1973 C   0  0  1  0  0  0  0  0  0  0  0  0
   17.5567  -20.3634   -4.1085 O   0  0  0  0  0  0  0  0  0  0  0  0
   19.5971  -20.7738   -5.4672 C   0  0  1  0  0  0  0  0  0  0  0  0
   19.7673  -20.4664   -6.9378 O   0  0  0  0  0  0  0  0  0  0  0  0
   19.7213  -19.7109   -4.8540 C   0  0  1  0  0  0  0  0  0  0  0  0
   19.4917  -18.5781   -5.7824 O   0  0  0  0  0  0  0  0  0  0  0  0
   18.5583  -19.7155   -3.6618 C   0  0  2  0  0  0  0  0  0  0  0  0
   22.5927  -21.7005   -1.1782 N   0  0  0  0  0  0  0  0  0  0  0  0
   16.3998  -25.1024   -6.2650 O   0  5  0  0  0  0  0  0  0  0  0  0
   15.2422  -24.9233   -9.0265 O   0  5  0  0  0  0  0  0  0  0  0  0
   17.1594  -21.7266  -10.3037 O   0  0  0  0  0  0  0  0  0  0  0  0
   22.5536  -21.1917   -2.3998 C   0  0  0  0  0  0  0  0  0  0  0  0
   23.7644  -21.1573   -3.1950 N   0  0  0  0  0  0  0  0  0  0  0  0
   16.0773  -22.7042   -6.8472 O   0  0  0  0  0  0  0  0  0  0  0  0
   17.1686  -26.3684   -9.5416 O   0  0  0  0  0  0  0  0  0  0  0  0
   16.8225  -22.3161  -12.6718 O   0  5  0  0  0  0  0  0  0  0  0  0
   21.4434  -20.7114   -2.9218 N   0  0  0  0  0  0  0  0  0  0  0  0
   17.6128  -24.1684   -8.3220 O   0  0  0  0  0  0  0  0  0  0  0  0
   16.8684  -24.2004  -10.8964 O   0  0  0  0  0  0  0  0  0  0  0  0
   14.9362  -22.4636  -11.0622 O   0  0  0  0  0  0  0  0  0  0  0  0
   20.3033  -20.7245   -2.2208 C   0  0  0  0  0  0  0  0  0  0  0  0
   20.3163  -21.2500   -0.9446 C   0  0  0  0  0  0  0  0  0  0  0  0
   21.5149  -21.7571   -0.4067 C   0  0  0  0  0  0  0  0  0  0  0  0
   21.5595  -22.2980    0.8903 O   0  0  0  0  0  0  0  0  0  0  0  0
   19.0693  -21.1516   -0.4530 N   0  0  0  0  0  0  0  0  0  0  0  0
   18.3179  -20.5904   -1.3842 C   0  0  0  0  0  0  0  0  0  0  0  0
   19.0424  -20.3287   -2.4561 N   0  0  0  0  0  0  0  0  0  0  0  0
  1  5  1  1  0  0  0
  1 14  1  0  0  0  0
  1 19  2  0  0  0  0
  1 23  1  0  0  0  0
  2 15  1  1  0  0  0
  2 20  2  0  0  0  0
  2 23  1  0  0  0  0
  2 24  1  0  0  0  0
  3 16  1  1  0  0  0
  3 21  1  0  0  0  0
  3 24  1  0  0  0  0
  3 25  2  0  0  0  0
  4  5  1  0  0  0  0
  6  4  1  1  0  0  0
  6  7  1  0  0  0  0
  6  8  1  0  0  0  0
  7 12  1  0  0  0  0
  8  9  1  6  0  0  0
  8 10  1  0  0  0  0
 10 11  1  6  0  0  0
 10 12  1  0  0  0  0
 12 32  1  1  0  0  0
 13 17  2  0  0  0  0
 13 28  1  0  0  0  0
 17 18  1  0  0  0  0
 17 22  1  0  0  0  0
 22 26  2  0  0  0  0
 26 27  1  0  0  0  0
 26 32  1  0  0  0  0
 27 28  2  0  0  0  0
 27 30  1  0  0  0  0
 28 29  1  0  0  0  0
 30 31  2  0  0  0  0
 31 32  1  0  0  0  0
M  CHG  3  14  -1  15  -1  21  -1
M  END
>  <CHROM.1>
-88.88399059,16.81974792,58.02311601,168.68376552,-85.01476135,126.20819346
165.63412779,57.52328998,18.39233726,-22.28573350,-6.05583485,2.65372007
-1.04621335,-0.86034382

>  <Name>
ligand

>  <RI>
0

>  <Rbt.Current_Directory>
/home/itssahil/PROJECTS/Mol_Feturizer/New_Systems/rnas/4Y1I

>  <Rbt.Executable>
rbdock ($Id: //depot/dev/client3/rdock/2013.1/src/exe/rbdock.cxx#4 $)

>  <Rbt.Library>
libRbt.so (2013.1, Build901 2013/11/27)

>  <Rbt.Parameter_File>
/export/apps/rDock/src/rDock_2013.1_src/data/scripts/dock_solv.prm

>  <Rbt.Receptor>
prm/blind_docking_40.prm

>  <SCORE>
-8.3317

>  <SCORE.INTER>
-6.80919

>  <SCORE.INTER.CONST>
1

>  <SCORE.INTER.POLAR>
0

>  <SCORE.INTER.ROT>
8

>  <SCORE.INTER.SOLV>
30.8605

>  <SCORE.INTER.VDW>
-23.7596

>  <SCORE.INTER.norm>
-0.212787

>  <SCORE.INTRA>
-2.21064

>  <SCORE.INTRA.DIHEDRAL>
-3.25651

>  <SCORE.INTRA.DIHEDRAL.0>
10.9594

>  <SCORE.INTRA.POLAR>
0

>  <SCORE.INTRA.POLAR.0>
0

>  <SCORE.INTRA.REPUL>
0

>  <SCORE.INTRA.REPUL.0>
0

>  <SCORE.INTRA.SOLV>
-1.98291

>  <SCORE.INTRA.SOLV.lig_0>
-124.914

>  <SCORE.INTRA.VDW>
0.409073

>  <SCORE.INTRA.VDW.0>
-4.69801

>  <SCORE.INTRA.norm>
-0.0690825

>  <SCORE.RESTR>
0.688135

>  <SCORE.RESTR.CAVITY>
0.688135

>  <SCORE.RESTR.norm>
0.0215042

>  <SCORE.SYSTEM>
0

>  <SCORE.SYSTEM.CONST>
0

>  <SCORE.SYSTEM.DIHEDRAL>
0

>  <SCORE.SYSTEM.SOLV>
0

>  <SCORE.SYSTEM.norm>
0

>  <SCORE.heavy>
32

>  <SCORE.norm>
-0.260365

>  <RMSD>
14.383

$$$$
ligand
 OpenBabel11021811513D
libRbt.so/2013.1/901 2013/11/27
 32 34  0  0  0  0  0  0  0  0999 V2000
   16.8324  -23.7262   -6.7391 P   0  0  1  0  0  0  0  0  0  0  0  0
   15.9085  -24.2940   -9.3953 P   0  0  2  0  0  0  0  0  0  0  0  0
   17.3078  -23.1690  -11.7173 P   0  0  1  0  0  0  0  0  0  0  0  0
   18.0097  -21.8309   -5.3926 C   0  0  0  0  0  0  0  0  0  0  0  0
   16.9708  -22.1535   -6.2727 O   0  0  0  0  0  0  0  0  0  0  0  0
   18.3450  -20.4897   -5.5413 C   0  0  1  0  0  0  0  0  0  0  0  0
   18.3968  -19.8168   -4.1832 O   0  0  0  0  0  0  0  0  0  0  0  0
   19.8045  -20.3209   -6.1687 C   0  0  1  0  0  0  0  0  0  0  0  0
   19.6947  -19.6706   -7.5293 O   0  0  0  0  0  0  0  0  0  0  0  0
   20.4028  -19.5322   -5.4330 C   0  0  1  0  0  0  0  0  0  0  0  0
   20.3189  -18.1668   -6.0044 O   0  0  0  0  0  0  0  0  0  0  0  0
   19.6286  -19.5820   -3.9592 C   0  0  2  0  0  0  0  0  0  0  0  0
   19.6295  -21.7460    0.6994 N   0  0  0  0  0  0  0  0  0  0  0  0
   18.1197  -24.1854   -7.3780 O   0  5  0  0  0  0  0  0  0  0  0  0
   14.6072  -24.4788  -10.1347 O   0  5  0  0  0  0  0  0  0  0  0  0
   17.8058  -24.5613  -12.0270 O   0  0  0  0  0  0  0  0  0  0  0  0
   18.9097  -20.7193    0.2745 C   0  0  0  0  0  0  0  0  0  0  0  0
   17.9839  -20.0749    1.1841 N   0  0  0  0  0  0  0  0  0  0  0  0
   16.5014  -24.5653   -5.5256 O   0  0  0  0  0  0  0  0  0  0  0  0
   16.6672  -25.5951   -9.3767 O   0  0  0  0  0  0  0  0  0  0  0  0
   16.1386  -22.8482  -12.6227 O   0  5  0  0  0  0  0  0  0  0  0  0
   19.0065  -20.2593   -0.9562 N   0  0  0  0  0  0  0  0  0  0  0  0
   15.6222  -23.8389   -7.8443 O   0  0  0  0  0  0  0  0  0  0  0  0
   16.8152  -23.1415  -10.1406 O   0  0  0  0  0  0  0  0  0  0  0  0
   18.4325  -22.1819  -11.9408 O   0  0  0  0  0  0  0  0  0  0  0  0
   19.8498  -20.8259   -1.8276 C   0  0  0  0  0  0  0  0  0  0  0  0
   20.6125  -21.8979   -1.4101 C   0  0  0  0  0  0  0  0  0  0  0  0
   20.4917  -22.3731   -0.0900 C   0  0  0  0  0  0  0  0  0  0  0  0
   21.2548  -23.4633    0.3640 O   0  0  0  0  0  0  0  0  0  0  0  0
   21.3691  -22.2866   -2.4506 N   0  0  0  0  0  0  0  0  0  0  0  0
   21.0874  -21.4899   -3.4668 C   0  0  0  0  0  0  0  0  0  0  0  0
   20.1773  -20.6030   -3.1102 N   0  0  0  0  0  0  0  0  0  0  0  0
  1  5  1  1  0  0  0
  1 14  1  0  0  0  0
  1 19  2  0  0  0  0
  1 23  1  0  0  0  0
  2 15  1  6  0  0  0
  2 20  2  0  0  0  0
  2 23  1  0  0  0  0
  2 24  1  0  0  0  0
  3 16  1  6  0  0  0
  3 21  1  0  0  0  0
  3 24  1  0  0  0  0
  3 25  2  0  0  0  0
  4  5  1  0  0  0  0
  6  4  1  1  0  0  0
  6  7  1  0  0  0  0
  6  8  1  0  0  0  0
  7 12  1  0  0  0  0
  8  9  1  6  0  0  0
  8 10  1  0  0  0  0
 10 11  1  6  0  0  0
 10 12  1  0  0  0  0
 12 32  1  1  0  0  0
 13 17  2  0  0  0  0
 13 28  1  0  0  0  0
 17 18  1  0  0  0  0
 17 22  1  0  0  0  0
 22 26  2  0  0  0  0
 26 27  1  0  0  0  0
 26 32  1  0  0  0  0
 27 28  2  0  0  0  0
 27 30  1  0  0  0  0
 28 29  1  0  0  0  0
 30 31  2  0  0  0  0
 31 32  1  0  0  0  0
M  CHG  3  14  -1  15  -1  21  -1
M  END
>  <CHROM.1>
-57.11731046,172.89625483,-44.28669976,130.63419135,154.89936736,-66.69945454
115.77606638,-57.38421172,18.25271097,-22.23599087,-6.09242638,2.15420879
-0.96978549,-1.34529403

>  <Name>
ligand

>  <RI>
0

>  <Rbt.Current_Directory>
/home/itssahil/PROJECTS/Mol_Feturizer/New_Systems/rnas/4Y1I

>  <Rbt.Executable>
rbdock ($Id: //depot/dev/client3/rdock/2013.1/src/exe/rbdock.cxx#4 $)

>  <Rbt.Library>
libRbt.so (2013.1, Build901 2013/11/27)

>  <Rbt.Parameter_File>
/export/apps/rDock/src/rDock_2013.1_src/data/scripts/dock_solv.prm

>  <Rbt.Receptor>
prm/blind_docking_40.prm

>  <SCORE>
-8.54323

>  <SCORE.INTER>
-7.36504

>  <SCORE.INTER.CONST>
1

>  <SCORE.INTER.POLAR>
0

>  <SCORE.INTER.ROT>
8

>  <SCORE.INTER.SOLV>
34.0385

>  <SCORE.INTER.VDW>
-25.1895

>  <SCORE.INTER.norm>
-0.230157

>  <SCORE.INTRA>
-1.19622

>  <SCORE.INTRA.DIHEDRAL>
0.629331

>  <SCORE.INTRA.DIHEDRAL.0>
10.9594

>  <SCORE.INTRA.POLAR>
0

>  <SCORE.INTRA.POLAR.0>
0

>  <SCORE.INTRA.REPUL>
0

>  <SCORE.INTRA.REPUL.0>
0

>  <SCORE.INTRA.SOLV>
-4.15992

>  <SCORE.INTRA.SOLV.lig_0>
-124.914

>  <SCORE.INTRA.VDW>
0.569071

>  <SCORE.INTRA.VDW.0>
-4.69801

>  <SCORE.INTRA.norm>
-0.037382

>  <SCORE.RESTR>
0.0180306

>  <SCORE.RESTR.CAVITY>
0.0180306

>  <SCORE.RESTR.norm>
0.000563457

>  <SCORE.SYSTEM>
0

>  <SCORE.SYSTEM.CONST>
0

>  <SCORE.SYSTEM.DIHEDRAL>
0

>  <SCORE.SYSTEM.SOLV>
0

>  <SCORE.SYSTEM.norm>
0

>  <SCORE.heavy>
32

>  <SCORE.norm>
-0.266976

>  <RMSD>
14.487

$$$$
ligand
 OpenBabel11021811513D
libRbt.so/2013.1/901 2013/11/27
 32 34  0  0  0  0  0  0  0  0999 V2000
   16.8323  -23.7604   -6.6912 P   0  0  1  0  0  0  0  0  0  0  0  0
   17.2234  -23.1208   -9.4605 P   0  0  2  0  0  0  0  0  0  0  0  0
   18.3784  -22.5599  -12.1000 P   0  0  1  0  0  0  0  0  0  0  0  0
   18.8282  -22.7862   -5.3278 C   0  0  0  0  0  0  0  0  0  0  0  0
   17.5934  -23.4415   -5.2667 O   0  0  0  0  0  0  0  0  0  0  0  0
   18.6253  -21.4367   -5.5943 C   0  0  1  0  0  0  0  0  0  0  0  0
   18.0364  -20.7526   -4.3756 O   0  0  0  0  0  0  0  0  0  0  0  0
   20.0052  -20.6884   -5.8914 C   0  0  1  0  0  0  0  0  0  0  0  0
   20.0147  -20.2007   -7.3225 O   0  0  0  0  0  0  0  0  0  0  0  0
   20.0161  -19.6919   -5.1647 C   0  0  1  0  0  0  0  0  0  0  0  0
   19.5499  -18.5153   -5.9369 O   0  0  0  0  0  0  0  0  0  0  0  0
   18.9614  -20.0078   -3.9150 C   0  0  2  0  0  0  0  0  0  0  0  0
   18.9322  -21.0469    1.1154 N   0  0  0  0  0  0  0  0  0  0  0  0
   16.6255  -25.2476   -6.8389 O   0  5  0  0  0  0  0  0  0  0  0  0
   16.0943  -22.1238   -9.5344 O   0  5  0  0  0  0  0  0  0  0  0  0
   18.4049  -23.9679  -12.6469 O   0  0  0  0  0  0  0  0  0  0  0  0
   18.0592  -20.3323    0.4227 C   0  0  0  0  0  0  0  0  0  0  0  0
   16.9269  -19.7378    1.1038 N   0  0  0  0  0  0  0  0  0  0  0  0
   15.5108  -23.0260   -6.7108 O   0  0  0  0  0  0  0  0  0  0  0  0
   16.7268  -24.4778   -9.8854 O   0  0  0  0  0  0  0  0  0  0  0  0
   17.0882  -21.8897  -12.5192 O   0  5  0  0  0  0  0  0  0  0  0  0
   18.1850  -20.1413   -0.8747 N   0  0  0  0  0  0  0  0  0  0  0  0
   17.7841  -23.2326   -7.9217 O   0  0  0  0  0  0  0  0  0  0  0  0
   18.4490  -22.6505  -10.4519 O   0  0  0  0  0  0  0  0  0  0  0  0
   19.5675  -21.7977  -12.6425 O   0  0  0  0  0  0  0  0  0  0  0  0
   19.2166  -20.6728   -1.5417 C   0  0  0  0  0  0  0  0  0  0  0  0
   20.1417  -21.4221   -0.8432 C   0  0  0  0  0  0  0  0  0  0  0  0
   19.9865  -21.6136    0.5433 C   0  0  0  0  0  0  0  0  0  0  0  0
   20.9120  -22.3721    1.2815 O   0  0  0  0  0  0  0  0  0  0  0  0
   21.0691  -21.8417   -1.7207 N   0  0  0  0  0  0  0  0  0  0  0  0
   20.7329  -21.3723   -2.9096 C   0  0  0  0  0  0  0  0  0  0  0  0
   19.6223  -20.6644   -2.8212 N   0  0  0  0  0  0  0  0  0  0  0  0
  1  5  1  1  0  0  0
  1 14  1  0  0  0  0
  1 19  2  0  0  0  0
  1 23  1  0  0  0  0
  2 15  1  6  0  0  0
  2 20  2  0  0  0  0
  2 23  1  0  0  0  0
  2 24  1  0  0  0  0
  3 16  1  6  0  0  0
  3 21  1  0  0  0  0
  3 24  1  0  0  0  0
  3 25  2  0  0  0  0
  4  5  1  0  0  0  0
  6  4  1  1  0  0  0
  6  7  1  0  0  0  0
  6  8  1  0  0  0  0
  7 12  1  0  0  0  0
  8  9  1  6  0  0  0
  8 10  1  0  0  0  0
 10 11  1  6  0  0  0
 10 12  1  0  0  0  0
 12 32  1  1  0  0  0
 13 17  2  0  0  0  0
 13 28  1  0  0  0  0
 17 18  1  0  0  0  0
 17 22  1  0  0  0  0
 22 26  2  0  0  0  0
 26 27  1  0  0  0  0
 26 32  1  0  0  0  0
 27 28  2  0  0  0  0
 27 30  1  0  0  0  0
 28 29  1  0  0  0  0
 30 31  2  0  0  0  0
 31 32  1  0  0  0  0
M  CHG  3  14  -1  15  -1  21  -1
M  END
>  <CHROM.1>
120.36901447,62.60179359,-73.72628849,71.55627280,76.22091570,-83.93784425
-167.95485965,-65.55962754,18.40129244,-21.96347313,-6.01554850,1.78707673
-0.82527018,-1.60038329

>  <Name>
ligand

>  <RI>
0

>  <Rbt.Current_Directory>
/home/itssahil/PROJECTS/Mol_Feturizer/New_Systems/rnas/4Y1I

>  <Rbt.Executable>
rbdock ($Id: //depot/dev/client3/rdock/2013.1/src/exe/rbdock.cxx#4 $)

>  <Rbt.Library>
libRbt.so (2013.1, Build901 2013/11/27)

>  <Rbt.Parameter_File>
/export/apps/rDock/src/rDock_2013.1_src/data/scripts/dock_solv.prm

>  <Rbt.Receptor>
prm/blind_docking_40.prm

>  <SCORE>
-12.7985

>  <SCORE.INTER>
-9.71737

>  <SCORE.INTER.CONST>
1

>  <SCORE.INTER.POLAR>
0

>  <SCORE.INTER.ROT>
8

>  <SCORE.INTER.SOLV>
43.6404

>  <SCORE.INTER.VDW>
-29.9584

>  <SCORE.INTER.norm>
-0.303668

>  <SCORE.INTRA>
-3.08116

>  <SCORE.INTRA.DIHEDRAL>
-5.06158

>  <SCORE.INTRA.DIHEDRAL.0>
10.9594

>  <SCORE.INTRA.POLAR>
0

>  <SCORE.INTRA.POLAR.0>
0

>  <SCORE.INTRA.REPUL>
0.00146882

>  <SCORE.INTRA.REPUL.0>
0

>  <SCORE.INTRA.SOLV>
-1.80946

>  <SCORE.INTRA.SOLV.lig_0>
-124.914

>  <SCORE.INTRA.VDW>
0.347016

>  <SCORE.INTRA.VDW.0>
-4.69801

>  <SCORE.INTRA.norm>
-0.0962862

>  <SCORE.RESTR>
0

>  <SCORE.RESTR.CAVITY>
0

>  <SCORE.RESTR.norm>
0

>  <SCORE.SYSTEM>
0

>  <SCORE.SYSTEM.CONST>
0

>  <SCORE.SYSTEM.DIHEDRAL>
0

>  <SCORE.SYSTEM.SOLV>
0

>  <SCORE.SYSTEM.norm>
0

>  <SCORE.heavy>
32

>  <SCORE.norm>
-0.399954

>  <RMSD>
14.740

$$$$
ligand
 OpenBabel11021811513D
libRbt.so/2013.1/901 2013/11/27
 32 34  0  0  0  0  0  0  0  0999 V2000
   17.4716  -22.1261   -6.5661 P   0  0  1  0  0  0  0  0  0  0  0  0
   16.9386  -21.8246   -9.3689 P   0  0  2  0  0  0  0  0  0  0  0  0
   18.9285  -23.1727  -11.0537 P   0  0  1  0  0  0  0  0  0  0  0  0
   19.8056  -22.4310   -5.4475 C   0  0  0  0  0  0  0  0  0  0  0  0
   19.1145  -22.0235   -6.5939 O   0  0  0  0  0  0  0  0  0  0  0  0
   21.0509  -21.8137   -5.4117 C   0  0  1  0  0  0  0  0  0  0  0  0
   20.8792  -20.3090   -5.3321 O   0  0  0  0  0  0  0  0  0  0  0  0
   21.8693  -22.2300   -4.1044 C   0  0  1  0  0  0  0  0  0  0  0  0
   23.1003  -23.0092   -4.5088 O   0  0  0  0  0  0  0  0  0  0  0  0
   22.2546  -21.1757   -3.5931 C   0  0  1  0  0  0  0  0  0  0  0  0
   23.6475  -20.9022   -4.0211 O   0  0  0  0  0  0  0  0  0  0  0  0
   21.2403  -19.9804   -4.1556 C   0  0  2  0  0  0  0  0  0  0  0  0
   19.2594  -20.5544    0.5489 N   0  0  0  0  0  0  0  0  0  0  0  0
   17.0464  -23.5658   -6.7161 O   0  5  0  0  0  0  0  0  0  0  0  0
   16.7561  -20.6918  -10.3476 O   0  5  0  0  0  0  0  0  0  0  0  0
   20.1486  -24.0172  -10.7701 O   0  0  0  0  0  0  0  0  0  0  0  0
   20.4831  -20.8449    0.1355 C   0  0  0  0  0  0  0  0  0  0  0  0
   21.4383  -21.3980    1.0743 N   0  0  0  0  0  0  0  0  0  0  0  0
   16.9710  -21.5473   -5.2620 O   0  0  0  0  0  0  0  0  0  0  0  0
   15.8359  -22.8338   -9.5542 O   0  0  0  0  0  0  0  0  0  0  0  0
   17.8532  -24.0448  -11.6641 O   0  5  0  0  0  0  0  0  0  0  0  0
   20.8659  -20.6471   -1.1094 N   0  0  0  0  0  0  0  0  0  0  0  0
   16.8727  -21.2618   -7.8282 O   0  0  0  0  0  0  0  0  0  0  0  0
   18.3935  -22.5501   -9.6199 O   0  0  0  0  0  0  0  0  0  0  0  0
   19.3089  -22.0614  -12.0076 O   0  0  0  0  0  0  0  0  0  0  0  0
   20.0143  -20.1384   -2.0081 C   0  0  0  0  0  0  0  0  0  0  0  0
   18.7320  -19.8271   -1.6034 C   0  0  0  0  0  0  0  0  0  0  0  0
   18.3452  -20.0463   -0.2672 C   0  0  0  0  0  0  0  0  0  0  0  0
   17.0463  -19.7387    0.1746 O   0  0  0  0  0  0  0  0  0  0  0  0
   18.0775  -19.3385   -2.6707 N   0  0  0  0  0  0  0  0  0  0  0  0
   18.9177  -19.3476   -3.6909 C   0  0  0  0  0  0  0  0  0  0  0  0
   20.0873  -19.8280   -3.3120 N   0  0  0  0  0  0  0  0  0  0  0  0
  1  5  1  6  0  0  0
  1 14  1  0  0  0  0
  1 19  2  0  0  0  0
  1 23  1  0  0  0  0
  2 15  1  6  0  0  0
  2 20  2  0  0  0  0
  2 23  1  0  0  0  0
  2 24  1  0  0  0  0
  3 16  1  1  0  0  0
  3 21  1  0  0  0  0
  3 24  1  0  0  0  0
  3 25  2  0  0  0  0
  4  5  1  0  0  0  0
  6  4  1  1  0  0  0
  6  7  1  0  0  0  0
  6  8  1  0  0  0  0
  7 12  1  0  0  0  0
  8  9  1  6  0  0  0
  8 10  1  0  0  0  0
 10 11  1  6  0  0  0
 10 12  1  0  0  0  0
 12 32  1  1  0  0  0
 13 17  2  0  0  0  0
 13 28  1  0  0  0  0
 17 18  1  0  0  0  0
 17 22  1  0  0  0  0
 22 26  2  0  0  0  0
 26 27  1  0  0  0  0
 26 32  1  0  0  0  0
 27 28  2  0  0  0  0
 27 30  1  0  0  0  0
 28 29  1  0  0  0  0
 30 31  2  0  0  0  0
 31 32  1  0  0  0  0
M  CHG  3  14  -1  15  -1  21  -1
M  END
>  <CHROM.1>
-75.18330971,-161.27918529,-166.92149526,62.02881645,-156.48871203,144.82492801
75.49375314,-54.83311733,19.13493274,-21.57182121,-5.78395557,1.80194219
0.16669865,-1.84798132

>  <Name>
ligand

>  <RI>
0

>  <Rbt.Current_Directory>
/home/itssahil/PROJECTS/Mol_Feturizer/New_Systems/rnas/4Y1I

>  <Rbt.Executable>
rbdock ($Id: //depot/dev/client3/rdock/2013.1/src/exe/rbdock.cxx#4 $)

>  <Rbt.Library>
libRbt.so (2013.1, Build901 2013/11/27)

>  <Rbt.Parameter_File>
/export/apps/rDock/src/rDock_2013.1_src/data/scripts/dock_solv.prm

>  <Rbt.Receptor>
prm/blind_docking_40.prm

>  <SCORE>
-6.9193

>  <SCORE.INTER>
-2.39082

>  <SCORE.INTER.CONST>
1

>  <SCORE.INTER.POLAR>
0

>  <SCORE.INTER.ROT>
8

>  <SCORE.INTER.SOLV>
27.5732

>  <SCORE.INTER.VDW>
-19.7183

>  <SCORE.INTER.norm>
-0.0747131

>  <SCORE.INTRA>
-4.59405

>  <SCORE.INTRA.DIHEDRAL>
-5.79693

>  <SCORE.INTRA.DIHEDRAL.0>
10.9594

>  <SCORE.INTRA.POLAR>
0

>  <SCORE.INTRA.POLAR.0>
0

>  <SCORE.INTRA.REPUL>
0.0361494

>  <SCORE.INTRA.REPUL.0>
0

>  <SCORE.INTRA.SOLV>
-3.24798

>  <SCORE.INTRA.SOLV.lig_0>
-124.914

>  <SCORE.INTRA.VDW>
-0.252347

>  <SCORE.INTRA.VDW.0>
-4.69801

>  <SCORE.INTRA.norm>
-0.143564

>  <SCORE.RESTR>
0.0655771

>  <SCORE.RESTR.CAVITY>
0.0655771

>  <SCORE.RESTR.norm>
0.00204928

>  <SCORE.SYSTEM>
0

>  <SCORE.SYSTEM.CONST>
0

>  <SCORE.SYSTEM.DIHEDRAL>
0

>  <SCORE.SYSTEM.SOLV>
0

>  <SCORE.SYSTEM.norm>
0

>  <SCORE.heavy>
32

>  <SCORE.norm>
-0.216228

>  <RMSD>
14.842

$$$$
ligand
 OpenBabel11021811513D
libRbt.so/2013.1/901 2013/11/27
 32 34  0  0  0  0  0  0  0  0999 V2000
   19.4955  -20.7773   -8.4723 P   0  0  1  0  0  0  0  0  0  0  0  0
   18.1769  -22.1465  -10.6212 P   0  0  2  0  0  0  0  0  0  0  0  0
   16.9372  -24.5682   -9.5195 P   0  0  1  0  0  0  0  0  0  0  0  0
   19.2257  -20.5851   -5.8874 C   0  0  0  0  0  0  0  0  0  0  0  0
   19.0700  -19.9408   -7.1197 O   0  0  0  0  0  0  0  0  0  0  0  0
   20.5716  -20.6022   -5.5388 C   0  0  1  0  0  0  0  0  0  0  0  0
   20.9147  -19.3576   -4.7431 O   0  0  0  0  0  0  0  0  0  0  0  0
   20.9098  -21.8380   -4.5846 C   0  0  1  0  0  0  0  0  0  0  0  0
   21.8534  -22.7801   -5.2974 O   0  0  0  0  0  0  0  0  0  0  0  0
   21.5199  -21.3680   -3.6212 C   0  0  1  0  0  0  0  0  0  0  0  0
   22.9782  -21.5173   -3.8425 O   0  0  0  0  0  0  0  0  0  0  0  0
   21.1166  -19.7537   -3.5495 C   0  0  2  0  0  0  0  0  0  0  0  0
   18.6824  -20.7376    0.8655 N   0  0  0  0  0  0  0  0  0  0  0  0
   20.2830  -19.8846   -9.3992 O   0  5  0  0  0  0  0  0  0  0  0  0
   19.4157  -21.8094  -11.4125 O   0  5  0  0  0  0  0  0  0  0  0  0
   15.7201  -24.4531  -10.4071 O   0  0  0  0  0  0  0  0  0  0  0  0
   19.8706  -21.1695    0.4727 C   0  0  0  0  0  0  0  0  0  0  0  0
   20.6385  -22.0326    1.3473 N   0  0  0  0  0  0  0  0  0  0  0  0
   20.3099  -21.9832   -8.0614 O   0  0  0  0  0  0  0  0  0  0  0  0
   16.9533  -21.8235  -11.4380 O   0  0  0  0  0  0  0  0  0  0  0  0
   17.3088  -26.0278   -9.3748 O   0  5  0  0  0  0  0  0  0  0  0  0
   20.3835  -20.8393   -0.6950 N   0  0  0  0  0  0  0  0  0  0  0  0
   18.1260  -21.2619   -9.2393 O   0  0  0  0  0  0  0  0  0  0  0  0
   18.1757  -23.7470  -10.2415 O   0  0  0  0  0  0  0  0  0  0  0  0
   16.6191  -23.9698   -8.1667 O   0  0  0  0  0  0  0  0  0  0  0  0
   19.7067  -20.0443   -1.5326 C   0  0  0  0  0  0  0  0  0  0  0  0
   18.4650  -19.5804   -1.1477 C   0  0  0  0  0  0  0  0  0  0  0  0
   17.9371  -19.9458    0.1056 C   0  0  0  0  0  0  0  0  0  0  0  0
   16.6755  -19.4886    0.5255 O   0  0  0  0  0  0  0  0  0  0  0  0
   17.9926  -18.8122   -2.1442 N   0  0  0  0  0  0  0  0  0  0  0  0
   18.9017  -18.8018   -3.1035 C   0  0  0  0  0  0  0  0  0  0  0  0
   19.9389  -19.5398   -2.7547 N   0  0  0  0  0  0  0  0  0  0  0  0
  1  5  1  1  0  0  0
  1 14  1  0  0  0  0
  1 19  2  0  0  0  0
  1 23  1  0  0  0  0
  2 15  1  6  0  0  0
  2 20  2  0  0  0  0
  2 23  1  0  0  0  0
  2 24  1  0  0  0  0
  3 16  1  6  0  0  0
  3 21  1  0  0  0  0
  3 24  1  0  0  0  0
  3 25  2  0  0  0  0
  4  5  1  0  0  0  0
  6  4  1  1  0  0  0
  6  7  1  0  0  0  0
  6  8  1  0  0  0  0
  7 12  1  0  0  0  0
  8  9  1  6  0  0  0
  8 10  1  0  0  0  0
 10 11  1  6  0  0  0
 10 12  1  0  0  0  0
 12 32  1  1  0  0  0
 13 17  2  0  0  0  0
 13 28  1  0  0  0  0
 17 18  1  0  0  0  0
 17 22  1  0  0  0  0
 22 26  2  0  0  0  0
 26 27  1  0  0  0  0
 26 32  1  0  0  0  0
 27 28  2  0  0  0  0
 27 30  1  0  0  0  0
 28 29  1  0  0  0  0
 30 31  2  0  0  0  0
 31 32  1  0  0  0  0
M  CHG  3  14  -1  15  -1  21  -1
M  END
>  <CHROM.1>
-135.86327884,-30.36924287,59.61415344,89.71001236,75.85697470,167.44207863
-179.04025709,-173.31130723,19.08723757,-21.47593010,-5.91556125,-1.78527175
0.60309521,1.41018855

>  <Name>
ligand

>  <RI>
0

>  <Rbt.Current_Directory>
/home/itssahil/PROJECTS/Mol_Feturizer/New_Systems/rnas/4Y1I

>  <Rbt.Executable>
rbdock ($Id: //depot/dev/client3/rdock/2013.1/src/exe/rbdock.cxx#4 $)

>  <Rbt.Library>
libRbt.so (2013.1, Build901 2013/11/27)

>  <Rbt.Parameter_File>
/export/apps/rDock/src/rDock_2013.1_src/data/scripts/dock_solv.prm

>  <Rbt.Receptor>
prm/blind_docking_40.prm

>  <SCORE>
-10.9142

>  <SCORE.INTER>
-9.33356

>  <SCORE.INTER.CONST>
1

>  <SCORE.INTER.POLAR>
0

>  <SCORE.INTER.ROT>
8

>  <SCORE.INTER.SOLV>
25.1748

>  <SCORE.INTER.VDW>
-23.5473

>  <SCORE.INTER.norm>
-0.291674

>  <SCORE.INTRA>
-1.59602

>  <SCORE.INTRA.DIHEDRAL>
-2.66264

>  <SCORE.INTRA.DIHEDRAL.0>
10.9594

>  <SCORE.INTRA.POLAR>
0

>  <SCORE.INTRA.POLAR.0>
0

>  <SCORE.INTRA.REPUL>
0

>  <SCORE.INTRA.REPUL.0>
0

>  <SCORE.INTRA.SOLV>
-1.68251

>  <SCORE.INTRA.SOLV.lig_0>
-124.914

>  <SCORE.INTRA.VDW>
0.576553

>  <SCORE.INTRA.VDW.0>
-4.69801

>  <SCORE.INTRA.norm>
-0.0498757

>  <SCORE.RESTR>
0.0153754

>  <SCORE.RESTR.CAVITY>
0.0153754

>  <SCORE.RESTR.norm>
0.00048048

>  <SCORE.SYSTEM>
0

>  <SCORE.SYSTEM.CONST>
0

>  <SCORE.SYSTEM.DIHEDRAL>
0

>  <SCORE.SYSTEM.SOLV>
0

>  <SCORE.SYSTEM.norm>
0

>  <SCORE.heavy>
32

>  <SCORE.norm>
-0.341069

>  <RMSD>
14.866

$$$$
ligand
 OpenBabel11021811513D
libRbt.so/2013.1/901 2013/11/27
 32 34  0  0  0  0  0  0  0  0999 V2000
   17.3609  -23.0043   -7.1711 P   0  0  1  0  0  0  0  0  0  0  0  0
   19.3343  -24.0196   -8.9893 P   0  0  2  0  0  0  0  0  0  0  0  0
   18.9826  -26.7637   -9.9700 P   0  0  1  0  0  0  0  0  0  0  0  0
   18.0614  -22.4429   -4.7246 C   0  0  0  0  0  0  0  0  0  0  0  0
   17.3182  -22.0380   -5.8389 O   0  0  0  0  0  0  0  0  0  0  0  0
   19.4071  -22.1659   -4.9379 C   0  0  1  0  0  0  0  0  0  0  0  0
   19.6515  -20.6735   -4.8239 O   0  0  0  0  0  0  0  0  0  0  0  0
   20.3253  -22.8457   -3.8212 C   0  0  1  0  0  0  0  0  0  0  0  0
   21.2092  -23.8901   -4.4646 O   0  0  0  0  0  0  0  0  0  0  0  0
   21.0627  -21.9530   -3.3963 C   0  0  1  0  0  0  0  0  0  0  0  0
   22.3690  -22.0209   -4.0939 O   0  0  0  0  0  0  0  0  0  0  0  0
   20.3055  -20.5107   -3.7431 C   0  0  2  0  0  0  0  0  0  0  0  0
   19.1176  -20.9090    1.2384 N   0  0  0  0  0  0  0  0  0  0  0  0
   16.7974  -24.3630   -6.8358 O   0  5  0  0  0  0  0  0  0  0  0  0
   20.8341  -24.0741   -9.1373 O   0  5  0  0  0  0  0  0  0  0  0  0
   18.7327  -26.2146  -11.3551 O   0  0  0  0  0  0  0  0  0  0  0  0
   20.1092  -21.4937    0.5847 C   0  0  0  0  0  0  0  0  0  0  0  0
   21.0137  -22.3705    1.3008 N   0  0  0  0  0  0  0  0  0  0  0  0
   16.5641  -22.3455   -8.2745 O   0  0  0  0  0  0  0  0  0  0  0  0
   18.7347  -23.3228  -10.1824 O   0  0  0  0  0  0  0  0  0  0  0  0
   20.4160  -27.2393   -9.8767 O   0  5  0  0  0  0  0  0  0  0  0  0
   20.3040  -21.3048   -0.7045 N   0  0  0  0  0  0  0  0  0  0  0  0
   18.9258  -23.1799   -7.6392 O   0  0  0  0  0  0  0  0  0  0  0  0
   18.7282  -25.5452   -8.8837 O   0  0  0  0  0  0  0  0  0  0  0  0
   18.0299  -27.9113   -9.7154 O   0  0  0  0  0  0  0  0  0  0  0  0
   19.4911  -20.5029   -1.4029 C   0  0  0  0  0  0  0  0  0  0  0  0
   18.4489  -19.8811   -0.7455 C   0  0  0  0  0  0  0  0  0  0  0  0
   18.2604  -20.0972    0.6332 C   0  0  0  0  0  0  0  0  0  0  0  0
   17.2082  -19.4774    1.3302 O   0  0  0  0  0  0  0  0  0  0  0  0
   17.7853  -19.1391   -1.6484 N   0  0  0  0  0  0  0  0  0  0  0  0
   18.3900  -19.2954   -2.8132 C   0  0  0  0  0  0  0  0  0  0  0  0
   19.4171  -20.1146   -2.6857 N   0  0  0  0  0  0  0  0  0  0  0  0
  1  5  1  1  0  0  0
  1 14  1  0  0  0  0
  1 19  2  0  0  0  0
  1 23  1  0  0  0  0
  2 15  1  6  0  0  0
  2 20  2  0  0  0  0
  2 23  1  0  0  0  0
  2 24  1  0  0  0  0
  3 16  1  6  0  0  0
  3 21  1  0  0  0  0
  3 24  1  0  0  0  0
  3 25  2  0  0  0  0
  4  5  1  0  0  0  0
  6  4  1  1  0  0  0
  6  7  1  0  0  0  0
  6  8  1  0  0  0  0
  7 12  1  0  0  0  0
  8  9  1  6  0  0  0
  8 10  1  0  0  0  0
 10 11  1  6  0  0  0
 10 12  1  0  0  0  0
 12 32  1  1  0  0  0
 13 17  2  0  0  0  0
 13 28  1  0  0  0  0
 17 18  1  0  0  0  0
 17 22  1  0  0  0  0
 22 26  2  0  0  0  0
 26 27  1  0  0  0  0
 26 32  1  0  0  0  0
 27 28  2  0  0  0  0
 27 30  1  0  0  0  0
 28 29  1  0  0  0  0
 30 31  2  0  0  0  0
 31 32  1  0  0  0  0
M  CHG  3  14  -1  15  -1  21  -1
M  END
>  <CHROM.1>
61.72949002,-177.26386088,-48.01304551,73.40927106,77.12633876,142.29950185
-176.66592291,-54.51921199,19.07390913,-22.85392239,-5.37745941,1.61603756
0.58670652,-2.09912326

>  <Name>
ligand

>  <RI>
0

>  <Rbt.Current_Directory>
/home/itssahil/PROJECTS/Mol_Feturizer/New_Systems/rnas/4Y1I

>  <Rbt.Executable>
rbdock ($Id: //depot/dev/client3/rdock/2013.1/src/exe/rbdock.cxx#4 $)

>  <Rbt.Library>
libRbt.so (2013.1, Build901 2013/11/27)

>  <Rbt.Parameter_File>
/export/apps/rDock/src/rDock_2013.1_src/data/scripts/dock_solv.prm

>  <Rbt.Receptor>
prm/blind_docking_40.prm

>  <SCORE>
-14.4133

>  <SCORE.INTER>
-8.80235

>  <SCORE.INTER.CONST>
1

>  <SCORE.INTER.POLAR>
0

>  <SCORE.INTER.ROT>
8

>  <SCORE.INTER.SOLV>
28.384

>  <SCORE.INTER.VDW>
-24.2629

>  <SCORE.INTER.norm>
-0.275073

>  <SCORE.INTRA>
-5.61094

>  <SCORE.INTRA.DIHEDRAL>
-7.45286

>  <SCORE.INTRA.DIHEDRAL.0>
10.9594

>  <SCORE.INTRA.POLAR>
0

>  <SCORE.INTRA.POLAR.0>
0

>  <SCORE.INTRA.REPUL>
0

>  <SCORE.INTRA.REPUL.0>
0

>  <SCORE.INTRA.SOLV>
-3.72181

>  <SCORE.INTRA.SOLV.lig_0>
-124.914

>  <SCORE.INTRA.VDW>
-0.0236079

>  <SCORE.INTRA.VDW.0>
-4.69801

>  <SCORE.INTRA.norm>
-0.175342

>  <SCORE.RESTR>
0

>  <SCORE.RESTR.CAVITY>
0

>  <SCORE.RESTR.norm>
0

>  <SCORE.SYSTEM>
0

>  <SCORE.SYSTEM.CONST>
0

>  <SCORE.SYSTEM.DIHEDRAL>
0

>  <SCORE.SYSTEM.SOLV>
0

>  <SCORE.SYSTEM.norm>
0

>  <SCORE.heavy>
32

>  <SCORE.norm>
-0.450415

>  <RMSD>
14.932

$$$$
ligand
 OpenBabel11021811513D
libRbt.so/2013.1/901 2013/11/27
 32 34  0  0  0  0  0  0  0  0999 V2000
   17.6411  -23.2514   -6.5313 P   0  0  1  0  0  0  0  0  0  0  0  0
   17.2059  -24.1551   -9.2192 P   0  0  2  0  0  0  0  0  0  0  0  0
   19.3693  -23.8572  -11.1804 P   0  0  1  0  0  0  0  0  0  0  0  0
   18.9507  -22.1808   -4.5488 C   0  0  0  0  0  0  0  0  0  0  0  0
   18.8618  -23.2667   -5.4269 O   0  0  0  0  0  0  0  0  0  0  0  0
   19.7090  -21.1721   -5.1325 C   0  0  1  0  0  0  0  0  0  0  0  0
   19.0233  -19.8333   -4.9395 O   0  0  0  0  0  0  0  0  0  0  0  0
   21.1373  -21.0371   -4.4297 C   0  0  1  0  0  0  0  0  0  0  0  0
   22.2212  -21.3968   -5.4206 O   0  0  0  0  0  0  0  0  0  0  0  0
   21.2718  -19.8417   -4.1575 C   0  0  1  0  0  0  0  0  0  0  0  0
   22.0608  -19.1804   -5.2243 O   0  0  0  0  0  0  0  0  0  0  0  0
   19.7378  -19.1956   -4.0995 C   0  0  2  0  0  0  0  0  0  0  0  0
   20.3793  -20.8226    0.7302 N   0  0  0  0  0  0  0  0  0  0  0  0
   16.4304  -23.9514   -5.9654 O   0  5  0  0  0  0  0  0  0  0  0  0
   16.6161  -22.8062   -9.5460 O   0  5  0  0  0  0  0  0  0  0  0  0
   19.0181  -23.6247  -12.6312 O   0  0  0  0  0  0  0  0  0  0  0  0
   21.2231  -20.9214   -0.2851 C   0  0  0  0  0  0  0  0  0  0  0  0
   22.5093  -21.5570   -0.0817 N   0  0  0  0  0  0  0  0  0  0  0  0
   17.3211  -21.8157   -6.8816 O   0  0  0  0  0  0  0  0  0  0  0  0
   16.0971  -25.1404   -8.9573 O   0  0  0  0  0  0  0  0  0  0  0  0
   19.5464  -22.5208  -10.4931 O   0  5  0  0  0  0  0  0  0  0  0  0
   20.9320  -20.4583   -1.4836 N   0  0  0  0  0  0  0  0  0  0  0  0
   18.1404  -24.0567   -7.8732 O   0  0  0  0  0  0  0  0  0  0  0  0
   18.1225  -24.6834  -10.4789 O   0  0  0  0  0  0  0  0  0  0  0  0
   20.6492  -24.6608  -11.1056 O   0  0  0  0  0  0  0  0  0  0  0  0
   19.7547  -19.8646   -1.7137 C   0  0  0  0  0  0  0  0  0  0  0  0
   18.8563  -19.7490   -0.6723 C   0  0  0  0  0  0  0  0  0  0  0  0
   19.1893  -20.2507    0.6007 C   0  0  0  0  0  0  0  0  0  0  0  0
   18.2953  -20.1471    1.6808 O   0  0  0  0  0  0  0  0  0  0  0  0
   17.7641  -19.1257   -1.1465 N   0  0  0  0  0  0  0  0  0  0  0  0
   17.9771  -18.8677   -2.4251 C   0  0  0  0  0  0  0  0  0  0  0  0
   19.1686  -19.3073   -2.7850 N   0  0  0  0  0  0  0  0  0  0  0  0
  1  5  1  1  0  0  0
  1 14  1  0  0  0  0
  1 19  2  0  0  0  0
  1 23  1  0  0  0  0
  2 15  1  6  0  0  0
  2 20  2  0  0  0  0
  2 23  1  0  0  0  0
  2 24  1  0  0  0  0
  3 16  1  6  0  0  0
  3 21  1  0  0  0  0
  3 24  1  0  0  0  0
  3 25  2  0  0  0  0
  4  5  1  0  0  0  0
  6  4  1  1  0  0  0
  6  7  1  0  0  0  0
  6  8  1  0  0  0  0
  7 12  1  0  0  0  0
  8  9  1  6  0  0  0
  8 10  1  0  0  0  0
 10 11  1  6  0  0  0
 10 12  1  0  0  0  0
 12 32  1  1  0  0  0
 13 17  2  0  0  0  0
 13 28  1  0  0  0  0
 17 18  1  0  0  0  0
 17 22  1  0  0  0  0
 22 26  2  0  0  0  0
 26 27  1  0  0  0  0
 26 32  1  0  0  0  0
 27 28  2  0  0  0  0
 27 30  1  0  0  0  0
 28 29  1  0  0  0  0
 30 31  2  0  0  0  0
 31 32  1  0  0  0  0
M  CHG  3  14  -1  15  -1  21  -1
M  END
>  <CHROM.1>
-91.33272964,45.12469119,-119.13410810,134.62019558,-87.39596997,118.45158148
-176.04088183,54.53208943,19.07093412,-21.95411806,-5.65744694,1.73908174
-0.36827203,-1.90573263

>  <Name>
ligand

>  <RI>
0

>  <Rbt.Current_Directory>
/home/itssahil/PROJECTS/Mol_Feturizer/New_Systems/rnas/4Y1I

>  <Rbt.Executable>
rbdock ($Id: //depot/dev/client3/rdock/2013.1/src/exe/rbdock.cxx#4 $)

>  <Rbt.Library>
libRbt.so (2013.1, Build901 2013/11/27)

>  <Rbt.Parameter_File>
/export/apps/rDock/src/rDock_2013.1_src/data/scripts/dock_solv.prm

>  <Rbt.Receptor>
prm/blind_docking_40.prm

>  <SCORE>
-6.07651

>  <SCORE.INTER>
-7.07002

>  <SCORE.INTER.CONST>
1

>  <SCORE.INTER.POLAR>
0

>  <SCORE.INTER.ROT>
8

>  <SCORE.INTER.SOLV>
26.1643

>  <SCORE.INTER.VDW>
-22.3681

>  <SCORE.INTER.norm>
-0.220938

>  <SCORE.INTRA>
0.993512

>  <SCORE.INTRA.DIHEDRAL>
1.90353

>  <SCORE.INTRA.DIHEDRAL.0>
10.9594

>  <SCORE.INTRA.POLAR>
0

>  <SCORE.INTRA.POLAR.0>
0

>  <SCORE.INTRA.REPUL>
0

>  <SCORE.INTRA.REPUL.0>
0

>  <SCORE.INTRA.SOLV>
-1.10644

>  <SCORE.INTRA.SOLV.lig_0>
-124.914

>  <SCORE.INTRA.VDW>
0.594966

>  <SCORE.INTRA.VDW.0>
-4.69801

>  <SCORE.INTRA.norm>
0.0310472

>  <SCORE.RESTR>
0

>  <SCORE.RESTR.CAVITY>
0

>  <SCORE.RESTR.norm>
0

>  <SCORE.SYSTEM>
0

>  <SCORE.SYSTEM.CONST>
0

>  <SCORE.SYSTEM.DIHEDRAL>
0

>  <SCORE.SYSTEM.SOLV>
0

>  <SCORE.SYSTEM.norm>
0

>  <SCORE.heavy>
32

>  <SCORE.norm>
-0.189891

>  <RMSD>
14.938

$$$$
ligand
 OpenBabel11021811513D
libRbt.so/2013.1/901 2013/11/27
 32 34  0  0  0  0  0  0  0  0999 V2000
   17.7343  -23.3068   -6.6083 P   0  0  1  0  0  0  0  0  0  0  0  0
   18.8888  -23.9101   -9.1645 P   0  0  2  0  0  0  0  0  0  0  0  0
   18.6761  -26.6632  -10.1596 P   0  0  1  0  0  0  0  0  0  0  0  0
   19.2729  -21.6835   -5.2710 C   0  0  0  0  0  0  0  0  0  0  0  0
   19.2005  -22.8794   -5.9938 O   0  0  0  0  0  0  0  0  0  0  0  0
   20.5994  -21.4109   -4.9553 C   0  0  1  0  0  0  0  0  0  0  0  0
   20.7402  -19.9646   -4.5214 O   0  0  0  0  0  0  0  0  0  0  0  0
   21.0949  -22.2892   -3.7163 C   0  0  1  0  0  0  0  0  0  0  0  0
   22.1807  -23.2367   -4.1740 O   0  0  0  0  0  0  0  0  0  0  0  0
   21.6096  -21.4984   -2.9219 C   0  0  1  0  0  0  0  0  0  0  0  0
   23.0783  -21.4853   -3.1235 O   0  0  0  0  0  0  0  0  0  0  0  0
   20.9731  -19.9991   -3.2696 C   0  0  2  0  0  0  0  0  0  0  0  0
   18.4709  -20.5423    1.1834 N   0  0  0  0  0  0  0  0  0  0  0  0
   16.9234  -24.0149   -5.5513 O   0  5  0  0  0  0  0  0  0  0  0  0
   20.3442  -23.8362   -8.7764 O   0  5  0  0  0  0  0  0  0  0  0  0
   17.5010  -27.0205   -9.2799 O   0  0  0  0  0  0  0  0  0  0  0  0
   19.6951  -20.9438    0.8787 C   0  0  0  0  0  0  0  0  0  0  0  0
   20.4881  -21.6299    1.8788 N   0  0  0  0  0  0  0  0  0  0  0  0
   17.0265  -22.0597   -7.0879 O   0  0  0  0  0  0  0  0  0  0  0  0
   18.4275  -22.5615   -9.6517 O   0  0  0  0  0  0  0  0  0  0  0  0
   18.5125  -27.3392  -11.5035 O   0  5  0  0  0  0  0  0  0  0  0  0
   20.2219  -20.7395   -0.3114 N   0  0  0  0  0  0  0  0  0  0  0  0
   17.9749  -24.3332   -7.8682 O   0  0  0  0  0  0  0  0  0  0  0  0
   18.6855  -25.0232  -10.3585 O   0  0  0  0  0  0  0  0  0  0  0  0
   19.9518  -27.1255   -9.4901 O   0  0  0  0  0  0  0  0  0  0  0  0
   19.5229  -20.1098   -1.2635 C   0  0  0  0  0  0  0  0  0  0  0  0
   18.2437  -19.6813   -0.9722 C   0  0  0  0  0  0  0  0  0  0  0  0
   17.7013  -19.9099    0.3071 C   0  0  0  0  0  0  0  0  0  0  0  0
   16.4015  -19.4847    0.6335 O   0  0  0  0  0  0  0  0  0  0  0  0
   17.7551  -19.0859   -2.0736 N   0  0  0  0  0  0  0  0  0  0  0  0
   18.6906  -19.1440   -3.0053 C   0  0  0  0  0  0  0  0  0  0  0  0
   19.7607  -19.7589   -2.5371 N   0  0  0  0  0  0  0  0  0  0  0  0
  1  5  1  1  0  0  0
  1 14  1  0  0  0  0
  1 19  2  0  0  0  0
  1 23  1  0  0  0  0
  2 15  1  1  0  0  0
  2 20  2  0  0  0  0
  2 23  1  0  0  0  0
  2 24  1  0  0  0  0
  3 16  1  1  0  0  0
  3 21  1  0  0  0  0
  3 24  1  0  0  0  0
  3 25  2  0  0  0  0
  4  5  1  0  0  0  0
  6  4  1  1  0  0  0
  6  7  1  0  0  0  0
  6  8  1  0  0  0  0
  7 12  1  0  0  0  0
  8  9  1  6  0  0  0
  8 10  1  0  0  0  0
 10 11  1  6  0  0  0
 10 12  1  0  0  0  0
 12 32  1  1  0  0  0
 13 17  2  0  0  0  0
 13 28  1  0  0  0  0
 17 18  1  0  0  0  0
 17 22  1  0  0  0  0
 22 26  2  0  0  0  0
 26 27  1  0  0  0  0
 26 32  1  0  0  0  0
 27 28  2  0  0  0  0
 27 30  1  0  0  0  0
 28 29  1  0  0  0  0
 30 31  2  0  0  0  0
 31 32  1  0  0  0  0
M  CHG  3  14  -1  15  -1  21  -1
M  END
>  <CHROM.1>
-83.86218770,70.28627868,63.21997637,164.48693931,-173.61555573,158.34846487
-57.31504778,76.71515418,19.16385678,-22.62924311,-5.24906692,1.64059748
0.08716508,-2.10747251

>  <Name>
ligand

>  <RI>
0

>  <Rbt.Current_Directory>
/home/itssahil/PROJECTS/Mol_Feturizer/New_Systems/rnas/4Y1I

>  <Rbt.Executable>
rbdock ($Id: //depot/dev/client3/rdock/2013.1/src/exe/rbdock.cxx#4 $)

>  <Rbt.Library>
libRbt.so (2013.1, Build901 2013/11/27)

>  <Rbt.Parameter_File>
/export/apps/rDock/src/rDock_2013.1_src/data/scripts/dock_solv.prm

>  <Rbt.Receptor>
prm/blind_docking_40.prm

>  <SCORE>
-14.2638

>  <SCORE.INTER>
-8.38081

>  <SCORE.INTER.CONST>
1

>  <SCORE.INTER.POLAR>
0

>  <SCORE.INTER.ROT>
8

>  <SCORE.INTER.SOLV>
26.3088

>  <SCORE.INTER.VDW>
-23.2902

>  <SCORE.INTER.norm>
-0.2619

>  <SCORE.INTRA>
-5.88298

>  <SCORE.INTRA.DIHEDRAL>
-7.35425

>  <SCORE.INTRA.DIHEDRAL.0>
10.9594

>  <SCORE.INTRA.POLAR>
0

>  <SCORE.INTRA.POLAR.0>
0

>  <SCORE.INTRA.REPUL>
0

>  <SCORE.INTRA.REPUL.0>
0

>  <SCORE.INTRA.SOLV>
-4.95533

>  <SCORE.INTRA.SOLV.lig_0>
-124.914

>  <SCORE.INTRA.VDW>
0.271813

>  <SCORE.INTRA.VDW.0>
-4.69801

>  <SCORE.INTRA.norm>
-0.183843

>  <SCORE.RESTR>
0

>  <SCORE.RESTR.CAVITY>
0

>  <SCORE.RESTR.norm>
0

>  <SCORE.SYSTEM>
0

>  <SCORE.SYSTEM.CONST>
0

>  <SCORE.SYSTEM.DIHEDRAL>
0

>  <SCORE.SYSTEM.SOLV>
0

>  <SCORE.SYSTEM.norm>
0

>  <SCORE.heavy>
32

>  <SCORE.norm>
-0.445743

>  <RMSD>
15.044

$$$$
ligand
 OpenBabel11021811513D
libRbt.so/2013.1/901 2013/11/27
 32 34  0  0  0  0  0  0  0  0999 V2000
   18.4205  -21.0201   -7.7887 P   0  0  1  0  0  0  0  0  0  0  0  0
   17.0463  -22.0547  -10.0849 P   0  0  2  0  0  0  0  0  0  0  0  0
   17.2380  -24.9727  -10.3368 P   0  0  1  0  0  0  0  0  0  0  0  0
   18.3923  -21.1178   -5.1847 C   0  0  0  0  0  0  0  0  0  0  0  0
   17.8660  -20.5044   -6.3269 O   0  0  0  0  0  0  0  0  0  0  0  0
   19.7603  -20.8782   -5.1171 C   0  0  1  0  0  0  0  0  0  0  0  0
   20.0150  -19.4985   -4.5415 O   0  0  0  0  0  0  0  0  0  0  0  0
   20.4825  -21.9044   -4.1284 C   0  0  1  0  0  0  0  0  0  0  0  0
   21.4328  -22.7774   -4.9164 O   0  0  0  0  0  0  0  0  0  0  0  0
   21.1645  -21.2182   -3.3633 C   0  0  1  0  0  0  0  0  0  0  0  0
   22.5605  -21.1685   -3.8598 O   0  0  0  0  0  0  0  0  0  0  0  0
   20.4992  -19.6914   -3.3792 C   0  0  2  0  0  0  0  0  0  0  0  0
   18.8572  -20.9928    1.3107 N   0  0  0  0  0  0  0  0  0  0  0  0
   19.5253  -20.1106   -8.2665 O   0  5  0  0  0  0  0  0  0  0  0  0
   18.1484  -21.8524  -11.0943 O   0  5  0  0  0  0  0  0  0  0  0  0
   17.2002  -26.1328   -9.3698 O   0  0  0  0  0  0  0  0  0  0  0  0
   19.9703  -21.3684    0.7003 C   0  0  0  0  0  0  0  0  0  0  0  0
   20.8891  -22.2583    1.3810 N   0  0  0  0  0  0  0  0  0  0  0  0
   18.9139  -22.4422   -7.6467 O   0  0  0  0  0  0  0  0  0  0  0  0
   15.7097  -21.8595  -10.7514 O   0  0  0  0  0  0  0  0  0  0  0  0
   16.0594  -25.0753  -11.2801 O   0  5  0  0  0  0  0  0  0  0  0  0
   20.2742  -20.9580   -0.5141 N   0  0  0  0  0  0  0  0  0  0  0  0
   17.1825  -20.9624   -8.8670 O   0  0  0  0  0  0  0  0  0  0  0  0
   17.1317  -23.5750   -9.4625 O   0  0  0  0  0  0  0  0  0  0  0  0
   18.5371  -25.0186  -11.1112 O   0  0  0  0  0  0  0  0  0  0  0  0
   19.4525  -20.1357   -1.1776 C   0  0  0  0  0  0  0  0  0  0  0  0
   18.2849  -19.7291   -0.5642 C   0  0  0  0  0  0  0  0  0  0  0  0
   17.9810  -20.1799    0.7349 C   0  0  0  0  0  0  0  0  0  0  0  0
   16.7997  -19.7826    1.3856 O   0  0  0  0  0  0  0  0  0  0  0  0
   17.6385  -18.9188   -1.4196 N   0  0  0  0  0  0  0  0  0  0  0  0
   18.3736  -18.8284   -2.5143 C   0  0  0  0  0  0  0  0  0  0  0  0
   19.4677  -19.5560   -2.3882 N   0  0  0  0  0  0  0  0  0  0  0  0
  1  5  1  1  0  0  0
  1 14  1  0  0  0  0
  1 19  2  0  0  0  0
  1 23  1  0  0  0  0
  2 15  1  6  0  0  0
  2 20  2  0  0  0  0
  2 23  1  0  0  0  0
  2 24  1  0  0  0  0
  3 16  1  1  0  0  0
  3 21  1  0  0  0  0
  3 24  1  0  0  0  0
  3 25  2  0  0  0  0
  4  5  1  0  0  0  0
  6  4  1  1  0  0  0
  6  7  1  0  0  0  0
  6  8  1  0  0  0  0
  7 12  1  0  0  0  0
  8  9  1  6  0  0  0
  8 10  1  0  0  0  0
 10 11  1  6  0  0  0
 10 12  1  0  0  0  0
 12 32  1  1  0  0  0
 13 17  2  0  0  0  0
 13 28  1  0  0  0  0
 17 18  1  0  0  0  0
 17 22  1  0  0  0  0
 22 26  2  0  0  0  0
 26 27  1  0  0  0  0
 26 32  1  0  0  0  0
 27 28  2  0  0  0  0
 27 30  1  0  0  0  0
 28 29  1  0  0  0  0
 30 31  2  0  0  0  0
 31 32  1  0  0  0  0
M  CHG  3  14  -1  15  -1  21  -1
M  END
>  <CHROM.1>
-96.26398413,-68.75192680,-176.27277921,80.93372410,62.34791834,154.02212735
-146.44856415,-50.40670116,18.63200946,-21.64810542,-5.66952643,1.87610045
0.84893697,-2.10720828

>  <Name>
ligand

>  <RI>
0

>  <Rbt.Current_Directory>
/home/itssahil/PROJECTS/Mol_Feturizer/New_Systems/rnas/4Y1I

>  <Rbt.Executable>
rbdock ($Id: //depot/dev/client3/rdock/2013.1/src/exe/rbdock.cxx#4 $)

>  <Rbt.Library>
libRbt.so (2013.1, Build901 2013/11/27)

>  <Rbt.Parameter_File>
/export/apps/rDock/src/rDock_2013.1_src/data/scripts/dock_solv.prm

>  <Rbt.Receptor>
prm/blind_docking_40.prm

>  <SCORE>
-11.2593

>  <SCORE.INTER>
-9.5711

>  <SCORE.INTER.CONST>
1

>  <SCORE.INTER.POLAR>
0

>  <SCORE.INTER.ROT>
8

>  <SCORE.INTER.SOLV>
20.4815

>  <SCORE.INTER.VDW>
-22.1413

>  <SCORE.INTER.norm>
-0.299097

>  <SCORE.INTRA>
-1.68825

>  <SCORE.INTRA.DIHEDRAL>
-5.06768

>  <SCORE.INTRA.DIHEDRAL.0>
10.9594

>  <SCORE.INTRA.POLAR>
0

>  <SCORE.INTRA.POLAR.0>
0

>  <SCORE.INTRA.REPUL>
0

>  <SCORE.INTRA.REPUL.0>
0

>  <SCORE.INTRA.SOLV>
0.256185

>  <SCORE.INTRA.SOLV.lig_0>
-124.914

>  <SCORE.INTRA.VDW>
0.717504

>  <SCORE.INTRA.VDW.0>
-4.69801

>  <SCORE.INTRA.norm>
-0.0527577

>  <SCORE.RESTR>
0

>  <SCORE.RESTR.CAVITY>
0

>  <SCORE.RESTR.norm>
0

>  <SCORE.SYSTEM>
0

>  <SCORE.SYSTEM.CONST>
0

>  <SCORE.SYSTEM.DIHEDRAL>
0

>  <SCORE.SYSTEM.SOLV>
0

>  <SCORE.SYSTEM.norm>
0

>  <SCORE.heavy>
32

>  <SCORE.norm>
-0.351855

>  <RMSD>
15.060

$$$$
ligand
 OpenBabel11021811513D
libRbt.so/2013.1/901 2013/11/27
 32 34  0  0  0  0  0  0  0  0999 V2000
   17.9068  -21.8394   -7.2025 P   0  0  1  0  0  0  0  0  0  0  0  0
   16.7519  -23.6118   -9.1405 P   0  0  2  0  0  0  0  0  0  0  0  0
   18.0395  -26.1382   -9.8987 P   0  0  1  0  0  0  0  0  0  0  0  0
   19.4601  -20.6643   -5.4711 C   0  0  0  0  0  0  0  0  0  0  0  0
   19.3887  -21.5636   -6.5406 O   0  0  0  0  0  0  0  0  0  0  0  0
   20.7631  -20.6193   -4.9879 C   0  0  1  0  0  0  0  0  0  0  0  0
   20.9671  -19.3589   -4.1695 O   0  0  0  0  0  0  0  0  0  0  0  0
   21.0583  -21.8368   -3.9965 C   0  0  1  0  0  0  0  0  0  0  0  0
   22.1110  -22.7360   -4.6043 O   0  0  0  0  0  0  0  0  0  0  0  0
   21.5457  -21.3378   -2.9793 C   0  0  1  0  0  0  0  0  0  0  0  0
   23.0242  -21.4207   -3.0510 O   0  0  0  0  0  0  0  0  0  0  0  0
   21.0646  -19.7434   -2.9590 C   0  0  2  0  0  0  0  0  0  0  0  0
   18.3998  -20.3925    1.3842 N   0  0  0  0  0  0  0  0  0  0  0  0
   16.9551  -22.3297   -6.1396 O   0  5  0  0  0  0  0  0  0  0  0  0
   16.6945  -23.0826  -10.5515 O   0  5  0  0  0  0  0  0  0  0  0  0
   19.3549  -25.7943   -9.2401 O   0  0  0  0  0  0  0  0  0  0  0  0
   19.6638  -20.7057    1.1454 C   0  0  0  0  0  0  0  0  0  0  0  0
   20.4570  -21.3115    2.1959 N   0  0  0  0  0  0  0  0  0  0  0  0
   17.4069  -20.5556   -7.8257 O   0  0  0  0  0  0  0  0  0  0  0  0
   15.5109  -23.1962   -8.3950 O   0  0  0  0  0  0  0  0  0  0  0  0
   17.7636  -27.6144   -9.7135 O   0  5  0  0  0  0  0  0  0  0  0  0
   20.2302  -20.4841   -0.0232 N   0  0  0  0  0  0  0  0  0  0  0  0
   18.0573  -22.9996   -8.3558 O   0  0  0  0  0  0  0  0  0  0  0  0
   16.8534  -25.2535   -9.1639 O   0  0  0  0  0  0  0  0  0  0  0  0
   18.1217  -25.7990  -11.3710 O   0  0  0  0  0  0  0  0  0  0  0  0
   19.5325  -19.9266   -1.0202 C   0  0  0  0  0  0  0  0  0  0  0  0
   18.2123  -19.5907   -0.7979 C   0  0  0  0  0  0  0  0  0  0  0  0
   17.6280  -19.8362    0.4596 C   0  0  0  0  0  0  0  0  0  0  0  0
   16.2859  -19.5045    0.7161 O   0  0  0  0  0  0  0  0  0  0  0  0
   17.7339  -19.0542   -1.9335 N   0  0  0  0  0  0  0  0  0  0  0  0
   18.7146  -19.0585   -2.8194 C   0  0  0  0  0  0  0  0  0  0  0  0
   19.8039  -19.5821   -2.2889 N   0  0  0  0  0  0  0  0  0  0  0  0
  1  5  1  1  0  0  0
  1 14  1  0  0  0  0
  1 19  2  0  0  0  0
  1 23  1  0  0  0  0
  2 15  1  6  0  0  0
  2 20  2  0  0  0  0
  2 23  1  0  0  0  0
  2 24  1  0  0  0  0
  3 16  1  1  0  0  0
  3 21  1  0  0  0  0
  3 24  1  0  0  0  0
  3 25  2  0  0  0  0
  4  5  1  0  0  0  0
  6  4  1  1  0  0  0
  6  7  1  0  0  0  0
  6  8  1  0  0  0  0
  7 12  1  0  0  0  0
  8  9  1  6  0  0  0
  8 10  1  0  0  0  0
 10 11  1  6  0  0  0
 10 12  1  0  0  0  0
 12 32  1  6  0  0  0
 13 17  2  0  0  0  0
 13 28  1  0  0  0  0
 17 18  1  0  0  0  0
 17 22  1  0  0  0  0
 22 26  2  0  0  0  0
 26 27  1  0  0  0  0
 26 32  1  0  0  0  0
 27 28  2  0  0  0  0
 27 30  1  0  0  0  0
 28 29  1  0  0  0  0
 30 31  2  0  0  0  0
 31 32  1  0  0  0  0
M  CHG  3  14  -1  15  -1  21  -1
M  END
>  <CHROM.1>
-57.07888444,106.24111968,62.12098064,161.36491224,176.27483929,177.65521279
174.98843324,58.43550907,18.74794004,-22.09431925,-5.26989731,1.76412302
0.22555106,-2.09283507

>  <Name>
ligand

>  <RI>
0

>  <Rbt.Current_Directory>
/home/itssahil/PROJECTS/Mol_Feturizer/New_Systems/rnas/4Y1I

>  <Rbt.Executable>
rbdock ($Id: //depot/dev/client3/rdock/2013.1/src/exe/rbdock.cxx#4 $)

>  <Rbt.Library>
libRbt.so (2013.1, Build901 2013/11/27)

>  <Rbt.Parameter_File>
/export/apps/rDock/src/rDock_2013.1_src/data/scripts/dock_solv.prm

>  <Rbt.Receptor>
prm/blind_docking_40.prm

>  <SCORE>
-10.8805

>  <SCORE.INTER>
-6.40858

>  <SCORE.INTER.CONST>
1

>  <SCORE.INTER.POLAR>
0

>  <SCORE.INTER.ROT>
8

>  <SCORE.INTER.SOLV>
23.9545

>  <SCORE.INTER.VDW>
-21.1905

>  <SCORE.INTER.norm>
-0.200268

>  <SCORE.INTRA>
-4.47297

>  <SCORE.INTRA.DIHEDRAL>
-6.33863

>  <SCORE.INTRA.DIHEDRAL.0>
10.9594

>  <SCORE.INTRA.POLAR>
0

>  <SCORE.INTRA.POLAR.0>
0

>  <SCORE.INTRA.REPUL>
0

>  <SCORE.INTRA.REPUL.0>
0

>  <SCORE.INTRA.SOLV>
-3.9844

>  <SCORE.INTRA.SOLV.lig_0>
-124.914

>  <SCORE.INTRA.VDW>
0.688546

>  <SCORE.INTRA.VDW.0>
-4.69801

>  <SCORE.INTRA.norm>
-0.13978

>  <SCORE.RESTR>
0.00103627

>  <SCORE.RESTR.CAVITY>
0.00103627

>  <SCORE.RESTR.norm>
3.23833e-05

>  <SCORE.SYSTEM>
0

>  <SCORE.SYSTEM.CONST>
0

>  <SCORE.SYSTEM.DIHEDRAL>
0

>  <SCORE.SYSTEM.SOLV>
0

>  <SCORE.SYSTEM.norm>
0

>  <SCORE.heavy>
32

>  <SCORE.norm>
-0.340016

>  <RMSD>
15.171

$$$$
ligand
 OpenBabel11021811513D
libRbt.so/2013.1/901 2013/11/27
 32 34  0  0  0  0  0  0  0  0999 V2000
   17.6725  -22.3533   -7.1427 P   0  0  1  0  0  0  0  0  0  0  0  0
   17.4746  -21.3747   -9.8324 P   0  0  2  0  0  0  0  0  0  0  0  0
   18.6695  -23.0975  -11.8865 P   0  0  1  0  0  0  0  0  0  0  0  0
   18.1074  -22.0031   -4.5972 C   0  0  0  0  0  0  0  0  0  0  0  0
   17.4161  -21.5526   -5.7273 O   0  0  0  0  0  0  0  0  0  0  0  0
   19.4589  -21.7047   -4.7295 C   0  0  1  0  0  0  0  0  0  0  0  0
   19.6946  -20.2358   -4.4347 O   0  0  0  0  0  0  0  0  0  0  0  0
   20.3394  -22.5104   -3.6676 C   0  0  1  0  0  0  0  0  0  0  0  0
   21.2485  -23.4741   -4.3963 O   0  0  0  0  0  0  0  0  0  0  0  0
   21.0588  -21.6738   -3.1163 C   0  0  1  0  0  0  0  0  0  0  0  0
   22.3890  -21.6617   -3.7708 O   0  0  0  0  0  0  0  0  0  0  0  0
   20.3099  -20.2002   -3.3200 C   0  0  2  0  0  0  0  0  0  0  0  0
   19.0892  -20.9768    1.6088 N   0  0  0  0  0  0  0  0  0  0  0  0
   19.1418  -22.3305   -7.4844 O   0  5  0  0  0  0  0  0  0  0  0  0
   18.5519  -20.3200   -9.7976 O   0  5  0  0  0  0  0  0  0  0  0  0
   19.3790  -21.8559  -12.3737 O   0  0  0  0  0  0  0  0  0  0  0  0
   20.1260  -21.4540    0.9378 C   0  0  0  0  0  0  0  0  0  0  0  0
   21.0783  -22.3106    1.6153 N   0  0  0  0  0  0  0  0  0  0  0  0
   17.1736  -23.7730   -6.9947 O   0  0  0  0  0  0  0  0  0  0  0  0
   16.3706  -20.9378  -10.7592 O   0  0  0  0  0  0  0  0  0  0  0  0
   19.6521  -24.2475  -11.8497 O   0  5  0  0  0  0  0  0  0  0  0  0
   20.3237  -21.1750   -0.3345 N   0  0  0  0  0  0  0  0  0  0  0  0
   16.8390  -21.5886   -8.3340 O   0  0  0  0  0  0  0  0  0  0  0  0
   18.1045  -22.7986  -10.3631 O   0  0  0  0  0  0  0  0  0  0  0  0
   17.5260  -23.4126  -12.8259 O   0  0  0  0  0  0  0  0  0  0  0  0
   19.4676  -20.3879   -0.9972 C   0  0  0  0  0  0  0  0  0  0  0  0
   18.3779  -19.8774   -0.3212 C   0  0  0  0  0  0  0  0  0  0  0  0
   18.1872  -20.1885    1.0389 C   0  0  0  0  0  0  0  0  0  0  0  0
   17.0871  -19.6830    1.7540 O   0  0  0  0  0  0  0  0  0  0  0  0
   17.6773  -19.1278   -1.1893 N   0  0  0  0  0  0  0  0  0  0  0  0
   18.3056  -19.1729   -2.3511 C   0  0  0  0  0  0  0  0  0  0  0  0
   19.3837  -19.9285   -2.2557 N   0  0  0  0  0  0  0  0  0  0  0  0
  1  5  1  1  0  0  0
  1 14  1  0  0  0  0
  1 19  2  0  0  0  0
  1 23  1  0  0  0  0
  2 15  1  1  0  0  0
  2 20  2  0  0  0  0
  2 23  1  0  0  0  0
  2 24  1  0  0  0  0
  3 16  1  6  0  0  0
  3 21  1  0  0  0  0
  3 24  1  0  0  0  0
  3 25  2  0  0  0  0
  4  5  1  0  0  0  0
  6  4  1  1  0  0  0
  6  7  1  0  0  0  0
  6  8  1  0  0  0  0
  7 12  1  0  0  0  0
  8  9  1  6  0  0  0
  8 10  1  0  0  0  0
 10 11  1  6  0  0  0
 10 12  1  0  0  0  0
 12 32  1  1  0  0  0
 13 17  2  0  0  0  0
 13 28  1  0  0  0  0
 17 18  1  0  0  0  0
 17 22  1  0  0  0  0
 22 26  2  0  0  0  0
 26 27  1  0  0  0  0
 26 32  1  0  0  0  0
 27 28  2  0  0  0  0
 27 30  1  0  0  0  0
 28 29  1  0  0  0  0
 30 31  2  0  0  0  0
 31 32  1  0  0  0  0
M  CHG  3  14  -1  15  -1  21  -1
M  END
>  <CHROM.1>
-57.42117893,-72.78993423,37.91218888,77.49879002,70.23708232,147.39519682
139.63701924,-67.24863675,18.80246347,-21.61172438,-5.64666998,1.69825288
0.51562230,-1.79894402

>  <Name>
ligand

>  <RI>
0

>  <Rbt.Current_Directory>
/home/itssahil/PROJECTS/Mol_Feturizer/New_Systems/rnas/4Y1I

>  <Rbt.Executable>
rbdock ($Id: //depot/dev/client3/rdock/2013.1/src/exe/rbdock.cxx#4 $)

>  <Rbt.Library>
libRbt.so (2013.1, Build901 2013/11/27)

>  <Rbt.Parameter_File>
/export/apps/rDock/src/rDock_2013.1_src/data/scripts/dock_solv.prm

>  <Rbt.Receptor>
prm/blind_docking_40.prm

>  <SCORE>
-14.1717

>  <SCORE.INTER>
-10.7169

>  <SCORE.INTER.CONST>
1

>  <SCORE.INTER.POLAR>
0

>  <SCORE.INTER.ROT>
8

>  <SCORE.INTER.SOLV>
35.8283

>  <SCORE.INTER.VDW>
-28.0207

>  <SCORE.INTER.norm>
-0.334902

>  <SCORE.INTRA>
-3.4548

>  <SCORE.INTRA.DIHEDRAL>
-5.29119

>  <SCORE.INTRA.DIHEDRAL.0>
10.9594

>  <SCORE.INTRA.POLAR>
0

>  <SCORE.INTRA.POLAR.0>
0

>  <SCORE.INTRA.REPUL>
0

>  <SCORE.INTRA.REPUL.0>
0

>  <SCORE.INTRA.SOLV>
-2.75823

>  <SCORE.INTRA.SOLV.lig_0>
-124.914

>  <SCORE.INTRA.VDW>
0.569915

>  <SCORE.INTRA.VDW.0>
-4.69801

>  <SCORE.INTRA.norm>
-0.107962

>  <SCORE.RESTR>
0

>  <SCORE.RESTR.CAVITY>
0

>  <SCORE.RESTR.norm>
0

>  <SCORE.SYSTEM>
0

>  <SCORE.SYSTEM.CONST>
0

>  <SCORE.SYSTEM.DIHEDRAL>
0

>  <SCORE.SYSTEM.SOLV>
0

>  <SCORE.SYSTEM.norm>
0

>  <SCORE.heavy>
32

>  <SCORE.norm>
-0.442865

>  <RMSD>
15.298

$$$$
ligand
 OpenBabel11021811513D
libRbt.so/2013.1/901 2013/11/27
 32 34  0  0  0  0  0  0  0  0999 V2000
   17.8572  -21.6224   -7.4112 P   0  0  1  0  0  0  0  0  0  0  0  0
   19.9737  -21.4921   -9.3437 P   0  0  2  0  0  0  0  0  0  0  0  0
   18.6172  -22.2162  -11.8439 P   0  0  1  0  0  0  0  0  0  0  0  0
   18.1395  -21.8074   -4.8271 C   0  0  0  0  0  0  0  0  0  0  0  0
   17.5711  -21.0846   -5.8818 O   0  0  0  0  0  0  0  0  0  0  0  0
   19.5209  -21.6499   -4.8473 C   0  0  1  0  0  0  0  0  0  0  0  0
   19.8853  -20.2351   -4.4405 O   0  0  0  0  0  0  0  0  0  0  0  0
   20.2312  -22.6072   -3.7837 C   0  0  1  0  0  0  0  0  0  0  0  0
   21.0870  -23.6194   -4.5111 O   0  0  0  0  0  0  0  0  0  0  0  0
   20.9905  -21.8873   -3.1306 C   0  0  1  0  0  0  0  0  0  0  0  0
   22.3598  -21.9811   -3.6909 O   0  0  0  0  0  0  0  0  0  0  0  0
   20.4160  -20.3318   -3.2867 C   0  0  2  0  0  0  0  0  0  0  0  0
   18.9902  -20.9372    1.6109 N   0  0  0  0  0  0  0  0  0  0  0  0
   17.8177  -23.1303   -7.4390 O   0  5  0  0  0  0  0  0  0  0  0  0
   20.4683  -22.9166   -9.3609 O   0  5  0  0  0  0  0  0  0  0  0  0
   19.5713  -21.7040  -12.8974 O   0  0  0  0  0  0  0  0  0  0  0  0
   20.0539  -21.4364    1.0009 C   0  0  0  0  0  0  0  0  0  0  0  0
   20.9768  -22.2677    1.7471 N   0  0  0  0  0  0  0  0  0  0  0  0
   16.8133  -21.0368   -8.3351 O   0  0  0  0  0  0  0  0  0  0  0  0
   21.1202  -20.5566   -9.6254 O   0  0  0  0  0  0  0  0  0  0  0  0
   18.9529  -23.6579  -11.5302 O   0  5  0  0  0  0  0  0  0  0  0  0
   20.3048  -21.2017   -0.2709 N   0  0  0  0  0  0  0  0  0  0  0  0
   19.3536  -21.1226   -7.8694 O   0  0  0  0  0  0  0  0  0  0  0  0
   18.8091  -21.2919  -10.4881 O   0  0  0  0  0  0  0  0  0  0  0  0
   17.2013  -22.1074  -12.3662 O   0  0  0  0  0  0  0  0  0  0  0  0
   19.4774  -20.4392   -0.9959 C   0  0  0  0  0  0  0  0  0  0  0  0
   18.3605  -19.9066   -0.3843 C   0  0  0  0  0  0  0  0  0  0  0  0
   18.1130  -20.1702    0.9766 C   0  0  0  0  0  0  0  0  0  0  0  0
   16.9843  -19.6414    1.6271 O   0  0  0  0  0  0  0  0  0  0  0  0
   17.6971  -19.1885   -1.3065 N   0  0  0  0  0  0  0  0  0  0  0  0
   18.3734  -19.2735   -2.4389 C   0  0  0  0  0  0  0  0  0  0  0  0
   19.4463  -20.0242   -2.2721 N   0  0  0  0  0  0  0  0  0  0  0  0
  1  5  1  1  0  0  0
  1 14  1  0  0  0  0
  1 19  2  0  0  0  0
  1 23  1  0  0  0  0
  2 15  1  6  0  0  0
  2 20  2  0  0  0  0
  2 23  1  0  0  0  0
  2 24  1  0  0  0  0
  3 16  1  6  0  0  0
  3 21  1  0  0  0  0
  3 24  1  0  0  0  0
  3 25  2  0  0  0  0
  4  5  1  0  0  0  0
  6  4  1  1  0  0  0
  6  7  1  0  0  0  0
  6  8  1  0  0  0  0
  7 12  1  0  0  0  0
  8  9  1  6  0  0  0
  8 10  1  0  0  0  0
 10 11  1  6  0  0  0
 10 12  1  0  0  0  0
 12 32  1  1  0  0  0
 13 17  2  0  0  0  0
 13 28  1  0  0  0  0
 17 18  1  0  0  0  0
 17 22  1  0  0  0  0
 22 26  2  0  0  0  0
 26 27  1  0  0  0  0
 26 32  1  0  0  0  0
 27 28  2  0  0  0  0
 27 30  1  0  0  0  0
 28 29  1  0  0  0  0
 30 31  2  0  0  0  0
 31 32  1  0  0  0  0
M  CHG  3  14  -1  15  -1  21  -1
M  END
>  <CHROM.1>
39.08998801,-77.84684771,-82.42626256,70.49430697,68.74839929,155.85890412
179.57320972,-23.76728482,19.18763897,-21.41405227,-5.62718931,1.60784897
0.41435844,-1.70775938

>  <Name>
ligand

>  <RI>
0

>  <Rbt.Current_Directory>
/home/itssahil/PROJECTS/Mol_Feturizer/New_Systems/rnas/4Y1I

>  <Rbt.Executable>
rbdock ($Id: //depot/dev/client3/rdock/2013.1/src/exe/rbdock.cxx#4 $)

>  <Rbt.Library>
libRbt.so (2013.1, Build901 2013/11/27)

>  <Rbt.Parameter_File>
/export/apps/rDock/src/rDock_2013.1_src/data/scripts/dock_solv.prm

>  <Rbt.Receptor>
prm/blind_docking_40.prm

>  <SCORE>
-18.3604

>  <SCORE.INTER>
-14.6532

>  <SCORE.INTER.CONST>
1

>  <SCORE.INTER.POLAR>
0

>  <SCORE.INTER.ROT>
8

>  <SCORE.INTER.SOLV>
33.9027

>  <SCORE.INTER.VDW>
-30.003

>  <SCORE.INTER.norm>
-0.457912

>  <SCORE.INTRA>
-3.7218

>  <SCORE.INTRA.DIHEDRAL>
-5.5968

>  <SCORE.INTRA.DIHEDRAL.0>
10.9594

>  <SCORE.INTRA.POLAR>
0

>  <SCORE.INTRA.POLAR.0>
0

>  <SCORE.INTRA.REPUL>
0

>  <SCORE.INTRA.REPUL.0>
0

>  <SCORE.INTRA.SOLV>
-1.99202

>  <SCORE.INTRA.SOLV.lig_0>
-124.914

>  <SCORE.INTRA.VDW>
0.0726142

>  <SCORE.INTRA.VDW.0>
-4.69801

>  <SCORE.INTRA.norm>
-0.116306

>  <SCORE.RESTR>
0.0145792

>  <SCORE.RESTR.CAVITY>
0.0145792

>  <SCORE.RESTR.norm>
0.000455599

>  <SCORE.SYSTEM>
0

>  <SCORE.SYSTEM.CONST>
0

>  <SCORE.SYSTEM.DIHEDRAL>
0

>  <SCORE.SYSTEM.SOLV>
0

>  <SCORE.SYSTEM.norm>
0

>  <SCORE.heavy>
32

>  <SCORE.norm>
-0.573762

>  <RMSD>
15.436

$$$$
ligand
 OpenBabel11021811513D
libRbt.so/2013.1/901 2013/11/27
 32 34  0  0  0  0  0  0  0  0999 V2000
   28.6580  -29.7193   10.7608 P   0  0  1  0  0  0  0  0  0  0  0  0
   28.9629  -27.1857    9.4497 P   0  0  2  0  0  0  0  0  0  0  0  0
   29.7231  -25.3178    7.3171 P   0  0  1  0  0  0  0  0  0  0  0  0
   26.1895  -29.4435   11.5493 C   0  0  0  0  0  0  0  0  0  0  0  0
   27.5334  -29.1779   11.8343 O   0  0  0  0  0  0  0  0  0  0  0  0
   25.4136  -28.3452   11.9030 C   0  0  1  0  0  0  0  0  0  0  0  0
   24.8391  -27.6966   10.6583 O   0  0  0  0  0  0  0  0  0  0  0  0
   24.1574  -28.7811   12.7883 C   0  0  1  0  0  0  0  0  0  0  0  0
   24.2890  -28.1895   14.1735 O   0  0  0  0  0  0  0  0  0  0  0  0
   23.1712  -28.2615   12.2603 C   0  0  1  0  0  0  0  0  0  0  0  0
   22.8514  -26.9930   12.9578 O   0  0  0  0  0  0  0  0  0  0  0  0
   23.5913  -27.9520   10.6786 C   0  0  2  0  0  0  0  0  0  0  0  0
   22.7113  -33.0046   10.3933 N   0  0  0  0  0  0  0  0  0  0  0  0
   30.0368  -29.6032   11.3621 O   0  5  0  0  0  0  0  0  0  0  0  0
   30.3691  -26.9913    9.9589 O   0  5  0  0  0  0  0  0  0  0  0  0
   29.7507  -24.2080    8.3418 O   0  0  0  0  0  0  0  0  0  0  0  0
   22.9618  -32.2775   11.4709 C   0  0  0  0  0  0  0  0  0  0  0  0
   23.0088  -32.9214   12.7682 N   0  0  0  0  0  0  0  0  0  0  0  0
   28.3409  -31.1550   10.4081 O   0  0  0  0  0  0  0  0  0  0  0  0
   27.9930  -26.4900   10.3684 O   0  0  0  0  0  0  0  0  0  0  0  0
   31.1377  -25.7883    7.0580 O   0  5  0  0  0  0  0  0  0  0  0  0
   23.1714  -30.9786   11.4046 N   0  0  0  0  0  0  0  0  0  0  0  0
   28.5868  -28.7832    9.4127 O   0  0  0  0  0  0  0  0  0  0  0  0
   28.8268  -26.5609    7.9341 O   0  0  0  0  0  0  0  0  0  0  0  0
   29.1006  -24.7950    6.0409 O   0  0  0  0  0  0  0  0  0  0  0  0
   23.1369  -30.3454   10.2258 C   0  0  0  0  0  0  0  0  0  0  0  0
   22.8783  -31.0802    9.0864 C   0  0  0  0  0  0  0  0  0  0  0  0
   22.6565  -32.4675    9.1815 C   0  0  0  0  0  0  0  0  0  0  0  0
   22.3901  -33.2423    8.0388 O   0  0  0  0  0  0  0  0  0  0  0  0
   22.8960  -30.2317    8.0443 N   0  0  0  0  0  0  0  0  0  0  0  0
   23.1547  -29.0253    8.5180 C   0  0  0  0  0  0  0  0  0  0  0  0
   23.3054  -29.0743    9.8284 N   0  0  0  0  0  0  0  0  0  0  0  0
  1  5  1  1  0  0  0
  1 14  1  0  0  0  0
  1 19  2  0  0  0  0
  1 23  1  0  0  0  0
  2 15  1  1  0  0  0
  2 20  2  0  0  0  0
  2 23  1  0  0  0  0
  2 24  1  0  0  0  0
  3 16  1  1  0  0  0
  3 21  1  0  0  0  0
  3 24  1  0  0  0  0
  3 25  2  0  0  0  0
  4  5  1  0  0  0  0
  6  4  1  6  0  0  0
  6  7  1  0  0  0  0
  6  8  1  0  0  0  0
  7 12  1  0  0  0  0
  8  9  1  1  0  0  0
  8 10  1  0  0  0  0
 10 11  1  1  0  0  0
 10 12  1  0  0  0  0
 12 32  1  6  0  0  0
 13 17  2  0  0  0  0
 13 28  1  0  0  0  0
 17 18  1  0  0  0  0
 17 22  1  0  0  0  0
 22 26  2  0  0  0  0
 26 27  1  0  0  0  0
 26 32  1  0  0  0  0
 27 28  2  0  0  0  0
 27 30  1  0  0  0  0
 28 29  1  0  0  0  0
 30 31  2  0  0  0  0
 31 32  1  0  0  0  0
M  CHG  3  14  -1  15  -1  21  -1
M  END
>  <CHROM.1>
-168.21098308,57.68079814,-46.75615284,112.28627399,-141.30137371,98.77538663
64.62213930,-27.73954771,26.29912489,-28.69186514,10.07247259,-0.28329631
0.62837703,1.54878619

>  <Name>
ligand

>  <RI>
0

>  <Rbt.Current_Directory>
/home/itssahil/PROJECTS/Mol_Feturizer/New_Systems/rnas/4Y1I

>  <Rbt.Executable>
rbdock ($Id: //depot/dev/client3/rdock/2013.1/src/exe/rbdock.cxx#4 $)

>  <Rbt.Library>
libRbt.so (2013.1, Build901 2013/11/27)

>  <Rbt.Parameter_File>
/export/apps/rDock/src/rDock_2013.1_src/data/scripts/dock_solv.prm

>  <Rbt.Receptor>
prm/blind_docking_60.prm

>  <SCORE>
-9.58808

>  <SCORE.INTER>
-9.25025

>  <SCORE.INTER.CONST>
1

>  <SCORE.INTER.POLAR>
0

>  <SCORE.INTER.ROT>
8

>  <SCORE.INTER.SOLV>
34.0903

>  <SCORE.INTER.VDW>
-26.4636

>  <SCORE.INTER.norm>
-0.28907

>  <SCORE.INTRA>
-0.337829

>  <SCORE.INTRA.DIHEDRAL>
2.38633

>  <SCORE.INTRA.DIHEDRAL.0>
10.9594

>  <SCORE.INTRA.POLAR>
0

>  <SCORE.INTRA.POLAR.0>
0

>  <SCORE.INTRA.REPUL>
0

>  <SCORE.INTRA.REPUL.0>
0

>  <SCORE.INTRA.SOLV>
-2.69696

>  <SCORE.INTRA.SOLV.lig_0>
-124.914

>  <SCORE.INTRA.VDW>
-0.182516

>  <SCORE.INTRA.VDW.0>
-4.69801

>  <SCORE.INTRA.norm>
-0.0105572

>  <SCORE.RESTR>
0

>  <SCORE.RESTR.CAVITY>
0

>  <SCORE.RESTR.norm>
0

>  <SCORE.SYSTEM>
0

>  <SCORE.SYSTEM.CONST>
0

>  <SCORE.SYSTEM.DIHEDRAL>
0

>  <SCORE.SYSTEM.SOLV>
0

>  <SCORE.SYSTEM.norm>
0

>  <SCORE.heavy>
32

>  <SCORE.norm>
-0.299627

>  <RMSD>
30.725

$$$$
ligand
 OpenBabel11021811513D
libRbt.so/2013.1/901 2013/11/27
 32 34  0  0  0  0  0  0  0  0999 V2000
   26.4697  -31.0851   11.1187 P   0  0  1  0  0  0  0  0  0  0  0  0
   24.6352  -33.2900   11.1777 P   0  0  2  0  0  0  0  0  0  0  0  0
   23.0640  -33.7519    8.7418 P   0  0  1  0  0  0  0  0  0  0  0  0
   26.0462  -28.5188   10.9563 C   0  0  0  0  0  0  0  0  0  0  0  0
   26.6121  -29.6410   10.3411 O   0  0  0  0  0  0  0  0  0  0  0  0
   26.2293  -27.4033   10.1466 C   0  0  1  0  0  0  0  0  0  0  0  0
   25.7919  -26.1525   10.8843 O   0  0  0  0  0  0  0  0  0  0  0  0
   27.7725  -27.1864    9.7951 C   0  0  1  0  0  0  0  0  0  0  0  0
   27.9801  -27.3693    8.3086 O   0  0  0  0  0  0  0  0  0  0  0  0
   28.0194  -26.0067   10.0571 C   0  0  1  0  0  0  0  0  0  0  0  0
   27.9258  -25.1981    8.8180 O   0  0  0  0  0  0  0  0  0  0  0  0
   26.8618  -25.5136   11.1483 C   0  0  2  0  0  0  0  0  0  0  0  0
   25.6385  -27.6334   15.6644 N   0  0  0  0  0  0  0  0  0  0  0  0
   27.6429  -31.9691   10.7748 O   0  5  0  0  0  0  0  0  0  0  0  0
   23.5268  -33.1441   12.1899 O   0  5  0  0  0  0  0  0  0  0  0  0
   21.7003  -33.5992    9.3736 O   0  0  0  0  0  0  0  0  0  0  0  0
   24.9184  -27.6015   14.5540 C   0  0  0  0  0  0  0  0  0  0  0  0
   23.6096  -28.2232   14.5369 N   0  0  0  0  0  0  0  0  0  0  0  0
   26.4027  -30.8302   12.6076 O   0  0  0  0  0  0  0  0  0  0  0  0
   25.8295  -33.9383   11.8274 O   0  0  0  0  0  0  0  0  0  0  0  0
   23.4954  -32.4207    8.1662 O   0  5  0  0  0  0  0  0  0  0  0  0
   25.3536  -27.0197   13.4550 N   0  0  0  0  0  0  0  0  0  0  0  0
   25.0883  -31.8166   10.6135 O   0  0  0  0  0  0  0  0  0  0  0  0
   24.1237  -34.2190    9.9201 O   0  0  0  0  0  0  0  0  0  0  0  0
   22.9875  -34.7970    7.6503 O   0  0  0  0  0  0  0  0  0  0  0  0
   26.5567  -26.4337   13.4288 C   0  0  0  0  0  0  0  0  0  0  0  0
   27.3278  -26.4522   14.5734 C   0  0  0  0  0  0  0  0  0  0  0  0
   26.8423  -27.0808   15.7363 C   0  0  0  0  0  0  0  0  0  0  0  0
   27.6049  -27.1163   16.9171 O   0  0  0  0  0  0  0  0  0  0  0  0
   28.4755  -25.8089   14.2994 N   0  0  0  0  0  0  0  0  0  0  0  0
   28.4169  -25.4095   13.0409 C   0  0  0  0  0  0  0  0  0  0  0  0
   27.2687  -25.7741   12.5015 N   0  0  0  0  0  0  0  0  0  0  0  0
  1  5  1  6  0  0  0
  1 14  1  0  0  0  0
  1 19  2  0  0  0  0
  1 23  1  0  0  0  0
  2 15  1  1  0  0  0
  2 20  2  0  0  0  0
  2 23  1  0  0  0  0
  2 24  1  0  0  0  0
  3 16  1  1  0  0  0
  3 21  1  0  0  0  0
  3 24  1  0  0  0  0
  3 25  2  0  0  0  0
  4  5  1  0  0  0  0
  6  4  1  1  0  0  0
  6  7  1  0  0  0  0
  6  8  1  0  0  0  0
  7 12  1  0  0  0  0
  8  9  1  6  0  0  0
  8 10  1  0  0  0  0
 10 11  1  6  0  0  0
 10 12  1  0  0  0  0
 12 32  1  1  0  0  0
 13 17  2  0  0  0  0
 13 28  1  0  0  0  0
 17 18  1  0  0  0  0
 17 22  1  0  0  0  0
 22 26  2  0  0  0  0
 26 27  1  0  0  0  0
 26 32  1  0  0  0  0
 27 28  2  0  0  0  0
 27 30  1  0  0  0  0
 28 29  1  0  0  0  0
 30 31  2  0  0  0  0
 31 32  1  0  0  0  0
M  CHG  3  14  -1  15  -1  21  -1
M  END
>  <CHROM.1>
-150.73791090,103.49192684,-68.94247949,-172.26559579,-178.38592515,-8.62791317
179.46096374,73.35472973,25.77116026,-29.65575992,11.43743271,2.59181588
-1.10255498,-1.73226050

>  <Name>
ligand

>  <RI>
0

>  <Rbt.Current_Directory>
/home/itssahil/PROJECTS/Mol_Feturizer/New_Systems/rnas/4Y1I

>  <Rbt.Executable>
rbdock ($Id: //depot/dev/client3/rdock/2013.1/src/exe/rbdock.cxx#4 $)

>  <Rbt.Library>
libRbt.so (2013.1, Build901 2013/11/27)

>  <Rbt.Parameter_File>
/export/apps/rDock/src/rDock_2013.1_src/data/scripts/dock_solv.prm

>  <Rbt.Receptor>
prm/blind_docking_60.prm

>  <SCORE>
-6.89594

>  <SCORE.INTER>
-2.94013

>  <SCORE.INTER.CONST>
1

>  <SCORE.INTER.POLAR>
0

>  <SCORE.INTER.ROT>
8

>  <SCORE.INTER.SOLV>
24.5363

>  <SCORE.INTER.VDW>
-19.0722

>  <SCORE.INTER.norm>
-0.0918791

>  <SCORE.INTRA>
-3.95581

>  <SCORE.INTRA.DIHEDRAL>
-5.88807

>  <SCORE.INTRA.DIHEDRAL.0>
10.9594

>  <SCORE.INTRA.POLAR>
0

>  <SCORE.INTRA.POLAR.0>
0

>  <SCORE.INTRA.REPUL>
0

>  <SCORE.INTRA.REPUL.0>
0

>  <SCORE.INTRA.SOLV>
-3.23285

>  <SCORE.INTRA.SOLV.lig_0>
-124.914

>  <SCORE.INTRA.VDW>
0.60465

>  <SCORE.INTRA.VDW.0>
-4.69801

>  <SCORE.INTRA.norm>
-0.123619

>  <SCORE.RESTR>
0

>  <SCORE.RESTR.CAVITY>
0

>  <SCORE.RESTR.norm>
0

>  <SCORE.SYSTEM>
0

>  <SCORE.SYSTEM.CONST>
0

>  <SCORE.SYSTEM.DIHEDRAL>
0

>  <SCORE.SYSTEM.SOLV>
0

>  <SCORE.SYSTEM.norm>
0

>  <SCORE.heavy>
32

>  <SCORE.norm>
-0.215498

>  <RMSD>
31.517

$$$$
ligand
 OpenBabel11021811513D
libRbt.so/2013.1/901 2013/11/27
 32 34  0  0  0  0  0  0  0  0999 V2000
   23.1803  -29.3510   10.0563 P   0  0  1  0  0  0  0  0  0  0  0  0
   24.7206  -31.7326    9.6245 P   0  0  2  0  0  0  0  0  0  0  0  0
   22.7545  -33.7802    8.8779 P   0  0  1  0  0  0  0  0  0  0  0  0
   23.7755  -27.3101   11.5636 C   0  0  0  0  0  0  0  0  0  0  0  0
   23.5540  -27.7604   10.2574 O   0  0  0  0  0  0  0  0  0  0  0  0
   24.3025  -26.0239   11.5286 C   0  0  1  0  0  0  0  0  0  0  0  0
   24.0951  -25.3443   12.8684 O   0  0  0  0  0  0  0  0  0  0  0  0
   25.8821  -26.0486   11.2909 C   0  0  1  0  0  0  0  0  0  0  0  0
   26.2001  -25.4084    9.9585 O   0  0  0  0  0  0  0  0  0  0  0  0
   26.3702  -25.3314   12.1677 C   0  0  1  0  0  0  0  0  0  0  0  0
   26.6041  -23.9743   11.6187 O   0  0  0  0  0  0  0  0  0  0  0  0
   25.2504  -25.2632   13.3987 C   0  0  2  0  0  0  0  0  0  0  0  0
   23.1076  -29.2246   15.8686 N   0  0  0  0  0  0  0  0  0  0  0  0
   22.1490  -29.7670   11.0759 O   0  5  0  0  0  0  0  0  0  0  0  0
   25.8987  -32.4415   10.2439 O   0  5  0  0  0  0  0  0  0  0  0  0
   23.8741  -34.2328    7.9701 O   0  0  0  0  0  0  0  0  0  0  0  0
   22.5433  -28.4005   14.9997 C   0  0  0  0  0  0  0  0  0  0  0  0
   21.1476  -28.5787   14.6536 N   0  0  0  0  0  0  0  0  0  0  0  0
   22.6631  -29.5543    8.6500 O   0  0  0  0  0  0  0  0  0  0  0  0
   24.9494  -31.5724    8.1444 O   0  0  0  0  0  0  0  0  0  0  0  0
   22.2786  -34.9566    9.7020 O   0  5  0  0  0  0  0  0  0  0  0  0
   23.2118  -27.4163   14.4339 N   0  0  0  0  0  0  0  0  0  0  0  0
   24.5420  -30.2408   10.2857 O   0  0  0  0  0  0  0  0  0  0  0  0
   23.3490  -32.6053    9.8757 O   0  0  0  0  0  0  0  0  0  0  0  0
   21.6229  -33.2380    8.0324 O   0  0  0  0  0  0  0  0  0  0  0  0
   24.5027  -27.2172   14.7263 C   0  0  0  0  0  0  0  0  0  0  0  0
   25.1153  -28.0620   15.6297 C   0  0  0  0  0  0  0  0  0  0  0  0
   24.3811  -29.1079   16.2215 C   0  0  0  0  0  0  0  0  0  0  0  0
   24.9778  -29.9847   17.1446 O   0  0  0  0  0  0  0  0  0  0  0  0
   26.3928  -27.6638   15.7551 N   0  0  0  0  0  0  0  0  0  0  0  0
   26.5629  -26.6184   14.9645 C   0  0  0  0  0  0  0  0  0  0  0  0
   25.4359  -26.3333   14.3393 N   0  0  0  0  0  0  0  0  0  0  0  0
  1  5  1  1  0  0  0
  1 14  1  0  0  0  0
  1 19  2  0  0  0  0
  1 23  1  0  0  0  0
  2 15  1  1  0  0  0
  2 20  2  0  0  0  0
  2 23  1  0  0  0  0
  2 24  1  0  0  0  0
  3 16  1  6  0  0  0
  3 21  1  0  0  0  0
  3 24  1  0  0  0  0
  3 25  2  0  0  0  0
  4  5  1  0  0  0  0
  6  4  1  1  0  0  0
  6  7  1  0  0  0  0
  6  8  1  0  0  0  0
  7 12  1  0  0  0  0
  8  9  1  6  0  0  0
  8 10  1  0  0  0  0
 10 11  1  6  0  0  0
 10 12  1  0  0  0  0
 12 32  1  1  0  0  0
 13 17  2  0  0  0  0
 13 28  1  0  0  0  0
 17 18  1  0  0  0  0
 17 22  1  0  0  0  0
 22 26  2  0  0  0  0
 26 27  1  0  0  0  0
 26 32  1  0  0  0  0
 27 28  2  0  0  0  0
 27 30  1  0  0  0  0
 28 29  1  0  0  0  0
 30 31  2  0  0  0  0
 31 32  1  0  0  0  0
M  CHG  3  14  -1  15  -1  21  -1
M  END
>  <CHROM.1>
45.01402696,-166.97941262,18.42057123,160.13323920,169.61306030,-6.51233334
-155.77362766,-89.73020732,24.13709031,-29.27164374,11.65534771,-2.25351511
1.22558477,1.32396898

>  <Name>
ligand

>  <RI>
0

>  <Rbt.Current_Directory>
/home/itssahil/PROJECTS/Mol_Feturizer/New_Systems/rnas/4Y1I

>  <Rbt.Executable>
rbdock ($Id: //depot/dev/client3/rdock/2013.1/src/exe/rbdock.cxx#4 $)

>  <Rbt.Library>
libRbt.so (2013.1, Build901 2013/11/27)

>  <Rbt.Parameter_File>
/export/apps/rDock/src/rDock_2013.1_src/data/scripts/dock_solv.prm

>  <Rbt.Receptor>
prm/blind_docking_60.prm

>  <SCORE>
-10.3752

>  <SCORE.INTER>
-7.26909

>  <SCORE.INTER.CONST>
1

>  <SCORE.INTER.POLAR>
0

>  <SCORE.INTER.ROT>
8

>  <SCORE.INTER.SOLV>
23.4388

>  <SCORE.INTER.VDW>
-21.5923

>  <SCORE.INTER.norm>
-0.227159

>  <SCORE.INTRA>
-3.10607

>  <SCORE.INTRA.DIHEDRAL>
-3.42516

>  <SCORE.INTRA.DIHEDRAL.0>
10.9594

>  <SCORE.INTRA.POLAR>
0

>  <SCORE.INTRA.POLAR.0>
0

>  <SCORE.INTRA.REPUL>
0

>  <SCORE.INTRA.REPUL.0>
0

>  <SCORE.INTRA.SOLV>
-2.84689

>  <SCORE.INTRA.SOLV.lig_0>
-124.914

>  <SCORE.INTRA.VDW>
0.0299522

>  <SCORE.INTRA.VDW.0>
-4.69801

>  <SCORE.INTRA.norm>
-0.0970647

>  <SCORE.RESTR>
0

>  <SCORE.RESTR.CAVITY>
0

>  <SCORE.RESTR.norm>
0

>  <SCORE.SYSTEM>
0

>  <SCORE.SYSTEM.CONST>
0

>  <SCORE.SYSTEM.DIHEDRAL>
0

>  <SCORE.SYSTEM.SOLV>
0

>  <SCORE.SYSTEM.norm>
0

>  <SCORE.heavy>
32

>  <SCORE.norm>
-0.324224

>  <RMSD>
31.555

$$$$
ligand
 OpenBabel11021811513D
libRbt.so/2013.1/901 2013/11/27
 32 34  0  0  0  0  0  0  0  0999 V2000
   27.5870  -27.0188    9.3468 P   0  0  1  0  0  0  0  0  0  0  0  0
   26.0292  -29.4227    9.5068 P   0  0  2  0  0  0  0  0  0  0  0  0
   23.4057  -29.3735   10.8222 P   0  0  1  0  0  0  0  0  0  0  0  0
   26.2589  -24.9563   10.2262 C   0  0  0  0  0  0  0  0  0  0  0  0
   27.2623  -25.4049    9.3603 O   0  0  0  0  0  0  0  0  0  0  0  0
   26.8169  -24.1311   11.1962 C   0  0  1  0  0  0  0  0  0  0  0  0
   25.7254  -23.3413   11.8924 O   0  0  0  0  0  0  0  0  0  0  0  0
   27.5376  -24.9825   12.3399 C   0  0  1  0  0  0  0  0  0  0  0  0
   29.0230  -24.7011   12.3156 O   0  0  0  0  0  0  0  0  0  0  0  0
   27.1009  -24.5535   13.4107 C   0  0  1  0  0  0  0  0  0  0  0  0
   28.0485  -23.5564   13.9638 O   0  0  0  0  0  0  0  0  0  0  0  0
   25.6429  -23.8252   13.0677 C   0  0  2  0  0  0  0  0  0  0  0  0
   24.0038  -28.3709   14.8100 N   0  0  0  0  0  0  0  0  0  0  0  0
   28.5226  -27.3428    8.2084 O   0  5  0  0  0  0  0  0  0  0  0  0
   26.7068  -29.7088   10.8233 O   0  5  0  0  0  0  0  0  0  0  0  0
   23.3578  -27.8644   10.8745 O   0  0  0  0  0  0  0  0  0  0  0  0
   25.1935  -27.8133   14.9724 C   0  0  0  0  0  0  0  0  0  0  0  0
   26.2117  -28.5168   15.7260 N   0  0  0  0  0  0  0  0  0  0  0  0
   28.1987  -27.4022   10.6753 O   0  0  0  0  0  0  0  0  0  0  0  0
   26.6776  -30.2371    8.4182 O   0  0  0  0  0  0  0  0  0  0  0  0
   22.0182  -29.9035   10.5332 O   0  5  0  0  0  0  0  0  0  0  0  0
   25.4864  -26.6317   14.4688 N   0  0  0  0  0  0  0  0  0  0  0  0
   26.1780  -27.8334    9.1236 O   0  0  0  0  0  0  0  0  0  0  0  0
   24.4335  -29.8102    9.6047 O   0  0  0  0  0  0  0  0  0  0  0  0
   23.9026  -29.8974   12.1518 O   0  0  0  0  0  0  0  0  0  0  0  0
   24.5744  -25.9490   13.7661 C   0  0  0  0  0  0  0  0  0  0  0  0
   23.3259  -26.5080   13.5815 C   0  0  0  0  0  0  0  0  0  0  0  0
   23.0350  -27.7720   14.1297 C   0  0  0  0  0  0  0  0  0  0  0  0
   21.7724  -28.3666   13.9589 O   0  0  0  0  0  0  0  0  0  0  0  0
   22.5982  -25.6431   12.8543 N   0  0  0  0  0  0  0  0  0  0  0  0
   23.3628  -24.5956   12.5998 C   0  0  0  0  0  0  0  0  0  0  0  0
   24.5564  -24.7627   13.1382 N   0  0  0  0  0  0  0  0  0  0  0  0
  1  5  1  6  0  0  0
  1 14  1  0  0  0  0
  1 19  2  0  0  0  0
  1 23  1  0  0  0  0
  2 15  1  1  0  0  0
  2 20  2  0  0  0  0
  2 23  1  0  0  0  0
  2 24  1  0  0  0  0
  3 16  1  1  0  0  0
  3 21  1  0  0  0  0
  3 24  1  0  0  0  0
  3 25  2  0  0  0  0
  4  5  1  0  0  0  0
  6  4  1  6  0  0  0
  6  7  1  0  0  0  0
  6  8  1  0  0  0  0
  7 12  1  0  0  0  0
  8  9  1  1  0  0  0
  8 10  1  0  0  0  0
 10 11  1  6  0  0  0
 10 12  1  0  0  0  0
 12 32  1  6  0  0  0
 13 17  2  0  0  0  0
 13 28  1  0  0  0  0
 17 18  1  0  0  0  0
 17 22  1  0  0  0  0
 22 26  2  0  0  0  0
 26 27  1  0  0  0  0
 26 32  1  0  0  0  0
 27 28  2  0  0  0  0
 27 30  1  0  0  0  0
 28 29  1  0  0  0  0
 30 31  2  0  0  0  0
 31 32  1  0  0  0  0
M  CHG  3  14  -1  15  -1  21  -1
M  END
>  <CHROM.1>
170.82254661,42.04509239,60.17973755,164.36702477,115.06528527,138.08699511
-160.91603792,47.83781798,25.51791637,-27.11336715,11.63099125,-2.00748821
0.66909651,0.76782003

>  <Name>
ligand

>  <RI>
0

>  <Rbt.Current_Directory>
/home/itssahil/PROJECTS/Mol_Feturizer/New_Systems/rnas/4Y1I

>  <Rbt.Executable>
rbdock ($Id: //depot/dev/client3/rdock/2013.1/src/exe/rbdock.cxx#4 $)

>  <Rbt.Library>
libRbt.so (2013.1, Build901 2013/11/27)

>  <Rbt.Parameter_File>
/export/apps/rDock/src/rDock_2013.1_src/data/scripts/dock_solv.prm

>  <Rbt.Receptor>
prm/blind_docking_60.prm

>  <SCORE>
-10.9597

>  <SCORE.INTER>
-9.00615

>  <SCORE.INTER.CONST>
1

>  <SCORE.INTER.POLAR>
0

>  <SCORE.INTER.ROT>
8

>  <SCORE.INTER.SOLV>
17.1265

>  <SCORE.INTER.VDW>
-20.6463

>  <SCORE.INTER.norm>
-0.281442

>  <SCORE.INTRA>
-2.12818

>  <SCORE.INTRA.DIHEDRAL>
-0.478508

>  <SCORE.INTRA.DIHEDRAL.0>
10.9594

>  <SCORE.INTRA.POLAR>
0

>  <SCORE.INTRA.POLAR.0>
0

>  <SCORE.INTRA.REPUL>
0

>  <SCORE.INTRA.REPUL.0>
0

>  <SCORE.INTRA.SOLV>
0.90952

>  <SCORE.INTRA.SOLV.lig_0>
-124.914

>  <SCORE.INTRA.VDW>
-2.34369

>  <SCORE.INTRA.VDW.0>
-4.69801

>  <SCORE.INTRA.norm>
-0.0665058

>  <SCORE.RESTR>
0.174619

>  <SCORE.RESTR.CAVITY>
0.174619

>  <SCORE.RESTR.norm>
0.00545686

>  <SCORE.SYSTEM>
0

>  <SCORE.SYSTEM.CONST>
0

>  <SCORE.SYSTEM.DIHEDRAL>
0

>  <SCORE.SYSTEM.SOLV>
0

>  <SCORE.SYSTEM.norm>
0

>  <SCORE.heavy>
32

>  <SCORE.norm>
-0.342491

>  <RMSD>
31.567

$$$$
ligand
 OpenBabel11021811513D
libRbt.so/2013.1/901 2013/11/27
 32 34  0  0  0  0  0  0  0  0999 V2000
   25.6409  -30.9189   10.1877 P   0  0  1  0  0  0  0  0  0  0  0  0
   23.8919  -33.1174    9.6053 P   0  0  2  0  0  0  0  0  0  0  0  0
   24.0896  -35.5311    7.9471 P   0  0  1  0  0  0  0  0  0  0  0  0
   24.3798  -28.7256   10.8125 C   0  0  0  0  0  0  0  0  0  0  0  0
   25.5151  -29.2776   10.2089 O   0  0  0  0  0  0  0  0  0  0  0  0
   24.5136  -27.3432   10.8771 C   0  0  1  0  0  0  0  0  0  0  0  0
   23.2530  -26.7288   11.4546 O   0  0  0  0  0  0  0  0  0  0  0  0
   25.6975  -26.9186   11.8620 C   0  0  1  0  0  0  0  0  0  0  0  0
   26.7903  -26.2368   11.0700 O   0  0  0  0  0  0  0  0  0  0  0  0
   25.2198  -26.0769   12.6267 C   0  0  1  0  0  0  0  0  0  0  0  0
   25.5427  -24.7191   12.1268 O   0  0  0  0  0  0  0  0  0  0  0  0
   23.5709  -26.3113   12.6153 C   0  0  2  0  0  0  0  0  0  0  0  0
   25.0181  -29.2794   16.5499 N   0  0  0  0  0  0  0  0  0  0  0  0
   26.8610  -31.3283    9.4004 O   0  5  0  0  0  0  0  0  0  0  0  0
   22.4161  -33.2472    9.8870 O   0  5  0  0  0  0  0  0  0  0  0  0
   23.6534  -35.7242    6.5136 O   0  0  0  0  0  0  0  0  0  0  0  0
   25.7653  -28.4641   15.8222 C   0  0  0  0  0  0  0  0  0  0  0  0
   27.1791  -28.3427   16.1160 N   0  0  0  0  0  0  0  0  0  0  0  0
   25.7241  -31.4180   11.6125 O   0  0  0  0  0  0  0  0  0  0  0  0
   24.6773  -33.7085   10.7466 O   0  0  0  0  0  0  0  0  0  0  0  0
   25.4143  -36.2306    8.1604 O   0  5  0  0  0  0  0  0  0  0  0  0
   25.2645  -27.7533   14.8325 N   0  0  0  0  0  0  0  0  0  0  0  0
   24.3058  -31.5359    9.4558 O   0  0  0  0  0  0  0  0  0  0  0  0
   24.2663  -33.9103    8.2136 O   0  0  0  0  0  0  0  0  0  0  0  0
   23.0354  -36.1097    8.8654 O   0  0  0  0  0  0  0  0  0  0  0  0
   23.9637  -27.8365   14.5282 C   0  0  0  0  0  0  0  0  0  0  0  0
   23.1622  -28.6797   15.2710 C   0  0  0  0  0  0  0  0  0  0  0  0
   23.7193  -29.4292   16.3251 C   0  0  0  0  0  0  0  0  0  0  0  0
   22.9281  -30.2959   17.0996 O   0  0  0  0  0  0  0  0  0  0  0  0
   21.9144  -28.5896   14.7800 N   0  0  0  0  0  0  0  0  0  0  0  0
   21.9428  -27.7291   13.7772 C   0  0  0  0  0  0  0  0  0  0  0  0
   23.1679  -27.2675   13.6091 N   0  0  0  0  0  0  0  0  0  0  0  0
  1  5  1  1  0  0  0
  1 14  1  0  0  0  0
  1 19  2  0  0  0  0
  1 23  1  0  0  0  0
  2 15  1  1  0  0  0
  2 20  2  0  0  0  0
  2 23  1  0  0  0  0
  2 24  1  0  0  0  0
  3 16  1  6  0  0  0
  3 21  1  0  0  0  0
  3 24  1  0  0  0  0
  3 25  2  0  0  0  0
  4  5  1  0  0  0  0
  6  4  1  1  0  0  0
  6  7  1  0  0  0  0
  6  8  1  0  0  0  0
  7 12  1  0  0  0  0
  8  9  1  6  0  0  0
  8 10  1  0  0  0  0
 10 11  1  6  0  0  0
 10 12  1  0  0  0  0
 12 32  1  1  0  0  0
 13 17  2  0  0  0  0
 13 28  1  0  0  0  0
 17 18  1  0  0  0  0
 17 22  1  0  0  0  0
 22 26  2  0  0  0  0
 26 27  1  0  0  0  0
 26 32  1  0  0  0  0
 27 28  2  0  0  0  0
 27 30  1  0  0  0  0
 28 29  1  0  0  0  0
 30 31  2  0  0  0  0
 31 32  1  0  0  0  0
M  CHG  3  14  -1  15  -1  21  -1
M  END
>  <CHROM.1>
175.27390164,134.79691013,143.22085401,176.65291101,173.17084688,124.61776359
-163.41889483,-62.05399741,24.48145620,-30.41894590,11.54726265,-1.66845187
1.21668608,0.75776143

>  <Name>
ligand

>  <RI>
0

>  <Rbt.Current_Directory>
/home/itssahil/PROJECTS/Mol_Feturizer/New_Systems/rnas/4Y1I

>  <Rbt.Executable>
rbdock ($Id: //depot/dev/client3/rdock/2013.1/src/exe/rbdock.cxx#4 $)

>  <Rbt.Library>
libRbt.so (2013.1, Build901 2013/11/27)

>  <Rbt.Parameter_File>
/export/apps/rDock/src/rDock_2013.1_src/data/scripts/dock_solv.prm

>  <Rbt.Receptor>
prm/blind_docking_60.prm

>  <SCORE>
-10.8874

>  <SCORE.INTER>
-7.89748

>  <SCORE.INTER.CONST>
1

>  <SCORE.INTER.POLAR>
0

>  <SCORE.INTER.ROT>
8

>  <SCORE.INTER.SOLV>
16.6753

>  <SCORE.INTER.VDW>
-19.7567

>  <SCORE.INTER.norm>
-0.246796

>  <SCORE.INTRA>
-2.98997

>  <SCORE.INTRA.DIHEDRAL>
-5.35905

>  <SCORE.INTRA.DIHEDRAL.0>
10.9594

>  <SCORE.INTRA.POLAR>
0

>  <SCORE.INTRA.POLAR.0>
0

>  <SCORE.INTRA.REPUL>
0

>  <SCORE.INTRA.REPUL.0>
0

>  <SCORE.INTRA.SOLV>
-2.3551

>  <SCORE.INTRA.SOLV.lig_0>
-124.914

>  <SCORE.INTRA.VDW>
0.867111

>  <SCORE.INTRA.VDW.0>
-4.69801

>  <SCORE.INTRA.norm>
-0.0934365

>  <SCORE.RESTR>
0

>  <SCORE.RESTR.CAVITY>
0

>  <SCORE.RESTR.norm>
0

>  <SCORE.SYSTEM>
0

>  <SCORE.SYSTEM.CONST>
0

>  <SCORE.SYSTEM.DIHEDRAL>
0

>  <SCORE.SYSTEM.SOLV>
0

>  <SCORE.SYSTEM.norm>
0

>  <SCORE.heavy>
32

>  <SCORE.norm>
-0.340233

>  <RMSD>
31.610

$$$$
ligand
 OpenBabel11021811513D
libRbt.so/2013.1/901 2013/11/27
 32 34  0  0  0  0  0  0  0  0999 V2000
   24.1829  -32.5663   12.4904 P   0  0  1  0  0  0  0  0  0  0  0  0
   24.4256  -32.4013    9.6365 P   0  0  2  0  0  0  0  0  0  0  0  0
   24.3629  -29.6363    8.6535 P   0  0  1  0  0  0  0  0  0  0  0  0
   24.8561  -30.3970   13.7681 C   0  0  0  0  0  0  0  0  0  0  0  0
   24.8129  -31.7952   13.8015 O   0  0  0  0  0  0  0  0  0  0  0  0
   25.6739  -29.9329   14.7923 C   0  0  1  0  0  0  0  0  0  0  0  0
   27.0774  -30.4816   14.6213 O   0  0  0  0  0  0  0  0  0  0  0  0
   25.8178  -28.3425   14.7466 C   0  0  1  0  0  0  0  0  0  0  0  0
   25.1935  -27.7454   15.9875 O   0  0  0  0  0  0  0  0  0  0  0  0
   27.0277  -28.1080   14.7961 C   0  0  1  0  0  0  0  0  0  0  0  0
   27.4136  -27.8093   16.1960 O   0  0  0  0  0  0  0  0  0  0  0  0
   27.7977  -29.4898   14.2749 C   0  0  2  0  0  0  0  0  0  0  0  0
   27.7585  -26.7175    9.9508 N   0  0  0  0  0  0  0  0  0  0  0  0
   24.4108  -34.0526   12.6128 O   0  5  0  0  0  0  0  0  0  0  0  0
   22.9259  -32.5601    9.6298 O   0  5  0  0  0  0  0  0  0  0  0  0
   25.3418  -28.8018    7.8612 O   0  0  0  0  0  0  0  0  0  0  0  0
   27.5113  -26.3100   11.1860 C   0  0  0  0  0  0  0  0  0  0  0  0
   27.1811  -24.9193   11.4234 N   0  0  0  0  0  0  0  0  0  0  0  0
   22.7066  -32.2507   12.4045 O   0  0  0  0  0  0  0  0  0  0  0  0
   25.0719  -33.6966    9.2204 O   0  0  0  0  0  0  0  0  0  0  0  0
   22.9896  -29.5145    8.0299 O   0  5  0  0  0  0  0  0  0  0  0  0
   27.5554  -27.1314   12.2150 N   0  0  0  0  0  0  0  0  0  0  0  0
   24.9509  -32.0210   11.1445 O   0  0  0  0  0  0  0  0  0  0  0  0
   24.8651  -31.2090    8.5919 O   0  0  0  0  0  0  0  0  0  0  0  0
   24.3372  -29.1414   10.0832 O   0  0  0  0  0  0  0  0  0  0  0  0
   27.8563  -28.4237   12.0388 C   0  0  0  0  0  0  0  0  0  0  0  0
   28.1179  -28.8748   10.7609 C   0  0  0  0  0  0  0  0  0  0  0  0
   28.0657  -27.9784    9.6760 C   0  0  0  0  0  0  0  0  0  0  0  0
   28.3279  -28.4082    8.3632 O   0  0  0  0  0  0  0  0  0  0  0  0
   28.3903  -30.1883   10.8425 N   0  0  0  0  0  0  0  0  0  0  0  0
   28.3006  -30.5348   12.1148 C   0  0  0  0  0  0  0  0  0  0  0  0
   27.9775  -29.4868   12.8494 N   0  0  0  0  0  0  0  0  0  0  0  0
  1  5  1  1  0  0  0
  1 14  1  0  0  0  0
  1 19  2  0  0  0  0
  1 23  1  0  0  0  0
  2 15  1  1  0  0  0
  2 20  2  0  0  0  0
  2 23  1  0  0  0  0
  2 24  1  0  0  0  0
  3 16  1  6  0  0  0
  3 21  1  0  0  0  0
  3 24  1  0  0  0  0
  3 25  2  0  0  0  0
  4  5  1  0  0  0  0
  6  4  1  6  0  0  0
  6  7  1  0  0  0  0
  6  8  1  0  0  0  0
  7 12  1  0  0  0  0
  8  9  1  1  0  0  0
  8 10  1  0  0  0  0
 10 11  1  1  0  0  0
 10 12  1  0  0  0  0
 12 32  1  6  0  0  0
 13 17  2  0  0  0  0
 13 28  1  0  0  0  0
 17 18  1  0  0  0  0
 17 22  1  0  0  0  0
 22 26  2  0  0  0  0
 26 27  1  0  0  0  0
 26 32  1  0  0  0  0
 27 28  2  0  0  0  0
 27 30  1  0  0  0  0
 28 29  1  0  0  0  0
 30 31  2  0  0  0  0
 31 32  1  0  0  0  0
M  CHG  3  14  -1  15  -1  21  -1
M  END
>  <CHROM.1>
171.36819642,31.70030871,160.19027080,59.93332926,-166.70560723,134.08041899
-170.50720283,58.34628590,25.77322573,-29.98000627,11.53464024,2.64738355
-0.97040479,-1.38987120

>  <Name>
ligand

>  <RI>
0

>  <Rbt.Current_Directory>
/home/itssahil/PROJECTS/Mol_Feturizer/New_Systems/rnas/4Y1I

>  <Rbt.Executable>
rbdock ($Id: //depot/dev/client3/rdock/2013.1/src/exe/rbdock.cxx#4 $)

>  <Rbt.Library>
libRbt.so (2013.1, Build901 2013/11/27)

>  <Rbt.Parameter_File>
/export/apps/rDock/src/rDock_2013.1_src/data/scripts/dock_solv.prm

>  <Rbt.Receptor>
prm/blind_docking_60.prm

>  <SCORE>
-14.0484

>  <SCORE.INTER>
-8.18706

>  <SCORE.INTER.CONST>
1

>  <SCORE.INTER.POLAR>
0

>  <SCORE.INTER.ROT>
8

>  <SCORE.INTER.SOLV>
15.3801

>  <SCORE.INTER.VDW>
-19.5181

>  <SCORE.INTER.norm>
-0.255846

>  <SCORE.INTRA>
-5.86137

>  <SCORE.INTRA.DIHEDRAL>
-6.99393

>  <SCORE.INTRA.DIHEDRAL.0>
10.9594

>  <SCORE.INTRA.POLAR>
0

>  <SCORE.INTRA.POLAR.0>
0

>  <SCORE.INTRA.REPUL>
0

>  <SCORE.INTRA.REPUL.0>
0

>  <SCORE.INTRA.SOLV>
-1.63704

>  <SCORE.INTRA.SOLV.lig_0>
-124.914

>  <SCORE.INTRA.VDW>
-1.54588

>  <SCORE.INTRA.VDW.0>
-4.69801

>  <SCORE.INTRA.norm>
-0.183168

>  <SCORE.RESTR>
0

>  <SCORE.RESTR.CAVITY>
0

>  <SCORE.RESTR.norm>
0

>  <SCORE.SYSTEM>
0

>  <SCORE.SYSTEM.CONST>
0

>  <SCORE.SYSTEM.DIHEDRAL>
0

>  <SCORE.SYSTEM.SOLV>
0

>  <SCORE.SYSTEM.norm>
0

>  <SCORE.heavy>
32

>  <SCORE.norm>
-0.439013

>  <RMSD>
31.649

$$$$
ligand
 OpenBabel11021811513D
libRbt.so/2013.1/901 2013/11/27
 32 34  0  0  0  0  0  0  0  0999 V2000
   23.5548  -30.3770   11.1215 P   0  0  1  0  0  0  0  0  0  0  0  0
   26.1833  -31.2319   10.3524 P   0  0  2  0  0  0  0  0  0  0  0  0
   26.9474  -28.5557    9.4200 P   0  0  1  0  0  0  0  0  0  0  0  0
   21.4109  -29.6422   12.4080 C   0  0  0  0  0  0  0  0  0  0  0  0
   22.7026  -30.1695   12.5146 O   0  0  0  0  0  0  0  0  0  0  0  0
   20.8411  -29.5493   13.6729 C   0  0  1  0  0  0  0  0  0  0  0  0
   21.7742  -28.8020   14.6060 O   0  0  0  0  0  0  0  0  0  0  0  0
   19.4862  -28.7035   13.6399 C   0  0  1  0  0  0  0  0  0  0  0  0
   18.3245  -29.6006   14.0027 O   0  0  0  0  0  0  0  0  0  0  0  0
   19.5896  -27.8589   14.5329 C   0  0  1  0  0  0  0  0  0  0  0  0
   18.9091  -28.3499   15.7550 O   0  0  0  0  0  0  0  0  0  0  0  0
   21.2195  -27.6759   14.8226 C   0  0  2  0  0  0  0  0  0  0  0  0
   25.4943  -25.8251   12.6579 N   0  0  0  0  0  0  0  0  0  0  0  0
   22.9010  -31.4416   10.2757 O   0  5  0  0  0  0  0  0  0  0  0  0
   25.8318  -32.5385    9.6865 O   0  5  0  0  0  0  0  0  0  0  0  0
   27.1993  -28.3430   10.8944 O   0  0  0  0  0  0  0  0  0  0  0  0
   25.3706  -26.8703   13.4610 C   0  0  0  0  0  0  0  0  0  0  0  0
   26.5476  -27.6366   13.8174 N   0  0  0  0  0  0  0  0  0  0  0  0
   23.6088  -29.0580   10.3843 O   0  0  0  0  0  0  0  0  0  0  0  0
   27.5338  -31.3478   11.0093 O   0  0  0  0  0  0  0  0  0  0  0  0
   28.2698  -28.5434    8.6846 O   0  5  0  0  0  0  0  0  0  0  0  0
   24.2054  -27.2412   13.9512 N   0  0  0  0  0  0  0  0  0  0  0  0
   25.0753  -30.8653   11.5068 O   0  0  0  0  0  0  0  0  0  0  0  0
   26.2197  -30.0271    9.2331 O   0  0  0  0  0  0  0  0  0  0  0  0
   26.0507  -27.4496    8.9084 O   0  0  0  0  0  0  0  0  0  0  0  0
   23.0939  -26.5604   13.6469 C   0  0  0  0  0  0  0  0  0  0  0  0
   23.1950  -25.4660   12.8118 C   0  0  0  0  0  0  0  0  0  0  0  0
   24.4510  -25.0886   12.2989 C   0  0  0  0  0  0  0  0  0  0  0  0
   24.5854  -23.9791   11.4458 O   0  0  0  0  0  0  0  0  0  0  0  0
   21.9604  -24.9577   12.6585 N   0  0  0  0  0  0  0  0  0  0  0  0
   21.1320  -25.7043   13.3679 C   0  0  0  0  0  0  0  0  0  0  0  0
   21.7963  -26.6720   13.9717 N   0  0  0  0  0  0  0  0  0  0  0  0
  1  5  1  1  0  0  0
  1 14  1  0  0  0  0
  1 19  2  0  0  0  0
  1 23  1  0  0  0  0
  2 15  1  6  0  0  0
  2 20  2  0  0  0  0
  2 23  1  0  0  0  0
  2 24  1  0  0  0  0
  3 16  1  1  0  0  0
  3 21  1  0  0  0  0
  3 24  1  0  0  0  0
  3 25  2  0  0  0  0
  4  5  1  0  0  0  0
  6  4  1  6  0  0  0
  6  7  1  0  0  0  0
  6  8  1  0  0  0  0
  7 12  1  0  0  0  0
  8  9  1  1  0  0  0
  8 10  1  0  0  0  0
 10 11  1  1  0  0  0
 10 12  1  0  0  0  0
 12 32  1  6  0  0  0
 13 17  2  0  0  0  0
 13 28  1  0  0  0  0
 17 18  1  0  0  0  0
 17 22  1  0  0  0  0
 22 26  2  0  0  0  0
 26 27  1  0  0  0  0
 26 32  1  0  0  0  0
 27 28  2  0  0  0  0
 27 30  1  0  0  0  0
 28 29  1  0  0  0  0
 30 31  2  0  0  0  0
 31 32  1  0  0  0  0
M  CHG  3  14  -1  15  -1  21  -1
M  END
>  <CHROM.1>
-66.48671757,-72.17169681,-16.82634064,52.21411698,179.43906630,-38.95302969
177.26567948,-162.05718876,23.86360737,-28.58908201,11.96273491,0.41822827
-0.52250603,-2.85494814

>  <Name>
ligand

>  <RI>
0

>  <Rbt.Current_Directory>
/home/itssahil/PROJECTS/Mol_Feturizer/New_Systems/rnas/4Y1I

>  <Rbt.Executable>
rbdock ($Id: //depot/dev/client3/rdock/2013.1/src/exe/rbdock.cxx#4 $)

>  <Rbt.Library>
libRbt.so (2013.1, Build901 2013/11/27)

>  <Rbt.Parameter_File>
/export/apps/rDock/src/rDock_2013.1_src/data/scripts/dock_solv.prm

>  <Rbt.Receptor>
prm/blind_docking_80.prm

>  <SCORE>
-14.237

>  <SCORE.INTER>
-8.64665

>  <SCORE.INTER.CONST>
1

>  <SCORE.INTER.POLAR>
0

>  <SCORE.INTER.ROT>
8

>  <SCORE.INTER.SOLV>
22.1851

>  <SCORE.INTER.VDW>
-22.0928

>  <SCORE.INTER.norm>
-0.270208

>  <SCORE.INTRA>
-5.59344

>  <SCORE.INTRA.DIHEDRAL>
-6.78733

>  <SCORE.INTRA.DIHEDRAL.0>
10.9594

>  <SCORE.INTRA.POLAR>
0

>  <SCORE.INTRA.POLAR.0>
0

>  <SCORE.INTRA.REPUL>
0

>  <SCORE.INTRA.REPUL.0>
0

>  <SCORE.INTRA.SOLV>
-1.39267

>  <SCORE.INTRA.SOLV.lig_0>
-124.914

>  <SCORE.INTRA.VDW>
-1.50344

>  <SCORE.INTRA.VDW.0>
-4.69801

>  <SCORE.INTRA.norm>
-0.174795

>  <SCORE.RESTR>
0.00304271

>  <SCORE.RESTR.CAVITY>
0.00304271

>  <SCORE.RESTR.norm>
9.50848e-05

>  <SCORE.SYSTEM>
0

>  <SCORE.SYSTEM.CONST>
0

>  <SCORE.SYSTEM.DIHEDRAL>
0

>  <SCORE.SYSTEM.SOLV>
0

>  <SCORE.SYSTEM.norm>
0

>  <SCORE.heavy>
32

>  <SCORE.norm>
-0.444908

>  <RMSD>
31.666

$$$$
ligand
 OpenBabel11021811513D
libRbt.so/2013.1/901 2013/11/27
 32 34  0  0  0  0  0  0  0  0999 V2000
   23.6397  -26.8918   12.3493 P   0  0  1  0  0  0  0  0  0  0  0  0
   26.1636  -27.0634   13.7027 P   0  0  2  0  0  0  0  0  0  0  0  0
   26.1136  -27.4606   16.6104 P   0  0  1  0  0  0  0  0  0  0  0  0
   24.3213  -28.4414   10.3681 C   0  0  0  0  0  0  0  0  0  0  0  0
   23.4940  -27.3941   10.7884 O   0  0  0  0  0  0  0  0  0  0  0  0
   24.0168  -28.7751    9.0531 C   0  0  1  0  0  0  0  0  0  0  0  0
   25.0440  -29.7539    8.5176 O   0  0  0  0  0  0  0  0  0  0  0  0
   22.6080  -29.5219    8.9536 C   0  0  1  0  0  0  0  0  0  0  0  0
   21.6387  -28.6646    8.1716 O   0  0  0  0  0  0  0  0  0  0  0  0
   22.8095  -30.5434    8.2924 C   0  0  1  0  0  0  0  0  0  0  0  0
   22.4453  -30.2927    6.8773 O   0  0  0  0  0  0  0  0  0  0  0  0
   24.4383  -30.8695    8.4126 C   0  0  2  0  0  0  0  0  0  0  0  0
   24.8777  -35.6458   10.2509 N   0  0  0  0  0  0  0  0  0  0  0  0
   22.6904  -25.7484   12.6095 O   0  5  0  0  0  0  0  0  0  0  0  0
   27.5575  -26.4982   13.5930 O   0  5  0  0  0  0  0  0  0  0  0  0
   25.5180  -26.6922   17.7667 O   0  0  0  0  0  0  0  0  0  0  0  0
   24.5576  -35.2681    9.0231 C   0  0  0  0  0  0  0  0  0  0  0  0
   24.2832  -36.2752    8.0181 N   0  0  0  0  0  0  0  0  0  0  0  0
   23.3445  -28.0587   13.2645 O   0  0  0  0  0  0  0  0  0  0  0  0
   26.1993  -28.5472   13.4464 O   0  0  0  0  0  0  0  0  0  0  0  0
   25.6630  -28.9030   16.6895 O   0  5  0  0  0  0  0  0  0  0  0  0
   24.4792  -33.9985    8.6803 N   0  0  0  0  0  0  0  0  0  0  0  0
   25.1784  -26.3686   12.5885 O   0  0  0  0  0  0  0  0  0  0  0  0
   25.5640  -26.7814   15.2083 O   0  0  0  0  0  0  0  0  0  0  0  0
   27.6224  -27.3759   16.6871 O   0  0  0  0  0  0  0  0  0  0  0  0
   24.7248  -33.0371    9.5787 C   0  0  0  0  0  0  0  0  0  0  0  0
   25.0603  -33.4036   10.8663 C   0  0  0  0  0  0  0  0  0  0  0  0
   25.1388  -34.7670   11.2098 C   0  0  0  0  0  0  0  0  0  0  0  0
   25.4787  -35.1711   12.5130 O   0  0  0  0  0  0  0  0  0  0  0  0
   25.2565  -32.2759   11.5706 N   0  0  0  0  0  0  0  0  0  0  0  0
   25.0509  -31.2566   10.7548 C   0  0  0  0  0  0  0  0  0  0  0  0
   24.7274  -31.6950    9.5525 N   0  0  0  0  0  0  0  0  0  0  0  0
  1  5  1  6  0  0  0
  1 14  1  0  0  0  0
  1 19  2  0  0  0  0
  1 23  1  0  0  0  0
  2 15  1  6  0  0  0
  2 20  2  0  0  0  0
  2 23  1  0  0  0  0
  2 24  1  0  0  0  0
  3 16  1  1  0  0  0
  3 21  1  0  0  0  0
  3 24  1  0  0  0  0
  3 25  2  0  0  0  0
  4  5  1  0  0  0  0
  6  4  1  1  0  0  0
  6  7  1  0  0  0  0
  6  8  1  0  0  0  0
  7 12  1  0  0  0  0
  8  9  1  6  0  0  0
  8 10  1  0  0  0  0
 10 11  1  6  0  0  0
 10 12  1  0  0  0  0
 12 32  1  1  0  0  0
 13 17  2  0  0  0  0
 13 28  1  0  0  0  0
 17 18  1  0  0  0  0
 17 22  1  0  0  0  0
 22 26  2  0  0  0  0
 26 27  1  0  0  0  0
 26 32  1  0  0  0  0
 27 28  2  0  0  0  0
 27 30  1  0  0  0  0
 28 29  1  0  0  0  0
 30 31  2  0  0  0  0
 31 32  1  0  0  0  0
M  CHG  3  14  -1  15  -1  21  -1
M  END
>  <CHROM.1>
179.06470731,173.23515553,166.68397618,171.21801718,177.04891092,-152.51089385
-119.76187664,-67.64185390,24.75293839,-29.64932077,11.82856688,1.19121771
-1.08990469,0.43990619

>  <Name>
ligand

>  <RI>
0

>  <Rbt.Current_Directory>
/home/itssahil/PROJECTS/Mol_Feturizer/New_Systems/rnas/4Y1I

>  <Rbt.Executable>
rbdock ($Id: //depot/dev/client3/rdock/2013.1/src/exe/rbdock.cxx#4 $)

>  <Rbt.Library>
libRbt.so (2013.1, Build901 2013/11/27)

>  <Rbt.Parameter_File>
/export/apps/rDock/src/rDock_2013.1_src/data/scripts/dock_solv.prm

>  <Rbt.Receptor>
prm/blind_docking_60.prm

>  <SCORE>
-14.2768

>  <SCORE.INTER>
-10.4601

>  <SCORE.INTER.CONST>
1

>  <SCORE.INTER.POLAR>
0

>  <SCORE.INTER.ROT>
8

>  <SCORE.INTER.SOLV>
24.4443

>  <SCORE.INTER.VDW>
-24.0548

>  <SCORE.INTER.norm>
-0.326878

>  <SCORE.INTRA>
-3.81673

>  <SCORE.INTRA.DIHEDRAL>
-6.55952

>  <SCORE.INTRA.DIHEDRAL.0>
10.9594

>  <SCORE.INTRA.POLAR>
0

>  <SCORE.INTRA.POLAR.0>
0

>  <SCORE.INTRA.REPUL>
0

>  <SCORE.INTRA.REPUL.0>
0

>  <SCORE.INTRA.SOLV>
-2.11384

>  <SCORE.INTRA.SOLV.lig_0>
-124.914

>  <SCORE.INTRA.VDW>
0.519947

>  <SCORE.INTRA.VDW.0>
-4.69801

>  <SCORE.INTRA.norm>
-0.119273

>  <SCORE.RESTR>
0

>  <SCORE.RESTR.CAVITY>
0

>  <SCORE.RESTR.norm>
0

>  <SCORE.SYSTEM>
0

>  <SCORE.SYSTEM.CONST>
0

>  <SCORE.SYSTEM.DIHEDRAL>
0

>  <SCORE.SYSTEM.SOLV>
0

>  <SCORE.SYSTEM.norm>
0

>  <SCORE.heavy>
32

>  <SCORE.norm>
-0.446151

>  <RMSD>
31.710

$$$$
ligand
 OpenBabel11021811513D
libRbt.so/2013.1/901 2013/11/27
 32 34  0  0  0  0  0  0  0  0999 V2000
   23.8777  -27.2237   13.0240 P   0  0  1  0  0  0  0  0  0  0  0  0
   26.2631  -26.3652   14.3670 P   0  0  2  0  0  0  0  0  0  0  0  0
   26.2536  -27.6115   17.0244 P   0  0  1  0  0  0  0  0  0  0  0  0
   24.4892  -27.7238   10.5406 C   0  0  0  0  0  0  0  0  0  0  0  0
   23.6296  -28.0195   11.6043 O   0  0  0  0  0  0  0  0  0  0  0  0
   24.3016  -28.6497    9.5204 C   0  0  1  0  0  0  0  0  0  0  0  0
   25.3555  -28.4562    8.4473 O   0  0  0  0  0  0  0  0  0  0  0  0
   24.4871  -30.1452   10.0507 C   0  0  1  0  0  0  0  0  0  0  0  0
   23.1716  -30.8830    9.9451 O   0  0  0  0  0  0  0  0  0  0  0  0
   25.2749  -30.6879    9.2721 C   0  0  1  0  0  0  0  0  0  0  0  0
   24.5132  -31.4542    8.2569 O   0  0  0  0  0  0  0  0  0  0  0  0
   26.1310  -29.4627    8.5372 C   0  0  2  0  0  0  0  0  0  0  0  0
   29.9951  -26.1375    9.1676 N   0  0  0  0  0  0  0  0  0  0  0  0
   23.6727  -25.7426   12.8228 O   0  5  0  0  0  0  0  0  0  0  0  0
   25.9980  -24.9829   13.8254 O   0  5  0  0  0  0  0  0  0  0  0  0
   25.7716  -28.9430   16.4980 O   0  0  0  0  0  0  0  0  0  0  0  0
   29.0269  -26.1050    8.2653 C   0  0  0  0  0  0  0  0  0  0  0  0
   28.9890  -25.0237    7.3015 N   0  0  0  0  0  0  0  0  0  0  0  0
   22.9186  -27.7668   14.0591 O   0  0  0  0  0  0  0  0  0  0  0  0
   27.7321  -26.6782   14.2536 O   0  0  0  0  0  0  0  0  0  0  0  0
   27.7615  -27.6433   17.1461 O   0  5  0  0  0  0  0  0  0  0  0  0
   28.0891  -27.0287    8.2126 N   0  0  0  0  0  0  0  0  0  0  0  0
   25.4266  -27.4842   13.5052 O   0  0  0  0  0  0  0  0  0  0  0  0
   25.8064  -26.4432   15.9454 O   0  0  0  0  0  0  0  0  0  0  0  0
   25.6221  -27.3578   18.3758 O   0  0  0  0  0  0  0  0  0  0  0  0
   28.0879  -28.0445    9.0843 C   0  0  0  0  0  0  0  0  0  0  0  0
   29.0865  -28.1025   10.0353 C   0  0  0  0  0  0  0  0  0  0  0  0
   30.0782  -27.1034   10.0732 C   0  0  0  0  0  0  0  0  0  0  0  0
   31.1076  -27.1353   11.0304 O   0  0  0  0  0  0  0  0  0  0  0  0
   28.8711  -29.1984   10.7828 N   0  0  0  0  0  0  0  0  0  0  0  0
   27.7873  -29.7925   10.3146 C   0  0  0  0  0  0  0  0  0  0  0  0
   27.3036  -29.1141    9.2908 N   0  0  0  0  0  0  0  0  0  0  0  0
  1  5  1  6  0  0  0
  1 14  1  0  0  0  0
  1 19  2  0  0  0  0
  1 23  1  0  0  0  0
  2 15  1  6  0  0  0
  2 20  2  0  0  0  0
  2 23  1  0  0  0  0
  2 24  1  0  0  0  0
  3 16  1  6  0  0  0
  3 21  1  0  0  0  0
  3 24  1  0  0  0  0
  3 25  2  0  0  0  0
  4  5  1  0  0  0  0
  6  4  1  1  0  0  0
  6  7  1  0  0  0  0
  6  8  1  0  0  0  0
  7 12  1  0  0  0  0
  8  9  1  6  0  0  0
  8 10  1  0  0  0  0
 10 11  1  6  0  0  0
 10 12  1  0  0  0  0
 12 32  1  1  0  0  0
 13 17  2  0  0  0  0
 13 28  1  0  0  0  0
 17 18  1  0  0  0  0
 17 22  1  0  0  0  0
 22 26  2  0  0  0  0
 26 27  1  0  0  0  0
 26 32  1  0  0  0  0
 27 28  2  0  0  0  0
 27 30  1  0  0  0  0
 28 29  1  0  0  0  0
 30 31  2  0  0  0  0
 31 32  1  0  0  0  0
M  CHG  3  14  -1  15  -1  21  -1
M  END
>  <CHROM.1>
62.80282982,-41.35717432,-60.05847460,-172.24031619,168.94108204,-50.14017362
149.08572796,-163.60389700,26.28423911,-27.79039993,12.04870015,1.79827284
0.42043818,1.31990860

>  <Name>
ligand

>  <RI>
0

>  <Rbt.Current_Directory>
/home/itssahil/PROJECTS/Mol_Feturizer/New_Systems/rnas/4Y1I

>  <Rbt.Executable>
rbdock ($Id: //depot/dev/client3/rdock/2013.1/src/exe/rbdock.cxx#4 $)

>  <Rbt.Library>
libRbt.so (2013.1, Build901 2013/11/27)

>  <Rbt.Parameter_File>
/export/apps/rDock/src/rDock_2013.1_src/data/scripts/dock_solv.prm

>  <Rbt.Receptor>
prm/blind_docking_60.prm

>  <SCORE>
-15.9549

>  <SCORE.INTER>
-10.8822

>  <SCORE.INTER.CONST>
1

>  <SCORE.INTER.POLAR>
0

>  <SCORE.INTER.ROT>
8

>  <SCORE.INTER.SOLV>
30.5627

>  <SCORE.INTER.VDW>
-26.3757

>  <SCORE.INTER.norm>
-0.340069

>  <SCORE.INTRA>
-5.0803

>  <SCORE.INTRA.DIHEDRAL>
-6.67936

>  <SCORE.INTRA.DIHEDRAL.0>
10.9594

>  <SCORE.INTRA.POLAR>
0

>  <SCORE.INTRA.POLAR.0>
0

>  <SCORE.INTRA.REPUL>
0

>  <SCORE.INTRA.REPUL.0>
0

>  <SCORE.INTRA.SOLV>
-4.42566

>  <SCORE.INTRA.SOLV.lig_0>
-124.914

>  <SCORE.INTRA.VDW>
0.472213

>  <SCORE.INTRA.VDW.0>
-4.69801

>  <SCORE.INTRA.norm>
-0.158759

>  <SCORE.RESTR>
0.00758577

>  <SCORE.RESTR.CAVITY>
0.00758577

>  <SCORE.RESTR.norm>
0.000237055

>  <SCORE.SYSTEM>
0

>  <SCORE.SYSTEM.CONST>
0

>  <SCORE.SYSTEM.DIHEDRAL>
0

>  <SCORE.SYSTEM.SOLV>
0

>  <SCORE.SYSTEM.norm>
0

>  <SCORE.heavy>
32

>  <SCORE.norm>
-0.498592

>  <RMSD>
31.729

$$$$
ligand
 OpenBabel11021811513D
libRbt.so/2013.1/901 2013/11/27
 32 34  0  0  0  0  0  0  0  0999 V2000
   26.0158  -27.8889   10.4429 P   0  0  1  0  0  0  0  0  0  0  0  0
   23.4675  -29.1663   10.1179 P   0  0  2  0  0  0  0  0  0  0  0  0
   23.4815  -31.9381    9.1523 P   0  0  1  0  0  0  0  0  0  0  0  0
   26.8884  -29.6117   12.1927 C   0  0  0  0  0  0  0  0  0  0  0  0
   26.1702  -28.4279   11.9907 O   0  0  0  0  0  0  0  0  0  0  0  0
   26.7517  -30.0182   13.5153 C   0  0  1  0  0  0  0  0  0  0  0  0
   27.4056  -29.0066   14.4367 O   0  0  0  0  0  0  0  0  0  0  0  0
   25.2156  -30.0767   13.9503 C   0  0  1  0  0  0  0  0  0  0  0  0
   24.8335  -31.5074   14.2555 O   0  0  0  0  0  0  0  0  0  0  0  0
   25.1356  -29.4431   15.0055 C   0  0  1  0  0  0  0  0  0  0  0  0
   25.1916  -30.3844   16.1494 O   0  0  0  0  0  0  0  0  0  0  0  0
   26.4504  -28.4214   15.0431 C   0  0  2  0  0  0  0  0  0  0  0  0
   22.8450  -25.3520   13.0517 N   0  0  0  0  0  0  0  0  0  0  0  0
   25.4107  -26.5069   10.4405 O   0  5  0  0  0  0  0  0  0  0  0  0
   22.5008  -28.6135    9.1009 O   0  5  0  0  0  0  0  0  0  0  0  0
   22.9095  -31.4364    7.8472 O   0  0  0  0  0  0  0  0  0  0  0  0
   22.6918  -26.5521   13.5894 C   0  0  0  0  0  0  0  0  0  0  0  0
   21.3677  -27.1365   13.6589 N   0  0  0  0  0  0  0  0  0  0  0  0
   27.3807  -27.8829    9.7924 O   0  0  0  0  0  0  0  0  0  0  0  0
   23.2616  -28.4724   11.4388 O   0  0  0  0  0  0  0  0  0  0  0  0
   24.9683  -32.1654    8.9869 O   0  5  0  0  0  0  0  0  0  0  0  0
   23.7092  -27.2390   14.0675 N   0  0  0  0  0  0  0  0  0  0  0  0
   25.0141  -28.9079    9.6323 O   0  0  0  0  0  0  0  0  0  0  0  0
   23.2195  -30.7819   10.3030 O   0  0  0  0  0  0  0  0  0  0  0  0
   22.7905  -33.2303    9.5293 O   0  0  0  0  0  0  0  0  0  0  0  0
   24.9485  -26.7353   14.0225 C   0  0  0  0  0  0  0  0  0  0  0  0
   25.1361  -25.4860   13.4665 C   0  0  0  0  0  0  0  0  0  0  0  0
   24.0335  -24.7696   12.9624 C   0  0  0  0  0  0  0  0  0  0  0  0
   24.1932  -23.4949   12.3909 O   0  0  0  0  0  0  0  0  0  0  0  0
   26.4483  -25.2041   13.5367 N   0  0  0  0  0  0  0  0  0  0  0  0
   27.0462  -26.2338   14.1103 C   0  0  0  0  0  0  0  0  0  0  0  0
   26.1603  -27.1660   14.4073 N   0  0  0  0  0  0  0  0  0  0  0  0
  1  5  1  1  0  0  0
  1 14  1  0  0  0  0
  1 19  2  0  0  0  0
  1 23  1  0  0  0  0
  2 15  1  6  0  0  0
  2 20  2  0  0  0  0
  2 23  1  0  0  0  0
  2 24  1  0  0  0  0
  3 16  1  6  0  0  0
  3 21  1  0  0  0  0
  3 24  1  0  0  0  0
  3 25  2  0  0  0  0
  4  5  1  0  0  0  0
  6  4  1  6  0  0  0
  6  7  1  0  0  0  0
  6  8  1  0  0  0  0
  7 12  1  0  0  0  0
  8  9  1  1  0  0  0
  8 10  1  0  0  0  0
 10 11  1  1  0  0  0
 10 12  1  0  0  0  0
 12 32  1  6  0  0  0
 13 17  2  0  0  0  0
 13 28  1  0  0  0  0
 17 18  1  0  0  0  0
 17 22  1  0  0  0  0
 22 26  2  0  0  0  0
 26 27  1  0  0  0  0
 26 32  1  0  0  0  0
 27 28  2  0  0  0  0
 27 30  1  0  0  0  0
 28 29  1  0  0  0  0
 30 31  2  0  0  0  0
 31 32  1  0  0  0  0
M  CHG  3  14  -1  15  -1  21  -1
M  END
>  <CHROM.1>
-171.07859109,113.16934259,-44.80506842,-65.38704440,-171.31339995,129.83183221
59.54227272,66.02571433,24.72201109,-28.62846671,11.93105943,2.13667105,1.11411436
-2.89946912

>  <Name>
ligand

>  <RI>
0

>  <Rbt.Current_Directory>
/home/itssahil/PROJECTS/Mol_Feturizer/New_Systems/rnas/4Y1I

>  <Rbt.Executable>
rbdock ($Id: //depot/dev/client3/rdock/2013.1/src/exe/rbdock.cxx#4 $)

>  <Rbt.Library>
libRbt.so (2013.1, Build901 2013/11/27)

>  <Rbt.Parameter_File>
/export/apps/rDock/src/rDock_2013.1_src/data/scripts/dock_solv.prm

>  <Rbt.Receptor>
prm/blind_docking_60.prm

>  <SCORE>
-14.3784

>  <SCORE.INTER>
-8.46473

>  <SCORE.INTER.CONST>
1

>  <SCORE.INTER.POLAR>
0

>  <SCORE.INTER.ROT>
8

>  <SCORE.INTER.SOLV>
21.6945

>  <SCORE.INTER.VDW>
-21.808

>  <SCORE.INTER.norm>
-0.264523

>  <SCORE.INTRA>
-5.91368

>  <SCORE.INTRA.DIHEDRAL>
-6.3827

>  <SCORE.INTRA.DIHEDRAL.0>
10.9594

>  <SCORE.INTRA.POLAR>
0

>  <SCORE.INTRA.POLAR.0>
0

>  <SCORE.INTRA.REPUL>
0

>  <SCORE.INTRA.REPUL.0>
0

>  <SCORE.INTRA.SOLV>
0.0645459

>  <SCORE.INTRA.SOLV.lig_0>
-124.914

>  <SCORE.INTRA.VDW>
-2.7546

>  <SCORE.INTRA.VDW.0>
-4.69801

>  <SCORE.INTRA.norm>
-0.184802

>  <SCORE.RESTR>
0

>  <SCORE.RESTR.CAVITY>
0

>  <SCORE.RESTR.norm>
0

>  <SCORE.SYSTEM>
0

>  <SCORE.SYSTEM.CONST>
0

>  <SCORE.SYSTEM.DIHEDRAL>
0

>  <SCORE.SYSTEM.SOLV>
0

>  <SCORE.SYSTEM.norm>
0

>  <SCORE.heavy>
32

>  <SCORE.norm>
-0.449325

>  <RMSD>
31.745

$$$$
ligand
 OpenBabel11021811513D
libRbt.so/2013.1/901 2013/11/27
 32 34  0  0  0  0  0  0  0  0999 V2000
   23.4556  -30.3974   11.3491 P   0  0  1  0  0  0  0  0  0  0  0  0
   24.8853  -32.3927    9.8639 P   0  0  2  0  0  0  0  0  0  0  0  0
   23.2887  -34.3914    8.4246 P   0  0  1  0  0  0  0  0  0  0  0  0
   24.4242  -29.9206   13.7210 C   0  0  0  0  0  0  0  0  0  0  0  0
   24.5448  -30.6787   12.5510 O   0  0  0  0  0  0  0  0  0  0  0  0
   25.5139  -30.1671   14.5487 C   0  0  1  0  0  0  0  0  0  0  0  0
   26.7526  -29.4984   13.9845 O   0  0  0  0  0  0  0  0  0  0  0  0
   25.2976  -29.5338   15.9994 C   0  0  1  0  0  0  0  0  0  0  0  0
   25.2199  -30.6419   17.0252 O   0  0  0  0  0  0  0  0  0  0  0  0
   26.3156  -28.8810   16.2417 C   0  0  1  0  0  0  0  0  0  0  0  0
   27.2420  -29.7005   17.0591 O   0  0  0  0  0  0  0  0  0  0  0  0
   27.0123  -28.5300   14.7702 C   0  0  2  0  0  0  0  0  0  0  0  0
   26.5515  -25.5447   10.6156 N   0  0  0  0  0  0  0  0  0  0  0  0
   22.0703  -30.2716   11.9333 O   0  5  0  0  0  0  0  0  0  0  0  0
   25.4622  -33.1762   11.0162 O   0  5  0  0  0  0  0  0  0  0  0  0
   22.0717  -33.5258    8.1965 O   0  0  0  0  0  0  0  0  0  0  0  0
   27.1612  -26.7154   10.7181 C   0  0  0  0  0  0  0  0  0  0  0  0
   27.8013  -27.2884    9.5513 N   0  0  0  0  0  0  0  0  0  0  0  0
   23.8522  -29.1332   10.6205 O   0  0  0  0  0  0  0  0  0  0  0  0
   25.8574  -31.3210    9.4457 O   0  0  0  0  0  0  0  0  0  0  0  0
   23.4856  -35.2950    7.2270 O   0  5  0  0  0  0  0  0  0  0  0  0
   27.2064  -27.3830   11.8530 N   0  0  0  0  0  0  0  0  0  0  0  0
   23.4805  -31.6717   10.3127 O   0  0  0  0  0  0  0  0  0  0  0  0
   24.5979  -33.3980    8.5940 O   0  0  0  0  0  0  0  0  0  0  0  0
   23.0802  -35.2152    9.6765 O   0  0  0  0  0  0  0  0  0  0  0  0
   26.6279  -26.8887   12.9541 C   0  0  0  0  0  0  0  0  0  0  0  0
   25.9858  -25.6694   12.8748 C   0  0  0  0  0  0  0  0  0  0  0  0
   25.9494  -24.9740   11.6508 C   0  0  0  0  0  0  0  0  0  0  0  0
   25.3026  -23.7306   11.5389 O   0  0  0  0  0  0  0  0  0  0  0  0
   25.4920  -25.3914   14.0934 N   0  0  0  0  0  0  0  0  0  0  0  0
   25.8148  -26.3941   14.8916 C   0  0  0  0  0  0  0  0  0  0  0  0
   26.5007  -27.3033   14.2245 N   0  0  0  0  0  0  0  0  0  0  0  0
  1  5  1  1  0  0  0
  1 14  1  0  0  0  0
  1 19  2  0  0  0  0
  1 23  1  0  0  0  0
  2 15  1  1  0  0  0
  2 20  2  0  0  0  0
  2 23  1  0  0  0  0
  2 24  1  0  0  0  0
  3 16  1  6  0  0  0
  3 21  1  0  0  0  0
  3 24  1  0  0  0  0
  3 25  2  0  0  0  0
  4  5  1  0  0  0  0
  6  4  1  6  0  0  0
  6  7  1  0  0  0  0
  6  8  1  0  0  0  0
  7 12  1  0  0  0  0
  8  9  1  1  0  0  0
  8 10  1  0  0  0  0
 10 11  1  1  0  0  0
 10 12  1  0  0  0  0
 12 32  1  6  0  0  0
 13 17  2  0  0  0  0
 13 28  1  0  0  0  0
 17 18  1  0  0  0  0
 17 22  1  0  0  0  0
 22 26  2  0  0  0  0
 26 27  1  0  0  0  0
 26 32  1  0  0  0  0
 27 28  2  0  0  0  0
 27 30  1  0  0  0  0
 28 29  1  0  0  0  0
 30 31  2  0  0  0  0
 31 32  1  0  0  0  0
M  CHG  3  14  -1  15  -1  21  -1
M  END
>  <CHROM.1>
-43.62882367,71.30563842,69.20763432,73.18491447,-172.57450290,-45.57809958
-40.94166218,80.23567444,25.05470444,-29.97654288,11.81357474,-2.98259936
1.25701492,2.03261682

>  <Name>
ligand

>  <RI>
0

>  <Rbt.Current_Directory>
/home/itssahil/PROJECTS/Mol_Feturizer/New_Systems/rnas/4Y1I

>  <Rbt.Executable>
rbdock ($Id: //depot/dev/client3/rdock/2013.1/src/exe/rbdock.cxx#4 $)

>  <Rbt.Library>
libRbt.so (2013.1, Build901 2013/11/27)

>  <Rbt.Parameter_File>
/export/apps/rDock/src/rDock_2013.1_src/data/scripts/dock_solv.prm

>  <Rbt.Receptor>
prm/blind_docking_60.prm

>  <SCORE>
-12.3448

>  <SCORE.INTER>
-6.04661

>  <SCORE.INTER.CONST>
1

>  <SCORE.INTER.POLAR>
0

>  <SCORE.INTER.ROT>
8

>  <SCORE.INTER.SOLV>
16.7758

>  <SCORE.INTER.VDW>
-18.5563

>  <SCORE.INTER.norm>
-0.188957

>  <SCORE.INTRA>
-6.29814

>  <SCORE.INTRA.DIHEDRAL>
-6.90248

>  <SCORE.INTRA.DIHEDRAL.0>
10.9594

>  <SCORE.INTRA.POLAR>
0

>  <SCORE.INTRA.POLAR.0>
0

>  <SCORE.INTRA.REPUL>
0

>  <SCORE.INTRA.REPUL.0>
0

>  <SCORE.INTRA.SOLV>
-5.24893

>  <SCORE.INTRA.SOLV.lig_0>
-124.914

>  <SCORE.INTRA.VDW>
-0.222441

>  <SCORE.INTRA.VDW.0>
-4.69801

>  <SCORE.INTRA.norm>
-0.196817

>  <SCORE.RESTR>
0

>  <SCORE.RESTR.CAVITY>
0

>  <SCORE.RESTR.norm>
0

>  <SCORE.SYSTEM>
0

>  <SCORE.SYSTEM.CONST>
0

>  <SCORE.SYSTEM.DIHEDRAL>
0

>  <SCORE.SYSTEM.SOLV>
0

>  <SCORE.SYSTEM.norm>
0

>  <SCORE.heavy>
32

>  <SCORE.norm>
-0.385773

>  <RMSD>
31.765

$$$$
ligand
 OpenBabel11021811513D
libRbt.so/2013.1/901 2013/11/27
 32 34  0  0  0  0  0  0  0  0999 V2000
   22.7643  -29.0358    9.3118 P   0  0  1  0  0  0  0  0  0  0  0  0
   23.2157  -31.3524   10.9429 P   0  0  2  0  0  0  0  0  0  0  0  0
   22.5654  -33.1900    8.7485 P   0  0  1  0  0  0  0  0  0  0  0  0
   24.4093  -27.6551   10.7880 C   0  0  0  0  0  0  0  0  0  0  0  0
   23.2087  -27.6434   10.0694 O   0  0  0  0  0  0  0  0  0  0  0  0
   24.6738  -26.3787   11.2717 C   0  0  1  0  0  0  0  0  0  0  0  0
   23.5864  -25.9584   12.2417 O   0  0  0  0  0  0  0  0  0  0  0  0
   26.0381  -26.3423   12.1021 C   0  0  1  0  0  0  0  0  0  0  0  0
   27.0397  -25.4654   11.3852 O   0  0  0  0  0  0  0  0  0  0  0  0
   25.7707  -25.7927   13.1734 C   0  0  1  0  0  0  0  0  0  0  0  0
   26.1248  -24.3555   13.0904 O   0  0  0  0  0  0  0  0  0  0  0  0
   24.1287  -25.9634   13.3942 C   0  0  2  0  0  0  0  0  0  0  0  0
   25.5998  -29.4179   16.8996 N   0  0  0  0  0  0  0  0  0  0  0  0
   21.6234  -28.7606    8.3637 O   0  5  0  0  0  0  0  0  0  0  0  0
   22.4937  -32.1890   11.9691 O   0  5  0  0  0  0  0  0  0  0  0  0
   21.8349  -32.2640    7.8045 O   0  0  0  0  0  0  0  0  0  0  0  0
   26.2358  -28.3230   16.5130 C   0  0  0  0  0  0  0  0  0  0  0  0
   27.5137  -27.9941   17.1116 N   0  0  0  0  0  0  0  0  0  0  0  0
   23.9610  -29.5893    8.5718 O   0  0  0  0  0  0  0  0  0  0  0  0
   24.4675  -30.7769   11.5515 O   0  0  0  0  0  0  0  0  0  0  0  0
   23.3366  -34.2121    7.9421 O   0  5  0  0  0  0  0  0  0  0  0  0
   25.7434  -27.5155   15.5960 N   0  0  0  0  0  0  0  0  0  0  0  0
   22.2623  -30.1112   10.4476 O   0  0  0  0  0  0  0  0  0  0  0  0
   23.6142  -32.2818    9.6455 O   0  0  0  0  0  0  0  0  0  0  0  0
   21.5574  -33.8777    9.6431 O   0  0  0  0  0  0  0  0  0  0  0  0
   24.5660  -27.7831   15.0182 C   0  0  0  0  0  0  0  0  0  0  0  0
   23.8823  -28.9188   15.4027 C   0  0  0  0  0  0  0  0  0  0  0  0
   24.4276  -29.7670   16.3856 C   0  0  0  0  0  0  0  0  0  0  0  0
   23.7544  -30.9304   16.7982 O   0  0  0  0  0  0  0  0  0  0  0  0
   22.7439  -28.9673   14.6900 N   0  0  0  0  0  0  0  0  0  0  0  0
   22.7245  -27.9086   13.8990 C   0  0  0  0  0  0  0  0  0  0  0  0
   23.8138  -27.1857   14.0806 N   0  0  0  0  0  0  0  0  0  0  0  0
  1  5  1  1  0  0  0
  1 14  1  0  0  0  0
  1 19  2  0  0  0  0
  1 23  1  0  0  0  0
  2 15  1  1  0  0  0
  2 20  2  0  0  0  0
  2 23  1  0  0  0  0
  2 24  1  0  0  0  0
  3 16  1  6  0  0  0
  3 21  1  0  0  0  0
  3 24  1  0  0  0  0
  3 25  2  0  0  0  0
  4  5  1  0  0  0  0
  6  4  1  1  0  0  0
  6  7  1  0  0  0  0
  6  8  1  0  0  0  0
  7 12  1  0  0  0  0
  8  9  1  6  0  0  0
  8 10  1  0  0  0  0
 10 11  1  6  0  0  0
 10 12  1  0  0  0  0
 12 32  1  6  0  0  0
 13 17  2  0  0  0  0
 13 28  1  0  0  0  0
 17 18  1  0  0  0  0
 17 22  1  0  0  0  0
 22 26  2  0  0  0  0
 26 27  1  0  0  0  0
 26 32  1  0  0  0  0
 27 28  2  0  0  0  0
 27 30  1  0  0  0  0
 28 29  1  0  0  0  0
 30 31  2  0  0  0  0
 31 32  1  0  0  0  0
M  CHG  3  14  -1  15  -1  21  -1
M  END
>  <CHROM.1>
-168.05597770,-179.01864676,78.66383575,62.96141808,175.52348685,152.07587900
-102.64748723,54.97380531,23.88796614,-29.29428231,11.92236773,-2.93909424
1.20889329,2.22549684

>  <Name>
ligand

>  <RI>
0

>  <Rbt.Current_Directory>
/home/itssahil/PROJECTS/Mol_Feturizer/New_Systems/rnas/4Y1I

>  <Rbt.Executable>
rbdock ($Id: //depot/dev/client3/rdock/2013.1/src/exe/rbdock.cxx#4 $)

>  <Rbt.Library>
libRbt.so (2013.1, Build901 2013/11/27)

>  <Rbt.Parameter_File>
/export/apps/rDock/src/rDock_2013.1_src/data/scripts/dock_solv.prm

>  <Rbt.Receptor>
prm/blind_docking_100.prm

>  <SCORE>
-15.6647

>  <SCORE.INTER>
-9.89276

>  <SCORE.INTER.CONST>
1

>  <SCORE.INTER.POLAR>
0

>  <SCORE.INTER.ROT>
8

>  <SCORE.INTER.SOLV>
21.6183

>  <SCORE.INTER.VDW>
-22.7346

>  <SCORE.INTER.norm>
-0.309149

>  <SCORE.INTRA>
-5.77197

>  <SCORE.INTRA.DIHEDRAL>
-6.83736

>  <SCORE.INTRA.DIHEDRAL.0>
10.9594

>  <SCORE.INTRA.POLAR>
0

>  <SCORE.INTRA.POLAR.0>
0

>  <SCORE.INTRA.REPUL>
0

>  <SCORE.INTRA.REPUL.0>
0

>  <SCORE.INTRA.SOLV>
-2.80476

>  <SCORE.INTRA.SOLV.lig_0>
-124.914

>  <SCORE.INTRA.VDW>
-0.950906

>  <SCORE.INTRA.VDW.0>
-4.69801

>  <SCORE.INTRA.norm>
-0.180374

>  <SCORE.RESTR>
0

>  <SCORE.RESTR.CAVITY>
0

>  <SCORE.RESTR.norm>
0

>  <SCORE.SYSTEM>
0

>  <SCORE.SYSTEM.CONST>
0

>  <SCORE.SYSTEM.DIHEDRAL>
0

>  <SCORE.SYSTEM.SOLV>
0

>  <SCORE.SYSTEM.norm>
0

>  <SCORE.heavy>
32

>  <SCORE.norm>
-0.489523

>  <RMSD>
31.777

$$$$
ligand
 OpenBabel11021811513D
libRbt.so/2013.1/901 2013/11/27
 32 34  0  0  0  0  0  0  0  0999 V2000
   23.9318  -27.2542   13.1768 P   0  0  1  0  0  0  0  0  0  0  0  0
   26.4962  -26.4572   14.1867 P   0  0  2  0  0  0  0  0  0  0  0  0
   26.2883  -27.3313   16.9809 P   0  0  1  0  0  0  0  0  0  0  0  0
   24.6498  -27.9153   10.7605 C   0  0  0  0  0  0  0  0  0  0  0  0
   23.5845  -27.7879   11.6587 O   0  0  0  0  0  0  0  0  0  0  0  0
   24.2335  -28.6331    9.6448 C   0  0  1  0  0  0  0  0  0  0  0  0
   25.3006  -28.5791    8.5684 O   0  0  0  0  0  0  0  0  0  0  0  0
   24.0374  -30.1808    9.9885 C   0  0  1  0  0  0  0  0  0  0  0  0
   22.5783  -30.5480    9.8392 O   0  0  0  0  0  0  0  0  0  0  0  0
   24.6619  -30.8035    9.1263 C   0  0  1  0  0  0  0  0  0  0  0  0
   23.7303  -31.2253    8.0529 O   0  0  0  0  0  0  0  0  0  0  0  0
   25.7978  -29.7506    8.5139 C   0  0  2  0  0  0  0  0  0  0  0  0
   29.9302  -27.1821   10.1605 N   0  0  0  0  0  0  0  0  0  0  0  0
   22.7824  -26.4326   13.7057 O   0  5  0  0  0  0  0  0  0  0  0  0
   27.5224  -25.3736   13.9696 O   0  5  0  0  0  0  0  0  0  0  0  0
   25.5454  -26.8407   18.2015 O   0  0  0  0  0  0  0  0  0  0  0  0
   28.9342  -26.7353    9.4115 C   0  0  0  0  0  0  0  0  0  0  0  0
   28.9444  -25.3576    8.9627 N   0  0  0  0  0  0  0  0  0  0  0  0
   24.1948  -28.4503   14.0637 O   0  0  0  0  0  0  0  0  0  0  0  0
   27.1383  -27.8060   13.9938 O   0  0  0  0  0  0  0  0  0  0  0  0
   25.8658  -28.7531   16.6819 O   0  5  0  0  0  0  0  0  0  0  0  0
   27.9259  -27.5056    9.0571 N   0  0  0  0  0  0  0  0  0  0  0  0
   25.2717  -26.3066   13.1038 O   0  0  0  0  0  0  0  0  0  0  0  0
   25.8881  -26.3526   15.7115 O   0  0  0  0  0  0  0  0  0  0  0  0
   27.7758  -27.2704   17.2516 O   0  0  0  0  0  0  0  0  0  0  0  0
   27.8784  -28.7842    9.4504 C   0  0  0  0  0  0  0  0  0  0  0  0
   28.9047  -29.2755   10.2318 C   0  0  0  0  0  0  0  0  0  0  0  0
   29.9719  -28.4334   10.5990 C   0  0  0  0  0  0  0  0  0  0  0  0
   31.0310  -28.9051   11.3944 O   0  0  0  0  0  0  0  0  0  0  0  0
   28.6328  -30.5654   10.4936 N   0  0  0  0  0  0  0  0  0  0  0  0
   27.4892  -30.8593    9.8999 C   0  0  0  0  0  0  0  0  0  0  0  0
   27.0215  -29.8007    9.2651 N   0  0  0  0  0  0  0  0  0  0  0  0
  1  5  1  6  0  0  0
  1 14  1  0  0  0  0
  1 19  2  0  0  0  0
  1 23  1  0  0  0  0
  2 15  1  6  0  0  0
  2 20  2  0  0  0  0
  2 23  1  0  0  0  0
  2 24  1  0  0  0  0
  3 16  1  1  0  0  0
  3 21  1  0  0  0  0
  3 24  1  0  0  0  0
  3 25  2  0  0  0  0
  4  5  1  0  0  0  0
  6  4  1  1  0  0  0
  6  7  1  0  0  0  0
  6  8  1  0  0  0  0
  7 12  1  0  0  0  0
  8  9  1  6  0  0  0
  8 10  1  0  0  0  0
 10 11  1  6  0  0  0
 10 12  1  0  0  0  0
 12 32  1  1  0  0  0
 13 17  2  0  0  0  0
 13 28  1  0  0  0  0
 17 18  1  0  0  0  0
 17 22  1  0  0  0  0
 22 26  2  0  0  0  0
 26 27  1  0  0  0  0
 26 32  1  0  0  0  0
 27 28  2  0  0  0  0
 27 30  1  0  0  0  0
 28 29  1  0  0  0  0
 30 31  2  0  0  0  0
 31 32  1  0  0  0  0
M  CHG  3  14  -1  15  -1  21  -1
M  END
>  <CHROM.1>
146.77654307,-174.13016637,177.35798136,170.57376677,167.45063934,-30.37694111
-134.85294815,-103.09979430,26.21981505,-28.07034950,12.19222071,1.64097293
0.20186104,1.22826361

>  <Name>
ligand

>  <RI>
0

>  <Rbt.Current_Directory>
/home/itssahil/PROJECTS/Mol_Feturizer/New_Systems/rnas/4Y1I

>  <Rbt.Executable>
rbdock ($Id: //depot/dev/client3/rdock/2013.1/src/exe/rbdock.cxx#4 $)

>  <Rbt.Library>
libRbt.so (2013.1, Build901 2013/11/27)

>  <Rbt.Parameter_File>
/export/apps/rDock/src/rDock_2013.1_src/data/scripts/dock_solv.prm

>  <Rbt.Receptor>
prm/blind_docking_60.prm

>  <SCORE>
-13.6474

>  <SCORE.INTER>
-11.5417

>  <SCORE.INTER.CONST>
1

>  <SCORE.INTER.POLAR>
0

>  <SCORE.INTER.ROT>
8

>  <SCORE.INTER.SOLV>
23.9861

>  <SCORE.INTER.VDW>
-24.6231

>  <SCORE.INTER.norm>
-0.360678

>  <SCORE.INTRA>
-2.10569

>  <SCORE.INTRA.DIHEDRAL>
-3.23165

>  <SCORE.INTRA.DIHEDRAL.0>
10.9594

>  <SCORE.INTRA.POLAR>
0

>  <SCORE.INTRA.POLAR.0>
0

>  <SCORE.INTRA.REPUL>
0

>  <SCORE.INTRA.REPUL.0>
0

>  <SCORE.INTRA.SOLV>
-0.783419

>  <SCORE.INTRA.SOLV.lig_0>
-124.914

>  <SCORE.INTRA.VDW>
-0.0981541

>  <SCORE.INTRA.VDW.0>
-4.69801

>  <SCORE.INTRA.norm>
-0.0658028

>  <SCORE.RESTR>
0

>  <SCORE.RESTR.CAVITY>
0

>  <SCORE.RESTR.norm>
0

>  <SCORE.SYSTEM>
0

>  <SCORE.SYSTEM.CONST>
0

>  <SCORE.SYSTEM.DIHEDRAL>
0

>  <SCORE.SYSTEM.SOLV>
0

>  <SCORE.SYSTEM.norm>
0

>  <SCORE.heavy>
32

>  <SCORE.norm>
-0.42648

>  <RMSD>
31.926

$$$$
ligand
 OpenBabel11021811513D
libRbt.so/2013.1/901 2013/11/27
 32 34  0  0  0  0  0  0  0  0999 V2000
   26.0625  -30.0358   10.6866 P   0  0  1  0  0  0  0  0  0  0  0  0
   23.7958  -29.8618    8.9365 P   0  0  2  0  0  0  0  0  0  0  0  0
   22.6968  -32.5517    8.5217 P   0  0  1  0  0  0  0  0  0  0  0  0
   26.9053  -27.8590   11.8453 C   0  0  0  0  0  0  0  0  0  0  0  0
   25.9089  -28.4378   11.0515 O   0  0  0  0  0  0  0  0  0  0  0  0
   26.7323  -26.4797   11.8758 C   0  0  1  0  0  0  0  0  0  0  0  0
   25.4318  -26.1379   12.5772 O   0  0  0  0  0  0  0  0  0  0  0  0
   27.8853  -25.7672   12.7214 C   0  0  1  0  0  0  0  0  0  0  0  0
   28.7112  -24.8912   11.8068 O   0  0  0  0  0  0  0  0  0  0  0  0
   27.3118  -25.0238   13.5212 C   0  0  1  0  0  0  0  0  0  0  0  0
   27.2701  -23.6480   12.9705 O   0  0  0  0  0  0  0  0  0  0  0  0
   25.7648  -25.6170   13.6909 C   0  0  2  0  0  0  0  0  0  0  0  0
   23.0663  -29.4523   15.7871 N   0  0  0  0  0  0  0  0  0  0  0  0
   27.0802  -30.2140    9.5873 O   0  5  0  0  0  0  0  0  0  0  0  0
   24.7510  -29.0905    8.0607 O   0  5  0  0  0  0  0  0  0  0  0  0
   23.9273  -33.3871    8.2566 O   0  0  0  0  0  0  0  0  0  0  0  0
   22.7622  -28.7235   14.7245 C   0  0  0  0  0  0  0  0  0  0  0  0
   21.5274  -28.9847   14.0127 N   0  0  0  0  0  0  0  0  0  0  0  0
   26.4784  -30.7811   11.9347 O   0  0  0  0  0  0  0  0  0  0  0  0
   22.7858  -28.9180    9.5347 O   0  0  0  0  0  0  0  0  0  0  0  0
   22.3919  -32.5751   10.0037 O   0  5  0  0  0  0  0  0  0  0  0  0
   23.5492  -27.7613   14.2882 N   0  0  0  0  0  0  0  0  0  0  0  0
   24.6097  -30.5934   10.1600 O   0  0  0  0  0  0  0  0  0  0  0  0
   23.0176  -31.0033    8.0434 O   0  0  0  0  0  0  0  0  0  0  0  0
   21.5355  -33.1214    7.7367 O   0  0  0  0  0  0  0  0  0  0  0  0
   24.6986  -27.4877   14.9172 C   0  0  0  0  0  0  0  0  0  0  0  0
   25.0394  -28.2324   16.0281 C   0  0  0  0  0  0  0  0  0  0  0  0
   24.1830  -29.2566   16.4760 C   0  0  0  0  0  0  0  0  0  0  0  0
   24.5035  -30.0323   17.6041 O   0  0  0  0  0  0  0  0  0  0  0  0
   26.2207  -27.7743   16.4763 N   0  0  0  0  0  0  0  0  0  0  0  0
   26.5940  -26.7892   15.6782 C   0  0  0  0  0  0  0  0  0  0  0  0
   25.6895  -26.6005   14.7356 N   0  0  0  0  0  0  0  0  0  0  0  0
  1  5  1  1  0  0  0
  1 14  1  0  0  0  0
  1 19  2  0  0  0  0
  1 23  1  0  0  0  0
  2 15  1  6  0  0  0
  2 20  2  0  0  0  0
  2 23  1  0  0  0  0
  2 24  1  0  0  0  0
  3 16  1  6  0  0  0
  3 21  1  0  0  0  0
  3 24  1  0  0  0  0
  3 25  2  0  0  0  0
  4  5  1  0  0  0  0
  6  4  1  1  0  0  0
  6  7  1  0  0  0  0
  6  8  1  0  0  0  0
  7 12  1  0  0  0  0
  8  9  1  6  0  0  0
  8 10  1  0  0  0  0
 10 11  1  6  0  0  0
 10 12  1  0  0  0  0
 12 32  1  1  0  0  0
 13 17  2  0  0  0  0
 13 28  1  0  0  0  0
 17 18  1  0  0  0  0
 17 22  1  0  0  0  0
 22 26  2  0  0  0  0
 26 27  1  0  0  0  0
 26 32  1  0  0  0  0
 27 28  2  0  0  0  0
 27 30  1  0  0  0  0
 28 29  1  0  0  0  0
 30 31  2  0  0  0  0
 31 32  1  0  0  0  0
M  CHG  3  14  -1  15  -1  21  -1
M  END
>  <CHROM.1>
-77.94795119,23.77216422,-83.50356313,65.41021134,170.64973916,-43.92801790
53.37539186,138.57036901,24.87455963,-28.95163812,11.87089436,-2.10608222
0.84569144,1.26918085

>  <Name>
ligand

>  <RI>
0

>  <Rbt.Current_Directory>
/home/itssahil/PROJECTS/Mol_Feturizer/New_Systems/rnas/4Y1I

>  <Rbt.Executable>
rbdock ($Id: //depot/dev/client3/rdock/2013.1/src/exe/rbdock.cxx#4 $)

>  <Rbt.Library>
libRbt.so (2013.1, Build901 2013/11/27)

>  <Rbt.Parameter_File>
/export/apps/rDock/src/rDock_2013.1_src/data/scripts/dock_solv.prm

>  <Rbt.Receptor>
prm/blind_docking_60.prm

>  <SCORE>
-10.9263

>  <SCORE.INTER>
-6.25065

>  <SCORE.INTER.CONST>
1

>  <SCORE.INTER.POLAR>
0

>  <SCORE.INTER.ROT>
8

>  <SCORE.INTER.SOLV>
23.4804

>  <SCORE.INTER.VDW>
-20.9272

>  <SCORE.INTER.norm>
-0.195333

>  <SCORE.INTRA>
-4.67563

>  <SCORE.INTRA.DIHEDRAL>
-4.40524

>  <SCORE.INTRA.DIHEDRAL.0>
10.9594

>  <SCORE.INTRA.POLAR>
0

>  <SCORE.INTRA.POLAR.0>
0

>  <SCORE.INTRA.REPUL>
0

>  <SCORE.INTRA.REPUL.0>
0

>  <SCORE.INTRA.SOLV>
-5.27269

>  <SCORE.INTRA.SOLV.lig_0>
-124.914

>  <SCORE.INTRA.VDW>
0.163333

>  <SCORE.INTRA.VDW.0>
-4.69801

>  <SCORE.INTRA.norm>
-0.146113

>  <SCORE.RESTR>
0

>  <SCORE.RESTR.CAVITY>
0

>  <SCORE.RESTR.norm>
0

>  <SCORE.SYSTEM>
0

>  <SCORE.SYSTEM.CONST>
0

>  <SCORE.SYSTEM.DIHEDRAL>
0

>  <SCORE.SYSTEM.SOLV>
0

>  <SCORE.SYSTEM.norm>
0

>  <SCORE.heavy>
32

>  <SCORE.norm>
-0.341446

>  <RMSD>
31.935

$$$$
ligand
 OpenBabel11021811513D
libRbt.so/2013.1/901 2013/11/27
 32 34  0  0  0  0  0  0  0  0999 V2000
   26.8105  -28.5618    9.5357 P   0  0  1  0  0  0  0  0  0  0  0  0
   26.8967  -30.6876   11.4604 P   0  0  2  0  0  0  0  0  0  0  0  0
   25.3871  -32.7010    9.9495 P   0  0  1  0  0  0  0  0  0  0  0  0
   27.3771  -26.8222   11.3915 C   0  0  0  0  0  0  0  0  0  0  0  0
   26.9841  -27.0116   10.0620 O   0  0  0  0  0  0  0  0  0  0  0  0
   27.5471  -25.4642   11.6368 C   0  0  1  0  0  0  0  0  0  0  0  0
   26.2829  -24.7110   11.2699 O   0  0  0  0  0  0  0  0  0  0  0  0
   27.7903  -25.1794   13.1899 C   0  0  1  0  0  0  0  0  0  0  0  0
   29.1833  -24.6254   13.3873 O   0  0  0  0  0  0  0  0  0  0  0  0
   26.9948  -24.2901   13.5022 C   0  0  1  0  0  0  0  0  0  0  0  0
   27.6815  -22.9771   13.4543 O   0  0  0  0  0  0  0  0  0  0  0  0
   25.7706  -24.3347   12.3737 C   0  0  2  0  0  0  0  0  0  0  0  0
   24.4165  -28.2913   15.3564 N   0  0  0  0  0  0  0  0  0  0  0  0
   25.9164  -28.5924    8.3208 O   0  5  0  0  0  0  0  0  0  0  0  0
   26.2933  -30.9659   12.8142 O   0  5  0  0  0  0  0  0  0  0  0  0
   24.8429  -31.8039    8.8625 O   0  0  0  0  0  0  0  0  0  0  0  0
   25.5930  -27.6889   15.2810 C   0  0  0  0  0  0  0  0  0  0  0  0
   26.6833  -28.1506   16.1163 N   0  0  0  0  0  0  0  0  0  0  0  0
   28.1779  -29.1218    9.2151 O   0  0  0  0  0  0  0  0  0  0  0  0
   28.3445  -30.3052   11.6224 O   0  0  0  0  0  0  0  0  0  0  0  0
   25.6764  -34.0669    9.3662 O   0  5  0  0  0  0  0  0  0  0  0  0
   25.8088  -26.6762   14.4665 N   0  0  0  0  0  0  0  0  0  0  0  0
   26.1107  -29.4443   10.7316 O   0  0  0  0  0  0  0  0  0  0  0  0
   26.7866  -32.0286   10.5140 O   0  0  0  0  0  0  0  0  0  0  0  0
   24.3633  -32.8086   11.0584 O   0  0  0  0  0  0  0  0  0  0  0  0
   24.8286  -26.2192   13.6779 C   0  0  0  0  0  0  0  0  0  0  0  0
   23.5921  -26.8298   13.7366 C   0  0  0  0  0  0  0  0  0  0  0  0
   23.3842  -27.9103   14.6155 C   0  0  0  0  0  0  0  0  0  0  0  0
   22.1358  -28.5520   14.6978 O   0  0  0  0  0  0  0  0  0  0  0  0
   22.7873  -26.2002   12.8636 N   0  0  0  0  0  0  0  0  0  0  0  0
   23.4948  -25.2427   12.2897 C   0  0  0  0  0  0  0  0  0  0  0  0
   24.7262  -25.2404   12.7651 N   0  0  0  0  0  0  0  0  0  0  0  0
  1  5  1  1  0  0  0
  1 14  1  0  0  0  0
  1 19  2  0  0  0  0
  1 23  1  0  0  0  0
  2 15  1  1  0  0  0
  2 20  2  0  0  0  0
  2 23  1  0  0  0  0
  2 24  1  0  0  0  0
  3 16  1  6  0  0  0
  3 21  1  0  0  0  0
  3 24  1  0  0  0  0
  3 25  2  0  0  0  0
  4  5  1  0  0  0  0
  6  4  1  1  0  0  0
  6  7  1  0  0  0  0
  6  8  1  0  0  0  0
  7 12  1  0  0  0  0
  8  9  1  6  0  0  0
  8 10  1  0  0  0  0
 10 11  1  6  0  0  0
 10 12  1  0  0  0  0
 12 32  1  1  0  0  0
 13 17  2  0  0  0  0
 13 28  1  0  0  0  0
 17 18  1  0  0  0  0
 17 22  1  0  0  0  0
 22 26  2  0  0  0  0
 26 27  1  0  0  0  0
 26 32  1  0  0  0  0
 27 28  2  0  0  0  0
 27 30  1  0  0  0  0
 28 29  1  0  0  0  0
 30 31  2  0  0  0  0
 31 32  1  0  0  0  0
M  CHG  3  14  -1  15  -1  21  -1
M  END
>  <CHROM.1>
158.72519226,158.20811206,72.88910781,54.82620161,176.58901326,100.74485612
-115.99717406,66.36669942,25.99139010,-28.30133658,11.89371673,-1.60916640
0.81348772,0.48811303

>  <Name>
ligand

>  <RI>
0

>  <Rbt.Current_Directory>
/home/itssahil/PROJECTS/Mol_Feturizer/New_Systems/rnas/4Y1I

>  <Rbt.Executable>
rbdock ($Id: //depot/dev/client3/rdock/2013.1/src/exe/rbdock.cxx#4 $)

>  <Rbt.Library>
libRbt.so (2013.1, Build901 2013/11/27)

>  <Rbt.Parameter_File>
/export/apps/rDock/src/rDock_2013.1_src/data/scripts/dock_solv.prm

>  <Rbt.Receptor>
prm/blind_docking_60.prm

>  <SCORE>
-11.4246

>  <SCORE.INTER>
-6.75471

>  <SCORE.INTER.CONST>
1

>  <SCORE.INTER.POLAR>
0

>  <SCORE.INTER.ROT>
8

>  <SCORE.INTER.SOLV>
22.8538

>  <SCORE.INTER.VDW>
-21.0544

>  <SCORE.INTER.norm>
-0.211085

>  <SCORE.INTRA>
-4.66988

>  <SCORE.INTRA.DIHEDRAL>
-5.57615

>  <SCORE.INTRA.DIHEDRAL.0>
10.9594

>  <SCORE.INTRA.POLAR>
0

>  <SCORE.INTRA.POLAR.0>
0

>  <SCORE.INTRA.REPUL>
0

>  <SCORE.INTRA.REPUL.0>
0

>  <SCORE.INTRA.SOLV>
-3.14143

>  <SCORE.INTRA.SOLV.lig_0>
-124.914

>  <SCORE.INTRA.VDW>
-0.311089

>  <SCORE.INTRA.VDW.0>
-4.69801

>  <SCORE.INTRA.norm>
-0.145934

>  <SCORE.RESTR>
0

>  <SCORE.RESTR.CAVITY>
0

>  <SCORE.RESTR.norm>
0

>  <SCORE.SYSTEM>
0

>  <SCORE.SYSTEM.CONST>
0

>  <SCORE.SYSTEM.DIHEDRAL>
0

>  <SCORE.SYSTEM.SOLV>
0

>  <SCORE.SYSTEM.norm>
0

>  <SCORE.heavy>
32

>  <SCORE.norm>
-0.357019

>  <RMSD>
31.967

$$$$
ligand
 OpenBabel11021811513D
libRbt.so/2013.1/901 2013/11/27
 32 34  0  0  0  0  0  0  0  0999 V2000
   25.7386  -29.5725    9.4620 P   0  0  1  0  0  0  0  0  0  0  0  0
   23.2203  -30.2562    8.2695 P   0  0  2  0  0  0  0  0  0  0  0  0
   22.2683  -33.0322    8.3237 P   0  0  1  0  0  0  0  0  0  0  0  0
   25.6862  -27.6781   11.2508 C   0  0  0  0  0  0  0  0  0  0  0  0
   25.0595  -28.8313   10.7657 O   0  0  0  0  0  0  0  0  0  0  0  0
   24.7267  -26.7990   11.7406 C   0  0  1  0  0  0  0  0  0  0  0  0
   24.2122  -27.2902   13.0800 O   0  0  0  0  0  0  0  0  0  0  0  0
   25.3483  -25.3531   12.0148 C   0  0  1  0  0  0  0  0  0  0  0  0
   24.7122  -24.3473   11.0820 O   0  0  0  0  0  0  0  0  0  0  0  0
   25.0142  -25.0503   13.1628 C   0  0  1  0  0  0  0  0  0  0  0  0
   23.8025  -24.1975   13.1134 O   0  0  0  0  0  0  0  0  0  0  0  0
   24.6737  -26.4795   13.9473 C   0  0  2  0  0  0  0  0  0  0  0  0
   26.5483  -29.7434   17.4428 N   0  0  0  0  0  0  0  0  0  0  0  0
   27.0053  -28.8543    9.0676 O   0  5  0  0  0  0  0  0  0  0  0  0
   22.3473  -29.7976    7.1285 O   0  5  0  0  0  0  0  0  0  0  0  0
   21.1389  -32.6626    7.3908 O   0  0  0  0  0  0  0  0  0  0  0  0
   25.2807  -29.4940   17.1534 C   0  0  0  0  0  0  0  0  0  0  0  0
   24.2359  -30.1935   17.8736 N   0  0  0  0  0  0  0  0  0  0  0  0
   26.0225  -31.0147    9.8165 O   0  0  0  0  0  0  0  0  0  0  0  0
   22.5605  -29.9125    9.5792 O   0  0  0  0  0  0  0  0  0  0  0  0
   22.8208  -34.3824    7.9223 O   0  5  0  0  0  0  0  0  0  0  0  0
   24.9332  -28.6252   16.2260 N   0  0  0  0  0  0  0  0  0  0  0  0
   24.6774  -29.5026    8.2098 O   0  0  0  0  0  0  0  0  0  0  0  0
   23.4466  -31.8831    8.1801 O   0  0  0  0  0  0  0  0  0  0  0  0
   21.7413  -33.0798    9.7413 O   0  0  0  0  0  0  0  0  0  0  0  0
   25.8674  -27.9577   15.5379 C   0  0  0  0  0  0  0  0  0  0  0  0
   27.1968  -28.1986   15.8203 C   0  0  0  0  0  0  0  0  0  0  0  0
   27.5447  -29.1324   16.8153 C   0  0  0  0  0  0  0  0  0  0  0  0
   28.8900  -29.3993   17.1248 O   0  0  0  0  0  0  0  0  0  0  0  0
   27.9313  -27.4187   15.0088 N   0  0  0  0  0  0  0  0  0  0  0  0
   27.0932  -26.7255   14.2579 C   0  0  0  0  0  0  0  0  0  0  0  0
   25.8469  -27.0345   14.5637 N   0  0  0  0  0  0  0  0  0  0  0  0
  1  5  1  1  0  0  0
  1 14  1  0  0  0  0
  1 19  2  0  0  0  0
  1 23  1  0  0  0  0
  2 15  1  6  0  0  0
  2 20  2  0  0  0  0
  2 23  1  0  0  0  0
  2 24  1  0  0  0  0
  3 16  1  6  0  0  0
  3 21  1  0  0  0  0
  3 24  1  0  0  0  0
  3 25  2  0  0  0  0
  4  5  1  0  0  0  0
  6  4  1  1  0  0  0
  6  7  1  0  0  0  0
  6  8  1  0  0  0  0
  7 12  1  0  0  0  0
  8  9  1  6  0  0  0
  8 10  1  0  0  0  0
 10 11  1  6  0  0  0
 10 12  1  0  0  0  0
 12 32  1  6  0  0  0
 13 17  2  0  0  0  0
 13 28  1  0  0  0  0
 17 18  1  0  0  0  0
 17 22  1  0  0  0  0
 22 26  2  0  0  0  0
 26 27  1  0  0  0  0
 26 32  1  0  0  0  0
 27 28  2  0  0  0  0
 27 30  1  0  0  0  0
 28 29  1  0  0  0  0
 30 31  2  0  0  0  0
 31 32  1  0  0  0  0
M  CHG  3  14  -1  15  -1  21  -1
M  END
>  <CHROM.1>
2.64444989,168.30785045,50.34565692,75.19054201,146.09786251,-79.39176033
-63.82877350,-64.03380622,24.73401893,-29.15466638,11.68231312,3.13281672
1.19442068,2.64917568

>  <Name>
ligand

>  <RI>
0

>  <Rbt.Current_Directory>
/home/itssahil/PROJECTS/Mol_Feturizer/New_Systems/rnas/4Y1I

>  <Rbt.Executable>
rbdock ($Id: //depot/dev/client3/rdock/2013.1/src/exe/rbdock.cxx#4 $)

>  <Rbt.Library>
libRbt.so (2013.1, Build901 2013/11/27)

>  <Rbt.Parameter_File>
/export/apps/rDock/src/rDock_2013.1_src/data/scripts/dock_solv.prm

>  <Rbt.Receptor>
prm/blind_docking_60.prm

>  <SCORE>
-15.1751

>  <SCORE.INTER>
-12.4238

>  <SCORE.INTER.CONST>
1

>  <SCORE.INTER.POLAR>
0

>  <SCORE.INTER.ROT>
8

>  <SCORE.INTER.SOLV>
28.4946

>  <SCORE.INTER.VDW>
-26.7141

>  <SCORE.INTER.norm>
-0.388244

>  <SCORE.INTRA>
-2.79332

>  <SCORE.INTRA.DIHEDRAL>
-1.82112

>  <SCORE.INTRA.DIHEDRAL.0>
10.9594

>  <SCORE.INTRA.POLAR>
0

>  <SCORE.INTRA.POLAR.0>
0

>  <SCORE.INTRA.REPUL>
0

>  <SCORE.INTRA.REPUL.0>
0

>  <SCORE.INTRA.SOLV>
-4.88826

>  <SCORE.INTRA.SOLV.lig_0>
-124.914

>  <SCORE.INTRA.VDW>
0.561372

>  <SCORE.INTRA.VDW.0>
-4.69801

>  <SCORE.INTRA.norm>
-0.0872912

>  <SCORE.RESTR>
0.0420454

>  <SCORE.RESTR.CAVITY>
0.0420454

>  <SCORE.RESTR.norm>
0.00131392

>  <SCORE.SYSTEM>
0

>  <SCORE.SYSTEM.CONST>
0

>  <SCORE.SYSTEM.DIHEDRAL>
0

>  <SCORE.SYSTEM.SOLV>
0

>  <SCORE.SYSTEM.norm>
0

>  <SCORE.heavy>
32

>  <SCORE.norm>
-0.474222

>  <RMSD>
31.974

$$$$
ligand
 OpenBabel11021811513D
libRbt.so/2013.1/901 2013/11/27
 32 34  0  0  0  0  0  0  0  0999 V2000
   24.1903  -26.4967   12.8747 P   0  0  1  0  0  0  0  0  0  0  0  0
   26.5739  -27.1453   14.3337 P   0  0  2  0  0  0  0  0  0  0  0  0
   26.1368  -27.4786   17.2170 P   0  0  1  0  0  0  0  0  0  0  0  0
   24.8170  -27.6610   10.6290 C   0  0  0  0  0  0  0  0  0  0  0  0
   23.9022  -27.5986   11.6860 O   0  0  0  0  0  0  0  0  0  0  0  0
   24.3253  -28.5033    9.6381 C   0  0  1  0  0  0  0  0  0  0  0  0
   25.3527  -28.6553    8.5330 O   0  0  0  0  0  0  0  0  0  0  0  0
   24.0680  -29.9760   10.2012 C   0  0  1  0  0  0  0  0  0  0  0  0
   22.5883  -30.2828   10.1491 O   0  0  0  0  0  0  0  0  0  0  0  0
   24.6292  -30.7442    9.4162 C   0  0  1  0  0  0  0  0  0  0  0  0
   23.6389  -31.2607    8.4414 O   0  0  0  0  0  0  0  0  0  0  0  0
   25.7907  -29.8477    8.6282 C   0  0  2  0  0  0  0  0  0  0  0  0
   29.8944  -27.1504   10.1347 N   0  0  0  0  0  0  0  0  0  0  0  0
   23.6566  -25.1473   12.4616 O   0  5  0  0  0  0  0  0  0  0  0  0
   27.9760  -26.6140   14.4949 O   0  5  0  0  0  0  0  0  0  0  0  0
   27.6130  -27.2304   17.4208 O   0  0  0  0  0  0  0  0  0  0  0  0
   28.8632  -26.7371    9.4147 C   0  0  0  0  0  0  0  0  0  0  0  0
   28.8192  -25.3622    8.9594 N   0  0  0  0  0  0  0  0  0  0  0  0
   23.5295  -26.9727   14.1486 O   0  0  0  0  0  0  0  0  0  0  0  0
   26.6252  -28.6180   14.0218 O   0  0  0  0  0  0  0  0  0  0  0  0
   25.3579  -26.7345   18.2797 O   0  5  0  0  0  0  0  0  0  0  0  0
   27.8676  -27.5385    9.0952 N   0  0  0  0  0  0  0  0  0  0  0  0
   25.8138  -26.3797   13.0964 O   0  0  0  0  0  0  0  0  0  0  0  0
   25.7243  -26.9084   15.7223 O   0  0  0  0  0  0  0  0  0  0  0  0
   25.8689  -28.9647   17.3123 O   0  0  0  0  0  0  0  0  0  0  0  0
   27.8698  -28.8157    9.4957 C   0  0  0  0  0  0  0  0  0  0  0  0
   28.9334  -29.2725   10.2474 C   0  0  0  0  0  0  0  0  0  0  0  0
   29.9863  -28.3976   10.5776 C   0  0  0  0  0  0  0  0  0  0  0  0
   31.0826  -28.8337   11.3422 O   0  0  0  0  0  0  0  0  0  0  0  0
   28.7078  -30.5683   10.5234 N   0  0  0  0  0  0  0  0  0  0  0  0
   27.5555  -30.8988    9.9667 C   0  0  0  0  0  0  0  0  0  0  0  0
   27.0378  -29.8578    9.3416 N   0  0  0  0  0  0  0  0  0  0  0  0
  1  5  1  6  0  0  0
  1 14  1  0  0  0  0
  1 19  2  0  0  0  0
  1 23  1  0  0  0  0
  2 15  1  1  0  0  0
  2 20  2  0  0  0  0
  2 23  1  0  0  0  0
  2 24  1  0  0  0  0
  3 16  1  1  0  0  0
  3 21  1  0  0  0  0
  3 24  1  0  0  0  0
  3 25  2  0  0  0  0
  4  5  1  0  0  0  0
  6  4  1  1  0  0  0
  6  7  1  0  0  0  0
  6  8  1  0  0  0  0
  7 12  1  0  0  0  0
  8  9  1  6  0  0  0
  8 10  1  0  0  0  0
 10 11  1  6  0  0  0
 10 12  1  0  0  0  0
 12 32  1  1  0  0  0
 13 17  2  0  0  0  0
 13 28  1  0  0  0  0
 17 18  1  0  0  0  0
 17 22  1  0  0  0  0
 22 26  2  0  0  0  0
 26 27  1  0  0  0  0
 26 32  1  0  0  0  0
 27 28  2  0  0  0  0
 27 30  1  0  0  0  0
 28 29  1  0  0  0  0
 30 31  2  0  0  0  0
 31 32  1  0  0  0  0
M  CHG  3  14  -1  15  -1  21  -1
M  END
>  <CHROM.1>
83.67288442,-166.60793856,44.70852551,-175.99371315,-171.83452789,-21.39839561
-100.41211386,-57.87408763,26.25105048,-28.04972898,12.24318815,1.66464565
0.10336957,1.27576549

>  <Name>
ligand

>  <RI>
0

>  <Rbt.Current_Directory>
/home/itssahil/PROJECTS/Mol_Feturizer/New_Systems/rnas/4Y1I

>  <Rbt.Executable>
rbdock ($Id: //depot/dev/client3/rdock/2013.1/src/exe/rbdock.cxx#4 $)

>  <Rbt.Library>
libRbt.so (2013.1, Build901 2013/11/27)

>  <Rbt.Parameter_File>
/export/apps/rDock/src/rDock_2013.1_src/data/scripts/dock_solv.prm

>  <Rbt.Receptor>
prm/blind_docking_60.prm

>  <SCORE>
-14.9907

>  <SCORE.INTER>
-9.90202

>  <SCORE.INTER.CONST>
1

>  <SCORE.INTER.POLAR>
0

>  <SCORE.INTER.ROT>
8

>  <SCORE.INTER.SOLV>
27.762

>  <SCORE.INTER.VDW>
-24.7887

>  <SCORE.INTER.norm>
-0.309438

>  <SCORE.INTRA>
-5.08865

>  <SCORE.INTRA.DIHEDRAL>
-5.96745

>  <SCORE.INTRA.DIHEDRAL.0>
10.9594

>  <SCORE.INTRA.POLAR>
0

>  <SCORE.INTRA.POLAR.0>
0

>  <SCORE.INTRA.REPUL>
0

>  <SCORE.INTRA.REPUL.0>
0

>  <SCORE.INTRA.SOLV>
-4.28098

>  <SCORE.INTRA.SOLV.lig_0>
-124.914

>  <SCORE.INTRA.VDW>
0.0355622

>  <SCORE.INTRA.VDW.0>
-4.69801

>  <SCORE.INTRA.norm>
-0.15902

>  <SCORE.RESTR>
0

>  <SCORE.RESTR.CAVITY>
0

>  <SCORE.RESTR.norm>
0

>  <SCORE.SYSTEM>
0

>  <SCORE.SYSTEM.CONST>
0

>  <SCORE.SYSTEM.DIHEDRAL>
0

>  <SCORE.SYSTEM.SOLV>
0

>  <SCORE.SYSTEM.norm>
0

>  <SCORE.heavy>
32

>  <SCORE.norm>
-0.468459

>  <RMSD>
31.988

$$$$
ligand
 OpenBabel11021811513D
libRbt.so/2013.1/901 2013/11/27
 32 34  0  0  0  0  0  0  0  0999 V2000
   25.8747  -28.6219    9.9279 P   0  0  1  0  0  0  0  0  0  0  0  0
   28.0110  -26.9548    8.9856 P   0  0  2  0  0  0  0  0  0  0  0  0
   29.5354  -24.9385    7.4936 P   0  0  1  0  0  0  0  0  0  0  0  0
   26.9615  -28.8683   12.2836 C   0  0  0  0  0  0  0  0  0  0  0  0
   25.9996  -28.2034   11.5151 O   0  0  0  0  0  0  0  0  0  0  0  0
   26.7544  -28.5897   13.6300 C   0  0  1  0  0  0  0  0  0  0  0  0
   25.2675  -28.5271   13.9215 O   0  0  0  0  0  0  0  0  0  0  0  0
   27.3337  -29.7520   14.5604 C   0  0  1  0  0  0  0  0  0  0  0  0
   28.4723  -29.2085   15.3937 O   0  0  0  0  0  0  0  0  0  0  0  0
   26.4234  -30.0534   15.3362 C   0  0  1  0  0  0  0  0  0  0  0  0
   26.6121  -29.3340   16.6187 O   0  0  0  0  0  0  0  0  0  0  0  0
   25.0054  -29.5649   14.6119 C   0  0  2  0  0  0  0  0  0  0  0  0
   20.8211  -31.4860   12.3344 N   0  0  0  0  0  0  0  0  0  0  0  0
   26.7236  -29.8380    9.6511 O   0  5  0  0  0  0  0  0  0  0  0  0
   28.8124  -27.9945    8.2434 O   0  5  0  0  0  0  0  0  0  0  0  0
   30.3886  -26.1317    7.1321 O   0  0  0  0  0  0  0  0  0  0  0  0
   20.9118  -30.4187   13.1125 C   0  0  0  0  0  0  0  0  0  0  0  0
   19.7205  -29.6461   13.4016 N   0  0  0  0  0  0  0  0  0  0  0  0
   24.4215  -28.8930    9.6101 O   0  0  0  0  0  0  0  0  0  0  0  0
   28.5022  -26.8585   10.4062 O   0  0  0  0  0  0  0  0  0  0  0  0
   29.1524  -24.2018    6.2286 O   0  5  0  0  0  0  0  0  0  0  0  0
   22.0564  -30.0315   13.6374 N   0  0  0  0  0  0  0  0  0  0  0  0
   26.4237  -27.3725    9.0133 O   0  0  0  0  0  0  0  0  0  0  0  0
   28.1747  -25.4932    8.2488 O   0  0  0  0  0  0  0  0  0  0  0  0
   30.3220  -24.0304    8.4135 O   0  0  0  0  0  0  0  0  0  0  0  0
   23.1800  -30.7174   13.3954 C   0  0  0  0  0  0  0  0  0  0  0  0
   23.1133  -31.8346   12.5876 C   0  0  0  0  0  0  0  0  0  0  0  0
   21.8788  -32.2294   12.0368 C   0  0  0  0  0  0  0  0  0  0  0  0
   21.7796  -33.3622   11.2100 O   0  0  0  0  0  0  0  0  0  0  0  0
   24.3538  -32.3436   12.4966 N   0  0  0  0  0  0  0  0  0  0  0  0
   25.1527  -31.5756   13.2167 C   0  0  0  0  0  0  0  0  0  0  0  0
   24.4638  -30.5934   13.7673 N   0  0  0  0  0  0  0  0  0  0  0  0
  1  5  1  1  0  0  0
  1 14  1  0  0  0  0
  1 19  2  0  0  0  0
  1 23  1  0  0  0  0
  2 15  1  6  0  0  0
  2 20  2  0  0  0  0
  2 23  1  0  0  0  0
  2 24  1  0  0  0  0
  3 16  1  6  0  0  0
  3 21  1  0  0  0  0
  3 24  1  0  0  0  0
  3 25  2  0  0  0  0
  4  5  1  0  0  0  0
  6  4  1  6  0  0  0
  6  7  1  0  0  0  0
  6  8  1  0  0  0  0
  7 12  1  0  0  0  0
  8  9  1  1  0  0  0
  8 10  1  0  0  0  0
 10 11  1  1  0  0  0
 10 12  1  0  0  0  0
 12 32  1  6  0  0  0
 13 17  2  0  0  0  0
 13 28  1  0  0  0  0
 17 18  1  0  0  0  0
 17 22  1  0  0  0  0
 22 26  2  0  0  0  0
 26 27  1  0  0  0  0
 26 32  1  0  0  0  0
 27 28  2  0  0  0  0
 27 30  1  0  0  0  0
 28 29  1  0  0  0  0
 30 31  2  0  0  0  0
 31 32  1  0  0  0  0
M  CHG  3  14  -1  15  -1  21  -1
M  END
>  <CHROM.1>
8.65594189,71.34336115,21.13586614,37.62705293,-168.36360798,-83.96722411
68.98621798,-34.37694093,26.04742198,-28.66264356,11.24331844,0.77657078
-0.51135661,-1.26519471

>  <Name>
ligand

>  <RI>
0

>  <Rbt.Current_Directory>
/home/itssahil/PROJECTS/Mol_Feturizer/New_Systems/rnas/4Y1I

>  <Rbt.Executable>
rbdock ($Id: //depot/dev/client3/rdock/2013.1/src/exe/rbdock.cxx#4 $)

>  <Rbt.Library>
libRbt.so (2013.1, Build901 2013/11/27)

>  <Rbt.Parameter_File>
/export/apps/rDock/src/rDock_2013.1_src/data/scripts/dock_solv.prm

>  <Rbt.Receptor>
prm/blind_docking_80.prm

>  <SCORE>
-9.82078

>  <SCORE.INTER>
-7.56403

>  <SCORE.INTER.CONST>
1

>  <SCORE.INTER.POLAR>
0

>  <SCORE.INTER.ROT>
8

>  <SCORE.INTER.SOLV>
21.5839

>  <SCORE.INTER.VDW>
-21.1706

>  <SCORE.INTER.norm>
-0.236376

>  <SCORE.INTRA>
-2.25716

>  <SCORE.INTRA.DIHEDRAL>
-2.27229

>  <SCORE.INTRA.DIHEDRAL.0>
10.9594

>  <SCORE.INTRA.POLAR>
0

>  <SCORE.INTRA.POLAR.0>
0

>  <SCORE.INTRA.REPUL>
0

>  <SCORE.INTRA.REPUL.0>
0

>  <SCORE.INTRA.SOLV>
-3.25789

>  <SCORE.INTRA.SOLV.lig_0>
-124.914

>  <SCORE.INTRA.VDW>
0.507927

>  <SCORE.INTRA.VDW.0>
-4.69801

>  <SCORE.INTRA.norm>
-0.0705364

>  <SCORE.RESTR>
0.000406934

>  <SCORE.RESTR.CAVITY>
0.000406934

>  <SCORE.RESTR.norm>
1.27167e-05

>  <SCORE.SYSTEM>
0

>  <SCORE.SYSTEM.CONST>
0

>  <SCORE.SYSTEM.DIHEDRAL>
0

>  <SCORE.SYSTEM.SOLV>
0

>  <SCORE.SYSTEM.norm>
0

>  <SCORE.heavy>
32

>  <SCORE.norm>
-0.3069

>  <RMSD>
32.036

$$$$
ligand
 OpenBabel11021811513D
libRbt.so/2013.1/901 2013/11/27
 32 34  0  0  0  0  0  0  0  0999 V2000
   25.1011  -25.5463   12.5606 P   0  0  1  0  0  0  0  0  0  0  0  0
   25.8247  -26.9066   14.9808 P   0  0  2  0  0  0  0  0  0  0  0  0
   24.3471  -29.3423   15.6872 P   0  0  1  0  0  0  0  0  0  0  0  0
   27.5459  -25.9695   11.7635 C   0  0  0  0  0  0  0  0  0  0  0  0
   26.4257  -25.1358   11.6734 O   0  0  0  0  0  0  0  0  0  0  0  0
   28.5660  -25.4649   10.9648 C   0  0  1  0  0  0  0  0  0  0  0  0
   29.8595  -26.2029   11.2519 O   0  0  0  0  0  0  0  0  0  0  0  0
   28.2624  -25.7018    9.4144 C   0  0  1  0  0  0  0  0  0  0  0  0
   28.0816  -24.3669    8.7278 O   0  0  0  0  0  0  0  0  0  0  0  0
   29.2772  -26.2214    8.9437 C   0  0  1  0  0  0  0  0  0  0  0  0
   30.1202  -25.1748    8.3178 O   0  0  0  0  0  0  0  0  0  0  0  0
   30.0873  -26.9169   10.2219 C   0  0  2  0  0  0  0  0  0  0  0  0
   26.4407  -30.4418    9.4077 N   0  0  0  0  0  0  0  0  0  0  0  0
   23.9986  -24.5430   12.3281 O   0  5  0  0  0  0  0  0  0  0  0  0
   26.2748  -26.5834   16.3834 O   0  5  0  0  0  0  0  0  0  0  0  0
   24.9778  -29.3055   17.0595 O   0  0  0  0  0  0  0  0  0  0  0  0
   26.4739  -29.1869    8.9871 C   0  0  0  0  0  0  0  0  0  0  0  0
   25.3768  -28.6743    8.1913 N   0  0  0  0  0  0  0  0  0  0  0  0
   24.6605  -26.9364   12.1607 O   0  0  0  0  0  0  0  0  0  0  0  0
   26.9154  -27.6558   14.2611 O   0  0  0  0  0  0  0  0  0  0  0  0
   22.8901  -29.7278   15.8217 O   0  5  0  0  0  0  0  0  0  0  0  0
   27.4776  -28.3815    9.2689 N   0  0  0  0  0  0  0  0  0  0  0  0
   25.5106  -25.5252   14.1514 O   0  0  0  0  0  0  0  0  0  0  0  0
   24.4651  -27.8311   15.0300 O   0  0  0  0  0  0  0  0  0  0  0  0
   25.0820  -30.3527   14.8338 O   0  0  0  0  0  0  0  0  0  0  0  0
   28.5104  -28.8155   10.0014 C   0  0  0  0  0  0  0  0  0  0  0  0
   28.5005  -30.1198   10.4530 C   0  0  0  0  0  0  0  0  0  0  0  0
   27.4173  -30.9629   10.1388 C   0  0  0  0  0  0  0  0  0  0  0  0
   27.3794  -32.2960   10.5841 O   0  0  0  0  0  0  0  0  0  0  0  0
   29.6298  -30.3140   11.1554 N   0  0  0  0  0  0  0  0  0  0  0  0
   30.3081  -29.1797   11.1395 C   0  0  0  0  0  0  0  0  0  0  0  0
   29.6490  -28.2657   10.4521 N   0  0  0  0  0  0  0  0  0  0  0  0
  1  5  1  6  0  0  0
  1 14  1  0  0  0  0
  1 19  2  0  0  0  0
  1 23  1  0  0  0  0
  2 15  1  1  0  0  0
  2 20  2  0  0  0  0
  2 23  1  0  0  0  0
  2 24  1  0  0  0  0
  3 16  1  1  0  0  0
  3 21  1  0  0  0  0
  3 24  1  0  0  0  0
  3 25  2  0  0  0  0
  4  5  1  0  0  0  0
  6  4  1  1  0  0  0
  6  7  1  0  0  0  0
  6  8  1  0  0  0  0
  7 12  1  0  0  0  0
  8  9  1  6  0  0  0
  8 10  1  0  0  0  0
 10 11  1  1  0  0  0
 10 12  1  0  0  0  0
 12 32  1  1  0  0  0
 13 17  2  0  0  0  0
 13 28  1  0  0  0  0
 17 18  1  0  0  0  0
 17 22  1  0  0  0  0
 22 26  2  0  0  0  0
 26 27  1  0  0  0  0
 26 32  1  0  0  0  0
 27 28  2  0  0  0  0
 27 30  1  0  0  0  0
 28 29  1  0  0  0  0
 30 31  2  0  0  0  0
 31 32  1  0  0  0  0
M  CHG  3  14  -1  15  -1  21  -1
M  END
>  <CHROM.1>
-179.57873278,175.65740917,48.35492303,169.40709850,-179.37289860,101.21918701
-101.50630448,-62.59227865,26.76581288,-27.65239321,12.13831787,2.99022700
-0.96520868,3.11452723

>  <Name>
ligand

>  <RI>
0

>  <Rbt.Current_Directory>
/home/itssahil/PROJECTS/Mol_Feturizer/New_Systems/rnas/4Y1I

>  <Rbt.Executable>
rbdock ($Id: //depot/dev/client3/rdock/2013.1/src/exe/rbdock.cxx#4 $)

>  <Rbt.Library>
libRbt.so (2013.1, Build901 2013/11/27)

>  <Rbt.Parameter_File>
/export/apps/rDock/src/rDock_2013.1_src/data/scripts/dock_solv.prm

>  <Rbt.Receptor>
prm/blind_docking_60.prm

>  <SCORE>
-15.0456

>  <SCORE.INTER>
-9.71107

>  <SCORE.INTER.CONST>
1

>  <SCORE.INTER.POLAR>
0

>  <SCORE.INTER.ROT>
8

>  <SCORE.INTER.SOLV>
29.2035

>  <SCORE.INTER.VDW>
-25.1419

>  <SCORE.INTER.norm>
-0.303471

>  <SCORE.INTRA>
-5.3345

>  <SCORE.INTRA.DIHEDRAL>
-7.18214

>  <SCORE.INTRA.DIHEDRAL.0>
10.9594

>  <SCORE.INTRA.POLAR>
0

>  <SCORE.INTRA.POLAR.0>
0

>  <SCORE.INTRA.REPUL>
0

>  <SCORE.INTRA.REPUL.0>
0

>  <SCORE.INTRA.SOLV>
-3.0973

>  <SCORE.INTRA.SOLV.lig_0>
-124.914

>  <SCORE.INTRA.VDW>
-0.194783

>  <SCORE.INTRA.VDW.0>
-4.69801

>  <SCORE.INTRA.norm>
-0.166703

>  <SCORE.RESTR>
0

>  <SCORE.RESTR.CAVITY>
0

>  <SCORE.RESTR.norm>
0

>  <SCORE.SYSTEM>
0

>  <SCORE.SYSTEM.CONST>
0

>  <SCORE.SYSTEM.DIHEDRAL>
0

>  <SCORE.SYSTEM.SOLV>
0

>  <SCORE.SYSTEM.norm>
0

>  <SCORE.heavy>
32

>  <SCORE.norm>
-0.470174

>  <RMSD>
32.037

$$$$
ligand
 OpenBabel11021811513D
libRbt.so/2013.1/901 2013/11/27
 32 34  0  0  0  0  0  0  0  0999 V2000
   24.5652  -27.2967   13.0528 P   0  0  1  0  0  0  0  0  0  0  0  0
   26.5628  -29.2853   13.5879 P   0  0  2  0  0  0  0  0  0  0  0  0
   27.8027  -28.7577   16.1955 P   0  0  1  0  0  0  0  0  0  0  0  0
   25.1480  -28.4663   10.7980 C   0  0  0  0  0  0  0  0  0  0  0  0
   24.1402  -27.8840   11.5747 O   0  0  0  0  0  0  0  0  0  0  0  0
   24.6787  -28.6708    9.5053 C   0  0  1  0  0  0  0  0  0  0  0  0
   25.7011  -29.4516    8.7023 O   0  0  0  0  0  0  0  0  0  0  0  0
   23.3502  -29.5581    9.5021 C   0  0  1  0  0  0  0  0  0  0  0  0
   22.1940  -28.7303    8.9883 O   0  0  0  0  0  0  0  0  0  0  0  0
   23.5455  -30.4614    8.6853 C   0  0  1  0  0  0  0  0  0  0  0  0
   22.9457  -30.0846    7.3829 O   0  0  0  0  0  0  0  0  0  0  0  0
   25.1973  -30.6088    8.5309 C   0  0  2  0  0  0  0  0  0  0  0  0
   24.3897  -34.8101   11.3737 N   0  0  0  0  0  0  0  0  0  0  0  0
   25.6450  -26.2545   12.8980 O   0  5  0  0  0  0  0  0  0  0  0  0
   27.4623  -28.3529   12.8160 O   0  5  0  0  0  0  0  0  0  0  0  0
   28.8795  -29.4724   16.9777 O   0  0  0  0  0  0  0  0  0  0  0  0
   23.5573  -34.2215   10.5292 C   0  0  0  0  0  0  0  0  0  0  0  0
   22.2339  -34.7775   10.3313 N   0  0  0  0  0  0  0  0  0  0  0  0
   23.3381  -26.7102   13.7134 O   0  0  0  0  0  0  0  0  0  0  0  0
   26.2523  -30.4967   12.7484 O   0  0  0  0  0  0  0  0  0  0  0  0
   28.3766  -27.4854   15.6110 O   0  5  0  0  0  0  0  0  0  0  0  0
   23.8927  -33.1392    9.8571 N   0  0  0  0  0  0  0  0  0  0  0  0
   25.1501  -28.5359   13.9589 O   0  0  0  0  0  0  0  0  0  0  0  0
   27.3079  -29.7570   14.9766 O   0  0  0  0  0  0  0  0  0  0  0  0
   26.6502  -28.4376   17.1223 O   0  0  0  0  0  0  0  0  0  0  0  0
   25.1053  -32.5938   10.0112 C   0  0  0  0  0  0  0  0  0  0  0  0
   25.9925  -33.1875   10.8861 C   0  0  0  0  0  0  0  0  0  0  0  0
   25.6124  -34.3444   11.5933 C   0  0  0  0  0  0  0  0  0  0  0  0
   26.4943  -34.9718   12.4908 O   0  0  0  0  0  0  0  0  0  0  0  0
   27.1256  -32.4652   10.8666 N   0  0  0  0  0  0  0  0  0  0  0  0
   26.9472  -31.4682   10.0176 C   0  0  0  0  0  0  0  0  0  0  0  0
   25.7365  -31.5275    9.4950 N   0  0  0  0  0  0  0  0  0  0  0  0
  1  5  1  6  0  0  0
  1 14  1  0  0  0  0
  1 19  2  0  0  0  0
  1 23  1  0  0  0  0
  2 15  1  6  0  0  0
  2 20  2  0  0  0  0
  2 23  1  0  0  0  0
  2 24  1  0  0  0  0
  3 16  1  1  0  0  0
  3 21  1  0  0  0  0
  3 24  1  0  0  0  0
  3 25  2  0  0  0  0
  4  5  1  0  0  0  0
  6  4  1  1  0  0  0
  6  7  1  0  0  0  0
  6  8  1  0  0  0  0
  7 12  1  0  0  0  0
  8  9  1  6  0  0  0
  8 10  1  0  0  0  0
 10 11  1  6  0  0  0
 10 12  1  0  0  0  0
 12 32  1  1  0  0  0
 13 17  2  0  0  0  0
 13 28  1  0  0  0  0
 17 18  1  0  0  0  0
 17 22  1  0  0  0  0
 22 26  2  0  0  0  0
 26 27  1  0  0  0  0
 26 32  1  0  0  0  0
 27 28  2  0  0  0  0
 27 30  1  0  0  0  0
 28 29  1  0  0  0  0
 30 31  2  0  0  0  0
 31 32  1  0  0  0  0
M  CHG  3  14  -1  15  -1  21  -1
M  END
>  <CHROM.1>
58.09969013,25.70253280,-157.91490424,-173.20039676,-168.74270493,149.53567718
67.31949568,60.69575012,25.49555867,-30.06852498,12.07054067,0.80171225,-0.99075063
0.29435891

>  <Name>
ligand

>  <RI>
0

>  <Rbt.Current_Directory>
/home/itssahil/PROJECTS/Mol_Feturizer/New_Systems/rnas/4Y1I

>  <Rbt.Executable>
rbdock ($Id: //depot/dev/client3/rdock/2013.1/src/exe/rbdock.cxx#4 $)

>  <Rbt.Library>
libRbt.so (2013.1, Build901 2013/11/27)

>  <Rbt.Parameter_File>
/export/apps/rDock/src/rDock_2013.1_src/data/scripts/dock_solv.prm

>  <Rbt.Receptor>
prm/blind_docking_60.prm

>  <SCORE>
-14.8888

>  <SCORE.INTER>
-10.9695

>  <SCORE.INTER.CONST>
1

>  <SCORE.INTER.POLAR>
0

>  <SCORE.INTER.ROT>
8

>  <SCORE.INTER.SOLV>
18.5666

>  <SCORE.INTER.VDW>
-22.4352

>  <SCORE.INTER.norm>
-0.342796

>  <SCORE.INTRA>
-3.91937

>  <SCORE.INTRA.DIHEDRAL>
-6.72875

>  <SCORE.INTRA.DIHEDRAL.0>
10.9594

>  <SCORE.INTRA.POLAR>
0

>  <SCORE.INTRA.POLAR.0>
0

>  <SCORE.INTRA.REPUL>
0

>  <SCORE.INTRA.REPUL.0>
0

>  <SCORE.INTRA.SOLV>
0.0124043

>  <SCORE.INTRA.SOLV.lig_0>
-124.914

>  <SCORE.INTRA.VDW>
-0.5612

>  <SCORE.INTRA.VDW.0>
-4.69801

>  <SCORE.INTRA.norm>
-0.12248

>  <SCORE.RESTR>
0

>  <SCORE.RESTR.CAVITY>
0

>  <SCORE.RESTR.norm>
0

>  <SCORE.SYSTEM>
0

>  <SCORE.SYSTEM.CONST>
0

>  <SCORE.SYSTEM.DIHEDRAL>
0

>  <SCORE.SYSTEM.SOLV>
0

>  <SCORE.SYSTEM.norm>
0

>  <SCORE.heavy>
32

>  <SCORE.norm>
-0.465276

>  <RMSD>
32.077

$$$$
ligand
 OpenBabel11021811513D
libRbt.so/2013.1/901 2013/11/27
 32 34  0  0  0  0  0  0  0  0999 V2000
   27.1326  -26.9634   11.1290 P   0  0  1  0  0  0  0  0  0  0  0  0
   26.3255  -27.7444   13.7690 P   0  0  2  0  0  0  0  0  0  0  0  0
   26.1240  -27.7549   16.6973 P   0  0  1  0  0  0  0  0  0  0  0  0
   26.0673  -29.0494    9.9868 C   0  0  0  0  0  0  0  0  0  0  0  0
   25.9427  -27.6800   10.2455 O   0  0  0  0  0  0  0  0  0  0  0  0
   25.2128  -29.4060    8.9495 C   0  0  1  0  0  0  0  0  0  0  0  0
   25.6061  -30.7638    8.4002 O   0  0  0  0  0  0  0  0  0  0  0  0
   23.7079  -29.5613    9.4627 C   0  0  1  0  0  0  0  0  0  0  0  0
   22.8433  -28.5055    8.8117 O   0  0  0  0  0  0  0  0  0  0  0  0
   23.3190  -30.6575    9.0522 C   0  0  1  0  0  0  0  0  0  0  0  0
   22.5601  -30.4696    7.7925 O   0  0  0  0  0  0  0  0  0  0  0  0
   24.6854  -31.5652    8.7644 C   0  0  2  0  0  0  0  0  0  0  0  0
   24.9062  -36.1067   11.1543 N   0  0  0  0  0  0  0  0  0  0  0  0
   28.2914  -27.9153   11.2936 O   0  5  0  0  0  0  0  0  0  0  0  0
   27.5405  -28.6345   13.8454 O   0  5  0  0  0  0  0  0  0  0  0  0
   25.6212  -26.7732   17.7296 O   0  0  0  0  0  0  0  0  0  0  0  0
   24.3935  -35.8323    9.9649 C   0  0  0  0  0  0  0  0  0  0  0  0
   23.8030  -36.8989    9.1818 N   0  0  0  0  0  0  0  0  0  0  0  0
   27.5674  -25.6991   10.4228 O   0  0  0  0  0  0  0  0  0  0  0  0
   25.1177  -28.5693   13.4091 O   0  0  0  0  0  0  0  0  0  0  0  0
   25.2212  -28.9692   16.6871 O   0  5  0  0  0  0  0  0  0  0  0  0
   24.4015  -34.6137    9.4645 N   0  0  0  0  0  0  0  0  0  0  0  0
   26.5324  -26.5968   12.6136 O   0  0  0  0  0  0  0  0  0  0  0  0
   26.0770  -27.0135   15.2216 O   0  0  0  0  0  0  0  0  0  0  0  0
   27.5406  -28.1556   17.0467 O   0  0  0  0  0  0  0  0  0  0  0  0
   24.9370  -33.6002   10.1556 C   0  0  0  0  0  0  0  0  0  0  0  0
   25.4781  -33.8589   11.3988 C   0  0  0  0  0  0  0  0  0  0  0  0
   25.4590  -35.1696   11.9133 C   0  0  0  0  0  0  0  0  0  0  0  0
   26.0028  -35.4640   13.1761 O   0  0  0  0  0  0  0  0  0  0  0  0
   25.9466  -32.6975   11.8865 N   0  0  0  0  0  0  0  0  0  0  0  0
   25.7056  -31.7615   10.9851 C   0  0  0  0  0  0  0  0  0  0  0  0
   25.0963  -32.2852    9.9379 N   0  0  0  0  0  0  0  0  0  0  0  0
  1  5  1  6  0  0  0
  1 14  1  0  0  0  0
  1 19  2  0  0  0  0
  1 23  1  0  0  0  0
  2 15  1  1  0  0  0
  2 20  2  0  0  0  0
  2 23  1  0  0  0  0
  2 24  1  0  0  0  0
  3 16  1  1  0  0  0
  3 21  1  0  0  0  0
  3 24  1  0  0  0  0
  3 25  2  0  0  0  0
  4  5  1  0  0  0  0
  6  4  1  1  0  0  0
  6  7  1  0  0  0  0
  6  8  1  0  0  0  0
  7 12  1  0  0  0  0
  8  9  1  6  0  0  0
  8 10  1  0  0  0  0
 10 11  1  6  0  0  0
 10 12  1  0  0  0  0
 12 32  1  1  0  0  0
 13 17  2  0  0  0  0
 13 28  1  0  0  0  0
 17 18  1  0  0  0  0
 17 22  1  0  0  0  0
 22 26  2  0  0  0  0
 26 27  1  0  0  0  0
 26 32  1  0  0  0  0
 27 28  2  0  0  0  0
 27 30  1  0  0  0  0
 28 29  1  0  0  0  0
 30 31  2  0  0  0  0
 31 32  1  0  0  0  0
M  CHG  3  14  -1  15  -1  21  -1
M  END
>  <CHROM.1>
10.05482294,45.13148727,-170.87712924,164.15323744,-163.55532363,-136.08461742
76.73631102,-45.84344217,25.61609546,-30.05364127,11.89591696,0.23202703
-1.32969744,-0.68271691

>  <Name>
ligand

>  <RI>
0

>  <Rbt.Current_Directory>
/home/itssahil/PROJECTS/Mol_Feturizer/New_Systems/rnas/4Y1I

>  <Rbt.Executable>
rbdock ($Id: //depot/dev/client3/rdock/2013.1/src/exe/rbdock.cxx#4 $)

>  <Rbt.Library>
libRbt.so (2013.1, Build901 2013/11/27)

>  <Rbt.Parameter_File>
/export/apps/rDock/src/rDock_2013.1_src/data/scripts/dock_solv.prm

>  <Rbt.Receptor>
prm/blind_docking_60.prm

>  <SCORE>
-7.42992

>  <SCORE.INTER>
-5.55816

>  <SCORE.INTER.CONST>
1

>  <SCORE.INTER.POLAR>
0

>  <SCORE.INTER.ROT>
8

>  <SCORE.INTER.SOLV>
14.3981

>  <SCORE.INTER.VDW>
-17.4381

>  <SCORE.INTER.norm>
-0.173692

>  <SCORE.INTRA>
-1.87176

>  <SCORE.INTRA.DIHEDRAL>
-4.23693

>  <SCORE.INTRA.DIHEDRAL.0>
10.9594

>  <SCORE.INTRA.POLAR>
0

>  <SCORE.INTRA.POLAR.0>
0

>  <SCORE.INTRA.REPUL>
0

>  <SCORE.INTRA.REPUL.0>
0

>  <SCORE.INTRA.SOLV>
-1.42856

>  <SCORE.INTRA.SOLV.lig_0>
-124.914

>  <SCORE.INTRA.VDW>
0.960991

>  <SCORE.INTRA.VDW.0>
-4.69801

>  <SCORE.INTRA.norm>
-0.0584924

>  <SCORE.RESTR>
0

>  <SCORE.RESTR.CAVITY>
0

>  <SCORE.RESTR.norm>
0

>  <SCORE.SYSTEM>
0

>  <SCORE.SYSTEM.CONST>
0

>  <SCORE.SYSTEM.DIHEDRAL>
0

>  <SCORE.SYSTEM.SOLV>
0

>  <SCORE.SYSTEM.norm>
0

>  <SCORE.heavy>
32

>  <SCORE.norm>
-0.232185

>  <RMSD>
32.097

$$$$
ligand
 OpenBabel11021811513D
libRbt.so/2013.1/901 2013/11/27
 32 34  0  0  0  0  0  0  0  0999 V2000
   27.1779  -28.8220   12.7193 P   0  0  1  0  0  0  0  0  0  0  0  0
   26.8538  -26.8237   14.7522 P   0  0  2  0  0  0  0  0  0  0  0  0
   28.4570  -28.2757   16.7364 P   0  0  1  0  0  0  0  0  0  0  0  0
   25.4152  -30.6583   12.1607 C   0  0  0  0  0  0  0  0  0  0  0  0
   26.1611  -29.5808   11.6703 O   0  0  0  0  0  0  0  0  0  0  0  0
   24.6429  -31.1936   11.1359 C   0  0  1  0  0  0  0  0  0  0  0  0
   23.6491  -30.1590   10.6439 O   0  0  0  0  0  0  0  0  0  0  0  0
   25.5396  -31.5750    9.8700 C   0  0  1  0  0  0  0  0  0  0  0  0
   25.5074  -33.0725    9.6639 O   0  0  0  0  0  0  0  0  0  0  0  0
   24.9890  -31.0591    8.8942 C   0  0  1  0  0  0  0  0  0  0  0  0
   24.1332  -32.0666    8.2231 O   0  0  0  0  0  0  0  0  0  0  0  0
   24.0505  -29.8163    9.4846 C   0  0  2  0  0  0  0  0  0  0  0  0
   24.5505  -25.2466   11.7765 N   0  0  0  0  0  0  0  0  0  0  0  0
   28.0891  -29.8330   13.3702 O   0  5  0  0  0  0  0  0  0  0  0  0
   25.8605  -26.4228   15.8137 O   0  5  0  0  0  0  0  0  0  0  0  0
   28.1449  -29.6753   16.2612 O   0  0  0  0  0  0  0  0  0  0  0  0
   23.6448  -26.1838   12.0094 C   0  0  0  0  0  0  0  0  0  0  0  0
   22.6361  -25.9611   13.0254 N   0  0  0  0  0  0  0  0  0  0  0  0
   27.9749  -27.7859   11.9593 O   0  0  0  0  0  0  0  0  0  0  0  0
   27.0820  -25.6686   13.8128 O   0  0  0  0  0  0  0  0  0  0  0  0
   29.8852  -28.2282   17.2338 O   0  5  0  0  0  0  0  0  0  0  0  0
   23.6286  -27.3209   11.3443 N   0  0  0  0  0  0  0  0  0  0  0  0
   26.2779  -28.0920   13.8837 O   0  0  0  0  0  0  0  0  0  0  0  0
   28.2794  -27.2492   15.4541 O   0  0  0  0  0  0  0  0  0  0  0  0
   27.4999  -27.9079   17.8491 O   0  0  0  0  0  0  0  0  0  0  0  0
   24.5425  -27.5659   10.3976 C   0  0  0  0  0  0  0  0  0  0  0  0
   25.4980  -26.6052   10.1346 C   0  0  0  0  0  0  0  0  0  0  0  0
   25.4964  -25.3974   10.8586 C   0  0  0  0  0  0  0  0  0  0  0  0
   26.4570  -24.4004   10.6136 O   0  0  0  0  0  0  0  0  0  0  0  0
   26.2906  -27.0786    9.1579 N   0  0  0  0  0  0  0  0  0  0  0  0
   25.8449  -28.2790    8.8307 C   0  0  0  0  0  0  0  0  0  0  0  0
   24.7920  -28.5883    9.5642 N   0  0  0  0  0  0  0  0  0  0  0  0
  1  5  1  6  0  0  0
  1 14  1  0  0  0  0
  1 19  2  0  0  0  0
  1 23  1  0  0  0  0
  2 15  1  1  0  0  0
  2 20  2  0  0  0  0
  2 23  1  0  0  0  0
  2 24  1  0  0  0  0
  3 16  1  6  0  0  0
  3 21  1  0  0  0  0
  3 24  1  0  0  0  0
  3 25  2  0  0  0  0
  4  5  1  0  0  0  0
  6  4  1  1  0  0  0
  6  7  1  0  0  0  0
  6  8  1  0  0  0  0
  7 12  1  0  0  0  0
  8  9  1  6  0  0  0
  8 10  1  0  0  0  0
 10 11  1  1  0  0  0
 10 12  1  0  0  0  0
 12 32  1  1  0  0  0
 13 17  2  0  0  0  0
 13 28  1  0  0  0  0
 17 18  1  0  0  0  0
 17 22  1  0  0  0  0
 22 26  2  0  0  0  0
 26 27  1  0  0  0  0
 26 32  1  0  0  0  0
 27 28  2  0  0  0  0
 27 30  1  0  0  0  0
 28 29  1  0  0  0  0
 30 31  2  0  0  0  0
 31 32  1  0  0  0  0
M  CHG  3  14  -1  15  -1  21  -1
M  END
>  <CHROM.1>
53.07218295,-175.78043740,70.72888192,-62.91472565,-178.54167955,-35.18037586
-157.08975088,48.16505614,26.13920196,-28.31908324,12.53471603,-0.59794038
1.03119846,-2.79786300

>  <Name>
ligand

>  <RI>
0

>  <Rbt.Current_Directory>
/home/itssahil/PROJECTS/Mol_Feturizer/New_Systems/rnas/4Y1I

>  <Rbt.Executable>
rbdock ($Id: //depot/dev/client3/rdock/2013.1/src/exe/rbdock.cxx#4 $)

>  <Rbt.Library>
libRbt.so (2013.1, Build901 2013/11/27)

>  <Rbt.Parameter_File>
/export/apps/rDock/src/rDock_2013.1_src/data/scripts/dock_solv.prm

>  <Rbt.Receptor>
prm/blind_docking_60.prm

>  <SCORE>
-16.4773

>  <SCORE.INTER>
-8.53241

>  <SCORE.INTER.CONST>
1

>  <SCORE.INTER.POLAR>
0

>  <SCORE.INTER.ROT>
8

>  <SCORE.INTER.SOLV>
33.7078

>  <SCORE.INTER.VDW>
-25.8575

>  <SCORE.INTER.norm>
-0.266638

>  <SCORE.INTRA>
-7.94488

>  <SCORE.INTRA.DIHEDRAL>
-8.42571

>  <SCORE.INTRA.DIHEDRAL.0>
10.9594

>  <SCORE.INTRA.POLAR>
0

>  <SCORE.INTRA.POLAR.0>
0

>  <SCORE.INTRA.REPUL>
0

>  <SCORE.INTRA.REPUL.0>
0

>  <SCORE.INTRA.SOLV>
-0.694598

>  <SCORE.INTRA.SOLV.lig_0>
-124.914

>  <SCORE.INTRA.VDW>
-3.38472

>  <SCORE.INTRA.VDW.0>
-4.69801

>  <SCORE.INTRA.norm>
-0.248278

>  <SCORE.RESTR>
0

>  <SCORE.RESTR.CAVITY>
0

>  <SCORE.RESTR.norm>
0

>  <SCORE.SYSTEM>
0

>  <SCORE.SYSTEM.CONST>
0

>  <SCORE.SYSTEM.DIHEDRAL>
0

>  <SCORE.SYSTEM.SOLV>
0

>  <SCORE.SYSTEM.norm>
0

>  <SCORE.heavy>
32

>  <SCORE.norm>
-0.514915

>  <RMSD>
32.104

$$$$
ligand
 OpenBabel11021811513D
libRbt.so/2013.1/901 2013/11/27
 32 34  0  0  0  0  0  0  0  0999 V2000
   28.5248  -29.2131   10.5189 P   0  0  1  0  0  0  0  0  0  0  0  0
   28.7297  -26.3592   10.3093 P   0  0  2  0  0  0  0  0  0  0  0  0
   30.0721  -25.5306    7.8341 P   0  0  1  0  0  0  0  0  0  0  0  0
   26.8075  -31.1716   10.6017 C   0  0  0  0  0  0  0  0  0  0  0  0
   27.2110  -29.9595   11.1726 O   0  0  0  0  0  0  0  0  0  0  0  0
   25.6259  -31.5960   11.1992 C   0  0  1  0  0  0  0  0  0  0  0  0
   25.8715  -31.9125   12.6618 O   0  0  0  0  0  0  0  0  0  0  0  0
   24.5185  -30.4447   11.1810 C   0  0  1  0  0  0  0  0  0  0  0  0
   23.3576  -30.8773   10.3143 O   0  0  0  0  0  0  0  0  0  0  0  0
   24.0993  -30.3566   12.3377 C   0  0  1  0  0  0  0  0  0  0  0  0
   22.8528  -31.1482   12.4703 O   0  0  0  0  0  0  0  0  0  0  0  0
   25.2853  -30.9922   13.3190 C   0  0  2  0  0  0  0  0  0  0  0  0
   26.3254  -25.9755   13.6884 N   0  0  0  0  0  0  0  0  0  0  0  0
   29.7672  -30.0187   10.8080 O   0  5  0  0  0  0  0  0  0  0  0  0
   29.0342  -25.1696   11.1847 O   0  5  0  0  0  0  0  0  0  0  0  0
   28.8636  -25.7099    6.9455 O   0  0  0  0  0  0  0  0  0  0  0  0
   25.2301  -26.5513   13.2178 C   0  0  0  0  0  0  0  0  0  0  0  0
   24.1461  -25.7240   12.7279 N   0  0  0  0  0  0  0  0  0  0  0  0
   28.3092  -29.0670    9.0295 O   0  0  0  0  0  0  0  0  0  0  0  0
   27.3862  -26.1726    9.6542 O   0  0  0  0  0  0  0  0  0  0  0  0
   30.1497  -24.0867    8.2798 O   0  5  0  0  0  0  0  0  0  0  0  0
   25.0902  -27.8607   13.1791 N   0  0  0  0  0  0  0  0  0  0  0  0
   28.6811  -27.7309   11.2097 O   0  0  0  0  0  0  0  0  0  0  0  0
   29.8879  -26.5109    9.1511 O   0  0  0  0  0  0  0  0  0  0  0  0
   31.3149  -25.9092    7.0585 O   0  0  0  0  0  0  0  0  0  0  0  0
   26.0679  -28.6606   13.6216 C   0  0  0  0  0  0  0  0  0  0  0  0
   27.2209  -28.0859   14.1170 C   0  0  0  0  0  0  0  0  0  0  0  0
   27.3480  -26.6839   14.1494 C   0  0  0  0  0  0  0  0  0  0  0  0
   28.5100  -26.0695   14.6487 O   0  0  0  0  0  0  0  0  0  0  0  0
   28.0406  -29.0820   14.4938 N   0  0  0  0  0  0  0  0  0  0  0  0
   27.4223  -30.2227   14.2421 C   0  0  0  0  0  0  0  0  0  0  0  0
   26.2351  -29.9893   13.7146 N   0  0  0  0  0  0  0  0  0  0  0  0
  1  5  1  1  0  0  0
  1 14  1  0  0  0  0
  1 19  2  0  0  0  0
  1 23  1  0  0  0  0
  2 15  1  1  0  0  0
  2 20  2  0  0  0  0
  2 23  1  0  0  0  0
  2 24  1  0  0  0  0
  3 16  1  6  0  0  0
  3 21  1  0  0  0  0
  3 24  1  0  0  0  0
  3 25  2  0  0  0  0
  4  5  1  0  0  0  0
  6  4  1  1  0  0  0
  6  7  1  0  0  0  0
  6  8  1  0  0  0  0
  7 12  1  0  0  0  0
  8  9  1  6  0  0  0
  8 10  1  0  0  0  0
 10 11  1  6  0  0  0
 10 12  1  0  0  0  0
 12 32  1  6  0  0  0
 13 17  2  0  0  0  0
 13 28  1  0  0  0  0
 17 18  1  0  0  0  0
 17 22  1  0  0  0  0
 22 26  2  0  0  0  0
 26 27  1  0  0  0  0
 26 32  1  0  0  0  0
 27 28  2  0  0  0  0
 27 30  1  0  0  0  0
 28 29  1  0  0  0  0
 30 31  2  0  0  0  0
 31 32  1  0  0  0  0
M  CHG  3  14  -1  15  -1  21  -1
M  END
>  <CHROM.1>
-68.70532348,-173.57742932,-65.55503826,-65.09618682,-174.90704406,134.81496651
-124.17117296,-72.74386484,27.39224124,-28.11654935,11.22160276,0.00860289
-0.92163601,-2.31951456

>  <Name>
ligand

>  <RI>
0

>  <Rbt.Current_Directory>
/home/itssahil/PROJECTS/Mol_Feturizer/New_Systems/rnas/4Y1I

>  <Rbt.Executable>
rbdock ($Id: //depot/dev/client3/rdock/2013.1/src/exe/rbdock.cxx#4 $)

>  <Rbt.Library>
libRbt.so (2013.1, Build901 2013/11/27)

>  <Rbt.Parameter_File>
/export/apps/rDock/src/rDock_2013.1_src/data/scripts/dock_solv.prm

>  <Rbt.Receptor>
prm/blind_docking_60.prm

>  <SCORE>
-14.4783

>  <SCORE.INTER>
-7.67516

>  <SCORE.INTER.CONST>
1

>  <SCORE.INTER.POLAR>
0

>  <SCORE.INTER.ROT>
8

>  <SCORE.INTER.SOLV>
32.0035

>  <SCORE.INTER.VDW>
-24.7179

>  <SCORE.INTER.norm>
-0.239849

>  <SCORE.INTRA>
-6.80312

>  <SCORE.INTRA.DIHEDRAL>
-6.67074

>  <SCORE.INTRA.DIHEDRAL.0>
10.9594

>  <SCORE.INTRA.POLAR>
0

>  <SCORE.INTRA.POLAR.0>
0

>  <SCORE.INTRA.REPUL>
0

>  <SCORE.INTRA.REPUL.0>
0

>  <SCORE.INTRA.SOLV>
-2.62624

>  <SCORE.INTRA.SOLV.lig_0>
-124.914

>  <SCORE.INTRA.VDW>
-2.15464

>  <SCORE.INTRA.VDW.0>
-4.69801

>  <SCORE.INTRA.norm>
-0.212598

>  <SCORE.RESTR>
0

>  <SCORE.RESTR.CAVITY>
0

>  <SCORE.RESTR.norm>
0

>  <SCORE.SYSTEM>
0

>  <SCORE.SYSTEM.CONST>
0

>  <SCORE.SYSTEM.DIHEDRAL>
0

>  <SCORE.SYSTEM.SOLV>
0

>  <SCORE.SYSTEM.norm>
0

>  <SCORE.heavy>
32

>  <SCORE.norm>
-0.452447

>  <RMSD>
32.107

$$$$
ligand
 OpenBabel11021811513D
libRbt.so/2013.1/901 2013/11/27
 32 34  0  0  0  0  0  0  0  0999 V2000
   25.3880  -30.3087   11.0589 P   0  0  1  0  0  0  0  0  0  0  0  0
   23.2800  -30.4433    9.1174 P   0  0  2  0  0  0  0  0  0  0  0  0
   22.5254  -33.2516    8.7189 P   0  0  1  0  0  0  0  0  0  0  0  0
   25.5633  -27.7519   11.5314 C   0  0  0  0  0  0  0  0  0  0  0  0
   24.8241  -28.9211   11.7421 O   0  0  0  0  0  0  0  0  0  0  0  0
   24.8108  -26.6497   11.9217 C   0  0  1  0  0  0  0  0  0  0  0  0
   24.4190  -26.7825   13.3807 O   0  0  0  0  0  0  0  0  0  0  0  0
   25.6590  -25.2999   11.8180 C   0  0  1  0  0  0  0  0  0  0  0  0
   25.0488  -24.4024   10.7652 O   0  0  0  0  0  0  0  0  0  0  0  0
   25.5288  -24.7310   12.9046 C   0  0  1  0  0  0  0  0  0  0  0  0
   24.4523  -23.7168   12.8026 O   0  0  0  0  0  0  0  0  0  0  0  0
   25.1021  -25.9067   14.0044 C   0  0  2  0  0  0  0  0  0  0  0  0
   26.8871  -29.4837   17.2298 N   0  0  0  0  0  0  0  0  0  0  0  0
   26.8966  -30.3107   11.0756 O   0  5  0  0  0  0  0  0  0  0  0  0
   23.0927  -30.3088    7.6271 O   0  5  0  0  0  0  0  0  0  0  0  0
   23.8452  -33.4864    8.0222 O   0  0  0  0  0  0  0  0  0  0  0  0
   25.6274  -29.2082   16.9299 C   0  0  0  0  0  0  0  0  0  0  0  0
   24.5648  -29.9719   17.5521 N   0  0  0  0  0  0  0  0  0  0  0  0
   24.8370  -31.4877   11.8287 O   0  0  0  0  0  0  0  0  0  0  0  0
   22.5702  -29.3150    9.8189 O   0  0  0  0  0  0  0  0  0  0  0  0
   22.2221  -34.4315    9.6164 O   0  5  0  0  0  0  0  0  0  0  0  0
   25.3037  -28.2563   16.0785 N   0  0  0  0  0  0  0  0  0  0  0  0
   24.8748  -30.3694    9.4996 O   0  0  0  0  0  0  0  0  0  0  0  0
   22.6651  -31.8804    9.6297 O   0  0  0  0  0  0  0  0  0  0  0  0
   21.4398  -33.0903    7.6773 O   0  0  0  0  0  0  0  0  0  0  0  0
   26.2549  -27.5275   15.4822 C   0  0  0  0  0  0  0  0  0  0  0  0
   27.5765  -27.7940   15.7776 C   0  0  0  0  0  0  0  0  0  0  0  0
   27.8990  -28.8168   16.6902 C   0  0  0  0  0  0  0  0  0  0  0  0
   29.2359  -29.1118   17.0106 O   0  0  0  0  0  0  0  0  0  0  0  0
   28.3313  -26.9416   15.0634 N   0  0  0  0  0  0  0  0  0  0  0  0
   27.5126  -26.1810   14.3576 C   0  0  0  0  0  0  0  0  0  0  0  0
   26.2591  -26.5171   14.5985 N   0  0  0  0  0  0  0  0  0  0  0  0
  1  5  1  1  0  0  0
  1 14  1  0  0  0  0
  1 19  2  0  0  0  0
  1 23  1  0  0  0  0
  2 15  1  6  0  0  0
  2 20  2  0  0  0  0
  2 23  1  0  0  0  0
  2 24  1  0  0  0  0
  3 16  1  6  0  0  0
  3 21  1  0  0  0  0
  3 24  1  0  0  0  0
  3 25  2  0  0  0  0
  4  5  1  0  0  0  0
  6  4  1  1  0  0  0
  6  7  1  0  0  0  0
  6  8  1  0  0  0  0
  7 12  1  0  0  0  0
  8  9  1  6  0  0  0
  8 10  1  0  0  0  0
 10 11  1  6  0  0  0
 10 12  1  0  0  0  0
 12 32  1  6  0  0  0
 13 17  2  0  0  0  0
 13 28  1  0  0  0  0
 17 18  1  0  0  0  0
 17 22  1  0  0  0  0
 22 26  2  0  0  0  0
 26 27  1  0  0  0  0
 26 32  1  0  0  0  0
 27 28  2  0  0  0  0
 27 30  1  0  0  0  0
 28 29  1  0  0  0  0
 30 31  2  0  0  0  0
 31 32  1  0  0  0  0
M  CHG  3  14  -1  15  -1  21  -1
M  END
>  <CHROM.1>
35.25880513,172.68318619,48.06578245,58.10182519,167.29744784,-58.31942143
-63.03402806,26.99071630,24.91920965,-29.17787756,12.09025488,-2.71089686
-1.10754808,-0.19345678

>  <Name>
ligand

>  <RI>
0

>  <Rbt.Current_Directory>
/home/itssahil/PROJECTS/Mol_Feturizer/New_Systems/rnas/4Y1I

>  <Rbt.Executable>
rbdock ($Id: //depot/dev/client3/rdock/2013.1/src/exe/rbdock.cxx#4 $)

>  <Rbt.Library>
libRbt.so (2013.1, Build901 2013/11/27)

>  <Rbt.Parameter_File>
/export/apps/rDock/src/rDock_2013.1_src/data/scripts/dock_solv.prm

>  <Rbt.Receptor>
prm/blind_docking_60.prm

>  <SCORE>
-13.8682

>  <SCORE.INTER>
-8.31065

>  <SCORE.INTER.CONST>
1

>  <SCORE.INTER.POLAR>
0

>  <SCORE.INTER.ROT>
8

>  <SCORE.INTER.SOLV>
25.4994

>  <SCORE.INTER.VDW>
-22.9735

>  <SCORE.INTER.norm>
-0.259708

>  <SCORE.INTRA>
-5.55758

>  <SCORE.INTRA.DIHEDRAL>
-6.40273

>  <SCORE.INTRA.DIHEDRAL.0>
10.9594

>  <SCORE.INTRA.POLAR>
0

>  <SCORE.INTRA.POLAR.0>
0

>  <SCORE.INTRA.REPUL>
0

>  <SCORE.INTRA.REPUL.0>
0

>  <SCORE.INTRA.SOLV>
-4.95792

>  <SCORE.INTRA.SOLV.lig_0>
-124.914

>  <SCORE.INTRA.VDW>
0.122744

>  <SCORE.INTRA.VDW.0>
-4.69801

>  <SCORE.INTRA.norm>
-0.173674

>  <SCORE.RESTR>
0

>  <SCORE.RESTR.CAVITY>
0

>  <SCORE.RESTR.norm>
0

>  <SCORE.SYSTEM>
0

>  <SCORE.SYSTEM.CONST>
0

>  <SCORE.SYSTEM.DIHEDRAL>
0

>  <SCORE.SYSTEM.SOLV>
0

>  <SCORE.SYSTEM.norm>
0

>  <SCORE.heavy>
32

>  <SCORE.norm>
-0.433382

>  <RMSD>
32.272

$$$$
ligand
 OpenBabel11021811513D
libRbt.so/2013.1/901 2013/11/27
 32 34  0  0  0  0  0  0  0  0999 V2000
   26.1301  -29.4822   13.1642 P   0  0  1  0  0  0  0  0  0  0  0  0
   25.1354  -28.9513   15.8024 P   0  0  2  0  0  0  0  0  0  0  0  0
   27.8798  -28.9944   16.8423 P   0  0  1  0  0  0  0  0  0  0  0  0
   27.4096  -27.4129   12.2301 C   0  0  0  0  0  0  0  0  0  0  0  0
   26.7568  -28.6102   11.9164 O   0  0  0  0  0  0  0  0  0  0  0  0
   28.0681  -26.9337   11.1032 C   0  0  1  0  0  0  0  0  0  0  0  0
   29.1901  -27.8792   10.7196 O   0  0  0  0  0  0  0  0  0  0  0  0
   27.0927  -26.8772    9.8393 C   0  0  1  0  0  0  0  0  0  0  0  0
   26.8991  -25.4382    9.4174 O   0  0  0  0  0  0  0  0  0  0  0  0
   27.6877  -27.4505    8.9235 C   0  0  1  0  0  0  0  0  0  0  0  0
   28.3685  -26.4443    8.0739 O   0  0  0  0  0  0  0  0  0  0  0  0
   28.8136  -28.4453    9.6424 C   0  0  2  0  0  0  0  0  0  0  0  0
   24.7510  -31.5653    9.2599 N   0  0  0  0  0  0  0  0  0  0  0  0
   24.9726  -30.3167   12.6746 O   0  5  0  0  0  0  0  0  0  0  0  0
   23.9802  -29.9152   15.6985 O   0  5  0  0  0  0  0  0  0  0  0  0
   28.6645  -28.9595   15.5517 O   0  0  0  0  0  0  0  0  0  0  0  0
   24.8711  -30.3214    8.8230 C   0  0  0  0  0  0  0  0  0  0  0  0
   23.7557  -29.6963    8.1411 N   0  0  0  0  0  0  0  0  0  0  0  0
   27.2206  -30.3559   13.7419 O   0  0  0  0  0  0  0  0  0  0  0  0
   24.7199  -27.7515   16.6126 O   0  0  0  0  0  0  0  0  0  0  0  0
   27.6793  -27.5791   17.3386 O   0  5  0  0  0  0  0  0  0  0  0  0
   25.9781  -29.6264    8.9876 N   0  0  0  0  0  0  0  0  0  0  0  0
   25.5845  -28.4381   14.3092 O   0  0  0  0  0  0  0  0  0  0  0  0
   26.4134  -29.6883   16.5301 O   0  0  0  0  0  0  0  0  0  0  0  0
   28.6462  -29.8063   17.8635 O   0  0  0  0  0  0  0  0  0  0  0  0
   27.0314  -30.1666    9.6124 C   0  0  0  0  0  0  0  0  0  0  0  0
   26.9325  -31.4620   10.0783 C   0  0  0  0  0  0  0  0  0  0  0  0
   25.7395  -32.1862    9.8902 C   0  0  0  0  0  0  0  0  0  0  0  0
   25.6091  -33.5074   10.3532 O   0  0  0  0  0  0  0  0  0  0  0  0
   28.1032  -31.7739   10.6601 N   0  0  0  0  0  0  0  0  0  0  0  0
   28.8914  -30.7179   10.5590 C   0  0  0  0  0  0  0  0  0  0  0  0
   28.2628  -29.7399    9.9338 N   0  0  0  0  0  0  0  0  0  0  0  0
  1  5  1  6  0  0  0
  1 14  1  0  0  0  0
  1 19  2  0  0  0  0
  1 23  1  0  0  0  0
  2 15  1  6  0  0  0
  2 20  2  0  0  0  0
  2 23  1  0  0  0  0
  2 24  1  0  0  0  0
  3 16  1  6  0  0  0
  3 21  1  0  0  0  0
  3 24  1  0  0  0  0
  3 25  2  0  0  0  0
  4  5  1  0  0  0  0
  6  4  1  1  0  0  0
  6  7  1  0  0  0  0
  6  8  1  0  0  0  0
  7 12  1  0  0  0  0
  8  9  1  6  0  0  0
  8 10  1  0  0  0  0
 10 11  1  6  0  0  0
 10 12  1  0  0  0  0
 12 32  1  1  0  0  0
 13 17  2  0  0  0  0
 13 28  1  0  0  0  0
 17 18  1  0  0  0  0
 17 22  1  0  0  0  0
 22 26  2  0  0  0  0
 26 27  1  0  0  0  0
 26 32  1  0  0  0  0
 27 28  2  0  0  0  0
 27 30  1  0  0  0  0
 28 29  1  0  0  0  0
 30 31  2  0  0  0  0
 31 32  1  0  0  0  0
M  CHG  3  14  -1  15  -1  21  -1
M  END
>  <CHROM.1>
153.58529345,-61.37047975,-77.59424214,-66.11616686,169.77725825,122.98534831
-169.16677128,-179.98914883,26.74023378,-29.21463285,12.48022234,1.59301275
0.98203411,1.50564443

>  <Name>
ligand

>  <RI>
0

>  <Rbt.Current_Directory>
/home/itssahil/PROJECTS/Mol_Feturizer/New_Systems/rnas/4Y1I

>  <Rbt.Executable>
rbdock ($Id: //depot/dev/client3/rdock/2013.1/src/exe/rbdock.cxx#4 $)

>  <Rbt.Library>
libRbt.so (2013.1, Build901 2013/11/27)

>  <Rbt.Parameter_File>
/export/apps/rDock/src/rDock_2013.1_src/data/scripts/dock_solv.prm

>  <Rbt.Receptor>
prm/blind_docking_60.prm

>  <SCORE>
-14.4628

>  <SCORE.INTER>
-7.85837

>  <SCORE.INTER.CONST>
1

>  <SCORE.INTER.POLAR>
0

>  <SCORE.INTER.ROT>
8

>  <SCORE.INTER.SOLV>
27.1712

>  <SCORE.INTER.VDW>
-23.2293

>  <SCORE.INTER.norm>
-0.245574

>  <SCORE.INTRA>
-6.6044

>  <SCORE.INTRA.DIHEDRAL>
-7.52273

>  <SCORE.INTRA.DIHEDRAL.0>
10.9594

>  <SCORE.INTRA.POLAR>
0

>  <SCORE.INTRA.POLAR.0>
0

>  <SCORE.INTRA.REPUL>
0

>  <SCORE.INTRA.REPUL.0>
0

>  <SCORE.INTRA.SOLV>
-0.989332

>  <SCORE.INTRA.SOLV.lig_0>
-124.914

>  <SCORE.INTRA.VDW>
-2.34837

>  <SCORE.INTRA.VDW.0>
-4.69801

>  <SCORE.INTRA.norm>
-0.206387

>  <SCORE.RESTR>
0

>  <SCORE.RESTR.CAVITY>
0

>  <SCORE.RESTR.norm>
0

>  <SCORE.SYSTEM>
0

>  <SCORE.SYSTEM.CONST>
0

>  <SCORE.SYSTEM.DIHEDRAL>
0

>  <SCORE.SYSTEM.SOLV>
0

>  <SCORE.SYSTEM.norm>
0

>  <SCORE.heavy>
32

>  <SCORE.norm>
-0.451962

>  <RMSD>
32.350

$$$$
ligand
 OpenBabel11021811513D
libRbt.so/2013.1/901 2013/11/27
 32 34  0  0  0  0  0  0  0  0999 V2000
   25.5918  -30.0921    9.2490 P   0  0  1  0  0  0  0  0  0  0  0  0
   24.5507  -32.7526    8.9869 P   0  0  2  0  0  0  0  0  0  0  0  0
   24.0120  -35.4687    8.0133 P   0  0  1  0  0  0  0  0  0  0  0  0
   24.6627  -28.6865   11.2371 C   0  0  0  0  0  0  0  0  0  0  0  0
   24.3887  -29.6858   10.2967 O   0  0  0  0  0  0  0  0  0  0  0  0
   23.5350  -28.4626   12.0190 C   0  0  1  0  0  0  0  0  0  0  0  0
   23.4148  -29.5454   13.0740 O   0  0  0  0  0  0  0  0  0  0  0  0
   23.6457  -27.0839   12.8184 C   0  0  1  0  0  0  0  0  0  0  0  0
   22.5763  -26.1327   12.3306 O   0  0  0  0  0  0  0  0  0  0  0  0
   23.3897  -27.3504   13.9951 C   0  0  1  0  0  0  0  0  0  0  0  0
   21.9626  -27.0551   14.2669 O   0  0  0  0  0  0  0  0  0  0  0  0
   23.6806  -28.9795   14.1837 C   0  0  2  0  0  0  0  0  0  0  0  0
   27.3683  -28.3447   17.7028 N   0  0  0  0  0  0  0  0  0  0  0  0
   25.9060  -28.9206    8.3517 O   0  5  0  0  0  0  0  0  0  0  0  0
   23.2698  -32.5240    9.7494 O   0  5  0  0  0  0  0  0  0  0  0  0
   23.5119  -36.0364    6.7056 O   0  0  0  0  0  0  0  0  0  0  0  0
   26.1170  -27.9140   17.7423 C   0  0  0  0  0  0  0  0  0  0  0  0
   25.6598  -27.1616   18.8932 N   0  0  0  0  0  0  0  0  0  0  0  0
   26.8093  -30.5058   10.0444 O   0  0  0  0  0  0  0  0  0  0  0  0
   25.6130  -33.2607    9.9261 O   0  0  0  0  0  0  0  0  0  0  0  0
   25.2970  -36.1689    8.3983 O   0  5  0  0  0  0  0  0  0  0  0  0
   25.2661  -28.1475   16.7640 N   0  0  0  0  0  0  0  0  0  0  0  0
   25.0761  -31.3466    8.3222 O   0  0  0  0  0  0  0  0  0  0  0  0
   24.3003  -33.8568    7.7936 O   0  0  0  0  0  0  0  0  0  0  0  0
   22.9581  -35.6806    9.0780 O   0  0  0  0  0  0  0  0  0  0  0  0
   25.6483  -28.8384   15.6832 C   0  0  0  0  0  0  0  0  0  0  0  0
   26.9478  -29.2986   15.6165 C   0  0  0  0  0  0  0  0  0  0  0  0
   27.8398  -29.0377   16.6745 C   0  0  0  0  0  0  0  0  0  0  0  0
   29.1691  -29.4939   16.6354 O   0  0  0  0  0  0  0  0  0  0  0  0
   27.0864  -29.9540   14.4514 N   0  0  0  0  0  0  0  0  0  0  0  0
   25.9239  -29.9012   13.8247 C   0  0  0  0  0  0  0  0  0  0  0  0
   25.0471  -29.2316   14.5493 N   0  0  0  0  0  0  0  0  0  0  0  0
  1  5  1  1  0  0  0
  1 14  1  0  0  0  0
  1 19  2  0  0  0  0
  1 23  1  0  0  0  0
  2 15  1  1  0  0  0
  2 20  2  0  0  0  0
  2 23  1  0  0  0  0
  2 24  1  0  0  0  0
  3 16  1  6  0  0  0
  3 21  1  0  0  0  0
  3 24  1  0  0  0  0
  3 25  2  0  0  0  0
  4  5  1  0  0  0  0
  6  4  1  1  0  0  0
  6  7  1  0  0  0  0
  6  8  1  0  0  0  0
  7 12  1  0  0  0  0
  8  9  1  6  0  0  0
  8 10  1  0  0  0  0
 10 11  1  6  0  0  0
 10 12  1  0  0  0  0
 12 32  1  6  0  0  0
 13 17  2  0  0  0  0
 13 28  1  0  0  0  0
 17 18  1  0  0  0  0
 17 22  1  0  0  0  0
 22 26  2  0  0  0  0
 26 27  1  0  0  0  0
 26 32  1  0  0  0  0
 27 28  2  0  0  0  0
 27 30  1  0  0  0  0
 28 29  1  0  0  0  0
 30 31  2  0  0  0  0
 31 32  1  0  0  0  0
M  CHG  3  14  -1  15  -1  21  -1
M  END
>  <CHROM.1>
-65.07425686,66.59876378,166.38858262,78.83020356,179.13484243,-176.86168401
-56.27923904,-69.59731929,24.93784685,-30.57735526,11.86759892,1.78862319
0.89700985,-2.40132858

>  <Name>
ligand

>  <RI>
0

>  <Rbt.Current_Directory>
/home/itssahil/PROJECTS/Mol_Feturizer/New_Systems/rnas/4Y1I

>  <Rbt.Executable>
rbdock ($Id: //depot/dev/client3/rdock/2013.1/src/exe/rbdock.cxx#4 $)

>  <Rbt.Library>
libRbt.so (2013.1, Build901 2013/11/27)

>  <Rbt.Parameter_File>
/export/apps/rDock/src/rDock_2013.1_src/data/scripts/dock_solv.prm

>  <Rbt.Receptor>
prm/blind_docking_100.prm

>  <SCORE>
-14.6276

>  <SCORE.INTER>
-9.69326

>  <SCORE.INTER.CONST>
1

>  <SCORE.INTER.POLAR>
0

>  <SCORE.INTER.ROT>
8

>  <SCORE.INTER.SOLV>
27.4869

>  <SCORE.INTER.VDW>
-24.5578

>  <SCORE.INTER.norm>
-0.302914

>  <SCORE.INTRA>
-4.93434

>  <SCORE.INTRA.DIHEDRAL>
-7.96063

>  <SCORE.INTRA.DIHEDRAL.0>
10.9594

>  <SCORE.INTRA.POLAR>
0

>  <SCORE.INTRA.POLAR.0>
0

>  <SCORE.INTRA.REPUL>
0

>  <SCORE.INTRA.REPUL.0>
0

>  <SCORE.INTRA.SOLV>
-2.54727

>  <SCORE.INTRA.SOLV.lig_0>
-124.914

>  <SCORE.INTRA.VDW>
0.319615

>  <SCORE.INTRA.VDW.0>
-4.69801

>  <SCORE.INTRA.norm>
-0.154198

>  <SCORE.RESTR>
0

>  <SCORE.RESTR.CAVITY>
0

>  <SCORE.RESTR.norm>
0

>  <SCORE.SYSTEM>
0

>  <SCORE.SYSTEM.CONST>
0

>  <SCORE.SYSTEM.DIHEDRAL>
0

>  <SCORE.SYSTEM.SOLV>
0

>  <SCORE.SYSTEM.norm>
0

>  <SCORE.heavy>
32

>  <SCORE.norm>
-0.457112

>  <RMSD>
32.354

$$$$
ligand
 OpenBabel11021811513D
libRbt.so/2013.1/901 2013/11/27
 32 34  0  0  0  0  0  0  0  0999 V2000
   24.1533  -28.2476   14.2041 P   0  0  1  0  0  0  0  0  0  0  0  0
   26.8943  -27.4107   14.3384 P   0  0  2  0  0  0  0  0  0  0  0  0
   27.9441  -27.6485   17.0691 P   0  0  1  0  0  0  0  0  0  0  0  0
   23.2696  -28.7381   11.8021 C   0  0  0  0  0  0  0  0  0  0  0  0
   24.1446  -27.9728   12.5809 O   0  0  0  0  0  0  0  0  0  0  0  0
   23.5471  -28.5341   10.4550 C   0  0  1  0  0  0  0  0  0  0  0  0
   25.0285  -28.7321   10.1973 O   0  0  0  0  0  0  0  0  0  0  0  0
   22.7969  -29.6054    9.5376 C   0  0  1  0  0  0  0  0  0  0  0  0
   21.7837  -28.8989    8.6656 O   0  0  0  0  0  0  0  0  0  0  0  0
   23.6577  -30.0770    8.7906 C   0  0  1  0  0  0  0  0  0  0  0  0
   23.6190  -29.3700    7.4881 O   0  0  0  0  0  0  0  0  0  0  0  0
   25.1237  -29.8171    9.5369 C   0  0  2  0  0  0  0  0  0  0  0  0
   24.9540  -34.8818   10.3767 N   0  0  0  0  0  0  0  0  0  0  0  0
   22.8307  -27.8335   14.8001 O   0  5  0  0  0  0  0  0  0  0  0  0
   27.0790  -26.4789   13.1670 O   0  5  0  0  0  0  0  0  0  0  0  0
   26.6702  -27.2517   17.7778 O   0  0  0  0  0  0  0  0  0  0  0  0
   24.4737  -34.2074    9.3437 C   0  0  0  0  0  0  0  0  0  0  0  0
   23.8028  -34.9228    8.2771 N   0  0  0  0  0  0  0  0  0  0  0  0
   24.4199  -29.7160   14.4466 O   0  0  0  0  0  0  0  0  0  0  0  0
   27.1866  -28.8246   13.9093 O   0  0  0  0  0  0  0  0  0  0  0  0
   28.0034  -29.1568   16.9638 O   0  5  0  0  0  0  0  0  0  0  0  0
   24.5853  -32.8980    9.2507 N   0  0  0  0  0  0  0  0  0  0  0  0
   25.3463  -27.3432   14.8807 O   0  0  0  0  0  0  0  0  0  0  0  0
   27.9150  -26.9853   15.5562 O   0  0  0  0  0  0  0  0  0  0  0  0
   29.1279  -27.1290   17.8552 O   0  0  0  0  0  0  0  0  0  0  0  0
   25.1976  -32.1994   10.2144 C   0  0  0  0  0  0  0  0  0  0  0  0
   25.7071  -32.8782   11.3028 C   0  0  0  0  0  0  0  0  0  0  0  0
   25.5769  -34.2782   11.3805 C   0  0  0  0  0  0  0  0  0  0  0  0
   26.0861  -34.9971   12.4763 O   0  0  0  0  0  0  0  0  0  0  0  0
   26.2663  -31.9704   12.1211 N   0  0  0  0  0  0  0  0  0  0  0  0
   26.1092  -30.7824   11.5637 C   0  0  0  0  0  0  0  0  0  0  0  0
   25.4660  -30.8999   10.4171 N   0  0  0  0  0  0  0  0  0  0  0  0
  1  5  1  6  0  0  0
  1 14  1  0  0  0  0
  1 19  2  0  0  0  0
  1 23  1  0  0  0  0
  2 15  1  6  0  0  0
  2 20  2  0  0  0  0
  2 23  1  0  0  0  0
  2 24  1  0  0  0  0
  3 16  1  1  0  0  0
  3 21  1  0  0  0  0
  3 24  1  0  0  0  0
  3 25  2  0  0  0  0
  4  5  1  0  0  0  0
  6  4  1  1  0  0  0
  6  7  1  0  0  0  0
  6  8  1  0  0  0  0
  7 12  1  0  0  0  0
  8  9  1  6  0  0  0
  8 10  1  0  0  0  0
 10 11  1  6  0  0  0
 10 12  1  0  0  0  0
 12 32  1  1  0  0  0
 13 17  2  0  0  0  0
 13 28  1  0  0  0  0
 17 18  1  0  0  0  0
 17 22  1  0  0  0  0
 22 26  2  0  0  0  0
 26 27  1  0  0  0  0
 26 32  1  0  0  0  0
 27 28  2  0  0  0  0
 27 30  1  0  0  0  0
 28 29  1  0  0  0  0
 30 31  2  0  0  0  0
 31 32  1  0  0  0  0
M  CHG  3  14  -1  15  -1  21  -1
M  END
>  <CHROM.1>
-66.38564998,84.73166802,-67.99611272,50.92408725,-170.35654428,154.71434043
-53.36109318,173.93791749,25.40847420,-29.67035669,12.63314178,0.97532412
-0.92869358,0.46486351

>  <Name>
ligand

>  <RI>
0

>  <Rbt.Current_Directory>
/home/itssahil/PROJECTS/Mol_Feturizer/New_Systems/rnas/4Y1I

>  <Rbt.Executable>
rbdock ($Id: //depot/dev/client3/rdock/2013.1/src/exe/rbdock.cxx#4 $)

>  <Rbt.Library>
libRbt.so (2013.1, Build901 2013/11/27)

>  <Rbt.Parameter_File>
/export/apps/rDock/src/rDock_2013.1_src/data/scripts/dock_solv.prm

>  <Rbt.Receptor>
prm/blind_docking_60.prm

>  <SCORE>
-13.029

>  <SCORE.INTER>
-6.25525

>  <SCORE.INTER.CONST>
1

>  <SCORE.INTER.POLAR>
0

>  <SCORE.INTER.ROT>
8

>  <SCORE.INTER.SOLV>
23.8807

>  <SCORE.INTER.VDW>
-21.0637

>  <SCORE.INTER.norm>
-0.195477

>  <SCORE.INTRA>
-6.77378

>  <SCORE.INTRA.DIHEDRAL>
-7.8394

>  <SCORE.INTRA.DIHEDRAL.0>
10.9594

>  <SCORE.INTRA.POLAR>
0

>  <SCORE.INTRA.POLAR.0>
0

>  <SCORE.INTRA.REPUL>
0

>  <SCORE.INTRA.REPUL.0>
0

>  <SCORE.INTRA.SOLV>
-4.09116

>  <SCORE.INTRA.SOLV.lig_0>
-124.914

>  <SCORE.INTRA.VDW>
-0.808503

>  <SCORE.INTRA.VDW.0>
-4.69801

>  <SCORE.INTRA.norm>
-0.211681

>  <SCORE.RESTR>
0

>  <SCORE.RESTR.CAVITY>
0

>  <SCORE.RESTR.norm>
0

>  <SCORE.SYSTEM>
0

>  <SCORE.SYSTEM.CONST>
0

>  <SCORE.SYSTEM.DIHEDRAL>
0

>  <SCORE.SYSTEM.SOLV>
0

>  <SCORE.SYSTEM.norm>
0

>  <SCORE.heavy>
32

>  <SCORE.norm>
-0.407157

>  <RMSD>
32.506

$$$$
ligand
 OpenBabel11021811513D
libRbt.so/2013.1/901 2013/11/27
 32 34  0  0  0  0  0  0  0  0999 V2000
   25.4018  -25.4025   13.1566 P   0  0  1  0  0  0  0  0  0  0  0  0
   26.3213  -27.2161   15.1805 P   0  0  2  0  0  0  0  0  0  0  0  0
   28.1485  -28.5618   17.0422 P   0  0  1  0  0  0  0  0  0  0  0  0
   27.5561  -26.4269   12.1074 C   0  0  0  0  0  0  0  0  0  0  0  0
   26.2559  -25.9687   11.8681 O   0  0  0  0  0  0  0  0  0  0  0  0
   28.3988  -25.9842   11.0940 C   0  0  1  0  0  0  0  0  0  0  0  0
   29.6811  -26.7939   11.0980 O   0  0  0  0  0  0  0  0  0  0  0  0
   27.7447  -26.2086    9.6538 C   0  0  1  0  0  0  0  0  0  0  0  0
   27.4891  -24.8679    9.0033 O   0  0  0  0  0  0  0  0  0  0  0  0
   28.5989  -26.7870    8.9777 C   0  0  1  0  0  0  0  0  0  0  0  0
   29.3375  -25.7924    8.1633 O   0  0  0  0  0  0  0  0  0  0  0  0
   29.6341  -27.5233   10.0548 C   0  0  2  0  0  0  0  0  0  0  0  0
   25.9234  -31.0463    9.6023 N   0  0  0  0  0  0  0  0  0  0  0  0
   25.2109  -23.9114   13.0284 O   0  5  0  0  0  0  0  0  0  0  0  0
   26.7245  -28.2245   14.1341 O   0  5  0  0  0  0  0  0  0  0  0  0
   28.8377  -29.2908   15.9127 O   0  0  0  0  0  0  0  0  0  0  0  0
   25.9618  -29.8278    9.0860 C   0  0  0  0  0  0  0  0  0  0  0  0
   24.8515  -29.3614    8.2803 N   0  0  0  0  0  0  0  0  0  0  0  0
   24.0696  -26.1159   13.2074 O   0  0  0  0  0  0  0  0  0  0  0  0
   24.9566  -27.5624   15.7155 O   0  0  0  0  0  0  0  0  0  0  0  0
   29.1820  -28.1412   18.0642 O   0  5  0  0  0  0  0  0  0  0  0  0
   26.9825  -29.0179    9.2808 N   0  0  0  0  0  0  0  0  0  0  0  0
   26.2550  -25.7122   14.5258 O   0  0  0  0  0  0  0  0  0  0  0  0
   27.4113  -27.2241   16.4125 O   0  0  0  0  0  0  0  0  0  0  0  0
   27.1285  -29.4836   17.6742 O   0  0  0  0  0  0  0  0  0  0  0  0
   28.0280  -29.4099   10.0189 C   0  0  0  0  0  0  0  0  0  0  0  0
   28.0131  -30.6756   10.5693 C   0  0  0  0  0  0  0  0  0  0  0  0
   26.9116  -31.5244   10.3471 C   0  0  0  0  0  0  0  0  0  0  0  0
   26.8680  -32.8189   10.8940 O   0  0  0  0  0  0  0  0  0  0  0  0
   29.1573  -30.8322   11.2567 N   0  0  0  0  0  0  0  0  0  0  0  0
   29.8493  -29.7125   11.1374 C   0  0  0  0  0  0  0  0  0  0  0  0
   29.1846  -28.8441   10.3983 N   0  0  0  0  0  0  0  0  0  0  0  0
  1  5  1  6  0  0  0
  1 14  1  0  0  0  0
  1 19  2  0  0  0  0
  1 23  1  0  0  0  0
  2 15  1  6  0  0  0
  2 20  2  0  0  0  0
  2 23  1  0  0  0  0
  2 24  1  0  0  0  0
  3 16  1  6  0  0  0
  3 21  1  0  0  0  0
  3 24  1  0  0  0  0
  3 25  2  0  0  0  0
  4  5  1  0  0  0  0
  6  4  1  1  0  0  0
  6  7  1  0  0  0  0
  6  8  1  0  0  0  0
  7 12  1  0  0  0  0
  8  9  1  6  0  0  0
  8 10  1  0  0  0  0
 10 11  1  1  0  0  0
 10 12  1  0  0  0  0
 12 32  1  1  0  0  0
 13 17  2  0  0  0  0
 13 28  1  0  0  0  0
 17 18  1  0  0  0  0
 17 22  1  0  0  0  0
 22 26  2  0  0  0  0
 26 27  1  0  0  0  0
 26 32  1  0  0  0  0
 27 28  2  0  0  0  0
 27 30  1  0  0  0  0
 28 29  1  0  0  0  0
 30 31  2  0  0  0  0
 31 32  1  0  0  0  0
M  CHG  3  14  -1  15  -1  21  -1
M  END
>  <CHROM.1>
111.02585338,51.56754510,55.55103484,-162.94949601,-137.97865283,113.52516982
-76.27722462,-38.77761918,27.27088066,-27.84209174,12.52506735,1.85106036
-1.27945123,1.73379580

>  <Name>
ligand

>  <RI>
0

>  <Rbt.Current_Directory>
/home/itssahil/PROJECTS/Mol_Feturizer/New_Systems/rnas/4Y1I

>  <Rbt.Executable>
rbdock ($Id: //depot/dev/client3/rdock/2013.1/src/exe/rbdock.cxx#4 $)

>  <Rbt.Library>
libRbt.so (2013.1, Build901 2013/11/27)

>  <Rbt.Parameter_File>
/export/apps/rDock/src/rDock_2013.1_src/data/scripts/dock_solv.prm

>  <Rbt.Receptor>
prm/blind_docking_100.prm

>  <SCORE>
-13.2799

>  <SCORE.INTER>
-13.5115

>  <SCORE.INTER.CONST>
1

>  <SCORE.INTER.POLAR>
0

>  <SCORE.INTER.ROT>
8

>  <SCORE.INTER.SOLV>
29.7055

>  <SCORE.INTER.VDW>
-27.8429

>  <SCORE.INTER.norm>
-0.422235

>  <SCORE.INTRA>
0.185954

>  <SCORE.INTRA.DIHEDRAL>
0.489658

>  <SCORE.INTRA.DIHEDRAL.0>
10.9594

>  <SCORE.INTRA.POLAR>
0

>  <SCORE.INTRA.POLAR.0>
0

>  <SCORE.INTRA.REPUL>
0

>  <SCORE.INTRA.REPUL.0>
0

>  <SCORE.INTRA.SOLV>
-2.6511

>  <SCORE.INTRA.SOLV.lig_0>
-124.914

>  <SCORE.INTRA.VDW>
1.26667

>  <SCORE.INTRA.VDW.0>
-4.69801

>  <SCORE.INTRA.norm>
0.00581105

>  <SCORE.RESTR>
0.0457088

>  <SCORE.RESTR.CAVITY>
0.0457088

>  <SCORE.RESTR.norm>
0.0014284

>  <SCORE.SYSTEM>
0

>  <SCORE.SYSTEM.CONST>
0

>  <SCORE.SYSTEM.DIHEDRAL>
0

>  <SCORE.SYSTEM.SOLV>
0

>  <SCORE.SYSTEM.norm>
0

>  <SCORE.heavy>
32

>  <SCORE.norm>
-0.414996

>  <RMSD>
32.579

$$$$
ligand
 OpenBabel11021811513D
libRbt.so/2013.1/901 2013/11/27
 32 34  0  0  0  0  0  0  0  0999 V2000
   27.0037  -29.1577   13.5766 P   0  0  1  0  0  0  0  0  0  0  0  0
   28.0019  -28.8924   16.2533 P   0  0  2  0  0  0  0  0  0  0  0  0
   26.3095  -29.3227   18.6125 P   0  0  1  0  0  0  0  0  0  0  0  0
   26.4968  -31.0517   11.8599 C   0  0  0  0  0  0  0  0  0  0  0  0
   26.0924  -30.4198   13.0410 O   0  0  0  0  0  0  0  0  0  0  0  0
   25.3920  -31.6189   11.2347 C   0  0  1  0  0  0  0  0  0  0  0  0
   24.3187  -30.5675   11.0290 O   0  0  0  0  0  0  0  0  0  0  0  0
   25.7614  -32.1575    9.7767 C   0  0  1  0  0  0  0  0  0  0  0  0
   25.6132  -33.6618    9.7439 O   0  0  0  0  0  0  0  0  0  0  0  0
   24.9120  -31.6890    9.0148 C   0  0  1  0  0  0  0  0  0  0  0  0
   23.8427  -32.6920    8.7945 O   0  0  0  0  0  0  0  0  0  0  0  0
   24.2858  -30.3460    9.7751 C   0  0  2  0  0  0  0  0  0  0  0  0
   25.3455  -25.4777   11.0250 N   0  0  0  0  0  0  0  0  0  0  0  0
   27.8935  -28.6608   12.4642 O   0  5  0  0  0  0  0  0  0  0  0  0
   28.3326  -27.4369   16.0376 O   0  5  0  0  0  0  0  0  0  0  0  0
   27.3287  -30.3468   19.0539 O   0  0  0  0  0  0  0  0  0  0  0  0
   24.5029  -26.3095   11.6174 C   0  0  0  0  0  0  0  0  0  0  0  0
   23.7503  -25.8580   12.7704 N   0  0  0  0  0  0  0  0  0  0  0  0
   26.0801  -28.0627   14.0605 O   0  0  0  0  0  0  0  0  0  0  0  0
   29.0671  -29.5308   17.1058 O   0  0  0  0  0  0  0  0  0  0  0  0
   26.5156  -28.0472   19.3999 O   0  5  0  0  0  0  0  0  0  0  0  0
   24.3235  -27.5434   11.1920 N   0  0  0  0  0  0  0  0  0  0  0  0
   27.9464  -29.6825   14.8154 O   0  0  0  0  0  0  0  0  0  0  0  0
   26.5445  -29.0284   17.0039 O   0  0  0  0  0  0  0  0  0  0  0  0
   24.9210  -29.8726   18.8556 O   0  0  0  0  0  0  0  0  0  0  0  0
   24.9989  -27.9996   10.1303 C   0  0  0  0  0  0  0  0  0  0  0  0
   25.8835  -27.1526    9.4938 C   0  0  0  0  0  0  0  0  0  0  0  0
   26.0597  -25.8379    9.9667 C   0  0  0  0  0  0  0  0  0  0  0  0
   26.9538  -24.9523    9.3396 O   0  0  0  0  0  0  0  0  0  0  0  0
   26.4311  -27.8321    8.4717 N   0  0  0  0  0  0  0  0  0  0  0  0
   25.9079  -29.0458    8.4753 C   0  0  0  0  0  0  0  0  0  0  0  0
   25.0421  -29.1644    9.4646 N   0  0  0  0  0  0  0  0  0  0  0  0
  1  5  1  6  0  0  0
  1 14  1  0  0  0  0
  1 19  2  0  0  0  0
  1 23  1  0  0  0  0
  2 15  1  6  0  0  0
  2 20  2  0  0  0  0
  2 23  1  0  0  0  0
  2 24  1  0  0  0  0
  3 16  1  1  0  0  0
  3 21  1  0  0  0  0
  3 24  1  0  0  0  0
  3 25  2  0  0  0  0
  4  5  1  0  0  0  0
  6  4  1  6  0  0  0
  6  7  1  0  0  0  0
  6  8  1  0  0  0  0
  7 12  1  0  0  0  0
  8  9  1  1  0  0  0
  8 10  1  0  0  0  0
 10 11  1  1  0  0  0
 10 12  1  0  0  0  0
 12 32  1  1  0  0  0
 13 17  2  0  0  0  0
 13 28  1  0  0  0  0
 17 18  1  0  0  0  0
 17 22  1  0  0  0  0
 22 26  2  0  0  0  0
 26 27  1  0  0  0  0
 26 32  1  0  0  0  0
 27 28  2  0  0  0  0
 27 30  1  0  0  0  0
 28 29  1  0  0  0  0
 30 31  2  0  0  0  0
 31 32  1  0  0  0  0
M  CHG  3  14  -1  15  -1  21  -1
M  END
>  <CHROM.1>
16.53504664,-53.65098760,-40.16868252,54.31072963,-152.94127392,-44.84192819
-128.81288463,-100.87168573,26.15205192,-29.09295811,13.12562363,0.35887917
1.34600198,2.74073608

>  <Name>
ligand

>  <RI>
0

>  <Rbt.Current_Directory>
/home/itssahil/PROJECTS/Mol_Feturizer/New_Systems/rnas/4Y1I

>  <Rbt.Executable>
rbdock ($Id: //depot/dev/client3/rdock/2013.1/src/exe/rbdock.cxx#4 $)

>  <Rbt.Library>
libRbt.so (2013.1, Build901 2013/11/27)

>  <Rbt.Parameter_File>
/export/apps/rDock/src/rDock_2013.1_src/data/scripts/dock_solv.prm

>  <Rbt.Receptor>
prm/blind_docking_60.prm

>  <SCORE>
-13.8746

>  <SCORE.INTER>
-12.283

>  <SCORE.INTER.CONST>
1

>  <SCORE.INTER.POLAR>
0

>  <SCORE.INTER.ROT>
8

>  <SCORE.INTER.SOLV>
27.0794

>  <SCORE.INTER.VDW>
-26.1485

>  <SCORE.INTER.norm>
-0.383845

>  <SCORE.INTRA>
-1.59346

>  <SCORE.INTRA.DIHEDRAL>
0.147493

>  <SCORE.INTRA.DIHEDRAL.0>
10.9594

>  <SCORE.INTRA.POLAR>
0

>  <SCORE.INTRA.POLAR.0>
0

>  <SCORE.INTRA.REPUL>
0

>  <SCORE.INTRA.REPUL.0>
0

>  <SCORE.INTRA.SOLV>
-2.07829

>  <SCORE.INTRA.SOLV.lig_0>
-124.914

>  <SCORE.INTRA.VDW>
-0.628058

>  <SCORE.INTRA.VDW.0>
-4.69801

>  <SCORE.INTRA.norm>
-0.0497956

>  <SCORE.RESTR>
0.00188796

>  <SCORE.RESTR.CAVITY>
0.00188796

>  <SCORE.RESTR.norm>
5.89986e-05

>  <SCORE.SYSTEM>
0

>  <SCORE.SYSTEM.CONST>
0

>  <SCORE.SYSTEM.DIHEDRAL>
0

>  <SCORE.SYSTEM.SOLV>
0

>  <SCORE.SYSTEM.norm>
0

>  <SCORE.heavy>
32

>  <SCORE.norm>
-0.433582

>  <RMSD>
32.582

$$$$
ligand
 OpenBabel11021811513D
libRbt.so/2013.1/901 2013/11/27
 32 34  0  0  0  0  0  0  0  0999 V2000
   25.5114  -30.2335   11.8870 P   0  0  1  0  0  0  0  0  0  0  0  0
   23.0943  -31.6391   11.2443 P   0  0  2  0  0  0  0  0  0  0  0  0
   23.4095  -33.5082    9.0033 P   0  0  1  0  0  0  0  0  0  0  0  0
   26.0228  -29.8360   14.4113 C   0  0  0  0  0  0  0  0  0  0  0  0
   26.5506  -30.1839   13.1629 O   0  0  0  0  0  0  0  0  0  0  0  0
   27.0587  -29.6694   15.3236 C   0  0  1  0  0  0  0  0  0  0  0  0
   28.0559  -28.6572   14.7934 O   0  0  0  0  0  0  0  0  0  0  0  0
   26.5255  -29.0743   16.7070 C   0  0  1  0  0  0  0  0  0  0  0  0
   26.7253  -30.0957   17.8039 O   0  0  0  0  0  0  0  0  0  0  0  0
   27.2514  -28.1114   16.9664 C   0  0  1  0  0  0  0  0  0  0  0  0
   28.3207  -28.5394   17.8998 O   0  0  0  0  0  0  0  0  0  0  0  0
   27.9187  -27.6210   15.5214 C   0  0  2  0  0  0  0  0  0  0  0  0
   27.7231  -23.3226   12.7159 N   0  0  0  0  0  0  0  0  0  0  0  0
   25.1212  -28.8313   11.4902 O   0  5  0  0  0  0  0  0  0  0  0  0
   22.7978  -30.5979   10.1944 O   0  5  0  0  0  0  0  0  0  0  0  0
   24.1370  -32.6036    8.0365 O   0  0  0  0  0  0  0  0  0  0  0  0
   28.7934  -23.9484   13.1802 C   0  0  0  0  0  0  0  0  0  0  0  0
   30.1092  -23.4100   12.9004 N   0  0  0  0  0  0  0  0  0  0  0  0
   26.1849  -30.9526   10.7400 O   0  0  0  0  0  0  0  0  0  0  0  0
   21.8231  -32.0056   11.9643 O   0  0  0  0  0  0  0  0  0  0  0  0
   23.9166  -34.9239    8.8346 O   0  5  0  0  0  0  0  0  0  0  0  0
   28.7032  -25.0525   13.8933 N   0  0  0  0  0  0  0  0  0  0  0  0
   24.1615  -31.0505   12.3441 O   0  0  0  0  0  0  0  0  0  0  0  0
   23.7295  -32.9809   10.5360 O   0  0  0  0  0  0  0  0  0  0  0  0
   21.9251  -33.4436    8.7173 O   0  0  0  0  0  0  0  0  0  0  0  0
   27.5067  -25.5825   14.1743 C   0  0  0  0  0  0  0  0  0  0  0  0
   26.3744  -24.9496   13.7026 C   0  0  0  0  0  0  0  0  0  0  0  0
   26.4950  -23.7709   12.9415 C   0  0  0  0  0  0  0  0  0  0  0  0
   25.3602  -23.1042   12.4471 O   0  0  0  0  0  0  0  0  0  0  0  0
   25.3114  -25.6637   14.1101 N   0  0  0  0  0  0  0  0  0  0  0  0
   25.7659  -26.6928   14.8039 C   0  0  0  0  0  0  0  0  0  0  0  0
   27.0844  -26.6593   14.8555 N   0  0  0  0  0  0  0  0  0  0  0  0
  1  5  1  1  0  0  0
  1 14  1  0  0  0  0
  1 19  2  0  0  0  0
  1 23  1  0  0  0  0
  2 15  1  6  0  0  0
  2 20  2  0  0  0  0
  2 23  1  0  0  0  0
  2 24  1  0  0  0  0
  3 16  1  6  0  0  0
  3 21  1  0  0  0  0
  3 24  1  0  0  0  0
  3 25  2  0  0  0  0
  4  5  1  0  0  0  0
  6  4  1  6  0  0  0
  6  7  1  0  0  0  0
  6  8  1  0  0  0  0
  7 12  1  0  0  0  0
  8  9  1  1  0  0  0
  8 10  1  0  0  0  0
 10 11  1  1  0  0  0
 10 12  1  0  0  0  0
 12 32  1  6  0  0  0
 13 17  2  0  0  0  0
 13 28  1  0  0  0  0
 17 18  1  0  0  0  0
 17 22  1  0  0  0  0
 22 26  2  0  0  0  0
 26 27  1  0  0  0  0
 26 32  1  0  0  0  0
 27 28  2  0  0  0  0
 27 30  1  0  0  0  0
 28 29  1  0  0  0  0
 30 31  2  0  0  0  0
 31 32  1  0  0  0  0
M  CHG  3  14  -1  15  -1  21  -1
M  END
>  <CHROM.1>
72.55781239,-45.61850492,74.36116999,55.04229682,-172.05743760,-99.62881614
-163.50082353,-29.78365292,25.64563935,-29.13539618,12.71917616,2.85633545
1.09156854,2.47617599

>  <Name>
ligand

>  <RI>
0

>  <Rbt.Current_Directory>
/home/itssahil/PROJECTS/Mol_Feturizer/New_Systems/rnas/4Y1I

>  <Rbt.Executable>
rbdock ($Id: //depot/dev/client3/rdock/2013.1/src/exe/rbdock.cxx#4 $)

>  <Rbt.Library>
libRbt.so (2013.1, Build901 2013/11/27)

>  <Rbt.Parameter_File>
/export/apps/rDock/src/rDock_2013.1_src/data/scripts/dock_solv.prm

>  <Rbt.Receptor>
prm/blind_docking_60.prm

>  <SCORE>
-16.0664

>  <SCORE.INTER>
-10.8301

>  <SCORE.INTER.CONST>
1

>  <SCORE.INTER.POLAR>
0

>  <SCORE.INTER.ROT>
8

>  <SCORE.INTER.SOLV>
16.0568

>  <SCORE.INTER.VDW>
-21.5056

>  <SCORE.INTER.norm>
-0.33844

>  <SCORE.INTRA>
-5.23628

>  <SCORE.INTRA.DIHEDRAL>
-6.81048

>  <SCORE.INTRA.DIHEDRAL.0>
10.9594

>  <SCORE.INTRA.POLAR>
0

>  <SCORE.INTRA.POLAR.0>
0

>  <SCORE.INTRA.REPUL>
0

>  <SCORE.INTRA.REPUL.0>
0

>  <SCORE.INTRA.SOLV>
-3.64655

>  <SCORE.INTRA.SOLV.lig_0>
-124.914

>  <SCORE.INTRA.VDW>
-0.00776703

>  <SCORE.INTRA.VDW.0>
-4.69801

>  <SCORE.INTRA.norm>
-0.163634

>  <SCORE.RESTR>
0

>  <SCORE.RESTR.CAVITY>
0

>  <SCORE.RESTR.norm>
0

>  <SCORE.SYSTEM>
0

>  <SCORE.SYSTEM.CONST>
0

>  <SCORE.SYSTEM.DIHEDRAL>
0

>  <SCORE.SYSTEM.SOLV>
0

>  <SCORE.SYSTEM.norm>
0

>  <SCORE.heavy>
32

>  <SCORE.norm>
-0.502074

>  <RMSD>
32.712

$$$$
ligand
 OpenBabel11021811513D
libRbt.so/2013.1/901 2013/11/27
 32 34  0  0  0  0  0  0  0  0999 V2000
   26.6858  -29.6156   13.7371 P   0  0  1  0  0  0  0  0  0  0  0  0
   25.0782  -29.0295   16.0400 P   0  0  2  0  0  0  0  0  0  0  0  0
   27.4550  -28.2705   17.5860 P   0  0  1  0  0  0  0  0  0  0  0  0
   24.6358  -30.2007   12.2381 C   0  0  0  0  0  0  0  0  0  0  0  0
   26.0190  -30.3252   12.4097 O   0  0  0  0  0  0  0  0  0  0  0  0
   24.2546  -30.8354   11.0613 C   0  0  1  0  0  0  0  0  0  0  0  0
   24.9710  -30.2083    9.8809 O   0  0  0  0  0  0  0  0  0  0  0  0
   24.6829  -32.3745   11.0652 C   0  0  1  0  0  0  0  0  0  0  0  0
   23.4440  -33.2411   11.0524 O   0  0  0  0  0  0  0  0  0  0  0  0
   25.2751  -32.5663   10.0004 C   0  0  1  0  0  0  0  0  0  0  0  0
   24.3313  -33.1346    9.0084 O   0  0  0  0  0  0  0  0  0  0  0  0
   25.8147  -31.0771    9.4858 C   0  0  2  0  0  0  0  0  0  0  0  0
   29.4612  -27.5202   10.1467 N   0  0  0  0  0  0  0  0  0  0  0  0
   28.1235  -30.0496   13.8812 O   0  5  0  0  0  0  0  0  0  0  0  0
   24.4241  -29.7482   17.1931 O   0  5  0  0  0  0  0  0  0  0  0  0
   28.2968  -27.0208   17.6952 O   0  0  0  0  0  0  0  0  0  0  0  0
   28.2910  -27.3893    9.5417 C   0  0  0  0  0  0  0  0  0  0  0  0
   27.9251  -26.1091    8.9700 N   0  0  0  0  0  0  0  0  0  0  0  0
   26.5864  -28.1144   13.5867 O   0  0  0  0  0  0  0  0  0  0  0  0
   24.0279  -28.3182   15.2277 O   0  0  0  0  0  0  0  0  0  0  0  0
   26.9641  -28.6592   18.9635 O   0  5  0  0  0  0  0  0  0  0  0  0
   27.4405  -28.3904    9.4404 N   0  0  0  0  0  0  0  0  0  0  0  0
   25.8494  -30.1015   15.0649 O   0  0  0  0  0  0  0  0  0  0  0  0
   26.1655  -27.9343   16.6095 O   0  0  0  0  0  0  0  0  0  0  0  0
   28.2954  -29.3809   16.9943 O   0  0  0  0  0  0  0  0  0  0  0  0
   27.7399  -29.5893    9.9547 C   0  0  0  0  0  0  0  0  0  0  0  0
   28.9541  -29.7530   10.5905 C   0  0  0  0  0  0  0  0  0  0  0  0
   29.8471  -28.6685   10.6874 C   0  0  0  0  0  0  0  0  0  0  0  0
   31.0906  -28.8045   11.3295 O   0  0  0  0  0  0  0  0  0  0  0  0
   29.0206  -31.0262   11.0156 N   0  0  0  0  0  0  0  0  0  0  0  0
   27.8974  -31.6240   10.6581 C   0  0  0  0  0  0  0  0  0  0  0  0
   27.1155  -30.7759   10.0164 N   0  0  0  0  0  0  0  0  0  0  0  0
  1  5  1  6  0  0  0
  1 14  1  0  0  0  0
  1 19  2  0  0  0  0
  1 23  1  0  0  0  0
  2 15  1  1  0  0  0
  2 20  2  0  0  0  0
  2 23  1  0  0  0  0
  2 24  1  0  0  0  0
  3 16  1  1  0  0  0
  3 21  1  0  0  0  0
  3 24  1  0  0  0  0
  3 25  2  0  0  0  0
  4  5  1  0  0  0  0
  6  4  1  1  0  0  0
  6  7  1  0  0  0  0
  6  8  1  0  0  0  0
  7 12  1  0  0  0  0
  8  9  1  6  0  0  0
  8 10  1  0  0  0  0
 10 11  1  6  0  0  0
 10 12  1  0  0  0  0
 12 32  1  1  0  0  0
 13 17  2  0  0  0  0
 13 28  1  0  0  0  0
 17 18  1  0  0  0  0
 17 22  1  0  0  0  0
 22 26  2  0  0  0  0
 26 27  1  0  0  0  0
 26 32  1  0  0  0  0
 27 28  2  0  0  0  0
 27 30  1  0  0  0  0
 28 29  1  0  0  0  0
 30 31  2  0  0  0  0
 31 32  1  0  0  0  0
M  CHG  3  14  -1  15  -1  21  -1
M  END
>  <CHROM.1>
170.32027033,-178.67506502,171.67553499,-59.59289902,178.92097958,-50.55290150
-119.97137726,57.59310208,26.67581931,-29.60023061,13.00906441,1.57484095
0.60917989,1.30468151

>  <Name>
ligand

>  <RI>
0

>  <Rbt.Current_Directory>
/home/itssahil/PROJECTS/Mol_Feturizer/New_Systems/rnas/4Y1I

>  <Rbt.Executable>
rbdock ($Id: //depot/dev/client3/rdock/2013.1/src/exe/rbdock.cxx#4 $)

>  <Rbt.Library>
libRbt.so (2013.1, Build901 2013/11/27)

>  <Rbt.Parameter_File>
/export/apps/rDock/src/rDock_2013.1_src/data/scripts/dock_solv.prm

>  <Rbt.Receptor>
prm/blind_docking_100.prm

>  <SCORE>
-13.9043

>  <SCORE.INTER>
-8.84701

>  <SCORE.INTER.CONST>
1

>  <SCORE.INTER.POLAR>
0

>  <SCORE.INTER.ROT>
8

>  <SCORE.INTER.SOLV>
23.8209

>  <SCORE.INTER.VDW>
-22.7716

>  <SCORE.INTER.norm>
-0.276469

>  <SCORE.INTRA>
-5.05732

>  <SCORE.INTRA.DIHEDRAL>
-7.06585

>  <SCORE.INTRA.DIHEDRAL.0>
10.9594

>  <SCORE.INTRA.POLAR>
0

>  <SCORE.INTRA.POLAR.0>
0

>  <SCORE.INTRA.REPUL>
0

>  <SCORE.INTRA.REPUL.0>
0

>  <SCORE.INTRA.SOLV>
1.21051

>  <SCORE.INTRA.SOLV.lig_0>
-124.914

>  <SCORE.INTRA.VDW>
-2.12965

>  <SCORE.INTRA.VDW.0>
-4.69801

>  <SCORE.INTRA.norm>
-0.158041

>  <SCORE.RESTR>
0

>  <SCORE.RESTR.CAVITY>
0

>  <SCORE.RESTR.norm>
0

>  <SCORE.SYSTEM>
0

>  <SCORE.SYSTEM.CONST>
0

>  <SCORE.SYSTEM.DIHEDRAL>
0

>  <SCORE.SYSTEM.SOLV>
0

>  <SCORE.SYSTEM.norm>
0

>  <SCORE.heavy>
32

>  <SCORE.norm>
-0.43451

>  <RMSD>
32.855

$$$$
ligand
 OpenBabel11021811513D
libRbt.so/2013.1/901 2013/11/27
 32 34  0  0  0  0  0  0  0  0999 V2000
   25.9104  -30.1220   12.8320 P   0  0  1  0  0  0  0  0  0  0  0  0
   23.7236  -31.8028   13.6219 P   0  0  2  0  0  0  0  0  0  0  0  0
   24.3858  -34.0174   11.8129 P   0  0  1  0  0  0  0  0  0  0  0  0
   27.2091  -28.0309   11.9763 C   0  0  0  0  0  0  0  0  0  0  0  0
   26.0556  -28.4963   12.6173 O   0  0  0  0  0  0  0  0  0  0  0  0
   27.2470  -26.6424   12.0382 C   0  0  1  0  0  0  0  0  0  0  0  0
   25.9574  -26.0656   11.4865 O   0  0  0  0  0  0  0  0  0  0  0  0
   27.3444  -26.1297   13.5480 C   0  0  1  0  0  0  0  0  0  0  0  0
   28.6674  -25.4278   13.7562 O   0  0  0  0  0  0  0  0  0  0  0  0
   26.4564  -25.2838   13.6789 C   0  0  1  0  0  0  0  0  0  0  0  0
   27.0342  -23.9314   13.4913 O   0  0  0  0  0  0  0  0  0  0  0  0
   25.3316  -25.5930   12.4902 C   0  0  2  0  0  0  0  0  0  0  0  0
   23.8115  -28.7879   16.2140 N   0  0  0  0  0  0  0  0  0  0  0  0
   26.6159  -30.8505   11.7150 O   0  5  0  0  0  0  0  0  0  0  0  0
   22.2625  -32.0007   13.3053 O   0  5  0  0  0  0  0  0  0  0  0  0
   22.9080  -34.2481   11.6002 O   0  0  0  0  0  0  0  0  0  0  0  0
   24.8972  -28.0311   16.1781 C   0  0  0  0  0  0  0  0  0  0  0  0
   25.8187  -28.0560   17.2961 N   0  0  0  0  0  0  0  0  0  0  0  0
   26.5006  -30.4892   14.1747 O   0  0  0  0  0  0  0  0  0  0  0  0
   23.8893  -31.5403   15.0958 O   0  0  0  0  0  0  0  0  0  0  0  0
   24.9378  -33.2309   10.6441 O   0  5  0  0  0  0  0  0  0  0  0  0
   25.1711  -27.2498   15.1534 N   0  0  0  0  0  0  0  0  0  0  0  0
   24.3153  -30.5134   12.7961 O   0  0  0  0  0  0  0  0  0  0  0  0
   24.5721  -33.1494   13.2062 O   0  0  0  0  0  0  0  0  0  0  0  0
   25.0830  -35.3558   11.9225 O   0  0  0  0  0  0  0  0  0  0  0  0
   24.3461  -27.1977   14.1007 C   0  0  0  0  0  0  0  0  0  0  0  0
   23.2072  -27.9773   14.1123 C   0  0  0  0  0  0  0  0  0  0  0  0
   22.9343  -28.8043   15.2189 C   0  0  0  0  0  0  0  0  0  0  0  0
   21.7821  -29.6091   15.2598 O   0  0  0  0  0  0  0  0  0  0  0  0
   22.5509  -27.7532   12.9611 N   0  0  0  0  0  0  0  0  0  0  0  0
   23.2532  -26.8742   12.2675 C   0  0  0  0  0  0  0  0  0  0  0  0
   24.3381  -26.5303   12.9360 N   0  0  0  0  0  0  0  0  0  0  0  0
  1  5  1  6  0  0  0
  1 14  1  0  0  0  0
  1 19  2  0  0  0  0
  1 23  1  0  0  0  0
  2 15  1  6  0  0  0
  2 20  2  0  0  0  0
  2 23  1  0  0  0  0
  2 24  1  0  0  0  0
  3 16  1  6  0  0  0
  3 21  1  0  0  0  0
  3 24  1  0  0  0  0
  3 25  2  0  0  0  0
  4  5  1  0  0  0  0
  6  4  1  1  0  0  0
  6  7  1  0  0  0  0
  6  8  1  0  0  0  0
  7 12  1  0  0  0  0
  8  9  1  6  0  0  0
  8 10  1  0  0  0  0
 10 11  1  6  0  0  0
 10 12  1  0  0  0  0
 12 32  1  1  0  0  0
 13 17  2  0  0  0  0
 13 28  1  0  0  0  0
 17 18  1  0  0  0  0
 17 22  1  0  0  0  0
 22 26  2  0  0  0  0
 26 27  1  0  0  0  0
 26 32  1  0  0  0  0
 27 28  2  0  0  0  0
 27 30  1  0  0  0  0
 28 29  1  0  0  0  0
 30 31  2  0  0  0  0
 31 32  1  0  0  0  0
M  CHG  3  14  -1  15  -1  21  -1
M  END
>  <CHROM.1>
-30.37134344,-174.63981735,-47.10610913,-53.94117173,-172.23533505,112.82997192
-151.08678226,43.45765385,24.94192812,-29.46559061,13.31455610,-1.93932877
0.71398238,0.40209699

>  <Name>
ligand

>  <RI>
0

>  <Rbt.Current_Directory>
/home/itssahil/PROJECTS/Mol_Feturizer/New_Systems/rnas/4Y1I

>  <Rbt.Executable>
rbdock ($Id: //depot/dev/client3/rdock/2013.1/src/exe/rbdock.cxx#4 $)

>  <Rbt.Library>
libRbt.so (2013.1, Build901 2013/11/27)

>  <Rbt.Parameter_File>
/export/apps/rDock/src/rDock_2013.1_src/data/scripts/dock_solv.prm

>  <Rbt.Receptor>
prm/blind_docking_80.prm

>  <SCORE>
-7.20676

>  <SCORE.INTER>
-2.34357

>  <SCORE.INTER.CONST>
1

>  <SCORE.INTER.POLAR>
0

>  <SCORE.INTER.ROT>
8

>  <SCORE.INTER.SOLV>
16.4882

>  <SCORE.INTER.VDW>
-15.9918

>  <SCORE.INTER.norm>
-0.0732365

>  <SCORE.INTRA>
-4.8632

>  <SCORE.INTRA.DIHEDRAL>
-6.20426

>  <SCORE.INTRA.DIHEDRAL.0>
10.9594

>  <SCORE.INTRA.POLAR>
0

>  <SCORE.INTRA.POLAR.0>
0

>  <SCORE.INTRA.REPUL>
0

>  <SCORE.INTRA.REPUL.0>
0

>  <SCORE.INTRA.SOLV>
2.97008

>  <SCORE.INTRA.SOLV.lig_0>
-124.914

>  <SCORE.INTRA.VDW>
-3.24611

>  <SCORE.INTRA.VDW.0>
-4.69801

>  <SCORE.INTRA.norm>
-0.151975

>  <SCORE.RESTR>
0

>  <SCORE.RESTR.CAVITY>
0

>  <SCORE.RESTR.norm>
0

>  <SCORE.SYSTEM>
0

>  <SCORE.SYSTEM.CONST>
0

>  <SCORE.SYSTEM.DIHEDRAL>
0

>  <SCORE.SYSTEM.SOLV>
0

>  <SCORE.SYSTEM.norm>
0

>  <SCORE.heavy>
32

>  <SCORE.norm>
-0.225211

>  <RMSD>
32.881

$$$$
ligand
 OpenBabel11021811513D
libRbt.so/2013.1/901 2013/11/27
 32 34  0  0  0  0  0  0  0  0999 V2000
   27.5520  -30.2647   11.6997 P   0  0  1  0  0  0  0  0  0  0  0  0
   25.7099  -31.7524   10.0797 P   0  0  2  0  0  0  0  0  0  0  0  0
   23.3186  -32.8701   11.3634 P   0  0  1  0  0  0  0  0  0  0  0  0
   26.7510  -29.8339   14.1418 C   0  0  0  0  0  0  0  0  0  0  0  0
   27.8276  -30.1876   13.3209 O   0  0  0  0  0  0  0  0  0  0  0  0
   27.2186  -29.5274   15.4149 C   0  0  1  0  0  0  0  0  0  0  0  0
   28.2836  -28.4511   15.3285 O   0  0  0  0  0  0  0  0  0  0  0  0
   26.0583  -28.9216   16.3307 C   0  0  1  0  0  0  0  0  0  0  0  0
   25.7770  -29.8669   17.4767 O   0  0  0  0  0  0  0  0  0  0  0  0
   26.5138  -27.8831   16.8159 C   0  0  1  0  0  0  0  0  0  0  0  0
   27.0374  -28.1636   18.1742 O   0  0  0  0  0  0  0  0  0  0  0  0
   27.7545  -27.3997   15.8153 C   0  0  2  0  0  0  0  0  0  0  0  0
   23.7827  -26.0743   12.8398 N   0  0  0  0  0  0  0  0  0  0  0  0
   27.5688  -28.8756   11.1113 O   0  5  0  0  0  0  0  0  0  0  0  0
   26.5635  -32.9913    9.9754 O   0  5  0  0  0  0  0  0  0  0  0  0
   21.9255  -33.2227   10.8971 O   0  0  0  0  0  0  0  0  0  0  0  0
   23.8214  -26.9954   13.7899 C   0  0  0  0  0  0  0  0  0  0  0  0
   22.6297  -27.7661   14.0823 N   0  0  0  0  0  0  0  0  0  0  0  0
   28.6161  -31.1330   11.0671 O   0  0  0  0  0  0  0  0  0  0  0  0
   25.9785  -30.8540    8.9010 O   0  0  0  0  0  0  0  0  0  0  0  0
   24.0352  -34.1346   11.7842 O   0  5  0  0  0  0  0  0  0  0  0  0
   24.9143  -27.2377   14.4845 N   0  0  0  0  0  0  0  0  0  0  0  0
   26.0693  -30.9275   11.4526 O   0  0  0  0  0  0  0  0  0  0  0  0
   24.1191  -32.1708   10.0986 O   0  0  0  0  0  0  0  0  0  0  0  0
   23.2202  -31.9088   12.5278 O   0  0  0  0  0  0  0  0  0  0  0  0
   26.0365  -26.5483   14.2457 C   0  0  0  0  0  0  0  0  0  0  0  0
   26.0235  -25.5823   13.2599 C   0  0  0  0  0  0  0  0  0  0  0  0
   24.8434  -25.3399   12.5307 C   0  0  0  0  0  0  0  0  0  0  0  0
   24.7993  -24.3622   11.5212 O   0  0  0  0  0  0  0  0  0  0  0  0
   27.2508  -25.0369   13.2107 N   0  0  0  0  0  0  0  0  0  0  0  0
   27.9907  -25.6393   14.1253 C   0  0  0  0  0  0  0  0  0  0  0  0
   27.2779  -26.5536   14.7564 N   0  0  0  0  0  0  0  0  0  0  0  0
  1  5  1  1  0  0  0
  1 14  1  0  0  0  0
  1 19  2  0  0  0  0
  1 23  1  0  0  0  0
  2 15  1  6  0  0  0
  2 20  2  0  0  0  0
  2 23  1  0  0  0  0
  2 24  1  0  0  0  0
  3 16  1  6  0  0  0
  3 21  1  0  0  0  0
  3 24  1  0  0  0  0
  3 25  2  0  0  0  0
  4  5  1  0  0  0  0
  6  4  1  6  0  0  0
  6  7  1  0  0  0  0
  6  8  1  0  0  0  0
  7 12  1  0  0  0  0
  8  9  1  1  0  0  0
  8 10  1  0  0  0  0
 10 11  1  1  0  0  0
 10 12  1  0  0  0  0
 12 32  1  6  0  0  0
 13 17  2  0  0  0  0
 13 28  1  0  0  0  0
 17 18  1  0  0  0  0
 17 22  1  0  0  0  0
 22 26  2  0  0  0  0
 26 27  1  0  0  0  0
 26 32  1  0  0  0  0
 27 28  2  0  0  0  0
 27 30  1  0  0  0  0
 28 29  1  0  0  0  0
 30 31  2  0  0  0  0
 31 32  1  0  0  0  0
M  CHG  3  14  -1  15  -1  21  -1
M  END
>  <CHROM.1>
79.54108324,63.85051649,-173.69068428,55.01552743,-166.77187078,93.04357270
-152.70787190,73.32128239,25.81364284,-29.41869303,12.91936100,2.46877527
1.25834114,2.91775245

>  <Name>
ligand

>  <RI>
0

>  <Rbt.Current_Directory>
/home/itssahil/PROJECTS/Mol_Feturizer/New_Systems/rnas/4Y1I

>  <Rbt.Executable>
rbdock ($Id: //depot/dev/client3/rdock/2013.1/src/exe/rbdock.cxx#4 $)

>  <Rbt.Library>
libRbt.so (2013.1, Build901 2013/11/27)

>  <Rbt.Parameter_File>
/export/apps/rDock/src/rDock_2013.1_src/data/scripts/dock_solv.prm

>  <Rbt.Receptor>
prm/blind_docking_80.prm

>  <SCORE>
-14.6641

>  <SCORE.INTER>
-9.75184

>  <SCORE.INTER.CONST>
1

>  <SCORE.INTER.POLAR>
0

>  <SCORE.INTER.ROT>
8

>  <SCORE.INTER.SOLV>
19.9528

>  <SCORE.INTER.VDW>
-22.0855

>  <SCORE.INTER.norm>
-0.304745

>  <SCORE.INTRA>
-4.93512

>  <SCORE.INTRA.DIHEDRAL>
-6.80587

>  <SCORE.INTRA.DIHEDRAL.0>
10.9594

>  <SCORE.INTRA.POLAR>
0

>  <SCORE.INTRA.POLAR.0>
0

>  <SCORE.INTRA.REPUL>
0

>  <SCORE.INTRA.REPUL.0>
0

>  <SCORE.INTRA.SOLV>
-2.47645

>  <SCORE.INTRA.SOLV.lig_0>
-124.914

>  <SCORE.INTRA.VDW>
-0.293965

>  <SCORE.INTRA.VDW.0>
-4.69801

>  <SCORE.INTRA.norm>
-0.154223

>  <SCORE.RESTR>
0.0228829

>  <SCORE.RESTR.CAVITY>
0.0228829

>  <SCORE.RESTR.norm>
0.00071509

>  <SCORE.SYSTEM>
0

>  <SCORE.SYSTEM.CONST>
0

>  <SCORE.SYSTEM.DIHEDRAL>
0

>  <SCORE.SYSTEM.SOLV>
0

>  <SCORE.SYSTEM.norm>
0

>  <SCORE.heavy>
32

>  <SCORE.norm>
-0.458252

>  <RMSD>
32.904

$$$$
ligand
 OpenBabel11021811513D
libRbt.so/2013.1/901 2013/11/27
 32 34  0  0  0  0  0  0  0  0999 V2000
   24.0971  -30.4250   12.9447 P   0  0  1  0  0  0  0  0  0  0  0  0
   24.5825  -32.8526   11.4948 P   0  0  2  0  0  0  0  0  0  0  0  0
   22.8930  -33.1877    9.1182 P   0  0  1  0  0  0  0  0  0  0  0  0
   25.5365  -29.8829   15.0484 C   0  0  0  0  0  0  0  0  0  0  0  0
   25.5050  -30.5029   13.7944 O   0  0  0  0  0  0  0  0  0  0  0  0
   26.8477  -29.8310   15.5082 C   0  0  1  0  0  0  0  0  0  0  0  0
   27.7056  -29.0462   14.5346 O   0  0  0  0  0  0  0  0  0  0  0  0
   26.9455  -29.0547   16.9010 C   0  0  1  0  0  0  0  0  0  0  0  0
   27.3963  -30.0130   17.9802 O   0  0  0  0  0  0  0  0  0  0  0  0
   27.8376  -28.2145   16.7612 C   0  0  1  0  0  0  0  0  0  0  0  0
   29.1078  -28.7509   17.3059 O   0  0  0  0  0  0  0  0  0  0  0  0
   27.9857  -27.9519   15.1232 C   0  0  2  0  0  0  0  0  0  0  0  0
   27.5687  -23.3043   12.9757 N   0  0  0  0  0  0  0  0  0  0  0  0
   22.9882  -31.0793   13.7310 O   0  5  0  0  0  0  0  0  0  0  0  0
   23.7042  -33.5621   12.4945 O   0  5  0  0  0  0  0  0  0  0  0  0
   21.7213  -33.4278   10.0412 O   0  0  0  0  0  0  0  0  0  0  0  0
   28.6721  -23.9818   13.2519 C   0  0  0  0  0  0  0  0  0  0  0  0
   29.9613  -23.4007   12.9360 N   0  0  0  0  0  0  0  0  0  0  0  0
   23.7784  -28.9736   12.6651 O   0  0  0  0  0  0  0  0  0  0  0  0
   26.0300  -33.0855   11.8403 O   0  0  0  0  0  0  0  0  0  0  0  0
   22.8427  -31.7618    8.6142 O   0  5  0  0  0  0  0  0  0  0  0  0
   28.6387  -25.1754   13.8085 N   0  0  0  0  0  0  0  0  0  0  0  0
   24.2948  -31.2368   11.5303 O   0  0  0  0  0  0  0  0  0  0  0  0
   24.2811  -33.4245    9.9822 O   0  0  0  0  0  0  0  0  0  0  0  0
   22.8150  -34.1581    7.9598 O   0  0  0  0  0  0  0  0  0  0  0  0
   27.4685  -25.7476   14.1164 C   0  0  0  0  0  0  0  0  0  0  0  0
   26.3028  -25.0625   13.8393 C   0  0  0  0  0  0  0  0  0  0  0  0
   26.3627  -23.7880   13.2433 C   0  0  0  0  0  0  0  0  0  0  0  0
   25.1926  -23.0663   12.9487 O   0  0  0  0  0  0  0  0  0  0  0  0
   25.2756  -25.8338   14.2345 N   0  0  0  0  0  0  0  0  0  0  0  0
   25.7835  -26.9468   14.7346 C   0  0  0  0  0  0  0  0  0  0  0  0
   27.1016  -26.9120   14.6744 N   0  0  0  0  0  0  0  0  0  0  0  0
  1  5  1  1  0  0  0
  1 14  1  0  0  0  0
  1 19  2  0  0  0  0
  1 23  1  0  0  0  0
  2 15  1  1  0  0  0
  2 20  2  0  0  0  0
  2 23  1  0  0  0  0
  2 24  1  0  0  0  0
  3 16  1  1  0  0  0
  3 21  1  0  0  0  0
  3 24  1  0  0  0  0
  3 25  2  0  0  0  0
  4  5  1  0  0  0  0
  6  4  1  6  0  0  0
  6  7  1  0  0  0  0
  6  8  1  0  0  0  0
  7 12  1  0  0  0  0
  8  9  1  1  0  0  0
  8 10  1  0  0  0  0
 10 11  1  6  0  0  0
 10 12  1  0  0  0  0
 12 32  1  6  0  0  0
 13 17  2  0  0  0  0
 13 28  1  0  0  0  0
 17 18  1  0  0  0  0
 17 22  1  0  0  0  0
 22 26  2  0  0  0  0
 26 27  1  0  0  0  0
 26 32  1  0  0  0  0
 27 28  2  0  0  0  0
 27 30  1  0  0  0  0
 28 29  1  0  0  0  0
 30 31  2  0  0  0  0
 31 32  1  0  0  0  0
M  CHG  3  14  -1  15  -1  21  -1
M  END
>  <CHROM.1>
-60.22453055,42.21997487,-44.99370981,59.69958519,-169.09795993,-122.83407367
64.05907497,68.97592256,25.56379011,-29.37296075,13.03132653,-2.62314509
-1.03225478,-0.45889361

>  <Name>
ligand

>  <RI>
0

>  <Rbt.Current_Directory>
/home/itssahil/PROJECTS/Mol_Feturizer/New_Systems/rnas/4Y1I

>  <Rbt.Executable>
rbdock ($Id: //depot/dev/client3/rdock/2013.1/src/exe/rbdock.cxx#4 $)

>  <Rbt.Library>
libRbt.so (2013.1, Build901 2013/11/27)

>  <Rbt.Parameter_File>
/export/apps/rDock/src/rDock_2013.1_src/data/scripts/dock_solv.prm

>  <Rbt.Receptor>
prm/blind_docking_60.prm

>  <SCORE>
-17.67

>  <SCORE.INTER>
-11.09

>  <SCORE.INTER.CONST>
1

>  <SCORE.INTER.POLAR>
0

>  <SCORE.INTER.ROT>
8

>  <SCORE.INTER.SOLV>
19.141

>  <SCORE.INTER.VDW>
-22.707

>  <SCORE.INTER.norm>
-0.346564

>  <SCORE.INTRA>
-6.57993

>  <SCORE.INTRA.DIHEDRAL>
-8.1983

>  <SCORE.INTRA.DIHEDRAL.0>
10.9594

>  <SCORE.INTRA.POLAR>
0

>  <SCORE.INTRA.POLAR.0>
0

>  <SCORE.INTRA.REPUL>
0

>  <SCORE.INTRA.REPUL.0>
0

>  <SCORE.INTRA.SOLV>
-5.1751

>  <SCORE.INTRA.SOLV.lig_0>
-124.914

>  <SCORE.INTRA.VDW>
0.106766

>  <SCORE.INTRA.VDW.0>
-4.69801

>  <SCORE.INTRA.norm>
-0.205623

>  <SCORE.RESTR>
0

>  <SCORE.RESTR.CAVITY>
0

>  <SCORE.RESTR.norm>
0

>  <SCORE.SYSTEM>
0

>  <SCORE.SYSTEM.CONST>
0

>  <SCORE.SYSTEM.DIHEDRAL>
0

>  <SCORE.SYSTEM.SOLV>
0

>  <SCORE.SYSTEM.norm>
0

>  <SCORE.heavy>
32

>  <SCORE.norm>
-0.552187

>  <RMSD>
32.941

$$$$
ligand
 OpenBabel11021811513D
libRbt.so/2013.1/901 2013/11/27
 32 34  0  0  0  0  0  0  0  0999 V2000
   27.4933  -29.3459   11.5568 P   0  0  1  0  0  0  0  0  0  0  0  0
   25.8695  -31.4772   10.5313 P   0  0  2  0  0  0  0  0  0  0  0  0
   23.8129  -30.5417    8.6577 P   0  0  1  0  0  0  0  0  0  0  0  0
   27.1525  -30.0204   14.0509 C   0  0  0  0  0  0  0  0  0  0  0  0
   27.7993  -30.3214   12.8471 O   0  0  0  0  0  0  0  0  0  0  0  0
   27.9050  -29.0936   14.7636 C   0  0  1  0  0  0  0  0  0  0  0  0
   27.7629  -27.7206   14.1355 O   0  0  0  0  0  0  0  0  0  0  0  0
   27.3761  -28.9449   16.2637 C   0  0  1  0  0  0  0  0  0  0  0  0
   28.4410  -29.4273   17.2224 O   0  0  0  0  0  0  0  0  0  0  0  0
   27.2311  -27.7352   16.4558 C   0  0  1  0  0  0  0  0  0  0  0  0
   28.4332  -27.1982   17.1374 O   0  0  0  0  0  0  0  0  0  0  0  0
   27.0673  -27.0353   14.9534 C   0  0  2  0  0  0  0  0  0  0  0  0
   22.4074  -29.1538   15.3803 N   0  0  0  0  0  0  0  0  0  0  0  0
   26.4139  -28.3530   11.9109 O   0  5  0  0  0  0  0  0  0  0  0  0
   24.9910  -31.1692   11.7178 O   0  5  0  0  0  0  0  0  0  0  0  0
   22.9911  -31.2070    7.5787 O   0  0  0  0  0  0  0  0  0  0  0  0
   23.5249  -29.5043   15.9975 C   0  0  0  0  0  0  0  0  0  0  0  0
   23.5061  -30.6173   16.9251 N   0  0  0  0  0  0  0  0  0  0  0  0
   28.7722  -28.6390   11.1684 O   0  0  0  0  0  0  0  0  0  0  0  0
   26.6129  -32.7644   10.7747 O   0  0  0  0  0  0  0  0  0  0  0  0
   22.9059  -30.1615    9.8077 O   0  5  0  0  0  0  0  0  0  0  0  0
   24.6627  -28.8713   15.7963 N   0  0  0  0  0  0  0  0  0  0  0  0
   26.9683  -30.2779   10.3101 O   0  0  0  0  0  0  0  0  0  0  0  0
   24.9470  -31.6247    9.1773 O   0  0  0  0  0  0  0  0  0  0  0  0
   24.4773  -29.3100    8.0825 O   0  0  0  0  0  0  0  0  0  0  0  0
   24.7231  -27.8382   14.9474 C   0  0  0  0  0  0  0  0  0  0  0  0
   23.5722  -27.4525   14.2903 C   0  0  0  0  0  0  0  0  0  0  0  0
   22.3671  -28.1433   14.5217 C   0  0  0  0  0  0  0  0  0  0  0  0
   21.1787  -27.7733   13.8677 O   0  0  0  0  0  0  0  0  0  0  0  0
   23.8848  -26.4076   13.5049 N   0  0  0  0  0  0  0  0  0  0  0  0
   25.1724  -26.1583   13.6684 C   0  0  0  0  0  0  0  0  0  0  0  0
   25.6943  -27.0106   14.5307 N   0  0  0  0  0  0  0  0  0  0  0  0
  1  5  1  1  0  0  0
  1 14  1  0  0  0  0
  1 19  2  0  0  0  0
  1 23  1  0  0  0  0
  2 15  1  1  0  0  0
  2 20  2  0  0  0  0
  2 23  1  0  0  0  0
  2 24  1  0  0  0  0
  3 16  1  6  0  0  0
  3 21  1  0  0  0  0
  3 24  1  0  0  0  0
  3 25  2  0  0  0  0
  4  5  1  0  0  0  0
  6  4  1  6  0  0  0
  6  7  1  0  0  0  0
  6  8  1  0  0  0  0
  7 12  1  0  0  0  0
  8  9  1  1  0  0  0
  8 10  1  0  0  0  0
 10 11  1  6  0  0  0
 10 12  1  0  0  0  0
 12 32  1  6  0  0  0
 13 17  2  0  0  0  0
 13 28  1  0  0  0  0
 17 18  1  0  0  0  0
 17 22  1  0  0  0  0
 22 26  2  0  0  0  0
 26 27  1  0  0  0  0
 26 32  1  0  0  0  0
 27 28  2  0  0  0  0
 27 30  1  0  0  0  0
 28 29  1  0  0  0  0
 30 31  2  0  0  0  0
 31 32  1  0  0  0  0
M  CHG  3  14  -1  15  -1  21  -1
M  END
>  <CHROM.1>
-5.96295597,27.23051839,-166.99774578,74.82112756,-86.80392243,94.60940787
43.84712239,50.53926388,25.56480089,-29.30216701,12.78943691,-1.79731738
-0.10819171,1.16888604

>  <Name>
ligand

>  <RI>
0

>  <Rbt.Current_Directory>
/home/itssahil/PROJECTS/Mol_Feturizer/New_Systems/rnas/4Y1I

>  <Rbt.Executable>
rbdock ($Id: //depot/dev/client3/rdock/2013.1/src/exe/rbdock.cxx#4 $)

>  <Rbt.Library>
libRbt.so (2013.1, Build901 2013/11/27)

>  <Rbt.Parameter_File>
/export/apps/rDock/src/rDock_2013.1_src/data/scripts/dock_solv.prm

>  <Rbt.Receptor>
prm/blind_docking_60.prm

>  <SCORE>
-11.6661

>  <SCORE.INTER>
-10.7373

>  <SCORE.INTER.CONST>
1

>  <SCORE.INTER.POLAR>
0

>  <SCORE.INTER.ROT>
8

>  <SCORE.INTER.SOLV>
19.6879

>  <SCORE.INTER.VDW>
-22.6542

>  <SCORE.INTER.norm>
-0.33554

>  <SCORE.INTRA>
-0.928822

>  <SCORE.INTRA.DIHEDRAL>
-1.41545

>  <SCORE.INTRA.DIHEDRAL.0>
10.9594

>  <SCORE.INTRA.POLAR>
0

>  <SCORE.INTRA.POLAR.0>
0

>  <SCORE.INTRA.REPUL>
0

>  <SCORE.INTRA.REPUL.0>
0

>  <SCORE.INTRA.SOLV>
1.68889

>  <SCORE.INTRA.SOLV.lig_0>
-124.914

>  <SCORE.INTRA.VDW>
-1.06554

>  <SCORE.INTRA.VDW.0>
-4.69801

>  <SCORE.INTRA.norm>
-0.0290257

>  <SCORE.RESTR>
0

>  <SCORE.RESTR.CAVITY>
0

>  <SCORE.RESTR.norm>
0

>  <SCORE.SYSTEM>
0

>  <SCORE.SYSTEM.CONST>
0

>  <SCORE.SYSTEM.DIHEDRAL>
0

>  <SCORE.SYSTEM.SOLV>
0

>  <SCORE.SYSTEM.norm>
0

>  <SCORE.heavy>
32

>  <SCORE.norm>
-0.364566

>  <RMSD>
32.943

$$$$
ligand
 OpenBabel11021811513D
libRbt.so/2013.1/901 2013/11/27
 32 34  0  0  0  0  0  0  0  0999 V2000
   26.7075  -28.6587   14.2771 P   0  0  1  0  0  0  0  0  0  0  0  0
   28.3826  -28.2461   16.5695 P   0  0  2  0  0  0  0  0  0  0  0  0
   26.7506  -29.2496   18.7933 P   0  0  1  0  0  0  0  0  0  0  0  0
   26.6988  -27.2475   12.0862 C   0  0  0  0  0  0  0  0  0  0  0  0
   27.4431  -27.6559   13.1985 O   0  0  0  0  0  0  0  0  0  0  0  0
   27.5475  -26.6813   11.1416 C   0  0  1  0  0  0  0  0  0  0  0  0
   28.8295  -27.4862   11.0509 O   0  0  0  0  0  0  0  0  0  0  0  0
   26.9018  -26.7216    9.6809 C   0  0  1  0  0  0  0  0  0  0  0  0
   26.6503  -25.3093    9.2032 O   0  0  0  0  0  0  0  0  0  0  0  0
   27.7598  -27.2108    8.9422 C   0  0  1  0  0  0  0  0  0  0  0  0
   28.5033  -26.1221    8.2641 O   0  0  0  0  0  0  0  0  0  0  0  0
   28.7885  -28.0782    9.9238 C   0  0  2  0  0  0  0  0  0  0  0  0
   25.0276  -31.4817    9.1133 N   0  0  0  0  0  0  0  0  0  0  0  0
   25.6403  -27.9046   15.0311 O   0  5  0  0  0  0  0  0  0  0  0  0
   28.7694  -26.8862   16.0448 O   0  5  0  0  0  0  0  0  0  0  0  0
   27.6434  -30.4519   18.5941 O   0  0  0  0  0  0  0  0  0  0  0  0
   25.0617  -30.2033    8.7707 C   0  0  0  0  0  0  0  0  0  0  0  0
   23.9302  -29.6226    8.0766 N   0  0  0  0  0  0  0  0  0  0  0  0
   26.1143  -29.8290   13.5256 O   0  0  0  0  0  0  0  0  0  0  0  0
   29.5866  -28.9113   17.1832 O   0  0  0  0  0  0  0  0  0  0  0  0
   26.9313  -28.7260   20.2014 O   0  5  0  0  0  0  0  0  0  0  0  0
   26.0969  -29.4346    9.0410 N   0  0  0  0  0  0  0  0  0  0  0  0
   27.8345  -29.1935   15.3460 O   0  0  0  0  0  0  0  0  0  0  0  0
   27.2033  -28.0911   17.7059 O   0  0  0  0  0  0  0  0  0  0  0  0
   25.3123  -29.6604   18.5654 O   0  0  0  0  0  0  0  0  0  0  0  0
   27.1622  -29.9319    9.6809 C   0  0  0  0  0  0  0  0  0  0  0  0
   27.1522  -31.2618   10.0498 C   0  0  0  0  0  0  0  0  0  0  0  0
   26.0350  -32.0648    9.7497 C   0  0  0  0  0  0  0  0  0  0  0  0
   25.9959  -33.4228   10.1121 O   0  0  0  0  0  0  0  0  0  0  0  0
   28.3169  -31.5195   10.6689 N   0  0  0  0  0  0  0  0  0  0  0  0
   29.0164  -30.3982   10.6829 C   0  0  0  0  0  0  0  0  0  0  0  0
   28.3368  -29.4313   10.0953 N   0  0  0  0  0  0  0  0  0  0  0  0
  1  5  1  6  0  0  0
  1 14  1  0  0  0  0
  1 19  2  0  0  0  0
  1 23  1  0  0  0  0
  2 15  1  6  0  0  0
  2 20  2  0  0  0  0
  2 23  1  0  0  0  0
  2 24  1  0  0  0  0
  3 16  1  6  0  0  0
  3 21  1  0  0  0  0
  3 24  1  0  0  0  0
  3 25  2  0  0  0  0
  4  5  1  0  0  0  0
  6  4  1  1  0  0  0
  6  7  1  0  0  0  0
  6  8  1  0  0  0  0
  7 12  1  0  0  0  0
  8  9  1  6  0  0  0
  8 10  1  0  0  0  0
 10 11  1  1  0  0  0
 10 12  1  0  0  0  0
 12 32  1  1  0  0  0
 13 17  2  0  0  0  0
 13 28  1  0  0  0  0
 17 18  1  0  0  0  0
 17 22  1  0  0  0  0
 22 26  2  0  0  0  0
 26 27  1  0  0  0  0
 26 32  1  0  0  0  0
 27 28  2  0  0  0  0
 27 30  1  0  0  0  0
 28 29  1  0  0  0  0
 30 31  2  0  0  0  0
 31 32  1  0  0  0  0
M  CHG  3  14  -1  15  -1  21  -1
M  END
>  <CHROM.1>
-70.31833907,-48.70821065,2.11119281,40.79747448,-166.09569503,111.07672255
77.11950630,-163.93919309,27.15430934,-28.90217149,13.12416263,-1.41676632
-1.18112909,-1.45618188

>  <Name>
ligand

>  <RI>
0

>  <Rbt.Current_Directory>
/home/itssahil/PROJECTS/Mol_Feturizer/New_Systems/rnas/4Y1I

>  <Rbt.Executable>
rbdock ($Id: //depot/dev/client3/rdock/2013.1/src/exe/rbdock.cxx#4 $)

>  <Rbt.Library>
libRbt.so (2013.1, Build901 2013/11/27)

>  <Rbt.Parameter_File>
/export/apps/rDock/src/rDock_2013.1_src/data/scripts/dock_solv.prm

>  <Rbt.Receptor>
prm/blind_docking_60.prm

>  <SCORE>
-15.5492

>  <SCORE.INTER>
-11.049

>  <SCORE.INTER.CONST>
1

>  <SCORE.INTER.POLAR>
0

>  <SCORE.INTER.ROT>
8

>  <SCORE.INTER.SOLV>
31.3274

>  <SCORE.INTER.VDW>
-26.7418

>  <SCORE.INTER.norm>
-0.345281

>  <SCORE.INTRA>
-4.50024

>  <SCORE.INTRA.DIHEDRAL>
-4.03935

>  <SCORE.INTRA.DIHEDRAL.0>
10.9594

>  <SCORE.INTRA.POLAR>
0

>  <SCORE.INTRA.POLAR.0>
0

>  <SCORE.INTRA.REPUL>
0

>  <SCORE.INTRA.REPUL.0>
0

>  <SCORE.INTRA.SOLV>
-4.59041

>  <SCORE.INTRA.SOLV.lig_0>
-124.914

>  <SCORE.INTRA.VDW>
-0.185361

>  <SCORE.INTRA.VDW.0>
-4.69801

>  <SCORE.INTRA.norm>
-0.140633

>  <SCORE.RESTR>
0

>  <SCORE.RESTR.CAVITY>
0

>  <SCORE.RESTR.norm>
0

>  <SCORE.SYSTEM>
0

>  <SCORE.SYSTEM.CONST>
0

>  <SCORE.SYSTEM.DIHEDRAL>
0

>  <SCORE.SYSTEM.SOLV>
0

>  <SCORE.SYSTEM.norm>
0

>  <SCORE.heavy>
32

>  <SCORE.norm>
-0.485913

>  <RMSD>
32.984

$$$$
ligand
 OpenBabel11021811513D
libRbt.so/2013.1/901 2013/11/27
 32 34  0  0  0  0  0  0  0  0999 V2000
   27.3641  -29.6256   12.5664 P   0  0  1  0  0  0  0  0  0  0  0  0
   25.6317  -31.4073   11.1328 P   0  0  2  0  0  0  0  0  0  0  0  0
   23.0335  -32.1251   12.2946 P   0  0  1  0  0  0  0  0  0  0  0  0
   27.2840  -27.2307   11.5419 C   0  0  0  0  0  0  0  0  0  0  0  0
   27.3915  -27.9863   12.7148 O   0  0  0  0  0  0  0  0  0  0  0  0
   27.3501  -25.8772   11.8534 C   0  0  1  0  0  0  0  0  0  0  0  0
   26.2138  -25.5061   12.7867 O   0  0  0  0  0  0  0  0  0  0  0  0
   28.6950  -25.5264   12.6410 C   0  0  1  0  0  0  0  0  0  0  0  0
   29.5473  -24.6070   11.7958 O   0  0  0  0  0  0  0  0  0  0  0  0
   28.3493  -24.8904   13.6397 C   0  0  1  0  0  0  0  0  0  0  0  0
   28.4775  -23.4389   13.3667 O   0  0  0  0  0  0  0  0  0  0  0  0
   26.7540  -25.2795   13.9178 C   0  0  2  0  0  0  0  0  0  0  0  0
   23.7166  -29.0649   15.6002 N   0  0  0  0  0  0  0  0  0  0  0  0
   28.3726  -30.0626   11.5330 O   0  5  0  0  0  0  0  0  0  0  0  0
   26.3507  -32.5958   11.7201 O   0  5  0  0  0  0  0  0  0  0  0  0
   23.2969  -31.1533   13.4209 O   0  0  0  0  0  0  0  0  0  0  0  0
   23.4226  -28.1001   14.7427 C   0  0  0  0  0  0  0  0  0  0  0  0
   22.0949  -28.0422   14.1652 N   0  0  0  0  0  0  0  0  0  0  0  0
   27.6693  -30.2402   13.9138 O   0  0  0  0  0  0  0  0  0  0  0  0
   26.1736  -31.1191    9.7573 O   0  0  0  0  0  0  0  0  0  0  0  0
   21.5865  -32.0088   11.8679 O   0  5  0  0  0  0  0  0  0  0  0  0
   24.3019  -27.1835   14.3931 N   0  0  0  0  0  0  0  0  0  0  0  0
   25.8655  -30.0804   12.0705 O   0  0  0  0  0  0  0  0  0  0  0  0
   24.0206  -31.7237   11.0320 O   0  0  0  0  0  0  0  0  0  0  0  0
   23.3289  -33.5290   12.7755 O   0  0  0  0  0  0  0  0  0  0  0  0
   25.5391  -27.2011   14.9036 C   0  0  0  0  0  0  0  0  0  0  0  0
   25.8717  -28.1961   15.8004 C   0  0  0  0  0  0  0  0  0  0  0  0
   24.9156  -29.1659   16.1588 C   0  0  0  0  0  0  0  0  0  0  0  0
   25.2251  -30.1918   17.0692 O   0  0  0  0  0  0  0  0  0  0  0  0
   27.1506  -28.0021   16.1652 N   0  0  0  0  0  0  0  0  0  0  0  0
   27.5897  -26.9338   15.5228 C   0  0  0  0  0  0  0  0  0  0  0  0
   26.6333  -26.4367   14.7609 N   0  0  0  0  0  0  0  0  0  0  0  0
  1  5  1  1  0  0  0
  1 14  1  0  0  0  0
  1 19  2  0  0  0  0
  1 23  1  0  0  0  0
  2 15  1  1  0  0  0
  2 20  2  0  0  0  0
  2 23  1  0  0  0  0
  2 24  1  0  0  0  0
  3 16  1  1  0  0  0
  3 21  1  0  0  0  0
  3 24  1  0  0  0  0
  3 25  2  0  0  0  0
  4  5  1  0  0  0  0
  6  4  1  1  0  0  0
  6  7  1  0  0  0  0
  6  8  1  0  0  0  0
  7 12  1  0  0  0  0
  8  9  1  6  0  0  0
  8 10  1  0  0  0  0
 10 11  1  6  0  0  0
 10 12  1  0  0  0  0
 12 32  1  1  0  0  0
 13 17  2  0  0  0  0
 13 28  1  0  0  0  0
 17 18  1  0  0  0  0
 17 22  1  0  0  0  0
 22 26  2  0  0  0  0
 26 27  1  0  0  0  0
 26 32  1  0  0  0  0
 27 28  2  0  0  0  0
 27 30  1  0  0  0  0
 28 29  1  0  0  0  0
 30 31  2  0  0  0  0
 31 32  1  0  0  0  0
M  CHG  3  14  -1  15  -1  21  -1
M  END
>  <CHROM.1>
51.24594449,49.62072254,47.49720166,-60.23823502,-178.90482475,-43.09516819
149.05256103,58.13706664,25.85365162,-28.91671861,13.14660701,-0.81396451
-0.71042778,-2.40244620

>  <Name>
ligand

>  <RI>
0

>  <Rbt.Current_Directory>
/home/itssahil/PROJECTS/Mol_Feturizer/New_Systems/rnas/4Y1I

>  <Rbt.Executable>
rbdock ($Id: //depot/dev/client3/rdock/2013.1/src/exe/rbdock.cxx#4 $)

>  <Rbt.Library>
libRbt.so (2013.1, Build901 2013/11/27)

>  <Rbt.Parameter_File>
/export/apps/rDock/src/rDock_2013.1_src/data/scripts/dock_solv.prm

>  <Rbt.Receptor>
prm/blind_docking_80.prm

>  <SCORE>
-10.344

>  <SCORE.INTER>
-3.11937

>  <SCORE.INTER.CONST>
1

>  <SCORE.INTER.POLAR>
0

>  <SCORE.INTER.ROT>
8

>  <SCORE.INTER.SOLV>
20.8683

>  <SCORE.INTER.VDW>
-17.969

>  <SCORE.INTER.norm>
-0.0974803

>  <SCORE.INTRA>
-7.22464

>  <SCORE.INTRA.DIHEDRAL>
-7.91952

>  <SCORE.INTRA.DIHEDRAL.0>
10.9594

>  <SCORE.INTRA.POLAR>
0

>  <SCORE.INTRA.POLAR.0>
0

>  <SCORE.INTRA.REPUL>
0

>  <SCORE.INTRA.REPUL.0>
0

>  <SCORE.INTRA.SOLV>
-1.90146

>  <SCORE.INTRA.SOLV.lig_0>
-124.914

>  <SCORE.INTRA.VDW>
-2.31415

>  <SCORE.INTRA.VDW.0>
-4.69801

>  <SCORE.INTRA.norm>
-0.22577

>  <SCORE.RESTR>
0

>  <SCORE.RESTR.CAVITY>
0

>  <SCORE.RESTR.norm>
0

>  <SCORE.SYSTEM>
0

>  <SCORE.SYSTEM.CONST>
0

>  <SCORE.SYSTEM.DIHEDRAL>
0

>  <SCORE.SYSTEM.SOLV>
0

>  <SCORE.SYSTEM.norm>
0

>  <SCORE.heavy>
32

>  <SCORE.norm>
-0.32325

>  <RMSD>
33.070

$$$$
ligand
 OpenBabel11021811513D
libRbt.so/2013.1/901 2013/11/27
 32 34  0  0  0  0  0  0  0  0999 V2000
   27.3157  -29.2659   12.3940 P   0  0  1  0  0  0  0  0  0  0  0  0
   25.4663  -30.6189   10.6677 P   0  0  2  0  0  0  0  0  0  0  0  0
   25.0188  -33.5193   10.6175 P   0  0  1  0  0  0  0  0  0  0  0  0
   27.8400  -29.6398   14.9192 C   0  0  0  0  0  0  0  0  0  0  0  0
   27.2150  -28.8179   13.9749 O   0  0  0  0  0  0  0  0  0  0  0  0
   27.5228  -29.2009   16.1998 C   0  0  1  0  0  0  0  0  0  0  0  0
   27.8809  -27.7346   16.3466 O   0  0  0  0  0  0  0  0  0  0  0  0
   25.9521  -29.2969   16.4753 C   0  0  1  0  0  0  0  0  0  0  0  0
   25.6944  -30.3090   17.5686 O   0  0  0  0  0  0  0  0  0  0  0  0
   25.6142  -28.1934   16.9106 C   0  0  1  0  0  0  0  0  0  0  0  0
   25.5798  -28.2390   18.3921 O   0  0  0  0  0  0  0  0  0  0  0  0
   26.7719  -27.1103   16.4003 C   0  0  2  0  0  0  0  0  0  0  0  0
   23.3189  -26.8031   12.6099 N   0  0  0  0  0  0  0  0  0  0  0  0
   27.9807  -28.1732   11.5940 O   0  5  0  0  0  0  0  0  0  0  0  0
   26.4851  -30.5449    9.5582 O   0  5  0  0  0  0  0  0  0  0  0  0
   25.9091  -33.7434    9.4177 O   0  0  0  0  0  0  0  0  0  0  0  0
   23.2298  -27.4789   13.7447 C   0  0  0  0  0  0  0  0  0  0  0  0
   22.0358  -28.2523   14.0200 N   0  0  0  0  0  0  0  0  0  0  0  0
   28.0996  -30.5557   12.3038 O   0  0  0  0  0  0  0  0  0  0  0  0
   24.0938  -30.3438   10.1114 O   0  0  0  0  0  0  0  0  0  0  0  0
   25.1823  -34.6763   11.5789 O   0  5  0  0  0  0  0  0  0  0  0  0
   24.1965  -27.4728   14.6398 N   0  0  0  0  0  0  0  0  0  0  0  0
   25.7944  -29.4944   11.8177 O   0  0  0  0  0  0  0  0  0  0  0  0
   25.4914  -32.1157   11.3495 O   0  0  0  0  0  0  0  0  0  0  0  0
   23.5820  -33.4200   10.1535 O   0  0  0  0  0  0  0  0  0  0  0  0
   25.3160  -26.7716   14.4241 C   0  0  0  0  0  0  0  0  0  0  0  0
   25.4348  -26.0583   13.2484 C   0  0  0  0  0  0  0  0  0  0  0  0
   24.3882  -26.0788   12.3065 C   0  0  0  0  0  0  0  0  0  0  0  0
   24.4800  -25.3620   11.1004 O   0  0  0  0  0  0  0  0  0  0  0  0
   26.6309  -25.4457   13.2651 N   0  0  0  0  0  0  0  0  0  0  0  0
   27.2262  -25.7664   14.4007 C   0  0  0  0  0  0  0  0  0  0  0  0
   26.4513  -26.5656   15.1100 N   0  0  0  0  0  0  0  0  0  0  0  0
  1  5  1  1  0  0  0
  1 14  1  0  0  0  0
  1 19  2  0  0  0  0
  1 23  1  0  0  0  0
  2 15  1  6  0  0  0
  2 20  2  0  0  0  0
  2 23  1  0  0  0  0
  2 24  1  0  0  0  0
  3 16  1  6  0  0  0
  3 21  1  0  0  0  0
  3 24  1  0  0  0  0
  3 25  2  0  0  0  0
  4  5  1  0  0  0  0
  6  4  1  6  0  0  0
  6  7  1  0  0  0  0
  6  8  1  0  0  0  0
  7 12  1  0  0  0  0
  8  9  1  1  0  0  0
  8 10  1  0  0  0  0
 10 11  1  1  0  0  0
 10 12  1  0  0  0  0
 12 32  1  6  0  0  0
 13 17  2  0  0  0  0
 13 28  1  0  0  0  0
 17 18  1  0  0  0  0
 17 22  1  0  0  0  0
 22 26  2  0  0  0  0
 26 27  1  0  0  0  0
 26 32  1  0  0  0  0
 27 28  2  0  0  0  0
 27 30  1  0  0  0  0
 28 29  1  0  0  0  0
 30 31  2  0  0  0  0
 31 32  1  0  0  0  0
M  CHG  3  14  -1  15  -1  21  -1
M  END
>  <CHROM.1>
-121.00906827,-45.73430427,61.65644855,-54.79439689,-173.06387536,125.23593144
-147.44826041,-67.69836725,25.76471347,-29.30866814,13.07613058,1.89806249
1.24722145,-2.69116545

>  <Name>
ligand

>  <RI>
0

>  <Rbt.Current_Directory>
/home/itssahil/PROJECTS/Mol_Feturizer/New_Systems/rnas/4Y1I

>  <Rbt.Executable>
rbdock ($Id: //depot/dev/client3/rdock/2013.1/src/exe/rbdock.cxx#4 $)

>  <Rbt.Library>
libRbt.so (2013.1, Build901 2013/11/27)

>  <Rbt.Parameter_File>
/export/apps/rDock/src/rDock_2013.1_src/data/scripts/dock_solv.prm

>  <Rbt.Receptor>
prm/blind_docking_60.prm

>  <SCORE>
-13.9187

>  <SCORE.INTER>
-8.55021

>  <SCORE.INTER.CONST>
1

>  <SCORE.INTER.POLAR>
0

>  <SCORE.INTER.ROT>
8

>  <SCORE.INTER.SOLV>
16.6646

>  <SCORE.INTER.VDW>
-20.1883

>  <SCORE.INTER.norm>
-0.267194

>  <SCORE.INTRA>
-5.3685

>  <SCORE.INTRA.DIHEDRAL>
-5.21994

>  <SCORE.INTRA.DIHEDRAL.0>
10.9594

>  <SCORE.INTRA.POLAR>
0

>  <SCORE.INTRA.POLAR.0>
0

>  <SCORE.INTRA.REPUL>
0

>  <SCORE.INTRA.REPUL.0>
0

>  <SCORE.INTRA.SOLV>
-3.17002

>  <SCORE.INTRA.SOLV.lig_0>
-124.914

>  <SCORE.INTRA.VDW>
-1.17352

>  <SCORE.INTRA.VDW.0>
-4.69801

>  <SCORE.INTRA.norm>
-0.167766

>  <SCORE.RESTR>
0

>  <SCORE.RESTR.CAVITY>
0

>  <SCORE.RESTR.norm>
0

>  <SCORE.SYSTEM>
0

>  <SCORE.SYSTEM.CONST>
0

>  <SCORE.SYSTEM.DIHEDRAL>
0

>  <SCORE.SYSTEM.SOLV>
0

>  <SCORE.SYSTEM.norm>
0

>  <SCORE.heavy>
32

>  <SCORE.norm>
-0.43496

>  <RMSD>
33.093

$$$$
ligand
 OpenBabel11021811513D
libRbt.so/2013.1/901 2013/11/27
 32 34  0  0  0  0  0  0  0  0999 V2000
   25.5799  -29.2187    9.8690 P   0  0  1  0  0  0  0  0  0  0  0  0
   26.7141  -31.6803   10.8098 P   0  0  2  0  0  0  0  0  0  0  0  0
   24.9359  -33.9580   11.3247 P   0  0  1  0  0  0  0  0  0  0  0  0
   26.4914  -27.2401   11.2993 C   0  0  0  0  0  0  0  0  0  0  0  0
   26.4026  -28.6303   11.1679 O   0  0  0  0  0  0  0  0  0  0  0  0
   25.2695  -26.7350   11.7295 C   0  0  1  0  0  0  0  0  0  0  0  0
   24.8284  -27.4543   12.9897 O   0  0  0  0  0  0  0  0  0  0  0  0
   25.3847  -25.1914   12.1249 C   0  0  1  0  0  0  0  0  0  0  0  0
   24.5434  -24.3658   11.1779 O   0  0  0  0  0  0  0  0  0  0  0  0
   24.8819  -25.0882   13.2464 C   0  0  1  0  0  0  0  0  0  0  0  0
   23.4727  -24.6471   13.1147 O   0  0  0  0  0  0  0  0  0  0  0  0
   24.9428  -26.6048   13.9320 C   0  0  2  0  0  0  0  0  0  0  0  0
   27.2377  -28.6282   18.0581 N   0  0  0  0  0  0  0  0  0  0  0  0
   24.1521  -28.7326    9.9049 O   0  5  0  0  0  0  0  0  0  0  0  0
   26.7547  -31.1772   12.2309 O   0  5  0  0  0  0  0  0  0  0  0  0
   24.7062  -33.5053   12.7476 O   0  0  0  0  0  0  0  0  0  0  0  0
   25.9513  -28.6478   17.7456 C   0  0  0  0  0  0  0  0  0  0  0  0
   25.0137  -29.3056   18.6332 N   0  0  0  0  0  0  0  0  0  0  0  0
   26.2751  -28.7619    8.6063 O   0  0  0  0  0  0  0  0  0  0  0  0
   28.0560  -31.4657   10.1602 O   0  0  0  0  0  0  0  0  0  0  0  0
   23.7884  -33.4810   10.4615 O   0  5  0  0  0  0  0  0  0  0  0  0
   25.4902  -28.0857   16.6469 N   0  0  0  0  0  0  0  0  0  0  0  0
   25.5837  -30.8595    9.9476 O   0  0  0  0  0  0  0  0  0  0  0  0
   26.3485  -33.2840   10.7958 O   0  0  0  0  0  0  0  0  0  0  0  0
   25.0233  -35.4683   11.2959 O   0  0  0  0  0  0  0  0  0  0  0  0
   26.3227  -27.4677   15.8005 C   0  0  0  0  0  0  0  0  0  0  0  0
   27.6690  -27.4323   16.1028 C   0  0  0  0  0  0  0  0  0  0  0  0
   28.1394  -28.0407   17.2825 C   0  0  0  0  0  0  0  0  0  0  0  0
   29.5049  -28.0215   17.6169 O   0  0  0  0  0  0  0  0  0  0  0  0
   28.2890  -26.7656   15.1142 N   0  0  0  0  0  0  0  0  0  0  0  0
   27.3669  -26.4040   14.2391 C   0  0  0  0  0  0  0  0  0  0  0  0
   26.1773  -26.8153   14.6364 N   0  0  0  0  0  0  0  0  0  0  0  0
  1  5  1  1  0  0  0
  1 14  1  0  0  0  0
  1 19  2  0  0  0  0
  1 23  1  0  0  0  0
  2 15  1  1  0  0  0
  2 20  2  0  0  0  0
  2 23  1  0  0  0  0
  2 24  1  0  0  0  0
  3 16  1  1  0  0  0
  3 21  1  0  0  0  0
  3 24  1  0  0  0  0
  3 25  2  0  0  0  0
  4  5  1  0  0  0  0
  6  4  1  1  0  0  0
  6  7  1  0  0  0  0
  6  8  1  0  0  0  0
  7 12  1  0  0  0  0
  8  9  1  6  0  0  0
  8 10  1  0  0  0  0
 10 11  1  6  0  0  0
 10 12  1  0  0  0  0
 12 32  1  6  0  0  0
 13 17  2  0  0  0  0
 13 28  1  0  0  0  0
 17 18  1  0  0  0  0
 17 22  1  0  0  0  0
 22 26  2  0  0  0  0
 26 27  1  0  0  0  0
 26 32  1  0  0  0  0
 27 28  2  0  0  0  0
 27 30  1  0  0  0  0
 28 29  1  0  0  0  0
 30 31  2  0  0  0  0
 31 32  1  0  0  0  0
M  CHG  3  14  -1  15  -1  21  -1
M  END
>  <CHROM.1>
-59.91695025,53.85385621,-54.54494151,53.63345479,74.80648962,-99.51477869
-22.06155210,63.44560718,25.92325139,-29.23263222,12.76208903,2.04636081
1.32075421,-2.89869068

>  <Name>
ligand

>  <RI>
0

>  <Rbt.Current_Directory>
/home/itssahil/PROJECTS/Mol_Feturizer/New_Systems/rnas/4Y1I

>  <Rbt.Executable>
rbdock ($Id: //depot/dev/client3/rdock/2013.1/src/exe/rbdock.cxx#4 $)

>  <Rbt.Library>
libRbt.so (2013.1, Build901 2013/11/27)

>  <Rbt.Parameter_File>
/export/apps/rDock/src/rDock_2013.1_src/data/scripts/dock_solv.prm

>  <Rbt.Receptor>
prm/blind_docking_80.prm

>  <SCORE>
-10.754

>  <SCORE.INTER>
-6.06808

>  <SCORE.INTER.CONST>
1

>  <SCORE.INTER.POLAR>
0

>  <SCORE.INTER.ROT>
8

>  <SCORE.INTER.SOLV>
24.7129

>  <SCORE.INTER.VDW>
-21.2164

>  <SCORE.INTER.norm>
-0.189627

>  <SCORE.INTRA>
-4.69041

>  <SCORE.INTRA.DIHEDRAL>
-6.78959

>  <SCORE.INTRA.DIHEDRAL.0>
10.9594

>  <SCORE.INTRA.POLAR>
0

>  <SCORE.INTRA.POLAR.0>
0

>  <SCORE.INTRA.REPUL>
0

>  <SCORE.INTRA.REPUL.0>
0

>  <SCORE.INTRA.SOLV>
-3.18001

>  <SCORE.INTRA.SOLV.lig_0>
-124.914

>  <SCORE.INTRA.VDW>
0.294391

>  <SCORE.INTRA.VDW.0>
-4.69801

>  <SCORE.INTRA.norm>
-0.146575

>  <SCORE.RESTR>
0.00452968

>  <SCORE.RESTR.CAVITY>
0.00452968

>  <SCORE.RESTR.norm>
0.000141553

>  <SCORE.SYSTEM>
0

>  <SCORE.SYSTEM.CONST>
0

>  <SCORE.SYSTEM.DIHEDRAL>
0

>  <SCORE.SYSTEM.SOLV>
0

>  <SCORE.SYSTEM.norm>
0

>  <SCORE.heavy>
32

>  <SCORE.norm>
-0.336061

>  <RMSD>
33.104

$$$$
ligand
 OpenBabel11021811513D
libRbt.so/2013.1/901 2013/11/27
 32 34  0  0  0  0  0  0  0  0999 V2000
   27.7722  -24.6237   13.0032 P   0  0  1  0  0  0  0  0  0  0  0  0
   26.6780  -25.5681   10.5249 P   0  0  2  0  0  0  0  0  0  0  0  0
   28.2476  -27.5262    9.0026 P   0  0  1  0  0  0  0  0  0  0  0  0
   26.8333  -26.7633   14.1574 C   0  0  0  0  0  0  0  0  0  0  0  0
   27.6787  -25.6553   14.2827 O   0  0  0  0  0  0  0  0  0  0  0  0
   26.8044  -27.4638   15.3581 C   0  0  1  0  0  0  0  0  0  0  0  0
   25.9402  -28.7016   15.2130 O   0  0  0  0  0  0  0  0  0  0  0  0
   28.2582  -27.9903   15.7597 C   0  0  1  0  0  0  0  0  0  0  0  0
   28.7060  -27.3082   17.0326 O   0  0  0  0  0  0  0  0  0  0  0  0
   28.1283  -29.1904   16.0134 C   0  0  1  0  0  0  0  0  0  0  0  0
   27.9796  -29.3700   17.4774 O   0  0  0  0  0  0  0  0  0  0  0  0
   26.7436  -29.6899   15.2343 C   0  0  2  0  0  0  0  0  0  0  0  0
   25.2300  -32.5675   11.2576 N   0  0  0  0  0  0  0  0  0  0  0  0
   26.5217  -23.7826   12.9318 O   0  5  0  0  0  0  0  0  0  0  0  0
   26.7188  -24.3508    9.6355 O   0  5  0  0  0  0  0  0  0  0  0  0
   28.5458  -26.7930    7.7157 O   0  0  0  0  0  0  0  0  0  0  0  0
   24.6408  -32.4237   12.4344 C   0  0  0  0  0  0  0  0  0  0  0  0
   23.4095  -33.1380   12.7054 N   0  0  0  0  0  0  0  0  0  0  0  0
   28.9992  -23.7556   13.1679 O   0  0  0  0  0  0  0  0  0  0  0  0
   25.3675  -25.6074   11.2664 O   0  0  0  0  0  0  0  0  0  0  0  0
   29.3725  -27.2812    9.9845 O   0  5  0  0  0  0  0  0  0  0  0  0
   25.1386  -31.6475   13.3753 N   0  0  0  0  0  0  0  0  0  0  0  0
   27.8947  -25.5099   11.6254 O   0  0  0  0  0  0  0  0  0  0  0  0
   26.8339  -26.9295    9.6149 O   0  0  0  0  0  0  0  0  0  0  0  0
   28.1183  -29.0049    8.7090 O   0  0  0  0  0  0  0  0  0  0  0  0
   26.2741  -30.9705   13.1655 C   0  0  0  0  0  0  0  0  0  0  0  0
   26.9090  -31.1030   11.9472 C   0  0  0  0  0  0  0  0  0  0  0  0
   26.3579  -31.9378   10.9559 C   0  0  0  0  0  0  0  0  0  0  0  0
   26.9814  -32.0924    9.7052 O   0  0  0  0  0  0  0  0  0  0  0  0
   28.0119  -30.3357   11.9793 N   0  0  0  0  0  0  0  0  0  0  0  0
   28.0576  -29.7545   13.1654 C   0  0  0  0  0  0  0  0  0  0  0  0
   27.0216  -30.1264   13.8939 N   0  0  0  0  0  0  0  0  0  0  0  0
  1  5  1  1  0  0  0
  1 14  1  0  0  0  0
  1 19  2  0  0  0  0
  1 23  1  0  0  0  0
  2 15  1  6  0  0  0
  2 20  2  0  0  0  0
  2 23  1  0  0  0  0
  2 24  1  0  0  0  0
  3 16  1  6  0  0  0
  3 21  1  0  0  0  0
  3 24  1  0  0  0  0
  3 25  2  0  0  0  0
  4  5  1  0  0  0  0
  6  4  1  6  0  0  0
  6  7  1  0  0  0  0
  6  8  1  0  0  0  0
  7 12  1  0  0  0  0
  8  9  1  1  0  0  0
  8 10  1  0  0  0  0
 10 11  1  1  0  0  0
 10 12  1  0  0  0  0
 12 32  1  6  0  0  0
 13 17  2  0  0  0  0
 13 28  1  0  0  0  0
 17 18  1  0  0  0  0
 17 22  1  0  0  0  0
 22 26  2  0  0  0  0
 26 27  1  0  0  0  0
 26 32  1  0  0  0  0
 27 28  2  0  0  0  0
 27 30  1  0  0  0  0
 28 29  1  0  0  0  0
 30 31  2  0  0  0  0
 31 32  1  0  0  0  0
M  CHG  3  14  -1  15  -1  21  -1
M  END
>  <CHROM.1>
74.73490311,81.25644849,-83.09740710,-177.44148660,-175.68579032,-84.39552906
111.03955346,78.76413246,27.15226875,-28.01701967,12.35204547,-0.35964210
1.32074102,1.61023028

>  <Name>
ligand

>  <RI>
0

>  <Rbt.Current_Directory>
/home/itssahil/PROJECTS/Mol_Feturizer/New_Systems/rnas/4Y1I

>  <Rbt.Executable>
rbdock ($Id: //depot/dev/client3/rdock/2013.1/src/exe/rbdock.cxx#4 $)

>  <Rbt.Library>
libRbt.so (2013.1, Build901 2013/11/27)

>  <Rbt.Parameter_File>
/export/apps/rDock/src/rDock_2013.1_src/data/scripts/dock_solv.prm

>  <Rbt.Receptor>
prm/blind_docking_60.prm

>  <SCORE>
-17.9802

>  <SCORE.INTER>
-13.8846

>  <SCORE.INTER.CONST>
1

>  <SCORE.INTER.POLAR>
0

>  <SCORE.INTER.ROT>
8

>  <SCORE.INTER.SOLV>
23.6254

>  <SCORE.INTER.VDW>
-26.0648

>  <SCORE.INTER.norm>
-0.433893

>  <SCORE.INTRA>
-4.09561

>  <SCORE.INTRA.DIHEDRAL>
-4.99965

>  <SCORE.INTRA.DIHEDRAL.0>
10.9594

>  <SCORE.INTRA.POLAR>
0

>  <SCORE.INTRA.POLAR.0>
0

>  <SCORE.INTRA.REPUL>
0

>  <SCORE.INTRA.REPUL.0>
0

>  <SCORE.INTRA.SOLV>
-2.55359

>  <SCORE.INTRA.SOLV.lig_0>
-124.914

>  <SCORE.INTRA.VDW>
-0.318987

>  <SCORE.INTRA.VDW.0>
-4.69801

>  <SCORE.INTRA.norm>
-0.127988

>  <SCORE.RESTR>
0

>  <SCORE.RESTR.CAVITY>
0

>  <SCORE.RESTR.norm>
0

>  <SCORE.SYSTEM>
0

>  <SCORE.SYSTEM.CONST>
0

>  <SCORE.SYSTEM.DIHEDRAL>
0

>  <SCORE.SYSTEM.SOLV>
0

>  <SCORE.SYSTEM.norm>
0

>  <SCORE.heavy>
32

>  <SCORE.norm>
-0.56188

>  <RMSD>
33.165

$$$$
ligand
 OpenBabel11021811513D
libRbt.so/2013.1/901 2013/11/27
 32 34  0  0  0  0  0  0  0  0999 V2000
   25.9420  -31.3382   12.1710 P   0  0  1  0  0  0  0  0  0  0  0  0
   24.7243  -33.6222   10.9333 P   0  0  2  0  0  0  0  0  0  0  0  0
   25.3167  -36.1774   12.2507 P   0  0  1  0  0  0  0  0  0  0  0  0
   27.0563  -29.6481   13.8120 C   0  0  0  0  0  0  0  0  0  0  0  0
   26.3624  -30.8568   13.6881 O   0  0  0  0  0  0  0  0  0  0  0  0
   27.3208  -29.3996   15.1543 C   0  0  1  0  0  0  0  0  0  0  0  0
   28.0743  -28.0914   15.2985 O   0  0  0  0  0  0  0  0  0  0  0  0
   25.9711  -29.2211   15.9900 C   0  0  1  0  0  0  0  0  0  0  0  0
   25.8496  -30.3443   16.9948 O   0  0  0  0  0  0  0  0  0  0  0  0
   26.1002  -28.1725   16.6265 C   0  0  1  0  0  0  0  0  0  0  0  0
   26.5635  -28.4850   17.9997 O   0  0  0  0  0  0  0  0  0  0  0  0
   27.2523  -27.2741   15.8268 C   0  0  2  0  0  0  0  0  0  0  0  0
   23.0904  -26.2699   12.9886 N   0  0  0  0  0  0  0  0  0  0  0  0
   24.8987  -30.4046   11.6088 O   0  5  0  0  0  0  0  0  0  0  0  0
   25.7385  -33.5833    9.8179 O   0  5  0  0  0  0  0  0  0  0  0  0
   26.4780  -35.3673   12.7773 O   0  0  0  0  0  0  0  0  0  0  0  0
   23.2498  -27.2164   13.9004 C   0  0  0  0  0  0  0  0  0  0  0  0
   22.1539  -28.1202   14.1864 N   0  0  0  0  0  0  0  0  0  0  0  0
   27.1810  -31.3497   11.3044 O   0  0  0  0  0  0  0  0  0  0  0  0
   23.4637  -32.9248   10.4935 O   0  0  0  0  0  0  0  0  0  0  0  0
   24.5057  -36.6975   13.4175 O   0  5  0  0  0  0  0  0  0  0  0  0
   24.3790  -27.3666   14.5622 N   0  0  0  0  0  0  0  0  0  0  0  0
   25.3074  -32.8509   12.2599 O   0  0  0  0  0  0  0  0  0  0  0  0
   24.3804  -35.1835   11.3207 O   0  0  0  0  0  0  0  0  0  0  0  0
   25.8517  -37.3286   11.4272 O   0  0  0  0  0  0  0  0  0  0  0  0
   25.4157  -26.5530   14.3279 C   0  0  0  0  0  0  0  0  0  0  0  0
   25.2762  -25.5578   13.3817 C   0  0  0  0  0  0  0  0  0  0  0  0
   24.0595  -25.4156   12.6871 C   0  0  0  0  0  0  0  0  0  0  0  0
   23.8873  -24.4113   11.7183 O   0  0  0  0  0  0  0  0  0  0  0  0
   26.4374  -24.8832   13.3289 N   0  0  0  0  0  0  0  0  0  0  0  0
   27.2592  -25.4369   14.2034 C   0  0  0  0  0  0  0  0  0  0  0  0
   26.6629  -26.4449   14.8123 N   0  0  0  0  0  0  0  0  0  0  0  0
  1  5  1  1  0  0  0
  1 14  1  0  0  0  0
  1 19  2  0  0  0  0
  1 23  1  0  0  0  0
  2 15  1  6  0  0  0
  2 20  2  0  0  0  0
  2 23  1  0  0  0  0
  2 24  1  0  0  0  0
  3 16  1  1  0  0  0
  3 21  1  0  0  0  0
  3 24  1  0  0  0  0
  3 25  2  0  0  0  0
  4  5  1  0  0  0  0
  6  4  1  6  0  0  0
  6  7  1  0  0  0  0
  6  8  1  0  0  0  0
  7 12  1  0  0  0  0
  8  9  1  1  0  0  0
  8 10  1  0  0  0  0
 10 11  1  1  0  0  0
 10 12  1  0  0  0  0
 12 32  1  6  0  0  0
 13 17  2  0  0  0  0
 13 28  1  0  0  0  0
 17 18  1  0  0  0  0
 17 22  1  0  0  0  0
 22 26  2  0  0  0  0
 26 27  1  0  0  0  0
 26 32  1  0  0  0  0
 27 28  2  0  0  0  0
 27 30  1  0  0  0  0
 28 29  1  0  0  0  0
 30 31  2  0  0  0  0
 31 32  1  0  0  0  0
M  CHG  3  14  -1  15  -1  21  -1
M  END
>  <CHROM.1>
-67.83856877,50.62954706,4.77348591,179.94681085,179.71995582,105.00435413
177.54547438,78.83536990,25.49445279,-30.45579711,13.25312047,1.63559648
1.04740605,-2.89332220

>  <Name>
ligand

>  <RI>
0

>  <Rbt.Current_Directory>
/home/itssahil/PROJECTS/Mol_Feturizer/New_Systems/rnas/4Y1I

>  <Rbt.Executable>
rbdock ($Id: //depot/dev/client3/rdock/2013.1/src/exe/rbdock.cxx#4 $)

>  <Rbt.Library>
libRbt.so (2013.1, Build901 2013/11/27)

>  <Rbt.Parameter_File>
/export/apps/rDock/src/rDock_2013.1_src/data/scripts/dock_solv.prm

>  <Rbt.Receptor>
prm/blind_docking_60.prm

>  <SCORE>
-15.2858

>  <SCORE.INTER>
-10.319

>  <SCORE.INTER.CONST>
1

>  <SCORE.INTER.POLAR>
0

>  <SCORE.INTER.ROT>
8

>  <SCORE.INTER.SOLV>
17.8631

>  <SCORE.INTER.VDW>
-21.7671

>  <SCORE.INTER.norm>
-0.32247

>  <SCORE.INTRA>
-4.96676

>  <SCORE.INTRA.DIHEDRAL>
-6.61254

>  <SCORE.INTRA.DIHEDRAL.0>
10.9594

>  <SCORE.INTRA.POLAR>
0

>  <SCORE.INTRA.POLAR.0>
0

>  <SCORE.INTRA.REPUL>
0

>  <SCORE.INTRA.REPUL.0>
0

>  <SCORE.INTRA.SOLV>
-3.96164

>  <SCORE.INTRA.SOLV.lig_0>
-124.914

>  <SCORE.INTRA.VDW>
0.320335

>  <SCORE.INTRA.VDW.0>
-4.69801

>  <SCORE.INTRA.norm>
-0.155211

>  <SCORE.RESTR>
0

>  <SCORE.RESTR.CAVITY>
0

>  <SCORE.RESTR.norm>
0

>  <SCORE.SYSTEM>
0

>  <SCORE.SYSTEM.CONST>
0

>  <SCORE.SYSTEM.DIHEDRAL>
0

>  <SCORE.SYSTEM.SOLV>
0

>  <SCORE.SYSTEM.norm>
0

>  <SCORE.heavy>
32

>  <SCORE.norm>
-0.477681

>  <RMSD>
33.181

$$$$
ligand
 OpenBabel11021811513D
libRbt.so/2013.1/901 2013/11/27
 32 34  0  0  0  0  0  0  0  0999 V2000
   27.7066  -29.6251   11.2065 P   0  0  1  0  0  0  0  0  0  0  0  0
   26.6214  -27.7921   13.1284 P   0  0  2  0  0  0  0  0  0  0  0  0
   27.0610  -28.8314   15.8380 P   0  0  1  0  0  0  0  0  0  0  0  0
   25.7856  -31.2832   10.6132 C   0  0  0  0  0  0  0  0  0  0  0  0
   27.1690  -31.0751   10.6420 O   0  0  0  0  0  0  0  0  0  0  0  0
   25.4674  -32.1487    9.5726 C   0  0  1  0  0  0  0  0  0  0  0  0
   26.0607  -33.5184    9.8405 O   0  0  0  0  0  0  0  0  0  0  0  0
   23.8892  -32.3699    9.4618 C   0  0  1  0  0  0  0  0  0  0  0  0
   23.3936  -31.8076    8.1486 O   0  0  0  0  0  0  0  0  0  0  0  0
   23.7177  -33.5908    9.4255 C   0  0  1  0  0  0  0  0  0  0  0  0
   23.5822  -34.0264    8.0149 O   0  0  0  0  0  0  0  0  0  0  0  0
   25.0734  -34.2780   10.1066 C   0  0  2  0  0  0  0  0  0  0  0  0
   25.4166  -37.4183   14.1570 N   0  0  0  0  0  0  0  0  0  0  0  0
   29.1989  -29.6813   11.4215 O   0  5  0  0  0  0  0  0  0  0  0  0
   25.3792  -27.2973   12.4309 O   0  5  0  0  0  0  0  0  0  0  0  0
   28.5558  -28.8370   15.6195 O   0  0  0  0  0  0  0  0  0  0  0  0
   25.6483  -37.6972   12.8838 C   0  0  0  0  0  0  0  0  0  0  0  0
   26.0539  -39.0376   12.5118 N   0  0  0  0  0  0  0  0  0  0  0  0
   27.3443  -28.5502   10.2068 O   0  0  0  0  0  0  0  0  0  0  0  0
   27.7850  -26.9020   12.7783 O   0  0  0  0  0  0  0  0  0  0  0  0
   26.7681  -28.3702   17.2490 O   0  5  0  0  0  0  0  0  0  0  0  0
   25.5222  -36.7914   11.9355 N   0  0  0  0  0  0  0  0  0  0  0  0
   26.9746  -29.3207   12.6454 O   0  0  0  0  0  0  0  0  0  0  0  0
   26.3905  -27.7772   14.7570 O   0  0  0  0  0  0  0  0  0  0  0  0
   26.5256  -30.2297   15.6198 O   0  0  0  0  0  0  0  0  0  0  0  0
   25.1494  -35.5416   12.2367 C   0  0  0  0  0  0  0  0  0  0  0  0
   24.9011  -35.2243   13.5568 C   0  0  0  0  0  0  0  0  0  0  0  0
   25.0432  -36.2086   14.5537 C   0  0  0  0  0  0  0  0  0  0  0  0
   24.7979  -35.9153   15.9067 O   0  0  0  0  0  0  0  0  0  0  0  0
   24.5477  -33.9284   13.6025 N   0  0  0  0  0  0  0  0  0  0  0  0
   24.5756  -33.4647   12.3652 C   0  0  0  0  0  0  0  0  0  0  0  0
   24.9330  -34.4216   11.5292 N   0  0  0  0  0  0  0  0  0  0  0  0
  1  5  1  6  0  0  0
  1 14  1  0  0  0  0
  1 19  2  0  0  0  0
  1 23  1  0  0  0  0
  2 15  1  6  0  0  0
  2 20  2  0  0  0  0
  2 23  1  0  0  0  0
  2 24  1  0  0  0  0
  3 16  1  6  0  0  0
  3 21  1  0  0  0  0
  3 24  1  0  0  0  0
  3 25  2  0  0  0  0
  4  5  1  0  0  0  0
  6  4  1  1  0  0  0
  6  7  1  0  0  0  0
  6  8  1  0  0  0  0
  7 12  1  0  0  0  0
  8  9  1  6  0  0  0
  8 10  1  0  0  0  0
 10 11  1  6  0  0  0
 10 12  1  0  0  0  0
 12 32  1  1  0  0  0
 13 17  2  0  0  0  0
 13 28  1  0  0  0  0
 17 18  1  0  0  0  0
 17 22  1  0  0  0  0
 22 26  2  0  0  0  0
 26 27  1  0  0  0  0
 26 32  1  0  0  0  0
 27 28  2  0  0  0  0
 27 30  1  0  0  0  0
 28 29  1  0  0  0  0
 30 31  2  0  0  0  0
 31 32  1  0  0  0  0
M  CHG  3  14  -1  15  -1  21  -1
M  END
>  <CHROM.1>
168.80754257,78.45591829,53.09876046,65.33145931,150.17176621,-111.72695050
-147.96349329,148.11263471,26.02911944,-31.74725126,12.43464715,0.40344427
-1.26836376,-0.90528660

>  <Name>
ligand

>  <RI>
0

>  <Rbt.Current_Directory>
/home/itssahil/PROJECTS/Mol_Feturizer/New_Systems/rnas/4Y1I

>  <Rbt.Executable>
rbdock ($Id: //depot/dev/client3/rdock/2013.1/src/exe/rbdock.cxx#4 $)

>  <Rbt.Library>
libRbt.so (2013.1, Build901 2013/11/27)

>  <Rbt.Parameter_File>
/export/apps/rDock/src/rDock_2013.1_src/data/scripts/dock_solv.prm

>  <Rbt.Receptor>
prm/blind_docking_60.prm

>  <SCORE>
-9.00925

>  <SCORE.INTER>
-5.58983

>  <SCORE.INTER.CONST>
1

>  <SCORE.INTER.POLAR>
0

>  <SCORE.INTER.ROT>
8

>  <SCORE.INTER.SOLV>
18.7708

>  <SCORE.INTER.VDW>
-18.9168

>  <SCORE.INTER.norm>
-0.174682

>  <SCORE.INTRA>
-3.41943

>  <SCORE.INTRA.DIHEDRAL>
-2.63665

>  <SCORE.INTRA.DIHEDRAL.0>
10.9594

>  <SCORE.INTRA.POLAR>
0

>  <SCORE.INTRA.POLAR.0>
0

>  <SCORE.INTRA.REPUL>
0

>  <SCORE.INTRA.REPUL.0>
0

>  <SCORE.INTRA.SOLV>
-4.68689

>  <SCORE.INTRA.SOLV.lig_0>
-124.914

>  <SCORE.INTRA.VDW>
0.242339

>  <SCORE.INTRA.VDW.0>
-4.69801

>  <SCORE.INTRA.norm>
-0.106857

>  <SCORE.RESTR>
0

>  <SCORE.RESTR.CAVITY>
0

>  <SCORE.RESTR.norm>
0

>  <SCORE.SYSTEM>
0

>  <SCORE.SYSTEM.CONST>
0

>  <SCORE.SYSTEM.DIHEDRAL>
0

>  <SCORE.SYSTEM.SOLV>
0

>  <SCORE.SYSTEM.norm>
0

>  <SCORE.heavy>
32

>  <SCORE.norm>
-0.281539

>  <RMSD>
33.183

$$$$
ligand
 OpenBabel11021811513D
libRbt.so/2013.1/901 2013/11/27
 32 34  0  0  0  0  0  0  0  0999 V2000
   23.7326  -29.3121   11.8577 P   0  0  1  0  0  0  0  0  0  0  0  0
   24.4667  -32.0139   11.2314 P   0  0  2  0  0  0  0  0  0  0  0  0
   23.1414  -33.1857    8.8892 P   0  0  1  0  0  0  0  0  0  0  0  0
   26.1380  -28.8583   12.7520 C   0  0  0  0  0  0  0  0  0  0  0  0
   24.8513  -29.3101   13.0655 O   0  0  0  0  0  0  0  0  0  0  0  0
   26.1366  -27.4701   12.6731 C   0  0  1  0  0  0  0  0  0  0  0  0
   25.5864  -26.8804   13.9575 O   0  0  0  0  0  0  0  0  0  0  0  0
   27.6196  -26.8941   12.5278 C   0  0  1  0  0  0  0  0  0  0  0  0
   27.7685  -26.2231   11.1810 O   0  0  0  0  0  0  0  0  0  0  0  0
   27.7307  -26.0173   13.3881 C   0  0  1  0  0  0  0  0  0  0  0  0
   27.4706  -24.6923   12.7762 O   0  0  0  0  0  0  0  0  0  0  0  0
   26.5807  -26.3455   14.5473 C   0  0  2  0  0  0  0  0  0  0  0  0
   25.5666  -30.2313   17.7500 N   0  0  0  0  0  0  0  0  0  0  0  0
   22.3706  -29.6314   12.4226 O   0  5  0  0  0  0  0  0  0  0  0  0
   23.4558  -32.4795   12.2489 O   0  5  0  0  0  0  0  0  0  0  0  0
   22.9545  -31.8930    8.1301 O   0  0  0  0  0  0  0  0  0  0  0  0
   24.7450  -29.6372   16.8987 C   0  0  0  0  0  0  0  0  0  0  0  0
   23.3710  -30.0877   16.8044 N   0  0  0  0  0  0  0  0  0  0  0  0
   23.7367  -27.9555   11.1899 O   0  0  0  0  0  0  0  0  0  0  0  0
   25.8450  -32.0471   11.8379 O   0  0  0  0  0  0  0  0  0  0  0  0
   23.4323  -34.2995    7.9072 O   0  5  0  0  0  0  0  0  0  0  0  0
   25.1361  -28.6429   16.1279 N   0  0  0  0  0  0  0  0  0  0  0  0
   24.1409  -30.4728   10.7693 O   0  0  0  0  0  0  0  0  0  0  0  0
   24.4244  -32.9964    9.9127 O   0  0  0  0  0  0  0  0  0  0  0  0
   21.8795  -33.4871    9.6678 O   0  0  0  0  0  0  0  0  0  0  0  0
   26.3967  -28.1965   16.1843 C   0  0  0  0  0  0  0  0  0  0  0  0
   27.2738  -28.7981   17.0639 C   0  0  0  0  0  0  0  0  0  0  0  0
   26.8338  -29.8599   17.8775 C   0  0  0  0  0  0  0  0  0  0  0  0
   27.7041  -30.4927   18.7825 O   0  0  0  0  0  0  0  0  0  0  0  0
   28.4615  -28.1821   16.9367 N   0  0  0  0  0  0  0  0  0  0  0  0
   28.3250  -27.2406   16.0193 C   0  0  0  0  0  0  0  0  0  0  0  0
   27.0887  -27.2324   15.5571 N   0  0  0  0  0  0  0  0  0  0  0  0
  1  5  1  1  0  0  0
  1 14  1  0  0  0  0
  1 19  2  0  0  0  0
  1 23  1  0  0  0  0
  2 15  1  1  0  0  0
  2 20  2  0  0  0  0
  2 23  1  0  0  0  0
  2 24  1  0  0  0  0
  3 16  1  6  0  0  0
  3 21  1  0  0  0  0
  3 24  1  0  0  0  0
  3 25  2  0  0  0  0
  4  5  1  0  0  0  0
  6  4  1  1  0  0  0
  6  7  1  0  0  0  0
  6  8  1  0  0  0  0
  7 12  1  0  0  0  0
  8  9  1  6  0  0  0
  8 10  1  0  0  0  0
 10 11  1  6  0  0  0
 10 12  1  0  0  0  0
 12 32  1  1  0  0  0
 13 17  2  0  0  0  0
 13 28  1  0  0  0  0
 17 18  1  0  0  0  0
 17 22  1  0  0  0  0
 22 26  2  0  0  0  0
 26 27  1  0  0  0  0
 26 32  1  0  0  0  0
 27 28  2  0  0  0  0
 27 30  1  0  0  0  0
 28 29  1  0  0  0  0
 30 31  2  0  0  0  0
 31 32  1  0  0  0  0
M  CHG  3  14  -1  15  -1  21  -1
M  END
>  <CHROM.1>
-171.67998502,43.56626620,68.23316938,54.74369580,76.50838860,-24.73824414
50.97767036,63.82974492,25.20528485,-29.69334005,12.97415292,-2.66433724
1.07884706,1.97006701

>  <Name>
ligand

>  <RI>
0

>  <Rbt.Current_Directory>
/home/itssahil/PROJECTS/Mol_Feturizer/New_Systems/rnas/4Y1I

>  <Rbt.Executable>
rbdock ($Id: //depot/dev/client3/rdock/2013.1/src/exe/rbdock.cxx#4 $)

>  <Rbt.Library>
libRbt.so (2013.1, Build901 2013/11/27)

>  <Rbt.Parameter_File>
/export/apps/rDock/src/rDock_2013.1_src/data/scripts/dock_solv.prm

>  <Rbt.Receptor>
prm/blind_docking_80.prm

>  <SCORE>
-10.3031

>  <SCORE.INTER>
-4.71805

>  <SCORE.INTER.CONST>
1

>  <SCORE.INTER.POLAR>
0

>  <SCORE.INTER.ROT>
8

>  <SCORE.INTER.SOLV>
18.3418

>  <SCORE.INTER.VDW>
-18.1926

>  <SCORE.INTER.norm>
-0.147439

>  <SCORE.INTRA>
-5.58504

>  <SCORE.INTRA.DIHEDRAL>
-7.55645

>  <SCORE.INTRA.DIHEDRAL.0>
10.9594

>  <SCORE.INTRA.POLAR>
0

>  <SCORE.INTRA.POLAR.0>
0

>  <SCORE.INTRA.REPUL>
0

>  <SCORE.INTRA.REPUL.0>
0

>  <SCORE.INTRA.SOLV>
-2.58306

>  <SCORE.INTRA.SOLV.lig_0>
-124.914

>  <SCORE.INTRA.VDW>
-0.515277

>  <SCORE.INTRA.VDW.0>
-4.69801

>  <SCORE.INTRA.norm>
-0.174532

>  <SCORE.RESTR>
0

>  <SCORE.RESTR.CAVITY>
0

>  <SCORE.RESTR.norm>
0

>  <SCORE.SYSTEM>
0

>  <SCORE.SYSTEM.CONST>
0

>  <SCORE.SYSTEM.DIHEDRAL>
0

>  <SCORE.SYSTEM.SOLV>
0

>  <SCORE.SYSTEM.norm>
0

>  <SCORE.heavy>
32

>  <SCORE.norm>
-0.321972

>  <RMSD>
33.204

$$$$
ligand
 OpenBabel11021811513D
libRbt.so/2013.1/901 2013/11/27
 32 34  0  0  0  0  0  0  0  0999 V2000
   26.1182  -29.8714   14.0733 P   0  0  1  0  0  0  0  0  0  0  0  0
   27.9896  -28.8291   15.9818 P   0  0  2  0  0  0  0  0  0  0  0  0
   26.8366  -28.3650   18.6409 P   0  0  1  0  0  0  0  0  0  0  0  0
   25.4400  -27.3875   14.4757 C   0  0  0  0  0  0  0  0  0  0  0  0
   25.7679  -28.3595   13.5240 O   0  0  0  0  0  0  0  0  0  0  0  0
   25.2312  -26.1680   13.8414 C   0  0  1  0  0  0  0  0  0  0  0  0
   26.4749  -25.7665   13.0720 O   0  0  0  0  0  0  0  0  0  0  0  0
   24.0608  -26.2681   12.7587 C   0  0  1  0  0  0  0  0  0  0  0  0
   22.9042  -25.3931   13.1861 O   0  0  0  0  0  0  0  0  0  0  0  0
   24.5173  -25.7892   11.7177 C   0  0  1  0  0  0  0  0  0  0  0  0
   24.1012  -24.3707   11.6054 O   0  0  0  0  0  0  0  0  0  0  0  0
   26.1753  -25.8889   11.8401 C   0  0  2  0  0  0  0  0  0  0  0  0
   25.0764  -30.2268    9.3180 N   0  0  0  0  0  0  0  0  0  0  0  0
   25.1150  -30.2792   15.1236 O   0  5  0  0  0  0  0  0  0  0  0  0
   28.2669  -27.4454   15.4501 O   0  5  0  0  0  0  0  0  0  0  0  0
   27.9987  -27.4136   18.8045 O   0  0  0  0  0  0  0  0  0  0  0  0
   24.2649  -29.2223    9.6101 C   0  0  0  0  0  0  0  0  0  0  0  0
   22.8773  -29.2860    9.1973 N   0  0  0  0  0  0  0  0  0  0  0  0
   26.0970  -30.8298   12.9040 O   0  0  0  0  0  0  0  0  0  0  0  0
   29.2161  -29.3568   16.6789 O   0  0  0  0  0  0  0  0  0  0  0  0
   25.5630  -27.6700   19.0704 O   0  5  0  0  0  0  0  0  0  0  0  0
   24.6781  -28.1584   10.2680 N   0  0  0  0  0  0  0  0  0  0  0  0
   27.6148  -29.8476   14.7502 O   0  0  0  0  0  0  0  0  0  0  0  0
   26.7349  -28.7775   17.0443 O   0  0  0  0  0  0  0  0  0  0  0  0
   27.0796  -29.5914   19.4930 O   0  0  0  0  0  0  0  0  0  0  0  0
   25.9518  -28.0603   10.6675 C   0  0  0  0  0  0  0  0  0  0  0  0
   26.8189  -29.0940   10.3763 C   0  0  0  0  0  0  0  0  0  0  0  0
   26.3551  -30.2212    9.6711 C   0  0  0  0  0  0  0  0  0  0  0  0
   27.2147  -31.2894    9.3595 O   0  0  0  0  0  0  0  0  0  0  0  0
   28.0231  -28.7654   10.8745 N   0  0  0  0  0  0  0  0  0  0  0  0
   27.9060  -27.5809   11.4491 C   0  0  0  0  0  0  0  0  0  0  0  0
   26.6662  -27.1420   11.3369 N   0  0  0  0  0  0  0  0  0  0  0  0
  1  5  1  6  0  0  0
  1 14  1  0  0  0  0
  1 19  2  0  0  0  0
  1 23  1  0  0  0  0
  2 15  1  6  0  0  0
  2 20  2  0  0  0  0
  2 23  1  0  0  0  0
  2 24  1  0  0  0  0
  3 16  1  1  0  0  0
  3 21  1  0  0  0  0
  3 24  1  0  0  0  0
  3 25  2  0  0  0  0
  4  5  1  0  0  0  0
  6  4  1  6  0  0  0
  6  7  1  0  0  0  0
  6  8  1  0  0  0  0
  7 12  1  0  0  0  0
  8  9  1  1  0  0  0
  8 10  1  0  0  0  0
 10 11  1  1  0  0  0
 10 12  1  0  0  0  0
 12 32  1  1  0  0  0
 13 17  2  0  0  0  0
 13 28  1  0  0  0  0
 17 18  1  0  0  0  0
 17 22  1  0  0  0  0
 22 26  2  0  0  0  0
 26 27  1  0  0  0  0
 26 32  1  0  0  0  0
 27 28  2  0  0  0  0
 27 30  1  0  0  0  0
 28 29  1  0  0  0  0
 30 31  2  0  0  0  0
 31 32  1  0  0  0  0
M  CHG  3  14  -1  15  -1  21  -1
M  END
>  <CHROM.1>
44.27442125,-79.38888249,28.47020609,-58.19468031,177.52173730,128.40950134
57.07426110,-82.60839370,26.20950838,-28.30062957,13.76214737,-1.08644724
1.01018356,-1.97099049

>  <Name>
ligand

>  <RI>
0

>  <Rbt.Current_Directory>
/home/itssahil/PROJECTS/Mol_Feturizer/New_Systems/rnas/4Y1I

>  <Rbt.Executable>
rbdock ($Id: //depot/dev/client3/rdock/2013.1/src/exe/rbdock.cxx#4 $)

>  <Rbt.Library>
libRbt.so (2013.1, Build901 2013/11/27)

>  <Rbt.Parameter_File>
/export/apps/rDock/src/rDock_2013.1_src/data/scripts/dock_solv.prm

>  <Rbt.Receptor>
prm/blind_docking_80.prm

>  <SCORE>
-13.7314

>  <SCORE.INTER>
-7.45329

>  <SCORE.INTER.CONST>
1

>  <SCORE.INTER.POLAR>
0

>  <SCORE.INTER.ROT>
8

>  <SCORE.INTER.SOLV>
30.4901

>  <SCORE.INTER.VDW>
-24.0656

>  <SCORE.INTER.norm>
-0.232915

>  <SCORE.INTRA>
-6.2781

>  <SCORE.INTRA.DIHEDRAL>
-6.72042

>  <SCORE.INTRA.DIHEDRAL.0>
10.9594

>  <SCORE.INTRA.POLAR>
0

>  <SCORE.INTRA.POLAR.0>
0

>  <SCORE.INTRA.REPUL>
0.00986069

>  <SCORE.INTRA.REPUL.0>
0

>  <SCORE.INTRA.SOLV>
-1.65833

>  <SCORE.INTRA.SOLV.lig_0>
-124.914

>  <SCORE.INTRA.VDW>
-2.13803

>  <SCORE.INTRA.VDW.0>
-4.69801

>  <SCORE.INTRA.norm>
-0.196191

>  <SCORE.RESTR>
0

>  <SCORE.RESTR.CAVITY>
0

>  <SCORE.RESTR.norm>
0

>  <SCORE.SYSTEM>
0

>  <SCORE.SYSTEM.CONST>
0

>  <SCORE.SYSTEM.DIHEDRAL>
0

>  <SCORE.SYSTEM.SOLV>
0

>  <SCORE.SYSTEM.norm>
0

>  <SCORE.heavy>
32

>  <SCORE.norm>
-0.429106

>  <RMSD>
33.301

$$$$
ligand
 OpenBabel11021811513D
libRbt.so/2013.1/901 2013/11/27
 32 34  0  0  0  0  0  0  0  0999 V2000
   25.1703  -27.7980   14.9202 P   0  0  1  0  0  0  0  0  0  0  0  0
   27.6364  -28.8701   15.9202 P   0  0  2  0  0  0  0  0  0  0  0  0
   27.2464  -28.4792   18.8030 P   0  0  1  0  0  0  0  0  0  0  0  0
   25.6675  -28.9363   12.6292 C   0  0  0  0  0  0  0  0  0  0  0  0
   25.0610  -29.0717   13.8829 O   0  0  0  0  0  0  0  0  0  0  0  0
   25.2758  -29.9873   11.8075 C   0  0  1  0  0  0  0  0  0  0  0  0
   25.7859  -29.7584   10.3978 O   0  0  0  0  0  0  0  0  0  0  0  0
   25.9179  -31.3699   12.2855 C   0  0  1  0  0  0  0  0  0  0  0  0
   24.8192  -32.3036   12.7408 O   0  0  0  0  0  0  0  0  0  0  0  0
   26.4327  -31.8714   11.2831 C   0  0  1  0  0  0  0  0  0  0  0  0
   25.4938  -32.8511   10.6861 O   0  0  0  0  0  0  0  0  0  0  0  0
   26.7056  -30.6210   10.2173 C   0  0  2  0  0  0  0  0  0  0  0  0
   29.4874  -26.3033   10.1494 N   0  0  0  0  0  0  0  0  0  0  0  0
   24.7041  -26.5380   14.2339 O   0  5  0  0  0  0  0  0  0  0  0  0
   29.0865  -28.4717   16.0336 O   0  5  0  0  0  0  0  0  0  0  0  0
   28.6424  -27.9022   18.8257 O   0  0  0  0  0  0  0  0  0  0  0  0
   28.2057  -26.4553    9.8546 C   0  0  0  0  0  0  0  0  0  0  0  0
   27.4263  -25.3013    9.4543 N   0  0  0  0  0  0  0  0  0  0  0  0
   24.3281  -28.0924   16.1409 O   0  0  0  0  0  0  0  0  0  0  0  0
   27.5028  -30.0188   14.9551 O   0  0  0  0  0  0  0  0  0  0  0  0
   26.2420  -27.3486   18.8524 O   0  5  0  0  0  0  0  0  0  0  0  0
   27.6093  -27.6286    9.9131 N   0  0  0  0  0  0  0  0  0  0  0  0
   26.7432  -27.6133   15.3568 O   0  0  0  0  0  0  0  0  0  0  0  0
   27.0654  -29.3238   17.3947 O   0  0  0  0  0  0  0  0  0  0  0  0
   27.0705  -29.3916   19.9972 O   0  0  0  0  0  0  0  0  0  0  0  0
   28.2934  -28.7196   10.2781 C   0  0  0  0  0  0  0  0  0  0  0  0
   29.6315  -28.5889   10.5903 C   0  0  0  0  0  0  0  0  0  0  0  0
   30.2478  -27.3246   10.5215 C   0  0  0  0  0  0  0  0  0  0  0  0
   31.6088  -27.1601   10.8341 O   0  0  0  0  0  0  0  0  0  0  0  0
   30.0912  -29.8075   10.9218 N   0  0  0  0  0  0  0  0  0  0  0  0
   29.0822  -30.6549   10.8187 C   0  0  0  0  0  0  0  0  0  0  0  0
   27.9928  -30.0190   10.4300 N   0  0  0  0  0  0  0  0  0  0  0  0
  1  5  1  6  0  0  0
  1 14  1  0  0  0  0
  1 19  2  0  0  0  0
  1 23  1  0  0  0  0
  2 15  1  1  0  0  0
  2 20  2  0  0  0  0
  2 23  1  0  0  0  0
  2 24  1  0  0  0  0
  3 16  1  1  0  0  0
  3 21  1  0  0  0  0
  3 24  1  0  0  0  0
  3 25  2  0  0  0  0
  4  5  1  0  0  0  0
  6  4  1  1  0  0  0
  6  7  1  0  0  0  0
  6  8  1  0  0  0  0
  7 12  1  0  0  0  0
  8  9  1  6  0  0  0
  8 10  1  0  0  0  0
 10 11  1  6  0  0  0
 10 12  1  0  0  0  0
 12 32  1  1  0  0  0
 13 17  2  0  0  0  0
 13 28  1  0  0  0  0
 17 18  1  0  0  0  0
 17 22  1  0  0  0  0
 22 26  2  0  0  0  0
 26 27  1  0  0  0  0
 26 32  1  0  0  0  0
 27 28  2  0  0  0  0
 27 30  1  0  0  0  0
 28 29  1  0  0  0  0
 30 31  2  0  0  0  0
 31 32  1  0  0  0  0
M  CHG  3  14  -1  15  -1  21  -1
M  END
>  <CHROM.1>
52.28597637,171.02086573,-39.68046416,172.93587097,-169.29493125,-26.47314401
-51.01092203,48.75812315,27.14592530,-28.84236971,13.66465901,1.78221449
0.73962071,1.36178802

>  <Name>
ligand

>  <RI>
0

>  <Rbt.Current_Directory>
/home/itssahil/PROJECTS/Mol_Feturizer/New_Systems/rnas/4Y1I

>  <Rbt.Executable>
rbdock ($Id: //depot/dev/client3/rdock/2013.1/src/exe/rbdock.cxx#4 $)

>  <Rbt.Library>
libRbt.so (2013.1, Build901 2013/11/27)

>  <Rbt.Parameter_File>
/export/apps/rDock/src/rDock_2013.1_src/data/scripts/dock_solv.prm

>  <Rbt.Receptor>
prm/blind_docking_80.prm

>  <SCORE>
-16.3697

>  <SCORE.INTER>
-10.5241

>  <SCORE.INTER.CONST>
1

>  <SCORE.INTER.POLAR>
0

>  <SCORE.INTER.ROT>
8

>  <SCORE.INTER.SOLV>
30.2518

>  <SCORE.INTER.VDW>
-26.0334

>  <SCORE.INTER.norm>
-0.328879

>  <SCORE.INTRA>
-5.84553

>  <SCORE.INTRA.DIHEDRAL>
-7.85573

>  <SCORE.INTRA.DIHEDRAL.0>
10.9594

>  <SCORE.INTRA.POLAR>
0

>  <SCORE.INTRA.POLAR.0>
0

>  <SCORE.INTRA.REPUL>
0

>  <SCORE.INTRA.REPUL.0>
0

>  <SCORE.INTRA.SOLV>
-2.4084

>  <SCORE.INTRA.SOLV.lig_0>
-124.914

>  <SCORE.INTRA.VDW>
-0.713466

>  <SCORE.INTRA.VDW.0>
-4.69801

>  <SCORE.INTRA.norm>
-0.182673

>  <SCORE.RESTR>
0

>  <SCORE.RESTR.CAVITY>
0

>  <SCORE.RESTR.norm>
0

>  <SCORE.SYSTEM>
0

>  <SCORE.SYSTEM.CONST>
0

>  <SCORE.SYSTEM.DIHEDRAL>
0

>  <SCORE.SYSTEM.SOLV>
0

>  <SCORE.SYSTEM.norm>
0

>  <SCORE.heavy>
32

>  <SCORE.norm>
-0.511552

>  <RMSD>
33.494

$$$$
ligand
 OpenBabel11021811513D
libRbt.so/2013.1/901 2013/11/27
 32 34  0  0  0  0  0  0  0  0999 V2000
   23.9967  -26.9906   13.1880 P   0  0  1  0  0  0  0  0  0  0  0  0
   26.1727  -25.5805   11.9601 P   0  0  2  0  0  0  0  0  0  0  0  0
   28.5271  -24.4109   13.2656 P   0  0  1  0  0  0  0  0  0  0  0  0
   25.8049  -26.9882   15.0646 C   0  0  0  0  0  0  0  0  0  0  0  0
   24.5557  -27.4715   14.6599 O   0  0  0  0  0  0  0  0  0  0  0  0
   26.2664  -27.7374   16.1412 C   0  0  1  0  0  0  0  0  0  0  0  0
   25.8944  -29.1955   15.9529 O   0  0  0  0  0  0  0  0  0  0  0  0
   27.8609  -27.7016   16.2341 C   0  0  1  0  0  0  0  0  0  0  0  0
   28.2746  -27.0006   17.5083 O   0  0  0  0  0  0  0  0  0  0  0  0
   28.2235  -28.8767   16.3282 C   0  0  1  0  0  0  0  0  0  0  0  0
   28.4403  -29.2113   17.7561 O   0  0  0  0  0  0  0  0  0  0  0  0
   26.9866  -29.8032   15.7071 C   0  0  2  0  0  0  0  0  0  0  0  0
   25.0326  -31.8803   11.4348 N   0  0  0  0  0  0  0  0  0  0  0  0
   22.9846  -27.9850   12.6753 O   0  5  0  0  0  0  0  0  0  0  0  0
   25.3180  -24.3490   12.1250 O   0  5  0  0  0  0  0  0  0  0  0  0
   27.8399  -23.1437   13.7175 O   0  0  0  0  0  0  0  0  0  0  0  0
   24.5507  -31.9376   12.6666 C   0  0  0  0  0  0  0  0  0  0  0  0
   23.3199  -32.6605   12.9158 N   0  0  0  0  0  0  0  0  0  0  0  0
   23.3819  -25.6162   13.3274 O   0  0  0  0  0  0  0  0  0  0  0  0
   26.7759  -25.5948   10.5800 O   0  0  0  0  0  0  0  0  0  0  0  0
   29.5241  -24.8373   14.3210 O   0  5  0  0  0  0  0  0  0  0  0  0
   25.1559  -31.3556   13.6818 N   0  0  0  0  0  0  0  0  0  0  0  0
   25.2618  -26.9340   12.1416 O   0  0  0  0  0  0  0  0  0  0  0  0
   27.3744  -25.5803   13.0835 O   0  0  0  0  0  0  0  0  0  0  0  0
   29.2312  -24.1486   11.9523 O   0  0  0  0  0  0  0  0  0  0  0  0
   26.2950  -30.6782   13.4945 C   0  0  0  0  0  0  0  0  0  0  0  0
   26.8193  -30.6033   12.2199 C   0  0  0  0  0  0  0  0  0  0  0  0
   26.1547  -31.2326   11.1497 C   0  0  0  0  0  0  0  0  0  0  0  0
   26.6640  -31.1733    9.8405 O   0  0  0  0  0  0  0  0  0  0  0  0
   27.9499  -29.8800   12.2886 N   0  0  0  0  0  0  0  0  0  0  0  0
   28.1180  -29.5236   13.5501 C   0  0  0  0  0  0  0  0  0  0  0  0
   27.1335  -29.9969   14.2911 N   0  0  0  0  0  0  0  0  0  0  0  0
  1  5  1  1  0  0  0
  1 14  1  0  0  0  0
  1 19  2  0  0  0  0
  1 23  1  0  0  0  0
  2 15  1  1  0  0  0
  2 20  2  0  0  0  0
  2 23  1  0  0  0  0
  2 24  1  0  0  0  0
  3 16  1  1  0  0  0
  3 21  1  0  0  0  0
  3 24  1  0  0  0  0
  3 25  2  0  0  0  0
  4  5  1  0  0  0  0
  6  4  1  6  0  0  0
  6  7  1  0  0  0  0
  6  8  1  0  0  0  0
  7 12  1  0  0  0  0
  8  9  1  1  0  0  0
  8 10  1  0  0  0  0
 10 11  1  1  0  0  0
 10 12  1  0  0  0  0
 12 32  1  6  0  0  0
 13 17  2  0  0  0  0
 13 28  1  0  0  0  0
 17 18  1  0  0  0  0
 17 22  1  0  0  0  0
 22 26  2  0  0  0  0
 26 27  1  0  0  0  0
 26 32  1  0  0  0  0
 27 28  2  0  0  0  0
 27 30  1  0  0  0  0
 28 29  1  0  0  0  0
 30 31  2  0  0  0  0
 31 32  1  0  0  0  0
M  CHG  3  14  -1  15  -1  21  -1
M  END
>  <CHROM.1>
157.01265446,-34.10589585,66.38697875,37.74278492,-165.10893843,-59.90120525
-88.85940075,-58.98676940,26.41356668,-27.74405439,13.51868974,2.17724517
0.95380467,2.69830957

>  <Name>
ligand

>  <RI>
0

>  <Rbt.Current_Directory>
/home/itssahil/PROJECTS/Mol_Feturizer/New_Systems/rnas/4Y1I

>  <Rbt.Executable>
rbdock ($Id: //depot/dev/client3/rdock/2013.1/src/exe/rbdock.cxx#4 $)

>  <Rbt.Library>
libRbt.so (2013.1, Build901 2013/11/27)

>  <Rbt.Parameter_File>
/export/apps/rDock/src/rDock_2013.1_src/data/scripts/dock_solv.prm

>  <Rbt.Receptor>
prm/blind_docking_60.prm

>  <SCORE>
-16.0387

>  <SCORE.INTER>
-11.5876

>  <SCORE.INTER.CONST>
1

>  <SCORE.INTER.POLAR>
0

>  <SCORE.INTER.ROT>
8

>  <SCORE.INTER.SOLV>
19.0834

>  <SCORE.INTER.VDW>
-23.0195

>  <SCORE.INTER.norm>
-0.362113

>  <SCORE.INTRA>
-4.4589

>  <SCORE.INTRA.DIHEDRAL>
-4.24117

>  <SCORE.INTRA.DIHEDRAL.0>
10.9594

>  <SCORE.INTRA.POLAR>
0

>  <SCORE.INTRA.POLAR.0>
0

>  <SCORE.INTRA.REPUL>
0

>  <SCORE.INTRA.REPUL.0>
0

>  <SCORE.INTRA.SOLV>
-2.8383

>  <SCORE.INTRA.SOLV.lig_0>
-124.914

>  <SCORE.INTRA.VDW>
-0.91916

>  <SCORE.INTRA.VDW.0>
-4.69801

>  <SCORE.INTRA.norm>
-0.139341

>  <SCORE.RESTR>
0.00785054

>  <SCORE.RESTR.CAVITY>
0.00785054

>  <SCORE.RESTR.norm>
0.000245329

>  <SCORE.SYSTEM>
0

>  <SCORE.SYSTEM.CONST>
0

>  <SCORE.SYSTEM.DIHEDRAL>
0

>  <SCORE.SYSTEM.SOLV>
0

>  <SCORE.SYSTEM.norm>
0

>  <SCORE.heavy>
32

>  <SCORE.norm>
-0.501208

>  <RMSD>
33.858

$$$$
ligand
 OpenBabel11021811513D
libRbt.so/2013.1/901 2013/11/27
 32 34  0  0  0  0  0  0  0  0999 V2000
   24.7043  -26.7130   12.5927 P   0  0  1  0  0  0  0  0  0  0  0  0
   25.6040  -28.1552   10.2815 P   0  0  2  0  0  0  0  0  0  0  0  0
   28.4028  -27.4267    9.7805 P   0  0  1  0  0  0  0  0  0  0  0  0
   24.3937  -28.1747   14.7277 C   0  0  0  0  0  0  0  0  0  0  0  0
   24.5438  -28.1728   13.3365 O   0  0  0  0  0  0  0  0  0  0  0  0
   25.6209  -27.9158   15.3278 C   0  0  1  0  0  0  0  0  0  0  0  0
   25.4516  -27.8275   16.8323 O   0  0  0  0  0  0  0  0  0  0  0  0
   26.6556  -29.1062   15.0735 C   0  0  1  0  0  0  0  0  0  0  0  0
   27.8059  -28.6013   14.2321 O   0  0  0  0  0  0  0  0  0  0  0  0
   27.1133  -29.4023   16.1799 C   0  0  1  0  0  0  0  0  0  0  0  0
   28.4093  -28.7099   16.3770 O   0  0  0  0  0  0  0  0  0  0  0  0
   26.0065  -28.8718   17.3057 C   0  0  2  0  0  0  0  0  0  0  0  0
   22.6672  -30.7809   20.7100 N   0  0  0  0  0  0  0  0  0  0  0  0
   23.5326  -25.8292   12.9423 O   0  5  0  0  0  0  0  0  0  0  0  0
   25.4928  -28.0931    8.7788 O   0  5  0  0  0  0  0  0  0  0  0  0
   28.4538  -28.2708    8.5286 O   0  0  0  0  0  0  0  0  0  0  0  0
   23.4816  -29.7471   20.8543 C   0  0  0  0  0  0  0  0  0  0  0  0
   23.4855  -29.0138   22.1041 N   0  0  0  0  0  0  0  0  0  0  0  0
   26.0067  -26.0840   13.0336 O   0  0  0  0  0  0  0  0  0  0  0  0
   25.0720  -29.4760   10.7726 O   0  0  0  0  0  0  0  0  0  0  0  0
   28.1248  -25.9893    9.3980 O   0  5  0  0  0  0  0  0  0  0  0  0
   24.2951  -29.3586   19.8937 N   0  0  0  0  0  0  0  0  0  0  0  0
   24.7210  -26.9535   10.9677 O   0  0  0  0  0  0  0  0  0  0  0  0
   27.1782  -27.9969   10.7316 O   0  0  0  0  0  0  0  0  0  0  0  0
   29.7293  -27.5322   10.5006 O   0  0  0  0  0  0  0  0  0  0  0  0
   24.3227  -30.0089   18.7241 C   0  0  0  0  0  0  0  0  0  0  0  0
   23.4839  -31.0907   18.5475 C   0  0  0  0  0  0  0  0  0  0  0  0
   22.6221  -31.4875   19.5881 C   0  0  0  0  0  0  0  0  0  0  0  0
   21.7561  -32.5848   19.4377 O   0  0  0  0  0  0  0  0  0  0  0  0
   23.6937  -31.5683   17.3089 N   0  0  0  0  0  0  0  0  0  0  0  0
   24.6218  -30.8156   16.7443 C   0  0  0  0  0  0  0  0  0  0  0  0
   25.0143  -29.8736   17.5815 N   0  0  0  0  0  0  0  0  0  0  0  0
  1  5  1  1  0  0  0
  1 14  1  0  0  0  0
  1 19  2  0  0  0  0
  1 23  1  0  0  0  0
  2 15  1  6  0  0  0
  2 20  2  0  0  0  0
  2 23  1  0  0  0  0
  2 24  1  0  0  0  0
  3 16  1  6  0  0  0
  3 21  1  0  0  0  0
  3 24  1  0  0  0  0
  3 25  2  0  0  0  0
  4  5  1  0  0  0  0
  6  4  1  6  0  0  0
  6  7  1  0  0  0  0
  6  8  1  0  0  0  0
  7 12  1  0  0  0  0
  8  9  1  6  0  0  0
  8 10  1  0  0  0  0
 10 11  1  1  0  0  0
 10 12  1  0  0  0  0
 12 32  1  6  0  0  0
 13 17  2  0  0  0  0
 13 28  1  0  0  0  0
 17 18  1  0  0  0  0
 17 22  1  0  0  0  0
 22 26  2  0  0  0  0
 26 27  1  0  0  0  0
 26 32  1  0  0  0  0
 27 28  2  0  0  0  0
 27 30  1  0  0  0  0
 28 29  1  0  0  0  0
 30 31  2  0  0  0  0
 31 32  1  0  0  0  0
M  CHG  3  14  -1  15  -1  21  -1
M  END
>  <CHROM.1>
-55.81317669,-176.84316635,-56.18631670,176.38035988,-75.44479029,-87.94866433
-44.48460209,16.43989061,25.54101225,-28.58629866,14.35406691,1.23469142
-0.13175517,-1.31471432

>  <Name>
ligand

>  <RI>
0

>  <Rbt.Current_Directory>
/home/itssahil/PROJECTS/Mol_Feturizer/New_Systems/rnas/4Y1I

>  <Rbt.Executable>
rbdock ($Id: //depot/dev/client3/rdock/2013.1/src/exe/rbdock.cxx#4 $)

>  <Rbt.Library>
libRbt.so (2013.1, Build901 2013/11/27)

>  <Rbt.Parameter_File>
/export/apps/rDock/src/rDock_2013.1_src/data/scripts/dock_solv.prm

>  <Rbt.Receptor>
prm/blind_docking_60.prm

>  <SCORE>
-13.245

>  <SCORE.INTER>
-8.61404

>  <SCORE.INTER.CONST>
1

>  <SCORE.INTER.POLAR>
0

>  <SCORE.INTER.ROT>
8

>  <SCORE.INTER.SOLV>
18.9778

>  <SCORE.INTER.VDW>
-21.002

>  <SCORE.INTER.norm>
-0.269189

>  <SCORE.INTRA>
-4.63502

>  <SCORE.INTRA.DIHEDRAL>
-6.14992

>  <SCORE.INTRA.DIHEDRAL.0>
10.9594

>  <SCORE.INTRA.POLAR>
0

>  <SCORE.INTRA.POLAR.0>
0

>  <SCORE.INTRA.REPUL>
0

>  <SCORE.INTRA.REPUL.0>
0

>  <SCORE.INTRA.SOLV>
-2.44643

>  <SCORE.INTRA.SOLV.lig_0>
-124.914

>  <SCORE.INTRA.VDW>
-0.336851

>  <SCORE.INTRA.VDW.0>
-4.69801

>  <SCORE.INTRA.norm>
-0.144845

>  <SCORE.RESTR>
0.00409394

>  <SCORE.RESTR.CAVITY>
0.00409394

>  <SCORE.RESTR.norm>
0.000127936

>  <SCORE.SYSTEM>
0

>  <SCORE.SYSTEM.CONST>
0

>  <SCORE.SYSTEM.DIHEDRAL>
0

>  <SCORE.SYSTEM.SOLV>
0

>  <SCORE.SYSTEM.norm>
0

>  <SCORE.heavy>
32

>  <SCORE.norm>
-0.413905

>  <RMSD>
34.986

$$$$
ligand
 OpenBabel11021811513D
libRbt.so/2013.1/901 2013/11/27
 32 34  0  0  0  0  0  0  0  0999 V2000
   36.1722  -26.9592   30.3909 P   0  0  1  0  0  0  0  0  0  0  0  0
   37.2932  -25.0349   32.1997 P   0  0  2  0  0  0  0  0  0  0  0  0
   40.0507  -26.0077   31.9444 P   0  0  1  0  0  0  0  0  0  0  0  0
   36.8729  -25.8380   28.1452 C   0  0  0  0  0  0  0  0  0  0  0  0
   37.2547  -26.7021   29.1775 O   0  0  0  0  0  0  0  0  0  0  0  0
   37.9782  -25.5403   27.3558 C   0  0  1  0  0  0  0  0  0  0  0  0
   37.5281  -24.8942   26.0597 O   0  0  0  0  0  0  0  0  0  0  0  0
   38.9314  -24.4741   28.0677 C   0  0  1  0  0  0  0  0  0  0  0  0
   40.2640  -25.1183   28.3763 O   0  0  0  0  0  0  0  0  0  0  0  0
   39.1367  -23.5895   27.2331 C   0  0  1  0  0  0  0  0  0  0  0  0
   40.4264  -23.8485   26.5493 O   0  0  0  0  0  0  0  0  0  0  0  0
   37.8842  -23.6738   26.1385 C   0  0  2  0  0  0  0  0  0  0  0  0
   33.4797  -21.4198   24.7581 N   0  0  0  0  0  0  0  0  0  0  0  0
   34.8193  -27.2860   29.8088 O   0  5  0  0  0  0  0  0  0  0  0  0
   37.3501  -25.7865   33.5059 O   0  5  0  0  0  0  0  0  0  0  0  0
   39.7725  -27.4926   31.9452 O   0  0  0  0  0  0  0  0  0  0  0  0
   34.2937  -22.1503   24.0121 C   0  0  0  0  0  0  0  0  0  0  0  0
   33.9641  -22.3856   22.6208 N   0  0  0  0  0  0  0  0  0  0  0  0
   36.6753  -28.0906   31.2587 O   0  0  0  0  0  0  0  0  0  0  0  0
   37.0743  -23.5694   32.4702 O   0  0  0  0  0  0  0  0  0  0  0  0
   41.2233  -25.7238   31.0311 O   0  5  0  0  0  0  0  0  0  0  0  0
   35.4018  -22.6750   24.4943 N   0  0  0  0  0  0  0  0  0  0  0  0
   36.0486  -25.5839   31.2809 O   0  0  0  0  0  0  0  0  0  0  0  0
   38.7041  -25.2359   31.3782 O   0  0  0  0  0  0  0  0  0  0  0  0
   40.3643  -25.5640   33.3565 O   0  0  0  0  0  0  0  0  0  0  0  0
   35.7429  -22.4814   25.7740 C   0  0  0  0  0  0  0  0  0  0  0  0
   34.9119  -21.7231   26.5737 C   0  0  0  0  0  0  0  0  0  0  0  0
   33.7321  -21.1728   26.0369 C   0  0  0  0  0  0  0  0  0  0  0  0
   32.8657  -20.3967   26.8268 O   0  0  0  0  0  0  0  0  0  0  0  0
   35.4622  -21.6745   27.7989 N   0  0  0  0  0  0  0  0  0  0  0  0
   36.5844  -22.3715   27.7588 C   0  0  0  0  0  0  0  0  0  0  0  0
   36.7714  -22.8624   26.5479 N   0  0  0  0  0  0  0  0  0  0  0  0
  1  5  1  6  0  0  0
  1 14  1  0  0  0  0
  1 19  2  0  0  0  0
  1 23  1  0  0  0  0
  2 15  1  1  0  0  0
  2 20  2  0  0  0  0
  2 23  1  0  0  0  0
  2 24  1  0  0  0  0
  3 16  1  1  0  0  0
  3 21  1  0  0  0  0
  3 24  1  0  0  0  0
  3 25  2  0  0  0  0
  4  5  1  0  0  0  0
  6  4  1  1  0  0  0
  6  7  1  0  0  0  0
  6  8  1  0  0  0  0
  7 12  1  0  0  0  0
  8  9  1  6  0  0  0
  8 10  1  0  0  0  0
 10 11  1  6  0  0  0
 10 12  1  0  0  0  0
 12 32  1  1  0  0  0
 13 17  2  0  0  0  0
 13 28  1  0  0  0  0
 17 18  1  0  0  0  0
 17 22  1  0  0  0  0
 22 26  2  0  0  0  0
 26 27  1  0  0  0  0
 26 32  1  0  0  0  0
 27 28  2  0  0  0  0
 27 30  1  0  0  0  0
 28 29  1  0  0  0  0
 30 31  2  0  0  0  0
 31 32  1  0  0  0  0
M  CHG  3  14  -1  15  -1  21  -1
M  END
>  <CHROM.1>
48.63400689,-80.37730495,73.49514874,166.23786650,168.80110176,-76.31202509
-67.73492557,-5.88000344,37.18592722,-24.56487710,28.91941490,1.09748290
-0.21247019,2.01291287

>  <Name>
ligand

>  <RI>
0

>  <Rbt.Current_Directory>
/home/itssahil/PROJECTS/Mol_Feturizer/New_Systems/rnas/4Y1I

>  <Rbt.Executable>
rbdock ($Id: //depot/dev/client3/rdock/2013.1/src/exe/rbdock.cxx#4 $)

>  <Rbt.Library>
libRbt.so (2013.1, Build901 2013/11/27)

>  <Rbt.Parameter_File>
/export/apps/rDock/src/rDock_2013.1_src/data/scripts/dock_solv.prm

>  <Rbt.Receptor>
prm/blind_docking_100.prm

>  <SCORE>
-9.83382

>  <SCORE.INTER>
-4.77075

>  <SCORE.INTER.CONST>
1

>  <SCORE.INTER.POLAR>
0

>  <SCORE.INTER.ROT>
8

>  <SCORE.INTER.SOLV>
21.8299

>  <SCORE.INTER.VDW>
-19.3905

>  <SCORE.INTER.norm>
-0.149086

>  <SCORE.INTRA>
-5.06307

>  <SCORE.INTRA.DIHEDRAL>
-5.00343

>  <SCORE.INTRA.DIHEDRAL.0>
10.9594

>  <SCORE.INTRA.POLAR>
0

>  <SCORE.INTRA.POLAR.0>
0

>  <SCORE.INTRA.REPUL>
0

>  <SCORE.INTRA.REPUL.0>
0

>  <SCORE.INTRA.SOLV>
-2.1817

>  <SCORE.INTRA.SOLV.lig_0>
-124.914

>  <SCORE.INTRA.VDW>
-1.4705

>  <SCORE.INTRA.VDW.0>
-4.69801

>  <SCORE.INTRA.norm>
-0.158221

>  <SCORE.RESTR>
0

>  <SCORE.RESTR.CAVITY>
0

>  <SCORE.RESTR.norm>
0

>  <SCORE.SYSTEM>
0

>  <SCORE.SYSTEM.CONST>
0

>  <SCORE.SYSTEM.DIHEDRAL>
0

>  <SCORE.SYSTEM.SOLV>
0

>  <SCORE.SYSTEM.norm>
0

>  <SCORE.heavy>
32

>  <SCORE.norm>
-0.307307

>  <RMSD>
50.965

$$$$
ligand
 OpenBabel11021811513D
libRbt.so/2013.1/901 2013/11/27
 32 34  0  0  0  0  0  0  0  0999 V2000
   37.8281  -23.9566   26.5853 P   0  0  1  0  0  0  0  0  0  0  0  0
   35.0306  -24.5000   26.2543 P   0  0  2  0  0  0  0  0  0  0  0  0
   35.6884  -25.5574   23.5964 P   0  0  1  0  0  0  0  0  0  0  0  0
   39.0907  -25.5321   28.2331 C   0  0  0  0  0  0  0  0  0  0  0  0
   39.1641  -24.8042   27.0403 O   0  0  0  0  0  0  0  0  0  0  0  0
   39.7458  -24.8364   29.2431 C   0  0  1  0  0  0  0  0  0  0  0  0
   39.1105  -23.4715   29.4258 O   0  0  0  0  0  0  0  0  0  0  0  0
   39.5995  -25.5786   30.6502 C   0  0  1  0  0  0  0  0  0  0  0  0
   40.9600  -26.0452   31.1163 O   0  0  0  0  0  0  0  0  0  0  0  0
   39.2125  -24.7221   31.4489 C   0  0  1  0  0  0  0  0  0  0  0  0
   40.3765  -24.1780   32.1884 O   0  0  0  0  0  0  0  0  0  0  0  0
   38.5001  -23.5198   30.5428 C   0  0  2  0  0  0  0  0  0  0  0  0
   34.5594  -26.7186   31.3324 N   0  0  0  0  0  0  0  0  0  0  0  0
   37.7306  -22.6845   27.3905 O   0  5  0  0  0  0  0  0  0  0  0  0
   34.9915  -23.0480   25.8487 O   0  5  0  0  0  0  0  0  0  0  0  0
   36.9529  -26.2949   23.9699 O   0  0  0  0  0  0  0  0  0  0  0  0
   35.8155  -26.8549   31.7279 C   0  0  0  0  0  0  0  0  0  0  0  0
   36.1996  -28.0300   32.4837 N   0  0  0  0  0  0  0  0  0  0  0  0
   37.9248  -23.6548   25.1068 O   0  0  0  0  0  0  0  0  0  0  0  0
   33.9832  -24.7585   27.3055 O   0  0  0  0  0  0  0  0  0  0  0  0
   34.9611  -26.3340   22.5205 O   0  5  0  0  0  0  0  0  0  0  0  0
   36.7357  -25.9521   31.4563 N   0  0  0  0  0  0  0  0  0  0  0  0
   36.4996  -24.8760   26.8830 O   0  0  0  0  0  0  0  0  0  0  0  0
   34.7403  -25.4530   24.9453 O   0  0  0  0  0  0  0  0  0  0  0  0
   36.0527  -24.1774   23.0939 O   0  0  0  0  0  0  0  0  0  0  0  0
   36.4225  -24.8524   30.7605 C   0  0  0  0  0  0  0  0  0  0  0  0
   35.1198  -24.6859   30.3356 C   0  0  0  0  0  0  0  0  0  0  0  0
   34.1527  -25.6637   30.6383 C   0  0  0  0  0  0  0  0  0  0  0  0
   32.8180  -25.5217   30.2197 O   0  0  0  0  0  0  0  0  0  0  0  0
   35.0571  -23.5215   29.6675 N   0  0  0  0  0  0  0  0  0  0  0  0
   36.2677  -22.9912   29.6781 C   0  0  0  0  0  0  0  0  0  0  0  0
   37.1032  -23.7790   30.3289 N   0  0  0  0  0  0  0  0  0  0  0  0
  1  5  1  1  0  0  0
  1 14  1  0  0  0  0
  1 19  2  0  0  0  0
  1 23  1  0  0  0  0
  2 15  1  6  0  0  0
  2 20  2  0  0  0  0
  2 23  1  0  0  0  0
  2 24  1  0  0  0  0
  3 16  1  1  0  0  0
  3 21  1  0  0  0  0
  3 24  1  0  0  0  0
  3 25  2  0  0  0  0
  4  5  1  0  0  0  0
  6  4  1  6  0  0  0
  6  7  1  0  0  0  0
  6  8  1  0  0  0  0
  7 12  1  0  0  0  0
  8  9  1  1  0  0  0
  8 10  1  0  0  0  0
 10 11  1  6  0  0  0
 10 12  1  0  0  0  0
 12 32  1  6  0  0  0
 13 17  2  0  0  0  0
 13 28  1  0  0  0  0
 17 18  1  0  0  0  0
 17 22  1  0  0  0  0
 22 26  2  0  0  0  0
 26 27  1  0  0  0  0
 26 32  1  0  0  0  0
 27 28  2  0  0  0  0
 27 30  1  0  0  0  0
 28 29  1  0  0  0  0
 30 31  2  0  0  0  0
 31 32  1  0  0  0  0
M  CHG  3  14  -1  15  -1  21  -1
M  END
>  <CHROM.1>
77.83462497,-20.11344918,71.67466300,58.93514694,-101.83426896,117.76297432
-166.11022582,63.33310120,36.76987728,-24.85750183,28.05894682,-1.88563685
0.21027021,1.68100070

>  <Name>
ligand

>  <RI>
0

>  <Rbt.Current_Directory>
/home/itssahil/PROJECTS/Mol_Feturizer/New_Systems/rnas/4Y1I

>  <Rbt.Executable>
rbdock ($Id: //depot/dev/client3/rdock/2013.1/src/exe/rbdock.cxx#4 $)

>  <Rbt.Library>
libRbt.so (2013.1, Build901 2013/11/27)

>  <Rbt.Parameter_File>
/export/apps/rDock/src/rDock_2013.1_src/data/scripts/dock_solv.prm

>  <Rbt.Receptor>
prm/blind_docking_60.prm

>  <SCORE>
-6.61434

>  <SCORE.INTER>
-5.38256

>  <SCORE.INTER.CONST>
1

>  <SCORE.INTER.POLAR>
0

>  <SCORE.INTER.ROT>
8

>  <SCORE.INTER.SOLV>
11.2917

>  <SCORE.INTER.VDW>
-16.2856

>  <SCORE.INTER.norm>
-0.168205

>  <SCORE.INTRA>
-1.23178

>  <SCORE.INTRA.DIHEDRAL>
-1.17479

>  <SCORE.INTRA.DIHEDRAL.0>
10.9594

>  <SCORE.INTRA.POLAR>
0

>  <SCORE.INTRA.POLAR.0>
0

>  <SCORE.INTRA.REPUL>
0

>  <SCORE.INTRA.REPUL.0>
0

>  <SCORE.INTRA.SOLV>
4.70879

>  <SCORE.INTRA.SOLV.lig_0>
-124.914

>  <SCORE.INTRA.VDW>
-2.99878

>  <SCORE.INTRA.VDW.0>
-4.69801

>  <SCORE.INTRA.norm>
-0.0384931

>  <SCORE.RESTR>
0

>  <SCORE.RESTR.CAVITY>
0

>  <SCORE.RESTR.norm>
0

>  <SCORE.SYSTEM>
0

>  <SCORE.SYSTEM.CONST>
0

>  <SCORE.SYSTEM.DIHEDRAL>
0

>  <SCORE.SYSTEM.SOLV>
0

>  <SCORE.SYSTEM.norm>
0

>  <SCORE.heavy>
32

>  <SCORE.norm>
-0.206698

>  <RMSD>
50.994

$$$$
ligand
 OpenBabel11021811513D
libRbt.so/2013.1/901 2013/11/27
 32 34  0  0  0  0  0  0  0  0999 V2000
   35.2492  -25.3928   32.4753 P   0  0  1  0  0  0  0  0  0  0  0  0
   35.1339  -28.1130   31.5707 P   0  0  2  0  0  0  0  0  0  0  0  0
   34.9620  -30.2604   33.5643 P   0  0  1  0  0  0  0  0  0  0  0  0
   35.8147  -23.7228   30.5562 C   0  0  0  0  0  0  0  0  0  0  0  0
   36.0120  -25.0103   31.0674 O   0  0  0  0  0  0  0  0  0  0  0  0
   36.8462  -23.4082   29.6785 C   0  0  1  0  0  0  0  0  0  0  0  0
   36.4540  -23.7877   28.2636 O   0  0  0  0  0  0  0  0  0  0  0  0
   37.1249  -21.8355   29.6480 C   0  0  1  0  0  0  0  0  0  0  0  0
   38.5088  -21.5595   30.1912 O   0  0  0  0  0  0  0  0  0  0  0  0
   37.1276  -21.5126   28.4576 C   0  0  1  0  0  0  0  0  0  0  0  0
   38.5243  -21.4732   27.9621 O   0  0  0  0  0  0  0  0  0  0  0  0
   36.2686  -22.6879   27.6483 C   0  0  2  0  0  0  0  0  0  0  0  0
   32.0251  -22.4022   24.7680 N   0  0  0  0  0  0  0  0  0  0  0  0
   35.8768  -24.6356   33.6192 O   0  5  0  0  0  0  0  0  0  0  0  0
   36.4222  -28.5130   30.8965 O   0  5  0  0  0  0  0  0  0  0  0  0
   33.9688  -31.3567   33.8707 O   0  0  0  0  0  0  0  0  0  0  0  0
   33.2436  -22.7621   24.3959 C   0  0  0  0  0  0  0  0  0  0  0  0
   33.4847  -23.1359   23.0169 N   0  0  0  0  0  0  0  0  0  0  0  0
   33.7823  -25.0515   32.3409 O   0  0  0  0  0  0  0  0  0  0  0  0
   34.2038  -27.4990   30.5574 O   0  0  0  0  0  0  0  0  0  0  0  0
   36.3084  -30.8817   33.2628 O   0  5  0  0  0  0  0  0  0  0  0  0
   34.2526  -22.7925   25.2424 N   0  0  0  0  0  0  0  0  0  0  0  0
   35.4265  -27.0036   32.7447 O   0  0  0  0  0  0  0  0  0  0  0  0
   34.4200  -29.4355   32.2395 O   0  0  0  0  0  0  0  0  0  0  0  0
   35.0639  -29.3390   34.7601 O   0  0  0  0  0  0  0  0  0  0  0  0
   34.0724  -22.4545   26.5249 C   0  0  0  0  0  0  0  0  0  0  0  0
   32.8117  -22.0748   26.9391 C   0  0  0  0  0  0  0  0  0  0  0  0
   31.7478  -22.0505   26.0167 C   0  0  0  0  0  0  0  0  0  0  0  0
   30.4527  -21.6688   26.4091 O   0  0  0  0  0  0  0  0  0  0  0  0
   32.8851  -21.7874   28.2499 N   0  0  0  0  0  0  0  0  0  0  0  0
   34.1362  -21.9802   28.6298 C   0  0  0  0  0  0  0  0  0  0  0  0
   34.8660  -22.3793   27.6048 N   0  0  0  0  0  0  0  0  0  0  0  0
  1  5  1  6  0  0  0
  1 14  1  0  0  0  0
  1 19  2  0  0  0  0
  1 23  1  0  0  0  0
  2 15  1  6  0  0  0
  2 20  2  0  0  0  0
  2 23  1  0  0  0  0
  2 24  1  0  0  0  0
  3 16  1  1  0  0  0
  3 21  1  0  0  0  0
  3 24  1  0  0  0  0
  3 25  2  0  0  0  0
  4  5  1  0  0  0  0
  6  4  1  1  0  0  0
  6  7  1  0  0  0  0
  6  8  1  0  0  0  0
  7 12  1  0  0  0  0
  8  9  1  6  0  0  0
  8 10  1  0  0  0  0
 10 11  1  6  0  0  0
 10 12  1  0  0  0  0
 12 32  1  1  0  0  0
 13 17  2  0  0  0  0
 13 28  1  0  0  0  0
 17 18  1  0  0  0  0
 17 22  1  0  0  0  0
 22 26  2  0  0  0  0
 26 27  1  0  0  0  0
 26 32  1  0  0  0  0
 27 28  2  0  0  0  0
 27 30  1  0  0  0  0
 28 29  1  0  0  0  0
 30 31  2  0  0  0  0
 31 32  1  0  0  0  0
M  CHG  3  14  -1  15  -1  21  -1
M  END
>  <CHROM.1>
-70.23128334,96.95149063,177.13660875,92.15685830,159.23498198,-107.21270662
-48.01442062,70.65459573,34.98441498,-25.10176180,29.93978986,-1.43647237
-0.65055397,-0.67953049

>  <Name>
ligand

>  <RI>
0

>  <Rbt.Current_Directory>
/home/itssahil/PROJECTS/Mol_Feturizer/New_Systems/rnas/4Y1I

>  <Rbt.Executable>
rbdock ($Id: //depot/dev/client3/rdock/2013.1/src/exe/rbdock.cxx#4 $)

>  <Rbt.Library>
libRbt.so (2013.1, Build901 2013/11/27)

>  <Rbt.Parameter_File>
/export/apps/rDock/src/rDock_2013.1_src/data/scripts/dock_solv.prm

>  <Rbt.Receptor>
prm/blind_docking_60.prm

>  <SCORE>
-9.26826

>  <SCORE.INTER>
-6.23664

>  <SCORE.INTER.CONST>
1

>  <SCORE.INTER.POLAR>
0

>  <SCORE.INTER.ROT>
8

>  <SCORE.INTER.SOLV>
21.6143

>  <SCORE.INTER.VDW>
-20.2959

>  <SCORE.INTER.norm>
-0.194895

>  <SCORE.INTRA>
-3.03162

>  <SCORE.INTRA.DIHEDRAL>
-2.69289

>  <SCORE.INTRA.DIHEDRAL.0>
10.9594

>  <SCORE.INTRA.POLAR>
0

>  <SCORE.INTRA.POLAR.0>
0

>  <SCORE.INTRA.REPUL>
0

>  <SCORE.INTRA.REPUL.0>
0

>  <SCORE.INTRA.SOLV>
-4.07602

>  <SCORE.INTRA.SOLV.lig_0>
-124.914

>  <SCORE.INTRA.VDW>
0.352829

>  <SCORE.INTRA.VDW.0>
-4.69801

>  <SCORE.INTRA.norm>
-0.0947382

>  <SCORE.RESTR>
0

>  <SCORE.RESTR.CAVITY>
0

>  <SCORE.RESTR.norm>
0

>  <SCORE.SYSTEM>
0

>  <SCORE.SYSTEM.CONST>
0

>  <SCORE.SYSTEM.DIHEDRAL>
0

>  <SCORE.SYSTEM.SOLV>
0

>  <SCORE.SYSTEM.norm>
0

>  <SCORE.heavy>
32

>  <SCORE.norm>
-0.289633

>  <RMSD>
51.038

$$$$
ligand
 OpenBabel11021811513D
libRbt.so/2013.1/901 2013/11/27
 32 34  0  0  0  0  0  0  0  0999 V2000
   34.7628  -24.8119   30.3740 P   0  0  1  0  0  0  0  0  0  0  0  0
   37.0718  -23.8812   31.8000 P   0  0  2  0  0  0  0  0  0  0  0  0
   39.4839  -25.5113   32.1737 P   0  0  1  0  0  0  0  0  0  0  0  0
   33.1533  -25.4355   28.4215 C   0  0  0  0  0  0  0  0  0  0  0  0
   34.0003  -24.4595   28.9581 O   0  0  0  0  0  0  0  0  0  0  0  0
   32.6964  -25.0201   27.1757 C   0  0  1  0  0  0  0  0  0  0  0  0
   32.0175  -23.6696   27.2987 O   0  0  0  0  0  0  0  0  0  0  0  0
   33.9055  -24.8100   26.1529 C   0  0  1  0  0  0  0  0  0  0  0  0
   33.7918  -25.8132   25.0273 O   0  0  0  0  0  0  0  0  0  0  0  0
   33.7465  -23.6896   25.6624 C   0  0  1  0  0  0  0  0  0  0  0  0
   33.0519  -23.8176   24.3590 O   0  0  0  0  0  0  0  0  0  0  0  0
   32.7974  -22.8365   26.7327 C   0  0  2  0  0  0  0  0  0  0  0  0
   37.4691  -21.1725   28.0714 N   0  0  0  0  0  0  0  0  0  0  0  0
   33.7780  -24.7480   31.5151 O   0  5  0  0  0  0  0  0  0  0  0  0
   36.4113  -24.2090   33.1155 O   0  5  0  0  0  0  0  0  0  0  0  0
   39.6936  -24.5210   33.2952 O   0  0  0  0  0  0  0  0  0  0  0  0
   37.1154  -21.8207   26.9726 C   0  0  0  0  0  0  0  0  0  0  0  0
   38.1207  -22.1343   25.9772 N   0  0  0  0  0  0  0  0  0  0  0  0
   35.3760  -26.1898   30.2653 O   0  0  0  0  0  0  0  0  0  0  0  0
   37.8408  -22.5924   31.9289 O   0  0  0  0  0  0  0  0  0  0  0  0
   39.3353  -26.8987   32.7591 O   0  5  0  0  0  0  0  0  0  0  0  0
   35.8715  -22.1934   26.7505 N   0  0  0  0  0  0  0  0  0  0  0  0
   35.9399  -23.6940   30.6259 O   0  0  0  0  0  0  0  0  0  0  0  0
   38.0999  -25.0927   31.3745 O   0  0  0  0  0  0  0  0  0  0  0  0
   40.6739  -25.4587   31.2407 O   0  0  0  0  0  0  0  0  0  0  0  0
   34.9128  -21.9235   27.6447 C   0  0  0  0  0  0  0  0  0  0  0  0
   35.2547  -21.2490   28.7994 C   0  0  0  0  0  0  0  0  0  0  0  0
   36.5907  -20.8597   29.0151 C   0  0  0  0  0  0  0  0  0  0  0  0
   36.9692  -20.1711   30.1811 O   0  0  0  0  0  0  0  0  0  0  0  0
   34.1351  -21.0988   29.5276 N   0  0  0  0  0  0  0  0  0  0  0  0
   33.1444  -21.6562   28.8534 C   0  0  0  0  0  0  0  0  0  0  0  0
   33.5935  -22.1600   27.7191 N   0  0  0  0  0  0  0  0  0  0  0  0
  1  5  1  6  0  0  0
  1 14  1  0  0  0  0
  1 19  2  0  0  0  0
  1 23  1  0  0  0  0
  2 15  1  1  0  0  0
  2 20  2  0  0  0  0
  2 23  1  0  0  0  0
  2 24  1  0  0  0  0
  3 16  1  1  0  0  0
  3 21  1  0  0  0  0
  3 24  1  0  0  0  0
  3 25  2  0  0  0  0
  4  5  1  0  0  0  0
  6  4  1  1  0  0  0
  6  7  1  0  0  0  0
  6  8  1  0  0  0  0
  7 12  1  0  0  0  0
  8  9  1  6  0  0  0
  8 10  1  0  0  0  0
 10 11  1  6  0  0  0
 10 12  1  0  0  0  0
 12 32  1  1  0  0  0
 13 17  2  0  0  0  0
 13 28  1  0  0  0  0
 17 18  1  0  0  0  0
 17 22  1  0  0  0  0
 22 26  2  0  0  0  0
 26 27  1  0  0  0  0
 26 32  1  0  0  0  0
 27 28  2  0  0  0  0
 27 30  1  0  0  0  0
 28 29  1  0  0  0  0
 30 31  2  0  0  0  0
 31 32  1  0  0  0  0
M  CHG  3  14  -1  15  -1  21  -1
M  END
>  <CHROM.1>
-73.88799702,-50.21941866,-4.33620906,-56.03686922,-174.57729744,135.34252526
-169.04766815,-66.13376321,35.84810069,-23.74846906,29.38736868,0.61244460
0.63713279,2.52158592

>  <Name>
ligand

>  <RI>
0

>  <Rbt.Current_Directory>
/home/itssahil/PROJECTS/Mol_Feturizer/New_Systems/rnas/4Y1I

>  <Rbt.Executable>
rbdock ($Id: //depot/dev/client3/rdock/2013.1/src/exe/rbdock.cxx#4 $)

>  <Rbt.Library>
libRbt.so (2013.1, Build901 2013/11/27)

>  <Rbt.Parameter_File>
/export/apps/rDock/src/rDock_2013.1_src/data/scripts/dock_solv.prm

>  <Rbt.Receptor>
prm/blind_docking_80.prm

>  <SCORE>
-13.7497

>  <SCORE.INTER>
-7.20466

>  <SCORE.INTER.CONST>
1

>  <SCORE.INTER.POLAR>
0

>  <SCORE.INTER.ROT>
8

>  <SCORE.INTER.SOLV>
18.657

>  <SCORE.INTER.VDW>
-19.9554

>  <SCORE.INTER.norm>
-0.225146

>  <SCORE.INTRA>
-6.55677

>  <SCORE.INTRA.DIHEDRAL>
-6.495

>  <SCORE.INTRA.DIHEDRAL.0>
10.9594

>  <SCORE.INTRA.POLAR>
0

>  <SCORE.INTRA.POLAR.0>
0

>  <SCORE.INTRA.REPUL>
0

>  <SCORE.INTRA.REPUL.0>
0

>  <SCORE.INTRA.SOLV>
-2.80357

>  <SCORE.INTRA.SOLV.lig_0>
-124.914

>  <SCORE.INTRA.VDW>
-1.90748

>  <SCORE.INTRA.VDW.0>
-4.69801

>  <SCORE.INTRA.norm>
-0.204899

>  <SCORE.RESTR>
0.0117541

>  <SCORE.RESTR.CAVITY>
0.0117541

>  <SCORE.RESTR.norm>
0.000367317

>  <SCORE.SYSTEM>
0

>  <SCORE.SYSTEM.CONST>
0

>  <SCORE.SYSTEM.DIHEDRAL>
0

>  <SCORE.SYSTEM.SOLV>
0

>  <SCORE.SYSTEM.norm>
0

>  <SCORE.heavy>
32

>  <SCORE.norm>
-0.429677

>  <RMSD>
51.085

$$$$
ligand
 OpenBabel11021811513D
libRbt.so/2013.1/901 2013/11/27
 32 34  0  0  0  0  0  0  0  0999 V2000
   34.5735  -22.0694   28.0968 P   0  0  1  0  0  0  0  0  0  0  0  0
   34.4824  -22.5575   25.2711 P   0  0  2  0  0  0  0  0  0  0  0  0
   34.1320  -22.2507   22.3731 P   0  0  1  0  0  0  0  0  0  0  0  0
   34.9929  -24.2372   29.4811 C   0  0  0  0  0  0  0  0  0  0  0  0
   34.6843  -23.7070   28.2235 O   0  0  0  0  0  0  0  0  0  0  0  0
   34.9685  -25.6260   29.4187 C   0  0  1  0  0  0  0  0  0  0  0  0
   36.1478  -26.1272   28.6076 O   0  0  0  0  0  0  0  0  0  0  0  0
   35.1275  -26.2765   30.8691 C   0  0  1  0  0  0  0  0  0  0  0  0
   33.8597  -27.0175   31.2295 O   0  0  0  0  0  0  0  0  0  0  0  0
   36.0264  -27.1152   30.7700 C   0  0  1  0  0  0  0  0  0  0  0  0
   35.4277  -28.4545   30.5565 O   0  0  0  0  0  0  0  0  0  0  0  0
   36.9345  -26.6788   29.4438 C   0  0  2  0  0  0  0  0  0  0  0  0
   40.6187  -25.4969   32.8224 N   0  0  0  0  0  0  0  0  0  0  0  0
   33.5933  -21.5427   29.1156 O   0  5  0  0  0  0  0  0  0  0  0  0
   33.7195  -23.8566   25.2041 O   0  5  0  0  0  0  0  0  0  0  0  0
   34.6414  -21.1710   21.4473 O   0  0  0  0  0  0  0  0  0  0  0  0
   39.7763  -26.5176   32.8545 C   0  0  0  0  0  0  0  0  0  0  0  0
   39.8441  -27.4615   33.9518 N   0  0  0  0  0  0  0  0  0  0  0  0
   35.9464  -21.4720   28.3080 O   0  0  0  0  0  0  0  0  0  0  0  0
   35.9576  -22.8436   25.3753 O   0  0  0  0  0  0  0  0  0  0  0  0
   35.0228  -23.4678   22.2524 O   0  5  0  0  0  0  0  0  0  0  0  0
   38.8712  -26.7068   31.9161 N   0  0  0  0  0  0  0  0  0  0  0  0
   34.0268  -21.6974   26.5930 O   0  0  0  0  0  0  0  0  0  0  0  0
   34.1907  -21.6685   23.9182 O   0  0  0  0  0  0  0  0  0  0  0  0
   32.7105  -22.5990   21.9893 O   0  0  0  0  0  0  0  0  0  0  0  0
   38.7751  -25.8581   30.8856 C   0  0  0  0  0  0  0  0  0  0  0  0
   39.6412  -24.7850   30.8281 C   0  0  0  0  0  0  0  0  0  0  0  0
   40.6013  -24.6031   31.8422 C   0  0  0  0  0  0  0  0  0  0  0  0
   41.4973  -23.5200   31.8107 O   0  0  0  0  0  0  0  0  0  0  0  0
   39.3508  -24.0888   29.7158 N   0  0  0  0  0  0  0  0  0  0  0  0
   38.3489  -24.7038   29.1120 C   0  0  0  0  0  0  0  0  0  0  0  0
   37.9872  -25.7690   29.8024 N   0  0  0  0  0  0  0  0  0  0  0  0
  1  5  1  1  0  0  0
  1 14  1  0  0  0  0
  1 19  2  0  0  0  0
  1 23  1  0  0  0  0
  2 15  1  6  0  0  0
  2 20  2  0  0  0  0
  2 23  1  0  0  0  0
  2 24  1  0  0  0  0
  3 16  1  6  0  0  0
  3 21  1  0  0  0  0
  3 24  1  0  0  0  0
  3 25  2  0  0  0  0
  4  5  1  0  0  0  0
  6  4  1  1  0  0  0
  6  7  1  0  0  0  0
  6  8  1  0  0  0  0
  7 12  1  0  0  0  0
  8  9  1  6  0  0  0
  8 10  1  0  0  0  0
 10 11  1  6  0  0  0
 10 12  1  0  0  0  0
 12 32  1  1  0  0  0
 13 17  2  0  0  0  0
 13 28  1  0  0  0  0
 17 18  1  0  0  0  0
 17 22  1  0  0  0  0
 22 26  2  0  0  0  0
 26 27  1  0  0  0  0
 26 32  1  0  0  0  0
 27 28  2  0  0  0  0
 27 30  1  0  0  0  0
 28 29  1  0  0  0  0
 30 31  2  0  0  0  0
 31 32  1  0  0  0  0
M  CHG  3  14  -1  15  -1  21  -1
M  END
>  <CHROM.1>
-54.26245463,77.81239019,-147.36969460,70.36331753,176.57638565,161.37152879
-36.83835755,-42.59880010,36.12236562,-24.14089134,28.07644244,2.09285511
-0.38911085,-0.91788798

>  <Name>
ligand

>  <RI>
0

>  <Rbt.Current_Directory>
/home/itssahil/PROJECTS/Mol_Feturizer/New_Systems/rnas/4Y1I

>  <Rbt.Executable>
rbdock ($Id: //depot/dev/client3/rdock/2013.1/src/exe/rbdock.cxx#4 $)

>  <Rbt.Library>
libRbt.so (2013.1, Build901 2013/11/27)

>  <Rbt.Parameter_File>
/export/apps/rDock/src/rDock_2013.1_src/data/scripts/dock_solv.prm

>  <Rbt.Receptor>
prm/blind_docking_60.prm

>  <SCORE>
-6.56026

>  <SCORE.INTER>
-2.12669

>  <SCORE.INTER.CONST>
1

>  <SCORE.INTER.POLAR>
0

>  <SCORE.INTER.ROT>
8

>  <SCORE.INTER.SOLV>
16.9025

>  <SCORE.INTER.VDW>
-15.9853

>  <SCORE.INTER.norm>
-0.0664591

>  <SCORE.INTRA>
-4.43357

>  <SCORE.INTRA.DIHEDRAL>
-6.15894

>  <SCORE.INTRA.DIHEDRAL.0>
10.9594

>  <SCORE.INTRA.POLAR>
0

>  <SCORE.INTRA.POLAR.0>
0

>  <SCORE.INTRA.REPUL>
0

>  <SCORE.INTRA.REPUL.0>
0

>  <SCORE.INTRA.SOLV>
-2.97054

>  <SCORE.INTRA.SOLV.lig_0>
-124.914

>  <SCORE.INTRA.VDW>
0.131174

>  <SCORE.INTRA.VDW.0>
-4.69801

>  <SCORE.INTRA.norm>
-0.138549

>  <SCORE.RESTR>
0

>  <SCORE.RESTR.CAVITY>
0

>  <SCORE.RESTR.norm>
0

>  <SCORE.SYSTEM>
0

>  <SCORE.SYSTEM.CONST>
0

>  <SCORE.SYSTEM.DIHEDRAL>
0

>  <SCORE.SYSTEM.SOLV>
0

>  <SCORE.SYSTEM.norm>
0

>  <SCORE.heavy>
32

>  <SCORE.norm>
-0.205008

>  <RMSD>
51.096

$$$$
ligand
 OpenBabel11021811513D
libRbt.so/2013.1/901 2013/11/27
 32 34  0  0  0  0  0  0  0  0999 V2000
   34.8815  -25.9174   31.4138 P   0  0  1  0  0  0  0  0  0  0  0  0
   35.0273  -28.6557   32.2574 P   0  0  2  0  0  0  0  0  0  0  0  0
   35.6415  -29.1487   35.0850 P   0  0  1  0  0  0  0  0  0  0  0  0
   36.1090  -25.7725   29.1196 C   0  0  0  0  0  0  0  0  0  0  0  0
   36.1993  -26.1667   30.4592 O   0  0  0  0  0  0  0  0  0  0  0  0
   37.3290  -25.9884   28.4885 C   0  0  1  0  0  0  0  0  0  0  0  0
   37.1925  -25.7336   26.9997 O   0  0  0  0  0  0  0  0  0  0  0  0
   38.4413  -24.9655   29.0068 C   0  0  1  0  0  0  0  0  0  0  0  0
   39.5295  -25.7287   29.7275 O   0  0  0  0  0  0  0  0  0  0  0  0
   38.9478  -24.4717   27.9964 C   0  0  1  0  0  0  0  0  0  0  0  0
   40.1942  -25.2024   27.6640 O   0  0  0  0  0  0  0  0  0  0  0  0
   37.8344  -24.6573   26.7717 C   0  0  2  0  0  0  0  0  0  0  0  0
   33.2172  -22.9634   25.2892 N   0  0  0  0  0  0  0  0  0  0  0  0
   34.9635  -24.5531   32.0528 O   0  5  0  0  0  0  0  0  0  0  0  0
   36.3587  -28.9224   31.6013 O   0  5  0  0  0  0  0  0  0  0  0  0
   34.7801  -28.1346   35.8005 O   0  0  0  0  0  0  0  0  0  0  0  0
   33.7300  -24.1750   25.1419 C   0  0  0  0  0  0  0  0  0  0  0  0
   32.9465  -25.2044   24.4892 N   0  0  0  0  0  0  0  0  0  0  0  0
   33.6364  -26.0433   30.5653 O   0  0  0  0  0  0  0  0  0  0  0  0
   33.9154  -29.0550   31.3231 O   0  0  0  0  0  0  0  0  0  0  0  0
   35.7542  -30.3932   35.9383 O   0  5  0  0  0  0  0  0  0  0  0  0
   34.9375  -24.4801   25.5716 N   0  0  0  0  0  0  0  0  0  0  0  0
   34.8701  -27.0573   32.5967 O   0  0  0  0  0  0  0  0  0  0  0  0
   34.9090  -29.5207   33.6516 O   0  0  0  0  0  0  0  0  0  0  0  0
   37.0102  -28.5505   34.8437 O   0  0  0  0  0  0  0  0  0  0  0  0
   35.6939  -23.5583   26.1796 C   0  0  0  0  0  0  0  0  0  0  0  0
   35.1834  -22.2867   26.3455 C   0  0  0  0  0  0  0  0  0  0  0  0
   33.8898  -21.9837   25.8789 C   0  0  0  0  0  0  0  0  0  0  0  0
   33.3425  -20.6978   26.0340 O   0  0  0  0  0  0  0  0  0  0  0  0
   36.1182  -21.5534   26.9736 N   0  0  0  0  0  0  0  0  0  0  0  0
   37.1614  -22.3365   27.1863 C   0  0  0  0  0  0  0  0  0  0  0  0
   36.9256  -23.5460   26.7131 N   0  0  0  0  0  0  0  0  0  0  0  0
  1  5  1  6  0  0  0
  1 14  1  0  0  0  0
  1 19  2  0  0  0  0
  1 23  1  0  0  0  0
  2 15  1  6  0  0  0
  2 20  2  0  0  0  0
  2 23  1  0  0  0  0
  2 24  1  0  0  0  0
  3 16  1  1  0  0  0
  3 21  1  0  0  0  0
  3 24  1  0  0  0  0
  3 25  2  0  0  0  0
  4  5  1  0  0  0  0
  6  4  1  1  0  0  0
  6  7  1  0  0  0  0
  6  8  1  0  0  0  0
  7 12  1  0  0  0  0
  8  9  1  6  0  0  0
  8 10  1  0  0  0  0
 10 11  1  6  0  0  0
 10 12  1  0  0  0  0
 12 32  1  1  0  0  0
 13 17  2  0  0  0  0
 13 28  1  0  0  0  0
 17 18  1  0  0  0  0
 17 22  1  0  0  0  0
 22 26  2  0  0  0  0
 26 27  1  0  0  0  0
 26 32  1  0  0  0  0
 27 28  2  0  0  0  0
 27 30  1  0  0  0  0
 28 29  1  0  0  0  0
 30 31  2  0  0  0  0
 31 32  1  0  0  0  0
M  CHG  3  14  -1  15  -1  21  -1
M  END
>  <CHROM.1>
-89.86323230,61.62168321,83.18683644,172.76237305,176.72199383,-37.68191492
-50.63992064,76.92591338,35.76872564,-25.90542571,29.88541693,1.57268530
-0.04254475,2.18333809

>  <Name>
ligand

>  <RI>
0

>  <Rbt.Current_Directory>
/home/itssahil/PROJECTS/Mol_Feturizer/New_Systems/rnas/4Y1I

>  <Rbt.Executable>
rbdock ($Id: //depot/dev/client3/rdock/2013.1/src/exe/rbdock.cxx#4 $)

>  <Rbt.Library>
libRbt.so (2013.1, Build901 2013/11/27)

>  <Rbt.Parameter_File>
/export/apps/rDock/src/rDock_2013.1_src/data/scripts/dock_solv.prm

>  <Rbt.Receptor>
prm/blind_docking_100.prm

>  <SCORE>
-8.63084

>  <SCORE.INTER>
-3.20015

>  <SCORE.INTER.CONST>
1

>  <SCORE.INTER.POLAR>
0

>  <SCORE.INTER.ROT>
8

>  <SCORE.INTER.SOLV>
20.1073

>  <SCORE.INTER.VDW>
-17.7692

>  <SCORE.INTER.norm>
-0.100005

>  <SCORE.INTRA>
-5.43072

>  <SCORE.INTRA.DIHEDRAL>
-7.01251

>  <SCORE.INTRA.DIHEDRAL.0>
10.9594

>  <SCORE.INTRA.POLAR>
0

>  <SCORE.INTRA.POLAR.0>
0

>  <SCORE.INTRA.REPUL>
0

>  <SCORE.INTRA.REPUL.0>
0

>  <SCORE.INTRA.SOLV>
-4.46569

>  <SCORE.INTRA.SOLV.lig_0>
-124.914

>  <SCORE.INTRA.VDW>
0.308376

>  <SCORE.INTRA.VDW.0>
-4.69801

>  <SCORE.INTRA.norm>
-0.16971

>  <SCORE.RESTR>
3.1664e-05

>  <SCORE.RESTR.CAVITY>
3.1664e-05

>  <SCORE.RESTR.norm>
9.89499e-07

>  <SCORE.SYSTEM>
0

>  <SCORE.SYSTEM.CONST>
0

>  <SCORE.SYSTEM.DIHEDRAL>
0

>  <SCORE.SYSTEM.SOLV>
0

>  <SCORE.SYSTEM.norm>
0

>  <SCORE.heavy>
32

>  <SCORE.norm>
-0.269714

>  <RMSD>
51.242

$$$$
ligand
 OpenBabel11021811513D
libRbt.so/2013.1/901 2013/11/27
 32 34  0  0  0  0  0  0  0  0999 V2000
   34.8481  -26.0913   30.3821 P   0  0  1  0  0  0  0  0  0  0  0  0
   36.0354  -24.5015   32.4542 P   0  0  2  0  0  0  0  0  0  0  0  0
   38.7086  -23.3372   32.1174 P   0  0  1  0  0  0  0  0  0  0  0  0
   34.2173  -24.3515   28.5473 C   0  0  0  0  0  0  0  0  0  0  0  0
   33.7952  -25.0268   29.6978 O   0  0  0  0  0  0  0  0  0  0  0  0
   33.3645  -23.2822   28.2968 C   0  0  1  0  0  0  0  0  0  0  0  0
   33.6714  -22.1429   29.2495 O   0  0  0  0  0  0  0  0  0  0  0  0
   33.5841  -22.6946   26.8276 C   0  0  1  0  0  0  0  0  0  0  0  0
   32.3336  -22.9140   26.0063 O   0  0  0  0  0  0  0  0  0  0  0  0
   33.7233  -21.4768   26.9646 C   0  0  1  0  0  0  0  0  0  0  0  0
   32.4251  -20.8033   26.7225 O   0  0  0  0  0  0  0  0  0  0  0  0
   34.2078  -21.2317   28.5392 C   0  0  2  0  0  0  0  0  0  0  0  0
   38.6134  -23.0681   26.6408 N   0  0  0  0  0  0  0  0  0  0  0  0
   34.1677  -26.8330   31.5059 O   0  5  0  0  0  0  0  0  0  0  0  0
   36.3608  -25.4746   33.5594 O   0  5  0  0  0  0  0  0  0  0  0  0
   38.8383  -23.5342   30.6252 O   0  0  0  0  0  0  0  0  0  0  0  0
   37.3833  -23.2704   26.1952 C   0  0  0  0  0  0  0  0  0  0  0  0
   37.1778  -24.1047   25.0284 N   0  0  0  0  0  0  0  0  0  0  0  0
   35.3315  -27.0490   29.3165 O   0  0  0  0  0  0  0  0  0  0  0  0
   34.6361  -23.9761   32.6405 O   0  0  0  0  0  0  0  0  0  0  0  0
   39.3931  -22.0454   32.5079 O   0  5  0  0  0  0  0  0  0  0  0  0
   36.3310  -22.7355   26.7801 N   0  0  0  0  0  0  0  0  0  0  0  0
   36.1183  -25.2489   30.9951 O   0  0  0  0  0  0  0  0  0  0  0  0
   37.1000  -23.2478   32.4831 O   0  0  0  0  0  0  0  0  0  0  0  0
   39.3515  -24.5086   32.8271 O   0  0  0  0  0  0  0  0  0  0  0  0
   36.4772  -21.9589   27.8605 C   0  0  0  0  0  0  0  0  0  0  0  0
   37.7492  -21.7321   28.3461 C   0  0  0  0  0  0  0  0  0  0  0  0
   38.8594  -22.3137   27.7040 C   0  0  0  0  0  0  0  0  0  0  0  0
   40.1669  -22.1005   28.1750 O   0  0  0  0  0  0  0  0  0  0  0  0
   37.6362  -20.9331   29.4208 N   0  0  0  0  0  0  0  0  0  0  0  0
   36.3510  -20.6774   29.5929 C   0  0  0  0  0  0  0  0  0  0  0  0
   35.6379  -21.2882   28.6651 N   0  0  0  0  0  0  0  0  0  0  0  0
  1  5  1  6  0  0  0
  1 14  1  0  0  0  0
  1 19  2  0  0  0  0
  1 23  1  0  0  0  0
  2 15  1  1  0  0  0
  2 20  2  0  0  0  0
  2 23  1  0  0  0  0
  2 24  1  0  0  0  0
  3 16  1  6  0  0  0
  3 21  1  0  0  0  0
  3 24  1  0  0  0  0
  3 25  2  0  0  0  0
  4  5  1  0  0  0  0
  6  4  1  1  0  0  0
  6  7  1  0  0  0  0
  6  8  1  0  0  0  0
  7 12  1  0  0  0  0
  8  9  1  6  0  0  0
  8 10  1  0  0  0  0
 10 11  1  1  0  0  0
 10 12  1  0  0  0  0
 12 32  1  6  0  0  0
 13 17  2  0  0  0  0
 13 28  1  0  0  0  0
 17 18  1  0  0  0  0
 17 22  1  0  0  0  0
 22 26  2  0  0  0  0
 26 27  1  0  0  0  0
 26 32  1  0  0  0  0
 27 28  2  0  0  0  0
 27 30  1  0  0  0  0
 28 29  1  0  0  0  0
 30 31  2  0  0  0  0
 31 32  1  0  0  0  0
M  CHG  3  14  -1  15  -1  21  -1
M  END
>  <CHROM.1>
-173.51657472,84.75028940,71.70105115,76.51239442,-165.66941541,92.90493562
81.10868847,68.36632800,36.11324019,-23.45633994,29.60965321,1.04943492,0.35630028
2.11695737

>  <Name>
ligand

>  <RI>
0

>  <Rbt.Current_Directory>
/home/itssahil/PROJECTS/Mol_Feturizer/New_Systems/rnas/4Y1I

>  <Rbt.Executable>
rbdock ($Id: //depot/dev/client3/rdock/2013.1/src/exe/rbdock.cxx#4 $)

>  <Rbt.Library>
libRbt.so (2013.1, Build901 2013/11/27)

>  <Rbt.Parameter_File>
/export/apps/rDock/src/rDock_2013.1_src/data/scripts/dock_solv.prm

>  <Rbt.Receptor>
prm/blind_docking_80.prm

>  <SCORE>
-12.1897

>  <SCORE.INTER>
-5.68304

>  <SCORE.INTER.CONST>
1

>  <SCORE.INTER.POLAR>
0

>  <SCORE.INTER.ROT>
8

>  <SCORE.INTER.SOLV>
18.5559

>  <SCORE.INTER.VDW>
-18.9073

>  <SCORE.INTER.norm>
-0.177595

>  <SCORE.INTRA>
-6.52144

>  <SCORE.INTRA.DIHEDRAL>
-5.87061

>  <SCORE.INTRA.DIHEDRAL.0>
10.9594

>  <SCORE.INTRA.POLAR>
0

>  <SCORE.INTRA.POLAR.0>
0

>  <SCORE.INTRA.REPUL>
0

>  <SCORE.INTRA.REPUL.0>
0

>  <SCORE.INTRA.SOLV>
-3.67432

>  <SCORE.INTRA.SOLV.lig_0>
-124.914

>  <SCORE.INTRA.VDW>
-1.74897

>  <SCORE.INTRA.VDW.0>
-4.69801

>  <SCORE.INTRA.norm>
-0.203795

>  <SCORE.RESTR>
0.0147961

>  <SCORE.RESTR.CAVITY>
0.0147961

>  <SCORE.RESTR.norm>
0.000462377

>  <SCORE.SYSTEM>
0

>  <SCORE.SYSTEM.CONST>
0

>  <SCORE.SYSTEM.DIHEDRAL>
0

>  <SCORE.SYSTEM.SOLV>
0

>  <SCORE.SYSTEM.norm>
0

>  <SCORE.heavy>
32

>  <SCORE.norm>
-0.380928

>  <RMSD>
51.479

$$$$
ligand
 OpenBabel11021811513D
libRbt.so/2013.1/901 2013/11/27
 32 34  0  0  0  0  0  0  0  0999 V2000
   34.8762  -25.4335   31.4771 P   0  0  1  0  0  0  0  0  0  0  0  0
   37.1711  -27.1531   31.5647 P   0  0  2  0  0  0  0  0  0  0  0  0
   38.9054  -26.9922   33.9273 P   0  0  1  0  0  0  0  0  0  0  0  0
   33.7074  -25.4057   29.1480 C   0  0  0  0  0  0  0  0  0  0  0  0
   33.9694  -24.6901   30.3216 O   0  0  0  0  0  0  0  0  0  0  0  0
   33.1081  -24.5660   28.2158 C   0  0  1  0  0  0  0  0  0  0  0  0
   34.1168  -23.5529   27.7098 O   0  0  0  0  0  0  0  0  0  0  0  0
   32.6214  -25.3784   26.9292 C   0  0  1  0  0  0  0  0  0  0  0  0
   31.1133  -25.3199   26.8385 O   0  0  0  0  0  0  0  0  0  0  0  0
   33.0709  -24.7727   25.9533 C   0  0  1  0  0  0  0  0  0  0  0  0
   32.0281  -23.8675   25.4136 O   0  0  0  0  0  0  0  0  0  0  0  0
   34.3668  -23.8841   26.5055 C   0  0  2  0  0  0  0  0  0  0  0  0
   39.1072  -24.5322   28.3746 N   0  0  0  0  0  0  0  0  0  0  0  0
   35.3638  -24.4156   32.4782 O   0  5  0  0  0  0  0  0  0  0  0  0
   38.1941  -27.7417   30.6259 O   0  5  0  0  0  0  0  0  0  0  0  0
   39.8591  -27.9442   33.2443 O   0  0  0  0  0  0  0  0  0  0  0  0
   38.2055  -23.6291   28.7267 C   0  0  0  0  0  0  0  0  0  0  0  0
   38.5271  -22.6699   29.7641 N   0  0  0  0  0  0  0  0  0  0  0  0
   34.0322  -26.4925   32.1499 O   0  0  0  0  0  0  0  0  0  0  0  0
   36.3364  -28.2577   32.1581 O   0  0  0  0  0  0  0  0  0  0  0  0
   39.6995  -25.9003   34.6104 O   0  5  0  0  0  0  0  0  0  0  0  0
   37.0164  -23.5716   28.1625 N   0  0  0  0  0  0  0  0  0  0  0  0
   36.1759  -26.1304   30.7533 O   0  0  0  0  0  0  0  0  0  0  0  0
   37.9287  -26.3302   32.7708 O   0  0  0  0  0  0  0  0  0  0  0  0
   38.0851  -27.7590   34.9414 O   0  0  0  0  0  0  0  0  0  0  0  0
   36.6797  -24.4390   27.2003 C   0  0  0  0  0  0  0  0  0  0  0  0
   37.6017  -25.3906   26.8139 C   0  0  0  0  0  0  0  0  0  0  0  0
   38.8665  -25.4337   27.4316 C   0  0  0  0  0  0  0  0  0  0  0  0
   39.8261  -26.3917   27.0598 O   0  0  0  0  0  0  0  0  0  0  0  0
   37.0366  -26.1333   25.8468 N   0  0  0  0  0  0  0  0  0  0  0  0
   35.8189  -25.6616   25.6434 C   0  0  0  0  0  0  0  0  0  0  0  0
   35.5871  -24.6403   26.4468 N   0  0  0  0  0  0  0  0  0  0  0  0
  1  5  1  6  0  0  0
  1 14  1  0  0  0  0
  1 19  2  0  0  0  0
  1 23  1  0  0  0  0
  2 15  1  6  0  0  0
  2 20  2  0  0  0  0
  2 23  1  0  0  0  0
  2 24  1  0  0  0  0
  3 16  1  6  0  0  0
  3 21  1  0  0  0  0
  3 24  1  0  0  0  0
  3 25  2  0  0  0  0
  4  5  1  0  0  0  0
  6  4  1  1  0  0  0
  6  7  1  0  0  0  0
  6  8  1  0  0  0  0
  7 12  1  0  0  0  0
  8  9  1  6  0  0  0
  8 10  1  0  0  0  0
 10 11  1  1  0  0  0
 10 12  1  0  0  0  0
 12 32  1  1  0  0  0
 13 17  2  0  0  0  0
 13 28  1  0  0  0  0
 17 18  1  0  0  0  0
 17 22  1  0  0  0  0
 22 26  2  0  0  0  0
 26 27  1  0  0  0  0
 26 32  1  0  0  0  0
 27 28  2  0  0  0  0
 27 30  1  0  0  0  0
 28 29  1  0  0  0  0
 30 31  2  0  0  0  0
 31 32  1  0  0  0  0
M  CHG  3  14  -1  15  -1  21  -1
M  END
>  <CHROM.1>
164.83723747,174.58839918,45.88122547,70.20250948,-171.25623688,-36.31896122
-170.36474832,-65.18644858,36.29224658,-25.60859360,29.78488222,1.00541453
-0.08346165,1.85799306

>  <Name>
ligand

>  <RI>
0

>  <Rbt.Current_Directory>
/home/itssahil/PROJECTS/Mol_Feturizer/New_Systems/rnas/4Y1I

>  <Rbt.Executable>
rbdock ($Id: //depot/dev/client3/rdock/2013.1/src/exe/rbdock.cxx#4 $)

>  <Rbt.Library>
libRbt.so (2013.1, Build901 2013/11/27)

>  <Rbt.Parameter_File>
/export/apps/rDock/src/rDock_2013.1_src/data/scripts/dock_solv.prm

>  <Rbt.Receptor>
prm/blind_docking_60.prm

>  <SCORE>
-11.4592

>  <SCORE.INTER>
-4.16815

>  <SCORE.INTER.CONST>
1

>  <SCORE.INTER.POLAR>
0

>  <SCORE.INTER.ROT>
8

>  <SCORE.INTER.SOLV>
15.2714

>  <SCORE.INTER.VDW>
-16.8026

>  <SCORE.INTER.norm>
-0.130255

>  <SCORE.INTRA>
-7.29101

>  <SCORE.INTRA.DIHEDRAL>
-8.1032

>  <SCORE.INTRA.DIHEDRAL.0>
10.9594

>  <SCORE.INTRA.POLAR>
0

>  <SCORE.INTRA.POLAR.0>
0

>  <SCORE.INTRA.REPUL>
0

>  <SCORE.INTRA.REPUL.0>
0

>  <SCORE.INTRA.SOLV>
-4.49614

>  <SCORE.INTRA.SOLV.lig_0>
-124.914

>  <SCORE.INTRA.VDW>
-0.99134

>  <SCORE.INTRA.VDW.0>
-4.69801

>  <SCORE.INTRA.norm>
-0.227844

>  <SCORE.RESTR>
0

>  <SCORE.RESTR.CAVITY>
0

>  <SCORE.RESTR.norm>
0

>  <SCORE.SYSTEM>
0

>  <SCORE.SYSTEM.CONST>
0

>  <SCORE.SYSTEM.DIHEDRAL>
0

>  <SCORE.SYSTEM.SOLV>
0

>  <SCORE.SYSTEM.norm>
0

>  <SCORE.heavy>
32

>  <SCORE.norm>
-0.358099

>  <RMSD>
51.556

$$$$
ligand
 OpenBabel11021811513D
libRbt.so/2013.1/901 2013/11/27
 32 34  0  0  0  0  0  0  0  0999 V2000
   35.6997  -25.5736   30.7912 P   0  0  1  0  0  0  0  0  0  0  0  0
   36.6220  -26.4931   33.3476 P   0  0  2  0  0  0  0  0  0  0  0  0
   34.9401  -28.2348   35.0068 P   0  0  1  0  0  0  0  0  0  0  0  0
   34.3932  -24.4467   28.8380 C   0  0  0  0  0  0  0  0  0  0  0  0
   34.4339  -24.6927   30.2149 O   0  0  0  0  0  0  0  0  0  0  0  0
   33.4198  -23.4922   28.5651 C   0  0  1  0  0  0  0  0  0  0  0  0
   33.7056  -22.2248   29.3474 O   0  0  0  0  0  0  0  0  0  0  0  0
   33.4363  -23.0682   27.0249 C   0  0  1  0  0  0  0  0  0  0  0  0
   32.1390  -23.4906   26.3733 O   0  0  0  0  0  0  0  0  0  0  0  0
   33.4688  -21.8353   27.0110 C   0  0  1  0  0  0  0  0  0  0  0  0
   32.0936  -21.3093   26.8382 O   0  0  0  0  0  0  0  0  0  0  0  0
   34.0786  -21.3628   28.4870 C   0  0  2  0  0  0  0  0  0  0  0  0
   38.3711  -22.0697   25.7557 N   0  0  0  0  0  0  0  0  0  0  0  0
   35.7845  -26.8884   30.0563 O   0  5  0  0  0  0  0  0  0  0  0  0
   37.6971  -25.4633   33.5880 O   0  5  0  0  0  0  0  0  0  0  0  0
   34.5231  -28.2492   36.4588 O   0  0  0  0  0  0  0  0  0  0  0  0
   37.1194  -22.2868   25.3831 C   0  0  0  0  0  0  0  0  0  0  0  0
   36.8507  -22.7870   24.0500 N   0  0  0  0  0  0  0  0  0  0  0  0
   36.9695  -24.7721   30.6143 O   0  0  0  0  0  0  0  0  0  0  0  0
   37.2172  -27.6921   32.6571 O   0  0  0  0  0  0  0  0  0  0  0  0
   33.7116  -28.0634   34.1401 O   0  5  0  0  0  0  0  0  0  0  0  0
   36.1013  -22.0621   26.1885 N   0  0  0  0  0  0  0  0  0  0  0  0
   35.4447  -25.8729   32.3862 O   0  0  0  0  0  0  0  0  0  0  0  0
   35.9632  -26.9573   34.7816 O   0  0  0  0  0  0  0  0  0  0  0  0
   35.6362  -29.5381   34.6807 O   0  0  0  0  0  0  0  0  0  0  0  0
   36.3061  -21.6003   27.4280 C   0  0  0  0  0  0  0  0  0  0  0  0
   37.6018  -21.3659   27.8419 C   0  0  0  0  0  0  0  0  0  0  0  0
   38.6745  -21.6125   26.9636 C   0  0  0  0  0  0  0  0  0  0  0  0
   40.0048  -21.3828   27.3565 O   0  0  0  0  0  0  0  0  0  0  0  0
   37.5476  -20.9120   29.1058 N   0  0  0  0  0  0  0  0  0  0  0  0
   36.2746  -20.8682   29.4584 C   0  0  0  0  0  0  0  0  0  0  0  0
   35.5128  -21.2811   28.4627 N   0  0  0  0  0  0  0  0  0  0  0  0
  1  5  1  6  0  0  0
  1 14  1  0  0  0  0
  1 19  2  0  0  0  0
  1 23  1  0  0  0  0
  2 15  1  1  0  0  0
  2 20  2  0  0  0  0
  2 23  1  0  0  0  0
  2 24  1  0  0  0  0
  3 16  1  1  0  0  0
  3 21  1  0  0  0  0
  3 24  1  0  0  0  0
  3 25  2  0  0  0  0
  4  5  1  0  0  0  0
  6  4  1  6  0  0  0
  6  7  1  0  0  0  0
  6  8  1  0  0  0  0
  7 12  1  0  0  0  0
  8  9  1  6  0  0  0
  8 10  1  0  0  0  0
 10 11  1  1  0  0  0
 10 12  1  0  0  0  0
 12 32  1  6  0  0  0
 13 17  2  0  0  0  0
 13 28  1  0  0  0  0
 17 18  1  0  0  0  0
 17 22  1  0  0  0  0
 22 26  2  0  0  0  0
 26 27  1  0  0  0  0
 26 32  1  0  0  0  0
 27 28  2  0  0  0  0
 27 30  1  0  0  0  0
 28 29  1  0  0  0  0
 30 31  2  0  0  0  0
 31 32  1  0  0  0  0
M  CHG  3  14  -1  15  -1  21  -1
M  END
>  <CHROM.1>
-54.84558488,70.76980867,-176.94011060,57.20781345,-168.73348690,115.85727946
-168.91774935,-169.17557884,35.65704394,-24.41287320,30.15078357,-1.61035301
-0.11475656,-0.91332627

>  <Name>
ligand

>  <RI>
0

>  <Rbt.Current_Directory>
/home/itssahil/PROJECTS/Mol_Feturizer/New_Systems/rnas/4Y1I

>  <Rbt.Executable>
rbdock ($Id: //depot/dev/client3/rdock/2013.1/src/exe/rbdock.cxx#4 $)

>  <Rbt.Library>
libRbt.so (2013.1, Build901 2013/11/27)

>  <Rbt.Parameter_File>
/export/apps/rDock/src/rDock_2013.1_src/data/scripts/dock_solv.prm

>  <Rbt.Receptor>
prm/blind_docking_80.prm

>  <SCORE>
-10.7959

>  <SCORE.INTER>
-5.61051

>  <SCORE.INTER.CONST>
1

>  <SCORE.INTER.POLAR>
0

>  <SCORE.INTER.ROT>
8

>  <SCORE.INTER.SOLV>
12.8796

>  <SCORE.INTER.VDW>
-16.9669

>  <SCORE.INTER.norm>
-0.175329

>  <SCORE.INTRA>
-5.20372

>  <SCORE.INTRA.DIHEDRAL>
-8.45975

>  <SCORE.INTRA.DIHEDRAL.0>
10.9594

>  <SCORE.INTRA.POLAR>
0

>  <SCORE.INTRA.POLAR.0>
0

>  <SCORE.INTRA.REPUL>
0

>  <SCORE.INTRA.REPUL.0>
0

>  <SCORE.INTRA.SOLV>
-2.19204

>  <SCORE.INTRA.SOLV.lig_0>
-124.914

>  <SCORE.INTRA.VDW>
0.122179

>  <SCORE.INTRA.VDW.0>
-4.69801

>  <SCORE.INTRA.norm>
-0.162616

>  <SCORE.RESTR>
0.0183431

>  <SCORE.RESTR.CAVITY>
0.0183431

>  <SCORE.RESTR.norm>
0.000573221

>  <SCORE.SYSTEM>
0

>  <SCORE.SYSTEM.CONST>
0

>  <SCORE.SYSTEM.DIHEDRAL>
0

>  <SCORE.SYSTEM.SOLV>
0

>  <SCORE.SYSTEM.norm>
0

>  <SCORE.heavy>
32

>  <SCORE.norm>
-0.337372

>  <RMSD>
51.600

$$$$
ligand
 OpenBabel11021811513D
libRbt.so/2013.1/901 2013/11/27
 32 34  0  0  0  0  0  0  0  0999 V2000
   36.4593  -24.7346   26.1406 P   0  0  1  0  0  0  0  0  0  0  0  0
   34.9591  -22.4913   25.1669 P   0  0  2  0  0  0  0  0  0  0  0  0
   32.3659  -21.5728   26.1899 P   0  0  1  0  0  0  0  0  0  0  0  0
   35.8524  -25.6263   28.5129 C   0  0  0  0  0  0  0  0  0  0  0  0
   36.2495  -25.9646   27.2145 O   0  0  0  0  0  0  0  0  0  0  0  0
   36.9452  -25.1385   29.2208 C   0  0  1  0  0  0  0  0  0  0  0  0
   36.4887  -24.5801   30.5548 O   0  0  0  0  0  0  0  0  0  0  0  0
   37.9817  -26.3039   29.5664 C   0  0  1  0  0  0  0  0  0  0  0  0
   39.2851  -26.0481   28.8439 O   0  0  0  0  0  0  0  0  0  0  0  0
   38.2087  -26.2110   30.7752 C   0  0  1  0  0  0  0  0  0  0  0  0
   39.4572  -25.4392   30.9831 O   0  0  0  0  0  0  0  0  0  0  0  0
   36.9166  -25.3940   31.4363 C   0  0  2  0  0  0  0  0  0  0  0  0
   34.9017  -28.2749   35.1813 N   0  0  0  0  0  0  0  0  0  0  0  0
   37.6041  -23.8579   26.5843 O   0  5  0  0  0  0  0  0  0  0  0  0
   35.5798  -22.7357   23.8144 O   0  5  0  0  0  0  0  0  0  0  0  0
   32.5320  -22.4923   27.3770 O   0  0  0  0  0  0  0  0  0  0  0  0
   35.9882  -27.5198   35.2249 C   0  0  0  0  0  0  0  0  0  0  0  0
   36.7562  -27.4487   36.4516 N   0  0  0  0  0  0  0  0  0  0  0  0
   36.7273  -25.3236   24.7740 O   0  0  0  0  0  0  0  0  0  0  0  0
   35.6797  -21.3623   25.8560 O   0  0  0  0  0  0  0  0  0  0  0  0
   32.7500  -20.1663   26.5949 O   0  5  0  0  0  0  0  0  0  0  0  0
   36.3989  -26.8250   34.1836 N   0  0  0  0  0  0  0  0  0  0  0  0
   35.0857  -23.8344   26.1022 O   0  0  0  0  0  0  0  0  0  0  0  0
   33.3710  -22.1009   24.9898 O   0  0  0  0  0  0  0  0  0  0  0  0
   30.9240  -21.6133   25.7328 O   0  0  0  0  0  0  0  0  0  0  0  0
   35.7184  -26.8633   33.0317 C   0  0  0  0  0  0  0  0  0  0  0  0
   34.5820  -27.6433   32.9591 C   0  0  0  0  0  0  0  0  0  0  0  0
   34.1614  -28.3768   34.0852 C   0  0  0  0  0  0  0  0  0  0  0  0
   33.0078  -29.1796   34.0419 O   0  0  0  0  0  0  0  0  0  0  0  0
   34.0828  -27.5177   31.7177 N   0  0  0  0  0  0  0  0  0  0  0  0
   34.8757  -26.6967   31.0513 C   0  0  0  0  0  0  0  0  0  0  0  0
   35.8668  -26.2947   31.8248 N   0  0  0  0  0  0  0  0  0  0  0  0
  1  5  1  1  0  0  0
  1 14  1  0  0  0  0
  1 19  2  0  0  0  0
  1 23  1  0  0  0  0
  2 15  1  6  0  0  0
  2 20  2  0  0  0  0
  2 23  1  0  0  0  0
  2 24  1  0  0  0  0
  3 16  1  1  0  0  0
  3 21  1  0  0  0  0
  3 24  1  0  0  0  0
  3 25  2  0  0  0  0
  4  5  1  0  0  0  0
  6  4  1  1  0  0  0
  6  7  1  0  0  0  0
  6  8  1  0  0  0  0
  7 12  1  0  0  0  0
  8  9  1  6  0  0  0
  8 10  1  0  0  0  0
 10 11  1  6  0  0  0
 10 12  1  0  0  0  0
 12 32  1  6  0  0  0
 13 17  2  0  0  0  0
 13 28  1  0  0  0  0
 17 18  1  0  0  0  0
 17 22  1  0  0  0  0
 22 26  2  0  0  0  0
 26 27  1  0  0  0  0
 26 32  1  0  0  0  0
 27 28  2  0  0  0  0
 27 30  1  0  0  0  0
 28 29  1  0  0  0  0
 30 31  2  0  0  0  0
 31 32  1  0  0  0  0
M  CHG  3  14  -1  15  -1  21  -1
M  END
>  <CHROM.1>
64.88851795,41.82424978,-47.99063614,171.69845821,-77.28083556,-149.49091968
178.09913836,-171.84593212,35.44251664,-24.83633403,29.00193023,-1.74234464
-0.31079984,2.07487347

>  <Name>
ligand

>  <RI>
0

>  <Rbt.Current_Directory>
/home/itssahil/PROJECTS/Mol_Feturizer/New_Systems/rnas/4Y1I

>  <Rbt.Executable>
rbdock ($Id: //depot/dev/client3/rdock/2013.1/src/exe/rbdock.cxx#4 $)

>  <Rbt.Library>
libRbt.so (2013.1, Build901 2013/11/27)

>  <Rbt.Parameter_File>
/export/apps/rDock/src/rDock_2013.1_src/data/scripts/dock_solv.prm

>  <Rbt.Receptor>
prm/blind_docking_60.prm

>  <SCORE>
-10.1799

>  <SCORE.INTER>
-6.08017

>  <SCORE.INTER.CONST>
1

>  <SCORE.INTER.POLAR>
0

>  <SCORE.INTER.ROT>
8

>  <SCORE.INTER.SOLV>
20.1446

>  <SCORE.INTER.VDW>
-19.7016

>  <SCORE.INTER.norm>
-0.190005

>  <SCORE.INTRA>
-4.09972

>  <SCORE.INTRA.DIHEDRAL>
-7.23062

>  <SCORE.INTRA.DIHEDRAL.0>
10.9594

>  <SCORE.INTRA.POLAR>
0

>  <SCORE.INTRA.POLAR.0>
0

>  <SCORE.INTRA.REPUL>
0

>  <SCORE.INTRA.REPUL.0>
0

>  <SCORE.INTRA.SOLV>
-2.26704

>  <SCORE.INTRA.SOLV.lig_0>
-124.914

>  <SCORE.INTRA.VDW>
0.64911

>  <SCORE.INTRA.VDW.0>
-4.69801

>  <SCORE.INTRA.norm>
-0.128116

>  <SCORE.RESTR>
0

>  <SCORE.RESTR.CAVITY>
0

>  <SCORE.RESTR.norm>
0

>  <SCORE.SYSTEM>
0

>  <SCORE.SYSTEM.CONST>
0

>  <SCORE.SYSTEM.DIHEDRAL>
0

>  <SCORE.SYSTEM.SOLV>
0

>  <SCORE.SYSTEM.norm>
0

>  <SCORE.heavy>
32

>  <SCORE.norm>
-0.318122

>  <RMSD>
51.632

$$$$
ligand
 OpenBabel11021811513D
libRbt.so/2013.1/901 2013/11/27
 32 34  0  0  0  0  0  0  0  0999 V2000
   37.0658  -24.0369   32.2499 P   0  0  1  0  0  0  0  0  0  0  0  0
   39.5008  -25.5537   32.2884 P   0  0  2  0  0  0  0  0  0  0  0  0
   40.5371  -26.3645   34.9121 P   0  0  1  0  0  0  0  0  0  0  0  0
   37.1833  -24.3659   29.6674 C   0  0  0  0  0  0  0  0  0  0  0  0
   36.7425  -24.8977   30.8843 O   0  0  0  0  0  0  0  0  0  0  0  0
   37.0335  -25.3163   28.6636 C   0  0  1  0  0  0  0  0  0  0  0  0
   35.5603  -25.5519   28.3912 O   0  0  0  0  0  0  0  0  0  0  0  0
   37.6574  -24.8082   27.2835 C   0  0  1  0  0  0  0  0  0  0  0  0
   38.8287  -25.6873   26.9074 O   0  0  0  0  0  0  0  0  0  0  0  0
   36.7828  -24.9786   26.4306 C   0  0  1  0  0  0  0  0  0  0  0  0
   37.0239  -26.2622   25.7290 O   0  0  0  0  0  0  0  0  0  0  0  0
   35.3327  -25.0392   27.2476 C   0  0  2  0  0  0  0  0  0  0  0  0
   33.1321  -21.0199   24.9264 N   0  0  0  0  0  0  0  0  0  0  0  0
   37.5197  -22.6459   31.8823 O   0  5  0  0  0  0  0  0  0  0  0  0
   40.0093  -24.7013   31.1531 O   0  5  0  0  0  0  0  0  0  0  0  0
   41.9121  -26.6173   35.4846 O   0  0  0  0  0  0  0  0  0  0  0  0
   33.5645  -22.1449   24.3786 C   0  0  0  0  0  0  0  0  0  0  0  0
   33.4328  -22.3360   22.9483 N   0  0  0  0  0  0  0  0  0  0  0  0
   35.8176  -23.9911   33.1019 O   0  0  0  0  0  0  0  0  0  0  0  0
   38.9796  -26.8584   31.7454 O   0  0  0  0  0  0  0  0  0  0  0  0
   39.8513  -25.2893   35.7265 O   0  5  0  0  0  0  0  0  0  0  0  0
   34.1147  -23.1045   25.0942 N   0  0  0  0  0  0  0  0  0  0  0  0
   38.2746  -24.7903   33.0684 O   0  0  0  0  0  0  0  0  0  0  0  0
   40.7195  -25.8507   33.3526 O   0  0  0  0  0  0  0  0  0  0  0  0
   39.7394  -27.6494   34.9594 O   0  0  0  0  0  0  0  0  0  0  0  0
   34.2552  -22.9677   26.4182 C   0  0  0  0  0  0  0  0  0  0  0  0
   33.8131  -21.8041   27.0146 C   0  0  0  0  0  0  0  0  0  0  0  0
   33.2274  -20.7921   26.2298 C   0  0  0  0  0  0  0  0  0  0  0  0
   32.7672  -19.5964   26.8088 O   0  0  0  0  0  0  0  0  0  0  0  0
   34.0611  -21.9042   28.3317 N   0  0  0  0  0  0  0  0  0  0  0  0
   34.6320  -23.0777   28.5409 C   0  0  0  0  0  0  0  0  0  0  0  0
   34.7595  -23.7306   27.4008 N   0  0  0  0  0  0  0  0  0  0  0  0
  1  5  1  6  0  0  0
  1 14  1  0  0  0  0
  1 19  2  0  0  0  0
  1 23  1  0  0  0  0
  2 15  1  6  0  0  0
  2 20  2  0  0  0  0
  2 23  1  0  0  0  0
  2 24  1  0  0  0  0
  3 16  1  1  0  0  0
  3 21  1  0  0  0  0
  3 24  1  0  0  0  0
  3 25  2  0  0  0  0
  4  5  1  0  0  0  0
  6  4  1  1  0  0  0
  6  7  1  0  0  0  0
  6  8  1  0  0  0  0
  7 12  1  0  0  0  0
  8  9  1  6  0  0  0
  8 10  1  0  0  0  0
 10 11  1  1  0  0  0
 10 12  1  0  0  0  0
 12 32  1  1  0  0  0
 13 17  2  0  0  0  0
 13 28  1  0  0  0  0
 17 18  1  0  0  0  0
 17 22  1  0  0  0  0
 22 26  2  0  0  0  0
 26 27  1  0  0  0  0
 26 32  1  0  0  0  0
 27 28  2  0  0  0  0
 27 30  1  0  0  0  0
 28 29  1  0  0  0  0
 30 31  2  0  0  0  0
 31 32  1  0  0  0  0
M  CHG  3  14  -1  15  -1  21  -1
M  END
>  <CHROM.1>
13.06469920,44.53307714,175.37888200,68.65209504,169.84990878,-171.87673059
35.30505441,161.91073410,37.04803550,-24.37108906,29.90755916,0.69593188
-0.78091437,1.27220657

>  <Name>
ligand

>  <RI>
0

>  <Rbt.Current_Directory>
/home/itssahil/PROJECTS/Mol_Feturizer/New_Systems/rnas/4Y1I

>  <Rbt.Executable>
rbdock ($Id: //depot/dev/client3/rdock/2013.1/src/exe/rbdock.cxx#4 $)

>  <Rbt.Library>
libRbt.so (2013.1, Build901 2013/11/27)

>  <Rbt.Parameter_File>
/export/apps/rDock/src/rDock_2013.1_src/data/scripts/dock_solv.prm

>  <Rbt.Receptor>
prm/blind_docking_100.prm

>  <SCORE>
-11.4907

>  <SCORE.INTER>
-7.82001

>  <SCORE.INTER.CONST>
1

>  <SCORE.INTER.POLAR>
0

>  <SCORE.INTER.ROT>
8

>  <SCORE.INTER.SOLV>
21.071

>  <SCORE.INTER.VDW>
-21.1703

>  <SCORE.INTER.norm>
-0.244375

>  <SCORE.INTRA>
-3.68681

>  <SCORE.INTRA.DIHEDRAL>
-5.07457

>  <SCORE.INTRA.DIHEDRAL.0>
10.9594

>  <SCORE.INTRA.POLAR>
0

>  <SCORE.INTRA.POLAR.0>
0

>  <SCORE.INTRA.REPUL>
0

>  <SCORE.INTRA.REPUL.0>
0

>  <SCORE.INTRA.SOLV>
-2.61228

>  <SCORE.INTRA.SOLV.lig_0>
-124.914

>  <SCORE.INTRA.VDW>
0.156612

>  <SCORE.INTRA.VDW.0>
-4.69801

>  <SCORE.INTRA.norm>
-0.115213

>  <SCORE.RESTR>
0.0160847

>  <SCORE.RESTR.CAVITY>
0.0160847

>  <SCORE.RESTR.norm>
0.000502646

>  <SCORE.SYSTEM>
0

>  <SCORE.SYSTEM.CONST>
0

>  <SCORE.SYSTEM.DIHEDRAL>
0

>  <SCORE.SYSTEM.SOLV>
0

>  <SCORE.SYSTEM.norm>
0

>  <SCORE.heavy>
32

>  <SCORE.norm>
-0.359086

>  <RMSD>
51.748

$$$$
ligand
 OpenBabel11021811513D
libRbt.so/2013.1/901 2013/11/27
 32 34  0  0  0  0  0  0  0  0999 V2000
   35.2781  -24.0877   29.7634 P   0  0  1  0  0  0  0  0  0  0  0  0
   34.3032  -24.0670   27.0652 P   0  0  2  0  0  0  0  0  0  0  0  0
   34.1201  -24.7322   24.2122 P   0  0  1  0  0  0  0  0  0  0  0  0
   34.8800  -26.1197   31.3457 C   0  0  0  0  0  0  0  0  0  0  0  0
   34.9082  -25.6711   30.0206 O   0  0  0  0  0  0  0  0  0  0  0  0
   34.6484  -27.4905   31.3673 C   0  0  1  0  0  0  0  0  0  0  0  0
   35.7344  -28.2100   30.5909 O   0  0  0  0  0  0  0  0  0  0  0  0
   34.7182  -28.0690   32.8548 C   0  0  1  0  0  0  0  0  0  0  0  0
   33.3565  -28.5895   33.2562 O   0  0  0  0  0  0  0  0  0  0  0  0
   35.4813  -29.0369   32.8088 C   0  0  1  0  0  0  0  0  0  0  0  0
   34.6882  -30.2823   32.6753 O   0  0  0  0  0  0  0  0  0  0  0  0
   36.4356  -28.8216   31.4609 C   0  0  2  0  0  0  0  0  0  0  0  0
   39.9151  -25.4397   29.7754 N   0  0  0  0  0  0  0  0  0  0  0  0
   34.1333  -23.2150   30.2149 O   0  5  0  0  0  0  0  0  0  0  0  0
   33.3920  -22.8654   27.0636 O   0  5  0  0  0  0  0  0  0  0  0  0
   33.1955  -25.8664   24.5875 O   0  0  0  0  0  0  0  0  0  0  0  0
   38.8815  -25.9450   29.1205 C   0  0  0  0  0  0  0  0  0  0  0  0
   38.6392  -25.5379   27.7511 N   0  0  0  0  0  0  0  0  0  0  0  0
   36.5433  -23.7553   30.5216 O   0  0  0  0  0  0  0  0  0  0  0  0
   33.5197  -25.2938   27.4522 O   0  0  0  0  0  0  0  0  0  0  0  0
   33.2965  -23.5684   23.7054 O   0  5  0  0  0  0  0  0  0  0  0  0
   38.0588  -26.8119   29.6747 N   0  0  0  0  0  0  0  0  0  0  0  0
   35.5147  -23.8612   28.1536 O   0  0  0  0  0  0  0  0  0  0  0  0
   34.9494  -24.2793   25.5674 O   0  0  0  0  0  0  0  0  0  0  0  0
   35.0742  -25.2084   23.1387 O   0  0  0  0  0  0  0  0  0  0  0  0
   38.2473  -27.2142   30.9373 C   0  0  0  0  0  0  0  0  0  0  0  0
   39.3180  -26.7031   31.6427 C   0  0  0  0  0  0  0  0  0  0  0  0
   40.1839  -25.7768   31.0300 C   0  0  0  0  0  0  0  0  0  0  0  0
   41.2824  -25.2385   31.7231 O   0  0  0  0  0  0  0  0  0  0  0  0
   39.2942  -27.2515   32.8694 N   0  0  0  0  0  0  0  0  0  0  0  0
   38.2549  -28.0664   32.9206 C   0  0  0  0  0  0  0  0  0  0  0  0
   37.6145  -28.0592   31.7665 N   0  0  0  0  0  0  0  0  0  0  0  0
  1  5  1  1  0  0  0
  1 14  1  0  0  0  0
  1 19  2  0  0  0  0
  1 23  1  0  0  0  0
  2 15  1  1  0  0  0
  2 20  2  0  0  0  0
  2 23  1  0  0  0  0
  2 24  1  0  0  0  0
  3 16  1  1  0  0  0
  3 21  1  0  0  0  0
  3 24  1  0  0  0  0
  3 25  2  0  0  0  0
  4  5  1  0  0  0  0
  6  4  1  1  0  0  0
  6  7  1  0  0  0  0
  6  8  1  0  0  0  0
  7 12  1  0  0  0  0
  8  9  1  6  0  0  0
  8 10  1  0  0  0  0
 10 11  1  6  0  0  0
 10 12  1  0  0  0  0
 12 32  1  1  0  0  0
 13 17  2  0  0  0  0
 13 28  1  0  0  0  0
 17 18  1  0  0  0  0
 17 22  1  0  0  0  0
 22 26  2  0  0  0  0
 26 27  1  0  0  0  0
 26 32  1  0  0  0  0
 27 28  2  0  0  0  0
 27 30  1  0  0  0  0
 28 29  1  0  0  0  0
 30 31  2  0  0  0  0
 31 32  1  0  0  0  0
M  CHG  3  14  -1  15  -1  21  -1
M  END
>  <CHROM.1>
-71.16861332,78.53064226,-44.43353892,58.66274283,-175.71449617,-28.62816212
64.25546227,-68.12960986,35.90914252,-25.85251344,29.22876752,1.99193959
-0.22420090,-1.02285429

>  <Name>
ligand

>  <RI>
0

>  <Rbt.Current_Directory>
/home/itssahil/PROJECTS/Mol_Feturizer/New_Systems/rnas/4Y1I

>  <Rbt.Executable>
rbdock ($Id: //depot/dev/client3/rdock/2013.1/src/exe/rbdock.cxx#4 $)

>  <Rbt.Library>
libRbt.so (2013.1, Build901 2013/11/27)

>  <Rbt.Parameter_File>
/export/apps/rDock/src/rDock_2013.1_src/data/scripts/dock_solv.prm

>  <Rbt.Receptor>
prm/blind_docking_60.prm

>  <SCORE>
-12.3214

>  <SCORE.INTER>
-6.5959

>  <SCORE.INTER.CONST>
1

>  <SCORE.INTER.POLAR>
0

>  <SCORE.INTER.ROT>
8

>  <SCORE.INTER.SOLV>
16.5857

>  <SCORE.INTER.VDW>
-18.8592

>  <SCORE.INTER.norm>
-0.206122

>  <SCORE.INTRA>
-5.72552

>  <SCORE.INTRA.DIHEDRAL>
-8.40638

>  <SCORE.INTRA.DIHEDRAL.0>
10.9594

>  <SCORE.INTRA.POLAR>
0

>  <SCORE.INTRA.POLAR.0>
0

>  <SCORE.INTRA.REPUL>
0

>  <SCORE.INTRA.REPUL.0>
0

>  <SCORE.INTRA.SOLV>
-1.02017

>  <SCORE.INTRA.SOLV.lig_0>
-124.914

>  <SCORE.INTRA.VDW>
-1.01225

>  <SCORE.INTRA.VDW.0>
-4.69801

>  <SCORE.INTRA.norm>
-0.178922

>  <SCORE.RESTR>
0

>  <SCORE.RESTR.CAVITY>
0

>  <SCORE.RESTR.norm>
0

>  <SCORE.SYSTEM>
0

>  <SCORE.SYSTEM.CONST>
0

>  <SCORE.SYSTEM.DIHEDRAL>
0

>  <SCORE.SYSTEM.SOLV>
0

>  <SCORE.SYSTEM.norm>
0

>  <SCORE.heavy>
32

>  <SCORE.norm>
-0.385044

>  <RMSD>
51.829

$$$$
ligand
 OpenBabel11021811513D
libRbt.so/2013.1/901 2013/11/27
 32 34  0  0  0  0  0  0  0  0999 V2000
   38.0140  -25.7360   27.5979 P   0  0  1  0  0  0  0  0  0  0  0  0
   36.8729  -24.2678   25.4131 P   0  0  2  0  0  0  0  0  0  0  0  0
   36.1414  -25.6234   22.9146 P   0  0  1  0  0  0  0  0  0  0  0  0
   37.0045  -26.6582   29.8165 C   0  0  0  0  0  0  0  0  0  0  0  0
   37.0310  -26.7681   28.4218 O   0  0  0  0  0  0  0  0  0  0  0  0
   35.6858  -26.6504   30.2570 C   0  0  1  0  0  0  0  0  0  0  0  0
   35.6372  -26.3153   31.7353 O   0  0  0  0  0  0  0  0  0  0  0  0
   34.8340  -25.5154   29.5234 C   0  0  1  0  0  0  0  0  0  0  0  0
   33.7605  -26.1608   28.6765 O   0  0  0  0  0  0  0  0  0  0  0  0
   34.2651  -24.8843   30.4175 C   0  0  1  0  0  0  0  0  0  0  0  0
   32.8857  -25.4016   30.5831 O   0  0  0  0  0  0  0  0  0  0  0  0
   35.1422  -25.1440   31.8094 C   0  0  2  0  0  0  0  0  0  0  0  0
   38.4867  -22.8976   34.9958 N   0  0  0  0  0  0  0  0  0  0  0  0
   37.9405  -24.3599   28.2119 O   0  5  0  0  0  0  0  0  0  0  0  0
   37.9781  -23.3952   24.8732 O   0  5  0  0  0  0  0  0  0  0  0  0
   36.8371  -26.8623   23.4278 O   0  0  0  0  0  0  0  0  0  0  0  0
   37.5969  -23.8376   35.2738 C   0  0  0  0  0  0  0  0  0  0  0  0
   37.4975  -24.3448   36.6275 N   0  0  0  0  0  0  0  0  0  0  0  0
   39.4269  -26.2728   27.6411 O   0  0  0  0  0  0  0  0  0  0  0  0
   36.1409  -23.5356   26.5071 O   0  0  0  0  0  0  0  0  0  0  0  0
   34.8457  -26.0246   22.2439 O   0  5  0  0  0  0  0  0  0  0  0  0
   36.7921  -24.3320   34.3554 N   0  0  0  0  0  0  0  0  0  0  0  0
   37.4952  -25.6508   26.0415 O   0  0  0  0  0  0  0  0  0  0  0  0
   35.8202  -24.6454   24.2068 O   0  0  0  0  0  0  0  0  0  0  0  0
   37.0489  -24.9212   21.9282 O   0  0  0  0  0  0  0  0  0  0  0  0
   36.8513  -23.8907   33.0931 C   0  0  0  0  0  0  0  0  0  0  0  0
   37.7701  -22.9106   32.7764 C   0  0  0  0  0  0  0  0  0  0  0  0
   38.6208  -22.3974   33.7744 C   0  0  0  0  0  0  0  0  0  0  0  0
   39.5668  -21.3992   33.4821 O   0  0  0  0  0  0  0  0  0  0  0  0
   37.6380  -22.6392   31.4668 N   0  0  0  0  0  0  0  0  0  0  0  0
   36.6794  -23.4167   30.9942 C   0  0  0  0  0  0  0  0  0  0  0  0
   36.1924  -24.1749   31.9587 N   0  0  0  0  0  0  0  0  0  0  0  0
  1  5  1  1  0  0  0
  1 14  1  0  0  0  0
  1 19  2  0  0  0  0
  1 23  1  0  0  0  0
  2 15  1  6  0  0  0
  2 20  2  0  0  0  0
  2 23  1  0  0  0  0
  2 24  1  0  0  0  0
  3 16  1  1  0  0  0
  3 21  1  0  0  0  0
  3 24  1  0  0  0  0
  3 25  2  0  0  0  0
  4  5  1  0  0  0  0
  6  4  1  6  0  0  0
  6  7  1  0  0  0  0
  6  8  1  0  0  0  0
  7 12  1  0  0  0  0
  8  9  1  6  0  0  0
  8 10  1  0  0  0  0
 10 11  1  1  0  0  0
 10 12  1  0  0  0  0
 12 32  1  6  0  0  0
 13 17  2  0  0  0  0
 13 28  1  0  0  0  0
 17 18  1  0  0  0  0
 17 22  1  0  0  0  0
 22 26  2  0  0  0  0
 26 27  1  0  0  0  0
 26 32  1  0  0  0  0
 27 28  2  0  0  0  0
 27 30  1  0  0  0  0
 28 29  1  0  0  0  0
 30 31  2  0  0  0  0
 31 32  1  0  0  0  0
M  CHG  3  14  -1  15  -1  21  -1
M  END
>  <CHROM.1>
-40.54500776,86.78942092,45.91742469,-171.19189910,132.71078992,-78.70609311
113.85372373,68.59380231,36.72564745,-24.81172833,28.78821515,-1.66245818
0.56199806,1.45616393

>  <Name>
ligand

>  <RI>
0

>  <Rbt.Current_Directory>
/home/itssahil/PROJECTS/Mol_Feturizer/New_Systems/rnas/4Y1I

>  <Rbt.Executable>
rbdock ($Id: //depot/dev/client3/rdock/2013.1/src/exe/rbdock.cxx#4 $)

>  <Rbt.Library>
libRbt.so (2013.1, Build901 2013/11/27)

>  <Rbt.Parameter_File>
/export/apps/rDock/src/rDock_2013.1_src/data/scripts/dock_solv.prm

>  <Rbt.Receptor>
prm/blind_docking_60.prm

>  <SCORE>
-7.59314

>  <SCORE.INTER>
-7.21377

>  <SCORE.INTER.CONST>
1

>  <SCORE.INTER.POLAR>
0

>  <SCORE.INTER.ROT>
8

>  <SCORE.INTER.SOLV>
18.2926

>  <SCORE.INTER.VDW>
-19.84

>  <SCORE.INTER.norm>
-0.22543

>  <SCORE.INTRA>
-0.469239

>  <SCORE.INTRA.DIHEDRAL>
1.36486

>  <SCORE.INTRA.DIHEDRAL.0>
10.9594

>  <SCORE.INTRA.POLAR>
0

>  <SCORE.INTRA.POLAR.0>
0

>  <SCORE.INTRA.REPUL>
0

>  <SCORE.INTRA.REPUL.0>
0

>  <SCORE.INTRA.SOLV>
-2.55853

>  <SCORE.INTRA.SOLV.lig_0>
-124.914

>  <SCORE.INTRA.VDW>
0.127594

>  <SCORE.INTRA.VDW.0>
-4.69801

>  <SCORE.INTRA.norm>
-0.0146637

>  <SCORE.RESTR>
0.0898688

>  <SCORE.RESTR.CAVITY>
0.0898688

>  <SCORE.RESTR.norm>
0.0028084

>  <SCORE.SYSTEM>
0

>  <SCORE.SYSTEM.CONST>
0

>  <SCORE.SYSTEM.DIHEDRAL>
0

>  <SCORE.SYSTEM.SOLV>
0

>  <SCORE.SYSTEM.norm>
0

>  <SCORE.heavy>
32

>  <SCORE.norm>
-0.237286

>  <RMSD>
51.865

$$$$
ligand
 OpenBabel11021811513D
libRbt.so/2013.1/901 2013/11/27
 32 34  0  0  0  0  0  0  0  0999 V2000
   38.1763  -25.3475   31.5306 P   0  0  1  0  0  0  0  0  0  0  0  0
   37.8362  -27.6799   33.1661 P   0  0  2  0  0  0  0  0  0  0  0  0
   35.0869  -28.5983   32.7043 P   0  0  1  0  0  0  0  0  0  0  0  0
   39.7324  -25.2729   29.4415 C   0  0  0  0  0  0  0  0  0  0  0  0
   38.4537  -25.0076   29.9438 O   0  0  0  0  0  0  0  0  0  0  0  0
   39.7930  -24.8986   28.1037 C   0  0  1  0  0  0  0  0  0  0  0  0
   38.9709  -25.8556   27.2621 O   0  0  0  0  0  0  0  0  0  0  0  0
   39.1521  -23.4534   27.8743 C   0  0  1  0  0  0  0  0  0  0  0  0
   40.2268  -22.4938   27.4158 O   0  0  0  0  0  0  0  0  0  0  0  0
   38.3520  -23.5790   26.9440 C   0  0  1  0  0  0  0  0  0  0  0  0
   39.0031  -23.1686   25.6769 O   0  0  0  0  0  0  0  0  0  0  0  0
   37.9509  -25.1943   26.8816 C   0  0  2  0  0  0  0  0  0  0  0  0
   33.2726  -23.7769   28.4598 N   0  0  0  0  0  0  0  0  0  0  0  0
   39.2623  -24.7374   32.3818 O   0  5  0  0  0  0  0  0  0  0  0  0
   38.5499  -26.9710   34.2897 O   0  5  0  0  0  0  0  0  0  0  0  0
   35.2028  -28.4460   31.2057 O   0  0  0  0  0  0  0  0  0  0  0  0
   34.0579  -23.1722   27.5822 C   0  0  0  0  0  0  0  0  0  0  0  0
   33.6059  -21.9511   26.9463 N   0  0  0  0  0  0  0  0  0  0  0  0
   36.8187  -24.8030   31.9137 O   0  0  0  0  0  0  0  0  0  0  0  0
   38.2761  -29.1197   33.1180 O   0  0  0  0  0  0  0  0  0  0  0  0
   35.3664  -30.0373   33.0792 O   0  5  0  0  0  0  0  0  0  0  0  0
   35.2455  -23.6455   27.2642 N   0  0  0  0  0  0  0  0  0  0  0  0
   38.2010  -26.9782   31.7277 O   0  0  0  0  0  0  0  0  0  0  0  0
   36.2103  -27.6113   33.4066 O   0  0  0  0  0  0  0  0  0  0  0  0
   33.6903  -28.2047   33.1333 O   0  0  0  0  0  0  0  0  0  0  0  0
   35.7007  -24.7705   27.8288 C   0  0  0  0  0  0  0  0  0  0  0  0
   34.9019  -25.4207   28.7476 C   0  0  0  0  0  0  0  0  0  0  0  0
   33.6356  -24.8967   29.0716 C   0  0  0  0  0  0  0  0  0  0  0  0
   32.7994  -25.5369   30.0032 O   0  0  0  0  0  0  0  0  0  0  0  0
   35.5697  -26.5091   29.1668 N   0  0  0  0  0  0  0  0  0  0  0  0
   36.7307  -26.5310   28.5355 C   0  0  0  0  0  0  0  0  0  0  0  0
   36.8286  -25.4913   27.7282 N   0  0  0  0  0  0  0  0  0  0  0  0
  1  5  1  6  0  0  0
  1 14  1  0  0  0  0
  1 19  2  0  0  0  0
  1 23  1  0  0  0  0
  2 15  1  1  0  0  0
  2 20  2  0  0  0  0
  2 23  1  0  0  0  0
  2 24  1  0  0  0  0
  3 16  1  6  0  0  0
  3 21  1  0  0  0  0
  3 24  1  0  0  0  0
  3 25  2  0  0  0  0
  4  5  1  0  0  0  0
  6  4  1  1  0  0  0
  6  7  1  0  0  0  0
  6  8  1  0  0  0  0
  7 12  1  0  0  0  0
  8  9  1  6  0  0  0
  8 10  1  0  0  0  0
 10 11  1  6  0  0  0
 10 12  1  0  0  0  0
 12 32  1  1  0  0  0
 13 17  2  0  0  0  0
 13 28  1  0  0  0  0
 17 18  1  0  0  0  0
 17 22  1  0  0  0  0
 22 26  2  0  0  0  0
 26 27  1  0  0  0  0
 26 32  1  0  0  0  0
 27 28  2  0  0  0  0
 27 30  1  0  0  0  0
 28 29  1  0  0  0  0
 30 31  2  0  0  0  0
 31 32  1  0  0  0  0
M  CHG  3  14  -1  15  -1  21  -1
M  END
>  <CHROM.1>
50.16346712,-46.15695406,-58.96653651,-70.87676792,-178.64973353,163.43684949
-174.82692246,-160.89288255,36.83966216,-25.82216759,30.14912145,-1.69687542
-0.09877770,-0.92901403

>  <Name>
ligand

>  <RI>
0

>  <Rbt.Current_Directory>
/home/itssahil/PROJECTS/Mol_Feturizer/New_Systems/rnas/4Y1I

>  <Rbt.Executable>
rbdock ($Id: //depot/dev/client3/rdock/2013.1/src/exe/rbdock.cxx#4 $)

>  <Rbt.Library>
libRbt.so (2013.1, Build901 2013/11/27)

>  <Rbt.Parameter_File>
/export/apps/rDock/src/rDock_2013.1_src/data/scripts/dock_solv.prm

>  <Rbt.Receptor>
prm/blind_docking_80.prm

>  <SCORE>
-11.7516

>  <SCORE.INTER>
-4.54962

>  <SCORE.INTER.CONST>
1

>  <SCORE.INTER.POLAR>
0

>  <SCORE.INTER.ROT>
8

>  <SCORE.INTER.SOLV>
15.8189

>  <SCORE.INTER.VDW>
-17.2394

>  <SCORE.INTER.norm>
-0.142176

>  <SCORE.INTRA>
-7.20197

>  <SCORE.INTRA.DIHEDRAL>
-8.31111

>  <SCORE.INTRA.DIHEDRAL.0>
10.9594

>  <SCORE.INTRA.POLAR>
0

>  <SCORE.INTRA.POLAR.0>
0

>  <SCORE.INTRA.REPUL>
0

>  <SCORE.INTRA.REPUL.0>
0

>  <SCORE.INTRA.SOLV>
-3.61926

>  <SCORE.INTRA.SOLV.lig_0>
-124.914

>  <SCORE.INTRA.VDW>
-1.23679

>  <SCORE.INTRA.VDW.0>
-4.69801

>  <SCORE.INTRA.norm>
-0.225062

>  <SCORE.RESTR>
0

>  <SCORE.RESTR.CAVITY>
0

>  <SCORE.RESTR.norm>
0

>  <SCORE.SYSTEM>
0

>  <SCORE.SYSTEM.CONST>
0

>  <SCORE.SYSTEM.DIHEDRAL>
0

>  <SCORE.SYSTEM.SOLV>
0

>  <SCORE.SYSTEM.norm>
0

>  <SCORE.heavy>
32

>  <SCORE.norm>
-0.367237

>  <RMSD>
51.977

$$$$
ligand
 OpenBabel11021811513D
libRbt.so/2013.1/901 2013/11/27
 32 34  0  0  0  0  0  0  0  0999 V2000
   37.0702  -24.7876   33.5507 P   0  0  1  0  0  0  0  0  0  0  0  0
   36.6473  -27.4974   34.3929 P   0  0  2  0  0  0  0  0  0  0  0  0
   34.0148  -28.6629   33.8214 P   0  0  1  0  0  0  0  0  0  0  0  0
   35.4125  -24.0896   31.6650 C   0  0  0  0  0  0  0  0  0  0  0  0
   36.6692  -23.8739   32.2413 O   0  0  0  0  0  0  0  0  0  0  0  0
   35.4723  -25.1911   30.8185 C   0  0  1  0  0  0  0  0  0  0  0  0
   34.1751  -25.3175   30.0431 O   0  0  0  0  0  0  0  0  0  0  0  0
   36.6220  -25.0208   29.7224 C   0  0  1  0  0  0  0  0  0  0  0  0
   37.6852  -26.0733   29.9414 O   0  0  0  0  0  0  0  0  0  0  0  0
   36.0925  -25.2560   28.6336 C   0  0  1  0  0  0  0  0  0  0  0  0
   36.3483  -26.6670   28.2571 O   0  0  0  0  0  0  0  0  0  0  0  0
   34.4585  -25.0085   28.8403 C   0  0  2  0  0  0  0  0  0  0  0  0
   32.8482  -21.5694   25.3812 N   0  0  0  0  0  0  0  0  0  0  0  0
   38.5456  -24.6530   33.8358 O   0  5  0  0  0  0  0  0  0  0  0  0
   37.3703  -27.0254   35.6294 O   0  5  0  0  0  0  0  0  0  0  0  0
   32.6536  -28.5972   34.4735 O   0  0  0  0  0  0  0  0  0  0  0  0
   33.0903  -22.8586   25.2016 C   0  0  0  0  0  0  0  0  0  0  0  0
   32.8983  -23.4421   23.8893 N   0  0  0  0  0  0  0  0  0  0  0  0
   36.2468  -24.3294   34.7332 O   0  0  0  0  0  0  0  0  0  0  0  0
   37.2894  -28.7617   33.8849 O   0  0  0  0  0  0  0  0  0  0  0  0
   33.9306  -28.0589   32.4366 O   0  5  0  0  0  0  0  0  0  0  0  0
   33.5029  -23.6357   26.1822 N   0  0  0  0  0  0  0  0  0  0  0  0
   36.7367  -26.3602   33.2124 O   0  0  0  0  0  0  0  0  0  0  0  0
   35.0676  -27.7890   34.7472 O   0  0  0  0  0  0  0  0  0  0  0  0
   34.4526  -30.1089   33.7388 O   0  0  0  0  0  0  0  0  0  0  0  0
   33.6930  -23.1361   27.4093 C   0  0  0  0  0  0  0  0  0  0  0  0
   33.4483  -21.7947   27.6237 C   0  0  0  0  0  0  0  0  0  0  0  0
   33.0070  -20.9833   26.5607 C   0  0  0  0  0  0  0  0  0  0  0  0
   32.7491  -19.6140   26.7485 O   0  0  0  0  0  0  0  0  0  0  0  0
   33.7080  -21.5370   28.9169 N   0  0  0  0  0  0  0  0  0  0  0  0
   34.0967  -22.6689   29.4777 C   0  0  0  0  0  0  0  0  0  0  0  0
   34.0964  -23.6416   28.5855 N   0  0  0  0  0  0  0  0  0  0  0  0
  1  5  1  6  0  0  0
  1 14  1  0  0  0  0
  1 19  2  0  0  0  0
  1 23  1  0  0  0  0
  2 15  1  1  0  0  0
  2 20  2  0  0  0  0
  2 23  1  0  0  0  0
  2 24  1  0  0  0  0
  3 16  1  1  0  0  0
  3 21  1  0  0  0  0
  3 24  1  0  0  0  0
  3 25  2  0  0  0  0
  4  5  1  0  0  0  0
  6  4  1  1  0  0  0
  6  7  1  0  0  0  0
  6  8  1  0  0  0  0
  7 12  1  0  0  0  0
  8  9  1  1  0  0  0
  8 10  1  0  0  0  0
 10 11  1  1  0  0  0
 10 12  1  0  0  0  0
 12 32  1  1  0  0  0
 13 17  2  0  0  0  0
 13 28  1  0  0  0  0
 17 18  1  0  0  0  0
 17 22  1  0  0  0  0
 22 26  2  0  0  0  0
 26 27  1  0  0  0  0
 26 32  1  0  0  0  0
 27 28  2  0  0  0  0
 27 30  1  0  0  0  0
 28 29  1  0  0  0  0
 30 31  2  0  0  0  0
 31 32  1  0  0  0  0
M  CHG  3  14  -1  15  -1  21  -1
M  END
>  <CHROM.1>
167.03150881,-20.28919547,-176.20747955,-172.13368884,-81.75276720,-148.94027243
-164.21727803,-163.64979693,35.15633504,-25.26108188,30.97652801,-1.17897312
-0.83327969,-0.67581497

>  <Name>
ligand

>  <RI>
0

>  <Rbt.Current_Directory>
/home/itssahil/PROJECTS/Mol_Feturizer/New_Systems/rnas/4Y1I

>  <Rbt.Executable>
rbdock ($Id: //depot/dev/client3/rdock/2013.1/src/exe/rbdock.cxx#4 $)

>  <Rbt.Library>
libRbt.so (2013.1, Build901 2013/11/27)

>  <Rbt.Parameter_File>
/export/apps/rDock/src/rDock_2013.1_src/data/scripts/dock_solv.prm

>  <Rbt.Receptor>
prm/blind_docking_60.prm

>  <SCORE>
-11.4361

>  <SCORE.INTER>
-8.90061

>  <SCORE.INTER.CONST>
1

>  <SCORE.INTER.POLAR>
0

>  <SCORE.INTER.ROT>
8

>  <SCORE.INTER.SOLV>
17.249

>  <SCORE.INTER.VDW>
-20.6167

>  <SCORE.INTER.norm>
-0.278144

>  <SCORE.INTRA>
-2.53726

>  <SCORE.INTRA.DIHEDRAL>
-4.56836

>  <SCORE.INTRA.DIHEDRAL.0>
10.9594

>  <SCORE.INTRA.POLAR>
0

>  <SCORE.INTRA.POLAR.0>
0

>  <SCORE.INTRA.REPUL>
0

>  <SCORE.INTRA.REPUL.0>
0

>  <SCORE.INTRA.SOLV>
-1.1603

>  <SCORE.INTRA.SOLV.lig_0>
-124.914

>  <SCORE.INTRA.VDW>
0.327078

>  <SCORE.INTRA.VDW.0>
-4.69801

>  <SCORE.INTRA.norm>
-0.0792892

>  <SCORE.RESTR>
0.00171773

>  <SCORE.RESTR.CAVITY>
0.00171773

>  <SCORE.RESTR.norm>
5.36792e-05

>  <SCORE.SYSTEM>
0

>  <SCORE.SYSTEM.CONST>
0

>  <SCORE.SYSTEM.DIHEDRAL>
0

>  <SCORE.SYSTEM.SOLV>
0

>  <SCORE.SYSTEM.norm>
0

>  <SCORE.heavy>
32

>  <SCORE.norm>
-0.35738

>  <RMSD>
52.004

$$$$
ligand
 OpenBabel11021811513D
libRbt.so/2013.1/901 2013/11/27
 32 34  0  0  0  0  0  0  0  0999 V2000
   36.9908  -23.8858   32.2618 P   0  0  1  0  0  0  0  0  0  0  0  0
   38.7798  -24.9132   34.2555 P   0  0  2  0  0  0  0  0  0  0  0  0
   37.7540  -26.1591   36.7072 P   0  0  1  0  0  0  0  0  0  0  0  0
   36.9223  -24.1726   29.6725 C   0  0  0  0  0  0  0  0  0  0  0  0
   36.3299  -24.5171   30.8925 O   0  0  0  0  0  0  0  0  0  0  0  0
   36.6843  -25.1766   28.7405 C   0  0  1  0  0  0  0  0  0  0  0  0
   35.1914  -25.3479   28.5360 O   0  0  0  0  0  0  0  0  0  0  0  0
   37.2806  -24.7945   27.3085 C   0  0  1  0  0  0  0  0  0  0  0  0
   38.3888  -25.7593   26.9517 O   0  0  0  0  0  0  0  0  0  0  0  0
   36.3662  -24.9716   26.5000 C   0  0  1  0  0  0  0  0  0  0  0  0
   36.5123  -26.3094   25.8780 O   0  0  0  0  0  0  0  0  0  0  0  0
   34.9474  -24.8989   27.3692 C   0  0  2  0  0  0  0  0  0  0  0  0
   32.9465  -20.8963   24.8470 N   0  0  0  0  0  0  0  0  0  0  0  0
   37.4704  -22.4801   31.9973 O   0  5  0  0  0  0  0  0  0  0  0  0
   39.1248  -23.5434   34.7837 O   0  5  0  0  0  0  0  0  0  0  0  0
   38.3072  -25.0475   37.5678 O   0  0  0  0  0  0  0  0  0  0  0  0
   33.3085  -22.0726   24.3591 C   0  0  0  0  0  0  0  0  0  0  0  0
   33.1488  -22.3348   22.9430 N   0  0  0  0  0  0  0  0  0  0  0  0
   35.9487  -23.9047   33.3572 O   0  0  0  0  0  0  0  0  0  0  0  0
   40.0001  -25.7948   34.3048 O   0  0  0  0  0  0  0  0  0  0  0  0
   36.4033  -26.5774   37.2458 O   0  5  0  0  0  0  0  0  0  0  0  0
   33.8130  -23.0207   25.1222 N   0  0  0  0  0  0  0  0  0  0  0  0
   38.2763  -24.8118   32.6964 O   0  0  0  0  0  0  0  0  0  0  0  0
   37.5852  -25.5791   35.1695 O   0  0  0  0  0  0  0  0  0  0  0  0
   38.7153  -27.3274   36.7328 O   0  0  0  0  0  0  0  0  0  0  0  0
   33.9773  -22.8189   26.4351 C   0  0  0  0  0  0  0  0  0  0  0  0
   33.6083  -21.6010   26.9695 C   0  0  0  0  0  0  0  0  0  0  0  0
   33.0704  -20.6025   26.1347 C   0  0  0  0  0  0  0  0  0  0  0  0
   32.6850  -19.3524   26.6501 O   0  0  0  0  0  0  0  0  0  0  0  0
   33.8665  -21.6419   28.2878 N   0  0  0  0  0  0  0  0  0  0  0  0
   34.3734  -22.8324   28.5570 C   0  0  0  0  0  0  0  0  0  0  0  0
   34.4501  -23.5536   27.4542 N   0  0  0  0  0  0  0  0  0  0  0  0
  1  5  1  6  0  0  0
  1 14  1  0  0  0  0
  1 19  2  0  0  0  0
  1 23  1  0  0  0  0
  2 15  1  1  0  0  0
  2 20  2  0  0  0  0
  2 23  1  0  0  0  0
  2 24  1  0  0  0  0
  3 16  1  1  0  0  0
  3 21  1  0  0  0  0
  3 24  1  0  0  0  0
  3 25  2  0  0  0  0
  4  5  1  0  0  0  0
  6  4  1  1  0  0  0
  6  7  1  0  0  0  0
  6  8  1  0  0  0  0
  7 12  1  0  0  0  0
  8  9  1  6  0  0  0
  8 10  1  0  0  0  0
 10 11  1  1  0  0  0
 10 12  1  0  0  0  0
 12 32  1  1  0  0  0
 13 17  2  0  0  0  0
 13 28  1  0  0  0  0
 17 18  1  0  0  0  0
 17 22  1  0  0  0  0
 22 26  2  0  0  0  0
 26 27  1  0  0  0  0
 26 32  1  0  0  0  0
 27 28  2  0  0  0  0
 27 30  1  0  0  0  0
 28 29  1  0  0  0  0
 30 31  2  0  0  0  0
 31 32  1  0  0  0  0
M  CHG  3  14  -1  15  -1  21  -1
M  END
>  <CHROM.1>
36.27548490,-57.99818437,56.27164387,60.17593959,153.58216970,-173.48110348
-153.59332393,-72.53843719,36.32490114,-24.13430434,30.56179633,0.95119042
-0.88058567,1.36311518

>  <Name>
ligand

>  <RI>
0

>  <Rbt.Current_Directory>
/home/itssahil/PROJECTS/Mol_Feturizer/New_Systems/rnas/4Y1I

>  <Rbt.Executable>
rbdock ($Id: //depot/dev/client3/rdock/2013.1/src/exe/rbdock.cxx#4 $)

>  <Rbt.Library>
libRbt.so (2013.1, Build901 2013/11/27)

>  <Rbt.Parameter_File>
/export/apps/rDock/src/rDock_2013.1_src/data/scripts/dock_solv.prm

>  <Rbt.Receptor>
prm/blind_docking_100.prm

>  <SCORE>
-6.25904

>  <SCORE.INTER>
-2.22094

>  <SCORE.INTER.CONST>
1

>  <SCORE.INTER.POLAR>
0

>  <SCORE.INTER.ROT>
8

>  <SCORE.INTER.SOLV>
18.7825

>  <SCORE.INTER.VDW>
-16.6748

>  <SCORE.INTER.norm>
-0.0694044

>  <SCORE.INTRA>
-4.04909

>  <SCORE.INTRA.DIHEDRAL>
-4.78796

>  <SCORE.INTRA.DIHEDRAL.0>
10.9594

>  <SCORE.INTRA.POLAR>
0

>  <SCORE.INTRA.POLAR.0>
0

>  <SCORE.INTRA.REPUL>
0

>  <SCORE.INTRA.REPUL.0>
0

>  <SCORE.INTRA.SOLV>
-4.48618

>  <SCORE.INTRA.SOLV.lig_0>
-124.914

>  <SCORE.INTRA.VDW>
0.587982

>  <SCORE.INTRA.VDW.0>
-4.69801

>  <SCORE.INTRA.norm>
-0.126534

>  <SCORE.RESTR>
0.0109934

>  <SCORE.RESTR.CAVITY>
0.0109934

>  <SCORE.RESTR.norm>
0.000343543

>  <SCORE.SYSTEM>
0

>  <SCORE.SYSTEM.CONST>
0

>  <SCORE.SYSTEM.DIHEDRAL>
0

>  <SCORE.SYSTEM.SOLV>
0

>  <SCORE.SYSTEM.norm>
0

>  <SCORE.heavy>
32

>  <SCORE.norm>
-0.195595

>  <RMSD>
52.014

$$$$
ligand
 OpenBabel11021811513D
libRbt.so/2013.1/901 2013/11/27
 32 34  0  0  0  0  0  0  0  0999 V2000
   34.2057  -24.4465   27.7311 P   0  0  1  0  0  0  0  0  0  0  0  0
   36.6203  -24.6982   26.2023 P   0  0  2  0  0  0  0  0  0  0  0  0
   36.3080  -25.7920   23.4965 P   0  0  1  0  0  0  0  0  0  0  0  0
   35.4328  -25.8501   29.5520 C   0  0  0  0  0  0  0  0  0  0  0  0
   34.4251  -25.8391   28.5812 O   0  0  0  0  0  0  0  0  0  0  0  0
   35.0965  -24.9770   30.5806 C   0  0  1  0  0  0  0  0  0  0  0  0
   33.8189  -25.4399   31.2539 O   0  0  0  0  0  0  0  0  0  0  0  0
   36.2133  -24.9660   31.7229 C   0  0  1  0  0  0  0  0  0  0  0  0
   36.8580  -23.5996   31.7825 O   0  0  0  0  0  0  0  0  0  0  0  0
   35.6139  -25.1350   32.7875 C   0  0  1  0  0  0  0  0  0  0  0  0
   35.3657  -23.8202   33.4259 O   0  0  0  0  0  0  0  0  0  0  0  0
   34.1667  -25.8645   32.4034 C   0  0  2  0  0  0  0  0  0  0  0  0
   35.3945  -30.1051   35.0292 N   0  0  0  0  0  0  0  0  0  0  0  0
   33.3801  -24.7238   26.4993 O   0  5  0  0  0  0  0  0  0  0  0  0
   37.1548  -25.9574   26.8372 O   0  5  0  0  0  0  0  0  0  0  0  0
   37.1440  -26.9827   23.9034 O   0  0  0  0  0  0  0  0  0  0  0  0
   35.4222  -28.8486   35.4453 C   0  0  0  0  0  0  0  0  0  0  0  0
   35.8415  -28.5576   36.8014 N   0  0  0  0  0  0  0  0  0  0  0  0
   33.5225  -23.4352   28.6238 O   0  0  0  0  0  0  0  0  0  0  0  0
   37.7681  -23.8082   25.8030 O   0  0  0  0  0  0  0  0  0  0  0  0
   35.1507  -26.2668   22.6451 O   0  5  0  0  0  0  0  0  0  0  0  0
   35.0791  -27.8455   34.6632 N   0  0  0  0  0  0  0  0  0  0  0  0
   35.6764  -23.8801   27.2675 O   0  0  0  0  0  0  0  0  0  0  0  0
   35.7324  -25.0782   24.8707 O   0  0  0  0  0  0  0  0  0  0  0  0
   37.1728  -24.8256   22.7169 O   0  0  0  0  0  0  0  0  0  0  0  0
   34.6861  -28.0711   33.4037 C   0  0  0  0  0  0  0  0  0  0  0  0
   34.6486  -29.3722   32.9445 C   0  0  0  0  0  0  0  0  0  0  0  0
   35.0192  -30.4287   33.7986 C   0  0  0  0  0  0  0  0  0  0  0  0
   34.9907  -31.7641   33.3595 O   0  0  0  0  0  0  0  0  0  0  0  0
   34.2277  -29.3396   31.6686 N   0  0  0  0  0  0  0  0  0  0  0  0
   34.0146  -28.0742   31.3522 C   0  0  0  0  0  0  0  0  0  0  0  0
   34.2876  -27.2960   32.3829 N   0  0  0  0  0  0  0  0  0  0  0  0
  1  5  1  1  0  0  0
  1 14  1  0  0  0  0
  1 19  2  0  0  0  0
  1 23  1  0  0  0  0
  2 15  1  1  0  0  0
  2 20  2  0  0  0  0
  2 23  1  0  0  0  0
  2 24  1  0  0  0  0
  3 16  1  1  0  0  0
  3 21  1  0  0  0  0
  3 24  1  0  0  0  0
  3 25  2  0  0  0  0
  4  5  1  0  0  0  0
  6  4  1  6  0  0  0
  6  7  1  0  0  0  0
  6  8  1  0  0  0  0
  7 12  1  0  0  0  0
  8  9  1  1  0  0  0
  8 10  1  0  0  0  0
 10 11  1  6  0  0  0
 10 12  1  0  0  0  0
 12 32  1  6  0  0  0
 13 17  2  0  0  0  0
 13 28  1  0  0  0  0
 17 18  1  0  0  0  0
 17 22  1  0  0  0  0
 22 26  2  0  0  0  0
 26 27  1  0  0  0  0
 26 32  1  0  0  0  0
 27 28  2  0  0  0  0
 27 30  1  0  0  0  0
 28 29  1  0  0  0  0
 30 31  2  0  0  0  0
 31 32  1  0  0  0  0
M  CHG  3  14  -1  15  -1  21  -1
M  END
>  <CHROM.1>
164.08683318,-70.07689285,48.03704184,62.43829566,66.35721464,177.23079195
65.80029350,-64.15887887,35.38983254,-26.17101311,29.36535990,0.50728039
1.44763563,-0.18108826

>  <Name>
ligand

>  <RI>
0

>  <Rbt.Current_Directory>
/home/itssahil/PROJECTS/Mol_Feturizer/New_Systems/rnas/4Y1I

>  <Rbt.Executable>
rbdock ($Id: //depot/dev/client3/rdock/2013.1/src/exe/rbdock.cxx#4 $)

>  <Rbt.Library>
libRbt.so (2013.1, Build901 2013/11/27)

>  <Rbt.Parameter_File>
/export/apps/rDock/src/rDock_2013.1_src/data/scripts/dock_solv.prm

>  <Rbt.Receptor>
prm/blind_docking_80.prm

>  <SCORE>
-15.935

>  <SCORE.INTER>
-10.3707

>  <SCORE.INTER.CONST>
1

>  <SCORE.INTER.POLAR>
0

>  <SCORE.INTER.ROT>
8

>  <SCORE.INTER.SOLV>
21.6605

>  <SCORE.INTER.VDW>
-23.0673

>  <SCORE.INTER.norm>
-0.324084

>  <SCORE.INTRA>
-5.56426

>  <SCORE.INTRA.DIHEDRAL>
-8.69404

>  <SCORE.INTRA.DIHEDRAL.0>
10.9594

>  <SCORE.INTRA.POLAR>
0

>  <SCORE.INTRA.POLAR.0>
0

>  <SCORE.INTRA.REPUL>
0

>  <SCORE.INTRA.REPUL.0>
0

>  <SCORE.INTRA.SOLV>
-2.57536

>  <SCORE.INTRA.SOLV.lig_0>
-124.914

>  <SCORE.INTRA.VDW>
0.0704366

>  <SCORE.INTRA.VDW.0>
-4.69801

>  <SCORE.INTRA.norm>
-0.173883

>  <SCORE.RESTR>
0

>  <SCORE.RESTR.CAVITY>
0

>  <SCORE.RESTR.norm>
0

>  <SCORE.SYSTEM>
0

>  <SCORE.SYSTEM.CONST>
0

>  <SCORE.SYSTEM.DIHEDRAL>
0

>  <SCORE.SYSTEM.SOLV>
0

>  <SCORE.SYSTEM.norm>
0

>  <SCORE.heavy>
32

>  <SCORE.norm>
-0.497968

>  <RMSD>
52.023

$$$$
ligand
 OpenBabel11021811513D
libRbt.so/2013.1/901 2013/11/27
 32 34  0  0  0  0  0  0  0  0999 V2000
   34.0968  -22.5767   28.8139 P   0  0  1  0  0  0  0  0  0  0  0  0
   33.3215  -21.6807   26.2010 P   0  0  2  0  0  0  0  0  0  0  0  0
   35.4930  -21.1230   24.3066 P   0  0  1  0  0  0  0  0  0  0  0  0
   36.0531  -24.2132   29.3491 C   0  0  0  0  0  0  0  0  0  0  0  0
   35.4900  -22.9578   29.6039 O   0  0  0  0  0  0  0  0  0  0  0  0
   37.3126  -24.2848   29.9337 C   0  0  1  0  0  0  0  0  0  0  0  0
   37.1874  -24.1948   31.4424 O   0  0  0  0  0  0  0  0  0  0  0  0
   38.0132  -25.6894   29.6362 C   0  0  1  0  0  0  0  0  0  0  0  0
   39.2439  -25.4674   28.7865 O   0  0  0  0  0  0  0  0  0  0  0  0
   38.3943  -26.1184   30.7280 C   0  0  1  0  0  0  0  0  0  0  0  0
   39.8245  -25.7774   30.9180 O   0  0  0  0  0  0  0  0  0  0  0  0
   37.4682  -25.3563   31.8836 C   0  0  2  0  0  0  0  0  0  0  0  0
   34.9016  -28.3318   35.1919 N   0  0  0  0  0  0  0  0  0  0  0  0
   33.1625  -23.7612   28.8242 O   0  5  0  0  0  0  0  0  0  0  0  0
   32.8293  -20.3121   26.6000 O   0  5  0  0  0  0  0  0  0  0  0  0
   35.6548  -19.7020   24.7932 O   0  0  0  0  0  0  0  0  0  0  0  0
   36.1145  -27.8181   35.3248 C   0  0  0  0  0  0  0  0  0  0  0  0
   36.8727  -28.0872   36.5299 N   0  0  0  0  0  0  0  0  0  0  0  0
   33.4644  -21.3830   29.4931 O   0  0  0  0  0  0  0  0  0  0  0  0
   32.1733  -22.6553   26.2209 O   0  0  0  0  0  0  0  0  0  0  0  0
   36.5072  -22.0038   25.0033 O   0  5  0  0  0  0  0  0  0  0  0  0
   36.6607  -27.0647   34.3922 N   0  0  0  0  0  0  0  0  0  0  0  0
   34.4643  -22.2046   27.2566 O   0  0  0  0  0  0  0  0  0  0  0  0
   33.9654  -21.6231   24.6884 O   0  0  0  0  0  0  0  0  0  0  0  0
   35.7060  -21.1587   22.8090 O   0  0  0  0  0  0  0  0  0  0  0  0
   35.9941  -26.7923   33.2639 C   0  0  0  0  0  0  0  0  0  0  0  0
   34.7277  -27.3159   33.0997 C   0  0  0  0  0  0  0  0  0  0  0  0
   34.1636  -28.1180   34.1104 C   0  0  0  0  0  0  0  0  0  0  0  0
   32.8757  -28.6648   33.9720 O   0  0  0  0  0  0  0  0  0  0  0  0
   34.2716  -26.9062   31.9037 N   0  0  0  0  0  0  0  0  0  0  0  0
   35.2146  -26.1624   31.3520 C   0  0  0  0  0  0  0  0  0  0  0  0
   36.2597  -26.0846   32.1546 N   0  0  0  0  0  0  0  0  0  0  0  0
  1  5  1  1  0  0  0
  1 14  1  0  0  0  0
  1 19  2  0  0  0  0
  1 23  1  0  0  0  0
  2 15  1  1  0  0  0
  2 20  2  0  0  0  0
  2 23  1  0  0  0  0
  2 24  1  0  0  0  0
  3 16  1  1  0  0  0
  3 21  1  0  0  0  0
  3 24  1  0  0  0  0
  3 25  2  0  0  0  0
  4  5  1  0  0  0  0
  6  4  1  6  0  0  0
  6  7  1  0  0  0  0
  6  8  1  0  0  0  0
  7 12  1  0  0  0  0
  8  9  1  6  0  0  0
  8 10  1  0  0  0  0
 10 11  1  1  0  0  0
 10 12  1  0  0  0  0
 12 32  1  6  0  0  0
 13 17  2  0  0  0  0
 13 28  1  0  0  0  0
 17 18  1  0  0  0  0
 17 22  1  0  0  0  0
 22 26  2  0  0  0  0
 26 27  1  0  0  0  0
 26 32  1  0  0  0  0
 27 28  2  0  0  0  0
 27 30  1  0  0  0  0
 28 29  1  0  0  0  0
 30 31  2  0  0  0  0
 31 32  1  0  0  0  0
M  CHG  3  14  -1  15  -1  21  -1
M  END
>  <CHROM.1>
43.05021964,67.85520197,-58.56262434,64.50753492,171.04018984,-133.41459678
-175.97141465,81.69171680,35.40276074,-24.13284843,29.42246075,1.70676401
0.14741381,-0.96978573

>  <Name>
ligand

>  <RI>
0

>  <Rbt.Current_Directory>
/home/itssahil/PROJECTS/Mol_Feturizer/New_Systems/rnas/4Y1I

>  <Rbt.Executable>
rbdock ($Id: //depot/dev/client3/rdock/2013.1/src/exe/rbdock.cxx#4 $)

>  <Rbt.Library>
libRbt.so (2013.1, Build901 2013/11/27)

>  <Rbt.Parameter_File>
/export/apps/rDock/src/rDock_2013.1_src/data/scripts/dock_solv.prm

>  <Rbt.Receptor>
prm/blind_docking_80.prm

>  <SCORE>
-13.0412

>  <SCORE.INTER>
-7.43768

>  <SCORE.INTER.CONST>
1

>  <SCORE.INTER.POLAR>
0

>  <SCORE.INTER.ROT>
8

>  <SCORE.INTER.SOLV>
21.6935

>  <SCORE.INTER.VDW>
-21.123

>  <SCORE.INTER.norm>
-0.232428

>  <SCORE.INTRA>
-5.60355

>  <SCORE.INTRA.DIHEDRAL>
-8.04556

>  <SCORE.INTRA.DIHEDRAL.0>
10.9594

>  <SCORE.INTRA.POLAR>
0

>  <SCORE.INTRA.POLAR.0>
0

>  <SCORE.INTRA.REPUL>
0

>  <SCORE.INTRA.REPUL.0>
0

>  <SCORE.INTRA.SOLV>
-4.47657

>  <SCORE.INTRA.SOLV.lig_0>
-124.914

>  <SCORE.INTRA.VDW>
0.657513

>  <SCORE.INTRA.VDW.0>
-4.69801

>  <SCORE.INTRA.norm>
-0.175111

>  <SCORE.RESTR>
0

>  <SCORE.RESTR.CAVITY>
0

>  <SCORE.RESTR.norm>
0

>  <SCORE.SYSTEM>
0

>  <SCORE.SYSTEM.CONST>
0

>  <SCORE.SYSTEM.DIHEDRAL>
0

>  <SCORE.SYSTEM.SOLV>
0

>  <SCORE.SYSTEM.norm>
0

>  <SCORE.heavy>
32

>  <SCORE.norm>
-0.407539

>  <RMSD>
52.076

$$$$
ligand
 OpenBabel11021811513D
libRbt.so/2013.1/901 2013/11/27
 32 34  0  0  0  0  0  0  0  0999 V2000
   34.9060  -25.5268   32.0704 P   0  0  1  0  0  0  0  0  0  0  0  0
   34.4210  -27.9907   33.4579 P   0  0  2  0  0  0  0  0  0  0  0  0
   35.9565  -28.3181   35.9379 P   0  0  1  0  0  0  0  0  0  0  0  0
   37.0440  -25.4121   30.5847 C   0  0  0  0  0  0  0  0  0  0  0  0
   35.9881  -26.2118   31.0360 O   0  0  0  0  0  0  0  0  0  0  0  0
   37.7057  -26.0586   29.5468 C   0  0  1  0  0  0  0  0  0  0  0  0
   36.7027  -26.5452   28.5186 O   0  0  0  0  0  0  0  0  0  0  0  0
   38.6811  -25.0614   28.7681 C   0  0  1  0  0  0  0  0  0  0  0  0
   40.1131  -25.5074   28.9593 O   0  0  0  0  0  0  0  0  0  0  0  0
   38.4144  -25.1893   27.5707 C   0  0  1  0  0  0  0  0  0  0  0  0
   39.3704  -26.1391   26.9528 O   0  0  0  0  0  0  0  0  0  0  0  0
   36.8690  -25.8058   27.4948 C   0  0  2  0  0  0  0  0  0  0  0  0
   35.6131  -21.0723   29.0447 N   0  0  0  0  0  0  0  0  0  0  0  0
   35.6324  -24.9366   33.2537 O   0  5  0  0  0  0  0  0  0  0  0  0
   35.0667  -28.9929   32.5344 O   0  5  0  0  0  0  0  0  0  0  0  0
   34.8000  -28.2839   36.9094 O   0  0  0  0  0  0  0  0  0  0  0  0
   36.7218  -21.7493   29.2998 C   0  0  0  0  0  0  0  0  0  0  0  0
   37.7557  -21.1407   30.1124 N   0  0  0  0  0  0  0  0  0  0  0  0
   34.1297  -24.4634   31.3269 O   0  0  0  0  0  0  0  0  0  0  0  0
   33.2440  -28.6273   34.1494 O   0  0  0  0  0  0  0  0  0  0  0  0
   36.2581  -29.7563   35.5770 O   0  5  0  0  0  0  0  0  0  0  0  0
   36.9196  -22.9668   28.8370 N   0  0  0  0  0  0  0  0  0  0  0  0
   33.8826  -26.6953   32.6053 O   0  0  0  0  0  0  0  0  0  0  0  0
   35.5100  -27.4856   34.5826 O   0  0  0  0  0  0  0  0  0  0  0  0
   37.1631  -27.6740   36.5848 O   0  0  0  0  0  0  0  0  0  0  0  0
   35.9896  -23.5650   28.0828 C   0  0  0  0  0  0  0  0  0  0  0  0
   34.8239  -22.8813   27.8021 C   0  0  0  0  0  0  0  0  0  0  0  0
   34.6346  -21.5804   28.3070 C   0  0  0  0  0  0  0  0  0  0  0  0
   33.4582  -20.8590   28.0376 O   0  0  0  0  0  0  0  0  0  0  0  0
   34.0589  -23.6806   27.0392 N   0  0  0  0  0  0  0  0  0  0  0  0
   34.7219  -24.8093   26.8563 C   0  0  0  0  0  0  0  0  0  0  0  0
   35.8846  -24.7593   27.4790 N   0  0  0  0  0  0  0  0  0  0  0  0
  1  5  1  6  0  0  0
  1 14  1  0  0  0  0
  1 19  2  0  0  0  0
  1 23  1  0  0  0  0
  2 15  1  6  0  0  0
  2 20  2  0  0  0  0
  2 23  1  0  0  0  0
  2 24  1  0  0  0  0
  3 16  1  1  0  0  0
  3 21  1  0  0  0  0
  3 24  1  0  0  0  0
  3 25  2  0  0  0  0
  4  5  1  0  0  0  0
  6  4  1  1  0  0  0
  6  7  1  0  0  0  0
  6  8  1  0  0  0  0
  7 12  1  0  0  0  0
  8  9  1  6  0  0  0
  8 10  1  0  0  0  0
 10 11  1  1  0  0  0
 10 12  1  0  0  0  0
 12 32  1  1  0  0  0
 13 17  2  0  0  0  0
 13 28  1  0  0  0  0
 17 18  1  0  0  0  0
 17 22  1  0  0  0  0
 22 26  2  0  0  0  0
 26 27  1  0  0  0  0
 26 32  1  0  0  0  0
 27 28  2  0  0  0  0
 27 30  1  0  0  0  0
 28 29  1  0  0  0  0
 30 31  2  0  0  0  0
 31 32  1  0  0  0  0
M  CHG  3  14  -1  15  -1  21  -1
M  END
>  <CHROM.1>
-54.04659289,-77.26541931,-71.78130634,49.33015983,-169.10000493,87.23858405
61.48507320,-78.91560525,35.90915374,-25.61467132,31.07736214,1.71505772
-0.60920387,2.25317905

>  <Name>
ligand

>  <RI>
0

>  <Rbt.Current_Directory>
/home/itssahil/PROJECTS/Mol_Feturizer/New_Systems/rnas/4Y1I

>  <Rbt.Executable>
rbdock ($Id: //depot/dev/client3/rdock/2013.1/src/exe/rbdock.cxx#4 $)

>  <Rbt.Library>
libRbt.so (2013.1, Build901 2013/11/27)

>  <Rbt.Parameter_File>
/export/apps/rDock/src/rDock_2013.1_src/data/scripts/dock_solv.prm

>  <Rbt.Receptor>
prm/blind_docking_60.prm

>  <SCORE>
-15.4482

>  <SCORE.INTER>
-9.37347

>  <SCORE.INTER.CONST>
1

>  <SCORE.INTER.POLAR>
0

>  <SCORE.INTER.ROT>
8

>  <SCORE.INTER.SOLV>
23.1287

>  <SCORE.INTER.VDW>
-22.8919

>  <SCORE.INTER.norm>
-0.292921

>  <SCORE.INTRA>
-6.08174

>  <SCORE.INTRA.DIHEDRAL>
-7.4567

>  <SCORE.INTRA.DIHEDRAL.0>
10.9594

>  <SCORE.INTRA.POLAR>
0

>  <SCORE.INTRA.POLAR.0>
0

>  <SCORE.INTRA.REPUL>
0

>  <SCORE.INTRA.REPUL.0>
0

>  <SCORE.INTRA.SOLV>
-3.6759

>  <SCORE.INTRA.SOLV.lig_0>
-124.914

>  <SCORE.INTRA.VDW>
-0.515445

>  <SCORE.INTRA.VDW.0>
-4.69801

>  <SCORE.INTRA.norm>
-0.190054

>  <SCORE.RESTR>
0.00699604

>  <SCORE.RESTR.CAVITY>
0.00699604

>  <SCORE.RESTR.norm>
0.000218626

>  <SCORE.SYSTEM>
0

>  <SCORE.SYSTEM.CONST>
0

>  <SCORE.SYSTEM.DIHEDRAL>
0

>  <SCORE.SYSTEM.SOLV>
0

>  <SCORE.SYSTEM.norm>
0

>  <SCORE.heavy>
32

>  <SCORE.norm>
-0.482757

>  <RMSD>
52.429

$$$$
ligand
 OpenBabel11021811513D
libRbt.so/2013.1/901 2013/11/27
 32 34  0  0  0  0  0  0  0  0999 V2000
   39.3889  -24.9114   31.8043 P   0  0  1  0  0  0  0  0  0  0  0  0
   39.2617  -22.0800   32.2495 P   0  0  2  0  0  0  0  0  0  0  0  0
   37.5479  -21.8694   29.8760 P   0  0  1  0  0  0  0  0  0  0  0  0
   36.9172  -25.6540   32.1656 C   0  0  0  0  0  0  0  0  0  0  0  0
   38.2307  -26.0746   31.9296 O   0  0  0  0  0  0  0  0  0  0  0  0
   36.0762  -26.7603   32.2113 C   0  0  1  0  0  0  0  0  0  0  0  0
   34.6415  -26.3104   32.4093 O   0  0  0  0  0  0  0  0  0  0  0  0
   36.0957  -27.5635   30.8305 C   0  0  1  0  0  0  0  0  0  0  0  0
   36.6828  -28.9383   31.0568 O   0  0  0  0  0  0  0  0  0  0  0  0
   34.9150  -27.7178   30.5089 C   0  0  1  0  0  0  0  0  0  0  0  0
   34.4581  -29.0591   30.9449 O   0  0  0  0  0  0  0  0  0  0  0  0
   34.0515  -26.5355   31.3031 C   0  0  2  0  0  0  0  0  0  0  0  0
   32.4908  -24.3209   26.9391 N   0  0  0  0  0  0  0  0  0  0  0  0
   40.7014  -25.4377   32.3302 O   0  5  0  0  0  0  0  0  0  0  0  0
   40.4914  -22.0471   31.3772 O   0  5  0  0  0  0  0  0  0  0  0  0
   37.0765  -23.3047   29.8725 O   0  0  0  0  0  0  0  0  0  0  0  0
   32.3582  -25.5855   27.3075 C   0  0  0  0  0  0  0  0  0  0  0  0
   31.6996  -26.5203   26.4175 N   0  0  0  0  0  0  0  0  0  0  0  0
   39.5121  -24.5031   30.3537 O   0  0  0  0  0  0  0  0  0  0  0  0
   39.4978  -21.2523   33.4856 O   0  0  0  0  0  0  0  0  0  0  0  0
   36.4173  -20.9754   29.4153 O   0  5  0  0  0  0  0  0  0  0  0  0
   32.8076  -26.0274   28.4644 N   0  0  0  0  0  0  0  0  0  0  0  0
   38.9332  -23.6204   32.7122 O   0  0  0  0  0  0  0  0  0  0  0  0
   37.9746  -21.4755   31.4227 O   0  0  0  0  0  0  0  0  0  0  0  0
   38.7346  -21.7379   28.9466 O   0  0  0  0  0  0  0  0  0  0  0  0
   33.4220  -25.1967   29.3153 C   0  0  0  0  0  0  0  0  0  0  0  0
   33.5739  -23.8729   28.9554 C   0  0  0  0  0  0  0  0  0  0  0  0
   33.0848  -23.4228   27.7140 C   0  0  0  0  0  0  0  0  0  0  0  0
   33.2241  -22.0803   27.3201 O   0  0  0  0  0  0  0  0  0  0  0  0
   34.2117  -23.2501   29.9612 N   0  0  0  0  0  0  0  0  0  0  0  0
   34.4447  -24.1491   30.9015 C   0  0  0  0  0  0  0  0  0  0  0  0
   33.9791  -25.3269   30.5296 N   0  0  0  0  0  0  0  0  0  0  0  0
  1  5  1  1  0  0  0
  1 14  1  0  0  0  0
  1 19  2  0  0  0  0
  1 23  1  0  0  0  0
  2 15  1  6  0  0  0
  2 20  2  0  0  0  0
  2 23  1  0  0  0  0
  2 24  1  0  0  0  0
  3 16  1  6  0  0  0
  3 21  1  0  0  0  0
  3 24  1  0  0  0  0
  3 25  2  0  0  0  0
  4  5  1  0  0  0  0
  6  4  1  6  0  0  0
  6  7  1  0  0  0  0
  6  8  1  0  0  0  0
  7 12  1  0  0  0  0
  8  9  1  1  0  0  0
  8 10  1  0  0  0  0
 10 11  1  1  0  0  0
 10 12  1  0  0  0  0
 12 32  1  6  0  0  0
 13 17  2  0  0  0  0
 13 28  1  0  0  0  0
 17 18  1  0  0  0  0
 17 22  1  0  0  0  0
 22 26  2  0  0  0  0
 26 27  1  0  0  0  0
 26 32  1  0  0  0  0
 27 28  2  0  0  0  0
 27 30  1  0  0  0  0
 28 29  1  0  0  0  0
 30 31  2  0  0  0  0
 31 32  1  0  0  0  0
M  CHG  3  14  -1  15  -1  21  -1
M  END
>  <CHROM.1>
147.79927403,-26.92716903,68.32883715,-177.66582372,178.65763441,-179.84579999
-144.69045706,46.59486707,36.43999168,-24.40108442,30.49713958,-0.20044095
0.56250333,2.77008625

>  <Name>
ligand

>  <RI>
0

>  <Rbt.Current_Directory>
/home/itssahil/PROJECTS/Mol_Feturizer/New_Systems/rnas/4Y1I

>  <Rbt.Executable>
rbdock ($Id: //depot/dev/client3/rdock/2013.1/src/exe/rbdock.cxx#4 $)

>  <Rbt.Library>
libRbt.so (2013.1, Build901 2013/11/27)

>  <Rbt.Parameter_File>
/export/apps/rDock/src/rDock_2013.1_src/data/scripts/dock_solv.prm

>  <Rbt.Receptor>
prm/blind_docking_60.prm

>  <SCORE>
-8.90745

>  <SCORE.INTER>
-4.90116

>  <SCORE.INTER.CONST>
1

>  <SCORE.INTER.POLAR>
0

>  <SCORE.INTER.ROT>
8

>  <SCORE.INTER.SOLV>
20.3743

>  <SCORE.INTER.VDW>
-18.9922

>  <SCORE.INTER.norm>
-0.153161

>  <SCORE.INTRA>
-4.15397

>  <SCORE.INTRA.DIHEDRAL>
-5.09557

>  <SCORE.INTRA.DIHEDRAL.0>
10.9594

>  <SCORE.INTRA.POLAR>
0

>  <SCORE.INTRA.POLAR.0>
0

>  <SCORE.INTRA.REPUL>
0

>  <SCORE.INTRA.REPUL.0>
0

>  <SCORE.INTRA.SOLV>
-0.559334

>  <SCORE.INTRA.SOLV.lig_0>
-124.914

>  <SCORE.INTRA.VDW>
-1.32652

>  <SCORE.INTRA.VDW.0>
-4.69801

>  <SCORE.INTRA.norm>
-0.129812

>  <SCORE.RESTR>
0.147675

>  <SCORE.RESTR.CAVITY>
0.147675

>  <SCORE.RESTR.norm>
0.00461485

>  <SCORE.SYSTEM>
0

>  <SCORE.SYSTEM.CONST>
0

>  <SCORE.SYSTEM.DIHEDRAL>
0

>  <SCORE.SYSTEM.SOLV>
0

>  <SCORE.SYSTEM.norm>
0

>  <SCORE.heavy>
32

>  <SCORE.norm>
-0.278358

>  <RMSD>
52.485

$$$$
ligand
 OpenBabel11021811513D
libRbt.so/2013.1/901 2013/11/27
 32 34  0  0  0  0  0  0  0  0999 V2000
   34.7024  -23.6285   29.0384 P   0  0  1  0  0  0  0  0  0  0  0  0
   33.8340  -24.5393   26.4601 P   0  0  2  0  0  0  0  0  0  0  0  0
   35.9705  -25.3593   24.6221 P   0  0  1  0  0  0  0  0  0  0  0  0
   36.9388  -24.6741   29.8729 C   0  0  0  0  0  0  0  0  0  0  0  0
   36.1088  -23.5477   29.8902 O   0  0  0  0  0  0  0  0  0  0  0  0
   37.9679  -24.5072   30.7929 C   0  0  1  0  0  0  0  0  0  0  0  0
   37.3916  -24.2150   32.1649 O   0  0  0  0  0  0  0  0  0  0  0  0
   38.8260  -25.8449   30.9551 C   0  0  1  0  0  0  0  0  0  0  0  0
   40.2348  -25.6013   30.4629 O   0  0  0  0  0  0  0  0  0  0  0  0
   38.8939  -26.0616   32.1674 C   0  0  1  0  0  0  0  0  0  0  0  0
   40.1732  -25.5261   32.6916 O   0  0  0  0  0  0  0  0  0  0  0  0
   37.6118  -25.2576   32.8628 C   0  0  2  0  0  0  0  0  0  0  0  0
   34.7560  -28.5297   35.6055 N   0  0  0  0  0  0  0  0  0  0  0  0
   33.7048  -24.4851   29.7781 O   0  5  0  0  0  0  0  0  0  0  0  0
   33.3426  -23.2091   25.9469 O   0  5  0  0  0  0  0  0  0  0  0  0
   36.8911  -25.9984   25.6351 O   0  0  0  0  0  0  0  0  0  0  0  0
   35.8858  -27.9363   35.9579 C   0  0  0  0  0  0  0  0  0  0  0  0
   36.4465  -28.1956   37.2686 N   0  0  0  0  0  0  0  0  0  0  0  0
   34.1716  -22.2262   28.8434 O   0  0  0  0  0  0  0  0  0  0  0  0
   32.6955  -25.2810   27.1101 O   0  0  0  0  0  0  0  0  0  0  0  0
   36.0545  -26.1282   23.3216 O   0  5  0  0  0  0  0  0  0  0  0  0
   36.5231  -27.1117   35.1521 N   0  0  0  0  0  0  0  0  0  0  0  0
   35.0138  -24.3168   27.5796 O   0  0  0  0  0  0  0  0  0  0  0  0
   34.4298  -25.4326   25.2140 O   0  0  0  0  0  0  0  0  0  0  0  0
   36.3917  -23.9214   24.4112 O   0  0  0  0  0  0  0  0  0  0  0  0
   36.0390  -26.8454   33.9329 C   0  0  0  0  0  0  0  0  0  0  0  0
   34.8627  -27.4513   33.5403 C   0  0  0  0  0  0  0  0  0  0  0  0
   34.1982  -28.3287   34.4187 C   0  0  0  0  0  0  0  0  0  0  0  0
   32.9982  -28.9603   34.0473 O   0  0  0  0  0  0  0  0  0  0  0  0
   34.5864  -27.0307   32.2941 N   0  0  0  0  0  0  0  0  0  0  0  0
   35.5497  -26.2016   31.9315 C   0  0  0  0  0  0  0  0  0  0  0  0
   36.4342  -26.0797   32.9037 N   0  0  0  0  0  0  0  0  0  0  0  0
  1  5  1  1  0  0  0
  1 14  1  0  0  0  0
  1 19  2  0  0  0  0
  1 23  1  0  0  0  0
  2 15  1  6  0  0  0
  2 20  2  0  0  0  0
  2 23  1  0  0  0  0
  2 24  1  0  0  0  0
  3 16  1  1  0  0  0
  3 21  1  0  0  0  0
  3 24  1  0  0  0  0
  3 25  2  0  0  0  0
  4  5  1  0  0  0  0
  6  4  1  6  0  0  0
  6  7  1  0  0  0  0
  6  8  1  0  0  0  0
  7 12  1  0  0  0  0
  8  9  1  1  0  0  0
  8 10  1  0  0  0  0
 10 11  1  1  0  0  0
 10 12  1  0  0  0  0
 12 32  1  6  0  0  0
 13 17  2  0  0  0  0
 13 28  1  0  0  0  0
 17 18  1  0  0  0  0
 17 22  1  0  0  0  0
 22 26  2  0  0  0  0
 26 27  1  0  0  0  0
 26 32  1  0  0  0  0
 27 28  2  0  0  0  0
 27 30  1  0  0  0  0
 28 29  1  0  0  0  0
 30 31  2  0  0  0  0
 31 32  1  0  0  0  0
M  CHG  3  14  -1  15  -1  21  -1
M  END
>  <CHROM.1>
75.07391919,67.00765896,71.98806012,55.22274451,-171.17308575,-146.70155994
-179.30181015,85.81707559,35.79828920,-25.51019260,29.95498024,1.69653324
-0.15618707,-1.26725389

>  <Name>
ligand

>  <RI>
0

>  <Rbt.Current_Directory>
/home/itssahil/PROJECTS/Mol_Feturizer/New_Systems/rnas/4Y1I

>  <Rbt.Executable>
rbdock ($Id: //depot/dev/client3/rdock/2013.1/src/exe/rbdock.cxx#4 $)

>  <Rbt.Library>
libRbt.so (2013.1, Build901 2013/11/27)

>  <Rbt.Parameter_File>
/export/apps/rDock/src/rDock_2013.1_src/data/scripts/dock_solv.prm

>  <Rbt.Receptor>
prm/blind_docking_60.prm

>  <SCORE>
-10.8026

>  <SCORE.INTER>
-5.26164

>  <SCORE.INTER.CONST>
1

>  <SCORE.INTER.POLAR>
0

>  <SCORE.INTER.ROT>
8

>  <SCORE.INTER.SOLV>
15.9387

>  <SCORE.INTER.VDW>
-17.754

>  <SCORE.INTER.norm>
-0.164426

>  <SCORE.INTRA>
-5.54096

>  <SCORE.INTRA.DIHEDRAL>
-7.63475

>  <SCORE.INTRA.DIHEDRAL.0>
10.9594

>  <SCORE.INTRA.POLAR>
0

>  <SCORE.INTRA.POLAR.0>
0

>  <SCORE.INTRA.REPUL>
0

>  <SCORE.INTRA.REPUL.0>
0

>  <SCORE.INTRA.SOLV>
-3.94481

>  <SCORE.INTRA.SOLV.lig_0>
-124.914

>  <SCORE.INTRA.VDW>
0.248825

>  <SCORE.INTRA.VDW.0>
-4.69801

>  <SCORE.INTRA.norm>
-0.173155

>  <SCORE.RESTR>
0

>  <SCORE.RESTR.CAVITY>
0

>  <SCORE.RESTR.norm>
0

>  <SCORE.SYSTEM>
0

>  <SCORE.SYSTEM.CONST>
0

>  <SCORE.SYSTEM.DIHEDRAL>
0

>  <SCORE.SYSTEM.SOLV>
0

>  <SCORE.SYSTEM.norm>
0

>  <SCORE.heavy>
32

>  <SCORE.norm>
-0.337581

>  <RMSD>
52.626

$$$$
ligand
 OpenBabel11021811513D
libRbt.so/2013.1/901 2013/11/27
 32 34  0  0  0  0  0  0  0  0999 V2000
   37.8487  -22.3809   30.5246 P   0  0  1  0  0  0  0  0  0  0  0  0
   37.6461  -21.7673   27.7293 P   0  0  2  0  0  0  0  0  0  0  0  0
   36.5615  -20.9793   25.1182 P   0  0  1  0  0  0  0  0  0  0  0  0
   35.6294  -23.6923   30.1424 C   0  0  0  0  0  0  0  0  0  0  0  0
   36.9783  -23.7781   30.5041 O   0  0  0  0  0  0  0  0  0  0  0  0
   35.0775  -24.9678   30.1006 C   0  0  1  0  0  0  0  0  0  0  0  0
   35.8308  -25.8239   29.1008 O   0  0  0  0  0  0  0  0  0  0  0  0
   35.2211  -25.7104   31.5077 C   0  0  1  0  0  0  0  0  0  0  0  0
   33.8475  -25.9487   32.0930 O   0  0  0  0  0  0  0  0  0  0  0  0
   35.7112  -26.8153   31.2618 C   0  0  1  0  0  0  0  0  0  0  0  0
   34.6287  -27.8241   31.1714 O   0  0  0  0  0  0  0  0  0  0  0  0
   36.4818  -26.6729   29.7921 C   0  0  2  0  0  0  0  0  0  0  0  0
   40.3620  -25.8189   33.0479 N   0  0  0  0  0  0  0  0  0  0  0  0
   37.6338  -21.6635   31.8343 O   0  5  0  0  0  0  0  0  0  0  0  0
   37.4062  -23.2311   27.4576 O   0  5  0  0  0  0  0  0  0  0  0  0
   35.6684  -19.8642   24.6273 O   0  0  0  0  0  0  0  0  0  0  0  0
   39.1447  -26.2602   33.3239 C   0  0  0  0  0  0  0  0  0  0  0  0
   38.7916  -26.5612   34.6966 N   0  0  0  0  0  0  0  0  0  0  0  0
   39.3096  -22.7159   30.3247 O   0  0  0  0  0  0  0  0  0  0  0  0
   39.0891  -21.4333   27.4558 O   0  0  0  0  0  0  0  0  0  0  0  0
   37.9322  -20.8269   24.4956 O   0  5  0  0  0  0  0  0  0  0  0  0
   38.2360  -26.4368   32.3865 N   0  0  0  0  0  0  0  0  0  0  0  0
   37.3226  -21.4196   29.3007 O   0  0  0  0  0  0  0  0  0  0  0  0
   36.6791  -20.8541   26.7613 O   0  0  0  0  0  0  0  0  0  0  0  0
   35.9513  -22.3078   24.7279 O   0  0  0  0  0  0  0  0  0  0  0  0
   38.5216  -26.1704   31.1063 C   0  0  0  0  0  0  0  0  0  0  0  0
   39.7835  -25.7085   30.7913 C   0  0  0  0  0  0  0  0  0  0  0  0
   40.7391  -25.5281   31.8097 C   0  0  0  0  0  0  0  0  0  0  0  0
   42.0327  -25.0596   31.5196 O   0  0  0  0  0  0  0  0  0  0  0  0
   39.8247  -25.5169   29.4617 N   0  0  0  0  0  0  0  0  0  0  0  0
   38.6404  -25.8453   28.9756 C   0  0  0  0  0  0  0  0  0  0  0  0
   37.8421  -26.2384   29.9506 N   0  0  0  0  0  0  0  0  0  0  0  0
  1  5  1  1  0  0  0
  1 14  1  0  0  0  0
  1 19  2  0  0  0  0
  1 23  1  0  0  0  0
  2 15  1  6  0  0  0
  2 20  2  0  0  0  0
  2 23  1  0  0  0  0
  2 24  1  0  0  0  0
  3 16  1  6  0  0  0
  3 21  1  0  0  0  0
  3 24  1  0  0  0  0
  3 25  2  0  0  0  0
  4  5  1  0  0  0  0
  6  4  1  1  0  0  0
  6  7  1  0  0  0  0
  6  8  1  0  0  0  0
  7 12  1  0  0  0  0
  8  9  1  6  0  0  0
  8 10  1  0  0  0  0
 10 11  1  6  0  0  0
 10 12  1  0  0  0  0
 12 32  1  1  0  0  0
 13 17  2  0  0  0  0
 13 28  1  0  0  0  0
 17 18  1  0  0  0  0
 17 22  1  0  0  0  0
 22 26  2  0  0  0  0
 26 27  1  0  0  0  0
 26 32  1  0  0  0  0
 27 28  2  0  0  0  0
 27 30  1  0  0  0  0
 28 29  1  0  0  0  0
 30 31  2  0  0  0  0
 31 32  1  0  0  0  0
M  CHG  3  14  -1  15  -1  21  -1
M  END
>  <CHROM.1>
83.23488679,44.87949682,-174.40288909,-58.96339178,176.39434098,130.25636277
-71.57899370,-52.67300635,37.50999631,-23.88207438,29.49167350,-1.72748614
0.32551538,2.29984300

>  <Name>
ligand

>  <RI>
0

>  <Rbt.Current_Directory>
/home/itssahil/PROJECTS/Mol_Feturizer/New_Systems/rnas/4Y1I

>  <Rbt.Executable>
rbdock ($Id: //depot/dev/client3/rdock/2013.1/src/exe/rbdock.cxx#4 $)

>  <Rbt.Library>
libRbt.so (2013.1, Build901 2013/11/27)

>  <Rbt.Parameter_File>
/export/apps/rDock/src/rDock_2013.1_src/data/scripts/dock_solv.prm

>  <Rbt.Receptor>
prm/blind_docking_80.prm

>  <SCORE>
-11.1597

>  <SCORE.INTER>
-5.43399

>  <SCORE.INTER.CONST>
1

>  <SCORE.INTER.POLAR>
0

>  <SCORE.INTER.ROT>
8

>  <SCORE.INTER.SOLV>
10.3264

>  <SCORE.INTER.VDW>
-15.9981

>  <SCORE.INTER.norm>
-0.169812

>  <SCORE.INTRA>
-5.72566

>  <SCORE.INTRA.DIHEDRAL>
-8.13961

>  <SCORE.INTRA.DIHEDRAL.0>
10.9594

>  <SCORE.INTRA.POLAR>
0

>  <SCORE.INTRA.POLAR.0>
0

>  <SCORE.INTRA.REPUL>
0

>  <SCORE.INTRA.REPUL.0>
0

>  <SCORE.INTRA.SOLV>
1.09148

>  <SCORE.INTRA.SOLV.lig_0>
-124.914

>  <SCORE.INTRA.VDW>
-2.2016

>  <SCORE.INTRA.VDW.0>
-4.69801

>  <SCORE.INTRA.norm>
-0.178927

>  <SCORE.RESTR>
0

>  <SCORE.RESTR.CAVITY>
0

>  <SCORE.RESTR.norm>
0

>  <SCORE.SYSTEM>
0

>  <SCORE.SYSTEM.CONST>
0

>  <SCORE.SYSTEM.DIHEDRAL>
0

>  <SCORE.SYSTEM.SOLV>
0

>  <SCORE.SYSTEM.norm>
0

>  <SCORE.heavy>
32

>  <SCORE.norm>
-0.348739

>  <RMSD>
52.648

$$$$
ligand
 OpenBabel11021811513D
libRbt.so/2013.1/901 2013/11/27
 32 34  0  0  0  0  0  0  0  0999 V2000
   38.9095  -24.4444   27.7190 P   0  0  1  0  0  0  0  0  0  0  0  0
   36.7314  -24.1867   25.8696 P   0  0  2  0  0  0  0  0  0  0  0  0
   36.7674  -26.1149   23.6569 P   0  0  1  0  0  0  0  0  0  0  0  0
   38.1335  -23.7060   30.0947 C   0  0  0  0  0  0  0  0  0  0  0  0
   39.2260  -24.0101   29.2751 O   0  0  0  0  0  0  0  0  0  0  0  0
   38.5890  -23.2110   31.3116 C   0  0  1  0  0  0  0  0  0  0  0  0
   37.4123  -22.7922   32.1717 O   0  0  0  0  0  0  0  0  0  0  0  0
   39.3612  -24.3346   32.1444 C   0  0  1  0  0  0  0  0  0  0  0  0
   40.8135  -23.9409   32.2932 O   0  0  0  0  0  0  0  0  0  0  0  0
   38.8620  -24.3265   33.2722 C   0  0  1  0  0  0  0  0  0  0  0  0
   39.6983  -23.4986   34.1740 O   0  0  0  0  0  0  0  0  0  0  0  0
   37.3496  -23.6472   33.1139 C   0  0  2  0  0  0  0  0  0  0  0  0
   35.3793  -28.2433   34.2882 N   0  0  0  0  0  0  0  0  0  0  0  0
   39.7764  -23.6447   26.7783 O   0  5  0  0  0  0  0  0  0  0  0  0
   37.2837  -23.0568   25.0373 O   0  5  0  0  0  0  0  0  0  0  0  0
   35.2691  -26.0229   23.4865 O   0  0  0  0  0  0  0  0  0  0  0  0
   36.3995  -27.6209   34.8579 C   0  0  0  0  0  0  0  0  0  0  0  0
   37.0960  -28.2567   35.9580 N   0  0  0  0  0  0  0  0  0  0  0  0
   39.1691  -25.9261   27.5661 O   0  0  0  0  0  0  0  0  0  0  0  0
   35.2314  -24.0719   25.9438 O   0  0  0  0  0  0  0  0  0  0  0  0
   37.4371  -25.1984   22.6564 O   0  5  0  0  0  0  0  0  0  0  0  0
   36.8068  -26.4340   34.4564 N   0  0  0  0  0  0  0  0  0  0  0  0
   37.3327  -24.1163   27.3954 O   0  0  0  0  0  0  0  0  0  0  0  0
   37.1379  -25.6294   25.1920 O   0  0  0  0  0  0  0  0  0  0  0  0
   37.2022  -27.5466   23.4319 O   0  0  0  0  0  0  0  0  0  0  0  0
   36.1909  -25.8125   33.4435 C   0  0  0  0  0  0  0  0  0  0  0  0
   35.1245  -26.4397   32.8316 C   0  0  0  0  0  0  0  0  0  0  0  0
   34.7061  -27.7080   33.2782 C   0  0  0  0  0  0  0  0  0  0  0  0
   33.6229  -28.3714   32.6751 O   0  0  0  0  0  0  0  0  0  0  0  0
   34.6809  -25.6270   31.8575 N   0  0  0  0  0  0  0  0  0  0  0  0
   35.4397  -24.5449   31.8660 C   0  0  0  0  0  0  0  0  0  0  0  0
   36.3555  -24.6396   32.8119 N   0  0  0  0  0  0  0  0  0  0  0  0
  1  5  1  1  0  0  0
  1 14  1  0  0  0  0
  1 19  2  0  0  0  0
  1 23  1  0  0  0  0
  2 15  1  6  0  0  0
  2 20  2  0  0  0  0
  2 23  1  0  0  0  0
  2 24  1  0  0  0  0
  3 16  1  6  0  0  0
  3 21  1  0  0  0  0
  3 24  1  0  0  0  0
  3 25  2  0  0  0  0
  4  5  1  0  0  0  0
  6  4  1  6  0  0  0
  6  7  1  0  0  0  0
  6  8  1  0  0  0  0
  7 12  1  0  0  0  0
  8  9  1  1  0  0  0
  8 10  1  0  0  0  0
 10 11  1  1  0  0  0
 10 12  1  0  0  0  0
 12 32  1  6  0  0  0
 13 17  2  0  0  0  0
 13 28  1  0  0  0  0
 17 18  1  0  0  0  0
 17 22  1  0  0  0  0
 22 26  2  0  0  0  0
 26 27  1  0  0  0  0
 26 32  1  0  0  0  0
 27 28  2  0  0  0  0
 27 30  1  0  0  0  0
 28 29  1  0  0  0  0
 30 31  2  0  0  0  0
 31 32  1  0  0  0  0
M  CHG  3  14  -1  15  -1  21  -1
M  END
>  <CHROM.1>
130.52393744,-69.78345001,-55.84235141,176.25264087,-172.95204865,166.76731218
169.59064348,-57.58412762,37.24597630,-25.15849835,29.39679027,-1.53518541
0.72228101,1.62335978

>  <Name>
ligand

>  <RI>
0

>  <Rbt.Current_Directory>
/home/itssahil/PROJECTS/Mol_Feturizer/New_Systems/rnas/4Y1I

>  <Rbt.Executable>
rbdock ($Id: //depot/dev/client3/rdock/2013.1/src/exe/rbdock.cxx#4 $)

>  <Rbt.Library>
libRbt.so (2013.1, Build901 2013/11/27)

>  <Rbt.Parameter_File>
/export/apps/rDock/src/rDock_2013.1_src/data/scripts/dock_solv.prm

>  <Rbt.Receptor>
prm/blind_docking_100.prm

>  <SCORE>
-12.5206

>  <SCORE.INTER>
-7.288

>  <SCORE.INTER.CONST>
1

>  <SCORE.INTER.POLAR>
0

>  <SCORE.INTER.ROT>
8

>  <SCORE.INTER.SOLV>
25.7609

>  <SCORE.INTER.VDW>
-22.379

>  <SCORE.INTER.norm>
-0.22775

>  <SCORE.INTRA>
-5.2326

>  <SCORE.INTRA.DIHEDRAL>
-6.90373

>  <SCORE.INTRA.DIHEDRAL.0>
10.9594

>  <SCORE.INTRA.POLAR>
0

>  <SCORE.INTRA.POLAR.0>
0

>  <SCORE.INTRA.REPUL>
0

>  <SCORE.INTRA.REPUL.0>
0

>  <SCORE.INTRA.SOLV>
-4.8711

>  <SCORE.INTRA.SOLV.lig_0>
-124.914

>  <SCORE.INTRA.VDW>
0.654813

>  <SCORE.INTRA.VDW.0>
-4.69801

>  <SCORE.INTRA.norm>
-0.163519

>  <SCORE.RESTR>
0

>  <SCORE.RESTR.CAVITY>
0

>  <SCORE.RESTR.norm>
0

>  <SCORE.SYSTEM>
0

>  <SCORE.SYSTEM.CONST>
0

>  <SCORE.SYSTEM.DIHEDRAL>
0

>  <SCORE.SYSTEM.SOLV>
0

>  <SCORE.SYSTEM.norm>
0

>  <SCORE.heavy>
32

>  <SCORE.norm>
-0.391269

>  <RMSD>
52.654

$$$$
ligand
 OpenBabel11021811513D
libRbt.so/2013.1/901 2013/11/27
 32 34  0  0  0  0  0  0  0  0999 V2000
   36.3689  -27.7727   32.3050 P   0  0  1  0  0  0  0  0  0  0  0  0
   34.6638  -28.5956   34.4605 P   0  0  2  0  0  0  0  0  0  0  0  0
   35.6487  -28.4836   37.2233 P   0  0  1  0  0  0  0  0  0  0  0  0
   38.0658  -26.5560   30.7456 C   0  0  0  0  0  0  0  0  0  0  0  0
   37.4440  -26.5641   31.9991 O   0  0  0  0  0  0  0  0  0  0  0  0
   38.9273  -25.4679   30.6612 C   0  0  1  0  0  0  0  0  0  0  0  0
   39.6669  -25.4963   29.3376 O   0  0  0  0  0  0  0  0  0  0  0  0
   38.1243  -24.0870   30.6837 C   0  0  1  0  0  0  0  0  0  0  0  0
   38.4807  -23.3185   31.9361 O   0  0  0  0  0  0  0  0  0  0  0  0
   38.5404  -23.4349   29.7229 C   0  0  1  0  0  0  0  0  0  0  0  0
   39.5895  -22.4946   30.1845 O   0  0  0  0  0  0  0  0  0  0  0  0
   39.1903  -24.5336   28.6531 C   0  0  2  0  0  0  0  0  0  0  0  0
   36.8415  -23.9031   24.1286 N   0  0  0  0  0  0  0  0  0  0  0  0
   35.2632  -27.7456   31.2789 O   0  5  0  0  0  0  0  0  0  0  0  0
   35.1655  -30.0066   34.2824 O   0  5  0  0  0  0  0  0  0  0  0  0
   36.1090  -29.9209   37.1557 O   0  0  0  0  0  0  0  0  0  0  0  0
   37.7950  -23.1584   24.6661 C   0  0  0  0  0  0  0  0  0  0  0  0
   38.2877  -22.0033   23.9432 N   0  0  0  0  0  0  0  0  0  0  0  0
   37.1026  -29.0944   32.2747 O   0  0  0  0  0  0  0  0  0  0  0  0
   33.3326  -28.4429   33.7725 O   0  0  0  0  0  0  0  0  0  0  0  0
   36.8264  -27.5729   36.9525 O   0  5  0  0  0  0  0  0  0  0  0  0
   38.3159  -23.4330   25.8446 N   0  0  0  0  0  0  0  0  0  0  0  0
   35.7175  -27.5284   33.7931 O   0  0  0  0  0  0  0  0  0  0  0  0
   34.4945  -28.2616   36.0623 O   0  0  0  0  0  0  0  0  0  0  0  0
   35.0793  -28.2124   38.5986 O   0  0  0  0  0  0  0  0  0  0  0  0
   37.8888  -24.4907   26.5450 C   0  0  0  0  0  0  0  0  0  0  0  0
   36.8950  -25.2836   26.0077 C   0  0  0  0  0  0  0  0  0  0  0  0
   36.3536  -24.9713   24.7458 C   0  0  0  0  0  0  0  0  0  0  0  0
   35.3409  -25.7604   24.1725 O   0  0  0  0  0  0  0  0  0  0  0  0
   36.6421  -26.2680   26.8871 N   0  0  0  0  0  0  0  0  0  0  0  0
   37.4437  -26.0915   27.9230 C   0  0  0  0  0  0  0  0  0  0  0  0
   38.1994  -25.0255   27.7364 N   0  0  0  0  0  0  0  0  0  0  0  0
  1  5  1  6  0  0  0
  1 14  1  0  0  0  0
  1 19  2  0  0  0  0
  1 23  1  0  0  0  0
  2 15  1  6  0  0  0
  2 20  2  0  0  0  0
  2 23  1  0  0  0  0
  2 24  1  0  0  0  0
  3 16  1  6  0  0  0
  3 21  1  0  0  0  0
  3 24  1  0  0  0  0
  3 25  2  0  0  0  0
  4  5  1  0  0  0  0
  6  4  1  6  0  0  0
  6  7  1  0  0  0  0
  6  8  1  0  0  0  0
  7 12  1  0  0  0  0
  8  9  1  1  0  0  0
  8 10  1  0  0  0  0
 10 11  1  1  0  0  0
 10 12  1  0  0  0  0
 12 32  1  6  0  0  0
 13 17  2  0  0  0  0
 13 28  1  0  0  0  0
 17 18  1  0  0  0  0
 17 22  1  0  0  0  0
 22 26  2  0  0  0  0
 26 27  1  0  0  0  0
 26 32  1  0  0  0  0
 27 28  2  0  0  0  0
 27 30  1  0  0  0  0
 28 29  1  0  0  0  0
 30 31  2  0  0  0  0
 31 32  1  0  0  0  0
M  CHG  3  14  -1  15  -1  21  -1
M  END
>  <CHROM.1>
-58.19777622,45.35842838,-54.39002934,176.68290179,179.59029151,-150.85275220
-176.45104207,51.62315051,36.80092552,-26.38022418,31.10454268,1.86808420
0.78372761,1.78075846

>  <Name>
ligand

>  <RI>
0

>  <Rbt.Current_Directory>
/home/itssahil/PROJECTS/Mol_Feturizer/New_Systems/rnas/4Y1I

>  <Rbt.Executable>
rbdock ($Id: //depot/dev/client3/rdock/2013.1/src/exe/rbdock.cxx#4 $)

>  <Rbt.Library>
libRbt.so (2013.1, Build901 2013/11/27)

>  <Rbt.Parameter_File>
/export/apps/rDock/src/rDock_2013.1_src/data/scripts/dock_solv.prm

>  <Rbt.Receptor>
prm/blind_docking_80.prm

>  <SCORE>
-10.8868

>  <SCORE.INTER>
-5.37038

>  <SCORE.INTER.CONST>
1

>  <SCORE.INTER.POLAR>
0

>  <SCORE.INTER.ROT>
8

>  <SCORE.INTER.SOLV>
17.8929

>  <SCORE.INTER.VDW>
-18.4779

>  <SCORE.INTER.norm>
-0.167825

>  <SCORE.INTRA>
-5.51638

>  <SCORE.INTRA.DIHEDRAL>
-9.15909

>  <SCORE.INTRA.DIHEDRAL.0>
10.9594

>  <SCORE.INTRA.POLAR>
0

>  <SCORE.INTRA.POLAR.0>
0

>  <SCORE.INTRA.REPUL>
0

>  <SCORE.INTRA.REPUL.0>
0

>  <SCORE.INTRA.SOLV>
-3.74234

>  <SCORE.INTRA.SOLV.lig_0>
-124.914

>  <SCORE.INTRA.VDW>
0.934332

>  <SCORE.INTRA.VDW.0>
-4.69801

>  <SCORE.INTRA.norm>
-0.172387

>  <SCORE.RESTR>
0

>  <SCORE.RESTR.CAVITY>
0

>  <SCORE.RESTR.norm>
0

>  <SCORE.SYSTEM>
0

>  <SCORE.SYSTEM.CONST>
0

>  <SCORE.SYSTEM.DIHEDRAL>
0

>  <SCORE.SYSTEM.SOLV>
0

>  <SCORE.SYSTEM.norm>
0

>  <SCORE.heavy>
32

>  <SCORE.norm>
-0.340212

>  <RMSD>
52.741

$$$$
ligand
 OpenBabel11021811513D
libRbt.so/2013.1/901 2013/11/27
 32 34  0  0  0  0  0  0  0  0999 V2000
   34.8876  -25.1947   28.6856 P   0  0  1  0  0  0  0  0  0  0  0  0
   36.7538  -24.2138   26.7397 P   0  0  2  0  0  0  0  0  0  0  0  0
   39.1019  -22.6254   25.9790 P   0  0  1  0  0  0  0  0  0  0  0  0
   35.2781  -26.3885   30.9689 C   0  0  0  0  0  0  0  0  0  0  0  0
   34.7710  -26.5088   29.6703 O   0  0  0  0  0  0  0  0  0  0  0  0
   35.8446  -27.5966   31.3602 C   0  0  1  0  0  0  0  0  0  0  0  0
   37.0346  -27.9190   30.4771 O   0  0  0  0  0  0  0  0  0  0  0  0
   36.4151  -27.5160   32.8502 C   0  0  1  0  0  0  0  0  0  0  0  0
   35.6313  -28.4542   33.7401 O   0  0  0  0  0  0  0  0  0  0  0  0
   37.5711  -27.9426   32.7963 C   0  0  1  0  0  0  0  0  0  0  0  0
   37.5853  -29.3742   33.1813 O   0  0  0  0  0  0  0  0  0  0  0  0
   38.0631  -27.7730   31.2142 C   0  0  2  0  0  0  0  0  0  0  0  0
   39.7449  -23.3863   33.2911 N   0  0  0  0  0  0  0  0  0  0  0  0
   33.8700  -25.2949   27.5763 O   0  5  0  0  0  0  0  0  0  0  0  0
   35.9786  -22.9222   26.8128 O   0  5  0  0  0  0  0  0  0  0  0  0
   38.6989  -22.6536   24.5233 O   0  0  0  0  0  0  0  0  0  0  0  0
   39.2102  -24.4300   33.9055 C   0  0  0  0  0  0  0  0  0  0  0  0
   39.0480  -24.4017   35.3451 N   0  0  0  0  0  0  0  0  0  0  0  0
   34.6662  -23.9477   29.5116 O   0  0  0  0  0  0  0  0  0  0  0  0
   36.3855  -24.9525   25.4798 O   0  0  0  0  0  0  0  0  0  0  0  0
   38.6362  -21.3250   26.5969 O   0  5  0  0  0  0  0  0  0  0  0  0
   38.8172  -25.5022   33.2485 N   0  0  0  0  0  0  0  0  0  0  0  0
   36.3915  -25.1685   28.0250 O   0  0  0  0  0  0  0  0  0  0  0  0
   38.3678  -23.8965   26.7372 O   0  0  0  0  0  0  0  0  0  0  0  0
   40.6071  -22.7447   26.0764 O   0  0  0  0  0  0  0  0  0  0  0  0
   38.9491  -25.5686   31.9181 C   0  0  0  0  0  0  0  0  0  0  0  0
   39.5032  -24.4937   31.2528 C   0  0  0  0  0  0  0  0  0  0  0  0
   39.9169  -23.3584   31.9760 C   0  0  0  0  0  0  0  0  0  0  0  0
   40.4852  -22.2485   31.3263 O   0  0  0  0  0  0  0  0  0  0  0  0
   39.5285  -24.7966   29.9437 N   0  0  0  0  0  0  0  0  0  0  0  0
   39.0122  -26.0053   29.8051 C   0  0  0  0  0  0  0  0  0  0  0  0
   38.6555  -26.4847   30.9820 N   0  0  0  0  0  0  0  0  0  0  0  0
  1  5  1  1  0  0  0
  1 14  1  0  0  0  0
  1 19  2  0  0  0  0
  1 23  1  0  0  0  0
  2 15  1  1  0  0  0
  2 20  2  0  0  0  0
  2 23  1  0  0  0  0
  2 24  1  0  0  0  0
  3 16  1  6  0  0  0
  3 21  1  0  0  0  0
  3 24  1  0  0  0  0
  3 25  2  0  0  0  0
  4  5  1  0  0  0  0
  6  4  1  6  0  0  0
  6  7  1  0  0  0  0
  6  8  1  0  0  0  0
  7 12  1  0  0  0  0
  8  9  1  1  0  0  0
  8 10  1  0  0  0  0
 10 11  1  6  0  0  0
 10 12  1  0  0  0  0
 12 32  1  1  0  0  0
 13 17  2  0  0  0  0
 13 28  1  0  0  0  0
 17 18  1  0  0  0  0
 17 22  1  0  0  0  0
 22 26  2  0  0  0  0
 26 27  1  0  0  0  0
 26 32  1  0  0  0  0
 27 28  2  0  0  0  0
 27 30  1  0  0  0  0
 28 29  1  0  0  0  0
 30 31  2  0  0  0  0
 31 32  1  0  0  0  0
M  CHG  3  14  -1  15  -1  21  -1
M  END
>  <CHROM.1>
-158.40144362,34.31353886,-54.77946754,64.02910306,-144.26946706,126.98809333
165.59439187,-37.30571475,37.53531324,-25.01441293,29.64130337,1.53393353
-0.60503986,-1.09838454

>  <Name>
ligand

>  <RI>
0

>  <Rbt.Current_Directory>
/home/itssahil/PROJECTS/Mol_Feturizer/New_Systems/rnas/4Y1I

>  <Rbt.Executable>
rbdock ($Id: //depot/dev/client3/rdock/2013.1/src/exe/rbdock.cxx#4 $)

>  <Rbt.Library>
libRbt.so (2013.1, Build901 2013/11/27)

>  <Rbt.Parameter_File>
/export/apps/rDock/src/rDock_2013.1_src/data/scripts/dock_solv.prm

>  <Rbt.Receptor>
prm/blind_docking_80.prm

>  <SCORE>
-5.08121

>  <SCORE.INTER>
-1.9477

>  <SCORE.INTER.CONST>
1

>  <SCORE.INTER.POLAR>
0

>  <SCORE.INTER.ROT>
8

>  <SCORE.INTER.SOLV>
11.3507

>  <SCORE.INTER.VDW>
-14.0154

>  <SCORE.INTER.norm>
-0.0608655

>  <SCORE.INTRA>
-3.13351

>  <SCORE.INTRA.DIHEDRAL>
-2.24476

>  <SCORE.INTRA.DIHEDRAL.0>
10.9594

>  <SCORE.INTRA.POLAR>
0

>  <SCORE.INTRA.POLAR.0>
0

>  <SCORE.INTRA.REPUL>
0

>  <SCORE.INTRA.REPUL.0>
0

>  <SCORE.INTRA.SOLV>
-3.30036

>  <SCORE.INTRA.SOLV.lig_0>
-124.914

>  <SCORE.INTRA.VDW>
-0.360947

>  <SCORE.INTRA.VDW.0>
-4.69801

>  <SCORE.INTRA.norm>
-0.0979222

>  <SCORE.RESTR>
0

>  <SCORE.RESTR.CAVITY>
0

>  <SCORE.RESTR.norm>
0

>  <SCORE.SYSTEM>
0

>  <SCORE.SYSTEM.CONST>
0

>  <SCORE.SYSTEM.DIHEDRAL>
0

>  <SCORE.SYSTEM.SOLV>
0

>  <SCORE.SYSTEM.norm>
0

>  <SCORE.heavy>
32

>  <SCORE.norm>
-0.158788

>  <RMSD>
52.832

$$$$
ligand
 OpenBabel11021811513D
libRbt.so/2013.1/901 2013/11/27
 32 34  0  0  0  0  0  0  0  0999 V2000
   35.7889  -25.3017   28.9398 P   0  0  1  0  0  0  0  0  0  0  0  0
   34.8110  -24.6831   26.3145 P   0  0  2  0  0  0  0  0  0  0  0  0
   36.4144  -25.3176   23.9392 P   0  0  1  0  0  0  0  0  0  0  0  0
   36.5485  -26.5657   31.0885 C   0  0  0  0  0  0  0  0  0  0  0  0
   36.4531  -26.6062   29.6930 O   0  0  0  0  0  0  0  0  0  0  0  0
   37.0818  -27.7629   31.5527 C   0  0  1  0  0  0  0  0  0  0  0  0
   38.4929  -27.9384   31.0256 O   0  0  0  0  0  0  0  0  0  0  0  0
   37.2067  -27.7655   33.1454 C   0  0  1  0  0  0  0  0  0  0  0  0
   36.2869  -28.8189   33.7201 O   0  0  0  0  0  0  0  0  0  0  0  0
   38.3633  -28.1127   33.3962 C   0  0  1  0  0  0  0  0  0  0  0  0
   38.3883  -29.5667   33.6848 O   0  0  0  0  0  0  0  0  0  0  0  0
   39.2601  -27.7871   32.0311 C   0  0  2  0  0  0  0  0  0  0  0  0
   38.8911  -23.0638   34.0159 N   0  0  0  0  0  0  0  0  0  0  0  0
   34.3954  -25.0620   29.4659 O   0  5  0  0  0  0  0  0  0  0  0  0
   35.2567  -23.2450   26.4007 O   0  5  0  0  0  0  0  0  0  0  0  0
   37.2361  -24.0994   24.2899 O   0  0  0  0  0  0  0  0  0  0  0  0
   38.1418  -24.1228   34.2799 C   0  0  0  0  0  0  0  0  0  0  0  0
   37.0626  -24.0090   35.2400 N   0  0  0  0  0  0  0  0  0  0  0  0
   36.6727  -24.0990   29.1819 O   0  0  0  0  0  0  0  0  0  0  0  0
   33.3637  -24.7878   26.7183 O   0  0  0  0  0  0  0  0  0  0  0  0
   37.1725  -26.5614   24.3493 O   0  5  0  0  0  0  0  0  0  0  0  0
   38.3448  -25.2860   33.6955 N   0  0  0  0  0  0  0  0  0  0  0  0
   35.7012  -25.6166   27.3299 O   0  0  0  0  0  0  0  0  0  0  0  0
   34.9915  -25.2319   24.7743 O   0  0  0  0  0  0  0  0  0  0  0  0
   36.1569  -25.3262   22.4483 O   0  0  0  0  0  0  0  0  0  0  0  0
   39.3309  -25.4334   32.8026 C   0  0  0  0  0  0  0  0  0  0  0  0
   40.1268  -24.3447   32.5087 C   0  0  0  0  0  0  0  0  0  0  0  0
   39.8918  -23.1113   33.1463 C   0  0  0  0  0  0  0  0  0  0  0  0
   40.6860  -21.9849   32.8680 O   0  0  0  0  0  0  0  0  0  0  0  0
   41.0325  -24.7389   31.5973 N   0  0  0  0  0  0  0  0  0  0  0  0
   40.8065  -26.0151   31.3383 C   0  0  0  0  0  0  0  0  0  0  0  0
   39.7848  -26.4497   32.0522 N   0  0  0  0  0  0  0  0  0  0  0  0
  1  5  1  1  0  0  0
  1 14  1  0  0  0  0
  1 19  2  0  0  0  0
  1 23  1  0  0  0  0
  2 15  1  1  0  0  0
  2 20  2  0  0  0  0
  2 23  1  0  0  0  0
  2 24  1  0  0  0  0
  3 16  1  1  0  0  0
  3 21  1  0  0  0  0
  3 24  1  0  0  0  0
  3 25  2  0  0  0  0
  4  5  1  0  0  0  0
  6  4  1  6  0  0  0
  6  7  1  0  0  0  0
  6  8  1  0  0  0  0
  7 12  1  0  0  0  0
  8  9  1  1  0  0  0
  8 10  1  0  0  0  0
 10 11  1  6  0  0  0
 10 12  1  0  0  0  0
 12 32  1  1  0  0  0
 13 17  2  0  0  0  0
 13 28  1  0  0  0  0
 17 18  1  0  0  0  0
 17 22  1  0  0  0  0
 22 26  2  0  0  0  0
 26 27  1  0  0  0  0
 26 32  1  0  0  0  0
 27 28  2  0  0  0  0
 27 30  1  0  0  0  0
 28 29  1  0  0  0  0
 30 31  2  0  0  0  0
 31 32  1  0  0  0  0
M  CHG  3  14  -1  15  -1  21  -1
M  END
>  <CHROM.1>
-57.74204946,56.77936405,-38.01180641,63.14554852,177.71119054,99.54474654
166.83505263,60.58989225,37.22338248,-25.54408875,29.66705822,2.25054151
-0.98205411,-0.88101505

>  <Name>
ligand

>  <RI>
0

>  <Rbt.Current_Directory>
/home/itssahil/PROJECTS/Mol_Feturizer/New_Systems/rnas/4Y1I

>  <Rbt.Executable>
rbdock ($Id: //depot/dev/client3/rdock/2013.1/src/exe/rbdock.cxx#4 $)

>  <Rbt.Library>
libRbt.so (2013.1, Build901 2013/11/27)

>  <Rbt.Parameter_File>
/export/apps/rDock/src/rDock_2013.1_src/data/scripts/dock_solv.prm

>  <Rbt.Receptor>
prm/blind_docking_60.prm

>  <SCORE>
-10.6986

>  <SCORE.INTER>
-4.66683

>  <SCORE.INTER.CONST>
1

>  <SCORE.INTER.POLAR>
0

>  <SCORE.INTER.ROT>
8

>  <SCORE.INTER.SOLV>
17.2513

>  <SCORE.INTER.VDW>
-17.795

>  <SCORE.INTER.norm>
-0.145838

>  <SCORE.INTRA>
-6.0318

>  <SCORE.INTRA.DIHEDRAL>
-8.63927

>  <SCORE.INTRA.DIHEDRAL.0>
10.9594

>  <SCORE.INTRA.POLAR>
0

>  <SCORE.INTRA.POLAR.0>
0

>  <SCORE.INTRA.REPUL>
0

>  <SCORE.INTRA.REPUL.0>
0

>  <SCORE.INTRA.SOLV>
-3.88326

>  <SCORE.INTRA.SOLV.lig_0>
-124.914

>  <SCORE.INTRA.VDW>
0.229462

>  <SCORE.INTRA.VDW.0>
-4.69801

>  <SCORE.INTRA.norm>
-0.188494

>  <SCORE.RESTR>
0

>  <SCORE.RESTR.CAVITY>
0

>  <SCORE.RESTR.norm>
0

>  <SCORE.SYSTEM>
0

>  <SCORE.SYSTEM.CONST>
0

>  <SCORE.SYSTEM.DIHEDRAL>
0

>  <SCORE.SYSTEM.SOLV>
0

>  <SCORE.SYSTEM.norm>
0

>  <SCORE.heavy>
32

>  <SCORE.norm>
-0.334332

>  <RMSD>
52.869

$$$$
ligand
 OpenBabel11021811513D
libRbt.so/2013.1/901 2013/11/27
 32 34  0  0  0  0  0  0  0  0999 V2000
   40.3366  -25.1487   31.5005 P   0  0  1  0  0  0  0  0  0  0  0  0
   39.6389  -26.8841   33.6760 P   0  0  2  0  0  0  0  0  0  0  0  0
   38.0230  -29.3342   33.6430 P   0  0  1  0  0  0  0  0  0  0  0  0
   39.5032  -23.9244   29.3563 C   0  0  0  0  0  0  0  0  0  0  0  0
   40.0564  -25.0985   29.8791 O   0  0  0  0  0  0  0  0  0  0  0  0
   39.3278  -24.0642   27.9841 C   0  0  1  0  0  0  0  0  0  0  0  0
   39.2208  -25.5336   27.6243 O   0  0  0  0  0  0  0  0  0  0  0  0
   37.9598  -23.3953   27.5012 C   0  0  1  0  0  0  0  0  0  0  0  0
   38.2651  -22.2300   26.5873 O   0  0  0  0  0  0  0  0  0  0  0  0
   37.3824  -24.2498   26.8247 C   0  0  1  0  0  0  0  0  0  0  0  0
   37.6642  -24.0129   25.3886 O   0  0  0  0  0  0  0  0  0  0  0  0
   38.0055  -25.7219   27.2926 C   0  0  2  0  0  0  0  0  0  0  0  0
   33.4619  -26.1461   29.6509 N   0  0  0  0  0  0  0  0  0  0  0  0
   41.8129  -24.9930   31.7695 O   0  5  0  0  0  0  0  0  0  0  0  0
   38.4457  -26.1178   34.1892 O   0  5  0  0  0  0  0  0  0  0  0  0
   37.5693  -29.0253   32.2355 O   0  0  0  0  0  0  0  0  0  0  0  0
   33.7510  -25.4752   28.5467 C   0  0  0  0  0  0  0  0  0  0  0  0
   32.7026  -24.7449   27.8633 N   0  0  0  0  0  0  0  0  0  0  0  0
   39.5464  -24.0437   32.1643 O   0  0  0  0  0  0  0  0  0  0  0  0
   40.8794  -26.4297   34.3993 O   0  0  0  0  0  0  0  0  0  0  0  0
   38.2879  -30.8191   33.7636 O   0  5  0  0  0  0  0  0  0  0  0  0
   34.9682  -25.4483   28.0435 N   0  0  0  0  0  0  0  0  0  0  0  0
   39.8447  -26.6087   32.0708 O   0  0  0  0  0  0  0  0  0  0  0  0
   39.4174  -28.4948   33.9263 O   0  0  0  0  0  0  0  0  0  0  0  0
   36.9414  -28.9124   34.6134 O   0  0  0  0  0  0  0  0  0  0  0  0
   35.9651  -26.1093   28.6442 C   0  0  0  0  0  0  0  0  0  0  0  0
   35.6910  -26.8165   29.7974 C   0  0  0  0  0  0  0  0  0  0  0  0
   34.3821  -26.8317   30.3166 C   0  0  0  0  0  0  0  0  0  0  0  0
   34.0721  -27.5433   31.4890 O   0  0  0  0  0  0  0  0  0  0  0  0
   36.8376  -27.3864   30.2056 N   0  0  0  0  0  0  0  0  0  0  0  0
   37.7797  -27.0464   29.3434 C   0  0  0  0  0  0  0  0  0  0  0  0
   37.2742  -26.2759   28.3983 N   0  0  0  0  0  0  0  0  0  0  0  0
  1  5  1  6  0  0  0
  1 14  1  0  0  0  0
  1 19  2  0  0  0  0
  1 23  1  0  0  0  0
  2 15  1  1  0  0  0
  2 20  2  0  0  0  0
  2 23  1  0  0  0  0
  2 24  1  0  0  0  0
  3 16  1  6  0  0  0
  3 21  1  0  0  0  0
  3 24  1  0  0  0  0
  3 25  2  0  0  0  0
  4  5  1  0  0  0  0
  6  4  1  1  0  0  0
  6  7  1  0  0  0  0
  6  8  1  0  0  0  0
  7 12  1  0  0  0  0
  8  9  1  6  0  0  0
  8 10  1  0  0  0  0
 10 11  1  6  0  0  0
 10 12  1  0  0  0  0
 12 32  1  1  0  0  0
 13 17  2  0  0  0  0
 13 28  1  0  0  0  0
 17 18  1  0  0  0  0
 17 22  1  0  0  0  0
 22 26  2  0  0  0  0
 26 27  1  0  0  0  0
 26 32  1  0  0  0  0
 27 28  2  0  0  0  0
 27 30  1  0  0  0  0
 28 29  1  0  0  0  0
 30 31  2  0  0  0  0
 31 32  1  0  0  0  0
M  CHG  3  14  -1  15  -1  21  -1
M  END
>  <CHROM.1>
-104.61221385,69.53222420,51.27221025,23.89086411,-179.55464302,150.82061623
-165.20506748,43.89453123,37.91837474,-26.21606028,30.63992486,-1.24320075
-0.36770719,-0.94197483

>  <Name>
ligand

>  <RI>
0

>  <Rbt.Current_Directory>
/home/itssahil/PROJECTS/Mol_Feturizer/New_Systems/rnas/4Y1I

>  <Rbt.Executable>
rbdock ($Id: //depot/dev/client3/rdock/2013.1/src/exe/rbdock.cxx#4 $)

>  <Rbt.Library>
libRbt.so (2013.1, Build901 2013/11/27)

>  <Rbt.Parameter_File>
/export/apps/rDock/src/rDock_2013.1_src/data/scripts/dock_solv.prm

>  <Rbt.Receptor>
prm/blind_docking_80.prm

>  <SCORE>
-9.23791

>  <SCORE.INTER>
-5.77124

>  <SCORE.INTER.CONST>
1

>  <SCORE.INTER.POLAR>
0

>  <SCORE.INTER.ROT>
8

>  <SCORE.INTER.SOLV>
23.0027

>  <SCORE.INTER.VDW>
-20.4484

>  <SCORE.INTER.norm>
-0.180351

>  <SCORE.INTRA>
-3.46667

>  <SCORE.INTRA.DIHEDRAL>
-3.30882

>  <SCORE.INTRA.DIHEDRAL.0>
10.9594

>  <SCORE.INTRA.POLAR>
0

>  <SCORE.INTRA.POLAR.0>
0

>  <SCORE.INTRA.REPUL>
0

>  <SCORE.INTRA.REPUL.0>
0

>  <SCORE.INTRA.SOLV>
-3.87279

>  <SCORE.INTRA.SOLV.lig_0>
-124.914

>  <SCORE.INTRA.VDW>
0.124135

>  <SCORE.INTRA.VDW.0>
-4.69801

>  <SCORE.INTRA.norm>
-0.108333

>  <SCORE.RESTR>
0

>  <SCORE.RESTR.CAVITY>
0

>  <SCORE.RESTR.norm>
0

>  <SCORE.SYSTEM>
0

>  <SCORE.SYSTEM.CONST>
0

>  <SCORE.SYSTEM.DIHEDRAL>
0

>  <SCORE.SYSTEM.SOLV>
0

>  <SCORE.SYSTEM.norm>
0

>  <SCORE.heavy>
32

>  <SCORE.norm>
-0.288685

>  <RMSD>
52.903

$$$$
ligand
 OpenBabel11021811513D
libRbt.so/2013.1/901 2013/11/27
 32 34  0  0  0  0  0  0  0  0999 V2000
   36.9127  -22.2309   28.5771 P   0  0  1  0  0  0  0  0  0  0  0  0
   34.0487  -22.2494   28.4101 P   0  0  2  0  0  0  0  0  0  0  0  0
   32.7664  -20.9923   26.0882 P   0  0  1  0  0  0  0  0  0  0  0  0
   38.0885  -24.1826   29.8419 C   0  0  0  0  0  0  0  0  0  0  0  0
   38.1220  -23.3379   28.7269 O   0  0  0  0  0  0  0  0  0  0  0  0
   38.5259  -23.4880   30.9643 C   0  0  1  0  0  0  0  0  0  0  0  0
   37.3381  -22.9093   31.7087 O   0  0  0  0  0  0  0  0  0  0  0  0
   39.2600  -24.4584   31.9995 C   0  0  1  0  0  0  0  0  0  0  0  0
   40.7153  -24.0642   32.1129 O   0  0  0  0  0  0  0  0  0  0  0  0
   38.7364  -24.2461   33.0959 C   0  0  1  0  0  0  0  0  0  0  0  0
   39.5671  -23.2842   33.8593 O   0  0  0  0  0  0  0  0  0  0  0  0
   37.2400  -23.5849   32.7840 C   0  0  2  0  0  0  0  0  0  0  0  0
   35.3944  -28.0718   34.4713 N   0  0  0  0  0  0  0  0  0  0  0  0
   37.0172  -21.2067   29.6799 O   0  5  0  0  0  0  0  0  0  0  0  0
   33.8575  -21.0993   29.3667 O   0  5  0  0  0  0  0  0  0  0  0  0
   32.6710  -19.5569   26.5496 O   0  0  0  0  0  0  0  0  0  0  0  0
   36.4465  -27.4015   34.9145 C   0  0  0  0  0  0  0  0  0  0  0  0
   37.2231  -27.9415   36.0121 N   0  0  0  0  0  0  0  0  0  0  0  0
   37.0197  -21.5757   27.2186 O   0  0  0  0  0  0  0  0  0  0  0  0
   32.9318  -23.2442   28.5877 O   0  0  0  0  0  0  0  0  0  0  0  0
   32.9975  -21.0180   24.5930 O   0  5  0  0  0  0  0  0  0  0  0  0
   36.8150  -26.2513   34.3882 N   0  0  0  0  0  0  0  0  0  0  0  0
   35.4723  -23.0093   28.7109 O   0  0  0  0  0  0  0  0  0  0  0  0
   34.0467  -21.6937   26.8618 O   0  0  0  0  0  0  0  0  0  0  0  0
   31.4788  -21.7079   26.4338 O   0  0  0  0  0  0  0  0  0  0  0  0
   36.1250  -25.7180   33.3728 C   0  0  0  0  0  0  0  0  0  0  0  0
   35.0238  -26.3968   32.8913 C   0  0  0  0  0  0  0  0  0  0  0  0
   34.6481  -27.6244   33.4699 C   0  0  0  0  0  0  0  0  0  0  0  0
   33.5311  -28.3385   33.0014 O   0  0  0  0  0  0  0  0  0  0  0  0
   34.5068  -25.6693   31.8865 N   0  0  0  0  0  0  0  0  0  0  0  0
   35.2553  -24.5884   31.7519 C   0  0  0  0  0  0  0  0  0  0  0  0
   36.2355  -24.6015   32.6359 N   0  0  0  0  0  0  0  0  0  0  0  0
  1  5  1  1  0  0  0
  1 14  1  0  0  0  0
  1 19  2  0  0  0  0
  1 23  1  0  0  0  0
  2 15  1  1  0  0  0
  2 20  2  0  0  0  0
  2 23  1  0  0  0  0
  2 24  1  0  0  0  0
  3 16  1  1  0  0  0
  3 21  1  0  0  0  0
  3 24  1  0  0  0  0
  3 25  2  0  0  0  0
  4  5  1  0  0  0  0
  6  4  1  6  0  0  0
  6  7  1  0  0  0  0
  6  8  1  0  0  0  0
  7 12  1  0  0  0  0
  8  9  1  1  0  0  0
  8 10  1  0  0  0  0
 10 11  1  1  0  0  0
 10 12  1  0  0  0  0
 12 32  1  6  0  0  0
 13 17  2  0  0  0  0
 13 28  1  0  0  0  0
 17 18  1  0  0  0  0
 17 22  1  0  0  0  0
 22 26  2  0  0  0  0
 26 27  1  0  0  0  0
 26 32  1  0  0  0  0
 27 28  2  0  0  0  0
 27 30  1  0  0  0  0
 28 29  1  0  0  0  0
 30 31  2  0  0  0  0
 31 32  1  0  0  0  0
M  CHG  3  14  -1  15  -1  21  -1
M  END
>  <CHROM.1>
66.91949048,-61.47416951,78.98637062,94.25249818,-77.19745381,159.14447849
-171.63188579,-64.91337106,35.76754815,-23.59985827,30.32283718,-1.97089551
0.29895763,2.30309468

>  <Name>
ligand

>  <RI>
0

>  <Rbt.Current_Directory>
/home/itssahil/PROJECTS/Mol_Feturizer/New_Systems/rnas/4Y1I

>  <Rbt.Executable>
rbdock ($Id: //depot/dev/client3/rdock/2013.1/src/exe/rbdock.cxx#4 $)

>  <Rbt.Library>
libRbt.so (2013.1, Build901 2013/11/27)

>  <Rbt.Parameter_File>
/export/apps/rDock/src/rDock_2013.1_src/data/scripts/dock_solv.prm

>  <Rbt.Receptor>
prm/blind_docking_80.prm

>  <SCORE>
-12.3874

>  <SCORE.INTER>
-8.72157

>  <SCORE.INTER.CONST>
1

>  <SCORE.INTER.POLAR>
0

>  <SCORE.INTER.ROT>
8

>  <SCORE.INTER.SOLV>
21.8828

>  <SCORE.INTER.VDW>
-22.042

>  <SCORE.INTER.norm>
-0.272549

>  <SCORE.INTRA>
-3.66586

>  <SCORE.INTRA.DIHEDRAL>
-4.37885

>  <SCORE.INTRA.DIHEDRAL.0>
10.9594

>  <SCORE.INTRA.POLAR>
0

>  <SCORE.INTRA.POLAR.0>
0

>  <SCORE.INTRA.REPUL>
0

>  <SCORE.INTRA.REPUL.0>
0

>  <SCORE.INTRA.SOLV>
-1.67254

>  <SCORE.INTRA.SOLV.lig_0>
-124.914

>  <SCORE.INTRA.VDW>
-0.640166

>  <SCORE.INTRA.VDW.0>
-4.69801

>  <SCORE.INTRA.norm>
-0.114558

>  <SCORE.RESTR>
0

>  <SCORE.RESTR.CAVITY>
0

>  <SCORE.RESTR.norm>
0

>  <SCORE.SYSTEM>
0

>  <SCORE.SYSTEM.CONST>
0

>  <SCORE.SYSTEM.DIHEDRAL>
0

>  <SCORE.SYSTEM.SOLV>
0

>  <SCORE.SYSTEM.norm>
0

>  <SCORE.heavy>
32

>  <SCORE.norm>
-0.387107

>  <RMSD>
52.904

$$$$
ligand
 OpenBabel11021811513D
libRbt.so/2013.1/901 2013/11/27
 32 34  0  0  0  0  0  0  0  0999 V2000
   38.0274  -25.3805   27.4814 P   0  0  1  0  0  0  0  0  0  0  0  0
   36.7861  -22.8647   28.0822 P   0  0  2  0  0  0  0  0  0  0  0  0
   34.2079  -22.5952   26.7053 P   0  0  1  0  0  0  0  0  0  0  0  0
   37.7511  -26.8275   29.6311 C   0  0  0  0  0  0  0  0  0  0  0  0
   37.0954  -26.1784   28.5791 O   0  0  0  0  0  0  0  0  0  0  0  0
   38.3679  -25.8850   30.4463 C   0  0  1  0  0  0  0  0  0  0  0  0
   37.3361  -24.9105   30.9809 O   0  0  0  0  0  0  0  0  0  0  0  0
   39.0289  -26.5693   31.7297 C   0  0  1  0  0  0  0  0  0  0  0  0
   40.5304  -26.4009   31.6718 O   0  0  0  0  0  0  0  0  0  0  0  0
   38.6257  -25.9286   32.7035 C   0  0  1  0  0  0  0  0  0  0  0  0
   39.6423  -24.9181   33.0821 O   0  0  0  0  0  0  0  0  0  0  0  0
   37.2220  -25.1725   32.2222 C   0  0  2  0  0  0  0  0  0  0  0  0
   34.8813  -28.5084   35.3492 N   0  0  0  0  0  0  0  0  0  0  0  0
   39.4166  -25.9687   27.4661 O   0  5  0  0  0  0  0  0  0  0  0  0
   37.1528  -21.4065   27.9662 O   0  5  0  0  0  0  0  0  0  0  0  0
   33.3576  -23.5787   25.9358 O   0  0  0  0  0  0  0  0  0  0  0  0
   36.0507  -27.9111   35.5180 C   0  0  0  0  0  0  0  0  0  0  0  0
   36.8234  -28.1852   36.7128 N   0  0  0  0  0  0  0  0  0  0  0  0
   37.3778  -25.4921   26.1206 O   0  0  0  0  0  0  0  0  0  0  0  0
   36.1768  -23.1255   29.4348 O   0  0  0  0  0  0  0  0  0  0  0  0
   33.5745  -22.3433   28.0562 O   0  5  0  0  0  0  0  0  0  0  0  0
   36.5403  -27.0693   34.6307 N   0  0  0  0  0  0  0  0  0  0  0  0
   38.1245  -23.8024   27.9273 O   0  0  0  0  0  0  0  0  0  0  0  0
   35.7052  -23.2635   26.9080 O   0  0  0  0  0  0  0  0  0  0  0  0
   34.3027  -21.3054   25.9200 O   0  0  0  0  0  0  0  0  0  0  0  0
   35.8584  -26.7889   33.5136 C   0  0  0  0  0  0  0  0  0  0  0  0
   34.6365  -27.3985   33.3127 C   0  0  0  0  0  0  0  0  0  0  0  0
   34.1325  -28.2943   34.2753 C   0  0  0  0  0  0  0  0  0  0  0  0
   32.8909  -28.9301   34.0987 O   0  0  0  0  0  0  0  0  0  0  0  0
   34.1541  -26.9617   32.1367 N   0  0  0  0  0  0  0  0  0  0  0  0
   35.0388  -26.1194   31.6322 C   0  0  0  0  0  0  0  0  0  0  0  0
   36.0722  -26.0047   32.4453 N   0  0  0  0  0  0  0  0  0  0  0  0
  1  5  1  1  0  0  0
  1 14  1  0  0  0  0
  1 19  2  0  0  0  0
  1 23  1  0  0  0  0
  2 15  1  6  0  0  0
  2 20  2  0  0  0  0
  2 23  1  0  0  0  0
  2 24  1  0  0  0  0
  3 16  1  6  0  0  0
  3 21  1  0  0  0  0
  3 24  1  0  0  0  0
  3 25  2  0  0  0  0
  4  5  1  0  0  0  0
  6  4  1  6  0  0  0
  6  7  1  0  0  0  0
  6  8  1  0  0  0  0
  7 12  1  0  0  0  0
  8  9  1  6  0  0  0
  8 10  1  0  0  0  0
 10 11  1  6  0  0  0
 10 12  1  0  0  0  0
 12 32  1  6  0  0  0
 13 17  2  0  0  0  0
 13 28  1  0  0  0  0
 17 18  1  0  0  0  0
 17 22  1  0  0  0  0
 22 26  2  0  0  0  0
 26 27  1  0  0  0  0
 26 32  1  0  0  0  0
 27 28  2  0  0  0  0
 27 30  1  0  0  0  0
 28 29  1  0  0  0  0
 30 31  2  0  0  0  0
 31 32  1  0  0  0  0
M  CHG  3  14  -1  15  -1  21  -1
M  END
>  <CHROM.1>
24.28411647,-158.06979124,-157.05818447,58.29794527,65.81629546,158.92686850
-59.01639320,-60.24680634,36.47287293,-25.21755913,30.21710033,-1.60344582
-0.09628226,2.11226705

>  <Name>
ligand

>  <RI>
0

>  <Rbt.Current_Directory>
/home/itssahil/PROJECTS/Mol_Feturizer/New_Systems/rnas/4Y1I

>  <Rbt.Executable>
rbdock ($Id: //depot/dev/client3/rdock/2013.1/src/exe/rbdock.cxx#4 $)

>  <Rbt.Library>
libRbt.so (2013.1, Build901 2013/11/27)

>  <Rbt.Parameter_File>
/export/apps/rDock/src/rDock_2013.1_src/data/scripts/dock_solv.prm

>  <Rbt.Receptor>
prm/blind_docking_100.prm

>  <SCORE>
-9.4259

>  <SCORE.INTER>
-5.74018

>  <SCORE.INTER.CONST>
1

>  <SCORE.INTER.POLAR>
0

>  <SCORE.INTER.ROT>
8

>  <SCORE.INTER.SOLV>
15.8571

>  <SCORE.INTER.VDW>
-18.0458

>  <SCORE.INTER.norm>
-0.179381

>  <SCORE.INTRA>
-3.68572

>  <SCORE.INTRA.DIHEDRAL>
-6.59077

>  <SCORE.INTRA.DIHEDRAL.0>
10.9594

>  <SCORE.INTRA.POLAR>
0

>  <SCORE.INTRA.POLAR.0>
0

>  <SCORE.INTRA.REPUL>
0

>  <SCORE.INTRA.REPUL.0>
0

>  <SCORE.INTRA.SOLV>
-0.192321

>  <SCORE.INTRA.SOLV.lig_0>
-124.914

>  <SCORE.INTRA.VDW>
-0.294175

>  <SCORE.INTRA.VDW.0>
-4.69801

>  <SCORE.INTRA.norm>
-0.115179

>  <SCORE.RESTR>
0

>  <SCORE.RESTR.CAVITY>
0

>  <SCORE.RESTR.norm>
0

>  <SCORE.SYSTEM>
0

>  <SCORE.SYSTEM.CONST>
0

>  <SCORE.SYSTEM.DIHEDRAL>
0

>  <SCORE.SYSTEM.SOLV>
0

>  <SCORE.SYSTEM.norm>
0

>  <SCORE.heavy>
32

>  <SCORE.norm>
-0.294559

>  <RMSD>
52.977

$$$$
ligand
 OpenBabel11021811513D
libRbt.so/2013.1/901 2013/11/27
 32 34  0  0  0  0  0  0  0  0999 V2000
   35.9863  -23.9005   28.5536 P   0  0  1  0  0  0  0  0  0  0  0  0
   37.4542  -24.4244   26.1450 P   0  0  2  0  0  0  0  0  0  0  0  0
   36.3713  -25.4497   23.6168 P   0  0  1  0  0  0  0  0  0  0  0  0
   36.5546  -25.7400   30.3100 C   0  0  0  0  0  0  0  0  0  0  0  0
   35.9123  -25.4514   29.1008 O   0  0  0  0  0  0  0  0  0  0  0  0
   36.2334  -27.0323   30.7099 C   0  0  1  0  0  0  0  0  0  0  0  0
   37.0590  -27.4179   31.9221 O   0  0  0  0  0  0  0  0  0  0  0  0
   34.7069  -27.1367   31.1695 C   0  0  1  0  0  0  0  0  0  0  0  0
   33.9577  -28.0464   30.2223 O   0  0  0  0  0  0  0  0  0  0  0  0
   34.7200  -27.6875   32.2730 C   0  0  1  0  0  0  0  0  0  0  0  0
   34.4619  -29.1373   32.1017 O   0  0  0  0  0  0  0  0  0  0  0  0
   36.2443  -27.4501   32.9007 C   0  0  2  0  0  0  0  0  0  0  0  0
   37.2619  -25.2330   37.4211 N   0  0  0  0  0  0  0  0  0  0  0  0
   34.7334  -23.1585   28.9485 O   0  5  0  0  0  0  0  0  0  0  0  0
   37.8000  -25.8353   26.5499 O   0  5  0  0  0  0  0  0  0  0  0  0
   37.0996  -26.7715   23.6863 O   0  0  0  0  0  0  0  0  0  0  0  0
   37.3064  -26.5197   37.1127 C   0  0  0  0  0  0  0  0  0  0  0  0
   37.6818  -27.4820   38.1289 N   0  0  0  0  0  0  0  0  0  0  0  0
   37.2138  -23.2378   29.1369 O   0  0  0  0  0  0  0  0  0  0  0  0
   38.5795  -23.4994   26.5282 O   0  0  0  0  0  0  0  0  0  0  0  0
   34.9811  -25.6192   24.1898 O   0  5  0  0  0  0  0  0  0  0  0  0
   37.0190  -26.9593   35.9045 N   0  0  0  0  0  0  0  0  0  0  0  0
   36.0914  -23.9291   26.9145 O   0  0  0  0  0  0  0  0  0  0  0  0
   37.2157  -24.3530   24.5189 O   0  0  0  0  0  0  0  0  0  0  0  0
   36.2944  -25.0045   22.1728 O   0  0  0  0  0  0  0  0  0  0  0  0
   36.6674  -26.1035   34.9373 C   0  0  0  0  0  0  0  0  0  0  0  0
   36.6128  -24.7562   35.2324 C   0  0  0  0  0  0  0  0  0  0  0  0
   36.9250  -24.3091   36.5307 C   0  0  0  0  0  0  0  0  0  0  0  0
   36.8787  -22.9433   36.8611 O   0  0  0  0  0  0  0  0  0  0  0  0
   36.2410  -24.1110   34.1136 N   0  0  0  0  0  0  0  0  0  0  0  0
   36.0725  -25.0191   33.1681 C   0  0  0  0  0  0  0  0  0  0  0  0
   36.3221  -26.2240   33.6457 N   0  0  0  0  0  0  0  0  0  0  0  0
  1  5  1  1  0  0  0
  1 14  1  0  0  0  0
  1 19  2  0  0  0  0
  1 23  1  0  0  0  0
  2 15  1  1  0  0  0
  2 20  2  0  0  0  0
  2 23  1  0  0  0  0
  2 24  1  0  0  0  0
  3 16  1  1  0  0  0
  3 21  1  0  0  0  0
  3 24  1  0  0  0  0
  3 25  2  0  0  0  0
  4  5  1  0  0  0  0
  6  4  1  1  0  0  0
  6  7  1  0  0  0  0
  6  8  1  0  0  0  0
  7 12  1  0  0  0  0
  8  9  1  6  0  0  0
  8 10  1  0  0  0  0
 10 11  1  6  0  0  0
 10 12  1  0  0  0  0
 12 32  1  6  0  0  0
 13 17  2  0  0  0  0
 13 28  1  0  0  0  0
 17 18  1  0  0  0  0
 17 22  1  0  0  0  0
 22 26  2  0  0  0  0
 26 27  1  0  0  0  0
 26 32  1  0  0  0  0
 27 28  2  0  0  0  0
 27 30  1  0  0  0  0
 28 29  1  0  0  0  0
 30 31  2  0  0  0  0
 31 32  1  0  0  0  0
M  CHG  3  14  -1  15  -1  21  -1
M  END
>  <CHROM.1>
-96.89210818,58.28134932,-64.31769832,172.85546601,171.65403278,-119.23022286
-71.30345124,43.24603632,36.41221306,-25.49644613,30.06467794,-1.58242323
1.19990678,1.66702399

>  <Name>
ligand

>  <RI>
0

>  <Rbt.Current_Directory>
/home/itssahil/PROJECTS/Mol_Feturizer/New_Systems/rnas/4Y1I

>  <Rbt.Executable>
rbdock ($Id: //depot/dev/client3/rdock/2013.1/src/exe/rbdock.cxx#4 $)

>  <Rbt.Library>
libRbt.so (2013.1, Build901 2013/11/27)

>  <Rbt.Parameter_File>
/export/apps/rDock/src/rDock_2013.1_src/data/scripts/dock_solv.prm

>  <Rbt.Receptor>
prm/blind_docking_100.prm

>  <SCORE>
-11.747

>  <SCORE.INTER>
-6.86567

>  <SCORE.INTER.CONST>
1

>  <SCORE.INTER.POLAR>
0

>  <SCORE.INTER.ROT>
8

>  <SCORE.INTER.SOLV>
12.9708

>  <SCORE.INTER.VDW>
-17.834

>  <SCORE.INTER.norm>
-0.214552

>  <SCORE.INTRA>
-4.88133

>  <SCORE.INTRA.DIHEDRAL>
-6.95969

>  <SCORE.INTRA.DIHEDRAL.0>
10.9594

>  <SCORE.INTRA.POLAR>
0

>  <SCORE.INTRA.POLAR.0>
0

>  <SCORE.INTRA.REPUL>
0

>  <SCORE.INTRA.REPUL.0>
0

>  <SCORE.INTRA.SOLV>
-4.14101

>  <SCORE.INTRA.SOLV.lig_0>
-124.914

>  <SCORE.INTRA.VDW>
0.669021

>  <SCORE.INTRA.VDW.0>
-4.69801

>  <SCORE.INTRA.norm>
-0.152542

>  <SCORE.RESTR>
0

>  <SCORE.RESTR.CAVITY>
0

>  <SCORE.RESTR.norm>
0

>  <SCORE.SYSTEM>
0

>  <SCORE.SYSTEM.CONST>
0

>  <SCORE.SYSTEM.DIHEDRAL>
0

>  <SCORE.SYSTEM.SOLV>
0

>  <SCORE.SYSTEM.norm>
0

>  <SCORE.heavy>
32

>  <SCORE.norm>
-0.367094

>  <RMSD>
53.090

$$$$
ligand
 OpenBabel11021811513D
libRbt.so/2013.1/901 2013/11/27
 32 34  0  0  0  0  0  0  0  0999 V2000
   37.1724  -25.8926   34.6127 P   0  0  1  0  0  0  0  0  0  0  0  0
   36.2603  -28.5677   35.1060 P   0  0  2  0  0  0  0  0  0  0  0  0
   34.1830  -28.4674   33.0347 P   0  0  1  0  0  0  0  0  0  0  0  0
   38.0826  -25.5143   32.2003 C   0  0  0  0  0  0  0  0  0  0  0  0
   37.4454  -26.4043   33.0720 O   0  0  0  0  0  0  0  0  0  0  0  0
   38.3781  -26.1641   31.0071 C   0  0  1  0  0  0  0  0  0  0  0  0
   37.1091  -26.7293   30.3989 O   0  0  0  0  0  0  0  0  0  0  0  0
   38.9683  -25.1499   29.9230 C   0  0  1  0  0  0  0  0  0  0  0  0
   40.3999  -25.5239   29.6116 O   0  0  0  0  0  0  0  0  0  0  0  0
   38.3110  -25.3292   28.8948 C   0  0  1  0  0  0  0  0  0  0  0  0
   39.0439  -26.2545   27.9979 O   0  0  0  0  0  0  0  0  0  0  0  0
   36.8706  -26.0174   29.3699 C   0  0  2  0  0  0  0  0  0  0  0  0
   34.9423  -21.3942   28.2328 N   0  0  0  0  0  0  0  0  0  0  0  0
   38.4700  -25.8711   35.3820 O   0  5  0  0  0  0  0  0  0  0  0  0
   35.5025  -29.3065   36.1803 O   0  5  0  0  0  0  0  0  0  0  0  0
   34.1709  -26.9573   32.9907 O   0  0  0  0  0  0  0  0  0  0  0  0
   35.9554  -22.0222   27.6566 C   0  0  0  0  0  0  0  0  0  0  0  0
   36.6559  -21.3851   26.5598 N   0  0  0  0  0  0  0  0  0  0  0  0
   36.5496  -24.5157   34.5639 O   0  0  0  0  0  0  0  0  0  0  0  0
   37.7158  -28.9516   35.1604 O   0  0  0  0  0  0  0  0  0  0  0  0
   33.9983  -29.0055   31.6326 O   0  5  0  0  0  0  0  0  0  0  0  0
   36.3520  -23.2158   28.0487 N   0  0  0  0  0  0  0  0  0  0  0  0
   36.1428  -26.9469   35.3387 O   0  0  0  0  0  0  0  0  0  0  0  0
   35.6476  -28.9495   33.6279 O   0  0  0  0  0  0  0  0  0  0  0  0
   33.0622  -28.9435   33.9328 O   0  0  0  0  0  0  0  0  0  0  0  0
   35.7321  -23.8387   29.0582 C   0  0  0  0  0  0  0  0  0  0  0  0
   34.6729  -23.2058   29.6768 C   0  0  0  0  0  0  0  0  0  0  0  0
   34.2659  -21.9303   29.2403 C   0  0  0  0  0  0  0  0  0  0  0  0
   33.1903  -21.2610   29.8502 O   0  0  0  0  0  0  0  0  0  0  0  0
   34.2233  -24.0213   30.6458 N   0  0  0  0  0  0  0  0  0  0  0  0
   34.9717  -25.1105   30.6279 C   0  0  0  0  0  0  0  0  0  0  0  0
   35.8866  -25.0178   29.6810 N   0  0  0  0  0  0  0  0  0  0  0  0
  1  5  1  6  0  0  0
  1 14  1  0  0  0  0
  1 19  2  0  0  0  0
  1 23  1  0  0  0  0
  2 15  1  1  0  0  0
  2 20  2  0  0  0  0
  2 23  1  0  0  0  0
  2 24  1  0  0  0  0
  3 16  1  6  0  0  0
  3 21  1  0  0  0  0
  3 24  1  0  0  0  0
  3 25  2  0  0  0  0
  4  5  1  0  0  0  0
  6  4  1  1  0  0  0
  6  7  1  0  0  0  0
  6  8  1  0  0  0  0
  7 12  1  0  0  0  0
  8  9  1  6  0  0  0
  8 10  1  0  0  0  0
 10 11  1  6  0  0  0
 10 12  1  0  0  0  0
 12 32  1  1  0  0  0
 13 17  2  0  0  0  0
 13 28  1  0  0  0  0
 17 18  1  0  0  0  0
 17 22  1  0  0  0  0
 22 26  2  0  0  0  0
 26 27  1  0  0  0  0
 26 32  1  0  0  0  0
 27 28  2  0  0  0  0
 27 30  1  0  0  0  0
 28 29  1  0  0  0  0
 30 31  2  0  0  0  0
 31 32  1  0  0  0  0
M  CHG  3  14  -1  15  -1  21  -1
M  END
>  <CHROM.1>
-73.34063305,162.74596492,60.15593838,57.04412359,172.67776998,154.58369184
39.87246580,71.25171606,36.23282159,-25.87881441,31.77470209,-1.59919008
0.16240749,-0.87095204

>  <Name>
ligand

>  <RI>
0

>  <Rbt.Current_Directory>
/home/itssahil/PROJECTS/Mol_Feturizer/New_Systems/rnas/4Y1I

>  <Rbt.Executable>
rbdock ($Id: //depot/dev/client3/rdock/2013.1/src/exe/rbdock.cxx#4 $)

>  <Rbt.Library>
libRbt.so (2013.1, Build901 2013/11/27)

>  <Rbt.Parameter_File>
/export/apps/rDock/src/rDock_2013.1_src/data/scripts/dock_solv.prm

>  <Rbt.Receptor>
prm/blind_docking_80.prm

>  <SCORE>
-12.0314

>  <SCORE.INTER>
-4.16725

>  <SCORE.INTER.CONST>
1

>  <SCORE.INTER.POLAR>
0

>  <SCORE.INTER.ROT>
8

>  <SCORE.INTER.SOLV>
24.1697

>  <SCORE.INTER.VDW>
-19.7681

>  <SCORE.INTER.norm>
-0.130227

>  <SCORE.INTRA>
-7.86415

>  <SCORE.INTRA.DIHEDRAL>
-7.95781

>  <SCORE.INTRA.DIHEDRAL.0>
10.9594

>  <SCORE.INTRA.POLAR>
0

>  <SCORE.INTRA.POLAR.0>
0

>  <SCORE.INTRA.REPUL>
0

>  <SCORE.INTRA.REPUL.0>
0

>  <SCORE.INTRA.SOLV>
-5.20621

>  <SCORE.INTRA.SOLV.lig_0>
-124.914

>  <SCORE.INTRA.VDW>
-1.28214

>  <SCORE.INTRA.VDW.0>
-4.69801

>  <SCORE.INTRA.norm>
-0.245755

>  <SCORE.RESTR>
0

>  <SCORE.RESTR.CAVITY>
0

>  <SCORE.RESTR.norm>
0

>  <SCORE.SYSTEM>
0

>  <SCORE.SYSTEM.CONST>
0

>  <SCORE.SYSTEM.DIHEDRAL>
0

>  <SCORE.SYSTEM.SOLV>
0

>  <SCORE.SYSTEM.norm>
0

>  <SCORE.heavy>
32

>  <SCORE.norm>
-0.375981

>  <RMSD>
53.193

$$$$
ligand
 OpenBabel11021811513D
libRbt.so/2013.1/901 2013/11/27
 32 34  0  0  0  0  0  0  0  0999 V2000
   34.8956  -29.3899   33.4926 P   0  0  1  0  0  0  0  0  0  0  0  0
   37.5461  -30.0403   34.3774 P   0  0  2  0  0  0  0  0  0  0  0  0
   37.7143  -27.7607   36.2187 P   0  0  1  0  0  0  0  0  0  0  0  0
   34.2249  -27.1132   32.4166 C   0  0  0  0  0  0  0  0  0  0  0  0
   34.1959  -28.5066   32.2924 O   0  0  0  0  0  0  0  0  0  0  0  0
   35.5280  -26.6586   32.2479 C   0  0  1  0  0  0  0  0  0  0  0  0
   35.9957  -26.9447   30.8339 O   0  0  0  0  0  0  0  0  0  0  0  0
   35.6190  -25.0736   32.4261 C   0  0  1  0  0  0  0  0  0  0  0  0
   36.4602  -24.7518   33.6406 O   0  0  0  0  0  0  0  0  0  0  0  0
   36.2264  -24.6537   31.4381 C   0  0  1  0  0  0  0  0  0  0  0  0
   37.6587  -24.4800   31.7788 O   0  0  0  0  0  0  0  0  0  0  0  0
   36.0587  -25.8125   30.2536 C   0  0  2  0  0  0  0  0  0  0  0  0
   34.1226  -24.6714   25.6347 N   0  0  0  0  0  0  0  0  0  0  0  0
   34.5088  -28.8237   34.8365 O   0  5  0  0  0  0  0  0  0  0  0  0
   38.9702  -29.9256   33.8944 O   0  5  0  0  0  0  0  0  0  0  0  0
   36.8158  -26.9010   35.3609 O   0  0  0  0  0  0  0  0  0  0  0  0
   35.3948  -24.7828   25.9836 C   0  0  0  0  0  0  0  0  0  0  0  0
   36.4264  -24.5696   24.9886 N   0  0  0  0  0  0  0  0  0  0  0  0
   34.4467  -30.8279   33.3621 O   0  0  0  0  0  0  0  0  0  0  0  0
   37.1591  -31.4933   34.4663 O   0  0  0  0  0  0  0  0  0  0  0  0
   37.4070  -27.4978   37.6768 O   0  5  0  0  0  0  0  0  0  0  0  0
   35.7587  -25.0833   27.2136 N   0  0  0  0  0  0  0  0  0  0  0  0
   36.5273  -29.2960   33.3273 O   0  0  0  0  0  0  0  0  0  0  0  0
   37.4018  -29.3429   35.8602 O   0  0  0  0  0  0  0  0  0  0  0  0
   39.1573  -27.4213   35.9157 O   0  0  0  0  0  0  0  0  0  0  0  0
   34.8372  -25.2878   28.1626 C   0  0  0  0  0  0  0  0  0  0  0  0
   33.5033  -25.1773   27.8256 C   0  0  0  0  0  0  0  0  0  0  0  0
   33.1377  -24.8559   26.5042 C   0  0  0  0  0  0  0  0  0  0  0  0
   31.7874  -24.7370   26.1308 O   0  0  0  0  0  0  0  0  0  0  0  0
   32.7836  -25.4243   28.9334 N   0  0  0  0  0  0  0  0  0  0  0  0
   33.6347  -25.6760   29.9127 C   0  0  0  0  0  0  0  0  0  0  0  0
   34.8751  -25.5959   29.4686 N   0  0  0  0  0  0  0  0  0  0  0  0
  1  5  1  6  0  0  0
  1 14  1  0  0  0  0
  1 19  2  0  0  0  0
  1 23  1  0  0  0  0
  2 15  1  6  0  0  0
  2 20  2  0  0  0  0
  2 23  1  0  0  0  0
  2 24  1  0  0  0  0
  3 16  1  6  0  0  0
  3 21  1  0  0  0  0
  3 24  1  0  0  0  0
  3 25  2  0  0  0  0
  4  5  1  0  0  0  0
  6  4  1  6  0  0  0
  6  7  1  0  0  0  0
  6  8  1  0  0  0  0
  7 12  1  0  0  0  0
  8  9  1  1  0  0  0
  8 10  1  0  0  0  0
 10 11  1  1  0  0  0
 10 12  1  0  0  0  0
 12 32  1  1  0  0  0
 13 17  2  0  0  0  0
 13 28  1  0  0  0  0
 17 18  1  0  0  0  0
 17 22  1  0  0  0  0
 22 26  2  0  0  0  0
 26 27  1  0  0  0  0
 26 32  1  0  0  0  0
 27 28  2  0  0  0  0
 27 30  1  0  0  0  0
 28 29  1  0  0  0  0
 30 31  2  0  0  0  0
 31 32  1  0  0  0  0
M  CHG  3  14  -1  15  -1  21  -1
M  END
>  <CHROM.1>
43.68956559,173.23431099,58.81538163,64.75299006,69.82637098,-125.80816787
178.83789584,60.09061849,35.82037140,-27.15399599,31.97024623,1.09114747
0.84588344,2.39910940

>  <Name>
ligand

>  <RI>
0

>  <Rbt.Current_Directory>
/home/itssahil/PROJECTS/Mol_Feturizer/New_Systems/rnas/4Y1I

>  <Rbt.Executable>
rbdock ($Id: //depot/dev/client3/rdock/2013.1/src/exe/rbdock.cxx#4 $)

>  <Rbt.Library>
libRbt.so (2013.1, Build901 2013/11/27)

>  <Rbt.Parameter_File>
/export/apps/rDock/src/rDock_2013.1_src/data/scripts/dock_solv.prm

>  <Rbt.Receptor>
prm/blind_docking_80.prm

>  <SCORE>
-9.26953

>  <SCORE.INTER>
-3.17394

>  <SCORE.INTER.CONST>
1

>  <SCORE.INTER.POLAR>
0

>  <SCORE.INTER.ROT>
8

>  <SCORE.INTER.SOLV>
13.0907

>  <SCORE.INTER.VDW>
-15.4129

>  <SCORE.INTER.norm>
-0.0991856

>  <SCORE.INTRA>
-6.09559

>  <SCORE.INTRA.DIHEDRAL>
-8.73379

>  <SCORE.INTRA.DIHEDRAL.0>
10.9594

>  <SCORE.INTRA.POLAR>
0

>  <SCORE.INTRA.POLAR.0>
0

>  <SCORE.INTRA.REPUL>
0

>  <SCORE.INTRA.REPUL.0>
0

>  <SCORE.INTRA.SOLV>
-2.18608

>  <SCORE.INTRA.SOLV.lig_0>
-124.914

>  <SCORE.INTRA.VDW>
-0.635656

>  <SCORE.INTRA.VDW.0>
-4.69801

>  <SCORE.INTRA.norm>
-0.190487

>  <SCORE.RESTR>
0

>  <SCORE.RESTR.CAVITY>
0

>  <SCORE.RESTR.norm>
0

>  <SCORE.SYSTEM>
0

>  <SCORE.SYSTEM.CONST>
0

>  <SCORE.SYSTEM.DIHEDRAL>
0

>  <SCORE.SYSTEM.SOLV>
0

>  <SCORE.SYSTEM.norm>
0

>  <SCORE.heavy>
32

>  <SCORE.norm>
-0.289673

>  <RMSD>
53.210

$$$$
ligand
 OpenBabel11021811513D
libRbt.so/2013.1/901 2013/11/27
 32 34  0  0  0  0  0  0  0  0999 V2000
   38.1501  -23.7935   29.3770 P   0  0  1  0  0  0  0  0  0  0  0  0
   37.0585  -22.7039   26.9579 P   0  0  2  0  0  0  0  0  0  0  0  0
   35.5118  -21.1457   25.0098 P   0  0  1  0  0  0  0  0  0  0  0  0
   38.6740  -24.3416   31.8703 C   0  0  0  0  0  0  0  0  0  0  0  0
   38.2533  -23.3632   30.9627 O   0  0  0  0  0  0  0  0  0  0  0  0
   38.4881  -23.8812   33.1691 C   0  0  1  0  0  0  0  0  0  0  0  0
   37.1029  -23.2803   33.3106 O   0  0  0  0  0  0  0  0  0  0  0  0
   38.5556  -25.0775   34.2257 C   0  0  1  0  0  0  0  0  0  0  0  0
   39.7537  -24.8845   35.1277 O   0  0  0  0  0  0  0  0  0  0  0  0
   37.5474  -24.9696   34.9279 C   0  0  1  0  0  0  0  0  0  0  0  0
   37.8907  -24.2409   36.1724 O   0  0  0  0  0  0  0  0  0  0  0  0
   36.4454  -24.0922   34.0392 C   0  0  2  0  0  0  0  0  0  0  0  0
   35.2440  -28.9117   32.7296 N   0  0  0  0  0  0  0  0  0  0  0  0
   39.5321  -24.0321   28.8207 O   0  5  0  0  0  0  0  0  0  0  0  0
   36.2130  -23.9326   26.7353 O   0  5  0  0  0  0  0  0  0  0  0  0
   35.3962  -19.6599   24.7620 O   0  0  0  0  0  0  0  0  0  0  0  0
   36.1378  -28.5038   33.6170 C   0  0  0  0  0  0  0  0  0  0  0  0
   36.9120  -29.4854   34.3494 N   0  0  0  0  0  0  0  0  0  0  0  0
   37.3000  -25.0390   29.2662 O   0  0  0  0  0  0  0  0  0  0  0  0
   38.3328  -22.8176   26.1630 O   0  0  0  0  0  0  0  0  0  0  0  0
   36.3674  -21.7639   23.9257 O   0  5  0  0  0  0  0  0  0  0  0  0
   36.3495  -27.2263   33.8595 N   0  0  0  0  0  0  0  0  0  0  0  0
   37.4492  -22.5619   28.5459 O   0  0  0  0  0  0  0  0  0  0  0  0
   36.2323  -21.3640   26.4804 O   0  0  0  0  0  0  0  0  0  0  0  0
   34.1274  -21.7564   24.9996 O   0  0  0  0  0  0  0  0  0  0  0  0
   35.6557  -26.2876   33.2044 C   0  0  0  0  0  0  0  0  0  0  0  0
   34.7178  -26.6858   32.2734 C   0  0  0  0  0  0  0  0  0  0  0  0
   34.5078  -28.0571   32.0313 C   0  0  0  0  0  0  0  0  0  0  0  0
   33.5593  -28.4932   31.0895 O   0  0  0  0  0  0  0  0  0  0  0  0
   34.1616  -25.5761   31.7582 N   0  0  0  0  0  0  0  0  0  0  0  0
   34.7306  -24.5371   32.3443 C   0  0  0  0  0  0  0  0  0  0  0  0
   35.6341  -24.9455   33.2157 N   0  0  0  0  0  0  0  0  0  0  0  0
  1  5  1  1  0  0  0
  1 14  1  0  0  0  0
  1 19  2  0  0  0  0
  1 23  1  0  0  0  0
  2 15  1  6  0  0  0
  2 20  2  0  0  0  0
  2 23  1  0  0  0  0
  2 24  1  0  0  0  0
  3 16  1  6  0  0  0
  3 21  1  0  0  0  0
  3 24  1  0  0  0  0
  3 25  2  0  0  0  0
  4  5  1  0  0  0  0
  6  4  1  6  0  0  0
  6  7  1  0  0  0  0
  6  8  1  0  0  0  0
  7 12  1  0  0  0  0
  8  9  1  1  0  0  0
  8 10  1  0  0  0  0
 10 11  1  1  0  0  0
 10 12  1  0  0  0  0
 12 32  1  6  0  0  0
 13 17  2  0  0  0  0
 13 28  1  0  0  0  0
 17 18  1  0  0  0  0
 17 22  1  0  0  0  0
 22 26  2  0  0  0  0
 26 27  1  0  0  0  0
 26 32  1  0  0  0  0
 27 28  2  0  0  0  0
 27 30  1  0  0  0  0
 28 29  1  0  0  0  0
 30 31  2  0  0  0  0
 31 32  1  0  0  0  0
M  CHG  3  14  -1  15  -1  21  -1
M  END
>  <CHROM.1>
-68.71505913,53.05927488,-156.29630483,46.95368680,-170.04332710,123.82759344
-174.10492174,-52.27713982,36.69125619,-24.29297316,30.26820384,-1.63781920
0.72764731,2.12347297

>  <Name>
ligand

>  <RI>
0

>  <Rbt.Current_Directory>
/home/itssahil/PROJECTS/Mol_Feturizer/New_Systems/rnas/4Y1I

>  <Rbt.Executable>
rbdock ($Id: //depot/dev/client3/rdock/2013.1/src/exe/rbdock.cxx#4 $)

>  <Rbt.Library>
libRbt.so (2013.1, Build901 2013/11/27)

>  <Rbt.Parameter_File>
/export/apps/rDock/src/rDock_2013.1_src/data/scripts/dock_solv.prm

>  <Rbt.Receptor>
prm/blind_docking_100.prm

>  <SCORE>
-7.88456

>  <SCORE.INTER>
-3.77726

>  <SCORE.INTER.CONST>
1

>  <SCORE.INTER.POLAR>
0

>  <SCORE.INTER.ROT>
8

>  <SCORE.INTER.SOLV>
8.47407

>  <SCORE.INTER.VDW>
-14.2762

>  <SCORE.INTER.norm>
-0.118039

>  <SCORE.INTRA>
-4.14336

>  <SCORE.INTRA.DIHEDRAL>
-7.56589

>  <SCORE.INTRA.DIHEDRAL.0>
10.9594

>  <SCORE.INTRA.POLAR>
0

>  <SCORE.INTRA.POLAR.0>
0

>  <SCORE.INTRA.REPUL>
0

>  <SCORE.INTRA.REPUL.0>
0

>  <SCORE.INTRA.SOLV>
-1.25739

>  <SCORE.INTRA.SOLV.lig_0>
-124.914

>  <SCORE.INTRA.VDW>
0.268282

>  <SCORE.INTRA.VDW.0>
-4.69801

>  <SCORE.INTRA.norm>
-0.12948

>  <SCORE.RESTR>
0.0360494

>  <SCORE.RESTR.CAVITY>
0.0360494

>  <SCORE.RESTR.norm>
0.00112654

>  <SCORE.SYSTEM>
0

>  <SCORE.SYSTEM.CONST>
0

>  <SCORE.SYSTEM.DIHEDRAL>
0

>  <SCORE.SYSTEM.SOLV>
0

>  <SCORE.SYSTEM.norm>
0

>  <SCORE.heavy>
32

>  <SCORE.norm>
-0.246393

>  <RMSD>
53.211

$$$$
ligand
 OpenBabel11021811513D
libRbt.so/2013.1/901 2013/11/27
 32 34  0  0  0  0  0  0  0  0999 V2000
   38.2065  -24.6219   27.7170 P   0  0  1  0  0  0  0  0  0  0  0  0
   36.3838  -22.7082   26.6005 P   0  0  2  0  0  0  0  0  0  0  0  0
   34.0176  -21.9725   28.1737 P   0  0  1  0  0  0  0  0  0  0  0  0
   37.0520  -26.0631   29.5559 C   0  0  0  0  0  0  0  0  0  0  0  0
   36.9630  -24.9200   28.7538 O   0  0  0  0  0  0  0  0  0  0  0  0
   35.8714  -26.2204   30.2733 C   0  0  1  0  0  0  0  0  0  0  0  0
   35.9524  -27.4665   31.1339 O   0  0  0  0  0  0  0  0  0  0  0  0
   35.6385  -25.0055   31.2841 C   0  0  1  0  0  0  0  0  0  0  0  0
   34.4050  -24.2357   30.8693 O   0  0  0  0  0  0  0  0  0  0  0  0
   35.4001  -25.5157   32.3814 C   0  0  1  0  0  0  0  0  0  0  0  0
   33.9330  -25.5819   32.5844 O   0  0  0  0  0  0  0  0  0  0  0  0
   36.0391  -27.0531   32.3356 C   0  0  2  0  0  0  0  0  0  0  0  0
   39.4830  -25.3869   35.7632 N   0  0  0  0  0  0  0  0  0  0  0  0
   39.4966  -24.4947   28.4887 O   0  5  0  0  0  0  0  0  0  0  0  0
   35.6098  -23.8173   25.9333 O   0  5  0  0  0  0  0  0  0  0  0  0
   33.8131  -21.2660   29.4933 O   0  0  0  0  0  0  0  0  0  0  0  0
   38.1878  -25.1182   35.7081 C   0  0  0  0  0  0  0  0  0  0  0  0
   37.5980  -24.2518   36.7086 N   0  0  0  0  0  0  0  0  0  0  0  0
   38.2847  -25.7515   26.7150 O   0  0  0  0  0  0  0  0  0  0  0  0
   36.4641  -21.5220   25.6757 O   0  0  0  0  0  0  0  0  0  0  0  0
   33.5349  -21.0781   27.0527 O   0  5  0  0  0  0  0  0  0  0  0  0
   37.4102  -25.6151   34.7678 N   0  0  0  0  0  0  0  0  0  0  0  0
   37.9111  -23.2047   26.9405 O   0  0  0  0  0  0  0  0  0  0  0  0
   35.6337  -22.2654   27.9959 O   0  0  0  0  0  0  0  0  0  0  0  0
   33.2394  -23.2701   28.1834 O   0  0  0  0  0  0  0  0  0  0  0  0
   37.9155  -26.4193   33.8247 C   0  0  0  0  0  0  0  0  0  0  0  0
   39.2632  -26.7152   33.8588 C   0  0  0  0  0  0  0  0  0  0  0  0
   40.0750  -26.1733   34.8738 C   0  0  0  0  0  0  0  0  0  0  0  0
   41.4508  -26.4570   34.9350 O   0  0  0  0  0  0  0  0  0  0  0  0
   39.5257  -27.5296   32.8224 N   0  0  0  0  0  0  0  0  0  0  0  0
   38.3905  -27.7283   32.1753 C   0  0  0  0  0  0  0  0  0  0  0  0
   37.4110  -27.0662   32.7622 N   0  0  0  0  0  0  0  0  0  0  0  0
  1  5  1  1  0  0  0
  1 14  1  0  0  0  0
  1 19  2  0  0  0  0
  1 23  1  0  0  0  0
  2 15  1  6  0  0  0
  2 20  2  0  0  0  0
  2 23  1  0  0  0  0
  2 24  1  0  0  0  0
  3 16  1  1  0  0  0
  3 21  1  0  0  0  0
  3 24  1  0  0  0  0
  3 25  2  0  0  0  0
  4  5  1  0  0  0  0
  6  4  1  1  0  0  0
  6  7  1  0  0  0  0
  6  8  1  0  0  0  0
  7 12  1  0  0  0  0
  8  9  1  6  0  0  0
  8 10  1  0  0  0  0
 10 11  1  6  0  0  0
 10 12  1  0  0  0  0
 12 32  1  6  0  0  0
 13 17  2  0  0  0  0
 13 28  1  0  0  0  0
 17 18  1  0  0  0  0
 17 22  1  0  0  0  0
 22 26  2  0  0  0  0
 26 27  1  0  0  0  0
 26 32  1  0  0  0  0
 27 28  2  0  0  0  0
 27 30  1  0  0  0  0
 28 29  1  0  0  0  0
 30 31  2  0  0  0  0
 31 32  1  0  0  0  0
M  CHG  3  14  -1  15  -1  21  -1
M  END
>  <CHROM.1>
-58.59706878,-49.74445590,-165.78750682,179.34306789,-174.65639946,163.30887045
-31.83955876,-46.76722448,36.75846039,-24.62386283,30.31993826,-1.98165645
-0.46493198,1.84022551

>  <Name>
ligand

>  <RI>
0

>  <Rbt.Current_Directory>
/home/itssahil/PROJECTS/Mol_Feturizer/New_Systems/rnas/4Y1I

>  <Rbt.Executable>
rbdock ($Id: //depot/dev/client3/rdock/2013.1/src/exe/rbdock.cxx#4 $)

>  <Rbt.Library>
libRbt.so (2013.1, Build901 2013/11/27)

>  <Rbt.Parameter_File>
/export/apps/rDock/src/rDock_2013.1_src/data/scripts/dock_solv.prm

>  <Rbt.Receptor>
prm/blind_docking_100.prm

>  <SCORE>
-11.9108

>  <SCORE.INTER>
-6.33384

>  <SCORE.INTER.CONST>
1

>  <SCORE.INTER.POLAR>
0

>  <SCORE.INTER.ROT>
8

>  <SCORE.INTER.SOLV>
14.327

>  <SCORE.INTER.VDW>
-17.9316

>  <SCORE.INTER.norm>
-0.197932

>  <SCORE.INTRA>
-5.57696

>  <SCORE.INTRA.DIHEDRAL>
-7.77034

>  <SCORE.INTRA.DIHEDRAL.0>
10.9594

>  <SCORE.INTRA.POLAR>
0

>  <SCORE.INTRA.POLAR.0>
0

>  <SCORE.INTRA.REPUL>
0

>  <SCORE.INTRA.REPUL.0>
0

>  <SCORE.INTRA.SOLV>
-2.14279

>  <SCORE.INTRA.SOLV.lig_0>
-124.914

>  <SCORE.INTRA.VDW>
-0.62039

>  <SCORE.INTRA.VDW.0>
-4.69801

>  <SCORE.INTRA.norm>
-0.17428

>  <SCORE.RESTR>
0

>  <SCORE.RESTR.CAVITY>
0

>  <SCORE.RESTR.norm>
0

>  <SCORE.SYSTEM>
0

>  <SCORE.SYSTEM.CONST>
0

>  <SCORE.SYSTEM.DIHEDRAL>
0

>  <SCORE.SYSTEM.SOLV>
0

>  <SCORE.SYSTEM.norm>
0

>  <SCORE.heavy>
32

>  <SCORE.norm>
-0.372212

>  <RMSD>
53.273

$$$$
ligand
 OpenBabel11021811513D
libRbt.so/2013.1/901 2013/11/27
 32 34  0  0  0  0  0  0  0  0999 V2000
   34.6502  -29.0848   32.9141 P   0  0  1  0  0  0  0  0  0  0  0  0
   35.4800  -31.4889   34.2419 P   0  0  2  0  0  0  0  0  0  0  0  0
   38.4010  -31.7078   34.4299 P   0  0  1  0  0  0  0  0  0  0  0  0
   36.4122  -27.8912   31.4101 C   0  0  0  0  0  0  0  0  0  0  0  0
   36.2010  -28.8348   32.4215 O   0  0  0  0  0  0  0  0  0  0  0  0
   36.9407  -26.7294   31.9616 C   0  0  1  0  0  0  0  0  0  0  0  0
   37.0560  -25.6575   30.8950 O   0  0  0  0  0  0  0  0  0  0  0  0
   35.9765  -26.1272   33.0841 C   0  0  1  0  0  0  0  0  0  0  0  0
   36.6694  -26.1867   34.4267 O   0  0  0  0  0  0  0  0  0  0  0  0
   35.8267  -24.9360   32.8016 C   0  0  1  0  0  0  0  0  0  0  0  0
   36.7764  -24.1195   33.5950 O   0  0  0  0  0  0  0  0  0  0  0  0
   36.1675  -24.7897   31.1779 C   0  0  2  0  0  0  0  0  0  0  0  0
   34.1903  -24.9557   26.4400 N   0  0  0  0  0  0  0  0  0  0  0  0
   34.3785  -28.2936   34.1696 O   0  5  0  0  0  0  0  0  0  0  0  0
   35.0170  -32.9122   34.4267 O   0  5  0  0  0  0  0  0  0  0  0  0
   38.4107  -33.1295   34.9409 O   0  0  0  0  0  0  0  0  0  0  0  0
   35.4379  -24.6937   26.7969 C   0  0  0  0  0  0  0  0  0  0  0  0
   36.4251  -24.4087   25.7752 N   0  0  0  0  0  0  0  0  0  0  0  0
   33.7144  -28.6711   31.8009 O   0  0  0  0  0  0  0  0  0  0  0  0
   35.4948  -30.7862   35.5741 O   0  0  0  0  0  0  0  0  0  0  0  0
   39.5808  -31.5058   33.5043 O   0  5  0  0  0  0  0  0  0  0  0  0
   35.8164  -24.6831   28.0588 N   0  0  0  0  0  0  0  0  0  0  0  0
   34.4574  -30.6829   33.2422 O   0  0  0  0  0  0  0  0  0  0  0  0
   36.9934  -31.4736   33.5973 O   0  0  0  0  0  0  0  0  0  0  0  0
   38.4873  -30.7604   35.6066 O   0  0  0  0  0  0  0  0  0  0  0  0
   34.9358  -24.9409   29.0332 C   0  0  0  0  0  0  0  0  0  0  0  0
   33.6281  -25.2168   28.6883 C   0  0  0  0  0  0  0  0  0  0  0  0
   33.2464  -25.2234   27.3329 C   0  0  0  0  0  0  0  0  0  0  0  0
   31.9221  -25.5014   26.9508 O   0  0  0  0  0  0  0  0  0  0  0  0
   32.9473  -25.4392   29.8256 N   0  0  0  0  0  0  0  0  0  0  0  0
   33.7963  -25.3062   30.8298 C   0  0  0  0  0  0  0  0  0  0  0  0
   34.9970  -25.0038   30.3727 N   0  0  0  0  0  0  0  0  0  0  0  0
  1  5  1  6  0  0  0
  1 14  1  0  0  0  0
  1 19  2  0  0  0  0
  1 23  1  0  0  0  0
  2 15  1  1  0  0  0
  2 20  2  0  0  0  0
  2 23  1  0  0  0  0
  2 24  1  0  0  0  0
  3 16  1  1  0  0  0
  3 21  1  0  0  0  0
  3 24  1  0  0  0  0
  3 25  2  0  0  0  0
  4  5  1  0  0  0  0
  6  4  1  6  0  0  0
  6  7  1  0  0  0  0
  6  8  1  0  0  0  0
  7 12  1  0  0  0  0
  8  9  1  1  0  0  0
  8 10  1  0  0  0  0
 10 11  1  1  0  0  0
 10 12  1  0  0  0  0
 12 32  1  6  0  0  0
 13 17  2  0  0  0  0
 13 28  1  0  0  0  0
 17 18  1  0  0  0  0
 17 22  1  0  0  0  0
 22 26  2  0  0  0  0
 26 27  1  0  0  0  0
 26 32  1  0  0  0  0
 27 28  2  0  0  0  0
 27 30  1  0  0  0  0
 28 29  1  0  0  0  0
 30 31  2  0  0  0  0
 31 32  1  0  0  0  0
M  CHG  3  14  -1  15  -1  21  -1
M  END
>  <CHROM.1>
-98.17297297,176.53410007,65.78868522,-174.90735735,104.70048349,-61.72521161
51.90792938,-80.00623327,35.73944624,-28.00737625,31.94343476,1.22199465
0.70678498,2.62102427

>  <Name>
ligand

>  <RI>
0

>  <Rbt.Current_Directory>
/home/itssahil/PROJECTS/Mol_Feturizer/New_Systems/rnas/4Y1I

>  <Rbt.Executable>
rbdock ($Id: //depot/dev/client3/rdock/2013.1/src/exe/rbdock.cxx#4 $)

>  <Rbt.Library>
libRbt.so (2013.1, Build901 2013/11/27)

>  <Rbt.Parameter_File>
/export/apps/rDock/src/rDock_2013.1_src/data/scripts/dock_solv.prm

>  <Rbt.Receptor>
prm/blind_docking_80.prm

>  <SCORE>
-7.05923

>  <SCORE.INTER>
-5.78851

>  <SCORE.INTER.CONST>
1

>  <SCORE.INTER.POLAR>
0

>  <SCORE.INTER.ROT>
8

>  <SCORE.INTER.SOLV>
22.1684

>  <SCORE.INTER.VDW>
-20.1818

>  <SCORE.INTER.norm>
-0.180891

>  <SCORE.INTRA>
-1.27072

>  <SCORE.INTRA.DIHEDRAL>
-1.09297

>  <SCORE.INTRA.DIHEDRAL.0>
10.9594

>  <SCORE.INTRA.POLAR>
0

>  <SCORE.INTRA.POLAR.0>
0

>  <SCORE.INTRA.REPUL>
0.0174046

>  <SCORE.INTRA.REPUL.0>
0

>  <SCORE.INTRA.SOLV>
-1.10133

>  <SCORE.INTRA.SOLV.lig_0>
-124.914

>  <SCORE.INTRA.VDW>
-0.260587

>  <SCORE.INTRA.VDW.0>
-4.69801

>  <SCORE.INTRA.norm>
-0.0397099

>  <SCORE.RESTR>
0

>  <SCORE.RESTR.CAVITY>
0

>  <SCORE.RESTR.norm>
0

>  <SCORE.SYSTEM>
0

>  <SCORE.SYSTEM.CONST>
0

>  <SCORE.SYSTEM.DIHEDRAL>
0

>  <SCORE.SYSTEM.SOLV>
0

>  <SCORE.SYSTEM.norm>
0

>  <SCORE.heavy>
32

>  <SCORE.norm>
-0.220601

>  <RMSD>
53.286

$$$$
ligand
 OpenBabel11021811513D
libRbt.so/2013.1/901 2013/11/27
 32 34  0  0  0  0  0  0  0  0999 V2000
   38.0154  -24.4853   27.2990 P   0  0  1  0  0  0  0  0  0  0  0  0
   37.7388  -21.7037   26.6530 P   0  0  2  0  0  0  0  0  0  0  0  0
   35.1861  -21.3453   25.2491 P   0  0  1  0  0  0  0  0  0  0  0  0
   38.4822  -25.0246   29.8055 C   0  0  0  0  0  0  0  0  0  0  0  0
   38.3449  -24.0184   28.8429 O   0  0  0  0  0  0  0  0  0  0  0  0
   37.2244  -25.4833   30.1809 C   0  0  1  0  0  0  0  0  0  0  0  0
   37.3605  -26.7557   30.9949 O   0  0  0  0  0  0  0  0  0  0  0  0
   36.4821  -24.4345   31.1302 C   0  0  1  0  0  0  0  0  0  0  0  0
   35.2535  -23.9025   30.4276 O   0  0  0  0  0  0  0  0  0  0  0  0
   36.0948  -25.0759   32.1100 C   0  0  1  0  0  0  0  0  0  0  0  0
   34.6761  -25.4602   31.9165 O   0  0  0  0  0  0  0  0  0  0  0  0
   37.0489  -26.4388   32.1886 C   0  0  2  0  0  0  0  0  0  0  0  0
   40.5566  -28.4279   35.3706 N   0  0  0  0  0  0  0  0  0  0  0  0
   38.9287  -25.6184   26.9014 O   0  5  0  0  0  0  0  0  0  0  0  0
   38.2986  -20.7011   25.6754 O   0  5  0  0  0  0  0  0  0  0  0  0
   35.5462  -19.9525   24.7880 O   0  0  0  0  0  0  0  0  0  0  0  0
   39.5093  -29.0295   34.8286 C   0  0  0  0  0  0  0  0  0  0  0  0
   39.2583  -30.4253   35.1258 N   0  0  0  0  0  0  0  0  0  0  0  0
   36.5652  -24.9054   27.2178 O   0  0  0  0  0  0  0  0  0  0  0  0
   38.1851  -21.3517   28.0479 O   0  0  0  0  0  0  0  0  0  0  0  0
   35.5037  -22.3304   24.1453 O   0  5  0  0  0  0  0  0  0  0  0  0
   38.6806  -28.3985   34.0219 N   0  0  0  0  0  0  0  0  0  0  0  0
   38.2855  -23.2105   26.2987 O   0  0  0  0  0  0  0  0  0  0  0  0
   36.0953  -21.6926   26.5842 O   0  0  0  0  0  0  0  0  0  0  0  0
   33.7112  -21.3880   25.5839 O   0  0  0  0  0  0  0  0  0  0  0  0
   38.8765  -27.1088   33.7219 C   0  0  0  0  0  0  0  0  0  0  0  0
   39.9609  -26.4575   34.2740 C   0  0  0  0  0  0  0  0  0  0  0  0
   40.8339  -27.1525   35.1331 C   0  0  0  0  0  0  0  0  0  0  0  0
   41.9471  -26.5162   35.7101 O   0  0  0  0  0  0  0  0  0  0  0  0
   39.9424  -25.1898   33.8282 N   0  0  0  0  0  0  0  0  0  0  0  0
   38.8925  -25.0623   33.0357 C   0  0  0  0  0  0  0  0  0  0  0  0
   38.2375  -26.2058   32.9616 N   0  0  0  0  0  0  0  0  0  0  0  0
  1  5  1  1  0  0  0
  1 14  1  0  0  0  0
  1 19  2  0  0  0  0
  1 23  1  0  0  0  0
  2 15  1  6  0  0  0
  2 20  2  0  0  0  0
  2 23  1  0  0  0  0
  2 24  1  0  0  0  0
  3 16  1  6  0  0  0
  3 21  1  0  0  0  0
  3 24  1  0  0  0  0
  3 25  2  0  0  0  0
  4  5  1  0  0  0  0
  6  4  1  1  0  0  0
  6  7  1  0  0  0  0
  6  8  1  0  0  0  0
  7 12  1  0  0  0  0
  8  9  1  6  0  0  0
  8 10  1  0  0  0  0
 10 11  1  6  0  0  0
 10 12  1  0  0  0  0
 12 32  1  1  0  0  0
 13 17  2  0  0  0  0
 13 28  1  0  0  0  0
 17 18  1  0  0  0  0
 17 22  1  0  0  0  0
 22 26  2  0  0  0  0
 26 27  1  0  0  0  0
 26 32  1  0  0  0  0
 27 28  2  0  0  0  0
 27 30  1  0  0  0  0
 28 29  1  0  0  0  0
 30 31  2  0  0  0  0
 31 32  1  0  0  0  0
M  CHG  3  14  -1  15  -1  21  -1
M  END
>  <CHROM.1>
-46.52542192,171.67221505,-58.75333727,168.22831738,-77.89601719,-93.42496458
-45.66880892,30.43925168,37.65435270,-24.49641614,29.72050030,-1.87078789
0.08099589,2.18401487

>  <Name>
ligand

>  <RI>
0

>  <Rbt.Current_Directory>
/home/itssahil/PROJECTS/Mol_Feturizer/New_Systems/rnas/4Y1I

>  <Rbt.Executable>
rbdock ($Id: //depot/dev/client3/rdock/2013.1/src/exe/rbdock.cxx#4 $)

>  <Rbt.Library>
libRbt.so (2013.1, Build901 2013/11/27)

>  <Rbt.Parameter_File>
/export/apps/rDock/src/rDock_2013.1_src/data/scripts/dock_solv.prm

>  <Rbt.Receptor>
prm/blind_docking_80.prm

>  <SCORE>
-9.11259

>  <SCORE.INTER>
-4.71258

>  <SCORE.INTER.CONST>
1

>  <SCORE.INTER.POLAR>
0

>  <SCORE.INTER.ROT>
8

>  <SCORE.INTER.SOLV>
11.4448

>  <SCORE.INTER.VDW>
-15.89

>  <SCORE.INTER.norm>
-0.147268

>  <SCORE.INTRA>
-4.40001

>  <SCORE.INTRA.DIHEDRAL>
-5.87878

>  <SCORE.INTRA.DIHEDRAL.0>
10.9594

>  <SCORE.INTRA.POLAR>
0

>  <SCORE.INTRA.POLAR.0>
0

>  <SCORE.INTRA.REPUL>
0

>  <SCORE.INTRA.REPUL.0>
0

>  <SCORE.INTRA.SOLV>
-2.70059

>  <SCORE.INTRA.SOLV.lig_0>
-124.914

>  <SCORE.INTRA.VDW>
-0.110326

>  <SCORE.INTRA.VDW.0>
-4.69801

>  <SCORE.INTRA.norm>
-0.1375

>  <SCORE.RESTR>
0

>  <SCORE.RESTR.CAVITY>
0

>  <SCORE.RESTR.norm>
0

>  <SCORE.SYSTEM>
0

>  <SCORE.SYSTEM.CONST>
0

>  <SCORE.SYSTEM.DIHEDRAL>
0

>  <SCORE.SYSTEM.SOLV>
0

>  <SCORE.SYSTEM.norm>
0

>  <SCORE.heavy>
32

>  <SCORE.norm>
-0.284768

>  <RMSD>
53.290

$$$$
ligand
 OpenBabel11021811513D
libRbt.so/2013.1/901 2013/11/27
 32 34  0  0  0  0  0  0  0  0999 V2000
   34.5577  -24.4961   29.8377 P   0  0  1  0  0  0  0  0  0  0  0  0
   37.0283  -23.1790   29.2113 P   0  0  2  0  0  0  0  0  0  0  0  0
   38.7879  -24.6491   27.3789 P   0  0  1  0  0  0  0  0  0  0  0  0
   34.5269  -25.6256   32.1861 C   0  0  0  0  0  0  0  0  0  0  0  0
   33.7701  -24.9865   31.1977 O   0  0  0  0  0  0  0  0  0  0  0  0
   34.2241  -26.9826   32.1983 C   0  0  1  0  0  0  0  0  0  0  0  0
   34.7536  -27.6411   30.9389 O   0  0  0  0  0  0  0  0  0  0  0  0
   34.9412  -27.7278   33.4159 C   0  0  1  0  0  0  0  0  0  0  0  0
   33.8936  -28.2500   34.3729 O   0  0  0  0  0  0  0  0  0  0  0  0
   35.5121  -28.7063   32.9281 C   0  0  1  0  0  0  0  0  0  0  0  0
   34.6532  -29.9046   33.0837 O   0  0  0  0  0  0  0  0  0  0  0  0
   35.7309  -28.3677   31.3122 C   0  0  2  0  0  0  0  0  0  0  0  0
   40.1306  -26.6572   33.3377 N   0  0  0  0  0  0  0  0  0  0  0  0
   35.0435  -25.6982   29.0664 O   0  5  0  0  0  0  0  0  0  0  0  0
   38.0225  -22.2474   29.8579 O   0  5  0  0  0  0  0  0  0  0  0  0
   37.9757  -24.3143   26.1499 O   0  0  0  0  0  0  0  0  0  0  0  0
   39.1483  -27.3053   33.9442 C   0  0  0  0  0  0  0  0  0  0  0  0
   39.2598  -27.6044   35.3575 N   0  0  0  0  0  0  0  0  0  0  0  0
   33.6116  -23.6635   29.0023 O   0  0  0  0  0  0  0  0  0  0  0  0
   36.3808  -22.4906   28.0385 O   0  0  0  0  0  0  0  0  0  0  0  0
   39.9198  -23.6536   27.5112 O   0  5  0  0  0  0  0  0  0  0  0  0
   38.0642  -27.6908   33.3024 N   0  0  0  0  0  0  0  0  0  0  0  0
   35.8549  -23.5916   30.2826 O   0  0  0  0  0  0  0  0  0  0  0  0
   37.7937  -24.5400   28.6938 O   0  0  0  0  0  0  0  0  0  0  0  0
   39.3355  -26.0529   27.2407 O   0  0  0  0  0  0  0  0  0  0  0  0
   37.9218  -27.4340   31.9966 C   0  0  0  0  0  0  0  0  0  0  0  0
   38.9311  -26.7592   31.3401 C   0  0  0  0  0  0  0  0  0  0  0  0
   40.0813  -26.3574   32.0463 C   0  0  0  0  0  0  0  0  0  0  0  0
   41.1261  -25.6691   31.4048 O   0  0  0  0  0  0  0  0  0  0  0  0
   38.5594  -26.6237   30.0557 N   0  0  0  0  0  0  0  0  0  0  0  0
   37.3722  -27.1892   29.9235 C   0  0  0  0  0  0  0  0  0  0  0  0
   36.9711  -27.6800   31.0813 N   0  0  0  0  0  0  0  0  0  0  0  0
  1  5  1  1  0  0  0
  1 14  1  0  0  0  0
  1 19  2  0  0  0  0
  1 23  1  0  0  0  0
  2 15  1  1  0  0  0
  2 20  2  0  0  0  0
  2 23  1  0  0  0  0
  2 24  1  0  0  0  0
  3 16  1  6  0  0  0
  3 21  1  0  0  0  0
  3 24  1  0  0  0  0
  3 25  2  0  0  0  0
  4  5  1  0  0  0  0
  6  4  1  6  0  0  0
  6  7  1  0  0  0  0
  6  8  1  0  0  0  0
  7 12  1  0  0  0  0
  8  9  1  1  0  0  0
  8 10  1  0  0  0  0
 10 11  1  6  0  0  0
 10 12  1  0  0  0  0
 12 32  1  1  0  0  0
 13 17  2  0  0  0  0
 13 28  1  0  0  0  0
 17 18  1  0  0  0  0
 17 22  1  0  0  0  0
 22 26  2  0  0  0  0
 26 27  1  0  0  0  0
 26 32  1  0  0  0  0
 27 28  2  0  0  0  0
 27 30  1  0  0  0  0
 28 29  1  0  0  0  0
 30 31  2  0  0  0  0
 31 32  1  0  0  0  0
M  CHG  3  14  -1  15  -1  21  -1
M  END
>  <CHROM.1>
66.48041079,174.78090753,-62.29493061,69.30406307,-107.25730589,125.14179819
167.98135067,-73.77580373,36.93496412,-25.78126574,30.57075861,1.31486757
0.04358696,-0.88771857

>  <Name>
ligand

>  <RI>
0

>  <Rbt.Current_Directory>
/home/itssahil/PROJECTS/Mol_Feturizer/New_Systems/rnas/4Y1I

>  <Rbt.Executable>
rbdock ($Id: //depot/dev/client3/rdock/2013.1/src/exe/rbdock.cxx#4 $)

>  <Rbt.Library>
libRbt.so (2013.1, Build901 2013/11/27)

>  <Rbt.Parameter_File>
/export/apps/rDock/src/rDock_2013.1_src/data/scripts/dock_solv.prm

>  <Rbt.Receptor>
prm/blind_docking_80.prm

>  <SCORE>
-12.7504

>  <SCORE.INTER>
-9.2467

>  <SCORE.INTER.CONST>
1

>  <SCORE.INTER.POLAR>
0

>  <SCORE.INTER.ROT>
8

>  <SCORE.INTER.SOLV>
18.597

>  <SCORE.INTER.VDW>
-21.2968

>  <SCORE.INTER.norm>
-0.288959

>  <SCORE.INTRA>
-3.50369

>  <SCORE.INTRA.DIHEDRAL>
-2.31083

>  <SCORE.INTRA.DIHEDRAL.0>
10.9594

>  <SCORE.INTRA.POLAR>
0

>  <SCORE.INTRA.POLAR.0>
0

>  <SCORE.INTRA.REPUL>
0

>  <SCORE.INTRA.REPUL.0>
0

>  <SCORE.INTRA.SOLV>
-0.0738681

>  <SCORE.INTRA.SOLV.lig_0>
-124.914

>  <SCORE.INTRA.VDW>
-2.31133

>  <SCORE.INTRA.VDW.0>
-4.69801

>  <SCORE.INTRA.norm>
-0.10949

>  <SCORE.RESTR>
0

>  <SCORE.RESTR.CAVITY>
0

>  <SCORE.RESTR.norm>
0

>  <SCORE.SYSTEM>
0

>  <SCORE.SYSTEM.CONST>
0

>  <SCORE.SYSTEM.DIHEDRAL>
0

>  <SCORE.SYSTEM.SOLV>
0

>  <SCORE.SYSTEM.norm>
0

>  <SCORE.heavy>
32

>  <SCORE.norm>
-0.39845

>  <RMSD>
53.362

$$$$
ligand
 OpenBabel11021811513D
libRbt.so/2013.1/901 2013/11/27
 32 34  0  0  0  0  0  0  0  0999 V2000
   37.5561  -24.2437   29.7070 P   0  0  1  0  0  0  0  0  0  0  0  0
   38.0488  -23.5220   26.9743 P   0  0  2  0  0  0  0  0  0  0  0  0
   36.4898  -25.1169   25.0662 P   0  0  1  0  0  0  0  0  0  0  0  0
   36.9483  -26.7112   30.2842 C   0  0  0  0  0  0  0  0  0  0  0  0
   37.7258  -25.5991   30.6257 O   0  0  0  0  0  0  0  0  0  0  0  0
   37.1862  -27.7401   31.1887 C   0  0  1  0  0  0  0  0  0  0  0  0
   38.6659  -28.0712   31.2165 O   0  0  0  0  0  0  0  0  0  0  0  0
   36.8078  -27.3043   32.6783 C   0  0  1  0  0  0  0  0  0  0  0  0
   35.6530  -28.1470   33.1706 O   0  0  0  0  0  0  0  0  0  0  0  0
   37.7873  -27.5826   33.3743 C   0  0  1  0  0  0  0  0  0  0  0  0
   37.5737  -28.9006   34.0188 O   0  0  0  0  0  0  0  0  0  0  0  0
   39.0929  -27.6573   32.3430 C   0  0  2  0  0  0  0  0  0  0  0  0
   39.2671  -22.7603   33.8838 N   0  0  0  0  0  0  0  0  0  0  0  0
   36.1702  -23.6748   29.8857 O   0  5  0  0  0  0  0  0  0  0  0  0
   39.4704  -23.0277   27.0679 O   0  5  0  0  0  0  0  0  0  0  0  0
   36.7198  -25.6226   23.6613 O   0  0  0  0  0  0  0  0  0  0  0  0
   38.4667  -23.7243   34.3112 C   0  0  0  0  0  0  0  0  0  0  0  0
   37.4916  -23.4339   35.3429 N   0  0  0  0  0  0  0  0  0  0  0  0
   38.6098  -23.2414   30.1209 O   0  0  0  0  0  0  0  0  0  0  0  0
   37.0998  -22.3721   27.1886 O   0  0  0  0  0  0  0  0  0  0  0  0
   36.3828  -26.2976   26.0065 O   0  5  0  0  0  0  0  0  0  0  0  0
   38.5264  -24.9483   33.8276 N   0  0  0  0  0  0  0  0  0  0  0  0
   37.7621  -24.6527   28.1293 O   0  0  0  0  0  0  0  0  0  0  0  0
   37.7840  -24.1820   25.4910 O   0  0  0  0  0  0  0  0  0  0  0  0
   35.2138  -24.3042   25.0949 O   0  0  0  0  0  0  0  0  0  0  0  0
   39.4127  -25.2581   32.8736 C   0  0  0  0  0  0  0  0  0  0  0  0
   40.2589  -24.2713   32.4097 C   0  0  0  0  0  0  0  0  0  0  0  0
   40.1776  -22.9701   32.9420 C   0  0  0  0  0  0  0  0  0  0  0  0
   41.0264  -21.9443   32.4901 O   0  0  0  0  0  0  0  0  0  0  0  0
   41.0448  -24.8209   31.4682 N   0  0  0  0  0  0  0  0  0  0  0  0
   40.6997  -26.0916   31.3542 C   0  0  0  0  0  0  0  0  0  0  0  0
   39.7175  -26.3724   32.1901 N   0  0  0  0  0  0  0  0  0  0  0  0
  1  5  1  1  0  0  0
  1 14  1  0  0  0  0
  1 19  2  0  0  0  0
  1 23  1  0  0  0  0
  2 15  1  1  0  0  0
  2 20  2  0  0  0  0
  2 23  1  0  0  0  0
  2 24  1  0  0  0  0
  3 16  1  6  0  0  0
  3 21  1  0  0  0  0
  3 24  1  0  0  0  0
  3 25  2  0  0  0  0
  4  5  1  0  0  0  0
  6  4  1  6  0  0  0
  6  7  1  0  0  0  0
  6  8  1  0  0  0  0
  7 12  1  0  0  0  0
  8  9  1  1  0  0  0
  8 10  1  0  0  0  0
 10 11  1  6  0  0  0
 10 12  1  0  0  0  0
 12 32  1  6  0  0  0
 13 17  2  0  0  0  0
 13 28  1  0  0  0  0
 17 18  1  0  0  0  0
 17 22  1  0  0  0  0
 22 26  2  0  0  0  0
 26 27  1  0  0  0  0
 26 32  1  0  0  0  0
 27 28  2  0  0  0  0
 27 30  1  0  0  0  0
 28 29  1  0  0  0  0
 30 31  2  0  0  0  0
 31 32  1  0  0  0  0
M  CHG  3  14  -1  15  -1  21  -1
M  END
>  <CHROM.1>
66.11695170,75.07529290,-174.27305806,-56.67452218,-177.95952011,125.63907699
-163.85565527,166.37669003,38.01224464,-25.04549605,30.04047946,-2.01033291
1.03591764,2.10142763

>  <Name>
ligand

>  <RI>
0

>  <Rbt.Current_Directory>
/home/itssahil/PROJECTS/Mol_Feturizer/New_Systems/rnas/4Y1I

>  <Rbt.Executable>
rbdock ($Id: //depot/dev/client3/rdock/2013.1/src/exe/rbdock.cxx#4 $)

>  <Rbt.Library>
libRbt.so (2013.1, Build901 2013/11/27)

>  <Rbt.Parameter_File>
/export/apps/rDock/src/rDock_2013.1_src/data/scripts/dock_solv.prm

>  <Rbt.Receptor>
prm/blind_docking_60.prm

>  <SCORE>
-8.91186

>  <SCORE.INTER>
-2.82336

>  <SCORE.INTER.CONST>
1

>  <SCORE.INTER.POLAR>
0

>  <SCORE.INTER.ROT>
8

>  <SCORE.INTER.SOLV>
13.5133

>  <SCORE.INTER.VDW>
-15.32

>  <SCORE.INTER.norm>
-0.0882298

>  <SCORE.INTRA>
-6.08851

>  <SCORE.INTRA.DIHEDRAL>
-8.48002

>  <SCORE.INTRA.DIHEDRAL.0>
10.9594

>  <SCORE.INTRA.POLAR>
0

>  <SCORE.INTRA.POLAR.0>
0

>  <SCORE.INTRA.REPUL>
0

>  <SCORE.INTRA.REPUL.0>
0

>  <SCORE.INTRA.SOLV>
-0.618588

>  <SCORE.INTRA.SOLV.lig_0>
-124.914

>  <SCORE.INTRA.VDW>
-1.53921

>  <SCORE.INTRA.VDW.0>
-4.69801

>  <SCORE.INTRA.norm>
-0.190266

>  <SCORE.RESTR>
0

>  <SCORE.RESTR.CAVITY>
0

>  <SCORE.RESTR.norm>
0

>  <SCORE.SYSTEM>
0

>  <SCORE.SYSTEM.CONST>
0

>  <SCORE.SYSTEM.DIHEDRAL>
0

>  <SCORE.SYSTEM.SOLV>
0

>  <SCORE.SYSTEM.norm>
0

>  <SCORE.heavy>
32

>  <SCORE.norm>
-0.278496

>  <RMSD>
53.383

$$$$
ligand
 OpenBabel11021811513D
libRbt.so/2013.1/901 2013/11/27
 32 34  0  0  0  0  0  0  0  0999 V2000
   35.2892  -24.4952   31.3202 P   0  0  1  0  0  0  0  0  0  0  0  0
   35.8033  -24.7614   28.5102 P   0  0  2  0  0  0  0  0  0  0  0  0
   38.5469  -24.3668   27.5445 P   0  0  1  0  0  0  0  0  0  0  0  0
   34.2438  -26.8818   31.2703 C   0  0  0  0  0  0  0  0  0  0  0  0
   35.3888  -26.1238   31.5390 O   0  0  0  0  0  0  0  0  0  0  0  0
   34.4429  -28.1909   31.6946 C   0  0  1  0  0  0  0  0  0  0  0  0
   35.5135  -28.8511   30.8473 O   0  0  0  0  0  0  0  0  0  0  0  0
   34.9830  -28.2396   33.1973 C   0  0  1  0  0  0  0  0  0  0  0  0
   33.9509  -28.9027   34.0812 O   0  0  0  0  0  0  0  0  0  0  0  0
   35.9751  -28.9722   33.1795 C   0  0  1  0  0  0  0  0  0  0  0  0
   35.5818  -30.3423   33.5869 O   0  0  0  0  0  0  0  0  0  0  0  0
   36.5268  -28.9810   31.6081 C   0  0  2  0  0  0  0  0  0  0  0  0
   39.3909  -25.2487   33.6701 N   0  0  0  0  0  0  0  0  0  0  0  0
   34.2148  -23.9240   32.2121 O   0  5  0  0  0  0  0  0  0  0  0  0
   35.1873  -24.3687   27.1909 O   0  5  0  0  0  0  0  0  0  0  0  0
   38.0242  -24.0334   26.1668 O   0  0  0  0  0  0  0  0  0  0  0  0
   38.5843  -26.0970   34.2884 C   0  0  0  0  0  0  0  0  0  0  0  0
   38.4419  -26.0219   35.7284 N   0  0  0  0  0  0  0  0  0  0  0  0
   36.6348  -23.8801   31.6322 O   0  0  0  0  0  0  0  0  0  0  0  0
   35.8716  -26.2629   28.6081 O   0  0  0  0  0  0  0  0  0  0  0  0
   39.6991  -23.4431   27.8743 O   0  5  0  0  0  0  0  0  0  0  0  0
   37.9011  -27.0146   33.6349 N   0  0  0  0  0  0  0  0  0  0  0  0
   34.8896  -24.2020   29.7539 O   0  0  0  0  0  0  0  0  0  0  0  0
   37.3199  -24.1350   28.6263 O   0  0  0  0  0  0  0  0  0  0  0  0
   39.0066  -25.8082   27.5620 O   0  0  0  0  0  0  0  0  0  0  0  0
   38.0041  -27.1174   32.3044 C   0  0  0  0  0  0  0  0  0  0  0  0
   38.8380  -26.2448   31.6350 C   0  0  0  0  0  0  0  0  0  0  0  0
   39.5592  -25.2724   32.3543 C   0  0  0  0  0  0  0  0  0  0  0  0
   40.4166  -24.3702   31.7004 O   0  0  0  0  0  0  0  0  0  0  0  0
   38.7717  -26.5441   30.3265 N   0  0  0  0  0  0  0  0  0  0  0  0
   37.9334  -27.5570   30.1922 C   0  0  0  0  0  0  0  0  0  0  0  0
   37.4594  -27.9140   31.3712 N   0  0  0  0  0  0  0  0  0  0  0  0
  1  5  1  1  0  0  0
  1 14  1  0  0  0  0
  1 19  2  0  0  0  0
  1 23  1  0  0  0  0
  2 15  1  6  0  0  0
  2 20  2  0  0  0  0
  2 23  1  0  0  0  0
  2 24  1  0  0  0  0
  3 16  1  6  0  0  0
  3 21  1  0  0  0  0
  3 24  1  0  0  0  0
  3 25  2  0  0  0  0
  4  5  1  0  0  0  0
  6  4  1  6  0  0  0
  6  7  1  0  0  0  0
  6  8  1  0  0  0  0
  7 12  1  0  0  0  0
  8  9  1  1  0  0  0
  8 10  1  0  0  0  0
 10 11  1  6  0  0  0
 10 12  1  0  0  0  0
 12 32  1  1  0  0  0
 13 17  2  0  0  0  0
 13 28  1  0  0  0  0
 17 18  1  0  0  0  0
 17 22  1  0  0  0  0
 22 26  2  0  0  0  0
 26 27  1  0  0  0  0
 26 32  1  0  0  0  0
 27 28  2  0  0  0  0
 27 30  1  0  0  0  0
 28 29  1  0  0  0  0
 30 31  2  0  0  0  0
 31 32  1  0  0  0  0
M  CHG  3  14  -1  15  -1  21  -1
M  END
>  <CHROM.1>
59.77209958,178.83502562,51.48442758,-66.85928049,-171.19425503,128.81507740
-57.14322907,-55.55957165,36.86748369,-25.98492631,30.81926444,1.30681372
-0.35802657,-1.06910912

>  <Name>
ligand

>  <RI>
0

>  <Rbt.Current_Directory>
/home/itssahil/PROJECTS/Mol_Feturizer/New_Systems/rnas/4Y1I

>  <Rbt.Executable>
rbdock ($Id: //depot/dev/client3/rdock/2013.1/src/exe/rbdock.cxx#4 $)

>  <Rbt.Library>
libRbt.so (2013.1, Build901 2013/11/27)

>  <Rbt.Parameter_File>
/export/apps/rDock/src/rDock_2013.1_src/data/scripts/dock_solv.prm

>  <Rbt.Receptor>
prm/blind_docking_60.prm

>  <SCORE>
-12.9644

>  <SCORE.INTER>
-4.69315

>  <SCORE.INTER.CONST>
1

>  <SCORE.INTER.POLAR>
0

>  <SCORE.INTER.ROT>
8

>  <SCORE.INTER.SOLV>
19.1757

>  <SCORE.INTER.VDW>
-18.454

>  <SCORE.INTER.norm>
-0.146661

>  <SCORE.INTRA>
-8.27126

>  <SCORE.INTRA.DIHEDRAL>
-9.04119

>  <SCORE.INTRA.DIHEDRAL.0>
10.9594

>  <SCORE.INTRA.POLAR>
0

>  <SCORE.INTRA.POLAR.0>
0

>  <SCORE.INTRA.REPUL>
0

>  <SCORE.INTRA.REPUL.0>
0

>  <SCORE.INTRA.SOLV>
-0.288735

>  <SCORE.INTRA.SOLV.lig_0>
-124.914

>  <SCORE.INTRA.VDW>
-3.6063

>  <SCORE.INTRA.VDW.0>
-4.69801

>  <SCORE.INTRA.norm>
-0.258477

>  <SCORE.RESTR>
0

>  <SCORE.RESTR.CAVITY>
0

>  <SCORE.RESTR.norm>
0

>  <SCORE.SYSTEM>
0

>  <SCORE.SYSTEM.CONST>
0

>  <SCORE.SYSTEM.DIHEDRAL>
0

>  <SCORE.SYSTEM.SOLV>
0

>  <SCORE.SYSTEM.norm>
0

>  <SCORE.heavy>
32

>  <SCORE.norm>
-0.405138

>  <RMSD>
53.495

$$$$
ligand
 OpenBabel11021811513D
libRbt.so/2013.1/901 2013/11/27
 32 34  0  0  0  0  0  0  0  0999 V2000
   35.5922  -25.7576   29.6401 P   0  0  1  0  0  0  0  0  0  0  0  0
   37.4291  -25.3620   27.4721 P   0  0  2  0  0  0  0  0  0  0  0  0
   36.5777  -25.5804   24.6716 P   0  0  1  0  0  0  0  0  0  0  0  0
   34.6374  -27.1353   31.6355 C   0  0  0  0  0  0  0  0  0  0  0  0
   34.9895  -27.1489   30.2814 O   0  0  0  0  0  0  0  0  0  0  0  0
   34.3705  -28.4324   32.0593 C   0  0  1  0  0  0  0  0  0  0  0  0
   35.5211  -29.3457   31.6826 O   0  0  0  0  0  0  0  0  0  0  0  0
   34.2522  -28.5119   33.6505 C   0  0  1  0  0  0  0  0  0  0  0  0
   32.8404  -28.8970   34.0310 O   0  0  0  0  0  0  0  0  0  0  0  0
   34.9910  -29.4350   34.0017 C   0  0  1  0  0  0  0  0  0  0  0  0
   34.1878  -30.6692   34.1735 O   0  0  0  0  0  0  0  0  0  0  0  0
   36.1007  -29.6429   32.7773 C   0  0  2  0  0  0  0  0  0  0  0  0
   39.9462  -28.2753   35.8962 N   0  0  0  0  0  0  0  0  0  0  0  0
   34.5157  -24.7011   29.6074 O   0  5  0  0  0  0  0  0  0  0  0  0
   38.6426  -25.7342   28.2864 O   0  5  0  0  0  0  0  0  0  0  0  0
   35.1741  -25.8210   25.1760 O   0  0  0  0  0  0  0  0  0  0  0  0
   38.9944  -29.1693   36.1145 C   0  0  0  0  0  0  0  0  0  0  0  0
   38.9720  -29.8921   37.3702 N   0  0  0  0  0  0  0  0  0  0  0  0
   36.7676  -25.3064   30.4774 O   0  0  0  0  0  0  0  0  0  0  0  0
   37.2441  -23.8674   27.4968 O   0  0  0  0  0  0  0  0  0  0  0  0
   36.7019  -24.1419   24.2189 O   0  5  0  0  0  0  0  0  0  0  0  0
   38.0595  -29.4269   35.2228 N   0  0  0  0  0  0  0  0  0  0  0  0
   36.0843  -26.0612   28.1025 O   0  0  0  0  0  0  0  0  0  0  0  0
   37.6243  -25.8645   25.9180 O   0  0  0  0  0  0  0  0  0  0  0  0
   36.8552  -26.5204   23.5189 O   0  0  0  0  0  0  0  0  0  0  0  0
   38.0441  -28.7812   34.0504 C   0  0  0  0  0  0  0  0  0  0  0  0
   39.0249  -27.8436   33.7976 C   0  0  0  0  0  0  0  0  0  0  0  0
   40.0148  -27.5853   34.7653 C   0  0  0  0  0  0  0  0  0  0  0  0
   41.0268  -26.6365   34.5363 O   0  0  0  0  0  0  0  0  0  0  0  0
   38.7980  -27.3400   32.5724 N   0  0  0  0  0  0  0  0  0  0  0  0
   37.7238  -27.9392   32.0888 C   0  0  0  0  0  0  0  0  0  0  0  0
   37.2548  -28.8078   32.9650 N   0  0  0  0  0  0  0  0  0  0  0  0
  1  5  1  1  0  0  0
  1 14  1  0  0  0  0
  1 19  2  0  0  0  0
  1 23  1  0  0  0  0
  2 15  1  1  0  0  0
  2 20  2  0  0  0  0
  2 23  1  0  0  0  0
  2 24  1  0  0  0  0
  3 16  1  1  0  0  0
  3 21  1  0  0  0  0
  3 24  1  0  0  0  0
  3 25  2  0  0  0  0
  4  5  1  0  0  0  0
  6  4  1  1  0  0  0
  6  7  1  0  0  0  0
  6  8  1  0  0  0  0
  7 12  1  0  0  0  0
  8  9  1  6  0  0  0
  8 10  1  0  0  0  0
 10 11  1  6  0  0  0
 10 12  1  0  0  0  0
 12 32  1  1  0  0  0
 13 17  2  0  0  0  0
 13 28  1  0  0  0  0
 17 18  1  0  0  0  0
 17 22  1  0  0  0  0
 22 26  2  0  0  0  0
 26 27  1  0  0  0  0
 26 32  1  0  0  0  0
 27 28  2  0  0  0  0
 27 30  1  0  0  0  0
 28 29  1  0  0  0  0
 30 31  2  0  0  0  0
 31 32  1  0  0  0  0
M  CHG  3  14  -1  15  -1  21  -1
M  END
>  <CHROM.1>
-67.34028866,59.80501812,-43.65090466,51.55900652,-169.85798113,174.98969235
-142.79127425,-176.02840547,36.75952417,-27.10707539,30.61921051,1.66910854
-0.27307644,-1.16594696

>  <Name>
ligand

>  <RI>
0

>  <Rbt.Current_Directory>
/home/itssahil/PROJECTS/Mol_Feturizer/New_Systems/rnas/4Y1I

>  <Rbt.Executable>
rbdock ($Id: //depot/dev/client3/rdock/2013.1/src/exe/rbdock.cxx#4 $)

>  <Rbt.Library>
libRbt.so (2013.1, Build901 2013/11/27)

>  <Rbt.Parameter_File>
/export/apps/rDock/src/rDock_2013.1_src/data/scripts/dock_solv.prm

>  <Rbt.Receptor>
prm/blind_docking_80.prm

>  <SCORE>
-14.6433

>  <SCORE.INTER>
-9.31575

>  <SCORE.INTER.CONST>
1

>  <SCORE.INTER.POLAR>
0

>  <SCORE.INTER.ROT>
8

>  <SCORE.INTER.SOLV>
19.3273

>  <SCORE.INTER.VDW>
-21.5863

>  <SCORE.INTER.norm>
-0.291117

>  <SCORE.INTRA>
-5.32753

>  <SCORE.INTRA.DIHEDRAL>
-6.87387

>  <SCORE.INTRA.DIHEDRAL.0>
10.9594

>  <SCORE.INTRA.POLAR>
0

>  <SCORE.INTRA.POLAR.0>
0

>  <SCORE.INTRA.REPUL>
0

>  <SCORE.INTRA.REPUL.0>
0

>  <SCORE.INTRA.SOLV>
-3.67541

>  <SCORE.INTRA.SOLV.lig_0>
-124.914

>  <SCORE.INTRA.VDW>
-0.0528908

>  <SCORE.INTRA.VDW.0>
-4.69801

>  <SCORE.INTRA.norm>
-0.166485

>  <SCORE.RESTR>
0

>  <SCORE.RESTR.CAVITY>
0

>  <SCORE.RESTR.norm>
0

>  <SCORE.SYSTEM>
0

>  <SCORE.SYSTEM.CONST>
0

>  <SCORE.SYSTEM.DIHEDRAL>
0

>  <SCORE.SYSTEM.SOLV>
0

>  <SCORE.SYSTEM.norm>
0

>  <SCORE.heavy>
32

>  <SCORE.norm>
-0.457603

>  <RMSD>
53.692

$$$$
ligand
 OpenBabel11021811513D
libRbt.so/2013.1/901 2013/11/27
 32 34  0  0  0  0  0  0  0  0999 V2000
   39.0748  -25.6500   28.2941 P   0  0  1  0  0  0  0  0  0  0  0  0
   38.8846  -23.0128   27.1805 P   0  0  2  0  0  0  0  0  0  0  0  0
   36.7231  -22.7843   25.2079 P   0  0  1  0  0  0  0  0  0  0  0  0
   37.2964  -26.3166   30.0785 C   0  0  0  0  0  0  0  0  0  0  0  0
   38.0699  -26.7491   28.9957 O   0  0  0  0  0  0  0  0  0  0  0  0
   36.5002  -27.3639   30.5286 C   0  0  1  0  0  0  0  0  0  0  0  0
   37.3723  -28.5283   30.9570 O   0  0  0  0  0  0  0  0  0  0  0  0
   35.6641  -26.9443   31.8236 C   0  0  1  0  0  0  0  0  0  0  0  0
   34.1885  -26.9546   31.4944 O   0  0  0  0  0  0  0  0  0  0  0  0
   35.8596  -27.8314   32.6579 C   0  0  1  0  0  0  0  0  0  0  0  0
   34.7419  -28.8043   32.6118 O   0  0  0  0  0  0  0  0  0  0  0  0
   37.2841  -28.5789   32.2267 C   0  0  2  0  0  0  0  0  0  0  0  0
   40.4746  -28.3645   36.2467 N   0  0  0  0  0  0  0  0  0  0  0  0
   40.1294  -25.2171   29.2823 O   0  5  0  0  0  0  0  0  0  0  0  0
   39.9981  -23.4230   26.2500 O   0  5  0  0  0  0  0  0  0  0  0  0
   35.8586  -23.8298   25.8727 O   0  0  0  0  0  0  0  0  0  0  0  0
   39.4495  -29.1809   36.0586 C   0  0  0  0  0  0  0  0  0  0  0  0
   39.1281  -30.1643   37.0731 N   0  0  0  0  0  0  0  0  0  0  0  0
   39.7046  -26.2788   27.0717 O   0  0  0  0  0  0  0  0  0  0  0  0
   39.4412  -22.1537   28.2854 O   0  0  0  0  0  0  0  0  0  0  0  0
   35.8392  -21.6830   24.6644 O   0  5  0  0  0  0  0  0  0  0  0  0
   38.7056  -29.1301   34.9725 N   0  0  0  0  0  0  0  0  0  0  0  0
   38.1890  -24.3380   27.8549 O   0  0  0  0  0  0  0  0  0  0  0  0
   37.7457  -22.1660   26.3487 O   0  0  0  0  0  0  0  0  0  0  0  0
   37.5058  -23.4321   24.0867 O   0  0  0  0  0  0  0  0  0  0  0  0
   38.9686  -28.2364   34.0115 C   0  0  0  0  0  0  0  0  0  0  0  0
   40.0316  -27.3729   34.1827 C   0  0  0  0  0  0  0  0  0  0  0  0
   40.8137  -27.4459   35.3515 C   0  0  0  0  0  0  0  0  0  0  0  0
   41.9030  -26.5803   35.5540 O   0  0  0  0  0  0  0  0  0  0  0  0
   40.0909  -26.5827   33.0972 N   0  0  0  0  0  0  0  0  0  0  0  0
   39.1075  -26.9412   32.2902 C   0  0  0  0  0  0  0  0  0  0  0  0
   38.4198  -27.9330   32.8246 N   0  0  0  0  0  0  0  0  0  0  0  0
  1  5  1  1  0  0  0
  1 14  1  0  0  0  0
  1 19  2  0  0  0  0
  1 23  1  0  0  0  0
  2 15  1  6  0  0  0
  2 20  2  0  0  0  0
  2 23  1  0  0  0  0
  2 24  1  0  0  0  0
  3 16  1  1  0  0  0
  3 21  1  0  0  0  0
  3 24  1  0  0  0  0
  3 25  2  0  0  0  0
  4  5  1  0  0  0  0
  6  4  1  1  0  0  0
  6  7  1  0  0  0  0
  6  8  1  0  0  0  0
  7 12  1  0  0  0  0
  8  9  1  6  0  0  0
  8 10  1  0  0  0  0
 10 11  1  6  0  0  0
 10 12  1  0  0  0  0
 12 32  1  1  0  0  0
 13 17  2  0  0  0  0
 13 28  1  0  0  0  0
 17 18  1  0  0  0  0
 17 22  1  0  0  0  0
 22 26  2  0  0  0  0
 26 27  1  0  0  0  0
 26 32  1  0  0  0  0
 27 28  2  0  0  0  0
 27 30  1  0  0  0  0
 28 29  1  0  0  0  0
 30 31  2  0  0  0  0
 31 32  1  0  0  0  0
M  CHG  3  14  -1  15  -1  21  -1
M  END
>  <CHROM.1>
64.04465326,37.49931912,61.88061470,59.45101045,179.14775678,-150.45502926
177.31749546,69.32534565,38.19332679,-25.89847703,30.15227153,-1.70417101
0.33381068,2.15283484

>  <Name>
ligand

>  <RI>
0

>  <Rbt.Current_Directory>
/home/itssahil/PROJECTS/Mol_Feturizer/New_Systems/rnas/4Y1I

>  <Rbt.Executable>
rbdock ($Id: //depot/dev/client3/rdock/2013.1/src/exe/rbdock.cxx#4 $)

>  <Rbt.Library>
libRbt.so (2013.1, Build901 2013/11/27)

>  <Rbt.Parameter_File>
/export/apps/rDock/src/rDock_2013.1_src/data/scripts/dock_solv.prm

>  <Rbt.Receptor>
prm/blind_docking_100.prm

>  <SCORE>
-12.7597

>  <SCORE.INTER>
-6.63762

>  <SCORE.INTER.CONST>
1

>  <SCORE.INTER.POLAR>
0

>  <SCORE.INTER.ROT>
8

>  <SCORE.INTER.SOLV>
23.4894

>  <SCORE.INTER.VDW>
-21.1882

>  <SCORE.INTER.norm>
-0.207426

>  <SCORE.INTRA>
-6.12211

>  <SCORE.INTRA.DIHEDRAL>
-8.79885

>  <SCORE.INTRA.DIHEDRAL.0>
10.9594

>  <SCORE.INTRA.POLAR>
0

>  <SCORE.INTRA.POLAR.0>
0

>  <SCORE.INTRA.REPUL>
0

>  <SCORE.INTRA.REPUL.0>
0

>  <SCORE.INTRA.SOLV>
-4.32197

>  <SCORE.INTRA.SOLV.lig_0>
-124.914

>  <SCORE.INTRA.VDW>
0.438302

>  <SCORE.INTRA.VDW.0>
-4.69801

>  <SCORE.INTRA.norm>
-0.191316

>  <SCORE.RESTR>
0

>  <SCORE.RESTR.CAVITY>
0

>  <SCORE.RESTR.norm>
0

>  <SCORE.SYSTEM>
0

>  <SCORE.SYSTEM.CONST>
0

>  <SCORE.SYSTEM.DIHEDRAL>
0

>  <SCORE.SYSTEM.SOLV>
0

>  <SCORE.SYSTEM.norm>
0

>  <SCORE.heavy>
32

>  <SCORE.norm>
-0.398742

>  <RMSD>
53.824

$$$$
ligand
 OpenBabel11021811513D
libRbt.so/2013.1/901 2013/11/27
 32 34  0  0  0  0  0  0  0  0999 V2000
   34.3594  -28.3972   33.9178 P   0  0  1  0  0  0  0  0  0  0  0  0
   35.9273  -28.0182   36.2904 P   0  0  2  0  0  0  0  0  0  0  0  0
   38.0651  -26.0070   36.2998 P   0  0  1  0  0  0  0  0  0  0  0  0
   34.2583  -26.8478   31.8249 C   0  0  0  0  0  0  0  0  0  0  0  0
   34.4799  -26.9183   33.2047 O   0  0  0  0  0  0  0  0  0  0  0  0
   35.3800  -27.3159   31.1496 C   0  0  1  0  0  0  0  0  0  0  0  0
   35.1536  -27.2323   29.6524 O   0  0  0  0  0  0  0  0  0  0  0  0
   36.6603  -26.4087   31.4494 C   0  0  1  0  0  0  0  0  0  0  0  0
   37.6923  -27.2256   32.1935 O   0  0  0  0  0  0  0  0  0  0  0  0
   37.1416  -26.1241   30.3500 C   0  0  1  0  0  0  0  0  0  0  0  0
   38.2450  -27.0639   30.0383 O   0  0  0  0  0  0  0  0  0  0  0  0
   35.9137  -26.2977   29.2383 C   0  0  2  0  0  0  0  0  0  0  0  0
   36.0005  -21.1624   29.3140 N   0  0  0  0  0  0  0  0  0  0  0  0
   33.0202  -29.0128   33.5957 O   0  5  0  0  0  0  0  0  0  0  0  0
   36.8109  -29.2099   36.0189 O   0  5  0  0  0  0  0  0  0  0  0  0
   37.9654  -25.9058   37.8039 O   0  0  0  0  0  0  0  0  0  0  0  0
   37.0031  -22.0006   29.5258 C   0  0  0  0  0  0  0  0  0  0  0  0
   38.3201  -21.4739   29.8217 N   0  0  0  0  0  0  0  0  0  0  0  0
   35.4895  -29.2698   33.4202 O   0  0  0  0  0  0  0  0  0  0  0  0
   35.6881  -27.8948   37.7723 O   0  0  0  0  0  0  0  0  0  0  0  0
   39.2184  -26.9181   35.9399 O   0  5  0  0  0  0  0  0  0  0  0  0
   36.8439  -23.3075   29.4763 N   0  0  0  0  0  0  0  0  0  0  0  0
   34.4766  -28.2038   35.5450 O   0  0  0  0  0  0  0  0  0  0  0  0
   36.6512  -26.6490   35.7360 O   0  0  0  0  0  0  0  0  0  0  0  0
   38.2880  -24.6247   35.7264 O   0  0  0  0  0  0  0  0  0  0  0  0
   35.6437  -23.8348   29.2063 C   0  0  0  0  0  0  0  0  0  0  0  0
   34.5811  -22.9829   28.9819 C   0  0  0  0  0  0  0  0  0  0  0  0
   34.7749  -21.5893   29.0391 C   0  0  0  0  0  0  0  0  0  0  0  0
   33.7120  -20.6966   28.8146 O   0  0  0  0  0  0  0  0  0  0  0  0
   33.4991  -23.7409   28.7352 N   0  0  0  0  0  0  0  0  0  0  0  0
   33.8755  -25.0060   28.8044 C   0  0  0  0  0  0  0  0  0  0  0  0
   35.1620  -25.0823   29.0895 N   0  0  0  0  0  0  0  0  0  0  0  0
  1  5  1  6  0  0  0
  1 14  1  0  0  0  0
  1 19  2  0  0  0  0
  1 23  1  0  0  0  0
  2 15  1  6  0  0  0
  2 20  2  0  0  0  0
  2 23  1  0  0  0  0
  2 24  1  0  0  0  0
  3 16  1  1  0  0  0
  3 21  1  0  0  0  0
  3 24  1  0  0  0  0
  3 25  2  0  0  0  0
  4  5  1  0  0  0  0
  6  4  1  1  0  0  0
  6  7  1  0  0  0  0
  6  8  1  0  0  0  0
  7 12  1  0  0  0  0
  8  9  1  1  0  0  0
  8 10  1  0  0  0  0
 10 11  1  6  0  0  0
 10 12  1  0  0  0  0
 12 32  1  1  0  0  0
 13 17  2  0  0  0  0
 13 28  1  0  0  0  0
 17 18  1  0  0  0  0
 17 22  1  0  0  0  0
 22 26  2  0  0  0  0
 26 27  1  0  0  0  0
 26 32  1  0  0  0  0
 27 28  2  0  0  0  0
 27 30  1  0  0  0  0
 28 29  1  0  0  0  0
 30 31  2  0  0  0  0
 31 32  1  0  0  0  0
M  CHG  3  14  -1  15  -1  21  -1
M  END
>  <CHROM.1>
-54.33585470,-58.90620260,-50.57978078,-179.52480013,-77.08172880,151.32872748
-80.22516261,-64.25193576,35.99033372,-25.98725353,32.63003789,1.38580474
0.83630354,2.28349099

>  <Name>
ligand

>  <RI>
0

>  <Rbt.Current_Directory>
/home/itssahil/PROJECTS/Mol_Feturizer/New_Systems/rnas/4Y1I

>  <Rbt.Executable>
rbdock ($Id: //depot/dev/client3/rdock/2013.1/src/exe/rbdock.cxx#4 $)

>  <Rbt.Library>
libRbt.so (2013.1, Build901 2013/11/27)

>  <Rbt.Parameter_File>
/export/apps/rDock/src/rDock_2013.1_src/data/scripts/dock_solv.prm

>  <Rbt.Receptor>
prm/blind_docking_100.prm

>  <SCORE>
-13.8183

>  <SCORE.INTER>
-8.84759

>  <SCORE.INTER.CONST>
1

>  <SCORE.INTER.POLAR>
0

>  <SCORE.INTER.ROT>
8

>  <SCORE.INTER.SOLV>
18.4625

>  <SCORE.INTER.VDW>
-20.9859

>  <SCORE.INTER.norm>
-0.276487

>  <SCORE.INTRA>
-4.97073

>  <SCORE.INTRA.DIHEDRAL>
-7.53114

>  <SCORE.INTRA.DIHEDRAL.0>
10.9594

>  <SCORE.INTRA.POLAR>
0

>  <SCORE.INTRA.POLAR.0>
0

>  <SCORE.INTRA.REPUL>
0.0496196

>  <SCORE.INTRA.REPUL.0>
0

>  <SCORE.INTRA.SOLV>
-2.33441

>  <SCORE.INTRA.SOLV.lig_0>
-124.914

>  <SCORE.INTRA.VDW>
-0.286055

>  <SCORE.INTRA.VDW.0>
-4.69801

>  <SCORE.INTRA.norm>
-0.155335

>  <SCORE.RESTR>
0

>  <SCORE.RESTR.CAVITY>
0

>  <SCORE.RESTR.norm>
0

>  <SCORE.SYSTEM>
0

>  <SCORE.SYSTEM.CONST>
0

>  <SCORE.SYSTEM.DIHEDRAL>
0

>  <SCORE.SYSTEM.SOLV>
0

>  <SCORE.SYSTEM.norm>
0

>  <SCORE.heavy>
32

>  <SCORE.norm>
-0.431822

>  <RMSD>
53.876

$$$$
ligand
 OpenBabel11021811513D
libRbt.so/2013.1/901 2013/11/27
 32 34  0  0  0  0  0  0  0  0999 V2000
   34.8549  -24.6605   30.4559 P   0  0  1  0  0  0  0  0  0  0  0  0
   34.0760  -23.1720   28.1302 P   0  0  2  0  0  0  0  0  0  0  0  0
   32.8005  -21.0649   26.5338 P   0  0  1  0  0  0  0  0  0  0  0  0
   35.7774  -25.2770   32.8140 C   0  0  0  0  0  0  0  0  0  0  0  0
   35.9628  -24.5026   31.6634 O   0  0  0  0  0  0  0  0  0  0  0  0
   36.9343  -25.2483   33.5848 C   0  0  1  0  0  0  0  0  0  0  0  0
   36.6449  -25.7915   34.9708 O   0  0  0  0  0  0  0  0  0  0  0  0
   38.0656  -26.1950   32.9717 C   0  0  1  0  0  0  0  0  0  0  0  0
   39.2389  -25.3522   32.5253 O   0  0  0  0  0  0  0  0  0  0  0  0
   38.4570  -26.9048   33.9013 C   0  0  1  0  0  0  0  0  0  0  0  0
   39.6828  -26.3133   34.4890 O   0  0  0  0  0  0  0  0  0  0  0  0
   37.2333  -26.9197   35.0310 C   0  0  2  0  0  0  0  0  0  0  0  0
   36.4674  -31.9882   34.7006 N   0  0  0  0  0  0  0  0  0  0  0  0
   35.2504  -25.7954   29.5440 O   0  5  0  0  0  0  0  0  0  0  0  0
   32.9293  -24.1494   28.0687 O   0  5  0  0  0  0  0  0  0  0  0  0
   33.7001  -21.3911   25.3647 O   0  0  0  0  0  0  0  0  0  0  0  0
   37.5912  -31.3473   34.9816 C   0  0  0  0  0  0  0  0  0  0  0  0
   38.7977  -32.1071   35.2400 N   0  0  0  0  0  0  0  0  0  0  0  0
   33.4970  -24.9101   31.0724 O   0  0  0  0  0  0  0  0  0  0  0  0
   35.0787  -23.5024   27.0558 O   0  0  0  0  0  0  0  0  0  0  0  0
   31.4626  -21.7427   26.3337 O   0  5  0  0  0  0  0  0  0  0  0  0
   37.6515  -30.0323   35.0350 N   0  0  0  0  0  0  0  0  0  0  0  0
   34.8271  -23.2667   29.5868 O   0  0  0  0  0  0  0  0  0  0  0  0
   33.5171  -21.6412   27.9063 O   0  0  0  0  0  0  0  0  0  0  0  0
   32.6231  -19.5645   26.6157 O   0  0  0  0  0  0  0  0  0  0  0  0
   36.5600  -29.2934   34.8026 C   0  0  0  0  0  0  0  0  0  0  0  0
   35.3751  -29.9366   34.5068 C   0  0  0  0  0  0  0  0  0  0  0  0
   35.3341  -31.3433   34.4559 C   0  0  0  0  0  0  0  0  0  0  0  0
   34.1420  -32.0266   34.1579 O   0  0  0  0  0  0  0  0  0  0  0  0
   34.4379  -28.9923   34.3166 N   0  0  0  0  0  0  0  0  0  0  0  0
   35.0174  -27.8168   34.4867 C   0  0  0  0  0  0  0  0  0  0  0  0
   36.2949  -27.9777   34.7771 N   0  0  0  0  0  0  0  0  0  0  0  0
  1  5  1  1  0  0  0
  1 14  1  0  0  0  0
  1 19  2  0  0  0  0
  1 23  1  0  0  0  0
  2 15  1  6  0  0  0
  2 20  2  0  0  0  0
  2 23  1  0  0  0  0
  2 24  1  0  0  0  0
  3 16  1  6  0  0  0
  3 21  1  0  0  0  0
  3 24  1  0  0  0  0
  3 25  2  0  0  0  0
  4  5  1  0  0  0  0
  6  4  1  6  0  0  0
  6  7  1  0  0  0  0
  6  8  1  0  0  0  0
  7 12  1  0  0  0  0
  8  9  1  1  0  0  0
  8 10  1  0  0  0  0
 10 11  1  1  0  0  0
 10 12  1  0  0  0  0
 12 32  1  6  0  0  0
 13 17  2  0  0  0  0
 13 28  1  0  0  0  0
 17 18  1  0  0  0  0
 17 22  1  0  0  0  0
 22 26  2  0  0  0  0
 26 27  1  0  0  0  0
 26 32  1  0  0  0  0
 27 28  2  0  0  0  0
 27 30  1  0  0  0  0
 28 29  1  0  0  0  0
 30 31  2  0  0  0  0
 31 32  1  0  0  0  0
M  CHG  3  14  -1  15  -1  21  -1
M  END
>  <CHROM.1>
-87.19913705,28.96413791,-51.61567790,166.37636763,166.83847370,-177.78216360
167.07732101,-63.85960708,35.40047493,-25.75092058,31.35610028,-1.96260571
0.59456994,2.59375009

>  <Name>
ligand

>  <RI>
0

>  <Rbt.Current_Directory>
/home/itssahil/PROJECTS/Mol_Feturizer/New_Systems/rnas/4Y1I

>  <Rbt.Executable>
rbdock ($Id: //depot/dev/client3/rdock/2013.1/src/exe/rbdock.cxx#4 $)

>  <Rbt.Library>
libRbt.so (2013.1, Build901 2013/11/27)

>  <Rbt.Parameter_File>
/export/apps/rDock/src/rDock_2013.1_src/data/scripts/dock_solv.prm

>  <Rbt.Receptor>
prm/blind_docking_100.prm

>  <SCORE>
-7.4796

>  <SCORE.INTER>
-4.08131

>  <SCORE.INTER.CONST>
1

>  <SCORE.INTER.POLAR>
0

>  <SCORE.INTER.ROT>
8

>  <SCORE.INTER.SOLV>
22.361

>  <SCORE.INTER.VDW>
-19.1079

>  <SCORE.INTER.norm>
-0.127541

>  <SCORE.INTRA>
-3.40541

>  <SCORE.INTRA.DIHEDRAL>
-5.65863

>  <SCORE.INTRA.DIHEDRAL.0>
10.9594

>  <SCORE.INTRA.POLAR>
0

>  <SCORE.INTRA.POLAR.0>
0

>  <SCORE.INTRA.REPUL>
0

>  <SCORE.INTRA.REPUL.0>
0

>  <SCORE.INTRA.SOLV>
-2.86373

>  <SCORE.INTRA.SOLV.lig_0>
-124.914

>  <SCORE.INTRA.VDW>
0.855773

>  <SCORE.INTRA.VDW.0>
-4.69801

>  <SCORE.INTRA.norm>
-0.106419

>  <SCORE.RESTR>
0.00712297

>  <SCORE.RESTR.CAVITY>
0.00712297

>  <SCORE.RESTR.norm>
0.000222593

>  <SCORE.SYSTEM>
0

>  <SCORE.SYSTEM.CONST>
0

>  <SCORE.SYSTEM.DIHEDRAL>
0

>  <SCORE.SYSTEM.SOLV>
0

>  <SCORE.SYSTEM.norm>
0

>  <SCORE.heavy>
32

>  <SCORE.norm>
-0.233737

>  <RMSD>
53.902

$$$$
ligand
 OpenBabel11021811513D
libRbt.so/2013.1/901 2013/11/27
 32 34  0  0  0  0  0  0  0  0999 V2000
   38.2843  -25.3682   28.6840 P   0  0  1  0  0  0  0  0  0  0  0  0
   37.6200  -22.5785   28.5979 P   0  0  2  0  0  0  0  0  0  0  0  0
   34.7670  -21.8983   28.7120 P   0  0  1  0  0  0  0  0  0  0  0  0
   37.6466  -26.8999   30.6937 C   0  0  0  0  0  0  0  0  0  0  0  0
   37.6438  -26.7531   29.3021 O   0  0  0  0  0  0  0  0  0  0  0  0
   36.7455  -27.8942   31.0578 C   0  0  1  0  0  0  0  0  0  0  0  0
   36.8973  -28.2138   32.5325 O   0  0  0  0  0  0  0  0  0  0  0  0
   35.2353  -27.4084   30.8691 C   0  0  1  0  0  0  0  0  0  0  0  0
   34.5696  -28.2412   29.7970 O   0  0  0  0  0  0  0  0  0  0  0  0
   34.6623  -27.6550   31.9331 C   0  0  1  0  0  0  0  0  0  0  0  0
   33.9508  -28.9507   31.8194 O   0  0  0  0  0  0  0  0  0  0  0  0
   35.8502  -27.7572   33.0960 C   0  0  2  0  0  0  0  0  0  0  0  0
   37.4186  -25.1866   37.2574 N   0  0  0  0  0  0  0  0  0  0  0  0
   39.6329  -25.1057   29.3074 O   0  5  0  0  0  0  0  0  0  0  0  0
   37.8514  -22.5071   27.1094 O   0  5  0  0  0  0  0  0  0  0  0  0
   34.3401  -23.0714   29.5629 O   0  0  0  0  0  0  0  0  0  0  0  0
   37.2835  -26.4949   37.1068 C   0  0  0  0  0  0  0  0  0  0  0  0
   37.6001  -27.3747   38.2138 N   0  0  0  0  0  0  0  0  0  0  0  0
   38.4013  -25.5147   27.1837 O   0  0  0  0  0  0  0  0  0  0  0  0
   38.8631  -22.1348   29.3235 O   0  0  0  0  0  0  0  0  0  0  0  0
   33.9427  -20.6867   29.0890 O   0  5  0  0  0  0  0  0  0  0  0  0
   36.8681  -27.0293   35.9766 N   0  0  0  0  0  0  0  0  0  0  0  0
   37.2799  -24.1202   29.0477 O   0  0  0  0  0  0  0  0  0  0  0  0
   36.3638  -21.6018   29.0149 O   0  0  0  0  0  0  0  0  0  0  0  0
   34.5572  -22.2445   27.2541 O   0  0  0  0  0  0  0  0  0  0  0  0
   36.5650  -26.2520   34.9300 C   0  0  0  0  0  0  0  0  0  0  0  0
   36.6966  -24.8842   35.0604 C   0  0  0  0  0  0  0  0  0  0  0  0
   37.1433  -24.3353   36.2779 C   0  0  0  0  0  0  0  0  0  0  0  0
   37.2878  -22.9462   36.4407 O   0  0  0  0  0  0  0  0  0  0  0  0
   36.3378  -24.3291   33.8903 N   0  0  0  0  0  0  0  0  0  0  0  0
   35.9986  -25.3101   33.0721 C   0  0  0  0  0  0  0  0  0  0  0  0
   36.1264  -26.4742   33.6809 N   0  0  0  0  0  0  0  0  0  0  0  0
  1  5  1  1  0  0  0
  1 14  1  0  0  0  0
  1 19  2  0  0  0  0
  1 23  1  0  0  0  0
  2 15  1  6  0  0  0
  2 20  2  0  0  0  0
  2 23  1  0  0  0  0
  2 24  1  0  0  0  0
  3 16  1  1  0  0  0
  3 21  1  0  0  0  0
  3 24  1  0  0  0  0
  3 25  2  0  0  0  0
  4  5  1  0  0  0  0
  6  4  1  1  0  0  0
  6  7  1  0  0  0  0
  6  8  1  0  0  0  0
  7 12  1  0  0  0  0
  8  9  1  6  0  0  0
  8 10  1  0  0  0  0
 10 11  1  6  0  0  0
 10 12  1  0  0  0  0
 12 32  1  6  0  0  0
 13 17  2  0  0  0  0
 13 28  1  0  0  0  0
 17 18  1  0  0  0  0
 17 22  1  0  0  0  0
 22 26  2  0  0  0  0
 26 27  1  0  0  0  0
 26 32  1  0  0  0  0
 27 28  2  0  0  0  0
 27 30  1  0  0  0  0
 28 29  1  0  0  0  0
 30 31  2  0  0  0  0
 31 32  1  0  0  0  0
M  CHG  3  14  -1  15  -1  21  -1
M  END
>  <CHROM.1>
48.73019672,54.89279553,68.43823362,171.11428953,162.57360664,-90.05246618
179.25681564,73.03466173,36.60952871,-24.96655807,31.26459414,2.26063932
-1.54582705,-0.43092345

>  <Name>
ligand

>  <RI>
0

>  <Rbt.Current_Directory>
/home/itssahil/PROJECTS/Mol_Feturizer/New_Systems/rnas/4Y1I

>  <Rbt.Executable>
rbdock ($Id: //depot/dev/client3/rdock/2013.1/src/exe/rbdock.cxx#4 $)

>  <Rbt.Library>
libRbt.so (2013.1, Build901 2013/11/27)

>  <Rbt.Parameter_File>
/export/apps/rDock/src/rDock_2013.1_src/data/scripts/dock_solv.prm

>  <Rbt.Receptor>
prm/blind_docking_100.prm

>  <SCORE>
-12.7836

>  <SCORE.INTER>
-7.10796

>  <SCORE.INTER.CONST>
1

>  <SCORE.INTER.POLAR>
0

>  <SCORE.INTER.ROT>
8

>  <SCORE.INTER.SOLV>
18.2845

>  <SCORE.INTER.VDW>
-19.7668

>  <SCORE.INTER.norm>
-0.222124

>  <SCORE.INTRA>
-5.67564

>  <SCORE.INTRA.DIHEDRAL>
-7.4994

>  <SCORE.INTRA.DIHEDRAL.0>
10.9594

>  <SCORE.INTRA.POLAR>
0

>  <SCORE.INTRA.POLAR.0>
0

>  <SCORE.INTRA.REPUL>
0

>  <SCORE.INTRA.REPUL.0>
0

>  <SCORE.INTRA.SOLV>
-4.15545

>  <SCORE.INTRA.SOLV.lig_0>
-124.914

>  <SCORE.INTRA.VDW>
0.151785

>  <SCORE.INTRA.VDW.0>
-4.69801

>  <SCORE.INTRA.norm>
-0.177364

>  <SCORE.RESTR>
0

>  <SCORE.RESTR.CAVITY>
0

>  <SCORE.RESTR.norm>
0

>  <SCORE.SYSTEM>
0

>  <SCORE.SYSTEM.CONST>
0

>  <SCORE.SYSTEM.DIHEDRAL>
0

>  <SCORE.SYSTEM.SOLV>
0

>  <SCORE.SYSTEM.norm>
0

>  <SCORE.heavy>
32

>  <SCORE.norm>
-0.399487

>  <RMSD>
53.994

$$$$
ligand
 OpenBabel11021811513D
libRbt.so/2013.1/901 2013/11/27
 32 34  0  0  0  0  0  0  0  0999 V2000
   35.1655  -25.2448   30.5766 P   0  0  1  0  0  0  0  0  0  0  0  0
   33.7780  -24.5458   28.1647 P   0  0  2  0  0  0  0  0  0  0  0  0
   33.9335  -21.6239   28.3960 P   0  0  1  0  0  0  0  0  0  0  0  0
   35.1694  -27.2981   32.1814 C   0  0  0  0  0  0  0  0  0  0  0  0
   35.0512  -26.8630   30.8568 O   0  0  0  0  0  0  0  0  0  0  0  0
   35.1131  -28.6868   32.2212 C   0  0  1  0  0  0  0  0  0  0  0  0
   36.3622  -29.2725   31.5914 O   0  0  0  0  0  0  0  0  0  0  0  0
   35.0880  -29.2253   33.7250 C   0  0  1  0  0  0  0  0  0  0  0  0
   33.7672  -29.9112   33.9915 O   0  0  0  0  0  0  0  0  0  0  0  0
   35.9684  -30.0865   33.7935 C   0  0  1  0  0  0  0  0  0  0  0  0
   35.3602  -31.4265   33.6138 O   0  0  0  0  0  0  0  0  0  0  0  0
   37.0331  -29.7725   32.5519 C   0  0  2  0  0  0  0  0  0  0  0  0
   40.6245  -28.6362   36.0441 N   0  0  0  0  0  0  0  0  0  0  0  0
   33.9862  -24.5343   31.1936 O   0  5  0  0  0  0  0  0  0  0  0  0
   32.7004  -25.5829   28.3583 O   0  5  0  0  0  0  0  0  0  0  0  0
   35.3920  -21.8389   28.0662 O   0  0  0  0  0  0  0  0  0  0  0  0
   39.7975  -29.6699   36.0278 C   0  0  0  0  0  0  0  0  0  0  0  0
   39.8561  -30.6446   37.0983 N   0  0  0  0  0  0  0  0  0  0  0  0
   36.4662  -24.7415   31.1607 O   0  0  0  0  0  0  0  0  0  0  0  0
   34.0954  -24.4158   26.6980 O   0  0  0  0  0  0  0  0  0  0  0  0
   33.2377  -21.0205   27.1954 O   0  5  0  0  0  0  0  0  0  0  0  0
   38.9159  -29.8447   35.0645 N   0  0  0  0  0  0  0  0  0  0  0  0
   35.1465  -24.9929   28.9534 O   0  0  0  0  0  0  0  0  0  0  0  0
   33.2664  -23.0943   28.7456 O   0  0  0  0  0  0  0  0  0  0  0  0
   33.8288  -20.6954   29.5862 O   0  0  0  0  0  0  0  0  0  0  0  0
   38.8290  -28.9674   34.0573 C   0  0  0  0  0  0  0  0  0  0  0  0
   39.6795  -27.8803   34.0504 C   0  0  0  0  0  0  0  0  0  0  0  0
   40.6144  -27.7143   35.0902 C   0  0  0  0  0  0  0  0  0  0  0  0
   41.4940  -26.6176   35.1102 O   0  0  0  0  0  0  0  0  0  0  0  0
   39.4025  -27.1561   32.9527 N   0  0  0  0  0  0  0  0  0  0  0  0
   38.4235  -27.7678   32.3092 C   0  0  0  0  0  0  0  0  0  0  0  0
   38.0635  -28.8582   32.9601 N   0  0  0  0  0  0  0  0  0  0  0  0
  1  5  1  1  0  0  0
  1 14  1  0  0  0  0
  1 19  2  0  0  0  0
  1 23  1  0  0  0  0
  2 15  1  1  0  0  0
  2 20  2  0  0  0  0
  2 23  1  0  0  0  0
  2 24  1  0  0  0  0
  3 16  1  6  0  0  0
  3 21  1  0  0  0  0
  3 24  1  0  0  0  0
  3 25  2  0  0  0  0
  4  5  1  0  0  0  0
  6  4  1  1  0  0  0
  6  7  1  0  0  0  0
  6  8  1  0  0  0  0
  7 12  1  0  0  0  0
  8  9  1  6  0  0  0
  8 10  1  0  0  0  0
 10 11  1  6  0  0  0
 10 12  1  0  0  0  0
 12 32  1  1  0  0  0
 13 17  2  0  0  0  0
 13 28  1  0  0  0  0
 17 18  1  0  0  0  0
 17 22  1  0  0  0  0
 22 26  2  0  0  0  0
 26 27  1  0  0  0  0
 26 32  1  0  0  0  0
 27 28  2  0  0  0  0
 27 30  1  0  0  0  0
 28 29  1  0  0  0  0
 30 31  2  0  0  0  0
 31 32  1  0  0  0  0
M  CHG  3  14  -1  15  -1  21  -1
M  END
>  <CHROM.1>
-66.64962938,-59.36683313,-27.52721478,69.02706656,-177.16146944,169.75776389
98.86759342,-162.92898151,36.08237865,-26.40112401,31.52088207,2.14203120
-0.51431633,-0.47744157

>  <Name>
ligand

>  <RI>
0

>  <Rbt.Current_Directory>
/home/itssahil/PROJECTS/Mol_Feturizer/New_Systems/rnas/4Y1I

>  <Rbt.Executable>
rbdock ($Id: //depot/dev/client3/rdock/2013.1/src/exe/rbdock.cxx#4 $)

>  <Rbt.Library>
libRbt.so (2013.1, Build901 2013/11/27)

>  <Rbt.Parameter_File>
/export/apps/rDock/src/rDock_2013.1_src/data/scripts/dock_solv.prm

>  <Rbt.Receptor>
prm/blind_docking_100.prm

>  <SCORE>
-13.3446

>  <SCORE.INTER>
-7.99792

>  <SCORE.INTER.CONST>
1

>  <SCORE.INTER.POLAR>
0

>  <SCORE.INTER.ROT>
8

>  <SCORE.INTER.SOLV>
28.6701

>  <SCORE.INTER.VDW>
-23.822

>  <SCORE.INTER.norm>
-0.249935

>  <SCORE.INTRA>
-5.34664

>  <SCORE.INTRA.DIHEDRAL>
-5.84669

>  <SCORE.INTRA.DIHEDRAL.0>
10.9594

>  <SCORE.INTRA.POLAR>
0

>  <SCORE.INTRA.POLAR.0>
0

>  <SCORE.INTRA.REPUL>
0

>  <SCORE.INTRA.REPUL.0>
0

>  <SCORE.INTRA.SOLV>
-4.66922

>  <SCORE.INTRA.SOLV.lig_0>
-124.914

>  <SCORE.INTRA.VDW>
-0.0886881

>  <SCORE.INTRA.VDW.0>
-4.69801

>  <SCORE.INTRA.norm>
-0.167083

>  <SCORE.RESTR>
0

>  <SCORE.RESTR.CAVITY>
0

>  <SCORE.RESTR.norm>
0

>  <SCORE.SYSTEM>
0

>  <SCORE.SYSTEM.CONST>
0

>  <SCORE.SYSTEM.DIHEDRAL>
0

>  <SCORE.SYSTEM.SOLV>
0

>  <SCORE.SYSTEM.norm>
0

>  <SCORE.heavy>
32

>  <SCORE.norm>
-0.417018

>  <RMSD>
54.207

$$$$
ligand
 OpenBabel11021811513D
libRbt.so/2013.1/901 2013/11/27
 32 34  0  0  0  0  0  0  0  0999 V2000
   34.2659  -24.8427   32.0847 P   0  0  1  0  0  0  0  0  0  0  0  0
   35.3017  -24.0635   29.5252 P   0  0  2  0  0  0  0  0  0  0  0  0
   33.7667  -23.1100   27.2122 P   0  0  1  0  0  0  0  0  0  0  0  0
   34.7348  -27.2760   32.8914 C   0  0  0  0  0  0  0  0  0  0  0  0
   34.5098  -26.4438   31.7892 O   0  0  0  0  0  0  0  0  0  0  0  0
   34.8170  -28.5975   32.4667 C   0  0  1  0  0  0  0  0  0  0  0  0
   35.9931  -28.7646   31.5239 O   0  0  0  0  0  0  0  0  0  0  0  0
   35.0942  -29.5858   33.6908 C   0  0  1  0  0  0  0  0  0  0  0  0
   33.9069  -30.5039   33.8745 O   0  0  0  0  0  0  0  0  0  0  0  0
   36.0508  -30.2873   33.3529 C   0  0  1  0  0  0  0  0  0  0  0  0
   35.5501  -31.5726   32.8096 O   0  0  0  0  0  0  0  0  0  0  0  0
   36.8589  -29.4430   32.1663 C   0  0  2  0  0  0  0  0  0  0  0  0
   38.6979  -27.1907   36.4008 N   0  0  0  0  0  0  0  0  0  0  0  0
   33.0004  -24.6572   32.8849 O   0  5  0  0  0  0  0  0  0  0  0  0
   35.4443  -25.4332   28.9107 O   0  5  0  0  0  0  0  0  0  0  0  0
   33.7520  -21.8440   26.3879 O   0  0  0  0  0  0  0  0  0  0  0  0
   37.6595  -28.0048   36.2925 C   0  0  0  0  0  0  0  0  0  0  0  0
   36.8984  -28.3482   37.4768 N   0  0  0  0  0  0  0  0  0  0  0  0
   35.4628  -24.2990   32.8318 O   0  0  0  0  0  0  0  0  0  0  0  0
   36.5893  -23.6792   30.2057 O   0  0  0  0  0  0  0  0  0  0  0  0
   34.0744  -24.2851   26.3100 O   0  5  0  0  0  0  0  0  0  0  0  0
   37.2910  -28.5177   35.1364 N   0  0  0  0  0  0  0  0  0  0  0  0
   34.1031  -24.0649   30.6469 O   0  0  0  0  0  0  0  0  0  0  0  0
   34.9495  -22.9612   28.3561 O   0  0  0  0  0  0  0  0  0  0  0  0
   32.4138  -23.2886   27.8657 O   0  0  0  0  0  0  0  0  0  0  0  0
   37.9668  -28.2256   34.0186 C   0  0  0  0  0  0  0  0  0  0  0  0
   39.0534  -27.3788   34.1035 C   0  0  0  0  0  0  0  0  0  0  0  0
   39.4296  -26.8430   35.3503 C   0  0  0  0  0  0  0  0  0  0  0  0
   40.5319  -25.9782   35.4684 O   0  0  0  0  0  0  0  0  0  0  0  0
   39.5582  -27.2417   32.8655 N   0  0  0  0  0  0  0  0  0  0  0  0
   38.8162  -27.9711   32.0505 C   0  0  0  0  0  0  0  0  0  0  0  0
   37.8522  -28.5684   32.7258 N   0  0  0  0  0  0  0  0  0  0  0  0
  1  5  1  6  0  0  0
  1 14  1  0  0  0  0
  1 19  2  0  0  0  0
  1 23  1  0  0  0  0
  2 15  1  6  0  0  0
  2 20  2  0  0  0  0
  2 23  1  0  0  0  0
  2 24  1  0  0  0  0
  3 16  1  6  0  0  0
  3 21  1  0  0  0  0
  3 24  1  0  0  0  0
  3 25  2  0  0  0  0
  4  5  1  0  0  0  0
  6  4  1  1  0  0  0
  6  7  1  0  0  0  0
  6  8  1  0  0  0  0
  7 12  1  0  0  0  0
  8  9  1  6  0  0  0
  8 10  1  0  0  0  0
 10 11  1  6  0  0  0
 10 12  1  0  0  0  0
 12 32  1  1  0  0  0
 13 17  2  0  0  0  0
 13 28  1  0  0  0  0
 17 18  1  0  0  0  0
 17 22  1  0  0  0  0
 22 26  2  0  0  0  0
 26 27  1  0  0  0  0
 26 32  1  0  0  0  0
 27 28  2  0  0  0  0
 27 30  1  0  0  0  0
 28 29  1  0  0  0  0
 30 31  2  0  0  0  0
 31 32  1  0  0  0  0
M  CHG  3  14  -1  15  -1  21  -1
M  END
>  <CHROM.1>
-64.00205605,70.58015673,177.39566035,62.21137812,175.48195214,105.75439191
-60.47717140,49.57890915,35.80973831,-26.29912089,31.79415288,-2.07949381
0.66670130,2.56896715

>  <Name>
ligand

>  <RI>
0

>  <Rbt.Current_Directory>
/home/itssahil/PROJECTS/Mol_Feturizer/New_Systems/rnas/4Y1I

>  <Rbt.Executable>
rbdock ($Id: //depot/dev/client3/rdock/2013.1/src/exe/rbdock.cxx#4 $)

>  <Rbt.Library>
libRbt.so (2013.1, Build901 2013/11/27)

>  <Rbt.Parameter_File>
/export/apps/rDock/src/rDock_2013.1_src/data/scripts/dock_solv.prm

>  <Rbt.Receptor>
prm/blind_docking_100.prm

>  <SCORE>
-11.7611

>  <SCORE.INTER>
-5.7272

>  <SCORE.INTER.CONST>
1

>  <SCORE.INTER.POLAR>
0

>  <SCORE.INTER.ROT>
8

>  <SCORE.INTER.SOLV>
22.6528

>  <SCORE.INTER.VDW>
-20.3024

>  <SCORE.INTER.norm>
-0.178975

>  <SCORE.INTRA>
-6.03389

>  <SCORE.INTRA.DIHEDRAL>
-9.20293

>  <SCORE.INTRA.DIHEDRAL.0>
10.9594

>  <SCORE.INTRA.POLAR>
0

>  <SCORE.INTRA.POLAR.0>
0

>  <SCORE.INTRA.REPUL>
0

>  <SCORE.INTRA.REPUL.0>
0

>  <SCORE.INTRA.SOLV>
-3.30504

>  <SCORE.INTRA.SOLV.lig_0>
-124.914

>  <SCORE.INTRA.VDW>
0.220087

>  <SCORE.INTRA.VDW.0>
-4.69801

>  <SCORE.INTRA.norm>
-0.188559

>  <SCORE.RESTR>
0

>  <SCORE.RESTR.CAVITY>
0

>  <SCORE.RESTR.norm>
0

>  <SCORE.SYSTEM>
0

>  <SCORE.SYSTEM.CONST>
0

>  <SCORE.SYSTEM.DIHEDRAL>
0

>  <SCORE.SYSTEM.SOLV>
0

>  <SCORE.SYSTEM.norm>
0

>  <SCORE.heavy>
32

>  <SCORE.norm>
-0.367534

>  <RMSD>
54.223

$$$$
ligand
 OpenBabel11021811513D
libRbt.so/2013.1/901 2013/11/27
 32 34  0  0  0  0  0  0  0  0999 V2000
   39.2169  -24.8308   30.6365 P   0  0  1  0  0  0  0  0  0  0  0  0
   39.4101  -25.2034   27.7984 P   0  0  2  0  0  0  0  0  0  0  0  0
   36.7746  -24.8969   26.5432 P   0  0  1  0  0  0  0  0  0  0  0  0
   37.8963  -27.0367   31.0623 C   0  0  0  0  0  0  0  0  0  0  0  0
   37.8090  -25.6559   30.8535 O   0  0  0  0  0  0  0  0  0  0  0  0
   36.6175  -27.5780   31.1314 C   0  0  1  0  0  0  0  0  0  0  0  0
   36.7021  -29.0769   31.3462 O   0  0  0  0  0  0  0  0  0  0  0  0
   35.8087  -27.0022   32.3830 C   0  0  1  0  0  0  0  0  0  0  0  0
   34.6290  -26.1946   31.8909 O   0  0  0  0  0  0  0  0  0  0  0  0
   35.3579  -27.9837   32.9786 C   0  0  1  0  0  0  0  0  0  0  0  0
   33.9569  -28.2161   32.5530 O   0  0  0  0  0  0  0  0  0  0  0  0
   36.3089  -29.2789   32.5408 C   0  0  2  0  0  0  0  0  0  0  0  0
   39.2904  -27.0689   36.0921 N   0  0  0  0  0  0  0  0  0  0  0  0
   38.9224  -23.3710   30.3953 O   0  5  0  0  0  0  0  0  0  0  0  0
   39.8571  -26.3207   26.8895 O   0  5  0  0  0  0  0  0  0  0  0  0
   37.3642  -23.7846   25.7081 O   0  0  0  0  0  0  0  0  0  0  0  0
   38.2441  -26.5529   35.4663 C   0  0  0  0  0  0  0  0  0  0  0  0
   37.8298  -25.1983   35.7713 N   0  0  0  0  0  0  0  0  0  0  0  0
   40.0805  -25.0127   31.8643 O   0  0  0  0  0  0  0  0  0  0  0  0
   39.9479  -23.8922   27.2880 O   0  0  0  0  0  0  0  0  0  0  0  0
   36.7034  -26.1579   25.7098 O   0  5  0  0  0  0  0  0  0  0  0  0
   37.5608  -27.2335   34.5687 N   0  0  0  0  0  0  0  0  0  0  0  0
   39.9829  -25.4422   29.3181 O   0  0  0  0  0  0  0  0  0  0  0  0
   37.7668  -25.1424   27.8411 O   0  0  0  0  0  0  0  0  0  0  0  0
   35.3909  -24.4898   27.0005 O   0  0  0  0  0  0  0  0  0  0  0  0
   37.9106  -28.4875   34.2578 C   0  0  0  0  0  0  0  0  0  0  0  0
   38.9982  -29.0493   34.8954 C   0  0  0  0  0  0  0  0  0  0  0  0
   39.7132  -28.3032   35.8521 C   0  0  0  0  0  0  0  0  0  0  0  0
   40.8248  -28.8486   36.5184 O   0  0  0  0  0  0  0  0  0  0  0  0
   39.1467  -30.2974   34.4197 N   0  0  0  0  0  0  0  0  0  0  0  0
   38.1934  -30.4987   33.5267 C   0  0  0  0  0  0  0  0  0  0  0  0
   37.4413  -29.4199   33.4138 N   0  0  0  0  0  0  0  0  0  0  0  0
  1  5  1  1  0  0  0
  1 14  1  0  0  0  0
  1 19  2  0  0  0  0
  1 23  1  0  0  0  0
  2 15  1  6  0  0  0
  2 20  2  0  0  0  0
  2 23  1  0  0  0  0
  2 24  1  0  0  0  0
  3 16  1  6  0  0  0
  3 21  1  0  0  0  0
  3 24  1  0  0  0  0
  3 25  2  0  0  0  0
  4  5  1  0  0  0  0
  6  4  1  1  0  0  0
  6  7  1  0  0  0  0
  6  8  1  0  0  0  0
  7 12  1  0  0  0  0
  8  9  1  6  0  0  0
  8 10  1  0  0  0  0
 10 11  1  6  0  0  0
 10 12  1  0  0  0  0
 12 32  1  1  0  0  0
 13 17  2  0  0  0  0
 13 28  1  0  0  0  0
 17 18  1  0  0  0  0
 17 22  1  0  0  0  0
 22 26  2  0  0  0  0
 26 27  1  0  0  0  0
 26 32  1  0  0  0  0
 27 28  2  0  0  0  0
 27 30  1  0  0  0  0
 28 29  1  0  0  0  0
 30 31  2  0  0  0  0
 31 32  1  0  0  0  0
M  CHG  3  14  -1  15  -1  21  -1
M  END
>  <CHROM.1>
178.68124638,-153.71684485,-43.66785768,179.52725618,-175.87050260,102.93664670
70.37017274,-59.79000824,37.92311515,-26.52081889,31.02885210,-1.61040856
0.42705187,2.01595517

>  <Name>
ligand

>  <RI>
0

>  <Rbt.Current_Directory>
/home/itssahil/PROJECTS/Mol_Feturizer/New_Systems/rnas/4Y1I

>  <Rbt.Executable>
rbdock ($Id: //depot/dev/client3/rdock/2013.1/src/exe/rbdock.cxx#4 $)

>  <Rbt.Library>
libRbt.so (2013.1, Build901 2013/11/27)

>  <Rbt.Parameter_File>
/export/apps/rDock/src/rDock_2013.1_src/data/scripts/dock_solv.prm

>  <Rbt.Receptor>
prm/blind_docking_80.prm

>  <SCORE>
-12.9149

>  <SCORE.INTER>
-5.85884

>  <SCORE.INTER.CONST>
1

>  <SCORE.INTER.POLAR>
0

>  <SCORE.INTER.ROT>
8

>  <SCORE.INTER.SOLV>
23.4453

>  <SCORE.INTER.VDW>
-20.6543

>  <SCORE.INTER.norm>
-0.183089

>  <SCORE.INTRA>
-7.05602

>  <SCORE.INTRA.DIHEDRAL>
-8.08062

>  <SCORE.INTRA.DIHEDRAL.0>
10.9594

>  <SCORE.INTRA.POLAR>
0

>  <SCORE.INTRA.POLAR.0>
0

>  <SCORE.INTRA.REPUL>
0

>  <SCORE.INTRA.REPUL.0>
0

>  <SCORE.INTRA.SOLV>
-5.46042

>  <SCORE.INTRA.SOLV.lig_0>
-124.914

>  <SCORE.INTRA.VDW>
-0.285504

>  <SCORE.INTRA.VDW.0>
-4.69801

>  <SCORE.INTRA.norm>
-0.220501

>  <SCORE.RESTR>
0

>  <SCORE.RESTR.CAVITY>
0

>  <SCORE.RESTR.norm>
0

>  <SCORE.SYSTEM>
0

>  <SCORE.SYSTEM.CONST>
0

>  <SCORE.SYSTEM.DIHEDRAL>
0

>  <SCORE.SYSTEM.SOLV>
0

>  <SCORE.SYSTEM.norm>
0

>  <SCORE.heavy>
32

>  <SCORE.norm>
-0.403589

>  <RMSD>
54.307

$$$$
ligand
 OpenBabel11021811513D
libRbt.so/2013.1/901 2013/11/27
 32 34  0  0  0  0  0  0  0  0999 V2000
   34.5609  -24.6721   30.6550 P   0  0  1  0  0  0  0  0  0  0  0  0
   37.0306  -24.7140   29.1956 P   0  0  2  0  0  0  0  0  0  0  0  0
   36.6696  -22.0949   27.9208 P   0  0  1  0  0  0  0  0  0  0  0  0
   34.5954  -26.7670   32.2047 C   0  0  0  0  0  0  0  0  0  0  0  0
   34.3918  -26.2905   30.9049 O   0  0  0  0  0  0  0  0  0  0  0  0
   34.3846  -28.1411   32.2342 C   0  0  1  0  0  0  0  0  0  0  0  0
   35.5235  -28.8534   31.5302 O   0  0  0  0  0  0  0  0  0  0  0  0
   34.3806  -28.6971   33.7318 C   0  0  1  0  0  0  0  0  0  0  0  0
   33.0070  -29.2343   34.0649 O   0  0  0  0  0  0  0  0  0  0  0  0
   35.1603  -29.6527   33.7429 C   0  0  1  0  0  0  0  0  0  0  0  0
   34.3956  -30.9129   33.5845 O   0  0  0  0  0  0  0  0  0  0  0  0
   36.1847  -29.4407   32.4469 C   0  0  2  0  0  0  0  0  0  0  0  0
   39.9349  -28.6338   35.8630 N   0  0  0  0  0  0  0  0  0  0  0  0
   33.8791  -24.2793   29.3678 O   0  5  0  0  0  0  0  0  0  0  0  0
   36.8076  -26.1595   28.8279 O   0  5  0  0  0  0  0  0  0  0  0  0
   35.8421  -21.5563   29.0642 O   0  0  0  0  0  0  0  0  0  0  0  0
   38.9772  -29.5470   35.9002 C   0  0  0  0  0  0  0  0  0  0  0  0
   38.9173  -30.4698   37.0158 N   0  0  0  0  0  0  0  0  0  0  0  0
   33.9624  -23.9340   31.8311 O   0  0  0  0  0  0  0  0  0  0  0  0
   38.4897  -24.4887   29.4938 O   0  0  0  0  0  0  0  0  0  0  0  0
   38.1093  -21.6678   28.1067 O   0  5  0  0  0  0  0  0  0  0  0  0
   38.0694  -29.6470   34.9507 N   0  0  0  0  0  0  0  0  0  0  0  0
   36.1624  -24.3267   30.5339 O   0  0  0  0  0  0  0  0  0  0  0  0
   36.5695  -23.7437   27.9499 O   0  0  0  0  0  0  0  0  0  0  0  0
   36.1237  -21.5515   26.6184 O   0  0  0  0  0  0  0  0  0  0  0  0
   38.0890  -28.8140   33.9032 C   0  0  0  0  0  0  0  0  0  0  0  0
   39.0768  -27.8521   33.8401 C   0  0  0  0  0  0  0  0  0  0  0  0
   40.0373  -27.7644   34.8662 C   0  0  0  0  0  0  0  0  0  0  0  0
   41.0556  -26.7956   34.8293 O   0  0  0  0  0  0  0  0  0  0  0  0
   38.8866  -27.1493   32.7105 N   0  0  0  0  0  0  0  0  0  0  0  0
   37.8275  -27.6538   32.1018 C   0  0  0  0  0  0  0  0  0  0  0  0
   37.3325  -28.6546   32.8059 N   0  0  0  0  0  0  0  0  0  0  0  0
  1  5  1  1  0  0  0
  1 14  1  0  0  0  0
  1 19  2  0  0  0  0
  1 23  1  0  0  0  0
  2 15  1  6  0  0  0
  2 20  2  0  0  0  0
  2 23  1  0  0  0  0
  2 24  1  0  0  0  0
  3 16  1  1  0  0  0
  3 21  1  0  0  0  0
  3 24  1  0  0  0  0
  3 25  2  0  0  0  0
  4  5  1  0  0  0  0
  6  4  1  1  0  0  0
  6  7  1  0  0  0  0
  6  8  1  0  0  0  0
  7 12  1  0  0  0  0
  8  9  1  6  0  0  0
  8 10  1  0  0  0  0
 10 11  1  6  0  0  0
 10 12  1  0  0  0  0
 12 32  1  1  0  0  0
 13 17  2  0  0  0  0
 13 28  1  0  0  0  0
 17 18  1  0  0  0  0
 17 22  1  0  0  0  0
 22 26  2  0  0  0  0
 26 27  1  0  0  0  0
 26 32  1  0  0  0  0
 27 28  2  0  0  0  0
 27 30  1  0  0  0  0
 28 29  1  0  0  0  0
 30 31  2  0  0  0  0
 31 32  1  0  0  0  0
M  CHG  3  14  -1  15  -1  21  -1
M  END
>  <CHROM.1>
-161.28133196,-50.24232386,-59.59427000,71.87482987,178.75144494,165.22258709
74.07659297,-178.84460069,36.57523861,-26.28151892,31.56309296,1.71961461
-0.24181370,-0.73244567

>  <Name>
ligand

>  <RI>
0

>  <Rbt.Current_Directory>
/home/itssahil/PROJECTS/Mol_Feturizer/New_Systems/rnas/4Y1I

>  <Rbt.Executable>
rbdock ($Id: //depot/dev/client3/rdock/2013.1/src/exe/rbdock.cxx#4 $)

>  <Rbt.Library>
libRbt.so (2013.1, Build901 2013/11/27)

>  <Rbt.Parameter_File>
/export/apps/rDock/src/rDock_2013.1_src/data/scripts/dock_solv.prm

>  <Rbt.Receptor>
prm/blind_docking_80.prm

>  <SCORE>
-13.3143

>  <SCORE.INTER>
-6.59063

>  <SCORE.INTER.CONST>
1

>  <SCORE.INTER.POLAR>
0

>  <SCORE.INTER.ROT>
8

>  <SCORE.INTER.SOLV>
15.8796

>  <SCORE.INTER.VDW>
-18.6203

>  <SCORE.INTER.norm>
-0.205957

>  <SCORE.INTRA>
-6.72364

>  <SCORE.INTRA.DIHEDRAL>
-8.19155

>  <SCORE.INTRA.DIHEDRAL.0>
10.9594

>  <SCORE.INTRA.POLAR>
0

>  <SCORE.INTRA.POLAR.0>
0

>  <SCORE.INTRA.REPUL>
0.0132259

>  <SCORE.INTRA.REPUL.0>
0

>  <SCORE.INTRA.SOLV>
-3.86923

>  <SCORE.INTRA.SOLV.lig_0>
-124.914

>  <SCORE.INTRA.VDW>
-0.759378

>  <SCORE.INTRA.VDW.0>
-4.69801

>  <SCORE.INTRA.norm>
-0.210114

>  <SCORE.RESTR>
0

>  <SCORE.RESTR.CAVITY>
0

>  <SCORE.RESTR.norm>
0

>  <SCORE.SYSTEM>
0

>  <SCORE.SYSTEM.CONST>
0

>  <SCORE.SYSTEM.DIHEDRAL>
0

>  <SCORE.SYSTEM.SOLV>
0

>  <SCORE.SYSTEM.norm>
0

>  <SCORE.heavy>
32

>  <SCORE.norm>
-0.416071

>  <RMSD>
54.341

$$$$
ligand
 OpenBabel11021811513D
libRbt.so/2013.1/901 2013/11/27
 32 34  0  0  0  0  0  0  0  0999 V2000
   36.9998  -27.4896   31.9852 P   0  0  1  0  0  0  0  0  0  0  0  0
   38.7785  -27.2065   34.2184 P   0  0  2  0  0  0  0  0  0  0  0  0
   39.4214  -29.6324   35.7406 P   0  0  1  0  0  0  0  0  0  0  0  0
   35.1617  -27.1417   30.1709 C   0  0  0  0  0  0  0  0  0  0  0  0
   35.9379  -26.5358   31.1651 O   0  0  0  0  0  0  0  0  0  0  0  0
   34.3160  -26.1965   29.6011 C   0  0  1  0  0  0  0  0  0  0  0  0
   33.6027  -25.4186   30.6902 O   0  0  0  0  0  0  0  0  0  0  0  0
   35.1358  -25.1156   28.7575 C   0  0  1  0  0  0  0  0  0  0  0  0
   34.7642  -25.2312   27.2964 O   0  0  0  0  0  0  0  0  0  0  0  0
   34.7473  -24.0121   29.1481 C   0  0  1  0  0  0  0  0  0  0  0  0
   33.7012  -23.5052   28.2279 O   0  0  0  0  0  0  0  0  0  0  0  0
   34.1051  -24.2484   30.6665 C   0  0  2  0  0  0  0  0  0  0  0  0
   39.0158  -23.2048   31.7536 N   0  0  0  0  0  0  0  0  0  0  0  0
   36.3121  -28.7573   32.4282 O   0  5  0  0  0  0  0  0  0  0  0  0
   38.9691  -26.3204   35.4237 O   0  5  0  0  0  0  0  0  0  0  0  0
   40.8507  -29.5621   35.2564 O   0  0  0  0  0  0  0  0  0  0  0  0
   38.4255  -23.2192   30.5687 C   0  0  0  0  0  0  0  0  0  0  0  0
   39.2010  -22.9113   29.3840 N   0  0  0  0  0  0  0  0  0  0  0  0
   38.1729  -27.7978   31.0824 O   0  0  0  0  0  0  0  0  0  0  0  0
   40.0204  -27.1738   33.3667 O   0  0  0  0  0  0  0  0  0  0  0  0
   39.3391  -29.0386   37.1300 O   0  5  0  0  0  0  0  0  0  0  0  0
   37.1474  -23.5058   30.4278 N   0  0  0  0  0  0  0  0  0  0  0  0
   37.5160  -26.6739   33.3145 O   0  0  0  0  0  0  0  0  0  0  0  0
   38.4862  -28.7514   34.7021 O   0  0  0  0  0  0  0  0  0  0  0  0
   38.9778  -31.0789   35.7596 O   0  0  0  0  0  0  0  0  0  0  0  0
   36.3956  -23.7961   31.4965 C   0  0  0  0  0  0  0  0  0  0  0  0
   36.9865  -23.7887   32.7439 C   0  0  0  0  0  0  0  0  0  0  0  0
   38.3543  -23.4785   32.8705 C   0  0  0  0  0  0  0  0  0  0  0  0
   38.9838  -23.4624   34.1276 O   0  0  0  0  0  0  0  0  0  0  0  0
   36.0395  -24.1069   33.6428 N   0  0  0  0  0  0  0  0  0  0  0  0
   34.9126  -24.3031   32.9808 C   0  0  0  0  0  0  0  0  0  0  0  0
   35.1079  -24.1231   31.6878 N   0  0  0  0  0  0  0  0  0  0  0  0
  1  5  1  6  0  0  0
  1 14  1  0  0  0  0
  1 19  2  0  0  0  0
  1 23  1  0  0  0  0
  2 15  1  1  0  0  0
  2 20  2  0  0  0  0
  2 23  1  0  0  0  0
  2 24  1  0  0  0  0
  3 16  1  6  0  0  0
  3 21  1  0  0  0  0
  3 24  1  0  0  0  0
  3 25  2  0  0  0  0
  4  5  1  0  0  0  0
  6  4  1  1  0  0  0
  6  7  1  0  0  0  0
  6  8  1  0  0  0  0
  7 12  1  0  0  0  0
  8  9  1  6  0  0  0
  8 10  1  0  0  0  0
 10 11  1  6  0  0  0
 10 12  1  0  0  0  0
 12 32  1  1  0  0  0
 13 17  2  0  0  0  0
 13 28  1  0  0  0  0
 17 18  1  0  0  0  0
 17 22  1  0  0  0  0
 22 26  2  0  0  0  0
 26 27  1  0  0  0  0
 26 32  1  0  0  0  0
 27 28  2  0  0  0  0
 27 30  1  0  0  0  0
 28 29  1  0  0  0  0
 30 31  2  0  0  0  0
 31 32  1  0  0  0  0
M  CHG  3  14  -1  15  -1  21  -1
M  END
>  <CHROM.1>
-47.47164803,-176.05095955,-50.83855011,-48.67476331,179.19711594,122.08752522
-168.87098092,-53.00180399,37.23831162,-26.17940357,32.36349711,0.83824080
0.74836266,2.80194887

>  <Name>
ligand

>  <RI>
0

>  <Rbt.Current_Directory>
/home/itssahil/PROJECTS/Mol_Feturizer/New_Systems/rnas/4Y1I

>  <Rbt.Executable>
rbdock ($Id: //depot/dev/client3/rdock/2013.1/src/exe/rbdock.cxx#4 $)

>  <Rbt.Library>
libRbt.so (2013.1, Build901 2013/11/27)

>  <Rbt.Parameter_File>
/export/apps/rDock/src/rDock_2013.1_src/data/scripts/dock_solv.prm

>  <Rbt.Receptor>
prm/blind_docking_80.prm

>  <SCORE>
-11.1672

>  <SCORE.INTER>
-3.46229

>  <SCORE.INTER.CONST>
1

>  <SCORE.INTER.POLAR>
0

>  <SCORE.INTER.ROT>
8

>  <SCORE.INTER.SOLV>
12.6444

>  <SCORE.INTER.VDW>
-15.4563

>  <SCORE.INTER.norm>
-0.108197

>  <SCORE.INTRA>
-7.70492

>  <SCORE.INTRA.DIHEDRAL>
-8.56513

>  <SCORE.INTRA.DIHEDRAL.0>
10.9594

>  <SCORE.INTRA.POLAR>
0

>  <SCORE.INTRA.POLAR.0>
0

>  <SCORE.INTRA.REPUL>
0

>  <SCORE.INTRA.REPUL.0>
0

>  <SCORE.INTRA.SOLV>
-2.12172

>  <SCORE.INTRA.SOLV.lig_0>
-124.914

>  <SCORE.INTRA.VDW>
-2.36149

>  <SCORE.INTRA.VDW.0>
-4.69801

>  <SCORE.INTRA.norm>
-0.240779

>  <SCORE.RESTR>
0

>  <SCORE.RESTR.CAVITY>
0

>  <SCORE.RESTR.norm>
0

>  <SCORE.SYSTEM>
0

>  <SCORE.SYSTEM.CONST>
0

>  <SCORE.SYSTEM.DIHEDRAL>
0

>  <SCORE.SYSTEM.SOLV>
0

>  <SCORE.SYSTEM.norm>
0

>  <SCORE.heavy>
32

>  <SCORE.norm>
-0.348975

>  <RMSD>
54.346

$$$$
ligand
 OpenBabel11021811513D
libRbt.so/2013.1/901 2013/11/27
 32 34  0  0  0  0  0  0  0  0999 V2000
   34.9327  -27.8074   32.4648 P   0  0  1  0  0  0  0  0  0  0  0  0
   34.5589  -25.0204   31.8955 P   0  0  2  0  0  0  0  0  0  0  0  0
   34.1617  -24.5799   29.0209 P   0  0  1  0  0  0  0  0  0  0  0  0
   36.4733  -29.1363   34.0933 C   0  0  0  0  0  0  0  0  0  0  0  0
   36.3688  -28.0346   33.2369 O   0  0  0  0  0  0  0  0  0  0  0  0
   37.7786  -29.2389   34.5612 C   0  0  1  0  0  0  0  0  0  0  0  0
   38.7329  -29.4126   33.3954 O   0  0  0  0  0  0  0  0  0  0  0  0
   38.2367  -27.9016   35.3056 C   0  0  1  0  0  0  0  0  0  0  0  0
   38.4842  -28.1993   36.7671 O   0  0  0  0  0  0  0  0  0  0  0  0
   39.3203  -27.5879   34.8070 C   0  0  1  0  0  0  0  0  0  0  0  0
   40.4200  -28.0926   35.6637 O   0  0  0  0  0  0  0  0  0  0  0  0
   39.3810  -28.3192   33.3119 C   0  0  2  0  0  0  0  0  0  0  0  0
   38.1341  -23.5483   31.8735 N   0  0  0  0  0  0  0  0  0  0  0  0
   34.5948  -29.0272   31.6438 O   0  5  0  0  0  0  0  0  0  0  0  0
   35.5031  -24.4112   32.9013 O   0  5  0  0  0  0  0  0  0  0  0  0
   35.2566  -25.5396   28.6177 O   0  0  0  0  0  0  0  0  0  0  0  0
   38.7011  -23.9400   33.0039 C   0  0  0  0  0  0  0  0  0  0  0  0
   39.0409  -22.9526   34.0085 N   0  0  0  0  0  0  0  0  0  0  0  0
   33.8628  -27.5379   33.4987 O   0  0  0  0  0  0  0  0  0  0  0  0
   33.1881  -25.1520   32.5057 O   0  0  0  0  0  0  0  0  0  0  0  0
   32.8322  -25.3015   28.9849 O   0  5  0  0  0  0  0  0  0  0  0  0
   38.9694  -25.2063   33.2492 N   0  0  0  0  0  0  0  0  0  0  0  0
   35.0782  -26.5156   31.4603 O   0  0  0  0  0  0  0  0  0  0  0  0
   34.4746  -24.0649   30.5591 O   0  0  0  0  0  0  0  0  0  0  0  0
   34.1521  -23.4112   28.0599 O   0  0  0  0  0  0  0  0  0  0  0  0
   38.6713  -26.1497   32.3478 C   0  0  0  0  0  0  0  0  0  0  0  0
   38.0790  -25.7683   31.1608 C   0  0  0  0  0  0  0  0  0  0  0  0
   37.8022  -24.4088   30.9199 C   0  0  0  0  0  0  0  0  0  0  0  0
   37.2002  -23.9898   29.7203 O   0  0  0  0  0  0  0  0  0  0  0  0
   37.8808  -26.8796   30.4314 N   0  0  0  0  0  0  0  0  0  0  0  0
   38.3300  -27.9034   31.1362 C   0  0  0  0  0  0  0  0  0  0  0  0
   38.8070  -27.4840   32.2933 N   0  0  0  0  0  0  0  0  0  0  0  0
  1  5  1  1  0  0  0
  1 14  1  0  0  0  0
  1 19  2  0  0  0  0
  1 23  1  0  0  0  0
  2 15  1  1  0  0  0
  2 20  2  0  0  0  0
  2 23  1  0  0  0  0
  2 24  1  0  0  0  0
  3 16  1  6  0  0  0
  3 21  1  0  0  0  0
  3 24  1  0  0  0  0
  3 25  2  0  0  0  0
  4  5  1  0  0  0  0
  6  4  1  6  0  0  0
  6  7  1  0  0  0  0
  6  8  1  0  0  0  0
  7 12  1  0  0  0  0
  8  9  1  1  0  0  0
  8 10  1  0  0  0  0
 10 11  1  1  0  0  0
 10 12  1  0  0  0  0
 12 32  1  6  0  0  0
 13 17  2  0  0  0  0
 13 28  1  0  0  0  0
 17 18  1  0  0  0  0
 17 22  1  0  0  0  0
 22 26  2  0  0  0  0
 26 27  1  0  0  0  0
 26 32  1  0  0  0  0
 27 28  2  0  0  0  0
 27 30  1  0  0  0  0
 28 29  1  0  0  0  0
 30 31  2  0  0  0  0
 31 32  1  0  0  0  0
M  CHG  3  14  -1  15  -1  21  -1
M  END
>  <CHROM.1>
-57.94964185,74.20518333,-61.30426484,-59.70519304,174.75170271,141.91732679
-97.83947006,150.96269458,36.52380602,-26.27569322,32.13893375,2.28732241
-0.42631345,-0.61809883

>  <Name>
ligand

>  <RI>
0

>  <Rbt.Current_Directory>
/home/itssahil/PROJECTS/Mol_Feturizer/New_Systems/rnas/4Y1I

>  <Rbt.Executable>
rbdock ($Id: //depot/dev/client3/rdock/2013.1/src/exe/rbdock.cxx#4 $)

>  <Rbt.Library>
libRbt.so (2013.1, Build901 2013/11/27)

>  <Rbt.Parameter_File>
/export/apps/rDock/src/rDock_2013.1_src/data/scripts/dock_solv.prm

>  <Rbt.Receptor>
prm/blind_docking_100.prm

>  <SCORE>
-9.66672

>  <SCORE.INTER>
-3.03678

>  <SCORE.INTER.CONST>
1

>  <SCORE.INTER.POLAR>
0

>  <SCORE.INTER.ROT>
8

>  <SCORE.INTER.SOLV>
23.3047

>  <SCORE.INTER.VDW>
-18.7261

>  <SCORE.INTER.norm>
-0.0948994

>  <SCORE.INTRA>
-6.62994

>  <SCORE.INTRA.DIHEDRAL>
-6.41919

>  <SCORE.INTRA.DIHEDRAL.0>
10.9594

>  <SCORE.INTRA.POLAR>
0

>  <SCORE.INTRA.POLAR.0>
0

>  <SCORE.INTRA.REPUL>
0

>  <SCORE.INTRA.REPUL.0>
0

>  <SCORE.INTRA.SOLV>
1.10666

>  <SCORE.INTRA.SOLV.lig_0>
-124.914

>  <SCORE.INTRA.VDW>
-3.97368

>  <SCORE.INTRA.VDW.0>
-4.69801

>  <SCORE.INTRA.norm>
-0.207186

>  <SCORE.RESTR>
0

>  <SCORE.RESTR.CAVITY>
0

>  <SCORE.RESTR.norm>
0

>  <SCORE.SYSTEM>
0

>  <SCORE.SYSTEM.CONST>
0

>  <SCORE.SYSTEM.DIHEDRAL>
0

>  <SCORE.SYSTEM.SOLV>
0

>  <SCORE.SYSTEM.norm>
0

>  <SCORE.heavy>
32

>  <SCORE.norm>
-0.302085

>  <RMSD>
54.354

$$$$
ligand
 OpenBabel11021811513D
libRbt.so/2013.1/901 2013/11/27
 32 34  0  0  0  0  0  0  0  0999 V2000
   34.7854  -25.4919   29.4488 P   0  0  1  0  0  0  0  0  0  0  0  0
   36.4517  -24.6326   27.2771 P   0  0  2  0  0  0  0  0  0  0  0  0
   38.9654  -25.6590   28.3920 P   0  0  1  0  0  0  0  0  0  0  0  0
   34.4100  -26.7720   31.6875 C   0  0  0  0  0  0  0  0  0  0  0  0
   35.0000  -26.8043   30.4191 O   0  0  0  0  0  0  0  0  0  0  0  0
   34.7010  -27.9505   32.3655 C   0  0  1  0  0  0  0  0  0  0  0  0
   36.1950  -28.0533   32.6046 O   0  0  0  0  0  0  0  0  0  0  0  0
   34.0243  -27.9715   33.8125 C   0  0  1  0  0  0  0  0  0  0  0  0
   32.9917  -29.0745   33.8687 O   0  0  0  0  0  0  0  0  0  0  0  0
   34.9219  -28.2693   34.6044 C   0  0  1  0  0  0  0  0  0  0  0  0
   34.8700  -29.7248   34.8814 O   0  0  0  0  0  0  0  0  0  0  0  0
   36.3586  -27.8823   33.8562 C   0  0  2  0  0  0  0  0  0  0  0  0
   37.5165  -24.3661   37.4172 N   0  0  0  0  0  0  0  0  0  0  0  0
   33.3134  -25.2763   29.1981 O   0  5  0  0  0  0  0  0  0  0  0  0
   35.7183  -23.3153   27.2403 O   0  5  0  0  0  0  0  0  0  0  0  0
   39.6482  -25.9949   27.0868 O   0  0  0  0  0  0  0  0  0  0  0  0
   37.1806  -25.6338   37.5983 C   0  0  0  0  0  0  0  0  0  0  0  0
   37.1105  -26.1657   38.9443 N   0  0  0  0  0  0  0  0  0  0  0  0
   35.4021  -24.2856   30.1202 O   0  0  0  0  0  0  0  0  0  0  0  0
   36.7413  -25.0882   25.8709 O   0  0  0  0  0  0  0  0  0  0  0  0
   40.0008  -25.1709   29.3816 O   0  5  0  0  0  0  0  0  0  0  0  0
   36.9057  -26.4351   36.5893 N   0  0  0  0  0  0  0  0  0  0  0  0
   35.5319  -25.7757   28.0132 O   0  0  0  0  0  0  0  0  0  0  0  0
   37.8658  -24.4612   28.0999 O   0  0  0  0  0  0  0  0  0  0  0  0
   38.2755  -26.8976   28.9205 O   0  0  0  0  0  0  0  0  0  0  0  0
   36.9586  -25.9832   35.3305 C   0  0  0  0  0  0  0  0  0  0  0  0
   37.3058  -24.6651   35.1138 C   0  0  0  0  0  0  0  0  0  0  0  0
   37.5963  -23.8271   36.2076 C   0  0  0  0  0  0  0  0  0  0  0  0
   37.9534  -22.4804   36.0184 O   0  0  0  0  0  0  0  0  0  0  0  0
   37.2893  -24.4545   33.7866 N   0  0  0  0  0  0  0  0  0  0  0  0
   36.9464  -25.5921   33.2076 C   0  0  0  0  0  0  0  0  0  0  0  0
   36.7408  -26.5228   34.1208 N   0  0  0  0  0  0  0  0  0  0  0  0
  1  5  1  1  0  0  0
  1 14  1  0  0  0  0
  1 19  2  0  0  0  0
  1 23  1  0  0  0  0
  2 15  1  6  0  0  0
  2 20  2  0  0  0  0
  2 23  1  0  0  0  0
  2 24  1  0  0  0  0
  3 16  1  6  0  0  0
  3 21  1  0  0  0  0
  3 24  1  0  0  0  0
  3 25  2  0  0  0  0
  4  5  1  0  0  0  0
  6  4  1  1  0  0  0
  6  7  1  0  0  0  0
  6  8  1  0  0  0  0
  7 12  1  0  0  0  0
  8  9  1  6  0  0  0
  8 10  1  0  0  0  0
 10 11  1  6  0  0  0
 10 12  1  0  0  0  0
 12 32  1  6  0  0  0
 13 17  2  0  0  0  0
 13 28  1  0  0  0  0
 17 18  1  0  0  0  0
 17 22  1  0  0  0  0
 22 26  2  0  0  0  0
 26 27  1  0  0  0  0
 26 32  1  0  0  0  0
 27 28  2  0  0  0  0
 27 30  1  0  0  0  0
 28 29  1  0  0  0  0
 30 31  2  0  0  0  0
 31 32  1  0  0  0  0
M  CHG  3  14  -1  15  -1  21  -1
M  END
>  <CHROM.1>
-59.77173220,-48.07049224,71.26308866,64.04534516,-179.60760983,178.03249745
-135.91310799,179.22276572,36.45190265,-25.88560782,31.66168699,1.48788809
-0.68209715,-1.49309441

>  <Name>
ligand

>  <RI>
0

>  <Rbt.Current_Directory>
/home/itssahil/PROJECTS/Mol_Feturizer/New_Systems/rnas/4Y1I

>  <Rbt.Executable>
rbdock ($Id: //depot/dev/client3/rdock/2013.1/src/exe/rbdock.cxx#4 $)

>  <Rbt.Library>
libRbt.so (2013.1, Build901 2013/11/27)

>  <Rbt.Parameter_File>
/export/apps/rDock/src/rDock_2013.1_src/data/scripts/dock_solv.prm

>  <Rbt.Receptor>
prm/blind_docking_100.prm

>  <SCORE>
-13.1953

>  <SCORE.INTER>
-8.12383

>  <SCORE.INTER.CONST>
1

>  <SCORE.INTER.POLAR>
0

>  <SCORE.INTER.ROT>
8

>  <SCORE.INTER.SOLV>
18.9881

>  <SCORE.INTER.VDW>
-20.6786

>  <SCORE.INTER.norm>
-0.25387

>  <SCORE.INTRA>
-5.07144

>  <SCORE.INTRA.DIHEDRAL>
-7.2384

>  <SCORE.INTRA.DIHEDRAL.0>
10.9594

>  <SCORE.INTRA.POLAR>
0

>  <SCORE.INTRA.POLAR.0>
0

>  <SCORE.INTRA.REPUL>
0.0231961

>  <SCORE.INTRA.REPUL.0>
0

>  <SCORE.INTRA.SOLV>
-2.72707

>  <SCORE.INTRA.SOLV.lig_0>
-124.914

>  <SCORE.INTRA.VDW>
-0.204685

>  <SCORE.INTRA.VDW.0>
-4.69801

>  <SCORE.INTRA.norm>
-0.158482

>  <SCORE.RESTR>
0

>  <SCORE.RESTR.CAVITY>
0

>  <SCORE.RESTR.norm>
0

>  <SCORE.SYSTEM>
0

>  <SCORE.SYSTEM.CONST>
0

>  <SCORE.SYSTEM.DIHEDRAL>
0

>  <SCORE.SYSTEM.SOLV>
0

>  <SCORE.SYSTEM.norm>
0

>  <SCORE.heavy>
32

>  <SCORE.norm>
-0.412352

>  <RMSD>
54.389

$$$$
ligand
 OpenBabel11021811513D
libRbt.so/2013.1/901 2013/11/27
 32 34  0  0  0  0  0  0  0  0999 V2000
   37.8019  -26.5342   35.4117 P   0  0  1  0  0  0  0  0  0  0  0  0
   35.4965  -28.1317   34.8082 P   0  0  2  0  0  0  0  0  0  0  0  0
   37.3223  -30.4294   34.7626 P   0  0  1  0  0  0  0  0  0  0  0  0
   38.7793  -26.8396   33.0153 C   0  0  0  0  0  0  0  0  0  0  0  0
   38.7650  -27.3174   34.3304 O   0  0  0  0  0  0  0  0  0  0  0  0
   39.8020  -25.9089   32.8701 C   0  0  1  0  0  0  0  0  0  0  0  0
   40.5849  -26.1954   31.6033 O   0  0  0  0  0  0  0  0  0  0  0  0
   39.2228  -24.4297   32.7008 C   0  0  1  0  0  0  0  0  0  0  0  0
   39.6395  -23.5879   33.8857 O   0  0  0  0  0  0  0  0  0  0  0  0
   39.7762  -23.9587   31.7042 C   0  0  1  0  0  0  0  0  0  0  0  0
   40.9375  -23.1402   32.1276 O   0  0  0  0  0  0  0  0  0  0  0  0
   40.2935  -25.2549   30.7952 C   0  0  2  0  0  0  0  0  0  0  0  0
   37.9019  -24.4202   26.3265 N   0  0  0  0  0  0  0  0  0  0  0  0
   37.9400  -27.1692   36.7733 O   0  5  0  0  0  0  0  0  0  0  0  0
   34.2034  -28.0024   34.0430 O   0  5  0  0  0  0  0  0  0  0  0  0
   38.0645  -29.8650   35.9512 O   0  0  0  0  0  0  0  0  0  0  0  0
   38.8803  -23.7166   26.8745 C   0  0  0  0  0  0  0  0  0  0  0  0
   39.3917  -22.5507   26.1827 N   0  0  0  0  0  0  0  0  0  0  0  0
   38.2018  -25.0766   35.4515 O   0  0  0  0  0  0  0  0  0  0  0  0
   35.2105  -28.6253   36.2022 O   0  0  0  0  0  0  0  0  0  0  0  0
   36.3503  -31.4857   35.2412 O   0  5  0  0  0  0  0  0  0  0  0  0
   39.4097  -24.0422   28.0362 N   0  0  0  0  0  0  0  0  0  0  0  0
   36.2413  -26.6729   34.9176 O   0  0  0  0  0  0  0  0  0  0  0  0
   36.4932  -29.1941   34.0442 O   0  0  0  0  0  0  0  0  0  0  0  0
   38.3208  -31.0317   33.7984 O   0  0  0  0  0  0  0  0  0  0  0  0
   38.9660  -25.1116   28.7078 C   0  0  0  0  0  0  0  0  0  0  0  0
   37.9461  -25.8624   28.1589 C   0  0  0  0  0  0  0  0  0  0  0  0
   37.3960  -25.4959   26.9155 C   0  0  0  0  0  0  0  0  0  0  0  0
   36.3568  -26.2412   26.3310 O   0  0  0  0  0  0  0  0  0  0  0  0
   37.6806  -26.8686   29.0093 N   0  0  0  0  0  0  0  0  0  0  0  0
   38.4997  -26.7455   30.0392 C   0  0  0  0  0  0  0  0  0  0  0  0
   39.2789  -25.6925   29.8768 N   0  0  0  0  0  0  0  0  0  0  0  0
  1  5  1  6  0  0  0
  1 14  1  0  0  0  0
  1 19  2  0  0  0  0
  1 23  1  0  0  0  0
  2 15  1  6  0  0  0
  2 20  2  0  0  0  0
  2 23  1  0  0  0  0
  2 24  1  0  0  0  0
  3 16  1  1  0  0  0
  3 21  1  0  0  0  0
  3 24  1  0  0  0  0
  3 25  2  0  0  0  0
  4  5  1  0  0  0  0
  6  4  1  6  0  0  0
  6  7  1  0  0  0  0
  6  8  1  0  0  0  0
  7 12  1  0  0  0  0
  8  9  1  1  0  0  0
  8 10  1  0  0  0  0
 10 11  1  1  0  0  0
 10 12  1  0  0  0  0
 12 32  1  6  0  0  0
 13 17  2  0  0  0  0
 13 28  1  0  0  0  0
 17 18  1  0  0  0  0
 17 22  1  0  0  0  0
 22 26  2  0  0  0  0
 26 27  1  0  0  0  0
 26 32  1  0  0  0  0
 27 28  2  0  0  0  0
 27 30  1  0  0  0  0
 28 29  1  0  0  0  0
 30 31  2  0  0  0  0
 31 32  1  0  0  0  0
M  CHG  3  14  -1  15  -1  21  -1
M  END
>  <CHROM.1>
-178.79876577,-167.08543185,-50.55405174,133.68141163,91.81277390,-162.42921529
62.81345890,-132.61408104,37.99054838,-26.70250237,32.39099317,-1.97084249
-0.94494895,-1.36130882

>  <Name>
ligand

>  <RI>
0

>  <Rbt.Current_Directory>
/home/itssahil/PROJECTS/Mol_Feturizer/New_Systems/rnas/4Y1I

>  <Rbt.Executable>
rbdock ($Id: //depot/dev/client3/rdock/2013.1/src/exe/rbdock.cxx#4 $)

>  <Rbt.Library>
libRbt.so (2013.1, Build901 2013/11/27)

>  <Rbt.Parameter_File>
/export/apps/rDock/src/rDock_2013.1_src/data/scripts/dock_solv.prm

>  <Rbt.Receptor>
prm/blind_docking_80.prm

>  <SCORE>
-6.66187

>  <SCORE.INTER>
-6.36685

>  <SCORE.INTER.CONST>
1

>  <SCORE.INTER.POLAR>
0

>  <SCORE.INTER.ROT>
8

>  <SCORE.INTER.SOLV>
15.2102

>  <SCORE.INTER.VDW>
-18.248

>  <SCORE.INTER.norm>
-0.198964

>  <SCORE.INTRA>
-0.295019

>  <SCORE.INTRA.DIHEDRAL>
1.36954

>  <SCORE.INTRA.DIHEDRAL.0>
10.9594

>  <SCORE.INTRA.POLAR>
0

>  <SCORE.INTRA.POLAR.0>
0

>  <SCORE.INTRA.REPUL>
0

>  <SCORE.INTRA.REPUL.0>
0

>  <SCORE.INTRA.SOLV>
-0.0565267

>  <SCORE.INTRA.SOLV.lig_0>
-124.914

>  <SCORE.INTRA.VDW>
-0.951525

>  <SCORE.INTRA.VDW.0>
-4.69801

>  <SCORE.INTRA.norm>
-0.00921935

>  <SCORE.RESTR>
0

>  <SCORE.RESTR.CAVITY>
0

>  <SCORE.RESTR.norm>
0

>  <SCORE.SYSTEM>
0

>  <SCORE.SYSTEM.CONST>
0

>  <SCORE.SYSTEM.DIHEDRAL>
0

>  <SCORE.SYSTEM.SOLV>
0

>  <SCORE.SYSTEM.norm>
0

>  <SCORE.heavy>
32

>  <SCORE.norm>
-0.208184

>  <RMSD>
54.481

$$$$
ligand
 OpenBabel11021811513D
libRbt.so/2013.1/901 2013/11/27
 32 34  0  0  0  0  0  0  0  0999 V2000
   37.4212  -24.2056   34.6397 P   0  0  1  0  0  0  0  0  0  0  0  0
   38.7128  -26.6189   35.4992 P   0  0  2  0  0  0  0  0  0  0  0  0
   37.6513  -27.5873   38.0587 P   0  0  1  0  0  0  0  0  0  0  0  0
   35.9406  -24.9937   32.6451 C   0  0  0  0  0  0  0  0  0  0  0  0
   36.1585  -25.0650   34.0255 O   0  0  0  0  0  0  0  0  0  0  0  0
   34.8902  -25.8352   32.2964 C   0  0  1  0  0  0  0  0  0  0  0  0
   34.6305  -25.7461   30.8049 O   0  0  0  0  0  0  0  0  0  0  0  0
   35.2488  -27.3646   32.5871 C   0  0  1  0  0  0  0  0  0  0  0  0
   34.3324  -27.8999   33.6641 O   0  0  0  0  0  0  0  0  0  0  0  0
   34.9914  -27.9785   31.5487 C   0  0  1  0  0  0  0  0  0  0  0  0
   33.6406  -28.5800   31.6552 O   0  0  0  0  0  0  0  0  0  0  0  0
   35.0204  -26.8567   30.3180 C   0  0  2  0  0  0  0  0  0  0  0  0
   37.8626  -25.2284   26.3612 N   0  0  0  0  0  0  0  0  0  0  0  0
   37.7271  -23.0330   33.7411 O   0  5  0  0  0  0  0  0  0  0  0  0
   40.1079  -27.1805   35.6111 O   0  5  0  0  0  0  0  0  0  0  0  0
   38.8512  -28.4818   38.2649 O   0  0  0  0  0  0  0  0  0  0  0  0
   36.5469  -25.1768   26.4993 C   0  0  0  0  0  0  0  0  0  0  0  0
   35.7427  -24.6015   25.4402 N   0  0  0  0  0  0  0  0  0  0  0  0
   37.0601  -23.7401   36.0322 O   0  0  0  0  0  0  0  0  0  0  0  0
   37.8438  -27.5768   34.7274 O   0  0  0  0  0  0  0  0  0  0  0  0
   37.2552  -26.9760   39.3849 O   0  5  0  0  0  0  0  0  0  0  0  0
   35.9385  -25.6340   27.5747 N   0  0  0  0  0  0  0  0  0  0  0  0
   38.7389  -25.1846   34.7011 O   0  0  0  0  0  0  0  0  0  0  0  0
   38.0802  -26.3930   37.0008 O   0  0  0  0  0  0  0  0  0  0  0  0
   36.5127  -28.4112   37.4982 O   0  0  0  0  0  0  0  0  0  0  0  0
   36.6445  -26.1733   28.5758 C   0  0  0  0  0  0  0  0  0  0  0  0
   38.0180  -26.2397   28.4571 C   0  0  0  0  0  0  0  0  0  0  0  0
   38.6470  -25.7440   27.2987 C   0  0  0  0  0  0  0  0  0  0  0  0
   40.0440  -25.7973   27.1494 O   0  0  0  0  0  0  0  0  0  0  0  0
   38.4942  -26.8139   29.5750 N   0  0  0  0  0  0  0  0  0  0  0  0
   37.4607  -27.0910   30.3509 C   0  0  0  0  0  0  0  0  0  0  0  0
   36.3391  -26.7152   29.7653 N   0  0  0  0  0  0  0  0  0  0  0  0
  1  5  1  6  0  0  0
  1 14  1  0  0  0  0
  1 19  2  0  0  0  0
  1 23  1  0  0  0  0
  2 15  1  1  0  0  0
  2 20  2  0  0  0  0
  2 23  1  0  0  0  0
  2 24  1  0  0  0  0
  3 16  1  1  0  0  0
  3 21  1  0  0  0  0
  3 24  1  0  0  0  0
  3 25  2  0  0  0  0
  4  5  1  0  0  0  0
  6  4  1  6  0  0  0
  6  7  1  0  0  0  0
  6  8  1  0  0  0  0
  7 12  1  0  0  0  0
  8  9  1  1  0  0  0
  8 10  1  0  0  0  0
 10 11  1  1  0  0  0
 10 12  1  0  0  0  0
 12 32  1  1  0  0  0
 13 17  2  0  0  0  0
 13 28  1  0  0  0  0
 17 18  1  0  0  0  0
 17 22  1  0  0  0  0
 22 26  2  0  0  0  0
 26 27  1  0  0  0  0
 26 32  1  0  0  0  0
 27 28  2  0  0  0  0
 27 30  1  0  0  0  0
 28 29  1  0  0  0  0
 30 31  2  0  0  0  0
 31 32  1  0  0  0  0
M  CHG  3  14  -1  15  -1  21  -1
M  END
>  <CHROM.1>
25.76350146,-169.52567599,54.93191721,179.00983147,176.60689511,-78.97087291
-55.70495269,-68.86558630,37.07027553,-26.27130130,32.83141884,-1.46549182
-0.45009665,-1.41095583

>  <Name>
ligand

>  <RI>
0

>  <Rbt.Current_Directory>
/home/itssahil/PROJECTS/Mol_Feturizer/New_Systems/rnas/4Y1I

>  <Rbt.Executable>
rbdock ($Id: //depot/dev/client3/rdock/2013.1/src/exe/rbdock.cxx#4 $)

>  <Rbt.Library>
libRbt.so (2013.1, Build901 2013/11/27)

>  <Rbt.Parameter_File>
/export/apps/rDock/src/rDock_2013.1_src/data/scripts/dock_solv.prm

>  <Rbt.Receptor>
prm/blind_docking_80.prm

>  <SCORE>
-15.2895

>  <SCORE.INTER>
-9.37589

>  <SCORE.INTER.CONST>
1

>  <SCORE.INTER.POLAR>
0

>  <SCORE.INTER.ROT>
8

>  <SCORE.INTER.SOLV>
15.8066

>  <SCORE.INTER.VDW>
-20.4528

>  <SCORE.INTER.norm>
-0.292997

>  <SCORE.INTRA>
-5.91365

>  <SCORE.INTRA.DIHEDRAL>
-7.88893

>  <SCORE.INTRA.DIHEDRAL.0>
10.9594

>  <SCORE.INTRA.POLAR>
0

>  <SCORE.INTRA.POLAR.0>
0

>  <SCORE.INTRA.REPUL>
0

>  <SCORE.INTRA.REPUL.0>
0

>  <SCORE.INTRA.SOLV>
-3.86981

>  <SCORE.INTRA.SOLV.lig_0>
-124.914

>  <SCORE.INTRA.VDW>
-0.0342836

>  <SCORE.INTRA.VDW.0>
-4.69801

>  <SCORE.INTRA.norm>
-0.184802

>  <SCORE.RESTR>
0

>  <SCORE.RESTR.CAVITY>
0

>  <SCORE.RESTR.norm>
0

>  <SCORE.SYSTEM>
0

>  <SCORE.SYSTEM.CONST>
0

>  <SCORE.SYSTEM.DIHEDRAL>
0

>  <SCORE.SYSTEM.SOLV>
0

>  <SCORE.SYSTEM.norm>
0

>  <SCORE.heavy>
32

>  <SCORE.norm>
-0.477798

>  <RMSD>
54.521

$$$$
ligand
 OpenBabel11021811513D
libRbt.so/2013.1/901 2013/11/27
 32 34  0  0  0  0  0  0  0  0999 V2000
   35.2128  -28.5978   33.3142 P   0  0  1  0  0  0  0  0  0  0  0  0
   37.9610  -28.7196   34.1288 P   0  0  2  0  0  0  0  0  0  0  0  0
   40.1649  -27.1475   35.2631 P   0  0  1  0  0  0  0  0  0  0  0  0
   34.7600  -27.2033   31.1597 C   0  0  0  0  0  0  0  0  0  0  0  0
   34.2591  -27.6162   32.3993 O   0  0  0  0  0  0  0  0  0  0  0  0
   33.9489  -26.1999   30.6416 C   0  0  1  0  0  0  0  0  0  0  0  0
   33.6601  -25.1652   31.7121 O   0  0  0  0  0  0  0  0  0  0  0  0
   34.6802  -25.4130   29.4591 C   0  0  1  0  0  0  0  0  0  0  0  0
   33.9371  -25.6486   28.1636 O   0  0  0  0  0  0  0  0  0  0  0  0
   34.5735  -24.2145   29.7300 C   0  0  1  0  0  0  0  0  0  0  0  0
   33.4163  -23.6463   28.9979 O   0  0  0  0  0  0  0  0  0  0  0  0
   34.3096  -24.1236   31.3719 C   0  0  2  0  0  0  0  0  0  0  0  0
   39.2876  -22.8606   31.2694 N   0  0  0  0  0  0  0  0  0  0  0  0
   34.6607  -28.6861   34.7154 O   0  5  0  0  0  0  0  0  0  0  0  0
   38.1925  -30.0717   33.5024 O   0  5  0  0  0  0  0  0  0  0  0  0
   41.3240  -26.3646   34.6923 O   0  0  0  0  0  0  0  0  0  0  0  0
   38.3997  -22.7674   30.2918 C   0  0  0  0  0  0  0  0  0  0  0  0
   38.8134  -22.2526   29.0021 N   0  0  0  0  0  0  0  0  0  0  0  0
   35.2664  -29.9633   32.6669 O   0  0  0  0  0  0  0  0  0  0  0  0
   37.6041  -28.8913   35.5821 O   0  0  0  0  0  0  0  0  0  0  0  0
   39.2683  -26.2090   36.0409 O   0  5  0  0  0  0  0  0  0  0  0  0
   37.1431  -23.1292   30.4519 N   0  0  0  0  0  0  0  0  0  0  0  0
   36.7208  -27.9494   33.3782 O   0  0  0  0  0  0  0  0  0  0  0  0
   39.3230  -27.8057   34.0032 O   0  0  0  0  0  0  0  0  0  0  0  0
   40.7021  -28.2335   36.1695 O   0  0  0  0  0  0  0  0  0  0  0  0
   36.7202  -23.6100   31.6273 C   0  0  0  0  0  0  0  0  0  0  0  0
   37.6258  -23.7180   32.6633 C   0  0  0  0  0  0  0  0  0  0  0  0
   38.9639  -23.3244   32.4694 C   0  0  0  0  0  0  0  0  0  0  0  0
   39.9090  -23.4222   33.5059 O   0  0  0  0  0  0  0  0  0  0  0  0
   36.9702  -24.2193   33.7240 N   0  0  0  0  0  0  0  0  0  0  0  0
   35.7146  -24.4134   33.3601 C   0  0  0  0  0  0  0  0  0  0  0  0
   35.5458  -24.0550   32.1010 N   0  0  0  0  0  0  0  0  0  0  0  0
  1  5  1  6  0  0  0
  1 14  1  0  0  0  0
  1 19  2  0  0  0  0
  1 23  1  0  0  0  0
  2 15  1  6  0  0  0
  2 20  2  0  0  0  0
  2 23  1  0  0  0  0
  2 24  1  0  0  0  0
  3 16  1  6  0  0  0
  3 21  1  0  0  0  0
  3 24  1  0  0  0  0
  3 25  2  0  0  0  0
  4  5  1  0  0  0  0
  6  4  1  1  0  0  0
  6  7  1  0  0  0  0
  6  8  1  0  0  0  0
  7 12  1  0  0  0  0
  8  9  1  6  0  0  0
  8 10  1  0  0  0  0
 10 11  1  6  0  0  0
 10 12  1  0  0  0  0
 12 32  1  1  0  0  0
 13 17  2  0  0  0  0
 13 28  1  0  0  0  0
 17 18  1  0  0  0  0
 17 22  1  0  0  0  0
 22 26  2  0  0  0  0
 26 27  1  0  0  0  0
 26 32  1  0  0  0  0
 27 28  2  0  0  0  0
 27 30  1  0  0  0  0
 28 29  1  0  0  0  0
 30 31  2  0  0  0  0
 31 32  1  0  0  0  0
M  CHG  3  14  -1  15  -1  21  -1
M  END
>  <CHROM.1>
167.40613987,58.94002466,-178.76704845,46.85940425,-169.09497806,143.45373555
-175.93544339,-121.38034012,36.95351918,-26.15626194,32.67140575,0.91395882
0.49171542,2.57683406

>  <Name>
ligand

>  <RI>
0

>  <Rbt.Current_Directory>
/home/itssahil/PROJECTS/Mol_Feturizer/New_Systems/rnas/4Y1I

>  <Rbt.Executable>
rbdock ($Id: //depot/dev/client3/rdock/2013.1/src/exe/rbdock.cxx#4 $)

>  <Rbt.Library>
libRbt.so (2013.1, Build901 2013/11/27)

>  <Rbt.Parameter_File>
/export/apps/rDock/src/rDock_2013.1_src/data/scripts/dock_solv.prm

>  <Rbt.Receptor>
prm/blind_docking_80.prm

>  <SCORE>
-11.4387

>  <SCORE.INTER>
-7.14966

>  <SCORE.INTER.CONST>
1

>  <SCORE.INTER.POLAR>
0

>  <SCORE.INTER.ROT>
8

>  <SCORE.INTER.SOLV>
16.7761

>  <SCORE.INTER.VDW>
-19.2918

>  <SCORE.INTER.norm>
-0.223427

>  <SCORE.INTRA>
-4.28902

>  <SCORE.INTRA.DIHEDRAL>
-5.95404

>  <SCORE.INTRA.DIHEDRAL.0>
10.9594

>  <SCORE.INTRA.POLAR>
0

>  <SCORE.INTRA.POLAR.0>
0

>  <SCORE.INTRA.REPUL>
0

>  <SCORE.INTRA.REPUL.0>
0

>  <SCORE.INTRA.SOLV>
-1.30729

>  <SCORE.INTRA.SOLV.lig_0>
-124.914

>  <SCORE.INTRA.VDW>
-0.658357

>  <SCORE.INTRA.VDW.0>
-4.69801

>  <SCORE.INTRA.norm>
-0.134032

>  <SCORE.RESTR>
0

>  <SCORE.RESTR.CAVITY>
0

>  <SCORE.RESTR.norm>
0

>  <SCORE.SYSTEM>
0

>  <SCORE.SYSTEM.CONST>
0

>  <SCORE.SYSTEM.DIHEDRAL>
0

>  <SCORE.SYSTEM.SOLV>
0

>  <SCORE.SYSTEM.norm>
0

>  <SCORE.heavy>
32

>  <SCORE.norm>
-0.357459

>  <RMSD>
54.550

$$$$
ligand
 OpenBabel11021811513D
libRbt.so/2013.1/901 2013/11/27
 32 34  0  0  0  0  0  0  0  0999 V2000
   35.3241  -24.7706   32.3596 P   0  0  1  0  0  0  0  0  0  0  0  0
   37.1007  -24.5751   30.1154 P   0  0  2  0  0  0  0  0  0  0  0  0
   38.1570  -24.7562   27.3828 P   0  0  1  0  0  0  0  0  0  0  0  0
   34.3073  -27.0571   31.6319 C   0  0  0  0  0  0  0  0  0  0  0  0
   35.2488  -26.4131   32.4424 O   0  0  0  0  0  0  0  0  0  0  0  0
   34.1671  -28.3781   32.0423 C   0  0  1  0  0  0  0  0  0  0  0  0
   35.4137  -29.1647   31.6857 O   0  0  0  0  0  0  0  0  0  0  0  0
   34.0239  -28.4821   33.6300 C   0  0  1  0  0  0  0  0  0  0  0  0
   32.6518  -29.0139   33.9773 O   0  0  0  0  0  0  0  0  0  0  0  0
   34.8466  -29.3268   33.9920 C   0  0  1  0  0  0  0  0  0  0  0  0
   34.1719  -30.6386   34.1391 O   0  0  0  0  0  0  0  0  0  0  0  0
   35.9976  -29.4092   32.7910 C   0  0  2  0  0  0  0  0  0  0  0  0
   38.2326  -26.1537   36.0762 N   0  0  0  0  0  0  0  0  0  0  0  0
   34.0026  -24.1761   32.7795 O   0  5  0  0  0  0  0  0  0  0  0  0
   37.6371  -25.9363   30.4810 O   0  5  0  0  0  0  0  0  0  0  0  0
   38.8490  -26.0362   27.7892 O   0  0  0  0  0  0  0  0  0  0  0  0
   37.1688  -26.9159   36.2762 C   0  0  0  0  0  0  0  0  0  0  0  0
   36.4988  -26.8791   37.5605 N   0  0  0  0  0  0  0  0  0  0  0  0
   36.4427  -24.2900   33.2562 O   0  0  0  0  0  0  0  0  0  0  0  0
   38.0387  -23.5107   30.6213 O   0  0  0  0  0  0  0  0  0  0  0  0
   37.5528  -24.9348   26.0071 O   0  5  0  0  0  0  0  0  0  0  0  0
   36.6942  -27.7133   35.3410 N   0  0  0  0  0  0  0  0  0  0  0  0
   35.6294  -24.3393   30.8041 O   0  0  0  0  0  0  0  0  0  0  0  0
   36.9611  -24.4509   28.4810 O   0  0  0  0  0  0  0  0  0  0  0  0
   39.1686  -23.6311   27.3710 O   0  0  0  0  0  0  0  0  0  0  0  0
   37.2834  -27.7768   34.1408 C   0  0  0  0  0  0  0  0  0  0  0  0
   38.3942  -26.9920   33.9058 C   0  0  0  0  0  0  0  0  0  0  0  0
   38.8843  -26.1477   34.9207 C   0  0  0  0  0  0  0  0  0  0  0  0
   40.0139  -25.3372   34.7111 O   0  0  0  0  0  0  0  0  0  0  0  0
   38.7993  -27.2296   32.6465 N   0  0  0  0  0  0  0  0  0  0  0  0
   37.9751  -28.1218   32.1253 C   0  0  0  0  0  0  0  0  0  0  0  0
   37.0549  -28.4610   33.0088 N   0  0  0  0  0  0  0  0  0  0  0  0
  1  5  1  1  0  0  0
  1 14  1  0  0  0  0
  1 19  2  0  0  0  0
  1 23  1  0  0  0  0
  2 15  1  1  0  0  0
  2 20  2  0  0  0  0
  2 23  1  0  0  0  0
  2 24  1  0  0  0  0
  3 16  1  1  0  0  0
  3 21  1  0  0  0  0
  3 24  1  0  0  0  0
  3 25  2  0  0  0  0
  4  5  1  0  0  0  0
  6  4  1  1  0  0  0
  6  7  1  0  0  0  0
  6  8  1  0  0  0  0
  7 12  1  0  0  0  0
  8  9  1  6  0  0  0
  8 10  1  0  0  0  0
 10 11  1  6  0  0  0
 10 12  1  0  0  0  0
 12 32  1  1  0  0  0
 13 17  2  0  0  0  0
 13 28  1  0  0  0  0
 17 18  1  0  0  0  0
 17 22  1  0  0  0  0
 22 26  2  0  0  0  0
 26 27  1  0  0  0  0
 26 32  1  0  0  0  0
 27 28  2  0  0  0  0
 27 30  1  0  0  0  0
 28 29  1  0  0  0  0
 30 31  2  0  0  0  0
 31 32  1  0  0  0  0
M  CHG  3  14  -1  15  -1  21  -1
M  END
>  <CHROM.1>
61.14103198,43.05403702,44.39099593,-70.76905171,-166.50612713,132.25356978
-72.04726228,-52.76944707,36.65219196,-26.33657564,31.97824759,1.21010464
-0.66292500,-1.30572521

>  <Name>
ligand

>  <RI>
0

>  <Rbt.Current_Directory>
/home/itssahil/PROJECTS/Mol_Feturizer/New_Systems/rnas/4Y1I

>  <Rbt.Executable>
rbdock ($Id: //depot/dev/client3/rdock/2013.1/src/exe/rbdock.cxx#4 $)

>  <Rbt.Library>
libRbt.so (2013.1, Build901 2013/11/27)

>  <Rbt.Parameter_File>
/export/apps/rDock/src/rDock_2013.1_src/data/scripts/dock_solv.prm

>  <Rbt.Receptor>
prm/blind_docking_60.prm

>  <SCORE>
-12.7655

>  <SCORE.INTER>
-6.7008

>  <SCORE.INTER.CONST>
1

>  <SCORE.INTER.POLAR>
0

>  <SCORE.INTER.ROT>
8

>  <SCORE.INTER.SOLV>
20.3663

>  <SCORE.INTER.VDW>
-20.1893

>  <SCORE.INTER.norm>
-0.2094

>  <SCORE.INTRA>
-6.06471

>  <SCORE.INTRA.DIHEDRAL>
-7.3476

>  <SCORE.INTRA.DIHEDRAL.0>
10.9594

>  <SCORE.INTRA.POLAR>
0

>  <SCORE.INTRA.POLAR.0>
0

>  <SCORE.INTRA.REPUL>
0

>  <SCORE.INTRA.REPUL.0>
0

>  <SCORE.INTRA.SOLV>
-1.4142

>  <SCORE.INTRA.SOLV.lig_0>
-124.914

>  <SCORE.INTRA.VDW>
-1.68381

>  <SCORE.INTRA.VDW.0>
-4.69801

>  <SCORE.INTRA.norm>
-0.189522

>  <SCORE.RESTR>
0

>  <SCORE.RESTR.CAVITY>
0

>  <SCORE.RESTR.norm>
0

>  <SCORE.SYSTEM>
0

>  <SCORE.SYSTEM.CONST>
0

>  <SCORE.SYSTEM.DIHEDRAL>
0

>  <SCORE.SYSTEM.SOLV>
0

>  <SCORE.SYSTEM.norm>
0

>  <SCORE.heavy>
32

>  <SCORE.norm>
-0.398922

>  <RMSD>
54.570

$$$$
ligand
 OpenBabel11021811513D
libRbt.so/2013.1/901 2013/11/27
 32 34  0  0  0  0  0  0  0  0999 V2000
   37.7906  -24.7244   35.3859 P   0  0  1  0  0  0  0  0  0  0  0  0
   37.6026  -27.0760   37.0186 P   0  0  2  0  0  0  0  0  0  0  0  0
   39.5150  -29.3008   36.9284 P   0  0  1  0  0  0  0  0  0  0  0  0
   36.3272  -24.6392   33.2312 C   0  0  0  0  0  0  0  0  0  0  0  0
   36.6112  -25.3338   34.4123 O   0  0  0  0  0  0  0  0  0  0  0  0
   35.2092  -25.1974   32.6213 C   0  0  1  0  0  0  0  0  0  0  0  0
   34.6326  -24.2245   31.6109 O   0  0  0  0  0  0  0  0  0  0  0  0
   35.5917  -26.5101   31.7952 C   0  0  1  0  0  0  0  0  0  0  0  0
   34.9215  -27.7118   32.4221 O   0  0  0  0  0  0  0  0  0  0  0  0
   35.1020  -26.3616   30.6729 C   0  0  1  0  0  0  0  0  0  0  0  0
   33.7950  -27.0586   30.6108 O   0  0  0  0  0  0  0  0  0  0  0  0
   34.8847  -24.7233   30.4662 C   0  0  2  0  0  0  0  0  0  0  0  0
   37.8757  -24.1543   26.3292 N   0  0  0  0  0  0  0  0  0  0  0  0
   39.1466  -25.0292   34.7988 O   0  5  0  0  0  0  0  0  0  0  0  0
   36.5967  -27.6513   36.0536 O   0  5  0  0  0  0  0  0  0  0  0  0
   40.8696  -29.3374   37.5963 O   0  0  0  0  0  0  0  0  0  0  0  0
   36.7823  -24.8903   26.4531 C   0  0  0  0  0  0  0  0  0  0  0  0
   36.3104  -25.6592   25.3192 N   0  0  0  0  0  0  0  0  0  0  0  0
   37.5838  -23.2330   35.5240 O   0  0  0  0  0  0  0  0  0  0  0  0
   37.1878  -27.3968   38.4306 O   0  0  0  0  0  0  0  0  0  0  0  0
   38.5047  -29.9909   37.8188 O   0  5  0  0  0  0  0  0  0  0  0  0
   36.1027  -24.9484   27.5802 N   0  0  0  0  0  0  0  0  0  0  0  0
   37.6763  -25.4439   36.8583 O   0  0  0  0  0  0  0  0  0  0  0  0
   39.0884  -27.7178   36.7246 O   0  0  0  0  0  0  0  0  0  0  0  0
   39.6052  -30.0041   35.5918 O   0  0  0  0  0  0  0  0  0  0  0  0
   36.5049  -24.2536   28.6512 C   0  0  0  0  0  0  0  0  0  0  0  0
   37.6423  -23.4785   28.5492 C   0  0  0  0  0  0  0  0  0  0  0  0
   38.3523  -23.4309   27.3340 C   0  0  0  0  0  0  0  0  0  0  0  0
   39.5138  -22.6501   27.1995 O   0  0  0  0  0  0  0  0  0  0  0  0
   37.8373  -22.8863   29.7398 N   0  0  0  0  0  0  0  0  0  0  0  0
   36.8638  -23.2782   30.5431 C   0  0  0  0  0  0  0  0  0  0  0  0
   36.0537  -24.1033   29.9065 N   0  0  0  0  0  0  0  0  0  0  0  0
  1  5  1  6  0  0  0
  1 14  1  0  0  0  0
  1 19  2  0  0  0  0
  1 23  1  0  0  0  0
  2 15  1  6  0  0  0
  2 20  2  0  0  0  0
  2 23  1  0  0  0  0
  2 24  1  0  0  0  0
  3 16  1  1  0  0  0
  3 21  1  0  0  0  0
  3 24  1  0  0  0  0
  3 25  2  0  0  0  0
  4  5  1  0  0  0  0
  6  4  1  6  0  0  0
  6  7  1  0  0  0  0
  6  8  1  0  0  0  0
  7 12  1  0  0  0  0
  8  9  1  1  0  0  0
  8 10  1  0  0  0  0
 10 11  1  1  0  0  0
 10 12  1  0  0  0  0
 12 32  1  1  0  0  0
 13 17  2  0  0  0  0
 13 28  1  0  0  0  0
 17 18  1  0  0  0  0
 17 22  1  0  0  0  0
 22 26  2  0  0  0  0
 26 27  1  0  0  0  0
 26 32  1  0  0  0  0
 27 28  2  0  0  0  0
 27 30  1  0  0  0  0
 28 29  1  0  0  0  0
 30 31  2  0  0  0  0
 31 32  1  0  0  0  0
M  CHG  3  14  -1  15  -1  21  -1
M  END
>  <CHROM.1>
-75.99878225,-47.15341745,-136.49150292,162.28335045,-172.87910841,-170.67671840
50.78934143,-65.79077821,37.28009413,-25.91834329,32.94155211,-1.03606694
-1.20761007,-0.67414826

>  <Name>
ligand

>  <RI>
0

>  <Rbt.Current_Directory>
/home/itssahil/PROJECTS/Mol_Feturizer/New_Systems/rnas/4Y1I

>  <Rbt.Executable>
rbdock ($Id: //depot/dev/client3/rdock/2013.1/src/exe/rbdock.cxx#4 $)

>  <Rbt.Library>
libRbt.so (2013.1, Build901 2013/11/27)

>  <Rbt.Parameter_File>
/export/apps/rDock/src/rDock_2013.1_src/data/scripts/dock_solv.prm

>  <Rbt.Receptor>
prm/blind_docking_80.prm

>  <SCORE>
-8.02219

>  <SCORE.INTER>
-4.0145

>  <SCORE.INTER.CONST>
1

>  <SCORE.INTER.POLAR>
0

>  <SCORE.INTER.ROT>
8

>  <SCORE.INTER.SOLV>
13.2789

>  <SCORE.INTER.VDW>
-16.036

>  <SCORE.INTER.norm>
-0.125453

>  <SCORE.INTRA>
-4.00769

>  <SCORE.INTRA.DIHEDRAL>
-5.64348

>  <SCORE.INTRA.DIHEDRAL.0>
10.9594

>  <SCORE.INTRA.POLAR>
0

>  <SCORE.INTRA.POLAR.0>
0

>  <SCORE.INTRA.REPUL>
0

>  <SCORE.INTRA.REPUL.0>
0

>  <SCORE.INTRA.SOLV>
-3.4491

>  <SCORE.INTRA.SOLV.lig_0>
-124.914

>  <SCORE.INTRA.VDW>
0.538596

>  <SCORE.INTRA.VDW.0>
-4.69801

>  <SCORE.INTRA.norm>
-0.12524

>  <SCORE.RESTR>
0

>  <SCORE.RESTR.CAVITY>
0

>  <SCORE.RESTR.norm>
0

>  <SCORE.SYSTEM>
0

>  <SCORE.SYSTEM.CONST>
0

>  <SCORE.SYSTEM.DIHEDRAL>
0

>  <SCORE.SYSTEM.SOLV>
0

>  <SCORE.SYSTEM.norm>
0

>  <SCORE.heavy>
32

>  <SCORE.norm>
-0.250693

>  <RMSD>
54.637

$$$$
ligand
 OpenBabel11021811513D
libRbt.so/2013.1/901 2013/11/27
 32 34  0  0  0  0  0  0  0  0999 V2000
   35.6615  -24.5940   31.2157 P   0  0  1  0  0  0  0  0  0  0  0  0
   34.0972  -24.7909   28.8188 P   0  0  2  0  0  0  0  0  0  0  0  0
   32.3226  -24.2742   26.5387 P   0  0  1  0  0  0  0  0  0  0  0  0
   36.3767  -26.8889   32.2224 C   0  0  0  0  0  0  0  0  0  0  0  0
   35.5345  -26.2322   31.3183 O   0  0  0  0  0  0  0  0  0  0  0  0
   35.8743  -28.1580   32.4877 C   0  0  1  0  0  0  0  0  0  0  0  0
   36.7154  -28.8339   33.5533 O   0  0  0  0  0  0  0  0  0  0  0  0
   34.3929  -28.0849   33.0813 C   0  0  1  0  0  0  0  0  0  0  0  0
   33.4290  -28.7245   32.1076 O   0  0  0  0  0  0  0  0  0  0  0  0
   34.3992  -28.7798   34.1003 C   0  0  1  0  0  0  0  0  0  0  0  0
   33.8875  -30.1329   33.7758 O   0  0  0  0  0  0  0  0  0  0  0  0
   35.9861  -28.8745   34.5969 C   0  0  2  0  0  0  0  0  0  0  0  0
   35.9905  -27.1045   39.4190 N   0  0  0  0  0  0  0  0  0  0  0  0
   35.4864  -23.9808   32.5830 O   0  5  0  0  0  0  0  0  0  0  0  0
   33.5335  -26.1628   29.0917 O   0  5  0  0  0  0  0  0  0  0  0  0
   31.6572  -25.6238   26.6735 O   0  0  0  0  0  0  0  0  0  0  0  0
   35.5367  -28.2660   38.9744 C   0  0  0  0  0  0  0  0  0  0  0  0
   34.9543  -29.2070   39.9097 N   0  0  0  0  0  0  0  0  0  0  0  0
   37.0145  -24.2473   30.6366 O   0  0  0  0  0  0  0  0  0  0  0  0
   35.3543  -24.9162   27.9985 O   0  0  0  0  0  0  0  0  0  0  0  0
   31.2797  -23.2424   26.1680 O   0  5  0  0  0  0  0  0  0  0  0  0
   35.5966  -28.5988   37.7011 N   0  0  0  0  0  0  0  0  0  0  0  0
   34.4714  -24.0385   30.2289 O   0  0  0  0  0  0  0  0  0  0  0  0
   32.9946  -23.8877   27.9976 O   0  0  0  0  0  0  0  0  0  0  0  0
   33.3874  -24.3544   25.4667 O   0  0  0  0  0  0  0  0  0  0  0  0
   36.1267  -27.7581   36.8046 C   0  0  0  0  0  0  0  0  0  0  0  0
   36.6069  -26.5401   37.2416 C   0  0  0  0  0  0  0  0  0  0  0  0
   36.5331  -26.2060   38.6076 C   0  0  0  0  0  0  0  0  0  0  0  0
   37.0144  -24.9733   39.0827 O   0  0  0  0  0  0  0  0  0  0  0  0
   37.0826  -25.8837   36.1696 N   0  0  0  0  0  0  0  0  0  0  0  0
   36.9041  -26.6611   35.1158 C   0  0  0  0  0  0  0  0  0  0  0  0
   36.3278  -27.7921   35.4778 N   0  0  0  0  0  0  0  0  0  0  0  0
  1  5  1  1  0  0  0
  1 14  1  0  0  0  0
  1 19  2  0  0  0  0
  1 23  1  0  0  0  0
  2 15  1  1  0  0  0
  2 20  2  0  0  0  0
  2 23  1  0  0  0  0
  2 24  1  0  0  0  0
  3 16  1  1  0  0  0
  3 21  1  0  0  0  0
  3 24  1  0  0  0  0
  3 25  2  0  0  0  0
  4  5  1  0  0  0  0
  6  4  1  1  0  0  0
  6  7  1  0  0  0  0
  6  8  1  0  0  0  0
  7 12  1  0  0  0  0
  8  9  1  6  0  0  0
  8 10  1  0  0  0  0
 10 11  1  6  0  0  0
 10 12  1  0  0  0  0
 12 32  1  1  0  0  0
 13 17  2  0  0  0  0
 13 28  1  0  0  0  0
 17 18  1  0  0  0  0
 17 22  1  0  0  0  0
 22 26  2  0  0  0  0
 26 27  1  0  0  0  0
 26 32  1  0  0  0  0
 27 28  2  0  0  0  0
 27 30  1  0  0  0  0
 28 29  1  0  0  0  0
 30 31  2  0  0  0  0
 31 32  1  0  0  0  0
M  CHG  3  14  -1  15  -1  21  -1
M  END
>  <CHROM.1>
-54.80745611,65.72184966,56.93271310,-175.30748115,161.66072567,-155.93062611
-43.22320511,-58.06833740,34.91323895,-26.22992432,32.34015211,-2.10033207
1.02392048,2.33619694

>  <Name>
ligand

>  <RI>
0

>  <Rbt.Current_Directory>
/home/itssahil/PROJECTS/Mol_Feturizer/New_Systems/rnas/4Y1I

>  <Rbt.Executable>
rbdock ($Id: //depot/dev/client3/rdock/2013.1/src/exe/rbdock.cxx#4 $)

>  <Rbt.Library>
libRbt.so (2013.1, Build901 2013/11/27)

>  <Rbt.Parameter_File>
/export/apps/rDock/src/rDock_2013.1_src/data/scripts/dock_solv.prm

>  <Rbt.Receptor>
prm/blind_docking_100.prm

>  <SCORE>
-9.30203

>  <SCORE.INTER>
-4.44054

>  <SCORE.INTER.CONST>
1

>  <SCORE.INTER.POLAR>
0

>  <SCORE.INTER.ROT>
8

>  <SCORE.INTER.SOLV>
15.4921

>  <SCORE.INTER.VDW>
-17.0577

>  <SCORE.INTER.norm>
-0.138767

>  <SCORE.INTRA>
-4.8676

>  <SCORE.INTRA.DIHEDRAL>
-7.5367

>  <SCORE.INTRA.DIHEDRAL.0>
10.9594

>  <SCORE.INTRA.POLAR>
0

>  <SCORE.INTRA.POLAR.0>
0

>  <SCORE.INTRA.REPUL>
0

>  <SCORE.INTRA.REPUL.0>
0

>  <SCORE.INTRA.SOLV>
-3.34305

>  <SCORE.INTRA.SOLV.lig_0>
-124.914

>  <SCORE.INTRA.VDW>
0.572276

>  <SCORE.INTRA.VDW.0>
-4.69801

>  <SCORE.INTRA.norm>
-0.152112

>  <SCORE.RESTR>
0.0061155

>  <SCORE.RESTR.CAVITY>
0.0061155

>  <SCORE.RESTR.norm>
0.000191109

>  <SCORE.SYSTEM>
0

>  <SCORE.SYSTEM.CONST>
0

>  <SCORE.SYSTEM.DIHEDRAL>
0

>  <SCORE.SYSTEM.SOLV>
0

>  <SCORE.SYSTEM.norm>
0

>  <SCORE.heavy>
32

>  <SCORE.norm>
-0.290688

>  <RMSD>
54.648

$$$$
ligand
 OpenBabel11021811513D
libRbt.so/2013.1/901 2013/11/27
 32 34  0  0  0  0  0  0  0  0999 V2000
   34.5056  -28.7311   33.0867 P   0  0  1  0  0  0  0  0  0  0  0  0
   36.0462  -28.1984   35.4476 P   0  0  2  0  0  0  0  0  0  0  0  0
   35.1836  -28.8466   38.1772 P   0  0  1  0  0  0  0  0  0  0  0  0
   34.6153  -27.2037   30.9780 C   0  0  0  0  0  0  0  0  0  0  0  0
   33.7827  -27.8631   31.8890 O   0  0  0  0  0  0  0  0  0  0  0  0
   33.9279  -26.1382   30.4075 C   0  0  1  0  0  0  0  0  0  0  0  0
   33.6182  -25.0973   31.4661 O   0  0  0  0  0  0  0  0  0  0  0  0
   34.8173  -25.3933   29.3091 C   0  0  1  0  0  0  0  0  0  0  0  0
   34.1793  -25.5597   27.9485 O   0  0  0  0  0  0  0  0  0  0  0  0
   34.7723  -24.1933   29.5905 C   0  0  1  0  0  0  0  0  0  0  0  0
   33.7295  -23.5343   28.7682 O   0  0  0  0  0  0  0  0  0  0  0  0
   34.3684  -24.1019   31.2037 C   0  0  2  0  0  0  0  0  0  0  0  0
   39.2823  -22.7156   31.7671 N   0  0  0  0  0  0  0  0  0  0  0  0
   33.4579  -29.4438   33.9056 O   0  5  0  0  0  0  0  0  0  0  0  0
   37.1192  -27.2239   35.8638 O   0  5  0  0  0  0  0  0  0  0  0  0
   35.7921  -30.2273   38.1014 O   0  0  0  0  0  0  0  0  0  0  0  0
   38.4763  -22.4743   30.7449 C   0  0  0  0  0  0  0  0  0  0  0  0
   38.9754  -21.7305   29.6059 N   0  0  0  0  0  0  0  0  0  0  0  0
   35.4656  -29.7170   32.4602 O   0  0  0  0  0  0  0  0  0  0  0  0
   36.6617  -29.5504   35.1987 O   0  0  0  0  0  0  0  0  0  0  0  0
   36.1536  -27.9150   38.8706 O   0  5  0  0  0  0  0  0  0  0  0  0
   37.2264  -22.8901   30.7269 N   0  0  0  0  0  0  0  0  0  0  0  0
   35.3257  -27.6939   34.0615 O   0  0  0  0  0  0  0  0  0  0  0  0
   34.9136  -28.3218   36.6342 O   0  0  0  0  0  0  0  0  0  0  0  0
   33.8842  -28.9222   38.9487 O   0  0  0  0  0  0  0  0  0  0  0  0
   36.7264  -23.5806   31.7588 C   0  0  0  0  0  0  0  0  0  0  0  0
   37.5457  -23.8463   32.8373 C   0  0  0  0  0  0  0  0  0  0  0  0
   38.8783  -23.3912   32.8350 C   0  0  0  0  0  0  0  0  0  0  0  0
   39.7365  -23.6458   33.9192 O   0  0  0  0  0  0  0  0  0  0  0  0
   36.8245  -24.5427   33.7323 N   0  0  0  0  0  0  0  0  0  0  0  0
   35.6126  -24.7014   33.2295 C   0  0  0  0  0  0  0  0  0  0  0  0
   35.5354  -24.1315   32.0414 N   0  0  0  0  0  0  0  0  0  0  0  0
  1  5  1  6  0  0  0
  1 14  1  0  0  0  0
  1 19  2  0  0  0  0
  1 23  1  0  0  0  0
  2 15  1  1  0  0  0
  2 20  2  0  0  0  0
  2 23  1  0  0  0  0
  2 24  1  0  0  0  0
  3 16  1  6  0  0  0
  3 21  1  0  0  0  0
  3 24  1  0  0  0  0
  3 25  2  0  0  0  0
  4  5  1  0  0  0  0
  6  4  1  1  0  0  0
  6  7  1  0  0  0  0
  6  8  1  0  0  0  0
  7 12  1  0  0  0  0
  8  9  1  6  0  0  0
  8 10  1  0  0  0  0
 10 11  1  6  0  0  0
 10 12  1  0  0  0  0
 12 32  1  1  0  0  0
 13 17  2  0  0  0  0
 13 28  1  0  0  0  0
 17 18  1  0  0  0  0
 17 22  1  0  0  0  0
 22 26  2  0  0  0  0
 26 27  1  0  0  0  0
 26 32  1  0  0  0  0
 27 28  2  0  0  0  0
 27 30  1  0  0  0  0
 28 29  1  0  0  0  0
 30 31  2  0  0  0  0
 31 32  1  0  0  0  0
M  CHG  3  14  -1  15  -1  21  -1
M  END
>  <CHROM.1>
-176.06915775,158.97812434,-56.47716604,65.58573623,-156.24474193,154.47120816
173.88654475,-61.22314686,35.73644798,-26.37945282,33.34006606,1.73247289
0.74038540,2.13056272

>  <Name>
ligand

>  <RI>
0

>  <Rbt.Current_Directory>
/home/itssahil/PROJECTS/Mol_Feturizer/New_Systems/rnas/4Y1I

>  <Rbt.Executable>
rbdock ($Id: //depot/dev/client3/rdock/2013.1/src/exe/rbdock.cxx#4 $)

>  <Rbt.Library>
libRbt.so (2013.1, Build901 2013/11/27)

>  <Rbt.Parameter_File>
/export/apps/rDock/src/rDock_2013.1_src/data/scripts/dock_solv.prm

>  <Rbt.Receptor>
prm/blind_docking_100.prm

>  <SCORE>
-14.4643

>  <SCORE.INTER>
-8.70423

>  <SCORE.INTER.CONST>
1

>  <SCORE.INTER.POLAR>
0

>  <SCORE.INTER.ROT>
8

>  <SCORE.INTER.SOLV>
19.9574

>  <SCORE.INTER.VDW>
-21.3886

>  <SCORE.INTER.norm>
-0.272007

>  <SCORE.INTRA>
-5.7601

>  <SCORE.INTRA.DIHEDRAL>
-6.4219

>  <SCORE.INTRA.DIHEDRAL.0>
10.9594

>  <SCORE.INTRA.POLAR>
0

>  <SCORE.INTRA.POLAR.0>
0

>  <SCORE.INTRA.REPUL>
0

>  <SCORE.INTRA.REPUL.0>
0

>  <SCORE.INTRA.SOLV>
-3.86347

>  <SCORE.INTRA.SOLV.lig_0>
-124.914

>  <SCORE.INTRA.VDW>
-0.617417

>  <SCORE.INTRA.VDW.0>
-4.69801

>  <SCORE.INTRA.norm>
-0.180003

>  <SCORE.RESTR>
0

>  <SCORE.RESTR.CAVITY>
0

>  <SCORE.RESTR.norm>
0

>  <SCORE.SYSTEM>
0

>  <SCORE.SYSTEM.CONST>
0

>  <SCORE.SYSTEM.DIHEDRAL>
0

>  <SCORE.SYSTEM.SOLV>
0

>  <SCORE.SYSTEM.norm>
0

>  <SCORE.heavy>
32

>  <SCORE.norm>
-0.45201

>  <RMSD>
54.649

$$$$
ligand
 OpenBabel11021811513D
libRbt.so/2013.1/901 2013/11/27
 32 34  0  0  0  0  0  0  0  0999 V2000
   34.7644  -24.5883   32.3257 P   0  0  1  0  0  0  0  0  0  0  0  0
   34.5089  -24.6007   29.4682 P   0  0  2  0  0  0  0  0  0  0  0  0
   34.3150  -21.8443   28.4782 P   0  0  1  0  0  0  0  0  0  0  0  0
   35.6423  -26.9816   31.7845 C   0  0  0  0  0  0  0  0  0  0  0  0
   34.5417  -26.2128   32.1791 O   0  0  0  0  0  0  0  0  0  0  0  0
   35.3405  -28.3315   31.9252 C   0  0  1  0  0  0  0  0  0  0  0  0
   36.5381  -29.1725   31.5272 O   0  0  0  0  0  0  0  0  0  0  0  0
   35.0322  -28.7032   33.4480 C   0  0  1  0  0  0  0  0  0  0  0  0
   33.5891  -29.1357   33.5777 O   0  0  0  0  0  0  0  0  0  0  0  0
   35.7333  -29.6839   33.7084 C   0  0  1  0  0  0  0  0  0  0  0  0
   34.9289  -30.9191   33.5504 O   0  0  0  0  0  0  0  0  0  0  0  0
   36.9848  -29.6742   32.6095 C   0  0  2  0  0  0  0  0  0  0  0  0
   40.4289  -28.9711   36.3550 N   0  0  0  0  0  0  0  0  0  0  0  0
   33.4917  -23.9391   32.8103 O   0  5  0  0  0  0  0  0  0  0  0  0
   33.0798  -25.0259   29.6942 O   0  5  0  0  0  0  0  0  0  0  0  0
   33.3467  -21.6610   29.6232 O   0  0  0  0  0  0  0  0  0  0  0  0
   39.4703  -29.8816   36.2856 C   0  0  0  0  0  0  0  0  0  0  0  0
   39.3137  -30.8332   37.3670 N   0  0  0  0  0  0  0  0  0  0  0  0
   35.9005  -24.3391   33.2919 O   0  0  0  0  0  0  0  0  0  0  0  0
   35.3327  -25.7951   29.0641 O   0  0  0  0  0  0  0  0  0  0  0  0
   35.6203  -21.1587   28.8184 O   0  5  0  0  0  0  0  0  0  0  0  0
   38.6472  -29.9532   35.2594 N   0  0  0  0  0  0  0  0  0  0  0  0
   35.1423  -23.9773   30.8483 O   0  0  0  0  0  0  0  0  0  0  0  0
   34.5718  -23.4643   28.2805 O   0  0  0  0  0  0  0  0  0  0  0  0
   33.7162  -21.2435   27.2252 O   0  0  0  0  0  0  0  0  0  0  0  0
   38.7578  -29.0929   34.2400 C   0  0  0  0  0  0  0  0  0  0  0  0
   39.7487  -28.1332   34.2875 C   0  0  0  0  0  0  0  0  0  0  0  0
   40.6176  -28.0760   35.3942 C   0  0  0  0  0  0  0  0  0  0  0  0
   41.6366  -27.1103   35.4706 O   0  0  0  0  0  0  0  0  0  0  0  0
   39.6571  -27.4002   33.1648 N   0  0  0  0  0  0  0  0  0  0  0  0
   38.6534  -27.8846   32.4543 C   0  0  0  0  0  0  0  0  0  0  0  0
   38.0986  -28.9019   33.0864 N   0  0  0  0  0  0  0  0  0  0  0  0
  1  5  1  6  0  0  0
  1 14  1  0  0  0  0
  1 19  2  0  0  0  0
  1 23  1  0  0  0  0
  2 15  1  1  0  0  0
  2 20  2  0  0  0  0
  2 23  1  0  0  0  0
  2 24  1  0  0  0  0
  3 16  1  1  0  0  0
  3 21  1  0  0  0  0
  3 24  1  0  0  0  0
  3 25  2  0  0  0  0
  4  5  1  0  0  0  0
  6  4  1  1  0  0  0
  6  7  1  0  0  0  0
  6  8  1  0  0  0  0
  7 12  1  0  0  0  0
  8  9  1  6  0  0  0
  8 10  1  0  0  0  0
 10 11  1  6  0  0  0
 10 12  1  0  0  0  0
 12 32  1  1  0  0  0
 13 17  2  0  0  0  0
 13 28  1  0  0  0  0
 17 18  1  0  0  0  0
 17 22  1  0  0  0  0
 22 26  2  0  0  0  0
 26 27  1  0  0  0  0
 26 32  1  0  0  0  0
 27 28  2  0  0  0  0
 27 30  1  0  0  0  0
 28 29  1  0  0  0  0
 30 31  2  0  0  0  0
 31 32  1  0  0  0  0
M  CHG  3  14  -1  15  -1  21  -1
M  END
>  <CHROM.1>
-177.72715389,36.64008213,-29.85176471,-178.82289385,170.27331797,175.56753908
33.90469065,83.43561228,36.15355683,-26.32684066,32.07880343,-2.10797402
0.42468254,2.65431701

>  <Name>
ligand

>  <RI>
0

>  <Rbt.Current_Directory>
/home/itssahil/PROJECTS/Mol_Feturizer/New_Systems/rnas/4Y1I

>  <Rbt.Executable>
rbdock ($Id: //depot/dev/client3/rdock/2013.1/src/exe/rbdock.cxx#4 $)

>  <Rbt.Library>
libRbt.so (2013.1, Build901 2013/11/27)

>  <Rbt.Parameter_File>
/export/apps/rDock/src/rDock_2013.1_src/data/scripts/dock_solv.prm

>  <Rbt.Receptor>
prm/blind_docking_80.prm

>  <SCORE>
-15.9303

>  <SCORE.INTER>
-10.9816

>  <SCORE.INTER.CONST>
1

>  <SCORE.INTER.POLAR>
0

>  <SCORE.INTER.ROT>
8

>  <SCORE.INTER.SOLV>
30.9307

>  <SCORE.INTER.VDW>
-26.5646

>  <SCORE.INTER.norm>
-0.343176

>  <SCORE.INTRA>
-4.94866

>  <SCORE.INTRA.DIHEDRAL>
-5.53388

>  <SCORE.INTRA.DIHEDRAL.0>
10.9594

>  <SCORE.INTRA.POLAR>
0

>  <SCORE.INTRA.POLAR.0>
0

>  <SCORE.INTRA.REPUL>
0

>  <SCORE.INTRA.REPUL.0>
0

>  <SCORE.INTRA.SOLV>
-4.41333

>  <SCORE.INTRA.SOLV.lig_0>
-124.914

>  <SCORE.INTRA.VDW>
0.0249411

>  <SCORE.INTRA.VDW.0>
-4.69801

>  <SCORE.INTRA.norm>
-0.154646

>  <SCORE.RESTR>
0

>  <SCORE.RESTR.CAVITY>
0

>  <SCORE.RESTR.norm>
0

>  <SCORE.SYSTEM>
0

>  <SCORE.SYSTEM.CONST>
0

>  <SCORE.SYSTEM.DIHEDRAL>
0

>  <SCORE.SYSTEM.SOLV>
0

>  <SCORE.SYSTEM.norm>
0

>  <SCORE.heavy>
32

>  <SCORE.norm>
-0.497821

>  <RMSD>
54.660

$$$$
ligand
 OpenBabel11021811513D
libRbt.so/2013.1/901 2013/11/27
 32 34  0  0  0  0  0  0  0  0999 V2000
   34.8237  -24.6329   31.4525 P   0  0  1  0  0  0  0  0  0  0  0  0
   34.7049  -22.9560   29.1276 P   0  0  2  0  0  0  0  0  0  0  0  0
   37.5628  -22.5785   28.5752 P   0  0  1  0  0  0  0  0  0  0  0  0
   35.7708  -27.0607   31.4642 C   0  0  0  0  0  0  0  0  0  0  0  0
   34.6931  -26.2357   31.8047 O   0  0  0  0  0  0  0  0  0  0  0  0
   35.4649  -28.3794   31.7816 C   0  0  1  0  0  0  0  0  0  0  0  0
   36.6729  -29.2630   31.5367 O   0  0  0  0  0  0  0  0  0  0  0  0
   35.1141  -28.5384   33.3320 C   0  0  1  0  0  0  0  0  0  0  0  0
   33.6679  -28.9540   33.4802 O   0  0  0  0  0  0  0  0  0  0  0  0
   35.8075  -29.4713   33.7446 C   0  0  1  0  0  0  0  0  0  0  0  0
   35.0075  -30.7194   33.7365 O   0  0  0  0  0  0  0  0  0  0  0  0
   37.0891  -29.6088   32.6899 C   0  0  2  0  0  0  0  0  0  0  0  0
   40.5650  -28.5246   36.3131 N   0  0  0  0  0  0  0  0  0  0  0  0
   33.7362  -23.8633   32.1604 O   0  5  0  0  0  0  0  0  0  0  0  0
   33.6148  -22.0700   29.6762 O   0  5  0  0  0  0  0  0  0  0  0  0
   37.7687  -24.0745   28.5317 O   0  0  0  0  0  0  0  0  0  0  0  0
   39.6289  -29.4606   36.3315 C   0  0  0  0  0  0  0  0  0  0  0  0
   39.5112  -30.3260   37.4877 N   0  0  0  0  0  0  0  0  0  0  0  0
   36.1922  -24.1519   31.8791 O   0  0  0  0  0  0  0  0  0  0  0  0
   34.5169  -23.1266   27.6429 O   0  0  0  0  0  0  0  0  0  0  0  0
   37.4233  -22.0562   27.1620 O   0  5  0  0  0  0  0  0  0  0  0  0
   38.7940  -29.6342   35.3273 N   0  0  0  0  0  0  0  0  0  0  0  0
   34.6423  -24.4377   29.8314 O   0  0  0  0  0  0  0  0  0  0  0  0
   36.1749  -22.2781   29.4196 O   0  0  0  0  0  0  0  0  0  0  0  0
   38.7508  -21.9370   29.2583 O   0  0  0  0  0  0  0  0  0  0  0  0
   38.8689  -28.8560   34.2409 C   0  0  0  0  0  0  0  0  0  0  0  0
   39.8356  -27.8719   34.1962 C   0  0  0  0  0  0  0  0  0  0  0  0
   40.7178  -27.7052   35.2811 C   0  0  0  0  0  0  0  0  0  0  0  0
   41.7130  -26.7121   35.2642 O   0  0  0  0  0  0  0  0  0  0  0  0
   39.7102  -27.2337   33.0201 N   0  0  0  0  0  0  0  0  0  0  0  0
   38.7096  -27.7977   32.3663 C   0  0  0  0  0  0  0  0  0  0  0  0
   38.1893  -28.7741   33.0862 N   0  0  0  0  0  0  0  0  0  0  0  0
  1  5  1  1  0  0  0
  1 14  1  0  0  0  0
  1 19  2  0  0  0  0
  1 23  1  0  0  0  0
  2 15  1  1  0  0  0
  2 20  2  0  0  0  0
  2 23  1  0  0  0  0
  2 24  1  0  0  0  0
  3 16  1  6  0  0  0
  3 21  1  0  0  0  0
  3 24  1  0  0  0  0
  3 25  2  0  0  0  0
  4  5  1  0  0  0  0
  6  4  1  1  0  0  0
  6  7  1  0  0  0  0
  6  8  1  0  0  0  0
  7 12  1  0  0  0  0
  8  9  1  6  0  0  0
  8 10  1  0  0  0  0
 10 11  1  6  0  0  0
 10 12  1  0  0  0  0
 12 32  1  1  0  0  0
 13 17  2  0  0  0  0
 13 28  1  0  0  0  0
 17 18  1  0  0  0  0
 17 22  1  0  0  0  0
 22 26  2  0  0  0  0
 26 27  1  0  0  0  0
 26 32  1  0  0  0  0
 27 28  2  0  0  0  0
 27 30  1  0  0  0  0
 28 29  1  0  0  0  0
 30 31  2  0  0  0  0
 31 32  1  0  0  0  0
M  CHG  3  14  -1  15  -1  21  -1
M  END
>  <CHROM.1>
-167.10527947,-60.58112059,-52.22947952,-174.75844375,-177.53031000,179.91234725
179.56159809,-156.86061087,36.81701295,-26.08958670,31.85056998,1.90654388
-0.24703753,-0.66669315

>  <Name>
ligand

>  <RI>
0

>  <Rbt.Current_Directory>
/home/itssahil/PROJECTS/Mol_Feturizer/New_Systems/rnas/4Y1I

>  <Rbt.Executable>
rbdock ($Id: //depot/dev/client3/rdock/2013.1/src/exe/rbdock.cxx#4 $)

>  <Rbt.Library>
libRbt.so (2013.1, Build901 2013/11/27)

>  <Rbt.Parameter_File>
/export/apps/rDock/src/rDock_2013.1_src/data/scripts/dock_solv.prm

>  <Rbt.Receptor>
prm/blind_docking_80.prm

>  <SCORE>
-13.3545

>  <SCORE.INTER>
-7.53748

>  <SCORE.INTER.CONST>
1

>  <SCORE.INTER.POLAR>
0

>  <SCORE.INTER.ROT>
8

>  <SCORE.INTER.SOLV>
20.9133

>  <SCORE.INTER.VDW>
-20.9294

>  <SCORE.INTER.norm>
-0.235546

>  <SCORE.INTRA>
-5.81699

>  <SCORE.INTRA.DIHEDRAL>
-8.443

>  <SCORE.INTRA.DIHEDRAL.0>
10.9594

>  <SCORE.INTRA.POLAR>
0

>  <SCORE.INTRA.POLAR.0>
0

>  <SCORE.INTRA.REPUL>
0

>  <SCORE.INTRA.REPUL.0>
0

>  <SCORE.INTRA.SOLV>
-3.92702

>  <SCORE.INTRA.SOLV.lig_0>
-124.914

>  <SCORE.INTRA.VDW>
0.368024

>  <SCORE.INTRA.VDW.0>
-4.69801

>  <SCORE.INTRA.norm>
-0.181781

>  <SCORE.RESTR>
0

>  <SCORE.RESTR.CAVITY>
0

>  <SCORE.RESTR.norm>
0

>  <SCORE.SYSTEM>
0

>  <SCORE.SYSTEM.CONST>
0

>  <SCORE.SYSTEM.DIHEDRAL>
0

>  <SCORE.SYSTEM.SOLV>
0

>  <SCORE.SYSTEM.norm>
0

>  <SCORE.heavy>
32

>  <SCORE.norm>
-0.417327

>  <RMSD>
54.711

$$$$
ligand
 OpenBabel11021811513D
libRbt.so/2013.1/901 2013/11/27
 32 34  0  0  0  0  0  0  0  0999 V2000
   34.6288  -24.5531   30.5594 P   0  0  1  0  0  0  0  0  0  0  0  0
   35.0169  -22.4211   28.6792 P   0  0  2  0  0  0  0  0  0  0  0  0
   33.1251  -21.2584   26.7597 P   0  0  1  0  0  0  0  0  0  0  0  0
   35.6649  -24.5304   32.9505 C   0  0  0  0  0  0  0  0  0  0  0  0
   35.6369  -23.9154   31.6939 O   0  0  0  0  0  0  0  0  0  0  0  0
   36.5784  -23.8750   33.7684 C   0  0  1  0  0  0  0  0  0  0  0  0
   36.3712  -24.2919   35.2118 O   0  0  0  0  0  0  0  0  0  0  0  0
   38.0802  -24.2827   33.4070 C   0  0  1  0  0  0  0  0  0  0  0  0
   38.8174  -23.0717   32.8816 O   0  0  0  0  0  0  0  0  0  0  0  0
   38.6128  -24.6019   34.4727 C   0  0  1  0  0  0  0  0  0  0  0  0
   39.3672  -23.4449   35.0111 O   0  0  0  0  0  0  0  0  0  0  0  0
   37.3782  -25.0114   35.5129 C   0  0  2  0  0  0  0  0  0  0  0  0
   35.7129  -29.2228   37.9371 N   0  0  0  0  0  0  0  0  0  0  0  0
   35.3929  -25.5062   29.6739 O   0  5  0  0  0  0  0  0  0  0  0  0
   35.5839  -23.2628   27.5637 O   0  5  0  0  0  0  0  0  0  0  0  0
   33.8999  -21.8024   25.5824 O   0  0  0  0  0  0  0  0  0  0  0  0
   35.9179  -28.0159   38.4412 C   0  0  0  0  0  0  0  0  0  0  0  0
   35.6610  -27.7796   39.8476 N   0  0  0  0  0  0  0  0  0  0  0  0
   33.4925  -25.2609   31.2623 O   0  0  0  0  0  0  0  0  0  0  0  0
   36.1404  -21.8799   29.5239 O   0  0  0  0  0  0  0  0  0  0  0  0
   31.9835  -22.1989   27.0788 O   0  5  0  0  0  0  0  0  0  0  0  0
   36.3507  -27.0142   37.7031 N   0  0  0  0  0  0  0  0  0  0  0  0
   34.0396  -23.3285   29.6365 O   0  0  0  0  0  0  0  0  0  0  0  0
   34.1521  -21.1708   28.0508 O   0  0  0  0  0  0  0  0  0  0  0  0
   32.5935  -19.8860   26.4084 O   0  0  0  0  0  0  0  0  0  0  0  0
   36.6004  -27.1904   36.3999 C   0  0  0  0  0  0  0  0  0  0  0  0
   36.3954  -28.4393   35.8491 C   0  0  0  0  0  0  0  0  0  0  0  0
   35.9314  -29.4951   36.6572 C   0  0  0  0  0  0  0  0  0  0  0  0
   35.7127  -30.7778   36.1245 O   0  0  0  0  0  0  0  0  0  0  0  0
   36.7116  -28.3639   34.5450 N   0  0  0  0  0  0  0  0  0  0  0  0
   37.0958  -27.1233   34.3000 C   0  0  0  0  0  0  0  0  0  0  0  0
   37.0380  -26.4031   35.4047 N   0  0  0  0  0  0  0  0  0  0  0  0
  1  5  1  1  0  0  0
  1 14  1  0  0  0  0
  1 19  2  0  0  0  0
  1 23  1  0  0  0  0
  2 15  1  6  0  0  0
  2 20  2  0  0  0  0
  2 23  1  0  0  0  0
  2 24  1  0  0  0  0
  3 16  1  6  0  0  0
  3 21  1  0  0  0  0
  3 24  1  0  0  0  0
  3 25  2  0  0  0  0
  4  5  1  0  0  0  0
  6  4  1  6  0  0  0
  6  7  1  0  0  0  0
  6  8  1  0  0  0  0
  7 12  1  0  0  0  0
  8  9  1  1  0  0  0
  8 10  1  0  0  0  0
 10 11  1  1  0  0  0
 10 12  1  0  0  0  0
 12 32  1  6  0  0  0
 13 17  2  0  0  0  0
 13 28  1  0  0  0  0
 17 18  1  0  0  0  0
 17 22  1  0  0  0  0
 22 26  2  0  0  0  0
 26 27  1  0  0  0  0
 26 32  1  0  0  0  0
 27 28  2  0  0  0  0
 27 30  1  0  0  0  0
 28 29  1  0  0  0  0
 30 31  2  0  0  0  0
 31 32  1  0  0  0  0
M  CHG  3  14  -1  15  -1  21  -1
M  END
>  <CHROM.1>
-95.70736009,66.52548000,-56.42411852,165.76039701,179.18139621,-93.56235233
64.73244034,41.38410115,35.59229538,-24.62572770,32.16053778,1.88919672,-0.69289437
-0.80715137

>  <Name>
ligand

>  <RI>
0

>  <Rbt.Current_Directory>
/home/itssahil/PROJECTS/Mol_Feturizer/New_Systems/rnas/4Y1I

>  <Rbt.Executable>
rbdock ($Id: //depot/dev/client3/rdock/2013.1/src/exe/rbdock.cxx#4 $)

>  <Rbt.Library>
libRbt.so (2013.1, Build901 2013/11/27)

>  <Rbt.Parameter_File>
/export/apps/rDock/src/rDock_2013.1_src/data/scripts/dock_solv.prm

>  <Rbt.Receptor>
prm/blind_docking_100.prm

>  <SCORE>
-11.4487

>  <SCORE.INTER>
-6.21533

>  <SCORE.INTER.CONST>
1

>  <SCORE.INTER.POLAR>
0

>  <SCORE.INTER.ROT>
8

>  <SCORE.INTER.SOLV>
22.7601

>  <SCORE.INTER.VDW>
-20.6636

>  <SCORE.INTER.norm>
-0.194229

>  <SCORE.INTRA>
-5.23731

>  <SCORE.INTRA.DIHEDRAL>
-6.89822

>  <SCORE.INTRA.DIHEDRAL.0>
10.9594

>  <SCORE.INTRA.POLAR>
0

>  <SCORE.INTRA.POLAR.0>
0

>  <SCORE.INTRA.REPUL>
0

>  <SCORE.INTRA.REPUL.0>
0

>  <SCORE.INTRA.SOLV>
-4.70802

>  <SCORE.INTRA.SOLV.lig_0>
-124.914

>  <SCORE.INTRA.VDW>
0.565807

>  <SCORE.INTRA.VDW.0>
-4.69801

>  <SCORE.INTRA.norm>
-0.163666

>  <SCORE.RESTR>
0.00389098

>  <SCORE.RESTR.CAVITY>
0.00389098

>  <SCORE.RESTR.norm>
0.000121593

>  <SCORE.SYSTEM>
0

>  <SCORE.SYSTEM.CONST>
0

>  <SCORE.SYSTEM.DIHEDRAL>
0

>  <SCORE.SYSTEM.SOLV>
0

>  <SCORE.SYSTEM.norm>
0

>  <SCORE.heavy>
32

>  <SCORE.norm>
-0.357773

>  <RMSD>
54.765

$$$$
ligand
 OpenBabel11021811513D
libRbt.so/2013.1/901 2013/11/27
 32 34  0  0  0  0  0  0  0  0999 V2000
   36.9239  -28.2729   33.8931 P   0  0  1  0  0  0  0  0  0  0  0  0
   37.7183  -28.9916   36.5546 P   0  0  2  0  0  0  0  0  0  0  0  0
   37.6963  -26.1295   37.2052 P   0  0  1  0  0  0  0  0  0  0  0  0
   38.9518  -27.2348   32.6276 C   0  0  0  0  0  0  0  0  0  0  0  0
   38.0374  -27.0800   33.6754 O   0  0  0  0  0  0  0  0  0  0  0  0
   39.8532  -26.1762   32.6374 C   0  0  1  0  0  0  0  0  0  0  0  0
   40.6611  -26.1742   31.3540 O   0  0  0  0  0  0  0  0  0  0  0  0
   39.0978  -24.7692   32.6806 C   0  0  1  0  0  0  0  0  0  0  0  0
   39.4128  -24.0693   33.9833 O   0  0  0  0  0  0  0  0  0  0  0  0
   39.5866  -24.0917   31.7732 C   0  0  1  0  0  0  0  0  0  0  0  0
   40.6411  -23.2112   32.3306 O   0  0  0  0  0  0  0  0  0  0  0  0
   40.2548  -25.1659   30.6899 C   0  0  2  0  0  0  0  0  0  0  0  0
   38.0649  -24.1677   26.1520 N   0  0  0  0  0  0  0  0  0  0  0  0
   35.6512  -27.6885   34.4543 O   0  5  0  0  0  0  0  0  0  0  0  0
   38.5703  -30.0338   37.2344 O   0  5  0  0  0  0  0  0  0  0  0  0
   36.4742  -25.8995   36.3474 O   0  0  0  0  0  0  0  0  0  0  0  0
   38.9970  -23.4695   26.7817 C   0  0  0  0  0  0  0  0  0  0  0  0
   39.5117  -22.2593   26.1733 N   0  0  0  0  0  0  0  0  0  0  0  0
   36.6691  -28.9477   32.5642 O   0  0  0  0  0  0  0  0  0  0  0  0
   36.3584  -28.9517   37.2011 O   0  0  0  0  0  0  0  0  0  0  0  0
   37.2666  -26.2893   38.6473 O   0  5  0  0  0  0  0  0  0  0  0  0
   39.4768  -23.8395   27.9515 N   0  0  0  0  0  0  0  0  0  0  0  0
   37.5265  -29.3607   34.9666 O   0  0  0  0  0  0  0  0  0  0  0  0
   38.4314  -27.5151   36.6863 O   0  0  0  0  0  0  0  0  0  0  0  0
   38.6288  -24.9466   37.0622 O   0  0  0  0  0  0  0  0  0  0  0  0
   39.0282  -24.9508   28.5477 C   0  0  0  0  0  0  0  0  0  0  0  0
   38.0561  -25.6970   27.9128 C   0  0  0  0  0  0  0  0  0  0  0  0
   37.5585  -25.2825   26.6623 C   0  0  0  0  0  0  0  0  0  0  0  0
   36.5687  -26.0220   25.9912 O   0  0  0  0  0  0  0  0  0  0  0  0
   37.7750  -26.7498   28.6995 N   0  0  0  0  0  0  0  0  0  0  0  0
   38.5392  -26.6587   29.7739 C   0  0  0  0  0  0  0  0  0  0  0  0
   39.2981  -25.5811   29.7017 N   0  0  0  0  0  0  0  0  0  0  0  0
  1  5  1  6  0  0  0
  1 14  1  0  0  0  0
  1 19  2  0  0  0  0
  1 23  1  0  0  0  0
  2 15  1  1  0  0  0
  2 20  2  0  0  0  0
  2 23  1  0  0  0  0
  2 24  1  0  0  0  0
  3 16  1  6  0  0  0
  3 21  1  0  0  0  0
  3 24  1  0  0  0  0
  3 25  2  0  0  0  0
  4  5  1  0  0  0  0
  6  4  1  6  0  0  0
  6  7  1  0  0  0  0
  6  8  1  0  0  0  0
  7 12  1  0  0  0  0
  8  9  1  1  0  0  0
  8 10  1  0  0  0  0
 10 11  1  1  0  0  0
 10 12  1  0  0  0  0
 12 32  1  6  0  0  0
 13 17  2  0  0  0  0
 13 28  1  0  0  0  0
 17 18  1  0  0  0  0
 17 22  1  0  0  0  0
 22 26  2  0  0  0  0
 26 27  1  0  0  0  0
 26 32  1  0  0  0  0
 27 28  2  0  0  0  0
 27 30  1  0  0  0  0
 28 29  1  0  0  0  0
 30 31  2  0  0  0  0
 31 32  1  0  0  0  0
M  CHG  3  14  -1  15  -1  21  -1
M  END
>  <CHROM.1>
-149.09779105,-166.92949281,-55.17201830,-168.34065519,-176.90173972,-154.01095076
69.57456132,-130.05159153,38.22733233,-26.34878153,32.73302008,1.81384087
1.02967313,1.69609735

>  <Name>
ligand

>  <RI>
0

>  <Rbt.Current_Directory>
/home/itssahil/PROJECTS/Mol_Feturizer/New_Systems/rnas/4Y1I

>  <Rbt.Executable>
rbdock ($Id: //depot/dev/client3/rdock/2013.1/src/exe/rbdock.cxx#4 $)

>  <Rbt.Library>
libRbt.so (2013.1, Build901 2013/11/27)

>  <Rbt.Parameter_File>
/export/apps/rDock/src/rDock_2013.1_src/data/scripts/dock_solv.prm

>  <Rbt.Receptor>
prm/blind_docking_80.prm

>  <SCORE>
-9.67262

>  <SCORE.INTER>
-5.69963

>  <SCORE.INTER.CONST>
1

>  <SCORE.INTER.POLAR>
0

>  <SCORE.INTER.ROT>
8

>  <SCORE.INTER.SOLV>
11.5251

>  <SCORE.INTER.VDW>
-16.5748

>  <SCORE.INTER.norm>
-0.178113

>  <SCORE.INTRA>
-3.97299

>  <SCORE.INTRA.DIHEDRAL>
-5.18881

>  <SCORE.INTRA.DIHEDRAL.0>
10.9594

>  <SCORE.INTRA.POLAR>
0

>  <SCORE.INTRA.POLAR.0>
0

>  <SCORE.INTRA.REPUL>
0

>  <SCORE.INTRA.REPUL.0>
0

>  <SCORE.INTRA.SOLV>
-2.50904

>  <SCORE.INTRA.SOLV.lig_0>
-124.914

>  <SCORE.INTRA.VDW>
-0.124066

>  <SCORE.INTRA.VDW.0>
-4.69801

>  <SCORE.INTRA.norm>
-0.124156

>  <SCORE.RESTR>
0

>  <SCORE.RESTR.CAVITY>
0

>  <SCORE.RESTR.norm>
0

>  <SCORE.SYSTEM>
0

>  <SCORE.SYSTEM.CONST>
0

>  <SCORE.SYSTEM.DIHEDRAL>
0

>  <SCORE.SYSTEM.SOLV>
0

>  <SCORE.SYSTEM.norm>
0

>  <SCORE.heavy>
32

>  <SCORE.norm>
-0.302269

>  <RMSD>
54.829

$$$$
ligand
 OpenBabel11021811513D
libRbt.so/2013.1/901 2013/11/27
 32 34  0  0  0  0  0  0  0  0999 V2000
   34.3420  -24.5776   31.3713 P   0  0  1  0  0  0  0  0  0  0  0  0
   34.7419  -22.6999   29.2393 P   0  0  2  0  0  0  0  0  0  0  0  0
   37.4764  -21.6963   28.8782 P   0  0  1  0  0  0  0  0  0  0  0  0
   36.5775  -25.4949   32.3472 C   0  0  0  0  0  0  0  0  0  0  0  0
   35.8685  -24.3569   31.9469 O   0  0  0  0  0  0  0  0  0  0  0  0
   37.9317  -25.1918   32.4348 C   0  0  1  0  0  0  0  0  0  0  0  0
   38.1948  -24.3561   33.6727 O   0  0  0  0  0  0  0  0  0  0  0  0
   38.8139  -26.5128   32.6036 C   0  0  1  0  0  0  0  0  0  0  0  0
   39.6974  -26.6860   31.3888 O   0  0  0  0  0  0  0  0  0  0  0  0
   39.5541  -26.3076   33.5686 C   0  0  1  0  0  0  0  0  0  0  0  0
   40.8751  -25.8404   33.0842 O   0  0  0  0  0  0  0  0  0  0  0  0
   38.8260  -25.1162   34.4766 C   0  0  2  0  0  0  0  0  0  0  0  0
   35.4520  -28.8363   35.5548 N   0  0  0  0  0  0  0  0  0  0  0  0
   34.3150  -25.7586   30.4328 O   0  5  0  0  0  0  0  0  0  0  0  0
   34.2642  -21.3294   28.8294 O   0  5  0  0  0  0  0  0  0  0  0  0
   37.0929  -20.2514   29.0968 O   0  0  0  0  0  0  0  0  0  0  0  0
   36.1421  -28.6560   34.4395 C   0  0  0  0  0  0  0  0  0  0  0  0
   35.9755  -29.5869   33.3417 N   0  0  0  0  0  0  0  0  0  0  0  0
   33.4087  -24.7946   32.5409 O   0  0  0  0  0  0  0  0  0  0  0  0
   34.5274  -23.6687   28.1061 O   0  0  0  0  0  0  0  0  0  0  0  0
   38.8334  -21.9480   29.4986 O   0  5  0  0  0  0  0  0  0  0  0  0
   36.9819  -27.6518   34.2917 N   0  0  0  0  0  0  0  0  0  0  0  0
   33.8965  -23.2311   30.5423 O   0  0  0  0  0  0  0  0  0  0  0  0
   36.3420  -22.6434   29.6167 O   0  0  0  0  0  0  0  0  0  0  0  0
   37.5175  -21.9761   27.3918 O   0  0  0  0  0  0  0  0  0  0  0  0
   37.1648  -26.7693   35.2814 C   0  0  0  0  0  0  0  0  0  0  0  0
   36.4572  -26.9340   36.4549 C   0  0  0  0  0  0  0  0  0  0  0  0
   35.5655  -28.0154   36.5908 C   0  0  0  0  0  0  0  0  0  0  0  0
   34.8313  -28.2095   37.7741 O   0  0  0  0  0  0  0  0  0  0  0  0
   36.8085  -25.9358   37.2835 N   0  0  0  0  0  0  0  0  0  0  0  0
   37.6941  -25.1864   36.6502 C   0  0  0  0  0  0  0  0  0  0  0  0
   37.9191  -25.6708   35.4432 N   0  0  0  0  0  0  0  0  0  0  0  0
  1  5  1  1  0  0  0
  1 14  1  0  0  0  0
  1 19  2  0  0  0  0
  1 23  1  0  0  0  0
  2 15  1  6  0  0  0
  2 20  2  0  0  0  0
  2 23  1  0  0  0  0
  2 24  1  0  0  0  0
  3 16  1  1  0  0  0
  3 21  1  0  0  0  0
  3 24  1  0  0  0  0
  3 25  2  0  0  0  0
  4  5  1  0  0  0  0
  6  4  1  1  0  0  0
  6  7  1  0  0  0  0
  6  8  1  0  0  0  0
  7 12  1  0  0  0  0
  8  9  1  6  0  0  0
  8 10  1  0  0  0  0
 10 11  1  6  0  0  0
 10 12  1  0  0  0  0
 12 32  1  1  0  0  0
 13 17  2  0  0  0  0
 13 28  1  0  0  0  0
 17 18  1  0  0  0  0
 17 22  1  0  0  0  0
 22 26  2  0  0  0  0
 26 27  1  0  0  0  0
 26 32  1  0  0  0  0
 27 28  2  0  0  0  0
 27 30  1  0  0  0  0
 28 29  1  0  0  0  0
 30 31  2  0  0  0  0
 31 32  1  0  0  0  0
M  CHG  3  14  -1  15  -1  21  -1
M  END
>  <CHROM.1>
-43.47848591,-169.97362382,62.01457139,74.25394910,163.08631161,84.86865827
59.37741529,-35.18936555,36.54421391,-24.85636088,32.19539675,1.66132828
-0.11609436,-0.90068086

>  <Name>
ligand

>  <RI>
0

>  <Rbt.Current_Directory>
/home/itssahil/PROJECTS/Mol_Feturizer/New_Systems/rnas/4Y1I

>  <Rbt.Executable>
rbdock ($Id: //depot/dev/client3/rdock/2013.1/src/exe/rbdock.cxx#4 $)

>  <Rbt.Library>
libRbt.so (2013.1, Build901 2013/11/27)

>  <Rbt.Parameter_File>
/export/apps/rDock/src/rDock_2013.1_src/data/scripts/dock_solv.prm

>  <Rbt.Receptor>
prm/blind_docking_60.prm

>  <SCORE>
-10.6986

>  <SCORE.INTER>
-5.34429

>  <SCORE.INTER.CONST>
1

>  <SCORE.INTER.POLAR>
0

>  <SCORE.INTER.ROT>
8

>  <SCORE.INTER.SOLV>
18.9135

>  <SCORE.INTER.VDW>
-18.8007

>  <SCORE.INTER.norm>
-0.167009

>  <SCORE.INTRA>
-5.35433

>  <SCORE.INTRA.DIHEDRAL>
-6.1834

>  <SCORE.INTRA.DIHEDRAL.0>
10.9594

>  <SCORE.INTRA.POLAR>
0

>  <SCORE.INTRA.POLAR.0>
0

>  <SCORE.INTRA.REPUL>
0

>  <SCORE.INTRA.REPUL.0>
0

>  <SCORE.INTRA.SOLV>
-4.31902

>  <SCORE.INTRA.SOLV.lig_0>
-124.914

>  <SCORE.INTRA.VDW>
-0.103112

>  <SCORE.INTRA.VDW.0>
-4.69801

>  <SCORE.INTRA.norm>
-0.167323

>  <SCORE.RESTR>
0

>  <SCORE.RESTR.CAVITY>
0

>  <SCORE.RESTR.norm>
0

>  <SCORE.SYSTEM>
0

>  <SCORE.SYSTEM.CONST>
0

>  <SCORE.SYSTEM.DIHEDRAL>
0

>  <SCORE.SYSTEM.SOLV>
0

>  <SCORE.SYSTEM.norm>
0

>  <SCORE.heavy>
32

>  <SCORE.norm>
-0.334332

>  <RMSD>
54.869

$$$$
ligand
 OpenBabel11021811513D
libRbt.so/2013.1/901 2013/11/27
 32 34  0  0  0  0  0  0  0  0999 V2000
   34.6817  -28.3818   34.0950 P   0  0  1  0  0  0  0  0  0  0  0  0
   35.4812  -28.5853   36.8428 P   0  0  2  0  0  0  0  0  0  0  0  0
   35.4329  -29.0302   39.7437 P   0  0  1  0  0  0  0  0  0  0  0  0
   34.3923  -27.0239   31.8896 C   0  0  0  0  0  0  0  0  0  0  0  0
   34.0560  -27.1188   33.2446 O   0  0  0  0  0  0  0  0  0  0  0  0
   33.9265  -25.8176   31.3786 C   0  0  1  0  0  0  0  0  0  0  0  0
   34.5869  -24.6605   32.1033 O   0  0  0  0  0  0  0  0  0  0  0  0
   34.3166  -25.6487   29.8387 C   0  0  1  0  0  0  0  0  0  0  0  0
   33.0584  -25.6294   29.0005 O   0  0  0  0  0  0  0  0  0  0  0  0
   34.8399  -24.5362   29.7395 C   0  0  1  0  0  0  0  0  0  0  0  0
   33.8254  -23.5543   29.2873 O   0  0  0  0  0  0  0  0  0  0  0  0
   35.3842  -24.1336   31.2612 C   0  0  2  0  0  0  0  0  0  0  0  0
   39.9891  -25.1184   29.2094 N   0  0  0  0  0  0  0  0  0  0  0  0
   34.0012  -29.6635   33.6824 O   0  5  0  0  0  0  0  0  0  0  0  0
   36.6682  -27.6551   36.8497 O   0  5  0  0  0  0  0  0  0  0  0  0
   36.7169  -28.2541   39.9209 O   0  0  0  0  0  0  0  0  0  0  0  0
   38.9106  -24.6416   28.6077 C   0  0  0  0  0  0  0  0  0  0  0  0
   38.9624  -24.3359   27.1922 N   0  0  0  0  0  0  0  0  0  0  0  0
   36.1698  -28.4519   33.8360 O   0  0  0  0  0  0  0  0  0  0  0  0
   35.9396  -29.9857   36.5307 O   0  0  0  0  0  0  0  0  0  0  0  0
   34.4969  -28.7075   40.8880 O   0  5  0  0  0  0  0  0  0  0  0  0
   37.7827  -24.4336   29.2561 N   0  0  0  0  0  0  0  0  0  0  0  0
   34.4035  -28.1244   35.6935 O   0  0  0  0  0  0  0  0  0  0  0  0
   34.7471  -28.5641   38.3148 O   0  0  0  0  0  0  0  0  0  0  0  0
   35.7496  -30.5096   39.7244 O   0  0  0  0  0  0  0  0  0  0  0  0
   37.6928  -24.7031   30.5641 C   0  0  0  0  0  0  0  0  0  0  0  0
   38.8027  -25.2016   31.2156 C   0  0  0  0  0  0  0  0  0  0  0  0
   39.9980  -25.4152   30.5024 C   0  0  0  0  0  0  0  0  0  0  0  0
   41.1451  -25.9213   31.1388 O   0  0  0  0  0  0  0  0  0  0  0  0
   38.4667  -25.3887   32.5034 N   0  0  0  0  0  0  0  0  0  0  0  0
   37.2044  -25.0226   32.6423 C   0  0  0  0  0  0  0  0  0  0  0  0
   36.7211  -24.6096   31.4855 N   0  0  0  0  0  0  0  0  0  0  0  0
  1  5  1  6  0  0  0
  1 14  1  0  0  0  0
  1 19  2  0  0  0  0
  1 23  1  0  0  0  0
  2 15  1  1  0  0  0
  2 20  2  0  0  0  0
  2 23  1  0  0  0  0
  2 24  1  0  0  0  0
  3 16  1  1  0  0  0
  3 21  1  0  0  0  0
  3 24  1  0  0  0  0
  3 25  2  0  0  0  0
  4  5  1  0  0  0  0
  6  4  1  1  0  0  0
  6  7  1  0  0  0  0
  6  8  1  0  0  0  0
  7 12  1  0  0  0  0
  8  9  1  6  0  0  0
  8 10  1  0  0  0  0
 10 11  1  1  0  0  0
 10 12  1  0  0  0  0
 12 32  1  1  0  0  0
 13 17  2  0  0  0  0
 13 28  1  0  0  0  0
 17 18  1  0  0  0  0
 17 22  1  0  0  0  0
 22 26  2  0  0  0  0
 26 27  1  0  0  0  0
 26 32  1  0  0  0  0
 27 28  2  0  0  0  0
 27 30  1  0  0  0  0
 28 29  1  0  0  0  0
 30 31  2  0  0  0  0
 31 32  1  0  0  0  0
M  CHG  3  14  -1  15  -1  21  -1
M  END
>  <CHROM.1>
-72.20884529,74.38900355,54.42372638,61.70153755,-172.25640017,153.01394494
-144.85592912,-62.26062287,36.02809240,-26.83935545,33.61883669,1.75113675
0.09924424,1.99692135

>  <Name>
ligand

>  <RI>
0

>  <Rbt.Current_Directory>
/home/itssahil/PROJECTS/Mol_Feturizer/New_Systems/rnas/4Y1I

>  <Rbt.Executable>
rbdock ($Id: //depot/dev/client3/rdock/2013.1/src/exe/rbdock.cxx#4 $)

>  <Rbt.Library>
libRbt.so (2013.1, Build901 2013/11/27)

>  <Rbt.Parameter_File>
/export/apps/rDock/src/rDock_2013.1_src/data/scripts/dock_solv.prm

>  <Rbt.Receptor>
prm/blind_docking_80.prm

>  <SCORE>
-14.4393

>  <SCORE.INTER>
-9.56739

>  <SCORE.INTER.CONST>
1

>  <SCORE.INTER.POLAR>
0

>  <SCORE.INTER.ROT>
8

>  <SCORE.INTER.SOLV>
19.1141

>  <SCORE.INTER.VDW>
-21.683

>  <SCORE.INTER.norm>
-0.298981

>  <SCORE.INTRA>
-4.87669

>  <SCORE.INTRA.DIHEDRAL>
-7.33573

>  <SCORE.INTRA.DIHEDRAL.0>
10.9594

>  <SCORE.INTRA.POLAR>
0

>  <SCORE.INTRA.POLAR.0>
0

>  <SCORE.INTRA.REPUL>
0

>  <SCORE.INTRA.REPUL.0>
0

>  <SCORE.INTRA.SOLV>
-2.98126

>  <SCORE.INTRA.SOLV.lig_0>
-124.914

>  <SCORE.INTRA.VDW>
0.2818

>  <SCORE.INTRA.VDW.0>
-4.69801

>  <SCORE.INTRA.norm>
-0.152397

>  <SCORE.RESTR>
0.00480671

>  <SCORE.RESTR.CAVITY>
0.00480671

>  <SCORE.RESTR.norm>
0.00015021

>  <SCORE.SYSTEM>
0

>  <SCORE.SYSTEM.CONST>
0

>  <SCORE.SYSTEM.DIHEDRAL>
0

>  <SCORE.SYSTEM.SOLV>
0

>  <SCORE.SYSTEM.norm>
0

>  <SCORE.heavy>
32

>  <SCORE.norm>
-0.451227

>  <RMSD>
54.930

$$$$
ligand
 OpenBabel11021811513D
libRbt.so/2013.1/901 2013/11/27
 32 34  0  0  0  0  0  0  0  0999 V2000
   33.9918  -25.0294   32.1427 P   0  0  1  0  0  0  0  0  0  0  0  0
   34.8769  -24.0955   29.5785 P   0  0  2  0  0  0  0  0  0  0  0  0
   35.2153  -22.3418   27.2493 P   0  0  1  0  0  0  0  0  0  0  0  0
   34.1626  -27.4853   32.9976 C   0  0  0  0  0  0  0  0  0  0  0  0
   34.4715  -26.5940   31.9641 O   0  0  0  0  0  0  0  0  0  0  0  0
   34.9470  -28.6269   32.8767 C   0  0  1  0  0  0  0  0  0  0  0  0
   36.4147  -28.2456   32.8596 O   0  0  0  0  0  0  0  0  0  0  0  0
   34.7618  -29.5959   34.1333 C   0  0  1  0  0  0  0  0  0  0  0  0
   34.1284  -30.8918   33.6798 O   0  0  0  0  0  0  0  0  0  0  0  0
   35.8992  -29.8628   34.5287 C   0  0  1  0  0  0  0  0  0  0  0  0
   36.3249  -31.1638   33.9594 O   0  0  0  0  0  0  0  0  0  0  0  0
   36.8899  -28.6453   33.9717 C   0  0  2  0  0  0  0  0  0  0  0  0
   36.2096  -27.0875   38.8189 N   0  0  0  0  0  0  0  0  0  0  0  0
   32.7320  -24.9720   32.9709 O   0  5  0  0  0  0  0  0  0  0  0  0
   35.3725  -25.3800   28.9630 O   0  5  0  0  0  0  0  0  0  0  0  0
   36.2381  -21.4799   27.9517 O   0  0  0  0  0  0  0  0  0  0  0  0
   36.0204  -28.2967   38.3141 C   0  0  0  0  0  0  0  0  0  0  0  0
   35.5645  -29.3654   39.1799 N   0  0  0  0  0  0  0  0  0  0  0  0
   35.1083  -24.2514   32.8019 O   0  0  0  0  0  0  0  0  0  0  0  0
   36.0068  -23.4166   30.3074 O   0  0  0  0  0  0  0  0  0  0  0  0
   35.9321  -23.3747   26.4073 O   0  5  0  0  0  0  0  0  0  0  0  0
   36.2340  -28.5644   37.0420 N   0  0  0  0  0  0  0  0  0  0  0  0
   33.6777  -24.4061   30.6556 O   0  0  0  0  0  0  0  0  0  0  0  0
   34.3052  -23.0974   28.4025 O   0  0  0  0  0  0  0  0  0  0  0  0
   34.3460  -21.4631   26.3765 O   0  0  0  0  0  0  0  0  0  0  0  0
   36.6553  -27.6055   36.2086 C   0  0  0  0  0  0  0  0  0  0  0  0
   36.8600  -26.3356   36.7091 C   0  0  0  0  0  0  0  0  0  0  0  0
   36.6260  -26.0728   38.0727 C   0  0  0  0  0  0  0  0  0  0  0  0
   36.8262  -24.7896   38.6115 O   0  0  0  0  0  0  0  0  0  0  0  0
   37.2760  -25.5614   35.6924 N   0  0  0  0  0  0  0  0  0  0  0  0
   37.3260  -26.3188   34.6104 C   0  0  0  0  0  0  0  0  0  0  0  0
   36.9535  -27.5513   34.9009 N   0  0  0  0  0  0  0  0  0  0  0  0
  1  5  1  6  0  0  0
  1 14  1  0  0  0  0
  1 19  2  0  0  0  0
  1 23  1  0  0  0  0
  2 15  1  6  0  0  0
  2 20  2  0  0  0  0
  2 23  1  0  0  0  0
  2 24  1  0  0  0  0
  3 16  1  1  0  0  0
  3 21  1  0  0  0  0
  3 24  1  0  0  0  0
  3 25  2  0  0  0  0
  4  5  1  0  0  0  0
  6  4  1  1  0  0  0
  6  7  1  0  0  0  0
  6  8  1  0  0  0  0
  7 12  1  0  0  0  0
  8  9  1  6  0  0  0
  8 10  1  0  0  0  0
 10 11  1  6  0  0  0
 10 12  1  0  0  0  0
 12 32  1  1  0  0  0
 13 17  2  0  0  0  0
 13 28  1  0  0  0  0
 17 18  1  0  0  0  0
 17 22  1  0  0  0  0
 22 26  2  0  0  0  0
 26 27  1  0  0  0  0
 26 32  1  0  0  0  0
 27 28  2  0  0  0  0
 27 30  1  0  0  0  0
 28 29  1  0  0  0  0
 30 31  2  0  0  0  0
 31 32  1  0  0  0  0
M  CHG  3  14  -1  15  -1  21  -1
M  END
>  <CHROM.1>
-30.16845817,75.55942075,-58.53839306,55.96878988,-163.06967286,139.67160325
-70.31477420,-68.88244211,35.44020146,-25.97293933,32.67610643,-2.05781023
1.33191685,2.59802799

>  <Name>
ligand

>  <RI>
0

>  <Rbt.Current_Directory>
/home/itssahil/PROJECTS/Mol_Feturizer/New_Systems/rnas/4Y1I

>  <Rbt.Executable>
rbdock ($Id: //depot/dev/client3/rdock/2013.1/src/exe/rbdock.cxx#4 $)

>  <Rbt.Library>
libRbt.so (2013.1, Build901 2013/11/27)

>  <Rbt.Parameter_File>
/export/apps/rDock/src/rDock_2013.1_src/data/scripts/dock_solv.prm

>  <Rbt.Receptor>
prm/blind_docking_100.prm

>  <SCORE>
-10.9259

>  <SCORE.INTER>
-6.30303

>  <SCORE.INTER.CONST>
1

>  <SCORE.INTER.POLAR>
0

>  <SCORE.INTER.ROT>
8

>  <SCORE.INTER.SOLV>
20.0415

>  <SCORE.INTER.VDW>
-19.8159

>  <SCORE.INTER.norm>
-0.19697

>  <SCORE.INTRA>
-4.62291

>  <SCORE.INTRA.DIHEDRAL>
-6.41727

>  <SCORE.INTRA.DIHEDRAL.0>
10.9594

>  <SCORE.INTRA.POLAR>
0

>  <SCORE.INTRA.POLAR.0>
0

>  <SCORE.INTRA.REPUL>
0

>  <SCORE.INTRA.REPUL.0>
0

>  <SCORE.INTRA.SOLV>
-3.43309

>  <SCORE.INTRA.SOLV.lig_0>
-124.914

>  <SCORE.INTRA.VDW>
0.302269

>  <SCORE.INTRA.VDW.0>
-4.69801

>  <SCORE.INTRA.norm>
-0.144466

>  <SCORE.RESTR>
0

>  <SCORE.RESTR.CAVITY>
0

>  <SCORE.RESTR.norm>
0

>  <SCORE.SYSTEM>
0

>  <SCORE.SYSTEM.CONST>
0

>  <SCORE.SYSTEM.DIHEDRAL>
0

>  <SCORE.SYSTEM.SOLV>
0

>  <SCORE.SYSTEM.norm>
0

>  <SCORE.heavy>
32

>  <SCORE.norm>
-0.341436

>  <RMSD>
55.055

$$$$
ligand
 OpenBabel11021811513D
libRbt.so/2013.1/901 2013/11/27
 32 34  0  0  0  0  0  0  0  0999 V2000
   39.4918  -26.1771   34.7032 P   0  0  1  0  0  0  0  0  0  0  0  0
   39.6523  -28.5707   36.2767 P   0  0  2  0  0  0  0  0  0  0  0  0
   37.1904  -29.9583   37.0697 P   0  0  1  0  0  0  0  0  0  0  0  0
   37.4919  -27.6330   33.8833 C   0  0  0  0  0  0  0  0  0  0  0  0
   37.8793  -26.4890   34.5899 O   0  0  0  0  0  0  0  0  0  0  0  0
   36.1096  -27.6405   33.7331 C   0  0  1  0  0  0  0  0  0  0  0  0
   35.6812  -26.4932   32.8386 O   0  0  0  0  0  0  0  0  0  0  0  0
   35.6106  -28.9721   33.0053 C   0  0  1  0  0  0  0  0  0  0  0  0
   34.7606  -29.7789   33.9607 O   0  0  0  0  0  0  0  0  0  0  0  0
   34.8774  -28.6033   32.0846 C   0  0  1  0  0  0  0  0  0  0  0  0
   33.4638  -28.6656   32.5269 O   0  0  0  0  0  0  0  0  0  0  0  0
   35.3001  -27.0281   31.7471 C   0  0  2  0  0  0  0  0  0  0  0  0
   36.9407  -24.9831   27.3299 N   0  0  0  0  0  0  0  0  0  0  0  0
   40.1896  -26.6272   33.4436 O   0  5  0  0  0  0  0  0  0  0  0  0
   40.4620  -29.1363   37.4163 O   0  5  0  0  0  0  0  0  0  0  0  0
   35.7210  -29.6301   36.9447 O   0  0  0  0  0  0  0  0  0  0  0  0
   35.7932  -24.7685   27.9543 C   0  0  0  0  0  0  0  0  0  0  0  0
   34.8297  -23.8531   27.3769 N   0  0  0  0  0  0  0  0  0  0  0  0
   39.6849  -24.6944   34.9283 O   0  0  0  0  0  0  0  0  0  0  0  0
   39.8944  -29.3850   35.0330 O   0  0  0  0  0  0  0  0  0  0  0  0
   37.5274  -31.0903   36.1238 O   0  5  0  0  0  0  0  0  0  0  0  0
   35.4942  -25.3628   29.0914 N   0  0  0  0  0  0  0  0  0  0  0  0
   40.0988  -27.0199   35.9759 O   0  0  0  0  0  0  0  0  0  0  0  0
   38.0520  -28.6110   36.6554 O   0  0  0  0  0  0  0  0  0  0  0  0
   37.4859  -30.3607   38.4980 O   0  0  0  0  0  0  0  0  0  0  0  0
   36.3563  -26.2156   29.6580 C   0  0  0  0  0  0  0  0  0  0  0  0
   37.5600  -26.4576   29.0274 C   0  0  0  0  0  0  0  0  0  0  0  0
   37.8585  -25.8103   27.8130 C   0  0  0  0  0  0  0  0  0  0  0  0
   39.0764  -26.0362   27.1477 O   0  0  0  0  0  0  0  0  0  0  0  0
   38.2429  -27.3363   29.7810 N   0  0  0  0  0  0  0  0  0  0  0  0
   37.4945  -27.6256   30.8312 C   0  0  0  0  0  0  0  0  0  0  0  0
   36.3545  -26.9628   30.7732 N   0  0  0  0  0  0  0  0  0  0  0  0
  1  5  1  6  0  0  0
  1 14  1  0  0  0  0
  1 19  2  0  0  0  0
  1 23  1  0  0  0  0
  2 15  1  1  0  0  0
  2 20  2  0  0  0  0
  2 23  1  0  0  0  0
  2 24  1  0  0  0  0
  3 16  1  6  0  0  0
  3 21  1  0  0  0  0
  3 24  1  0  0  0  0
  3 25  2  0  0  0  0
  4  5  1  0  0  0  0
  6  4  1  6  0  0  0
  6  7  1  0  0  0  0
  6  8  1  0  0  0  0
  7 12  1  0  0  0  0
  8  9  1  1  0  0  0
  8 10  1  0  0  0  0
 10 11  1  1  0  0  0
 10 12  1  0  0  0  0
 12 32  1  6  0  0  0
 13 17  2  0  0  0  0
 13 28  1  0  0  0  0
 17 18  1  0  0  0  0
 17 22  1  0  0  0  0
 22 26  2  0  0  0  0
 26 27  1  0  0  0  0
 26 32  1  0  0  0  0
 27 28  2  0  0  0  0
 27 30  1  0  0  0  0
 28 29  1  0  0  0  0
 30 31  2  0  0  0  0
 31 32  1  0  0  0  0
M  CHG  3  14  -1  15  -1  21  -1
M  END
>  <CHROM.1>
33.81874727,174.40999127,-163.87045229,66.30203664,-171.92934940,-111.32472097
41.89438711,-57.15065828,37.46991222,-27.57418478,33.25994580,-1.35345241
-0.40762201,-1.08176642

>  <Name>
ligand

>  <RI>
0

>  <Rbt.Current_Directory>
/home/itssahil/PROJECTS/Mol_Feturizer/New_Systems/rnas/4Y1I

>  <Rbt.Executable>
rbdock ($Id: //depot/dev/client3/rdock/2013.1/src/exe/rbdock.cxx#4 $)

>  <Rbt.Library>
libRbt.so (2013.1, Build901 2013/11/27)

>  <Rbt.Parameter_File>
/export/apps/rDock/src/rDock_2013.1_src/data/scripts/dock_solv.prm

>  <Rbt.Receptor>
prm/blind_docking_80.prm

>  <SCORE>
-9.87589

>  <SCORE.INTER>
-4.62846

>  <SCORE.INTER.CONST>
1

>  <SCORE.INTER.POLAR>
0

>  <SCORE.INTER.ROT>
8

>  <SCORE.INTER.SOLV>
14.4676

>  <SCORE.INTER.VDW>
-16.8415

>  <SCORE.INTER.norm>
-0.144639

>  <SCORE.INTRA>
-5.24743

>  <SCORE.INTRA.DIHEDRAL>
-7.40545

>  <SCORE.INTRA.DIHEDRAL.0>
10.9594

>  <SCORE.INTRA.POLAR>
0

>  <SCORE.INTRA.POLAR.0>
0

>  <SCORE.INTRA.REPUL>
0

>  <SCORE.INTRA.REPUL.0>
0

>  <SCORE.INTRA.SOLV>
-1.01685

>  <SCORE.INTRA.SOLV.lig_0>
-124.914

>  <SCORE.INTRA.VDW>
-1.03629

>  <SCORE.INTRA.VDW.0>
-4.69801

>  <SCORE.INTRA.norm>
-0.163982

>  <SCORE.RESTR>
0

>  <SCORE.RESTR.CAVITY>
0

>  <SCORE.RESTR.norm>
0

>  <SCORE.SYSTEM>
0

>  <SCORE.SYSTEM.CONST>
0

>  <SCORE.SYSTEM.DIHEDRAL>
0

>  <SCORE.SYSTEM.SOLV>
0

>  <SCORE.SYSTEM.norm>
0

>  <SCORE.heavy>
32

>  <SCORE.norm>
-0.308622

>  <RMSD>
55.064

$$$$
ligand
 OpenBabel11021811513D
libRbt.so/2013.1/901 2013/11/27
 32 34  0  0  0  0  0  0  0  0999 V2000
   39.3989  -25.2535   32.9355 P   0  0  1  0  0  0  0  0  0  0  0  0
   40.1041  -26.6441   35.3438 P   0  0  2  0  0  0  0  0  0  0  0  0
   40.4118  -29.0992   36.9227 P   0  0  1  0  0  0  0  0  0  0  0  0
   39.0757  -24.4843   30.4666 C   0  0  0  0  0  0  0  0  0  0  0  0
   39.7868  -25.3179   31.3369 O   0  0  0  0  0  0  0  0  0  0  0  0
   39.0473  -25.0529   29.1981 C   0  0  1  0  0  0  0  0  0  0  0  0
   38.6843  -26.5219   29.2987 O   0  0  0  0  0  0  0  0  0  0  0  0
   37.9183  -24.3851   28.2862 C   0  0  1  0  0  0  0  0  0  0  0  0
   38.5695  -23.6613   27.1294 O   0  0  0  0  0  0  0  0  0  0  0  0
   37.2654  -25.3186   27.8134 C   0  0  1  0  0  0  0  0  0  0  0  0
   37.7667  -25.6298   26.4534 O   0  0  0  0  0  0  0  0  0  0  0  0
   37.5073  -26.6218   28.8221 C   0  0  2  0  0  0  0  0  0  0  0  0
   36.1303  -28.7105   33.3083 N   0  0  0  0  0  0  0  0  0  0  0  0
   39.8382  -23.9319   33.5156 O   0  5  0  0  0  0  0  0  0  0  0  0
   38.6645  -26.7324   35.7845 O   0  5  0  0  0  0  0  0  0  0  0  0
   41.3726  -29.0260   38.0863 O   0  0  0  0  0  0  0  0  0  0  0  0
   37.1909  -28.9903   32.5670 C   0  0  0  0  0  0  0  0  0  0  0  0
   38.1251  -30.0030   33.0156 N   0  0  0  0  0  0  0  0  0  0  0  0
   37.9052  -25.4380   33.0805 O   0  0  0  0  0  0  0  0  0  0  0  0
   40.7569  -25.4501   35.9895 O   0  0  0  0  0  0  0  0  0  0  0  0
   39.0232  -28.7382   37.4034 O   0  5  0  0  0  0  0  0  0  0  0  0
   37.4287  -28.3751   31.4265 N   0  0  0  0  0  0  0  0  0  0  0  0
   40.1905  -26.4640   33.7145 O   0  0  0  0  0  0  0  0  0  0  0  0
   40.9067  -28.0114   35.7821 O   0  0  0  0  0  0  0  0  0  0  0  0
   40.4250  -30.5037   36.3599 O   0  0  0  0  0  0  0  0  0  0  0  0
   36.5906  -27.4336   30.9762 C   0  0  0  0  0  0  0  0  0  0  0  0
   35.4766  -27.1230   31.7297 C   0  0  0  0  0  0  0  0  0  0  0  0
   35.2432  -27.7931   32.9461 C   0  0  0  0  0  0  0  0  0  0  0  0
   34.1177  -27.4980   33.7355 O   0  0  0  0  0  0  0  0  0  0  0  0
   34.8008  -26.1621   31.0769 N   0  0  0  0  0  0  0  0  0  0  0  0
   35.4670  -25.8906   29.9682 C   0  0  0  0  0  0  0  0  0  0  0  0
   36.5454  -26.6476   29.8890 N   0  0  0  0  0  0  0  0  0  0  0  0
  1  5  1  6  0  0  0
  1 14  1  0  0  0  0
  1 19  2  0  0  0  0
  1 23  1  0  0  0  0
  2 15  1  1  0  0  0
  2 20  2  0  0  0  0
  2 23  1  0  0  0  0
  2 24  1  0  0  0  0
  3 16  1  1  0  0  0
  3 21  1  0  0  0  0
  3 24  1  0  0  0  0
  3 25  2  0  0  0  0
  4  5  1  0  0  0  0
  6  4  1  1  0  0  0
  6  7  1  0  0  0  0
  6  8  1  0  0  0  0
  7 12  1  0  0  0  0
  8  9  1  6  0  0  0
  8 10  1  0  0  0  0
 10 11  1  6  0  0  0
 10 12  1  0  0  0  0
 12 32  1  1  0  0  0
 13 17  2  0  0  0  0
 13 28  1  0  0  0  0
 17 18  1  0  0  0  0
 17 22  1  0  0  0  0
 22 26  2  0  0  0  0
 26 27  1  0  0  0  0
 26 32  1  0  0  0  0
 27 28  2  0  0  0  0
 27 30  1  0  0  0  0
 28 29  1  0  0  0  0
 30 31  2  0  0  0  0
 31 32  1  0  0  0  0
M  CHG  3  14  -1  15  -1  21  -1
M  END
>  <CHROM.1>
-69.60572207,54.72454658,-112.43400632,46.46607668,-152.67723311,-49.79550937
176.34587525,-18.18739457,38.45388986,-26.79069155,32.69727181,-1.94234161
0.53739163,2.12263694

>  <Name>
ligand

>  <RI>
0

>  <Rbt.Current_Directory>
/home/itssahil/PROJECTS/Mol_Feturizer/New_Systems/rnas/4Y1I

>  <Rbt.Executable>
rbdock ($Id: //depot/dev/client3/rdock/2013.1/src/exe/rbdock.cxx#4 $)

>  <Rbt.Library>
libRbt.so (2013.1, Build901 2013/11/27)

>  <Rbt.Parameter_File>
/export/apps/rDock/src/rDock_2013.1_src/data/scripts/dock_solv.prm

>  <Rbt.Receptor>
prm/blind_docking_80.prm

>  <SCORE>
-9.98106

>  <SCORE.INTER>
-8.63497

>  <SCORE.INTER.CONST>
1

>  <SCORE.INTER.POLAR>
0

>  <SCORE.INTER.ROT>
8

>  <SCORE.INTER.SOLV>
21.0353

>  <SCORE.INTER.VDW>
-21.7017

>  <SCORE.INTER.norm>
-0.269843

>  <SCORE.INTRA>
-1.34609

>  <SCORE.INTRA.DIHEDRAL>
-1.63348

>  <SCORE.INTRA.DIHEDRAL.0>
10.9594

>  <SCORE.INTRA.POLAR>
0

>  <SCORE.INTRA.POLAR.0>
0

>  <SCORE.INTRA.REPUL>
0

>  <SCORE.INTRA.REPUL.0>
0

>  <SCORE.INTRA.SOLV>
1.11578

>  <SCORE.INTRA.SOLV.lig_0>
-124.914

>  <SCORE.INTRA.VDW>
-1.08724

>  <SCORE.INTRA.VDW.0>
-4.69801

>  <SCORE.INTRA.norm>
-0.0420652

>  <SCORE.RESTR>
0

>  <SCORE.RESTR.CAVITY>
0

>  <SCORE.RESTR.norm>
0

>  <SCORE.SYSTEM>
0

>  <SCORE.SYSTEM.CONST>
0

>  <SCORE.SYSTEM.DIHEDRAL>
0

>  <SCORE.SYSTEM.SOLV>
0

>  <SCORE.SYSTEM.norm>
0

>  <SCORE.heavy>
32

>  <SCORE.norm>
-0.311908

>  <RMSD>
55.066

$$$$
ligand
 OpenBabel11021811513D
libRbt.so/2013.1/901 2013/11/27
 32 34  0  0  0  0  0  0  0  0999 V2000
   34.8093  -25.6274   30.7727 P   0  0  1  0  0  0  0  0  0  0  0  0
   36.0420  -23.6911   29.0515 P   0  0  2  0  0  0  0  0  0  0  0  0
   38.3815  -25.2494   28.2068 P   0  0  1  0  0  0  0  0  0  0  0  0
   34.2611  -27.2444   32.7415 C   0  0  0  0  0  0  0  0  0  0  0  0
   34.8539  -26.0334   32.3675 O   0  0  0  0  0  0  0  0  0  0  0  0
   35.1513  -28.2877   32.5129 C   0  0  1  0  0  0  0  0  0  0  0  0
   36.5737  -27.8109   32.7354 O   0  0  0  0  0  0  0  0  0  0  0  0
   34.9243  -29.4835   33.5476 C   0  0  1  0  0  0  0  0  0  0  0  0
   34.4576  -30.7127   32.8008 O   0  0  0  0  0  0  0  0  0  0  0  0
   36.0342  -29.7412   34.0198 C   0  0  1  0  0  0  0  0  0  0  0  0
   36.6291  -30.8818   33.2829 O   0  0  0  0  0  0  0  0  0  0  0  0
   36.9656  -28.3770   33.8070 C   0  0  2  0  0  0  0  0  0  0  0  0
   36.2250  -27.8683   38.8645 N   0  0  0  0  0  0  0  0  0  0  0  0
   35.1539  -26.8297   29.9290 O   0  5  0  0  0  0  0  0  0  0  0  0
   36.7688  -22.3789   29.2070 O   0  5  0  0  0  0  0  0  0  0  0  0
   39.1418  -24.2805   29.0818 O   0  0  0  0  0  0  0  0  0  0  0  0
   36.2803  -28.9841   38.1540 C   0  0  0  0  0  0  0  0  0  0  0  0
   36.1201  -30.2605   38.8208 N   0  0  0  0  0  0  0  0  0  0  0  0
   33.4269  -25.1123   30.4412 O   0  0  0  0  0  0  0  0  0  0  0  0
   34.6506  -23.4387   28.5327 O   0  0  0  0  0  0  0  0  0  0  0  0
   38.3166  -26.5944   28.8970 O   0  5  0  0  0  0  0  0  0  0  0  0
   36.4776  -28.9743   36.8515 N   0  0  0  0  0  0  0  0  0  0  0  0
   35.9243  -24.4518   30.5014 O   0  0  0  0  0  0  0  0  0  0  0  0
   36.8537  -24.6571   27.9961 O   0  0  0  0  0  0  0  0  0  0  0  0
   39.0920  -25.3744   26.8767 O   0  0  0  0  0  0  0  0  0  0  0  0
   36.6301  -27.8166   36.1973 C   0  0  0  0  0  0  0  0  0  0  0  0
   36.5763  -26.6384   36.9142 C   0  0  0  0  0  0  0  0  0  0  0  0
   36.3652  -26.6731   38.3061 C   0  0  0  0  0  0  0  0  0  0  0  0
   36.3061  -25.4898   39.0632 O   0  0  0  0  0  0  0  0  0  0  0  0
   36.7545  -25.6276   36.0467 N   0  0  0  0  0  0  0  0  0  0  0  0
   36.9111  -26.1570   34.8459 C   0  0  0  0  0  0  0  0  0  0  0  0
   36.8367  -27.4729   34.9162 N   0  0  0  0  0  0  0  0  0  0  0  0
  1  5  1  1  0  0  0
  1 14  1  0  0  0  0
  1 19  2  0  0  0  0
  1 23  1  0  0  0  0
  2 15  1  1  0  0  0
  2 20  2  0  0  0  0
  2 23  1  0  0  0  0
  2 24  1  0  0  0  0
  3 16  1  1  0  0  0
  3 21  1  0  0  0  0
  3 24  1  0  0  0  0
  3 25  2  0  0  0  0
  4  5  1  0  0  0  0
  6  4  1  1  0  0  0
  6  7  1  0  0  0  0
  6  8  1  0  0  0  0
  7 12  1  0  0  0  0
  8  9  1  6  0  0  0
  8 10  1  0  0  0  0
 10 11  1  6  0  0  0
 10 12  1  0  0  0  0
 12 32  1  1  0  0  0
 13 17  2  0  0  0  0
 13 28  1  0  0  0  0
 17 18  1  0  0  0  0
 17 22  1  0  0  0  0
 22 26  2  0  0  0  0
 26 27  1  0  0  0  0
 26 32  1  0  0  0  0
 27 28  2  0  0  0  0
 27 30  1  0  0  0  0
 28 29  1  0  0  0  0
 30 31  2  0  0  0  0
 31 32  1  0  0  0  0
M  CHG  3  14  -1  15  -1  21  -1
M  END
>  <CHROM.1>
-44.08579306,160.15882867,-28.01729657,32.90171438,82.38251415,151.58910086
-173.22925162,63.08255959,36.26337416,-26.55523783,32.44838357,-0.87702491
1.45416925,1.29946180

>  <Name>
ligand

>  <RI>
0

>  <Rbt.Current_Directory>
/home/itssahil/PROJECTS/Mol_Feturizer/New_Systems/rnas/4Y1I

>  <Rbt.Executable>
rbdock ($Id: //depot/dev/client3/rdock/2013.1/src/exe/rbdock.cxx#4 $)

>  <Rbt.Library>
libRbt.so (2013.1, Build901 2013/11/27)

>  <Rbt.Parameter_File>
/export/apps/rDock/src/rDock_2013.1_src/data/scripts/dock_solv.prm

>  <Rbt.Receptor>
prm/blind_docking_100.prm

>  <SCORE>
-4.67153

>  <SCORE.INTER>
-2.6262

>  <SCORE.INTER.CONST>
1

>  <SCORE.INTER.POLAR>
0

>  <SCORE.INTER.ROT>
8

>  <SCORE.INTER.SOLV>
17.9102

>  <SCORE.INTER.VDW>
-16.6542

>  <SCORE.INTER.norm>
-0.0820686

>  <SCORE.INTRA>
-2.04533

>  <SCORE.INTRA.DIHEDRAL>
-2.93475

>  <SCORE.INTRA.DIHEDRAL.0>
10.9594

>  <SCORE.INTRA.POLAR>
0

>  <SCORE.INTRA.POLAR.0>
0

>  <SCORE.INTRA.REPUL>
0.00656066

>  <SCORE.INTRA.REPUL.0>
0

>  <SCORE.INTRA.SOLV>
-1.36199

>  <SCORE.INTRA.SOLV.lig_0>
-124.914

>  <SCORE.INTRA.VDW>
0.0702328

>  <SCORE.INTRA.VDW.0>
-4.69801

>  <SCORE.INTRA.norm>
-0.0639166

>  <SCORE.RESTR>
0

>  <SCORE.RESTR.CAVITY>
0

>  <SCORE.RESTR.norm>
0

>  <SCORE.SYSTEM>
0

>  <SCORE.SYSTEM.CONST>
0

>  <SCORE.SYSTEM.DIHEDRAL>
0

>  <SCORE.SYSTEM.SOLV>
0

>  <SCORE.SYSTEM.norm>
0

>  <SCORE.heavy>
32

>  <SCORE.norm>
-0.145985

>  <RMSD>
55.107

$$$$
ligand
 OpenBabel11021811513D
libRbt.so/2013.1/901 2013/11/27
 32 34  0  0  0  0  0  0  0  0999 V2000
   35.5448  -24.7219   32.2389 P   0  0  1  0  0  0  0  0  0  0  0  0
   34.2568  -24.4770   29.6870 P   0  0  2  0  0  0  0  0  0  0  0  0
   33.9466  -21.7314   28.6967 P   0  0  1  0  0  0  0  0  0  0  0  0
   35.8992  -27.2783   32.6005 C   0  0  0  0  0  0  0  0  0  0  0  0
   34.9657  -26.2407   32.4999 O   0  0  0  0  0  0  0  0  0  0  0  0
   35.2409  -28.5020   32.5505 C   0  0  1  0  0  0  0  0  0  0  0  0
   36.2345  -29.6114   32.2644 O   0  0  0  0  0  0  0  0  0  0  0  0
   34.5758  -28.8629   33.9574 C   0  0  1  0  0  0  0  0  0  0  0  0
   33.0715  -28.8954   33.8088 O   0  0  0  0  0  0  0  0  0  0  0  0
   34.9425  -30.0100   34.2237 C   0  0  1  0  0  0  0  0  0  0  0  0
   33.8909  -30.9703   33.8118 O   0  0  0  0  0  0  0  0  0  0  0  0
   36.3329  -30.2763   33.3464 C   0  0  2  0  0  0  0  0  0  0  0  0
   38.6010  -29.8373   37.9342 N   0  0  0  0  0  0  0  0  0  0  0  0
   35.6006  -23.9647   33.5426 O   0  5  0  0  0  0  0  0  0  0  0  0
   33.4264  -25.7356   29.7108 O   0  5  0  0  0  0  0  0  0  0  0  0
   33.4491  -20.9894   29.9151 O   0  0  0  0  0  0  0  0  0  0  0  0
   37.3964  -30.3127   37.6594 C   0  0  0  0  0  0  0  0  0  0  0  0
   36.5556  -30.7873   38.7399 N   0  0  0  0  0  0  0  0  0  0  0  0
   36.9181  -24.8264   31.6148 O   0  0  0  0  0  0  0  0  0  0  0  0
   35.5887  -24.7635   29.0446 O   0  0  0  0  0  0  0  0  0  0  0  0
   35.4569  -21.6521   28.6507 O   0  5  0  0  0  0  0  0  0  0  0  0
   36.9316  -30.3700   36.4280 N   0  0  0  0  0  0  0  0  0  0  0  0
   34.5232  -23.9419   31.2158 O   0  0  0  0  0  0  0  0  0  0  0  0
   33.4755  -23.3091   28.8316 O   0  0  0  0  0  0  0  0  0  0  0  0
   33.3487  -21.1015   27.4577 O   0  0  0  0  0  0  0  0  0  0  0  0
   37.6762  -29.9417   35.4015 C   0  0  0  0  0  0  0  0  0  0  0  0
   38.9360  -29.4407   35.6605 C   0  0  0  0  0  0  0  0  0  0  0  0
   39.4123  -29.3899   36.9847 C   0  0  0  0  0  0  0  0  0  0  0  0
   40.6912  -28.8855   37.2796 O   0  0  0  0  0  0  0  0  0  0  0  0
   39.4786  -29.0808   34.4848 N   0  0  0  0  0  0  0  0  0  0  0  0
   38.5933  -29.3468   33.5402 C   0  0  0  0  0  0  0  0  0  0  0  0
   37.5015  -29.8629   34.0729 N   0  0  0  0  0  0  0  0  0  0  0  0
  1  5  1  1  0  0  0
  1 14  1  0  0  0  0
  1 19  2  0  0  0  0
  1 23  1  0  0  0  0
  2 15  1  1  0  0  0
  2 20  2  0  0  0  0
  2 23  1  0  0  0  0
  2 24  1  0  0  0  0
  3 16  1  1  0  0  0
  3 21  1  0  0  0  0
  3 24  1  0  0  0  0
  3 25  2  0  0  0  0
  4  5  1  0  0  0  0
  6  4  1  1  0  0  0
  6  7  1  0  0  0  0
  6  8  1  0  0  0  0
  7 12  1  0  0  0  0
  8  9  1  6  0  0  0
  8 10  1  0  0  0  0
 10 11  1  6  0  0  0
 10 12  1  0  0  0  0
 12 32  1  1  0  0  0
 13 17  2  0  0  0  0
 13 28  1  0  0  0  0
 17 18  1  0  0  0  0
 17 22  1  0  0  0  0
 22 26  2  0  0  0  0
 26 27  1  0  0  0  0
 26 32  1  0  0  0  0
 27 28  2  0  0  0  0
 27 30  1  0  0  0  0
 28 29  1  0  0  0  0
 30 31  2  0  0  0  0
 31 32  1  0  0  0  0
M  CHG  3  14  -1  15  -1  21  -1
M  END
>  <CHROM.1>
-98.89103445,72.02731609,-82.90427424,164.06823527,-168.19374388,153.57503128
-62.07919204,172.78569055,35.77901897,-26.64612186,32.62738697,-1.96964476
0.56136992,2.60968859

>  <Name>
ligand

>  <RI>
0

>  <Rbt.Current_Directory>
/home/itssahil/PROJECTS/Mol_Feturizer/New_Systems/rnas/4Y1I

>  <Rbt.Executable>
rbdock ($Id: //depot/dev/client3/rdock/2013.1/src/exe/rbdock.cxx#4 $)

>  <Rbt.Library>
libRbt.so (2013.1, Build901 2013/11/27)

>  <Rbt.Parameter_File>
/export/apps/rDock/src/rDock_2013.1_src/data/scripts/dock_solv.prm

>  <Rbt.Receptor>
prm/blind_docking_100.prm

>  <SCORE>
-15.5878

>  <SCORE.INTER>
-11.1991

>  <SCORE.INTER.CONST>
1

>  <SCORE.INTER.POLAR>
0

>  <SCORE.INTER.ROT>
8

>  <SCORE.INTER.SOLV>
24.4301

>  <SCORE.INTER.VDW>
-24.5427

>  <SCORE.INTER.norm>
-0.349971

>  <SCORE.INTRA>
-4.38876

>  <SCORE.INTRA.DIHEDRAL>
-5.43915

>  <SCORE.INTRA.DIHEDRAL.0>
10.9594

>  <SCORE.INTRA.POLAR>
0

>  <SCORE.INTRA.POLAR.0>
0

>  <SCORE.INTRA.REPUL>
0

>  <SCORE.INTRA.REPUL.0>
0

>  <SCORE.INTRA.SOLV>
-4.24106

>  <SCORE.INTRA.SOLV.lig_0>
-124.914

>  <SCORE.INTRA.VDW>
0.451347

>  <SCORE.INTRA.VDW.0>
-4.69801

>  <SCORE.INTRA.norm>
-0.137149

>  <SCORE.RESTR>
0

>  <SCORE.RESTR.CAVITY>
0

>  <SCORE.RESTR.norm>
0

>  <SCORE.SYSTEM>
0

>  <SCORE.SYSTEM.CONST>
0

>  <SCORE.SYSTEM.DIHEDRAL>
0

>  <SCORE.SYSTEM.SOLV>
0

>  <SCORE.SYSTEM.norm>
0

>  <SCORE.heavy>
32

>  <SCORE.norm>
-0.48712

>  <RMSD>
55.143

$$$$
ligand
 OpenBabel11021811513D
libRbt.so/2013.1/901 2013/11/27
 32 34  0  0  0  0  0  0  0  0999 V2000
   34.5494  -25.1857   30.8039 P   0  0  1  0  0  0  0  0  0  0  0  0
   36.5327  -23.5440   29.5382 P   0  0  2  0  0  0  0  0  0  0  0  0
   38.2278  -23.5395   31.9344 P   0  0  1  0  0  0  0  0  0  0  0  0
   35.6724  -27.4269   31.5162 C   0  0  0  0  0  0  0  0  0  0  0  0
   34.4662  -26.7395   31.3416 O   0  0  0  0  0  0  0  0  0  0  0  0
   35.4102  -28.7251   31.9397 C   0  0  1  0  0  0  0  0  0  0  0  0
   36.6502  -29.5824   31.7744 O   0  0  0  0  0  0  0  0  0  0  0  0
   35.0532  -28.7683   33.4963 C   0  0  1  0  0  0  0  0  0  0  0  0
   33.6213  -29.2214   33.6712 O   0  0  0  0  0  0  0  0  0  0  0  0
   35.7756  -29.6389   33.9877 C   0  0  1  0  0  0  0  0  0  0  0  0
   35.0197  -30.9111   34.0787 O   0  0  0  0  0  0  0  0  0  0  0  0
   37.0693  -29.8173   32.9541 C   0  0  2  0  0  0  0  0  0  0  0  0
   40.6976  -28.5258   36.3531 N   0  0  0  0  0  0  0  0  0  0  0  0
   33.3480  -24.8766   29.9453 O   0  5  0  0  0  0  0  0  0  0  0  0
   35.4700  -22.6569   28.9397 O   0  5  0  0  0  0  0  0  0  0  0  0
   38.4238  -22.6016   33.1024 O   0  0  0  0  0  0  0  0  0  0  0  0
   39.8275  -29.5211   36.4239 C   0  0  0  0  0  0  0  0  0  0  0  0
   39.8423  -30.3980   37.5773 N   0  0  0  0  0  0  0  0  0  0  0  0
   34.6126  -24.2611   31.9987 O   0  0  0  0  0  0  0  0  0  0  0  0
   37.6522  -23.7288   28.5476 O   0  0  0  0  0  0  0  0  0  0  0  0
   37.7013  -24.8632   32.4448 O   0  5  0  0  0  0  0  0  0  0  0  0
   38.9416  -29.7440   35.4746 N   0  0  0  0  0  0  0  0  0  0  0  0
   35.9078  -25.0193   29.8952 O   0  0  0  0  0  0  0  0  0  0  0  0
   37.1238  -22.8581   30.9116 O   0  0  0  0  0  0  0  0  0  0  0  0
   39.5535  -23.7362   31.2322 O   0  0  0  0  0  0  0  0  0  0  0  0
   38.8943  -28.9573   34.3928 C   0  0  0  0  0  0  0  0  0  0  0  0
   39.7901  -27.9118   34.2942 C   0  0  0  0  0  0  0  0  0  0  0  0
   40.7289  -27.6931   35.3208 C   0  0  0  0  0  0  0  0  0  0  0  0
   41.6542  -26.6369   35.2483 O   0  0  0  0  0  0  0  0  0  0  0  0
   39.5466  -27.2774   33.1347 N   0  0  0  0  0  0  0  0  0  0  0  0
   38.5440  -27.9024   32.5423 C   0  0  0  0  0  0  0  0  0  0  0  0
   38.1366  -28.9143   33.2856 N   0  0  0  0  0  0  0  0  0  0  0  0
  1  5  1  1  0  0  0
  1 14  1  0  0  0  0
  1 19  2  0  0  0  0
  1 23  1  0  0  0  0
  2 15  1  6  0  0  0
  2 20  2  0  0  0  0
  2 23  1  0  0  0  0
  2 24  1  0  0  0  0
  3 16  1  1  0  0  0
  3 21  1  0  0  0  0
  3 24  1  0  0  0  0
  3 25  2  0  0  0  0
  4  5  1  0  0  0  0
  6  4  1  1  0  0  0
  6  7  1  0  0  0  0
  6  8  1  0  0  0  0
  7 12  1  0  0  0  0
  8  9  1  6  0  0  0
  8 10  1  0  0  0  0
 10 11  1  6  0  0  0
 10 12  1  0  0  0  0
 12 32  1  1  0  0  0
 13 17  2  0  0  0  0
 13 28  1  0  0  0  0
 17 18  1  0  0  0  0
 17 22  1  0  0  0  0
 22 26  2  0  0  0  0
 26 27  1  0  0  0  0
 26 32  1  0  0  0  0
 27 28  2  0  0  0  0
 27 30  1  0  0  0  0
 28 29  1  0  0  0  0
 30 31  2  0  0  0  0
 31 32  1  0  0  0  0
M  CHG  3  14  -1  15  -1  21  -1
M  END
>  <CHROM.1>
147.20311917,-52.46218985,-176.76212897,164.79718250,-178.53244063,-173.29535560
-163.04231389,175.64956935,37.16208585,-26.51116555,32.45698199,1.97211250
-0.45565938,-0.55120170

>  <Name>
ligand

>  <RI>
0

>  <Rbt.Current_Directory>
/home/itssahil/PROJECTS/Mol_Feturizer/New_Systems/rnas/4Y1I

>  <Rbt.Executable>
rbdock ($Id: //depot/dev/client3/rdock/2013.1/src/exe/rbdock.cxx#4 $)

>  <Rbt.Library>
libRbt.so (2013.1, Build901 2013/11/27)

>  <Rbt.Parameter_File>
/export/apps/rDock/src/rDock_2013.1_src/data/scripts/dock_solv.prm

>  <Rbt.Receptor>
prm/blind_docking_100.prm

>  <SCORE>
-10.565

>  <SCORE.INTER>
-6.38687

>  <SCORE.INTER.CONST>
1

>  <SCORE.INTER.POLAR>
0

>  <SCORE.INTER.ROT>
8

>  <SCORE.INTER.SOLV>
18.4248

>  <SCORE.INTER.VDW>
-19.3329

>  <SCORE.INTER.norm>
-0.19959

>  <SCORE.INTRA>
-4.17814

>  <SCORE.INTRA.DIHEDRAL>
-7.04582

>  <SCORE.INTRA.DIHEDRAL.0>
10.9594

>  <SCORE.INTRA.POLAR>
0

>  <SCORE.INTRA.POLAR.0>
0

>  <SCORE.INTRA.REPUL>
0

>  <SCORE.INTRA.REPUL.0>
0

>  <SCORE.INTRA.SOLV>
0.283449

>  <SCORE.INTRA.SOLV.lig_0>
-124.914

>  <SCORE.INTRA.VDW>
-0.79695

>  <SCORE.INTRA.VDW.0>
-4.69801

>  <SCORE.INTRA.norm>
-0.130567

>  <SCORE.RESTR>
0

>  <SCORE.RESTR.CAVITY>
0

>  <SCORE.RESTR.norm>
0

>  <SCORE.SYSTEM>
0

>  <SCORE.SYSTEM.CONST>
0

>  <SCORE.SYSTEM.DIHEDRAL>
0

>  <SCORE.SYSTEM.SOLV>
0

>  <SCORE.SYSTEM.norm>
0

>  <SCORE.heavy>
32

>  <SCORE.norm>
-0.330157

>  <RMSD>
55.264

$$$$
ligand
 OpenBabel11021811513D
libRbt.so/2013.1/901 2013/11/27
 32 34  0  0  0  0  0  0  0  0999 V2000
   38.0229  -26.9163   30.7829 P   0  0  1  0  0  0  0  0  0  0  0  0
   38.7362  -25.5669   28.3536 P   0  0  2  0  0  0  0  0  0  0  0  0
   37.0736  -25.4740   25.9365 P   0  0  1  0  0  0  0  0  0  0  0  0
   36.8068  -28.4364   32.5155 C   0  0  0  0  0  0  0  0  0  0  0  0
   37.3045  -28.3342   31.2117 O   0  0  0  0  0  0  0  0  0  0  0  0
   36.0434  -29.5927   32.6320 C   0  0  1  0  0  0  0  0  0  0  0  0
   36.9492  -30.8087   32.6612 O   0  0  0  0  0  0  0  0  0  0  0  0
   35.2327  -29.6184   34.0083 C   0  0  1  0  0  0  0  0  0  0  0  0
   33.7495  -29.5657   33.7192 O   0  0  0  0  0  0  0  0  0  0  0  0
   35.4670  -30.7151   34.5217 C   0  0  1  0  0  0  0  0  0  0  0  0
   34.3681  -31.6553   34.1958 O   0  0  0  0  0  0  0  0  0  0  0  0
   36.8946  -31.2533   33.8537 C   0  0  2  0  0  0  0  0  0  0  0  0
   38.6242  -29.3672   38.3075 N   0  0  0  0  0  0  0  0  0  0  0  0
   37.1350  -25.7575   31.1635 O   0  5  0  0  0  0  0  0  0  0  0  0
   40.2001  -25.3178   28.6167 O   0  5  0  0  0  0  0  0  0  0  0  0
   35.9286  -25.8187   26.8599 O   0  0  0  0  0  0  0  0  0  0  0  0
   37.3813  -29.6870   37.9821 C   0  0  0  0  0  0  0  0  0  0  0  0
   36.3231  -29.5090   38.9558 N   0  0  0  0  0  0  0  0  0  0  0  0
   39.3630  -26.8216   31.4768 O   0  0  0  0  0  0  0  0  0  0  0  0
   37.9289  -24.3928   28.8422 O   0  0  0  0  0  0  0  0  0  0  0  0
   36.9924  -24.0074   25.5728 O   0  5  0  0  0  0  0  0  0  0  0  0
   37.0707  -30.1653   36.7946 N   0  0  0  0  0  0  0  0  0  0  0  0
   38.2346  -26.9096   29.1539 O   0  0  0  0  0  0  0  0  0  0  0  0
   38.4858  -25.7711   26.7407 O   0  0  0  0  0  0  0  0  0  0  0  0
   36.9790  -26.3304   24.6928 O   0  0  0  0  0  0  0  0  0  0  0  0
   38.0183  -30.3447   35.8665 C   0  0  0  0  0  0  0  0  0  0  0  0
   39.3225  -30.0187   36.1797 C   0  0  0  0  0  0  0  0  0  0  0  0
   39.6313  -29.5096   37.4559 C   0  0  0  0  0  0  0  0  0  0  0  0
   40.9503  -29.1692   37.8043 O   0  0  0  0  0  0  0  0  0  0  0  0
   40.0772  -30.2844   35.0999 N   0  0  0  0  0  0  0  0  0  0  0  0
   39.2753  -30.7536   34.1599 C   0  0  0  0  0  0  0  0  0  0  0  0
   38.0322  -30.7946   34.6019 N   0  0  0  0  0  0  0  0  0  0  0  0
  1  5  1  1  0  0  0
  1 14  1  0  0  0  0
  1 19  2  0  0  0  0
  1 23  1  0  0  0  0
  2 15  1  1  0  0  0
  2 20  2  0  0  0  0
  2 23  1  0  0  0  0
  2 24  1  0  0  0  0
  3 16  1  1  0  0  0
  3 21  1  0  0  0  0
  3 24  1  0  0  0  0
  3 25  2  0  0  0  0
  4  5  1  0  0  0  0
  6  4  1  1  0  0  0
  6  7  1  0  0  0  0
  6  8  1  0  0  0  0
  7 12  1  0  0  0  0
  8  9  1  6  0  0  0
  8 10  1  0  0  0  0
 10 11  1  6  0  0  0
 10 12  1  0  0  0  0
 12 32  1  1  0  0  0
 13 17  2  0  0  0  0
 13 28  1  0  0  0  0
 17 18  1  0  0  0  0
 17 22  1  0  0  0  0
 22 26  2  0  0  0  0
 26 27  1  0  0  0  0
 26 32  1  0  0  0  0
 27 28  2  0  0  0  0
 27 30  1  0  0  0  0
 28 29  1  0  0  0  0
 30 31  2  0  0  0  0
 31 32  1  0  0  0  0
M  CHG  3  14  -1  15  -1  21  -1
M  END
>  <CHROM.1>
-49.29318906,73.27175063,-34.37102631,73.63419173,169.94238518,137.95602980
171.50745047,-154.13634857,37.60180394,-28.04415057,31.89918602,-1.57263032
0.46103144,2.03491970

>  <Name>
ligand

>  <RI>
0

>  <Rbt.Current_Directory>
/home/itssahil/PROJECTS/Mol_Feturizer/New_Systems/rnas/4Y1I

>  <Rbt.Executable>
rbdock ($Id: //depot/dev/client3/rdock/2013.1/src/exe/rbdock.cxx#4 $)

>  <Rbt.Library>
libRbt.so (2013.1, Build901 2013/11/27)

>  <Rbt.Parameter_File>
/export/apps/rDock/src/rDock_2013.1_src/data/scripts/dock_solv.prm

>  <Rbt.Receptor>
prm/blind_docking_80.prm

>  <SCORE>
-13.8633

>  <SCORE.INTER>
-9.35858

>  <SCORE.INTER.CONST>
1

>  <SCORE.INTER.POLAR>
0

>  <SCORE.INTER.ROT>
8

>  <SCORE.INTER.SOLV>
25.2039

>  <SCORE.INTER.VDW>
-23.5737

>  <SCORE.INTER.norm>
-0.292456

>  <SCORE.INTRA>
-4.50476

>  <SCORE.INTRA.DIHEDRAL>
-6.13398

>  <SCORE.INTRA.DIHEDRAL.0>
10.9594

>  <SCORE.INTRA.POLAR>
0

>  <SCORE.INTRA.POLAR.0>
0

>  <SCORE.INTRA.REPUL>
0

>  <SCORE.INTRA.REPUL.0>
0

>  <SCORE.INTRA.SOLV>
-3.94566

>  <SCORE.INTRA.SOLV.lig_0>
-124.914

>  <SCORE.INTRA.VDW>
0.535055

>  <SCORE.INTRA.VDW.0>
-4.69801

>  <SCORE.INTRA.norm>
-0.140774

>  <SCORE.RESTR>
0

>  <SCORE.RESTR.CAVITY>
0

>  <SCORE.RESTR.norm>
0

>  <SCORE.SYSTEM>
0

>  <SCORE.SYSTEM.CONST>
0

>  <SCORE.SYSTEM.DIHEDRAL>
0

>  <SCORE.SYSTEM.SOLV>
0

>  <SCORE.SYSTEM.norm>
0

>  <SCORE.heavy>
32

>  <SCORE.norm>
-0.43323

>  <RMSD>
55.268

$$$$
ligand
 OpenBabel11021811513D
libRbt.so/2013.1/901 2013/11/27
 32 34  0  0  0  0  0  0  0  0999 V2000
   34.3255  -29.2319   33.3918 P   0  0  1  0  0  0  0  0  0  0  0  0
   35.2741  -31.5361   34.8136 P   0  0  2  0  0  0  0  0  0  0  0  0
   36.6575  -30.8159   37.3001 P   0  0  1  0  0  0  0  0  0  0  0  0
   36.0132  -27.2881   33.7980 C   0  0  0  0  0  0  0  0  0  0  0  0
   35.7482  -28.6498   33.9812 O   0  0  0  0  0  0  0  0  0  0  0  0
   37.2011  -26.9555   34.4396 C   0  0  1  0  0  0  0  0  0  0  0  0
   38.3557  -27.7143   33.8143 O   0  0  0  0  0  0  0  0  0  0  0  0
   37.5465  -25.4064   34.2579 C   0  0  1  0  0  0  0  0  0  0  0  0
   37.5005  -24.7198   35.6042 O   0  0  0  0  0  0  0  0  0  0  0  0
   38.7143  -25.3614   33.8634 C   0  0  1  0  0  0  0  0  0  0  0  0
   39.6143  -25.1256   35.0177 O   0  0  0  0  0  0  0  0  0  0  0  0
   39.0392  -26.8456   33.1812 C   0  0  2  0  0  0  0  0  0  0  0  0
   38.8550  -24.2379   28.7596 N   0  0  0  0  0  0  0  0  0  0  0  0
   33.1712  -28.4786   34.0053 O   0  5  0  0  0  0  0  0  0  0  0  0
   36.5561  -31.8465   34.0826 O   0  5  0  0  0  0  0  0  0  0  0  0
   36.6024  -29.6455   38.2538 O   0  0  0  0  0  0  0  0  0  0  0  0
   39.2764  -23.8155   29.9414 C   0  0  0  0  0  0  0  0  0  0  0  0
   39.7612  -22.4570   30.0797 N   0  0  0  0  0  0  0  0  0  0  0  0
   34.3276  -29.0863   31.8868 O   0  0  0  0  0  0  0  0  0  0  0  0
   34.6632  -32.8142   35.3255 O   0  0  0  0  0  0  0  0  0  0  0  0
   36.2667  -32.0767   38.0398 O   0  5  0  0  0  0  0  0  0  0  0  0
   39.2705  -24.5934   31.0046 N   0  0  0  0  0  0  0  0  0  0  0  0
   34.2006  -30.8181   33.8003 O   0  0  0  0  0  0  0  0  0  0  0  0
   35.5823  -30.5308   36.0786 O   0  0  0  0  0  0  0  0  0  0  0  0
   38.0629  -30.9408   36.7537 O   0  0  0  0  0  0  0  0  0  0  0  0
   38.8306  -25.8547   30.9197 C   0  0  0  0  0  0  0  0  0  0  0  0
   38.3851  -26.3202   29.6991 C   0  0  0  0  0  0  0  0  0  0  0  0
   38.4014  -25.4709   28.5759 C   0  0  0  0  0  0  0  0  0  0  0  0
   37.9545  -25.9168   27.3195 O   0  0  0  0  0  0  0  0  0  0  0  0
   38.0006  -27.5968   29.8680 N   0  0  0  0  0  0  0  0  0  0  0  0
   38.1990  -27.9073   31.1372 C   0  0  0  0  0  0  0  0  0  0  0  0
   38.6955  -26.8708   31.7864 N   0  0  0  0  0  0  0  0  0  0  0  0
  1  5  1  1  0  0  0
  1 14  1  0  0  0  0
  1 19  2  0  0  0  0
  1 23  1  0  0  0  0
  2 15  1  6  0  0  0
  2 20  2  0  0  0  0
  2 23  1  0  0  0  0
  2 24  1  0  0  0  0
  3 16  1  1  0  0  0
  3 21  1  0  0  0  0
  3 24  1  0  0  0  0
  3 25  2  0  0  0  0
  4  5  1  0  0  0  0
  6  4  1  6  0  0  0
  6  7  1  0  0  0  0
  6  8  1  0  0  0  0
  7 12  1  0  0  0  0
  8  9  1  1  0  0  0
  8 10  1  0  0  0  0
 10 11  1  1  0  0  0
 10 12  1  0  0  0  0
 12 32  1  6  0  0  0
 13 17  2  0  0  0  0
 13 28  1  0  0  0  0
 17 18  1  0  0  0  0
 17 22  1  0  0  0  0
 22 26  2  0  0  0  0
 26 27  1  0  0  0  0
 26 32  1  0  0  0  0
 27 28  2  0  0  0  0
 27 30  1  0  0  0  0
 28 29  1  0  0  0  0
 30 31  2  0  0  0  0
 31 32  1  0  0  0  0
M  CHG  3  14  -1  15  -1  21  -1
M  END
>  <CHROM.1>
-57.87166891,-77.77891866,-179.07733788,62.98830436,175.66435407,155.26702327
7.77429110,-55.79176833,36.95902920,-28.12235337,33.48103783,2.16080355,0.89200249
1.90180344

>  <Name>
ligand

>  <RI>
0

>  <Rbt.Current_Directory>
/home/itssahil/PROJECTS/Mol_Feturizer/New_Systems/rnas/4Y1I

>  <Rbt.Executable>
rbdock ($Id: //depot/dev/client3/rdock/2013.1/src/exe/rbdock.cxx#4 $)

>  <Rbt.Library>
libRbt.so (2013.1, Build901 2013/11/27)

>  <Rbt.Parameter_File>
/export/apps/rDock/src/rDock_2013.1_src/data/scripts/dock_solv.prm

>  <Rbt.Receptor>
prm/blind_docking_100.prm

>  <SCORE>
-12.233

>  <SCORE.INTER>
-6.3929

>  <SCORE.INTER.CONST>
1

>  <SCORE.INTER.POLAR>
0

>  <SCORE.INTER.ROT>
8

>  <SCORE.INTER.SOLV>
20.9145

>  <SCORE.INTER.VDW>
-20.1668

>  <SCORE.INTER.norm>
-0.199778

>  <SCORE.INTRA>
-5.8426

>  <SCORE.INTRA.DIHEDRAL>
-6.80461

>  <SCORE.INTRA.DIHEDRAL.0>
10.9594

>  <SCORE.INTRA.POLAR>
0

>  <SCORE.INTRA.POLAR.0>
0

>  <SCORE.INTRA.REPUL>
0.0156527

>  <SCORE.INTRA.REPUL.0>
0

>  <SCORE.INTRA.SOLV>
-4.24651

>  <SCORE.INTRA.SOLV.lig_0>
-124.914

>  <SCORE.INTRA.VDW>
-0.3953

>  <SCORE.INTRA.VDW.0>
-4.69801

>  <SCORE.INTRA.norm>
-0.182581

>  <SCORE.RESTR>
0.00253729

>  <SCORE.RESTR.CAVITY>
0.00253729

>  <SCORE.RESTR.norm>
7.92903e-05

>  <SCORE.SYSTEM>
0

>  <SCORE.SYSTEM.CONST>
0

>  <SCORE.SYSTEM.DIHEDRAL>
0

>  <SCORE.SYSTEM.SOLV>
0

>  <SCORE.SYSTEM.norm>
0

>  <SCORE.heavy>
32

>  <SCORE.norm>
-0.38228

>  <RMSD>
55.285

$$$$
ligand
 OpenBabel11021811513D
libRbt.so/2013.1/901 2013/11/27
 32 34  0  0  0  0  0  0  0  0999 V2000
   39.4555  -27.3080   35.3810 P   0  0  1  0  0  0  0  0  0  0  0  0
   39.2183  -29.6651   36.9993 P   0  0  2  0  0  0  0  0  0  0  0  0
   36.6388  -28.8826   38.1609 P   0  0  1  0  0  0  0  0  0  0  0  0
   37.3535  -26.6523   33.9870 C   0  0  0  0  0  0  0  0  0  0  0  0
   37.8325  -27.3412   35.1068 O   0  0  0  0  0  0  0  0  0  0  0  0
   36.0004  -26.9240   33.8181 C   0  0  1  0  0  0  0  0  0  0  0  0
   35.4453  -26.0928   32.6775 O   0  0  0  0  0  0  0  0  0  0  0  0
   35.7602  -28.4485   33.4052 C   0  0  1  0  0  0  0  0  0  0  0  0
   34.9976  -29.1529   34.5045 O   0  0  0  0  0  0  0  0  0  0  0  0
   35.0296  -28.4217   32.4118 C   0  0  1  0  0  0  0  0  0  0  0  0
   33.6216  -28.6195   32.8316 O   0  0  0  0  0  0  0  0  0  0  0  0
   35.2148  -26.9132   31.7307 C   0  0  2  0  0  0  0  0  0  0  0  0
   37.0120  -25.0199   27.3067 N   0  0  0  0  0  0  0  0  0  0  0  0
   40.1810  -27.9753   34.2389 O   0  5  0  0  0  0  0  0  0  0  0  0
   39.7538  -30.2205   38.2951 O   0  5  0  0  0  0  0  0  0  0  0  0
   37.0831  -27.4404   38.2323 O   0  0  0  0  0  0  0  0  0  0  0  0
   35.8503  -24.7711   27.8911 C   0  0  0  0  0  0  0  0  0  0  0  0
   34.9176  -23.8592   27.2601 N   0  0  0  0  0  0  0  0  0  0  0  0
   39.8930  -25.8686   35.5325 O   0  0  0  0  0  0  0  0  0  0  0  0
   39.6871  -30.5208   35.8517 O   0  0  0  0  0  0  0  0  0  0  0  0
   35.1868  -28.9335   37.7382 O   0  5  0  0  0  0  0  0  0  0  0  0
   35.5100  -25.3281   29.0354 N   0  0  0  0  0  0  0  0  0  0  0  0
   39.7686  -28.1365   36.7646 O   0  0  0  0  0  0  0  0  0  0  0  0
   37.5738  -29.6503   37.0358 O   0  0  0  0  0  0  0  0  0  0  0  0
   36.8130  -29.5201   39.5221 O   0  0  0  0  0  0  0  0  0  0  0  0
   36.3426  -26.1763   29.6510 C   0  0  0  0  0  0  0  0  0  0  0  0
   37.5602  -26.4534   29.0628 C   0  0  0  0  0  0  0  0  0  0  0  0
   37.9030  -25.8457   27.8397 C   0  0  0  0  0  0  0  0  0  0  0  0
   39.1360  -26.1079   27.2168 O   0  0  0  0  0  0  0  0  0  0  0  0
   38.2079  -27.3195   29.8607 N   0  0  0  0  0  0  0  0  0  0  0  0
   37.4254  -27.5678   30.8964 C   0  0  0  0  0  0  0  0  0  0  0  0
   36.2975  -26.8909   30.7864 N   0  0  0  0  0  0  0  0  0  0  0  0
  1  5  1  6  0  0  0
  1 14  1  0  0  0  0
  1 19  2  0  0  0  0
  1 23  1  0  0  0  0
  2 15  1  1  0  0  0
  2 20  2  0  0  0  0
  2 23  1  0  0  0  0
  2 24  1  0  0  0  0
  3 16  1  1  0  0  0
  3 21  1  0  0  0  0
  3 24  1  0  0  0  0
  3 25  2  0  0  0  0
  4  5  1  0  0  0  0
  6  4  1  6  0  0  0
  6  7  1  0  0  0  0
  6  8  1  0  0  0  0
  7 12  1  0  0  0  0
  8  9  1  1  0  0  0
  8 10  1  0  0  0  0
 10 11  1  1  0  0  0
 10 12  1  0  0  0  0
 12 32  1  6  0  0  0
 13 17  2  0  0  0  0
 13 28  1  0  0  0  0
 17 18  1  0  0  0  0
 17 22  1  0  0  0  0
 22 26  2  0  0  0  0
 26 27  1  0  0  0  0
 26 32  1  0  0  0  0
 27 28  2  0  0  0  0
 27 30  1  0  0  0  0
 28 29  1  0  0  0  0
 30 31  2  0  0  0  0
 31 32  1  0  0  0  0
M  CHG  3  14  -1  15  -1  21  -1
M  END
>  <CHROM.1>
-62.94493738,175.03227123,52.89367380,175.30310692,172.62741143,-95.91168346
52.31989443,57.34681123,37.31619756,-27.62283294,33.72704966,-1.41718565
-0.01540322,-1.21387071

>  <Name>
ligand

>  <RI>
0

>  <Rbt.Current_Directory>
/home/itssahil/PROJECTS/Mol_Feturizer/New_Systems/rnas/4Y1I

>  <Rbt.Executable>
rbdock ($Id: //depot/dev/client3/rdock/2013.1/src/exe/rbdock.cxx#4 $)

>  <Rbt.Library>
libRbt.so (2013.1, Build901 2013/11/27)

>  <Rbt.Parameter_File>
/export/apps/rDock/src/rDock_2013.1_src/data/scripts/dock_solv.prm

>  <Rbt.Receptor>
prm/blind_docking_80.prm

>  <SCORE>
-12.4613

>  <SCORE.INTER>
-4.74013

>  <SCORE.INTER.CONST>
1

>  <SCORE.INTER.POLAR>
0

>  <SCORE.INTER.ROT>
8

>  <SCORE.INTER.SOLV>
16.982

>  <SCORE.INTER.VDW>
-17.7541

>  <SCORE.INTER.norm>
-0.148129

>  <SCORE.INTRA>
-7.72115

>  <SCORE.INTRA.DIHEDRAL>
-9.16608

>  <SCORE.INTRA.DIHEDRAL.0>
10.9594

>  <SCORE.INTRA.POLAR>
0

>  <SCORE.INTRA.POLAR.0>
0

>  <SCORE.INTRA.REPUL>
0

>  <SCORE.INTRA.REPUL.0>
0

>  <SCORE.INTRA.SOLV>
-4.05117

>  <SCORE.INTRA.SOLV.lig_0>
-124.914

>  <SCORE.INTRA.VDW>
-1.11252

>  <SCORE.INTRA.VDW.0>
-4.69801

>  <SCORE.INTRA.norm>
-0.241286

>  <SCORE.RESTR>
0

>  <SCORE.RESTR.CAVITY>
0

>  <SCORE.RESTR.norm>
0

>  <SCORE.SYSTEM>
0

>  <SCORE.SYSTEM.CONST>
0

>  <SCORE.SYSTEM.DIHEDRAL>
0

>  <SCORE.SYSTEM.SOLV>
0

>  <SCORE.SYSTEM.norm>
0

>  <SCORE.heavy>
32

>  <SCORE.norm>
-0.389415

>  <RMSD>
55.387

$$$$
ligand
 OpenBabel11021811513D
libRbt.so/2013.1/901 2013/11/27
 32 34  0  0  0  0  0  0  0  0999 V2000
   37.1645  -26.8666   30.6326 P   0  0  1  0  0  0  0  0  0  0  0  0
   37.2079  -25.4329   28.1479 P   0  0  2  0  0  0  0  0  0  0  0  0
   34.6186  -24.2242   27.4773 P   0  0  1  0  0  0  0  0  0  0  0  0
   37.8341  -28.2504   32.7369 C   0  0  0  0  0  0  0  0  0  0  0  0
   38.1795  -27.8882   31.4302 O   0  0  0  0  0  0  0  0  0  0  0  0
   38.8139  -29.0854   33.2621 C   0  0  1  0  0  0  0  0  0  0  0  0
   40.0662  -28.2854   33.5649 O   0  0  0  0  0  0  0  0  0  0  0  0
   38.3531  -29.7196   34.6540 C   0  0  1  0  0  0  0  0  0  0  0  0
   38.2160  -31.2178   34.5031 O   0  0  0  0  0  0  0  0  0  0  0  0
   39.2770  -29.5141   35.4449 C   0  0  1  0  0  0  0  0  0  0  0  0
   40.1392  -30.7180   35.5170 O   0  0  0  0  0  0  0  0  0  0  0  0
   40.1428  -28.2286   34.8352 C   0  0  2  0  0  0  0  0  0  0  0  0
   36.8961  -25.8530   38.0290 N   0  0  0  0  0  0  0  0  0  0  0  0
   35.7802  -27.4636   30.5737 O   0  5  0  0  0  0  0  0  0  0  0  0
   37.7425  -25.5956   26.7471 O   0  5  0  0  0  0  0  0  0  0  0  0
   34.9689  -22.9279   28.1696 O   0  0  0  0  0  0  0  0  0  0  0  0
   37.0954  -27.1537   37.8836 C   0  0  0  0  0  0  0  0  0  0  0  0
   36.3372  -28.0845   38.6949 N   0  0  0  0  0  0  0  0  0  0  0  0
   37.1498  -25.5369   31.3522 O   0  0  0  0  0  0  0  0  0  0  0  0
   37.7115  -24.1396   28.7330 O   0  0  0  0  0  0  0  0  0  0  0  0
   34.9036  -24.0884   25.9975 O   0  5  0  0  0  0  0  0  0  0  0  0
   37.9662  -27.6352   37.0201 N   0  0  0  0  0  0  0  0  0  0  0  0
   37.7218  -26.6674   29.1001 O   0  0  0  0  0  0  0  0  0  0  0  0
   35.5633  -25.4179   28.1193 O   0  0  0  0  0  0  0  0  0  0  0  0
   33.1533  -24.5246   27.7054 O   0  0  0  0  0  0  0  0  0  0  0  0
   38.6866  -26.8095   36.2515 C   0  0  0  0  0  0  0  0  0  0  0  0
   38.4979  -25.4486   36.3828 C   0  0  0  0  0  0  0  0  0  0  0  0
   37.5621  -24.9565   37.3130 C   0  0  0  0  0  0  0  0  0  0  0  0
   37.3483  -23.5757   37.4697 O   0  0  0  0  0  0  0  0  0  0  0  0
   39.3247  -24.8393   35.5159 N   0  0  0  0  0  0  0  0  0  0  0  0
   39.9950  -25.7817   34.8762 C   0  0  0  0  0  0  0  0  0  0  0  0
   39.6227  -26.9738   35.3035 N   0  0  0  0  0  0  0  0  0  0  0  0
  1  5  1  1  0  0  0
  1 14  1  0  0  0  0
  1 19  2  0  0  0  0
  1 23  1  0  0  0  0
  2 15  1  6  0  0  0
  2 20  2  0  0  0  0
  2 23  1  0  0  0  0
  2 24  1  0  0  0  0
  3 16  1  1  0  0  0
  3 21  1  0  0  0  0
  3 24  1  0  0  0  0
  3 25  2  0  0  0  0
  4  5  1  0  0  0  0
  6  4  1  1  0  0  0
  6  7  1  0  0  0  0
  6  8  1  0  0  0  0
  7 12  1  0  0  0  0
  8  9  1  6  0  0  0
  8 10  1  0  0  0  0
 10 11  1  6  0  0  0
 10 12  1  0  0  0  0
 12 32  1  1  0  0  0
 13 17  2  0  0  0  0
 13 28  1  0  0  0  0
 17 18  1  0  0  0  0
 17 22  1  0  0  0  0
 22 26  2  0  0  0  0
 26 27  1  0  0  0  0
 26 32  1  0  0  0  0
 27 28  2  0  0  0  0
 27 30  1  0  0  0  0
 28 29  1  0  0  0  0
 30 31  2  0  0  0  0
 31 32  1  0  0  0  0
M  CHG  3  14  -1  15  -1  21  -1
M  END
>  <CHROM.1>
-57.48865270,-172.71226787,-57.62622967,72.42149896,-178.59495118,127.88391849
-163.58634530,-68.56775027,37.44002033,-26.51289514,32.29981896,-2.20815880
-1.05994074,1.31343123

>  <Name>
ligand

>  <RI>
0

>  <Rbt.Current_Directory>
/home/itssahil/PROJECTS/Mol_Feturizer/New_Systems/rnas/4Y1I

>  <Rbt.Executable>
rbdock ($Id: //depot/dev/client3/rdock/2013.1/src/exe/rbdock.cxx#4 $)

>  <Rbt.Library>
libRbt.so (2013.1, Build901 2013/11/27)

>  <Rbt.Parameter_File>
/export/apps/rDock/src/rDock_2013.1_src/data/scripts/dock_solv.prm

>  <Rbt.Receptor>
prm/blind_docking_100.prm

>  <SCORE>
-9.92553

>  <SCORE.INTER>
-3.80002

>  <SCORE.INTER.CONST>
1

>  <SCORE.INTER.POLAR>
0

>  <SCORE.INTER.ROT>
8

>  <SCORE.INTER.SOLV>
10.6455

>  <SCORE.INTER.VDW>
-15.0152

>  <SCORE.INTER.norm>
-0.118751

>  <SCORE.INTRA>
-6.12551

>  <SCORE.INTRA.DIHEDRAL>
-8.53255

>  <SCORE.INTRA.DIHEDRAL.0>
10.9594

>  <SCORE.INTRA.POLAR>
0

>  <SCORE.INTRA.POLAR.0>
0

>  <SCORE.INTRA.REPUL>
0

>  <SCORE.INTRA.REPUL.0>
0

>  <SCORE.INTRA.SOLV>
-4.28037

>  <SCORE.INTRA.SOLV.lig_0>
-124.914

>  <SCORE.INTRA.VDW>
0.280949

>  <SCORE.INTRA.VDW.0>
-4.69801

>  <SCORE.INTRA.norm>
-0.191422

>  <SCORE.RESTR>
0

>  <SCORE.RESTR.CAVITY>
0

>  <SCORE.RESTR.norm>
0

>  <SCORE.SYSTEM>
0

>  <SCORE.SYSTEM.CONST>
0

>  <SCORE.SYSTEM.DIHEDRAL>
0

>  <SCORE.SYSTEM.SOLV>
0

>  <SCORE.SYSTEM.norm>
0

>  <SCORE.heavy>
32

>  <SCORE.norm>
-0.310173

>  <RMSD>
55.412

$$$$
ligand
 OpenBabel11021811513D
libRbt.so/2013.1/901 2013/11/27
 32 34  0  0  0  0  0  0  0  0999 V2000
   35.7559  -24.6500   32.2833 P   0  0  1  0  0  0  0  0  0  0  0  0
   34.4669  -24.4048   29.7320 P   0  0  2  0  0  0  0  0  0  0  0  0
   34.0182  -21.7084   28.6629 P   0  0  1  0  0  0  0  0  0  0  0  0
   36.2179  -27.0609   33.1584 C   0  0  0  0  0  0  0  0  0  0  0  0
   35.4429  -26.2661   32.3064 O   0  0  0  0  0  0  0  0  0  0  0  0
   36.0420  -28.4008   32.8314 C   0  0  1  0  0  0  0  0  0  0  0  0
   36.8240  -29.2740   33.7937 O   0  0  0  0  0  0  0  0  0  0  0  0
   34.5141  -28.8414   32.9843 C   0  0  1  0  0  0  0  0  0  0  0  0
   33.9595  -29.2118   31.6274 O   0  0  0  0  0  0  0  0  0  0  0  0
   34.5219  -29.8671   33.6693 C   0  0  1  0  0  0  0  0  0  0  0  0
   34.4693  -31.0523   32.7803 O   0  0  0  0  0  0  0  0  0  0  0  0
   35.9538  -29.8555   34.5198 C   0  0  2  0  0  0  0  0  0  0  0  0
   35.8402  -30.2360   39.6411 N   0  0  0  0  0  0  0  0  0  0  0  0
   35.6023  -24.0793   33.6715 O   0  5  0  0  0  0  0  0  0  0  0  0
   33.7649  -25.7388   29.6864 O   0  5  0  0  0  0  0  0  0  0  0  0
   33.5914  -20.8961   29.8630 O   0  0  0  0  0  0  0  0  0  0  0  0
   35.9989  -31.2042   38.7522 C   0  0  0  0  0  0  0  0  0  0  0  0
   36.1677  -32.5687   39.2095 N   0  0  0  0  0  0  0  0  0  0  0  0
   37.1587  -24.4344   31.7621 O   0  0  0  0  0  0  0  0  0  0  0  0
   35.8240  -24.5268   29.0900 O   0  0  0  0  0  0  0  0  0  0  0  0
   35.5211  -21.6177   28.5123 O   0  5  0  0  0  0  0  0  0  0  0  0
   36.0089  -30.9685   37.4561 N   0  0  0  0  0  0  0  0  0  0  0  0
   34.6710  -23.9219   31.2875 O   0  0  0  0  0  0  0  0  0  0  0  0
   33.5786  -23.2790   28.9262 O   0  0  0  0  0  0  0  0  0  0  0  0
   33.3321  -21.1633   27.4293 O   0  0  0  0  0  0  0  0  0  0  0  0
   35.8560  -29.7223   36.9922 C   0  0  0  0  0  0  0  0  0  0  0  0
   35.6882  -28.6942   37.8977 C   0  0  0  0  0  0  0  0  0  0  0  0
   35.6816  -28.9697   39.2787 C   0  0  0  0  0  0  0  0  0  0  0  0
   35.5134  -27.9435   40.2250 O   0  0  0  0  0  0  0  0  0  0  0  0
   35.5575  -27.5546   37.1974 N   0  0  0  0  0  0  0  0  0  0  0  0
   35.6401  -27.8641   35.9151 C   0  0  0  0  0  0  0  0  0  0  0  0
   35.8171  -29.1643   35.7719 N   0  0  0  0  0  0  0  0  0  0  0  0
  1  5  1  1  0  0  0
  1 14  1  0  0  0  0
  1 19  2  0  0  0  0
  1 23  1  0  0  0  0
  2 15  1  6  0  0  0
  2 20  2  0  0  0  0
  2 23  1  0  0  0  0
  2 24  1  0  0  0  0
  3 16  1  1  0  0  0
  3 21  1  0  0  0  0
  3 24  1  0  0  0  0
  3 25  2  0  0  0  0
  4  5  1  0  0  0  0
  6  4  1  1  0  0  0
  6  7  1  0  0  0  0
  6  8  1  0  0  0  0
  7 12  1  0  0  0  0
  8  9  1  6  0  0  0
  8 10  1  0  0  0  0
 10 11  1  6  0  0  0
 10 12  1  0  0  0  0
 12 32  1  1  0  0  0
 13 17  2  0  0  0  0
 13 28  1  0  0  0  0
 17 18  1  0  0  0  0
 17 22  1  0  0  0  0
 22 26  2  0  0  0  0
 26 27  1  0  0  0  0
 26 32  1  0  0  0  0
 27 28  2  0  0  0  0
 27 30  1  0  0  0  0
 28 29  1  0  0  0  0
 30 31  2  0  0  0  0
 31 32  1  0  0  0  0
M  CHG  3  14  -1  15  -1  21  -1
M  END
>  <CHROM.1>
-57.77514234,71.83017704,-86.31984684,-177.18682212,-166.32949767,-129.86263650
-54.64912687,-176.50714294,35.20070482,-26.53529153,33.11744490,-2.35967120
1.39829634,3.06670853

>  <Name>
ligand

>  <RI>
0

>  <Rbt.Current_Directory>
/home/itssahil/PROJECTS/Mol_Feturizer/New_Systems/rnas/4Y1I

>  <Rbt.Executable>
rbdock ($Id: //depot/dev/client3/rdock/2013.1/src/exe/rbdock.cxx#4 $)

>  <Rbt.Library>
libRbt.so (2013.1, Build901 2013/11/27)

>  <Rbt.Parameter_File>
/export/apps/rDock/src/rDock_2013.1_src/data/scripts/dock_solv.prm

>  <Rbt.Receptor>
prm/blind_docking_100.prm

>  <SCORE>
-17.0206

>  <SCORE.INTER>
-11.7565

>  <SCORE.INTER.CONST>
1

>  <SCORE.INTER.POLAR>
0

>  <SCORE.INTER.ROT>
8

>  <SCORE.INTER.SOLV>
21.0216

>  <SCORE.INTER.VDW>
-23.7782

>  <SCORE.INTER.norm>
-0.36739

>  <SCORE.INTRA>
-5.26416

>  <SCORE.INTRA.DIHEDRAL>
-7.52443

>  <SCORE.INTRA.DIHEDRAL.0>
10.9594

>  <SCORE.INTRA.POLAR>
0

>  <SCORE.INTRA.POLAR.0>
0

>  <SCORE.INTRA.REPUL>
0

>  <SCORE.INTRA.REPUL.0>
0

>  <SCORE.INTRA.SOLV>
-4.31223

>  <SCORE.INTRA.SOLV.lig_0>
-124.914

>  <SCORE.INTRA.VDW>
0.654173

>  <SCORE.INTRA.VDW.0>
-4.69801

>  <SCORE.INTRA.norm>
-0.164505

>  <SCORE.RESTR>
0

>  <SCORE.RESTR.CAVITY>
0

>  <SCORE.RESTR.norm>
0

>  <SCORE.SYSTEM>
0

>  <SCORE.SYSTEM.CONST>
0

>  <SCORE.SYSTEM.DIHEDRAL>
0

>  <SCORE.SYSTEM.SOLV>
0

>  <SCORE.SYSTEM.norm>
0

>  <SCORE.heavy>
32

>  <SCORE.norm>
-0.531895

>  <RMSD>
55.459

$$$$
ligand
 OpenBabel11021811513D
libRbt.so/2013.1/901 2013/11/27
 32 34  0  0  0  0  0  0  0  0999 V2000
   35.9243  -28.9131   34.8611 P   0  0  1  0  0  0  0  0  0  0  0  0
   36.2217  -29.6947   37.6055 P   0  0  2  0  0  0  0  0  0  0  0  0
   35.0610  -28.5021   40.0232 P   0  0  1  0  0  0  0  0  0  0  0  0
   35.2751  -27.6694   32.6649 C   0  0  0  0  0  0  0  0  0  0  0  0
   34.8738  -28.0241   33.9576 O   0  0  0  0  0  0  0  0  0  0  0  0
   34.2078  -27.0873   31.9902 C   0  0  1  0  0  0  0  0  0  0  0  0
   33.7910  -25.8078   32.6895 O   0  0  0  0  0  0  0  0  0  0  0  0
   34.6201  -26.6604   30.5070 C   0  0  1  0  0  0  0  0  0  0  0  0
   33.8313  -27.4794   29.5105 O   0  0  0  0  0  0  0  0  0  0  0  0
   34.2650  -25.4862   30.3789 C   0  0  1  0  0  0  0  0  0  0  0  0
   32.9430  -25.4427   29.7094 O   0  0  0  0  0  0  0  0  0  0  0  0
   34.1458  -24.8590   31.9172 C   0  0  2  0  0  0  0  0  0  0  0  0
   38.5312  -22.5482   30.5706 N   0  0  0  0  0  0  0  0  0  0  0  0
   35.9001  -30.3514   34.4060 O   0  5  0  0  0  0  0  0  0  0  0  0
   37.6119  -30.0651   37.1533 O   0  5  0  0  0  0  0  0  0  0  0  0
   34.7460  -29.7997   40.7298 O   0  0  0  0  0  0  0  0  0  0  0  0
   37.5371  -22.9365   29.7872 C   0  0  0  0  0  0  0  0  0  0  0  0
   37.6289  -22.7136   28.3584 N   0  0  0  0  0  0  0  0  0  0  0  0
   37.3089  -28.3232   34.7163 O   0  0  0  0  0  0  0  0  0  0  0  0
   35.4320  -30.9464   37.8853 O   0  0  0  0  0  0  0  0  0  0  0  0
   35.4813  -27.4699   41.0468 O   0  5  0  0  0  0  0  0  0  0  0  0
   36.4586  -23.5231   30.2651 N   0  0  0  0  0  0  0  0  0  0  0  0
   35.4488  -28.8458   36.4321 O   0  0  0  0  0  0  0  0  0  0  0  0
   36.3038  -28.7816   38.9713 O   0  0  0  0  0  0  0  0  0  0  0  0
   33.8292  -28.0341   39.2794 O   0  0  0  0  0  0  0  0  0  0  0  0
   36.3345  -23.7477   31.5787 C   0  0  0  0  0  0  0  0  0  0  0  0
   37.3568  -23.3531   32.4179 C   0  0  0  0  0  0  0  0  0  0  0  0
   38.5000  -22.7271   31.8847 C   0  0  0  0  0  0  0  0  0  0  0  0
   39.5573  -22.3136   32.7143 O   0  0  0  0  0  0  0  0  0  0  0  0
   37.0021  -23.6826   33.6716 N   0  0  0  0  0  0  0  0  0  0  0  0
   35.8130  -24.2563   33.6107 C   0  0  0  0  0  0  0  0  0  0  0  0
   35.3963  -24.3067   32.3593 N   0  0  0  0  0  0  0  0  0  0  0  0
  1  5  1  6  0  0  0
  1 14  1  0  0  0  0
  1 19  2  0  0  0  0
  1 23  1  0  0  0  0
  2 15  1  6  0  0  0
  2 20  2  0  0  0  0
  2 23  1  0  0  0  0
  2 24  1  0  0  0  0
  3 16  1  1  0  0  0
  3 21  1  0  0  0  0
  3 24  1  0  0  0  0
  3 25  2  0  0  0  0
  4  5  1  0  0  0  0
  6  4  1  1  0  0  0
  6  7  1  0  0  0  0
  6  8  1  0  0  0  0
  7 12  1  0  0  0  0
  8  9  1  6  0  0  0
  8 10  1  0  0  0  0
 10 11  1  1  0  0  0
 10 12  1  0  0  0  0
 12 32  1  1  0  0  0
 13 17  2  0  0  0  0
 13 28  1  0  0  0  0
 17 18  1  0  0  0  0
 17 22  1  0  0  0  0
 22 26  2  0  0  0  0
 26 27  1  0  0  0  0
 26 32  1  0  0  0  0
 27 28  2  0  0  0  0
 27 30  1  0  0  0  0
 28 29  1  0  0  0  0
 30 31  2  0  0  0  0
 31 32  1  0  0  0  0
M  CHG  3  14  -1  15  -1  21  -1
M  END
>  <CHROM.1>
-76.94254424,20.73618530,68.72435920,62.82470510,171.95286681,149.75755526
176.37684489,-162.47047007,35.81098568,-26.79632218,34.38155977,1.70671928
0.91435439,2.03568383

>  <Name>
ligand

>  <RI>
0

>  <Rbt.Current_Directory>
/home/itssahil/PROJECTS/Mol_Feturizer/New_Systems/rnas/4Y1I

>  <Rbt.Executable>
rbdock ($Id: //depot/dev/client3/rdock/2013.1/src/exe/rbdock.cxx#4 $)

>  <Rbt.Library>
libRbt.so (2013.1, Build901 2013/11/27)

>  <Rbt.Parameter_File>
/export/apps/rDock/src/rDock_2013.1_src/data/scripts/dock_solv.prm

>  <Rbt.Receptor>
prm/blind_docking_80.prm

>  <SCORE>
-12.1517

>  <SCORE.INTER>
-7.39398

>  <SCORE.INTER.CONST>
1

>  <SCORE.INTER.POLAR>
0

>  <SCORE.INTER.ROT>
8

>  <SCORE.INTER.SOLV>
12.6659

>  <SCORE.INTER.VDW>
-18.0846

>  <SCORE.INTER.norm>
-0.231062

>  <SCORE.INTRA>
-4.75767

>  <SCORE.INTRA.DIHEDRAL>
-6.65929

>  <SCORE.INTRA.DIHEDRAL.0>
10.9594

>  <SCORE.INTRA.POLAR>
0

>  <SCORE.INTRA.POLAR.0>
0

>  <SCORE.INTRA.REPUL>
0

>  <SCORE.INTRA.REPUL.0>
0

>  <SCORE.INTRA.SOLV>
-3.7191

>  <SCORE.INTRA.SOLV.lig_0>
-124.914

>  <SCORE.INTRA.VDW>
0.431523

>  <SCORE.INTRA.VDW.0>
-4.69801

>  <SCORE.INTRA.norm>
-0.148677

>  <SCORE.RESTR>
0

>  <SCORE.RESTR.CAVITY>
0

>  <SCORE.RESTR.norm>
0

>  <SCORE.SYSTEM>
0

>  <SCORE.SYSTEM.CONST>
0

>  <SCORE.SYSTEM.DIHEDRAL>
0

>  <SCORE.SYSTEM.SOLV>
0

>  <SCORE.SYSTEM.norm>
0

>  <SCORE.heavy>
32

>  <SCORE.norm>
-0.379739

>  <RMSD>
55.494

$$$$
ligand
 OpenBabel11021811513D
libRbt.so/2013.1/901 2013/11/27
 32 34  0  0  0  0  0  0  0  0999 V2000
   36.4084  -25.1848   32.3737 P   0  0  1  0  0  0  0  0  0  0  0  0
   38.1758  -25.3620   30.1207 P   0  0  2  0  0  0  0  0  0  0  0  0
   37.0746  -25.2522   27.4021 P   0  0  1  0  0  0  0  0  0  0  0  0
   36.5879  -27.7833   32.2904 C   0  0  0  0  0  0  0  0  0  0  0  0
   35.7351  -26.6774   32.2029 O   0  0  0  0  0  0  0  0  0  0  0  0
   35.8330  -28.9504   32.3273 C   0  0  1  0  0  0  0  0  0  0  0  0
   36.7497  -30.1585   32.3304 O   0  0  0  0  0  0  0  0  0  0  0  0
   34.9774  -29.0476   33.6729 C   0  0  1  0  0  0  0  0  0  0  0  0
   33.5042  -28.9942   33.3369 O   0  0  0  0  0  0  0  0  0  0  0  0
   35.2058  -30.1650   34.1424 C   0  0  1  0  0  0  0  0  0  0  0  0
   34.1280  -31.0985   33.7363 O   0  0  0  0  0  0  0  0  0  0  0  0
   36.6602  -30.6589   33.4983 C   0  0  2  0  0  0  0  0  0  0  0  0
   38.5182  -30.0104   38.2431 N   0  0  0  0  0  0  0  0  0  0  0  0
   35.3806  -24.2181   32.9078 O   0  5  0  0  0  0  0  0  0  0  0  0
   38.8187  -26.4051   30.9998 O   0  5  0  0  0  0  0  0  0  0  0  0
   36.6846  -26.2785   26.3643 O   0  0  0  0  0  0  0  0  0  0  0  0
   37.3333  -30.4804   37.8858 C   0  0  0  0  0  0  0  0  0  0  0  0
   36.3896  -30.8826   38.9092 N   0  0  0  0  0  0  0  0  0  0  0  0
   37.5905  -25.2897   33.3107 O   0  0  0  0  0  0  0  0  0  0  0  0
   39.1810  -24.2891   29.7933 O   0  0  0  0  0  0  0  0  0  0  0  0
   35.8540  -24.4422   27.7812 O   0  5  0  0  0  0  0  0  0  0  0  0
   36.9793  -30.5963   36.6221 N   0  0  0  0  0  0  0  0  0  0  0  0
   36.9087  -24.6652   30.8978 O   0  0  0  0  0  0  0  0  0  0  0  0
   37.6428  -26.0571   28.7283 O   0  0  0  0  0  0  0  0  0  0  0  0
   38.1457  -24.3516   26.8267 O   0  0  0  0  0  0  0  0  0  0  0  0
   37.8213  -30.2359   35.6461 C   0  0  0  0  0  0  0  0  0  0  0  0
   39.0631  -29.7421   35.9913 C   0  0  0  0  0  0  0  0  0  0  0  0
   39.4202  -29.6278   37.3487 C   0  0  0  0  0  0  0  0  0  0  0  0
   40.6779  -29.1290   37.7311 O   0  0  0  0  0  0  0  0  0  0  0  0
   39.7160  -29.4547   34.8522 N   0  0  0  0  0  0  0  0  0  0  0  0
   38.9132  -29.7568   33.8467 C   0  0  0  0  0  0  0  0  0  0  0  0
   37.7676  -30.2258   34.3049 N   0  0  0  0  0  0  0  0  0  0  0  0
  1  5  1  6  0  0  0
  1 14  1  0  0  0  0
  1 19  2  0  0  0  0
  1 23  1  0  0  0  0
  2 15  1  1  0  0  0
  2 20  2  0  0  0  0
  2 23  1  0  0  0  0
  2 24  1  0  0  0  0
  3 16  1  6  0  0  0
  3 21  1  0  0  0  0
  3 24  1  0  0  0  0
  3 25  2  0  0  0  0
  4  5  1  0  0  0  0
  6  4  1  1  0  0  0
  6  7  1  0  0  0  0
  6  8  1  0  0  0  0
  7 12  1  0  0  0  0
  8  9  1  6  0  0  0
  8 10  1  0  0  0  0
 10 11  1  6  0  0  0
 10 12  1  0  0  0  0
 12 32  1  1  0  0  0
 13 17  2  0  0  0  0
 13 28  1  0  0  0  0
 17 18  1  0  0  0  0
 17 22  1  0  0  0  0
 22 26  2  0  0  0  0
 26 27  1  0  0  0  0
 26 32  1  0  0  0  0
 27 28  2  0  0  0  0
 27 30  1  0  0  0  0
 28 29  1  0  0  0  0
 30 31  2  0  0  0  0
 31 32  1  0  0  0  0
M  CHG  3  14  -1  15  -1  21  -1
M  END
>  <CHROM.1>
-152.89611761,-4.60931834,-179.49162135,176.30477085,171.04365564,160.29582957
-69.25252196,-170.78154411,37.15836155,-27.58548371,32.54894734,-1.61598134
0.51187387,2.17023127

>  <Name>
ligand

>  <RI>
0

>  <Rbt.Current_Directory>
/home/itssahil/PROJECTS/Mol_Feturizer/New_Systems/rnas/4Y1I

>  <Rbt.Executable>
rbdock ($Id: //depot/dev/client3/rdock/2013.1/src/exe/rbdock.cxx#4 $)

>  <Rbt.Library>
libRbt.so (2013.1, Build901 2013/11/27)

>  <Rbt.Parameter_File>
/export/apps/rDock/src/rDock_2013.1_src/data/scripts/dock_solv.prm

>  <Rbt.Receptor>
prm/blind_docking_80.prm

>  <SCORE>
-7.82606

>  <SCORE.INTER>
-4.16637

>  <SCORE.INTER.CONST>
1

>  <SCORE.INTER.POLAR>
0

>  <SCORE.INTER.ROT>
8

>  <SCORE.INTER.SOLV>
15.5458

>  <SCORE.INTER.VDW>
-16.8929

>  <SCORE.INTER.norm>
-0.130199

>  <SCORE.INTRA>
-3.65969

>  <SCORE.INTRA.DIHEDRAL>
-5.59499

>  <SCORE.INTRA.DIHEDRAL.0>
10.9594

>  <SCORE.INTRA.POLAR>
0

>  <SCORE.INTRA.POLAR.0>
0

>  <SCORE.INTRA.REPUL>
0

>  <SCORE.INTRA.REPUL.0>
0

>  <SCORE.INTRA.SOLV>
-2.69578

>  <SCORE.INTRA.SOLV.lig_0>
-124.914

>  <SCORE.INTRA.VDW>
0.48569

>  <SCORE.INTRA.VDW.0>
-4.69801

>  <SCORE.INTRA.norm>
-0.114365

>  <SCORE.RESTR>
0

>  <SCORE.RESTR.CAVITY>
0

>  <SCORE.RESTR.norm>
0

>  <SCORE.SYSTEM>
0

>  <SCORE.SYSTEM.CONST>
0

>  <SCORE.SYSTEM.DIHEDRAL>
0

>  <SCORE.SYSTEM.SOLV>
0

>  <SCORE.SYSTEM.norm>
0

>  <SCORE.heavy>
32

>  <SCORE.norm>
-0.244564

>  <RMSD>
55.530

$$$$
ligand
 OpenBabel11021811513D
libRbt.so/2013.1/901 2013/11/27
 32 34  0  0  0  0  0  0  0  0999 V2000
   34.8866  -25.1311   31.9184 P   0  0  1  0  0  0  0  0  0  0  0  0
   36.5569  -26.3956   29.9583 P   0  0  2  0  0  0  0  0  0  0  0  0
   37.0840  -25.3310   27.2743 P   0  0  1  0  0  0  0  0  0  0  0  0
   36.9025  -25.9909   33.3286 C   0  0  0  0  0  0  0  0  0  0  0  0
   36.2150  -24.8681   32.8546 O   0  0  0  0  0  0  0  0  0  0  0  0
   38.2161  -25.6420   33.6216 C   0  0  1  0  0  0  0  0  0  0  0  0
   38.2608  -24.8254   34.8988 O   0  0  0  0  0  0  0  0  0  0  0  0
   39.1137  -26.9344   33.8975 C   0  0  1  0  0  0  0  0  0  0  0  0
   40.1732  -27.0489   32.8249 O   0  0  0  0  0  0  0  0  0  0  0  0
   39.6945  -26.7246   34.9651 C   0  0  1  0  0  0  0  0  0  0  0  0
   41.0537  -26.2001   34.6906 O   0  0  0  0  0  0  0  0  0  0  0  0
   38.7948  -25.5804   35.7747 C   0  0  2  0  0  0  0  0  0  0  0  0
   35.7873  -29.6752   36.5318 N   0  0  0  0  0  0  0  0  0  0  0  0
   34.1812  -26.3852   32.3722 O   0  5  0  0  0  0  0  0  0  0  0  0
   36.2748  -27.7460   30.5676 O   0  5  0  0  0  0  0  0  0  0  0  0
   36.2507  -24.1073   27.5753 O   0  0  0  0  0  0  0  0  0  0  0  0
   36.6785  -29.4810   35.5722 C   0  0  0  0  0  0  0  0  0  0  0  0
   36.8850  -30.5112   34.5744 N   0  0  0  0  0  0  0  0  0  0  0  0
   33.9742  -23.9299   32.0218 O   0  0  0  0  0  0  0  0  0  0  0  0
   37.8688  -25.8709   30.4802 O   0  0  0  0  0  0  0  0  0  0  0  0
   38.5456  -24.9982   27.4809 O   0  5  0  0  0  0  0  0  0  0  0  0
   37.3899  -28.3751   35.4922 N   0  0  0  0  0  0  0  0  0  0  0  0
   35.3750  -25.3306   30.3627 O   0  0  0  0  0  0  0  0  0  0  0  0
   36.6318  -26.5271   28.3203 O   0  0  0  0  0  0  0  0  0  0  0  0
   36.8384  -25.7549   25.8427 O   0  0  0  0  0  0  0  0  0  0  0  0
   37.2295  -27.3988   36.3937 C   0  0  0  0  0  0  0  0  0  0  0  0
   36.3064  -27.5755   37.4045 C   0  0  0  0  0  0  0  0  0  0  0  0
   35.5577  -28.7664   37.4707 C   0  0  0  0  0  0  0  0  0  0  0  0
   34.6107  -28.9754   38.4887 O   0  0  0  0  0  0  0  0  0  0  0  0
   36.3293  -26.4724   38.1718 N   0  0  0  0  0  0  0  0  0  0  0  0
   37.2267  -25.6492   37.6581 C   0  0  0  0  0  0  0  0  0  0  0  0
   37.7769  -26.1884   36.5862 N   0  0  0  0  0  0  0  0  0  0  0  0
  1  5  1  1  0  0  0
  1 14  1  0  0  0  0
  1 19  2  0  0  0  0
  1 23  1  0  0  0  0
  2 15  1  1  0  0  0
  2 20  2  0  0  0  0
  2 23  1  0  0  0  0
  2 24  1  0  0  0  0
  3 16  1  1  0  0  0
  3 21  1  0  0  0  0
  3 24  1  0  0  0  0
  3 25  2  0  0  0  0
  4  5  1  0  0  0  0
  6  4  1  1  0  0  0
  6  7  1  0  0  0  0
  6  8  1  0  0  0  0
  7 12  1  0  0  0  0
  8  9  1  6  0  0  0
  8 10  1  0  0  0  0
 10 11  1  6  0  0  0
 10 12  1  0  0  0  0
 12 32  1  6  0  0  0
 13 17  2  0  0  0  0
 13 28  1  0  0  0  0
 17 18  1  0  0  0  0
 17 22  1  0  0  0  0
 22 26  2  0  0  0  0
 26 27  1  0  0  0  0
 26 32  1  0  0  0  0
 27 28  2  0  0  0  0
 27 30  1  0  0  0  0
 28 29  1  0  0  0  0
 30 31  2  0  0  0  0
 31 32  1  0  0  0  0
M  CHG  3  14  -1  15  -1  21  -1
M  END
>  <CHROM.1>
33.59839807,50.07701994,-52.52802201,73.87785654,156.70738433,94.78171857
51.25687859,-172.76726533,36.92248056,-26.42250125,32.75217240,1.59542212
-0.09132371,-1.31334052

>  <Name>
ligand

>  <RI>
0

>  <Rbt.Current_Directory>
/home/itssahil/PROJECTS/Mol_Feturizer/New_Systems/rnas/4Y1I

>  <Rbt.Executable>
rbdock ($Id: //depot/dev/client3/rdock/2013.1/src/exe/rbdock.cxx#4 $)

>  <Rbt.Library>
libRbt.so (2013.1, Build901 2013/11/27)

>  <Rbt.Parameter_File>
/export/apps/rDock/src/rDock_2013.1_src/data/scripts/dock_solv.prm

>  <Rbt.Receptor>
prm/blind_docking_80.prm

>  <SCORE>
-7.36413

>  <SCORE.INTER>
-3.35574

>  <SCORE.INTER.CONST>
1

>  <SCORE.INTER.POLAR>
0

>  <SCORE.INTER.ROT>
8

>  <SCORE.INTER.SOLV>
19.0393

>  <SCORE.INTER.VDW>
-17.5169

>  <SCORE.INTER.norm>
-0.104867

>  <SCORE.INTRA>
-4.01928

>  <SCORE.INTRA.DIHEDRAL>
-5.31857

>  <SCORE.INTRA.DIHEDRAL.0>
10.9594

>  <SCORE.INTRA.POLAR>
0

>  <SCORE.INTRA.POLAR.0>
0

>  <SCORE.INTRA.REPUL>
0

>  <SCORE.INTRA.REPUL.0>
0

>  <SCORE.INTRA.SOLV>
-1.77876

>  <SCORE.INTRA.SOLV.lig_0>
-124.914

>  <SCORE.INTRA.VDW>
-0.470617

>  <SCORE.INTRA.VDW.0>
-4.69801

>  <SCORE.INTRA.norm>
-0.125603

>  <SCORE.RESTR>
0.0108935

>  <SCORE.RESTR.CAVITY>
0.0108935

>  <SCORE.RESTR.norm>
0.000340422

>  <SCORE.SYSTEM>
0

>  <SCORE.SYSTEM.CONST>
0

>  <SCORE.SYSTEM.DIHEDRAL>
0

>  <SCORE.SYSTEM.SOLV>
0

>  <SCORE.SYSTEM.norm>
0

>  <SCORE.heavy>
32

>  <SCORE.norm>
-0.230129

>  <RMSD>
55.565

$$$$
ligand
 OpenBabel11021811513D
libRbt.so/2013.1/901 2013/11/27
 32 34  0  0  0  0  0  0  0  0999 V2000
   35.2216  -28.5934   34.4287 P   0  0  1  0  0  0  0  0  0  0  0  0
   35.8504  -28.8249   37.2183 P   0  0  2  0  0  0  0  0  0  0  0  0
   38.7450  -29.0956   37.6227 P   0  0  1  0  0  0  0  0  0  0  0  0
   36.4946  -26.4483   33.6740 C   0  0  0  0  0  0  0  0  0  0  0  0
   36.6067  -27.7959   34.0340 O   0  0  0  0  0  0  0  0  0  0  0  0
   37.5827  -25.7418   34.1741 C   0  0  1  0  0  0  0  0  0  0  0  0
   38.8712  -26.3161   33.6175 O   0  0  0  0  0  0  0  0  0  0  0  0
   37.5481  -24.2140   33.7084 C   0  0  1  0  0  0  0  0  0  0  0  0
   37.3681  -23.3239   34.9173 O   0  0  0  0  0  0  0  0  0  0  0  0
   38.6639  -23.9748   33.2403 C   0  0  1  0  0  0  0  0  0  0  0  0
   39.5056  -23.3339   34.2789 O   0  0  0  0  0  0  0  0  0  0  0  0
   39.3170  -25.4435   32.8037 C   0  0  2  0  0  0  0  0  0  0  0  0
   38.9054  -23.8966   27.9228 N   0  0  0  0  0  0  0  0  0  0  0  0
   34.0816  -28.0905   33.5781 O   0  5  0  0  0  0  0  0  0  0  0  0
   35.6666  -30.3074   37.4249 O   0  5  0  0  0  0  0  0  0  0  0  0
   38.7375  -28.5450   39.0295 O   0  0  0  0  0  0  0  0  0  0  0  0
   39.3091  -23.1966   28.9715 C   0  0  0  0  0  0  0  0  0  0  0  0
   39.7000  -21.8125   28.7949 N   0  0  0  0  0  0  0  0  0  0  0  0
   35.4387  -30.0753   34.2209 O   0  0  0  0  0  0  0  0  0  0  0  0
   35.4819  -28.0901   38.4805 O   0  0  0  0  0  0  0  0  0  0  0  0
   38.6731  -30.6059   37.6812 O   0  5  0  0  0  0  0  0  0  0  0  0
   39.3685  -23.7186   30.1796 N   0  0  0  0  0  0  0  0  0  0  0  0
   34.8780  -28.2942   36.0070 O   0  0  0  0  0  0  0  0  0  0  0  0
   37.4179  -28.5049   36.8356 O   0  0  0  0  0  0  0  0  0  0  0  0
   40.0153  -28.6560   36.9279 O   0  0  0  0  0  0  0  0  0  0  0  0
   39.0161  -24.9933   30.3857 C   0  0  0  0  0  0  0  0  0  0  0  0
   38.5910  -25.7455   29.3093 C   0  0  0  0  0  0  0  0  0  0  0  0
   38.5364  -25.1667   28.0267 C   0  0  0  0  0  0  0  0  0  0  0  0
   38.1081  -25.9077   26.9112 O   0  0  0  0  0  0  0  0  0  0  0  0
   38.2977  -26.9754   29.7649 N   0  0  0  0  0  0  0  0  0  0  0  0
   38.5306  -26.9837   31.0658 C   0  0  0  0  0  0  0  0  0  0  0  0
   38.9610  -25.7990   31.4579 N   0  0  0  0  0  0  0  0  0  0  0  0
  1  5  1  6  0  0  0
  1 14  1  0  0  0  0
  1 19  2  0  0  0  0
  1 23  1  0  0  0  0
  2 15  1  1  0  0  0
  2 20  2  0  0  0  0
  2 23  1  0  0  0  0
  2 24  1  0  0  0  0
  3 16  1  1  0  0  0
  3 21  1  0  0  0  0
  3 24  1  0  0  0  0
  3 25  2  0  0  0  0
  4  5  1  0  0  0  0
  6  4  1  6  0  0  0
  6  7  1  0  0  0  0
  6  8  1  0  0  0  0
  7 12  1  0  0  0  0
  8  9  1  1  0  0  0
  8 10  1  0  0  0  0
 10 11  1  1  0  0  0
 10 12  1  0  0  0  0
 12 32  1  6  0  0  0
 13 17  2  0  0  0  0
 13 28  1  0  0  0  0
 17 18  1  0  0  0  0
 17 22  1  0  0  0  0
 22 26  2  0  0  0  0
 26 27  1  0  0  0  0
 26 32  1  0  0  0  0
 27 28  2  0  0  0  0
 27 30  1  0  0  0  0
 28 29  1  0  0  0  0
 30 31  2  0  0  0  0
 31 32  1  0  0  0  0
M  CHG  3  14  -1  15  -1  21  -1
M  END
>  <CHROM.1>
35.12456673,-75.15312643,-64.54816291,59.32279710,142.58688801,165.30904733
-65.66791363,-47.30401772,37.62295661,-26.84792982,33.81897483,1.88438433
0.79104552,1.88971662

>  <Name>
ligand

>  <RI>
0

>  <Rbt.Current_Directory>
/home/itssahil/PROJECTS/Mol_Feturizer/New_Systems/rnas/4Y1I

>  <Rbt.Executable>
rbdock ($Id: //depot/dev/client3/rdock/2013.1/src/exe/rbdock.cxx#4 $)

>  <Rbt.Library>
libRbt.so (2013.1, Build901 2013/11/27)

>  <Rbt.Parameter_File>
/export/apps/rDock/src/rDock_2013.1_src/data/scripts/dock_solv.prm

>  <Rbt.Receptor>
prm/blind_docking_100.prm

>  <SCORE>
-10.9931

>  <SCORE.INTER>
-6.43513

>  <SCORE.INTER.CONST>
1

>  <SCORE.INTER.POLAR>
0

>  <SCORE.INTER.ROT>
8

>  <SCORE.INTER.SOLV>
17.2944

>  <SCORE.INTER.VDW>
-18.9882

>  <SCORE.INTER.norm>
-0.201098

>  <SCORE.INTRA>
-4.55802

>  <SCORE.INTRA.DIHEDRAL>
-3.27039

>  <SCORE.INTRA.DIHEDRAL.0>
10.9594

>  <SCORE.INTRA.POLAR>
0

>  <SCORE.INTRA.POLAR.0>
0

>  <SCORE.INTRA.REPUL>
0

>  <SCORE.INTRA.REPUL.0>
0

>  <SCORE.INTRA.SOLV>
-5.4522

>  <SCORE.INTRA.SOLV.lig_0>
-124.914

>  <SCORE.INTRA.VDW>
-0.196727

>  <SCORE.INTRA.VDW.0>
-4.69801

>  <SCORE.INTRA.norm>
-0.142438

>  <SCORE.RESTR>
0

>  <SCORE.RESTR.CAVITY>
0

>  <SCORE.RESTR.norm>
0

>  <SCORE.SYSTEM>
0

>  <SCORE.SYSTEM.CONST>
0

>  <SCORE.SYSTEM.DIHEDRAL>
0

>  <SCORE.SYSTEM.SOLV>
0

>  <SCORE.SYSTEM.norm>
0

>  <SCORE.heavy>
32

>  <SCORE.norm>
-0.343536

>  <RMSD>
55.702

$$$$
ligand
 OpenBabel11021811513D
libRbt.so/2013.1/901 2013/11/27
 32 34  0  0  0  0  0  0  0  0999 V2000
   39.8737  -25.1757   31.1921 P   0  0  1  0  0  0  0  0  0  0  0  0
   39.5875  -25.0632   28.3397 P   0  0  2  0  0  0  0  0  0  0  0  0
   39.4884  -22.6308   26.6999 P   0  0  1  0  0  0  0  0  0  0  0  0
   38.5676  -27.3280   31.8651 C   0  0  0  0  0  0  0  0  0  0  0  0
   38.4696  -25.9918   31.4616 O   0  0  0  0  0  0  0  0  0  0  0  0
   37.2972  -27.8283   32.1282 C   0  0  1  0  0  0  0  0  0  0  0  0
   37.3975  -29.2596   32.6194 O   0  0  0  0  0  0  0  0  0  0  0  0
   36.5821  -27.0128   33.3011 C   0  0  1  0  0  0  0  0  0  0  0  0
   35.3695  -26.2977   32.7494 O   0  0  0  0  0  0  0  0  0  0  0  0
   36.1761  -27.8561   34.1045 C   0  0  1  0  0  0  0  0  0  0  0  0
   34.7478  -28.1459   33.8329 O   0  0  0  0  0  0  0  0  0  0  0  0
   37.0927  -29.2242   33.8557 C   0  0  2  0  0  0  0  0  0  0  0  0
   39.0931  -28.8344   38.5707 N   0  0  0  0  0  0  0  0  0  0  0  0
   39.6266  -23.6900   31.2787 O   0  5  0  0  0  0  0  0  0  0  0  0
   38.1113  -25.3196   28.5106 O   0  5  0  0  0  0  0  0  0  0  0  0
   39.6056  -21.1540   26.9962 O   0  0  0  0  0  0  0  0  0  0  0  0
   37.8183  -28.7886   38.2167 C   0  0  0  0  0  0  0  0  0  0  0  0
   36.8034  -28.6080   39.2350 N   0  0  0  0  0  0  0  0  0  0  0  0
   40.8949  -25.6148   32.2171 O   0  0  0  0  0  0  0  0  0  0  0  0
   40.1036  -25.8507   27.1640 O   0  0  0  0  0  0  0  0  0  0  0  0
   40.4748  -22.9979   25.6128 O   0  5  0  0  0  0  0  0  0  0  0  0
   37.4370  -28.9025   36.9608 N   0  0  0  0  0  0  0  0  0  0  0  0
   40.4066  -25.5375   29.6809 O   0  0  0  0  0  0  0  0  0  0  0  0
   39.8493  -23.4596   28.0827 O   0  0  0  0  0  0  0  0  0  0  0  0
   38.0751  -22.9331   26.2517 O   0  0  0  0  0  0  0  0  0  0  0  0
   38.3427  -29.0704   35.9897 C   0  0  0  0  0  0  0  0  0  0  0  0
   39.6790  -29.1212   36.3315 C   0  0  0  0  0  0  0  0  0  0  0  0
   40.0632  -28.9979   37.6807 C   0  0  0  0  0  0  0  0  0  0  0  0
   41.4163  -29.0463   38.0597 O   0  0  0  0  0  0  0  0  0  0  0  0
   40.3809  -29.2936   35.1985 N   0  0  0  0  0  0  0  0  0  0  0  0
   39.5171  -29.3467   34.1997 C   0  0  0  0  0  0  0  0  0  0  0  0
   38.2859  -29.2116   34.6560 N   0  0  0  0  0  0  0  0  0  0  0  0
  1  5  1  1  0  0  0
  1 14  1  0  0  0  0
  1 19  2  0  0  0  0
  1 23  1  0  0  0  0
  2 15  1  1  0  0  0
  2 20  2  0  0  0  0
  2 23  1  0  0  0  0
  2 24  1  0  0  0  0
  3 16  1  1  0  0  0
  3 21  1  0  0  0  0
  3 24  1  0  0  0  0
  3 25  2  0  0  0  0
  4  5  1  0  0  0  0
  6  4  1  1  0  0  0
  6  7  1  0  0  0  0
  6  8  1  0  0  0  0
  7 12  1  0  0  0  0
  8  9  1  6  0  0  0
  8 10  1  0  0  0  0
 10 11  1  6  0  0  0
 10 12  1  0  0  0  0
 12 32  1  1  0  0  0
 13 17  2  0  0  0  0
 13 28  1  0  0  0  0
 17 18  1  0  0  0  0
 17 22  1  0  0  0  0
 22 26  2  0  0  0  0
 26 27  1  0  0  0  0
 26 32  1  0  0  0  0
 27 28  2  0  0  0  0
 27 30  1  0  0  0  0
 28 29  1  0  0  0  0
 30 31  2  0  0  0  0
 31 32  1  0  0  0  0
M  CHG  3  14  -1  15  -1  21  -1
M  END
>  <CHROM.1>
-158.93510255,-44.72595742,167.73901498,-177.76054802,176.16967063,174.40143539
66.93021696,-72.27808569,38.76396688,-26.42037836,32.00804381,-1.45673545
0.19372873,2.07828722

>  <Name>
ligand

>  <RI>
0

>  <Rbt.Current_Directory>
/home/itssahil/PROJECTS/Mol_Feturizer/New_Systems/rnas/4Y1I

>  <Rbt.Executable>
rbdock ($Id: //depot/dev/client3/rdock/2013.1/src/exe/rbdock.cxx#4 $)

>  <Rbt.Library>
libRbt.so (2013.1, Build901 2013/11/27)

>  <Rbt.Parameter_File>
/export/apps/rDock/src/rDock_2013.1_src/data/scripts/dock_solv.prm

>  <Rbt.Receptor>
prm/blind_docking_80.prm

>  <SCORE>
-13.4277

>  <SCORE.INTER>
-8.30944

>  <SCORE.INTER.CONST>
1

>  <SCORE.INTER.POLAR>
0

>  <SCORE.INTER.ROT>
8

>  <SCORE.INTER.SOLV>
27.6091

>  <SCORE.INTER.VDW>
-23.676

>  <SCORE.INTER.norm>
-0.25967

>  <SCORE.INTRA>
-5.11821

>  <SCORE.INTRA.DIHEDRAL>
-7.99386

>  <SCORE.INTRA.DIHEDRAL.0>
10.9594

>  <SCORE.INTRA.POLAR>
0

>  <SCORE.INTRA.POLAR.0>
0

>  <SCORE.INTRA.REPUL>
0

>  <SCORE.INTRA.REPUL.0>
0

>  <SCORE.INTRA.SOLV>
-3.22242

>  <SCORE.INTRA.SOLV.lig_0>
-124.914

>  <SCORE.INTRA.VDW>
0.489926

>  <SCORE.INTRA.VDW.0>
-4.69801

>  <SCORE.INTRA.norm>
-0.159944

>  <SCORE.RESTR>
0

>  <SCORE.RESTR.CAVITY>
0

>  <SCORE.RESTR.norm>
0

>  <SCORE.SYSTEM>
0

>  <SCORE.SYSTEM.CONST>
0

>  <SCORE.SYSTEM.DIHEDRAL>
0

>  <SCORE.SYSTEM.SOLV>
0

>  <SCORE.SYSTEM.norm>
0

>  <SCORE.heavy>
32

>  <SCORE.norm>
-0.419614

>  <RMSD>
55.735

$$$$
ligand
 OpenBabel11021811513D
libRbt.so/2013.1/901 2013/11/27
 32 34  0  0  0  0  0  0  0  0999 V2000
   36.0457  -30.2232   34.6165 P   0  0  1  0  0  0  0  0  0  0  0  0
   36.5755  -28.8284   37.0670 P   0  0  2  0  0  0  0  0  0  0  0  0
   35.3316  -30.1020   39.4006 P   0  0  1  0  0  0  0  0  0  0  0  0
   34.6088  -28.0889   34.2019 C   0  0  0  0  0  0  0  0  0  0  0  0
   34.5933  -29.4648   34.4563 O   0  0  0  0  0  0  0  0  0  0  0  0
   33.9788  -27.8335   32.9890 C   0  0  1  0  0  0  0  0  0  0  0  0
   33.7481  -26.3430   32.8309 O   0  0  0  0  0  0  0  0  0  0  0  0
   34.8954  -28.2673   31.7546 C   0  0  1  0  0  0  0  0  0  0  0  0
   34.2287  -29.3999   31.0070 O   0  0  0  0  0  0  0  0  0  0  0  0
   34.9272  -27.2958   30.9954 C   0  0  1  0  0  0  0  0  0  0  0  0
   33.9141  -27.4731   29.9276 O   0  0  0  0  0  0  0  0  0  0  0  0
   34.5532  -25.9621   31.9202 C   0  0  2  0  0  0  0  0  0  0  0  0
   38.3382  -22.5191   31.4679 N   0  0  0  0  0  0  0  0  0  0  0  0
   35.8533  -31.5603   35.2882 O   0  5  0  0  0  0  0  0  0  0  0  0
   35.5300  -27.7439   36.9941 O   0  5  0  0  0  0  0  0  0  0  0  0
   36.2901  -29.3605   40.3027 O   0  0  0  0  0  0  0  0  0  0  0  0
   37.3549  -22.7701   30.6178 C   0  0  0  0  0  0  0  0  0  0  0  0
   37.2728  -22.0168   29.3828 N   0  0  0  0  0  0  0  0  0  0  0  0
   36.6601  -30.3902   33.2451 O   0  0  0  0  0  0  0  0  0  0  0  0
   37.7942  -28.3069   37.7822 O   0  0  0  0  0  0  0  0  0  0  0  0
   34.0057  -29.3731   39.3804 O   0  5  0  0  0  0  0  0  0  0  0  0
   36.4409  -23.6882   30.8574 N   0  0  0  0  0  0  0  0  0  0  0  0
   37.0200  -29.2927   35.5566 O   0  0  0  0  0  0  0  0  0  0  0  0
   35.9767  -30.1270   37.8799 O   0  0  0  0  0  0  0  0  0  0  0  0
   35.1501  -31.5097   39.9250 O   0  0  0  0  0  0  0  0  0  0  0  0
   36.4807  -24.4064   31.9862 C   0  0  0  0  0  0  0  0  0  0  0  0
   37.4960  -24.1650   32.8896 C   0  0  0  0  0  0  0  0  0  0  0  0
   38.4616  -23.1781   32.6127 C   0  0  0  0  0  0  0  0  0  0  0  0
   39.5069  -22.9093   33.5137 O   0  0  0  0  0  0  0  0  0  0  0  0
   37.3217  -25.0004   33.9279 N   0  0  0  0  0  0  0  0  0  0  0  0
   36.2464  -25.7269   33.6777 C   0  0  0  0  0  0  0  0  0  0  0  0
   35.7283  -25.3855   32.5126 N   0  0  0  0  0  0  0  0  0  0  0  0
  1  5  1  6  0  0  0
  1 14  1  0  0  0  0
  1 19  2  0  0  0  0
  1 23  1  0  0  0  0
  2 15  1  6  0  0  0
  2 20  2  0  0  0  0
  2 23  1  0  0  0  0
  2 24  1  0  0  0  0
  3 16  1  1  0  0  0
  3 21  1  0  0  0  0
  3 24  1  0  0  0  0
  3 25  2  0  0  0  0
  4  5  1  0  0  0  0
  6  4  1  1  0  0  0
  6  7  1  0  0  0  0
  6  8  1  0  0  0  0
  7 12  1  0  0  0  0
  8  9  1  6  0  0  0
  8 10  1  0  0  0  0
 10 11  1  6  0  0  0
 10 12  1  0  0  0  0
 12 32  1  1  0  0  0
 13 17  2  0  0  0  0
 13 28  1  0  0  0  0
 17 18  1  0  0  0  0
 17 22  1  0  0  0  0
 22 26  2  0  0  0  0
 26 27  1  0  0  0  0
 26 32  1  0  0  0  0
 27 28  2  0  0  0  0
 27 30  1  0  0  0  0
 28 29  1  0  0  0  0
 30 31  2  0  0  0  0
 31 32  1  0  0  0  0
M  CHG  3  14  -1  15  -1  21  -1
M  END
>  <CHROM.1>
162.79642007,-74.44209154,-49.15661049,168.99417082,119.76335550,-149.06186918
56.32691149,-55.18234105,35.98026418,-27.55115139,34.51521166,1.78377774
0.99230081,2.09900686

>  <Name>
ligand

>  <RI>
0

>  <Rbt.Current_Directory>
/home/itssahil/PROJECTS/Mol_Feturizer/New_Systems/rnas/4Y1I

>  <Rbt.Executable>
rbdock ($Id: //depot/dev/client3/rdock/2013.1/src/exe/rbdock.cxx#4 $)

>  <Rbt.Library>
libRbt.so (2013.1, Build901 2013/11/27)

>  <Rbt.Parameter_File>
/export/apps/rDock/src/rDock_2013.1_src/data/scripts/dock_solv.prm

>  <Rbt.Receptor>
prm/blind_docking_100.prm

>  <SCORE>
-7.10193

>  <SCORE.INTER>
-5.06723

>  <SCORE.INTER.CONST>
1

>  <SCORE.INTER.POLAR>
0

>  <SCORE.INTER.ROT>
8

>  <SCORE.INTER.SOLV>
16.5204

>  <SCORE.INTER.VDW>
-17.8183

>  <SCORE.INTER.norm>
-0.158351

>  <SCORE.INTRA>
-2.04318

>  <SCORE.INTRA.DIHEDRAL>
-1.13806

>  <SCORE.INTRA.DIHEDRAL.0>
10.9594

>  <SCORE.INTRA.POLAR>
0

>  <SCORE.INTRA.POLAR.0>
0

>  <SCORE.INTRA.REPUL>
0

>  <SCORE.INTRA.REPUL.0>
0

>  <SCORE.INTRA.SOLV>
-2.47733

>  <SCORE.INTRA.SOLV.lig_0>
-124.914

>  <SCORE.INTRA.VDW>
-0.235486

>  <SCORE.INTRA.VDW.0>
-4.69801

>  <SCORE.INTRA.norm>
-0.0638493

>  <SCORE.RESTR>
0.008486

>  <SCORE.RESTR.CAVITY>
0.008486

>  <SCORE.RESTR.norm>
0.000265187

>  <SCORE.SYSTEM>
0

>  <SCORE.SYSTEM.CONST>
0

>  <SCORE.SYSTEM.DIHEDRAL>
0

>  <SCORE.SYSTEM.SOLV>
0

>  <SCORE.SYSTEM.norm>
0

>  <SCORE.heavy>
32

>  <SCORE.norm>
-0.221935

>  <RMSD>
55.739

$$$$
ligand
 OpenBabel11021811513D
libRbt.so/2013.1/901 2013/11/27
 32 34  0  0  0  0  0  0  0  0999 V2000
   35.0858  -28.0335   31.8538 P   0  0  1  0  0  0  0  0  0  0  0  0
   35.3040  -26.1858   29.6699 P   0  0  2  0  0  0  0  0  0  0  0  0
   37.8023  -25.7548   28.1907 P   0  0  1  0  0  0  0  0  0  0  0  0
   37.4156  -28.5777   32.8869 C   0  0  0  0  0  0  0  0  0  0  0  0
   36.1083  -29.0291   32.6745 O   0  0  0  0  0  0  0  0  0  0  0  0
   38.1359  -29.5476   33.5752 C   0  0  1  0  0  0  0  0  0  0  0  0
   39.5895  -29.1295   33.6861 O   0  0  0  0  0  0  0  0  0  0  0  0
   37.6112  -29.7065   35.0758 C   0  0  1  0  0  0  0  0  0  0  0  0
   37.0199  -31.0860   35.2581 O   0  0  0  0  0  0  0  0  0  0  0  0
   38.6105  -29.6381   35.7955 C   0  0  1  0  0  0  0  0  0  0  0  0
   39.0744  -31.0074   36.1237 O   0  0  0  0  0  0  0  0  0  0  0  0
   39.7742  -28.8383   34.9123 C   0  0  2  0  0  0  0  0  0  0  0  0
   37.8896  -24.9815   37.7335 N   0  0  0  0  0  0  0  0  0  0  0  0
   33.8593  -28.8005   31.4254 O   0  5  0  0  0  0  0  0  0  0  0  0
   35.4255  -24.9302   30.4963 O   0  5  0  0  0  0  0  0  0  0  0  0
   38.5105  -26.9300   28.8229 O   0  0  0  0  0  0  0  0  0  0  0  0
   37.7150  -26.2825   37.9060 C   0  0  0  0  0  0  0  0  0  0  0  0
   36.9014  -26.7507   39.0098 N   0  0  0  0  0  0  0  0  0  0  0  0
   34.7131  -26.8743   32.7502 O   0  0  0  0  0  0  0  0  0  0  0  0
   33.8569  -26.4267   29.3282 O   0  0  0  0  0  0  0  0  0  0  0  0
   38.2193  -25.6470   26.7401 O   0  5  0  0  0  0  0  0  0  0  0  0
   38.2595  -27.1735   37.1027 N   0  0  0  0  0  0  0  0  0  0  0  0
   35.8593  -27.4791   30.5147 O   0  0  0  0  0  0  0  0  0  0  0  0
   36.1756  -26.0281   28.2838 O   0  0  0  0  0  0  0  0  0  0  0  0
   38.1739  -24.4939   28.9400 O   0  0  0  0  0  0  0  0  0  0  0  0
   39.0177  -26.7829   36.0711 C   0  0  0  0  0  0  0  0  0  0  0  0
   39.2155  -25.4320   35.8684 C   0  0  0  0  0  0  0  0  0  0  0  0
   38.6241  -24.4977   36.7403 C   0  0  0  0  0  0  0  0  0  0  0  0
   38.8078  -23.1155   36.5596 O   0  0  0  0  0  0  0  0  0  0  0  0
   40.0006  -25.2953   34.7862 N   0  0  0  0  0  0  0  0  0  0  0  0
   40.2760  -26.5080   34.3389 C   0  0  0  0  0  0  0  0  0  0  0  0
   39.6912  -27.4160   35.0977 N   0  0  0  0  0  0  0  0  0  0  0  0
  1  5  1  1  0  0  0
  1 14  1  0  0  0  0
  1 19  2  0  0  0  0
  1 23  1  0  0  0  0
  2 15  1  1  0  0  0
  2 20  2  0  0  0  0
  2 23  1  0  0  0  0
  2 24  1  0  0  0  0
  3 16  1  1  0  0  0
  3 21  1  0  0  0  0
  3 24  1  0  0  0  0
  3 25  2  0  0  0  0
  4  5  1  0  0  0  0
  6  4  1  1  0  0  0
  6  7  1  0  0  0  0
  6  8  1  0  0  0  0
  7 12  1  0  0  0  0
  8  9  1  6  0  0  0
  8 10  1  0  0  0  0
 10 11  1  6  0  0  0
 10 12  1  0  0  0  0
 12 32  1  6  0  0  0
 13 17  2  0  0  0  0
 13 28  1  0  0  0  0
 17 18  1  0  0  0  0
 17 22  1  0  0  0  0
 22 26  2  0  0  0  0
 26 27  1  0  0  0  0
 26 32  1  0  0  0  0
 27 28  2  0  0  0  0
 27 30  1  0  0  0  0
 28 29  1  0  0  0  0
 30 31  2  0  0  0  0
 31 32  1  0  0  0  0
M  CHG  3  14  -1  15  -1  21  -1
M  END
>  <CHROM.1>
166.07951806,67.11649230,62.19151163,174.24603256,-179.24051853,134.44552644
-164.19855037,59.72238864,37.35803228,-27.09990440,32.87114579,2.16449440
-1.05856995,-0.89300413

>  <Name>
ligand

>  <RI>
0

>  <Rbt.Current_Directory>
/home/itssahil/PROJECTS/Mol_Feturizer/New_Systems/rnas/4Y1I

>  <Rbt.Executable>
rbdock ($Id: //depot/dev/client3/rdock/2013.1/src/exe/rbdock.cxx#4 $)

>  <Rbt.Library>
libRbt.so (2013.1, Build901 2013/11/27)

>  <Rbt.Parameter_File>
/export/apps/rDock/src/rDock_2013.1_src/data/scripts/dock_solv.prm

>  <Rbt.Receptor>
prm/blind_docking_100.prm

>  <SCORE>
-10.1634

>  <SCORE.INTER>
-4.00128

>  <SCORE.INTER.CONST>
1

>  <SCORE.INTER.POLAR>
0

>  <SCORE.INTER.ROT>
8

>  <SCORE.INTER.SOLV>
17.2355

>  <SCORE.INTER.VDW>
-17.346

>  <SCORE.INTER.norm>
-0.12504

>  <SCORE.INTRA>
-6.1621

>  <SCORE.INTRA.DIHEDRAL>
-8.88741

>  <SCORE.INTRA.DIHEDRAL.0>
10.9594

>  <SCORE.INTRA.POLAR>
0

>  <SCORE.INTRA.POLAR.0>
0

>  <SCORE.INTRA.REPUL>
0

>  <SCORE.INTRA.REPUL.0>
0

>  <SCORE.INTRA.SOLV>
-4.17817

>  <SCORE.INTRA.SOLV.lig_0>
-124.914

>  <SCORE.INTRA.VDW>
0.370692

>  <SCORE.INTRA.VDW.0>
-4.69801

>  <SCORE.INTRA.norm>
-0.192566

>  <SCORE.RESTR>
0

>  <SCORE.RESTR.CAVITY>
0

>  <SCORE.RESTR.norm>
0

>  <SCORE.SYSTEM>
0

>  <SCORE.SYSTEM.CONST>
0

>  <SCORE.SYSTEM.DIHEDRAL>
0

>  <SCORE.SYSTEM.SOLV>
0

>  <SCORE.SYSTEM.norm>
0

>  <SCORE.heavy>
32

>  <SCORE.norm>
-0.317605

>  <RMSD>
55.790

$$$$
ligand
 OpenBabel11021811513D
libRbt.so/2013.1/901 2013/11/27
 32 34  0  0  0  0  0  0  0  0999 V2000
   37.4181  -25.2412   32.5535 P   0  0  1  0  0  0  0  0  0  0  0  0
   37.7297  -23.7298   30.1349 P   0  0  2  0  0  0  0  0  0  0  0  0
   38.7588  -25.0402   27.7186 P   0  0  1  0  0  0  0  0  0  0  0  0
   36.8049  -27.6424   33.3594 C   0  0  0  0  0  0  0  0  0  0  0  0
   36.7347  -26.7190   32.3104 O   0  0  0  0  0  0  0  0  0  0  0  0
   36.0710  -28.7765   33.0301 C   0  0  1  0  0  0  0  0  0  0  0  0
   37.0058  -29.8865   32.5894 O   0  0  0  0  0  0  0  0  0  0  0  0
   35.2817  -29.3468   34.2965 C   0  0  1  0  0  0  0  0  0  0  0  0
   33.7935  -29.2289   34.0562 O   0  0  0  0  0  0  0  0  0  0  0  0
   35.5496  -30.5495   34.3520 C   0  0  1  0  0  0  0  0  0  0  0  0
   34.4686  -31.3247   33.6975 O   0  0  0  0  0  0  0  0  0  0  0  0
   36.9795  -30.7530   33.5226 C   0  0  2  0  0  0  0  0  0  0  0  0
   38.7435  -28.9380   37.9924 N   0  0  0  0  0  0  0  0  0  0  0  0
   37.0533  -24.7282   33.9246 O   0  5  0  0  0  0  0  0  0  0  0  0
   38.9672  -23.0028   30.5979 O   0  5  0  0  0  0  0  0  0  0  0  0
   39.4359  -26.3677   27.4703 O   0  0  0  0  0  0  0  0  0  0  0  0
   37.5078  -28.8886   37.5200 C   0  0  0  0  0  0  0  0  0  0  0  0
   36.4693  -28.2578   38.3095 N   0  0  0  0  0  0  0  0  0  0  0  0
   38.9174  -25.3692   32.4052 O   0  0  0  0  0  0  0  0  0  0  0  0
   36.8935  -22.8106   29.2836 O   0  0  0  0  0  0  0  0  0  0  0  0
   37.6275  -24.8682   26.7286 O   0  5  0  0  0  0  0  0  0  0  0  0
   37.1866  -29.3970   36.3479 N   0  0  0  0  0  0  0  0  0  0  0  0
   36.8309  -24.2019   31.4249 O   0  0  0  0  0  0  0  0  0  0  0  0
   38.1559  -25.0537   29.2566 O   0  0  0  0  0  0  0  0  0  0  0  0
   39.7744  -23.9306   27.5547 O   0  0  0  0  0  0  0  0  0  0  0  0
   38.1160  -29.9881   35.5873 C   0  0  0  0  0  0  0  0  0  0  0  0
   39.4126  -30.0527   36.0561 C   0  0  0  0  0  0  0  0  0  0  0  0
   39.7326  -29.5031   37.3125 C   0  0  0  0  0  0  0  0  0  0  0  0
   41.0441  -29.5542   37.8168 O   0  0  0  0  0  0  0  0  0  0  0  0
   40.1489  -30.6840   35.1258 N   0  0  0  0  0  0  0  0  0  0  0  0
   39.3435  -30.9957   34.1253 C   0  0  0  0  0  0  0  0  0  0  0  0
   38.1168  -30.5827   34.3839 N   0  0  0  0  0  0  0  0  0  0  0  0
  1  5  1  6  0  0  0
  1 14  1  0  0  0  0
  1 19  2  0  0  0  0
  1 23  1  0  0  0  0
  2 15  1  1  0  0  0
  2 20  2  0  0  0  0
  2 23  1  0  0  0  0
  2 24  1  0  0  0  0
  3 16  1  6  0  0  0
  3 21  1  0  0  0  0
  3 24  1  0  0  0  0
  3 25  2  0  0  0  0
  4  5  1  0  0  0  0
  6  4  1  1  0  0  0
  6  7  1  0  0  0  0
  6  8  1  0  0  0  0
  7 12  1  0  0  0  0
  8  9  1  6  0  0  0
  8 10  1  0  0  0  0
 10 11  1  6  0  0  0
 10 12  1  0  0  0  0
 12 32  1  1  0  0  0
 13 17  2  0  0  0  0
 13 28  1  0  0  0  0
 17 18  1  0  0  0  0
 17 22  1  0  0  0  0
 22 26  2  0  0  0  0
 26 27  1  0  0  0  0
 26 32  1  0  0  0  0
 27 28  2  0  0  0  0
 27 30  1  0  0  0  0
 28 29  1  0  0  0  0
 30 31  2  0  0  0  0
 31 32  1  0  0  0  0
M  CHG  3  14  -1  15  -1  21  -1
M  END
>  <CHROM.1>
-43.95284784,-61.41038524,161.21085150,101.86996114,174.28579258,101.69216969
-104.51800126,-73.54386134,37.70496562,-27.23279485,32.69240321,-1.49027112
0.78792472,2.17316036

>  <Name>
ligand

>  <RI>
0

>  <Rbt.Current_Directory>
/home/itssahil/PROJECTS/Mol_Feturizer/New_Systems/rnas/4Y1I

>  <Rbt.Executable>
rbdock ($Id: //depot/dev/client3/rdock/2013.1/src/exe/rbdock.cxx#4 $)

>  <Rbt.Library>
libRbt.so (2013.1, Build901 2013/11/27)

>  <Rbt.Parameter_File>
/export/apps/rDock/src/rDock_2013.1_src/data/scripts/dock_solv.prm

>  <Rbt.Receptor>
prm/blind_docking_100.prm

>  <SCORE>
-8.38006

>  <SCORE.INTER>
-6.29566

>  <SCORE.INTER.CONST>
1

>  <SCORE.INTER.POLAR>
0

>  <SCORE.INTER.ROT>
8

>  <SCORE.INTER.SOLV>
12.1654

>  <SCORE.INTER.VDW>
-17.1856

>  <SCORE.INTER.norm>
-0.196739

>  <SCORE.INTRA>
-2.08441

>  <SCORE.INTRA.DIHEDRAL>
-2.08252

>  <SCORE.INTRA.DIHEDRAL.0>
10.9594

>  <SCORE.INTRA.POLAR>
0

>  <SCORE.INTRA.POLAR.0>
0

>  <SCORE.INTRA.REPUL>
0

>  <SCORE.INTRA.REPUL.0>
0

>  <SCORE.INTRA.SOLV>
-3.05487

>  <SCORE.INTRA.SOLV.lig_0>
-124.914

>  <SCORE.INTRA.VDW>
0.484288

>  <SCORE.INTRA.VDW.0>
-4.69801

>  <SCORE.INTRA.norm>
-0.0651377

>  <SCORE.RESTR>
0

>  <SCORE.RESTR.CAVITY>
0

>  <SCORE.RESTR.norm>
0

>  <SCORE.SYSTEM>
0

>  <SCORE.SYSTEM.CONST>
0

>  <SCORE.SYSTEM.DIHEDRAL>
0

>  <SCORE.SYSTEM.SOLV>
0

>  <SCORE.SYSTEM.norm>
0

>  <SCORE.heavy>
32

>  <SCORE.norm>
-0.261877

>  <RMSD>
55.848

$$$$
ligand
 OpenBabel11021811513D
libRbt.so/2013.1/901 2013/11/27
 32 34  0  0  0  0  0  0  0  0999 V2000
   37.8666  -24.9774   32.7500 P   0  0  1  0  0  0  0  0  0  0  0  0
   39.2880  -25.1769   30.2660 P   0  0  2  0  0  0  0  0  0  0  0  0
   39.5777  -24.5450   27.4143 P   0  0  1  0  0  0  0  0  0  0  0  0
   36.2948  -26.9441   33.4233 C   0  0  0  0  0  0  0  0  0  0  0  0
   37.0163  -26.3398   32.3878 O   0  0  0  0  0  0  0  0  0  0  0  0
   35.7260  -28.1270   32.9646 C   0  0  1  0  0  0  0  0  0  0  0  0
   36.8063  -29.0435   32.4234 O   0  0  0  0  0  0  0  0  0  0  0  0
   35.0230  -28.9331   34.1512 C   0  0  1  0  0  0  0  0  0  0  0  0
   33.5331  -28.9971   33.9019 O   0  0  0  0  0  0  0  0  0  0  0  0
   35.4556  -30.0861   34.0834 C   0  0  1  0  0  0  0  0  0  0  0  0
   34.4933  -30.9289   33.3340 O   0  0  0  0  0  0  0  0  0  0  0  0
   36.9004  -30.0001   33.2593 C   0  0  2  0  0  0  0  0  0  0  0  0
   38.7053  -30.4165   38.0503 N   0  0  0  0  0  0  0  0  0  0  0  0
   36.9690  -23.9841   33.4457 O   0  5  0  0  0  0  0  0  0  0  0  0
   38.4776  -26.3351   29.7405 O   0  5  0  0  0  0  0  0  0  0  0  0
   40.1794  -25.9093   27.1716 O   0  0  0  0  0  0  0  0  0  0  0  0
   37.5195  -30.7813   37.5883 C   0  0  0  0  0  0  0  0  0  0  0  0
   36.5581  -31.3810   38.4915 N   0  0  0  0  0  0  0  0  0  0  0  0
   39.0381  -25.3553   33.6281 O   0  0  0  0  0  0  0  0  0  0  0  0
   40.5197  -25.6967   30.9600 O   0  0  0  0  0  0  0  0  0  0  0  0
   38.1124  -24.5755   27.0377 O   0  5  0  0  0  0  0  0  0  0  0  0
   37.1802  -30.6170   36.3260 N   0  0  0  0  0  0  0  0  0  0  0  0
   38.4088  -24.3121   31.3493 O   0  0  0  0  0  0  0  0  0  0  0  0
   39.7324  -24.1968   29.0218 O   0  0  0  0  0  0  0  0  0  0  0  0
   40.3152  -23.5244   26.5753 O   0  0  0  0  0  0  0  0  0  0  0  0
   38.0389  -30.0668   35.4591 C   0  0  0  0  0  0  0  0  0  0  0  0
   39.2821  -29.6771   35.9149 C   0  0  0  0  0  0  0  0  0  0  0  0
   39.6231  -29.8632   37.2684 C   0  0  0  0  0  0  0  0  0  0  0  0
   40.8818  -29.4768   37.7618 O   0  0  0  0  0  0  0  0  0  0  0  0
   39.9527  -29.1604   34.8711 N   0  0  0  0  0  0  0  0  0  0  0  0
   39.1593  -29.2270   33.8162 C   0  0  0  0  0  0  0  0  0  0  0  0
   38.0025  -29.7671   34.1511 N   0  0  0  0  0  0  0  0  0  0  0  0
  1  5  1  6  0  0  0
  1 14  1  0  0  0  0
  1 19  2  0  0  0  0
  1 23  1  0  0  0  0
  2 15  1  6  0  0  0
  2 20  2  0  0  0  0
  2 23  1  0  0  0  0
  2 24  1  0  0  0  0
  3 16  1  6  0  0  0
  3 21  1  0  0  0  0
  3 24  1  0  0  0  0
  3 25  2  0  0  0  0
  4  5  1  0  0  0  0
  6  4  1  1  0  0  0
  6  7  1  0  0  0  0
  6  8  1  0  0  0  0
  7 12  1  0  0  0  0
  8  9  1  6  0  0  0
  8 10  1  0  0  0  0
 10 11  1  6  0  0  0
 10 12  1  0  0  0  0
 12 32  1  1  0  0  0
 13 17  2  0  0  0  0
 13 28  1  0  0  0  0
 17 18  1  0  0  0  0
 17 22  1  0  0  0  0
 22 26  2  0  0  0  0
 26 27  1  0  0  0  0
 26 32  1  0  0  0  0
 27 28  2  0  0  0  0
 27 30  1  0  0  0  0
 28 29  1  0  0  0  0
 30 31  2  0  0  0  0
 31 32  1  0  0  0  0
M  CHG  3  14  -1  15  -1  21  -1
M  END
>  <CHROM.1>
-51.48442783,62.05654381,-50.56125970,56.88273435,-175.53551359,143.14387069
-54.17522745,-10.67353999,38.06576048,-27.34766365,32.64460205,-1.36103267
0.34786894,2.12524593

>  <Name>
ligand

>  <RI>
0

>  <Rbt.Current_Directory>
/home/itssahil/PROJECTS/Mol_Feturizer/New_Systems/rnas/4Y1I

>  <Rbt.Executable>
rbdock ($Id: //depot/dev/client3/rdock/2013.1/src/exe/rbdock.cxx#4 $)

>  <Rbt.Library>
libRbt.so (2013.1, Build901 2013/11/27)

>  <Rbt.Parameter_File>
/export/apps/rDock/src/rDock_2013.1_src/data/scripts/dock_solv.prm

>  <Rbt.Receptor>
prm/blind_docking_80.prm

>  <SCORE>
-13.2143

>  <SCORE.INTER>
-7.67631

>  <SCORE.INTER.CONST>
1

>  <SCORE.INTER.POLAR>
0

>  <SCORE.INTER.ROT>
8

>  <SCORE.INTER.SOLV>
21.8861

>  <SCORE.INTER.VDW>
-21.3462

>  <SCORE.INTER.norm>
-0.239885

>  <SCORE.INTRA>
-5.53794

>  <SCORE.INTRA.DIHEDRAL>
-7.06792

>  <SCORE.INTRA.DIHEDRAL.0>
10.9594

>  <SCORE.INTRA.POLAR>
0

>  <SCORE.INTRA.POLAR.0>
0

>  <SCORE.INTRA.REPUL>
0

>  <SCORE.INTRA.REPUL.0>
0

>  <SCORE.INTRA.SOLV>
-4.20259

>  <SCORE.INTRA.SOLV.lig_0>
-124.914

>  <SCORE.INTRA.VDW>
0.0973151

>  <SCORE.INTRA.VDW.0>
-4.69801

>  <SCORE.INTRA.norm>
-0.173061

>  <SCORE.RESTR>
0

>  <SCORE.RESTR.CAVITY>
0

>  <SCORE.RESTR.norm>
0

>  <SCORE.SYSTEM>
0

>  <SCORE.SYSTEM.CONST>
0

>  <SCORE.SYSTEM.DIHEDRAL>
0

>  <SCORE.SYSTEM.SOLV>
0

>  <SCORE.SYSTEM.norm>
0

>  <SCORE.heavy>
32

>  <SCORE.norm>
-0.412945

>  <RMSD>
55.931

$$$$
ligand
 OpenBabel11021811513D
libRbt.so/2013.1/901 2013/11/27
 32 34  0  0  0  0  0  0  0  0999 V2000
   37.5674  -25.1652   36.7118 P   0  0  1  0  0  0  0  0  0  0  0  0
   37.0346  -27.7698   37.7903 P   0  0  2  0  0  0  0  0  0  0  0  0
   36.1683  -29.7617   35.8162 P   0  0  1  0  0  0  0  0  0  0  0  0
   38.6408  -25.2642   34.3391 C   0  0  0  0  0  0  0  0  0  0  0  0
   38.8342  -25.4789   35.7082 O   0  0  0  0  0  0  0  0  0  0  0  0
   39.8179  -25.5442   33.6541 C   0  0  1  0  0  0  0  0  0  0  0  0
   39.9972  -27.0448   33.5275 O   0  0  0  0  0  0  0  0  0  0  0  0
   39.7690  -24.9822   32.1594 C   0  0  1  0  0  0  0  0  0  0  0  0
   40.8121  -23.9001   31.9949 O   0  0  0  0  0  0  0  0  0  0  0  0
   40.0977  -25.9216   31.4309 C   0  0  1  0  0  0  0  0  0  0  0  0
   41.5415  -25.8144   31.1119 O   0  0  0  0  0  0  0  0  0  0  0  0
   39.8072  -27.3142   32.2971 C   0  0  2  0  0  0  0  0  0  0  0  0
   35.4146  -26.7916   29.6860 N   0  0  0  0  0  0  0  0  0  0  0  0
   38.0787  -24.8227   38.0892 O   0  5  0  0  0  0  0  0  0  0  0  0
   36.7215  -27.4346   39.2269 O   0  5  0  0  0  0  0  0  0  0  0  0
   37.5937  -29.8441   35.3223 O   0  0  0  0  0  0  0  0  0  0  0  0
   36.5287  -26.0873   29.5620 C   0  0  0  0  0  0  0  0  0  0  0  0
   36.5891  -25.0179   28.5861 N   0  0  0  0  0  0  0  0  0  0  0  0
   36.7619  -24.0233   36.1345 O   0  0  0  0  0  0  0  0  0  0  0  0
   38.5101  -28.0348   37.6441 O   0  0  0  0  0  0  0  0  0  0  0  0
   35.5820  -31.1555   35.8725 O   0  5  0  0  0  0  0  0  0  0  0  0
   37.5930  -26.3267   30.3006 N   0  0  0  0  0  0  0  0  0  0  0  0
   36.6343  -26.5134   36.8125 O   0  0  0  0  0  0  0  0  0  0  0  0
   36.1899  -29.1048   37.3319 O   0  0  0  0  0  0  0  0  0  0  0  0
   35.3684  -28.8924   34.8707 O   0  0  0  0  0  0  0  0  0  0  0  0
   37.5787  -27.3053   31.2137 C   0  0  0  0  0  0  0  0  0  0  0  0
   36.4293  -28.0546   31.3637 C   0  0  0  0  0  0  0  0  0  0  0  0
   35.3040  -27.7813   30.5626 C   0  0  0  0  0  0  0  0  0  0  0  0
   34.1195  -28.5277   30.6920 O   0  0  0  0  0  0  0  0  0  0  0  0
   36.6601  -28.9620   32.3279 N   0  0  0  0  0  0  0  0  0  0  0  0
   37.8975  -28.7817   32.7559 C   0  0  0  0  0  0  0  0  0  0  0  0
   38.4651  -27.7874   32.0990 N   0  0  0  0  0  0  0  0  0  0  0  0
  1  5  1  6  0  0  0
  1 14  1  0  0  0  0
  1 19  2  0  0  0  0
  1 23  1  0  0  0  0
  2 15  1  1  0  0  0
  2 20  2  0  0  0  0
  2 23  1  0  0  0  0
  2 24  1  0  0  0  0
  3 16  1  6  0  0  0
  3 21  1  0  0  0  0
  3 24  1  0  0  0  0
  3 25  2  0  0  0  0
  4  5  1  0  0  0  0
  6  4  1  6  0  0  0
  6  7  1  0  0  0  0
  6  8  1  0  0  0  0
  7 12  1  0  0  0  0
  8  9  1  1  0  0  0
  8 10  1  0  0  0  0
 10 11  1  1  0  0  0
 10 12  1  0  0  0  0
 12 32  1  1  0  0  0
 13 17  2  0  0  0  0
 13 28  1  0  0  0  0
 17 18  1  0  0  0  0
 17 22  1  0  0  0  0
 22 26  2  0  0  0  0
 26 27  1  0  0  0  0
 26 32  1  0  0  0  0
 27 28  2  0  0  0  0
 27 30  1  0  0  0  0
 28 29  1  0  0  0  0
 30 31  2  0  0  0  0
 31 32  1  0  0  0  0
M  CHG  3  14  -1  15  -1  21  -1
M  END
>  <CHROM.1>
-153.79512671,76.32916186,46.58305254,76.93979095,178.40662515,127.09918459
80.16539275,176.16367345,37.55812802,-27.09559905,34.11490287,-1.78686784
-0.83719161,-1.53124601

>  <Name>
ligand

>  <RI>
0

>  <Rbt.Current_Directory>
/home/itssahil/PROJECTS/Mol_Feturizer/New_Systems/rnas/4Y1I

>  <Rbt.Executable>
rbdock ($Id: //depot/dev/client3/rdock/2013.1/src/exe/rbdock.cxx#4 $)

>  <Rbt.Library>
libRbt.so (2013.1, Build901 2013/11/27)

>  <Rbt.Parameter_File>
/export/apps/rDock/src/rDock_2013.1_src/data/scripts/dock_solv.prm

>  <Rbt.Receptor>
prm/blind_docking_100.prm

>  <SCORE>
-12.1626

>  <SCORE.INTER>
-6.42867

>  <SCORE.INTER.CONST>
1

>  <SCORE.INTER.POLAR>
0

>  <SCORE.INTER.ROT>
8

>  <SCORE.INTER.SOLV>
15.9418

>  <SCORE.INTER.VDW>
-18.533

>  <SCORE.INTER.norm>
-0.200896

>  <SCORE.INTRA>
-5.73394

>  <SCORE.INTRA.DIHEDRAL>
-6.39078

>  <SCORE.INTRA.DIHEDRAL.0>
10.9594

>  <SCORE.INTRA.POLAR>
0

>  <SCORE.INTRA.POLAR.0>
0

>  <SCORE.INTRA.REPUL>
0.0467793

>  <SCORE.INTRA.REPUL.0>
0

>  <SCORE.INTRA.SOLV>
-4.1963

>  <SCORE.INTRA.SOLV.lig_0>
-124.914

>  <SCORE.INTRA.VDW>
-0.674293

>  <SCORE.INTRA.VDW.0>
-4.69801

>  <SCORE.INTRA.norm>
-0.179185

>  <SCORE.RESTR>
0

>  <SCORE.RESTR.CAVITY>
0

>  <SCORE.RESTR.norm>
0

>  <SCORE.SYSTEM>
0

>  <SCORE.SYSTEM.CONST>
0

>  <SCORE.SYSTEM.DIHEDRAL>
0

>  <SCORE.SYSTEM.SOLV>
0

>  <SCORE.SYSTEM.norm>
0

>  <SCORE.heavy>
32

>  <SCORE.norm>
-0.380081

>  <RMSD>
55.944

$$$$
ligand
 OpenBabel11021811513D
libRbt.so/2013.1/901 2013/11/27
 32 34  0  0  0  0  0  0  0  0999 V2000
   40.6810  -27.0367   35.4143 P   0  0  1  0  0  0  0  0  0  0  0  0
   39.6006  -29.2715   36.8528 P   0  0  2  0  0  0  0  0  0  0  0  0
   36.6716  -29.0824   36.8645 P   0  0  1  0  0  0  0  0  0  0  0  0
   39.2651  -26.8974   33.2308 C   0  0  0  0  0  0  0  0  0  0  0  0
   40.1398  -27.6758   33.9969 O   0  0  0  0  0  0  0  0  0  0  0  0
   37.9604  -27.0988   33.6672 C   0  0  1  0  0  0  0  0  0  0  0  0
   37.4453  -25.8467   34.3505 O   0  0  0  0  0  0  0  0  0  0  0  0
   36.9716  -27.3660   32.4412 C   0  0  1  0  0  0  0  0  0  0  0  0
   36.4245  -28.7725   32.5338 O   0  0  0  0  0  0  0  0  0  0  0  0
   36.0226  -26.5930   32.5938 C   0  0  1  0  0  0  0  0  0  0  0  0
   34.9105  -27.3068   33.2658 O   0  0  0  0  0  0  0  0  0  0  0  0
   36.5735  -25.3553   33.5625 C   0  0  2  0  0  0  0  0  0  0  0  0
   36.3041  -22.5300   29.2811 N   0  0  0  0  0  0  0  0  0  0  0  0
   42.0285  -26.3919   35.2031 O   0  5  0  0  0  0  0  0  0  0  0  0
   39.5935  -29.6079   38.3229 O   0  5  0  0  0  0  0  0  0  0  0  0
   35.6572  -28.1697   36.2161 O   0  0  0  0  0  0  0  0  0  0  0  0
   35.5001  -23.5083   29.6675 C   0  0  0  0  0  0  0  0  0  0  0  0
   34.3815  -23.8836   28.8264 N   0  0  0  0  0  0  0  0  0  0  0  0
   39.6699  -26.0273   35.9091 O   0  0  0  0  0  0  0  0  0  0  0  0
   39.7836  -30.5314   36.0479 O   0  0  0  0  0  0  0  0  0  0  0  0
   36.4615  -30.4938   36.3611 O   0  5  0  0  0  0  0  0  0  0  0  0
   35.6830  -24.1576   30.7991 N   0  0  0  0  0  0  0  0  0  0  0  0
   40.8401  -28.2518   36.5083 O   0  0  0  0  0  0  0  0  0  0  0  0
   38.1784  -28.5571   36.4370 O   0  0  0  0  0  0  0  0  0  0  0  0
   36.4951  -29.0278   38.3663 O   0  0  0  0  0  0  0  0  0  0  0  0
   36.7043  -23.8421   31.6047 C   0  0  0  0  0  0  0  0  0  0  0  0
   37.5580  -22.8261   31.2252 C   0  0  0  0  0  0  0  0  0  0  0  0
   37.3426  -22.1453   30.0115 C   0  0  0  0  0  0  0  0  0  0  0  0
   38.1947  -21.1059   29.5986 O   0  0  0  0  0  0  0  0  0  0  0  0
   38.4895  -22.6995   32.1856 N   0  0  0  0  0  0  0  0  0  0  0  0
   38.2242  -23.5979   33.1180 C   0  0  0  0  0  0  0  0  0  0  0  0
   37.1551  -24.2965   32.7846 N   0  0  0  0  0  0  0  0  0  0  0  0
  1  5  1  6  0  0  0
  1 14  1  0  0  0  0
  1 19  2  0  0  0  0
  1 23  1  0  0  0  0
  2 15  1  1  0  0  0
  2 20  2  0  0  0  0
  2 23  1  0  0  0  0
  2 24  1  0  0  0  0
  3 16  1  6  0  0  0
  3 21  1  0  0  0  0
  3 24  1  0  0  0  0
  3 25  2  0  0  0  0
  4  5  1  0  0  0  0
  6  4  1  6  0  0  0
  6  7  1  0  0  0  0
  6  8  1  0  0  0  0
  7 12  1  0  0  0  0
  8  9  1  1  0  0  0
  8 10  1  0  0  0  0
 10 11  1  1  0  0  0
 10 12  1  0  0  0  0
 12 32  1  6  0  0  0
 13 17  2  0  0  0  0
 13 28  1  0  0  0  0
 17 18  1  0  0  0  0
 17 22  1  0  0  0  0
 22 26  2  0  0  0  0
 26 27  1  0  0  0  0
 26 32  1  0  0  0  0
 27 28  2  0  0  0  0
 27 30  1  0  0  0  0
 28 29  1  0  0  0  0
 30 31  2  0  0  0  0
 31 32  1  0  0  0  0
M  CHG  3  14  -1  15  -1  21  -1
M  END
>  <CHROM.1>
-96.02855592,-142.32394763,-177.39610092,110.55748138,-85.92201714,157.74641730
-53.81626545,-46.41602300,37.89123506,-26.60398598,34.07187612,-1.31916049
-0.30655997,-0.74311640

>  <Name>
ligand

>  <RI>
0

>  <Rbt.Current_Directory>
/home/itssahil/PROJECTS/Mol_Feturizer/New_Systems/rnas/4Y1I

>  <Rbt.Executable>
rbdock ($Id: //depot/dev/client3/rdock/2013.1/src/exe/rbdock.cxx#4 $)

>  <Rbt.Library>
libRbt.so (2013.1, Build901 2013/11/27)

>  <Rbt.Parameter_File>
/export/apps/rDock/src/rDock_2013.1_src/data/scripts/dock_solv.prm

>  <Rbt.Receptor>
prm/blind_docking_80.prm

>  <SCORE>
-7.56101

>  <SCORE.INTER>
-6.23071

>  <SCORE.INTER.CONST>
1

>  <SCORE.INTER.POLAR>
0

>  <SCORE.INTER.ROT>
8

>  <SCORE.INTER.SOLV>
18.7069

>  <SCORE.INTER.VDW>
-19.3228

>  <SCORE.INTER.norm>
-0.19471

>  <SCORE.INTRA>
-1.3303

>  <SCORE.INTRA.DIHEDRAL>
1.57191

>  <SCORE.INTRA.DIHEDRAL.0>
10.9594

>  <SCORE.INTRA.POLAR>
0

>  <SCORE.INTRA.POLAR.0>
0

>  <SCORE.INTRA.REPUL>
0

>  <SCORE.INTRA.REPUL.0>
0

>  <SCORE.INTRA.SOLV>
-0.97694

>  <SCORE.INTRA.SOLV.lig_0>
-124.914

>  <SCORE.INTRA.VDW>
-1.62778

>  <SCORE.INTRA.VDW.0>
-4.69801

>  <SCORE.INTRA.norm>
-0.0415718

>  <SCORE.RESTR>
0

>  <SCORE.RESTR.CAVITY>
0

>  <SCORE.RESTR.norm>
0

>  <SCORE.SYSTEM>
0

>  <SCORE.SYSTEM.CONST>
0

>  <SCORE.SYSTEM.DIHEDRAL>
0

>  <SCORE.SYSTEM.SOLV>
0

>  <SCORE.SYSTEM.norm>
0

>  <SCORE.heavy>
32

>  <SCORE.norm>
-0.236282

>  <RMSD>
55.964

$$$$
ligand
 OpenBabel11021811513D
libRbt.so/2013.1/901 2013/11/27
 32 34  0  0  0  0  0  0  0  0999 V2000
   38.3326  -25.7842   30.1667 P   0  0  1  0  0  0  0  0  0  0  0  0
   38.7397  -22.9458   30.2595 P   0  0  2  0  0  0  0  0  0  0  0  0
   36.5916  -21.2504   29.1982 P   0  0  1  0  0  0  0  0  0  0  0  0
   38.7258  -27.2782   32.2655 C   0  0  0  0  0  0  0  0  0  0  0  0
   39.2996  -26.3810   31.3579 O   0  0  0  0  0  0  0  0  0  0  0  0
   39.6937  -27.7130   33.1640 C   0  0  1  0  0  0  0  0  0  0  0  0
   40.3811  -26.5201   33.7997 O   0  0  0  0  0  0  0  0  0  0  0  0
   39.0418  -28.5351   34.3688 C   0  0  1  0  0  0  0  0  0  0  0  0
   39.5192  -29.9687   34.3155 O   0  0  0  0  0  0  0  0  0  0  0  0
   39.4916  -28.0375   35.4038 C   0  0  1  0  0  0  0  0  0  0  0  0
   40.6489  -28.8375   35.8713 O   0  0  0  0  0  0  0  0  0  0  0  0
   39.9857  -26.4964   35.0103 C   0  0  2  0  0  0  0  0  0  0  0  0
   36.3697  -24.5576   38.1009 N   0  0  0  0  0  0  0  0  0  0  0  0
   38.2172  -26.7910   29.0490 O   0  5  0  0  0  0  0  0  0  0  0  0
   39.6195  -21.8984   29.6245 O   0  5  0  0  0  0  0  0  0  0  0  0
   36.8332  -20.0037   30.0165 O   0  0  0  0  0  0  0  0  0  0  0  0
   37.2360  -25.5243   38.3613 C   0  0  0  0  0  0  0  0  0  0  0  0
   37.2204  -26.1618   39.6624 N   0  0  0  0  0  0  0  0  0  0  0  0
   36.9752  -25.4708   30.7546 O   0  0  0  0  0  0  0  0  0  0  0  0
   39.0494  -23.0403   31.7305 O   0  0  0  0  0  0  0  0  0  0  0  0
   37.3439  -21.1381   27.8902 O   0  5  0  0  0  0  0  0  0  0  0  0
   38.1190  -25.9300   37.4717 N   0  0  0  0  0  0  0  0  0  0  0  0
   39.0169  -24.4125   29.5763 O   0  0  0  0  0  0  0  0  0  0  0  0
   37.1577  -22.5431   30.0572 O   0  0  0  0  0  0  0  0  0  0  0  0
   35.1072  -21.3913   28.9408 O   0  0  0  0  0  0  0  0  0  0  0  0
   38.1666  -25.3676   36.2581 C   0  0  0  0  0  0  0  0  0  0  0  0
   37.2741  -24.3577   35.9604 C   0  0  0  0  0  0  0  0  0  0  0  0
   36.3395  -23.9397   36.9273 C   0  0  0  0  0  0  0  0  0  0  0  0
   35.4184  -22.9134   36.6536 O   0  0  0  0  0  0  0  0  0  0  0  0
   37.5174  -23.9603   34.6998 N   0  0  0  0  0  0  0  0  0  0  0  0
   38.5161  -24.6924   34.2378 C   0  0  0  0  0  0  0  0  0  0  0  0
   38.9181  -25.5465   35.1603 N   0  0  0  0  0  0  0  0  0  0  0  0
  1  5  1  1  0  0  0
  1 14  1  0  0  0  0
  1 19  2  0  0  0  0
  1 23  1  0  0  0  0
  2 15  1  6  0  0  0
  2 20  2  0  0  0  0
  2 23  1  0  0  0  0
  2 24  1  0  0  0  0
  3 16  1  1  0  0  0
  3 21  1  0  0  0  0
  3 24  1  0  0  0  0
  3 25  2  0  0  0  0
  4  5  1  0  0  0  0
  6  4  1  6  0  0  0
  6  7  1  0  0  0  0
  6  8  1  0  0  0  0
  7 12  1  0  0  0  0
  8  9  1  6  0  0  0
  8 10  1  0  0  0  0
 10 11  1  6  0  0  0
 10 12  1  0  0  0  0
 12 32  1  6  0  0  0
 13 17  2  0  0  0  0
 13 28  1  0  0  0  0
 17 18  1  0  0  0  0
 17 22  1  0  0  0  0
 22 26  2  0  0  0  0
 26 27  1  0  0  0  0
 26 32  1  0  0  0  0
 27 28  2  0  0  0  0
 27 30  1  0  0  0  0
 28 29  1  0  0  0  0
 30 31  2  0  0  0  0
 31 32  1  0  0  0  0
M  CHG  3  14  -1  15  -1  21  -1
M  END
>  <CHROM.1>
-80.69648275,173.10906392,-75.01860689,53.09567024,177.82455234,172.10175177
-86.77118384,4.10027036,38.12945047,-24.76725241,32.80806121,-1.79961850
-1.05076077,1.91894919

>  <Name>
ligand

>  <RI>
0

>  <Rbt.Current_Directory>
/home/itssahil/PROJECTS/Mol_Feturizer/New_Systems/rnas/4Y1I

>  <Rbt.Executable>
rbdock ($Id: //depot/dev/client3/rdock/2013.1/src/exe/rbdock.cxx#4 $)

>  <Rbt.Library>
libRbt.so (2013.1, Build901 2013/11/27)

>  <Rbt.Parameter_File>
/export/apps/rDock/src/rDock_2013.1_src/data/scripts/dock_solv.prm

>  <Rbt.Receptor>
prm/blind_docking_100.prm

>  <SCORE>
-11.3238

>  <SCORE.INTER>
-6.64614

>  <SCORE.INTER.CONST>
1

>  <SCORE.INTER.POLAR>
0

>  <SCORE.INTER.ROT>
8

>  <SCORE.INTER.SOLV>
19.2996

>  <SCORE.INTER.VDW>
-19.7973

>  <SCORE.INTER.norm>
-0.207692

>  <SCORE.INTRA>
-4.69294

>  <SCORE.INTRA.DIHEDRAL>
-5.15074

>  <SCORE.INTRA.DIHEDRAL.0>
10.9594

>  <SCORE.INTRA.POLAR>
0

>  <SCORE.INTRA.POLAR.0>
0

>  <SCORE.INTRA.REPUL>
0.00263437

>  <SCORE.INTRA.REPUL.0>
0

>  <SCORE.INTRA.SOLV>
-4.07983

>  <SCORE.INTRA.SOLV.lig_0>
-124.914

>  <SCORE.INTRA.VDW>
-0.0908216

>  <SCORE.INTRA.VDW.0>
-4.69801

>  <SCORE.INTRA.norm>
-0.146654

>  <SCORE.RESTR>
0.0152738

>  <SCORE.RESTR.CAVITY>
0.0152738

>  <SCORE.RESTR.norm>
0.000477306

>  <SCORE.SYSTEM>
0

>  <SCORE.SYSTEM.CONST>
0

>  <SCORE.SYSTEM.DIHEDRAL>
0

>  <SCORE.SYSTEM.SOLV>
0

>  <SCORE.SYSTEM.norm>
0

>  <SCORE.heavy>
32

>  <SCORE.norm>
-0.353869

>  <RMSD>
55.994

$$$$
ligand
 OpenBabel11021811513D
libRbt.so/2013.1/901 2013/11/27
 32 34  0  0  0  0  0  0  0  0999 V2000
   39.3944  -24.9883   35.2667 P   0  0  1  0  0  0  0  0  0  0  0  0
   37.4555  -26.4609   36.7843 P   0  0  2  0  0  0  0  0  0  0  0  0
   38.5113  -28.5495   38.5558 P   0  0  1  0  0  0  0  0  0  0  0  0
   39.4841  -25.4997   32.7129 C   0  0  0  0  0  0  0  0  0  0  0  0
   39.6078  -24.5190   33.7033 O   0  0  0  0  0  0  0  0  0  0  0  0
   39.9119  -24.9857   31.4939 C   0  0  1  0  0  0  0  0  0  0  0  0
   39.8129  -26.0523   30.4204 O   0  0  0  0  0  0  0  0  0  0  0  0
   38.9748  -23.7870   31.0068 C   0  0  1  0  0  0  0  0  0  0  0  0
   39.7742  -22.5040   30.9773 O   0  0  0  0  0  0  0  0  0  0  0  0
   38.6615  -24.0503   29.8433 C   0  0  1  0  0  0  0  0  0  0  0  0
   39.5666  -23.3304   28.9157 O   0  0  0  0  0  0  0  0  0  0  0  0
   38.8523  -25.6951   29.6641 C   0  0  2  0  0  0  0  0  0  0  0  0
   36.7166  -29.2591   32.6843 N   0  0  0  0  0  0  0  0  0  0  0  0
   40.4722  -25.9689   35.6581 O   0  5  0  0  0  0  0  0  0  0  0  0
   36.0993  -27.0946   36.6014 O   0  5  0  0  0  0  0  0  0  0  0  0
   37.3075  -29.4569   38.4559 O   0  0  0  0  0  0  0  0  0  0  0  0
   37.9772  -28.8553   32.6610 C   0  0  0  0  0  0  0  0  0  0  0  0
   38.9315  -29.4498   33.5752 N   0  0  0  0  0  0  0  0  0  0  0  0
   39.4315  -23.7625   36.1511 O   0  0  0  0  0  0  0  0  0  0  0  0
   37.3838  -25.4207   37.8713 O   0  0  0  0  0  0  0  0  0  0  0  0
   39.7638  -29.3949   38.6343 O   0  5  0  0  0  0  0  0  0  0  0  0
   38.3978  -27.9244   31.8291 N   0  0  0  0  0  0  0  0  0  0  0  0
   37.9329  -25.7273   35.3956 O   0  0  0  0  0  0  0  0  0  0  0  0
   38.5574  -27.6103   37.1975 O   0  0  0  0  0  0  0  0  0  0  0  0
   38.3789  -27.6893   39.7935 O   0  0  0  0  0  0  0  0  0  0  0  0
   37.5487  -27.3502   30.9684 C   0  0  0  0  0  0  0  0  0  0  0  0
   36.2286  -27.7532   30.9716 C   0  0  0  0  0  0  0  0  0  0  0  0
   35.8013  -28.7495   31.8704 C   0  0  0  0  0  0  0  0  0  0  0  0
   34.4632  -29.1803   31.8975 O   0  0  0  0  0  0  0  0  0  0  0  0
   35.5848  -27.0401   30.0318 N   0  0  0  0  0  0  0  0  0  0  0  0
   36.4678  -26.2319   29.4715 C   0  0  0  0  0  0  0  0  0  0  0  0
   37.6556  -26.4060   30.0202 N   0  0  0  0  0  0  0  0  0  0  0  0
  1  5  1  6  0  0  0
  1 14  1  0  0  0  0
  1 19  2  0  0  0  0
  1 23  1  0  0  0  0
  2 15  1  6  0  0  0
  2 20  2  0  0  0  0
  2 23  1  0  0  0  0
  2 24  1  0  0  0  0
  3 16  1  6  0  0  0
  3 21  1  0  0  0  0
  3 24  1  0  0  0  0
  3 25  2  0  0  0  0
  4  5  1  0  0  0  0
  6  4  1  1  0  0  0
  6  7  1  0  0  0  0
  6  8  1  0  0  0  0
  7 12  1  0  0  0  0
  8  9  1  6  0  0  0
  8 10  1  0  0  0  0
 10 11  1  6  0  0  0
 10 12  1  0  0  0  0
 12 32  1  1  0  0  0
 13 17  2  0  0  0  0
 13 28  1  0  0  0  0
 17 18  1  0  0  0  0
 17 22  1  0  0  0  0
 22 26  2  0  0  0  0
 26 27  1  0  0  0  0
 26 32  1  0  0  0  0
 27 28  2  0  0  0  0
 27 30  1  0  0  0  0
 28 29  1  0  0  0  0
 30 31  2  0  0  0  0
 31 32  1  0  0  0  0
M  CHG  3  14  -1  15  -1  21  -1
M  END
>  <CHROM.1>
64.07232599,-177.96173394,66.16472142,178.64375092,-170.05977841,-2.48098283
173.58562721,-61.60951732,38.22472140,-26.56802390,33.96528037,-1.57667131
-0.96435820,-1.29221803

>  <Name>
ligand

>  <RI>
0

>  <Rbt.Current_Directory>
/home/itssahil/PROJECTS/Mol_Feturizer/New_Systems/rnas/4Y1I

>  <Rbt.Executable>
rbdock ($Id: //depot/dev/client3/rdock/2013.1/src/exe/rbdock.cxx#4 $)

>  <Rbt.Library>
libRbt.so (2013.1, Build901 2013/11/27)

>  <Rbt.Parameter_File>
/export/apps/rDock/src/rDock_2013.1_src/data/scripts/dock_solv.prm

>  <Rbt.Receptor>
prm/blind_docking_100.prm

>  <SCORE>
-10.5663

>  <SCORE.INTER>
-4.68172

>  <SCORE.INTER.CONST>
1

>  <SCORE.INTER.POLAR>
0

>  <SCORE.INTER.ROT>
8

>  <SCORE.INTER.SOLV>
27.5836

>  <SCORE.INTER.VDW>
-21.249

>  <SCORE.INTER.norm>
-0.146304

>  <SCORE.INTRA>
-5.88454

>  <SCORE.INTRA.DIHEDRAL>
-9.06346

>  <SCORE.INTRA.DIHEDRAL.0>
10.9594

>  <SCORE.INTRA.POLAR>
0

>  <SCORE.INTRA.POLAR.0>
0

>  <SCORE.INTRA.REPUL>
0

>  <SCORE.INTRA.REPUL.0>
0

>  <SCORE.INTRA.SOLV>
-2.7789

>  <SCORE.INTRA.SOLV.lig_0>
-124.914

>  <SCORE.INTRA.VDW>
0.0366377

>  <SCORE.INTRA.VDW.0>
-4.69801

>  <SCORE.INTRA.norm>
-0.183892

>  <SCORE.RESTR>
0

>  <SCORE.RESTR.CAVITY>
0

>  <SCORE.RESTR.norm>
0

>  <SCORE.SYSTEM>
0

>  <SCORE.SYSTEM.CONST>
0

>  <SCORE.SYSTEM.DIHEDRAL>
0

>  <SCORE.SYSTEM.SOLV>
0

>  <SCORE.SYSTEM.norm>
0

>  <SCORE.heavy>
32

>  <SCORE.norm>
-0.330196

>  <RMSD>
56.051

$$$$
ligand
 OpenBabel11021811513D
libRbt.so/2013.1/901 2013/11/27
 32 34  0  0  0  0  0  0  0  0999 V2000
   39.4032  -25.0472   35.1385 P   0  0  1  0  0  0  0  0  0  0  0  0
   37.5667  -26.9530   36.2460 P   0  0  2  0  0  0  0  0  0  0  0  0
   36.2542  -28.2659   38.5195 P   0  0  1  0  0  0  0  0  0  0  0  0
   38.8469  -26.6812   33.1861 C   0  0  0  0  0  0  0  0  0  0  0  0
   39.3055  -25.4061   33.5348 O   0  0  0  0  0  0  0  0  0  0  0  0
   39.1304  -26.9269   31.8472 C   0  0  1  0  0  0  0  0  0  0  0  0
   38.4979  -28.2365   31.4174 O   0  0  0  0  0  0  0  0  0  0  0  0
   38.4970  -25.8048   30.9028 C   0  0  1  0  0  0  0  0  0  0  0  0
   39.6066  -25.0360   30.2218 O   0  0  0  0  0  0  0  0  0  0  0  0
   37.8770  -26.4088   30.0242 C   0  0  1  0  0  0  0  0  0  0  0  0
   38.7282  -26.5292   28.8163 O   0  0  0  0  0  0  0  0  0  0  0  0
   37.5414  -27.9204   30.6379 C   0  0  2  0  0  0  0  0  0  0  0  0
   34.5875  -30.3571   34.0616 N   0  0  0  0  0  0  0  0  0  0  0  0
   40.4863  -25.8763   35.7832 O   0  5  0  0  0  0  0  0  0  0  0  0
   38.8120  -27.7792   36.4485 O   0  5  0  0  0  0  0  0  0  0  0  0
   37.5246  -28.9508   38.9661 O   0  0  0  0  0  0  0  0  0  0  0  0
   35.7861  -30.7055   33.6206 C   0  0  0  0  0  0  0  0  0  0  0  0
   36.4050  -31.9153   34.1235 N   0  0  0  0  0  0  0  0  0  0  0  0
   39.6906  -23.5704   35.2890 O   0  0  0  0  0  0  0  0  0  0  0  0
   36.7484  -27.5401   35.1260 O   0  0  0  0  0  0  0  0  0  0  0  0
   35.4698  -27.8329   39.7389 O   0  5  0  0  0  0  0  0  0  0  0  0
   36.4413  -29.9848   32.7334 N   0  0  0  0  0  0  0  0  0  0  0  0
   37.9652  -25.4121   35.8441 O   0  0  0  0  0  0  0  0  0  0  0  0
   36.6747  -26.9401   37.6280 O   0  0  0  0  0  0  0  0  0  0  0  0
   35.4404  -29.2315   37.6860 O   0  0  0  0  0  0  0  0  0  0  0  0
   35.9050  -28.8606   32.2435 C   0  0  0  0  0  0  0  0  0  0  0  0
   34.6559  -28.4747   32.6862 C   0  0  0  0  0  0  0  0  0  0  0  0
   33.9745  -29.2604   33.6357 C   0  0  0  0  0  0  0  0  0  0  0  0
   32.7014  -28.8928   34.1059 O   0  0  0  0  0  0  0  0  0  0  0  0
   34.3384  -27.3305   32.0568 N   0  0  0  0  0  0  0  0  0  0  0  0
   35.3464  -27.0223   31.2595 C   0  0  0  0  0  0  0  0  0  0  0  0
   36.2972  -27.9328   31.3562 N   0  0  0  0  0  0  0  0  0  0  0  0
  1  5  1  6  0  0  0
  1 14  1  0  0  0  0
  1 19  2  0  0  0  0
  1 23  1  0  0  0  0
  2 15  1  1  0  0  0
  2 20  2  0  0  0  0
  2 23  1  0  0  0  0
  2 24  1  0  0  0  0
  3 16  1  1  0  0  0
  3 21  1  0  0  0  0
  3 24  1  0  0  0  0
  3 25  2  0  0  0  0
  4  5  1  0  0  0  0
  6  4  1  1  0  0  0
  6  7  1  0  0  0  0
  6  8  1  0  0  0  0
  7 12  1  0  0  0  0
  8  9  1  6  0  0  0
  8 10  1  0  0  0  0
 10 11  1  6  0  0  0
 10 12  1  0  0  0  0
 12 32  1  1  0  0  0
 13 17  2  0  0  0  0
 13 28  1  0  0  0  0
 17 18  1  0  0  0  0
 17 22  1  0  0  0  0
 22 26  2  0  0  0  0
 26 27  1  0  0  0  0
 26 32  1  0  0  0  0
 27 28  2  0  0  0  0
 27 30  1  0  0  0  0
 28 29  1  0  0  0  0
 30 31  2  0  0  0  0
 31 32  1  0  0  0  0
M  CHG  3  14  -1  15  -1  21  -1
M  END
>  <CHROM.1>
67.81975795,24.49993925,59.43426838,-173.50431535,-165.67001702,-42.63972736
79.43458363,-49.00379328,37.20608805,-27.45929478,34.28275971,-1.23746912
0.74859207,1.56335911

>  <Name>
ligand

>  <RI>
0

>  <Rbt.Current_Directory>
/home/itssahil/PROJECTS/Mol_Feturizer/New_Systems/rnas/4Y1I

>  <Rbt.Executable>
rbdock ($Id: //depot/dev/client3/rdock/2013.1/src/exe/rbdock.cxx#4 $)

>  <Rbt.Library>
libRbt.so (2013.1, Build901 2013/11/27)

>  <Rbt.Parameter_File>
/export/apps/rDock/src/rDock_2013.1_src/data/scripts/dock_solv.prm

>  <Rbt.Receptor>
prm/blind_docking_100.prm

>  <SCORE>
-11.5069

>  <SCORE.INTER>
-7.61606

>  <SCORE.INTER.CONST>
1

>  <SCORE.INTER.POLAR>
0

>  <SCORE.INTER.ROT>
8

>  <SCORE.INTER.SOLV>
19.2528

>  <SCORE.INTER.VDW>
-20.4283

>  <SCORE.INTER.norm>
-0.238002

>  <SCORE.INTRA>
-3.89081

>  <SCORE.INTRA.DIHEDRAL>
-6.21062

>  <SCORE.INTRA.DIHEDRAL.0>
10.9594

>  <SCORE.INTRA.POLAR>
0

>  <SCORE.INTRA.POLAR.0>
0

>  <SCORE.INTRA.REPUL>
0

>  <SCORE.INTRA.REPUL.0>
0

>  <SCORE.INTRA.SOLV>
-0.945458

>  <SCORE.INTRA.SOLV.lig_0>
-124.914

>  <SCORE.INTRA.VDW>
-0.312768

>  <SCORE.INTRA.VDW.0>
-4.69801

>  <SCORE.INTRA.norm>
-0.121588

>  <SCORE.RESTR>
0

>  <SCORE.RESTR.CAVITY>
0

>  <SCORE.RESTR.norm>
0

>  <SCORE.SYSTEM>
0

>  <SCORE.SYSTEM.CONST>
0

>  <SCORE.SYSTEM.DIHEDRAL>
0

>  <SCORE.SYSTEM.SOLV>
0

>  <SCORE.SYSTEM.norm>
0

>  <SCORE.heavy>
32

>  <SCORE.norm>
-0.35959

>  <RMSD>
56.075

$$$$
ligand
 OpenBabel11021811513D
libRbt.so/2013.1/901 2013/11/27
 32 34  0  0  0  0  0  0  0  0999 V2000
   37.9592  -24.4978   32.5343 P   0  0  1  0  0  0  0  0  0  0  0  0
   36.9961  -24.0936   29.8622 P   0  0  2  0  0  0  0  0  0  0  0  0
   38.9275  -24.4123   27.6750 P   0  0  1  0  0  0  0  0  0  0  0  0
   36.1119  -26.2552   33.0732 C   0  0  0  0  0  0  0  0  0  0  0  0
   37.4058  -26.0475   32.5827 O   0  0  0  0  0  0  0  0  0  0  0  0
   35.8140  -27.6129   33.0381 C   0  0  1  0  0  0  0  0  0  0  0  0
   36.8967  -28.3977   33.7535 O   0  0  0  0  0  0  0  0  0  0  0  0
   34.4562  -27.9310   33.8175 C   0  0  1  0  0  0  0  0  0  0  0  0
   33.4233  -28.4433   32.8394 O   0  0  0  0  0  0  0  0  0  0  0  0
   34.7163  -28.8545   34.5927 C   0  0  1  0  0  0  0  0  0  0  0  0
   34.3194  -30.1420   33.9742 O   0  0  0  0  0  0  0  0  0  0  0  0
   36.3644  -28.8205   34.8307 C   0  0  2  0  0  0  0  0  0  0  0  0
   36.4391  -28.1673   39.9251 N   0  0  0  0  0  0  0  0  0  0  0  0
   37.8025  -23.8561   33.8906 O   0  5  0  0  0  0  0  0  0  0  0  0
   35.9868  -23.2464   29.1287 O   0  5  0  0  0  0  0  0  0  0  0  0
   37.7846  -24.1261   26.7293 O   0  0  0  0  0  0  0  0  0  0  0  0
   35.9763  -29.2011   39.2397 C   0  0  0  0  0  0  0  0  0  0  0  0
   35.4043  -30.3269   39.9502 N   0  0  0  0  0  0  0  0  0  0  0  0
   39.4096  -24.5133   32.1075 O   0  0  0  0  0  0  0  0  0  0  0  0
   36.5898  -25.5419   29.7856 O   0  0  0  0  0  0  0  0  0  0  0  0
   40.1509  -23.6472   27.2197 O   0  5  0  0  0  0  0  0  0  0  0  0
   36.0180  -29.2423   37.9236 N   0  0  0  0  0  0  0  0  0  0  0  0
   37.0638  -23.6572   31.4432 O   0  0  0  0  0  0  0  0  0  0  0  0
   38.4823  -23.9046   29.1828 O   0  0  0  0  0  0  0  0  0  0  0  0
   39.2069  -25.8993   27.6750 O   0  0  0  0  0  0  0  0  0  0  0  0
   36.5380  -28.2230   37.2292 C   0  0  0  0  0  0  0  0  0  0  0  0
   37.0272  -27.1325   37.9195 C   0  0  0  0  0  0  0  0  0  0  0  0
   36.9729  -27.1106   39.3265 C   0  0  0  0  0  0  0  0  0  0  0  0
   37.4638  -26.0142   40.0571 O   0  0  0  0  0  0  0  0  0  0  0  0
   37.4900  -26.2539   37.0138 N   0  0  0  0  0  0  0  0  0  0  0  0
   37.2951  -26.7775   35.8161 C   0  0  0  0  0  0  0  0  0  0  0  0
   36.7209  -27.9610   35.9255 N   0  0  0  0  0  0  0  0  0  0  0  0
  1  5  1  1  0  0  0
  1 14  1  0  0  0  0
  1 19  2  0  0  0  0
  1 23  1  0  0  0  0
  2 15  1  6  0  0  0
  2 20  2  0  0  0  0
  2 23  1  0  0  0  0
  2 24  1  0  0  0  0
  3 16  1  6  0  0  0
  3 21  1  0  0  0  0
  3 24  1  0  0  0  0
  3 25  2  0  0  0  0
  4  5  1  0  0  0  0
  6  4  1  1  0  0  0
  6  7  1  0  0  0  0
  6  8  1  0  0  0  0
  7 12  1  0  0  0  0
  8  9  1  6  0  0  0
  8 10  1  0  0  0  0
 10 11  1  6  0  0  0
 10 12  1  0  0  0  0
 12 32  1  1  0  0  0
 13 17  2  0  0  0  0
 13 28  1  0  0  0  0
 17 18  1  0  0  0  0
 17 22  1  0  0  0  0
 22 26  2  0  0  0  0
 26 27  1  0  0  0  0
 26 32  1  0  0  0  0
 27 28  2  0  0  0  0
 27 30  1  0  0  0  0
 28 29  1  0  0  0  0
 30 31  2  0  0  0  0
 31 32  1  0  0  0  0
M  CHG  3  14  -1  15  -1  21  -1
M  END
>  <CHROM.1>
52.84122213,173.68080615,40.76657385,53.12297288,179.86400083,-167.63508646
-60.00074244,-67.70481670,36.99754588,-26.25854531,33.17393693,-1.26180059
0.87360725,1.74262271

>  <Name>
ligand

>  <RI>
0

>  <Rbt.Current_Directory>
/home/itssahil/PROJECTS/Mol_Feturizer/New_Systems/rnas/4Y1I

>  <Rbt.Executable>
rbdock ($Id: //depot/dev/client3/rdock/2013.1/src/exe/rbdock.cxx#4 $)

>  <Rbt.Library>
libRbt.so (2013.1, Build901 2013/11/27)

>  <Rbt.Parameter_File>
/export/apps/rDock/src/rDock_2013.1_src/data/scripts/dock_solv.prm

>  <Rbt.Receptor>
prm/blind_docking_100.prm

>  <SCORE>
-9.19669

>  <SCORE.INTER>
-2.48863

>  <SCORE.INTER.CONST>
1

>  <SCORE.INTER.POLAR>
0

>  <SCORE.INTER.ROT>
8

>  <SCORE.INTER.SOLV>
15.5058

>  <SCORE.INTER.VDW>
-15.761

>  <SCORE.INTER.norm>
-0.0777697

>  <SCORE.INTRA>
-6.70805

>  <SCORE.INTRA.DIHEDRAL>
-8.77236

>  <SCORE.INTRA.DIHEDRAL.0>
10.9594

>  <SCORE.INTRA.POLAR>
0

>  <SCORE.INTRA.POLAR.0>
0

>  <SCORE.INTRA.REPUL>
0

>  <SCORE.INTRA.REPUL.0>
0

>  <SCORE.INTRA.SOLV>
-4.47229

>  <SCORE.INTRA.SOLV.lig_0>
-124.914

>  <SCORE.INTRA.VDW>
-0.0857263

>  <SCORE.INTRA.VDW.0>
-4.69801

>  <SCORE.INTRA.norm>
-0.209627

>  <SCORE.RESTR>
0

>  <SCORE.RESTR.CAVITY>
0

>  <SCORE.RESTR.norm>
0

>  <SCORE.SYSTEM>
0

>  <SCORE.SYSTEM.CONST>
0

>  <SCORE.SYSTEM.DIHEDRAL>
0

>  <SCORE.SYSTEM.SOLV>
0

>  <SCORE.SYSTEM.norm>
0

>  <SCORE.heavy>
32

>  <SCORE.norm>
-0.287396

>  <RMSD>
56.080

$$$$
ligand
 OpenBabel11021811513D
libRbt.so/2013.1/901 2013/11/27
 32 34  0  0  0  0  0  0  0  0999 V2000
   37.6458  -29.0608   33.3468 P   0  0  1  0  0  0  0  0  0  0  0  0
   39.6454  -30.2258   35.0424 P   0  0  2  0  0  0  0  0  0  0  0  0
   38.9683  -29.9938   37.8890 P   0  0  1  0  0  0  0  0  0  0  0  0
   37.3134  -26.5176   33.8086 C   0  0  0  0  0  0  0  0  0  0  0  0
   38.0311  -27.6716   34.1418 O   0  0  0  0  0  0  0  0  0  0  0  0
   37.7496  -25.4562   34.5937 C   0  0  1  0  0  0  0  0  0  0  0  0
   39.2651  -25.4019   34.5926 O   0  0  0  0  0  0  0  0  0  0  0  0
   37.2615  -24.0552   34.0012 C   0  0  1  0  0  0  0  0  0  0  0  0
   36.3046  -23.4039   34.9739 O   0  0  0  0  0  0  0  0  0  0  0  0
   38.2658  -23.3415   33.9420 C   0  0  1  0  0  0  0  0  0  0  0  0
   38.3270  -22.4782   35.1457 O   0  0  0  0  0  0  0  0  0  0  0  0
   39.5748  -24.3709   33.9116 C   0  0  2  0  0  0  0  0  0  0  0  0
   38.2814  -24.1908   28.9437 N   0  0  0  0  0  0  0  0  0  0  0  0
   36.3424  -29.6075   33.8745 O   0  5  0  0  0  0  0  0  0  0  0  0
   40.7069  -29.1555   35.0854 O   0  5  0  0  0  0  0  0  0  0  0  0
   39.4047  -31.3862   38.2801 O   0  0  0  0  0  0  0  0  0  0  0  0
   37.6399  -23.6651   29.9755 C   0  0  0  0  0  0  0  0  0  0  0  0
   36.4103  -22.9323   29.7502 N   0  0  0  0  0  0  0  0  0  0  0  0
   37.5479  -28.7625   31.8677 O   0  0  0  0  0  0  0  0  0  0  0  0
   40.2907  -31.5814   35.1634 O   0  0  0  0  0  0  0  0  0  0  0  0
   40.1096  -29.0303   38.1315 O   0  5  0  0  0  0  0  0  0  0  0  0
   38.0839  -23.7857   31.2100 N   0  0  0  0  0  0  0  0  0  0  0  0
   38.8323  -30.1642   33.6177 O   0  0  0  0  0  0  0  0  0  0  0  0
   38.5855  -30.0107   36.2819 O   0  0  0  0  0  0  0  0  0  0  0  0
   37.7648  -29.6030   38.7187 O   0  0  0  0  0  0  0  0  0  0  0  0
   39.2155  -24.4550   31.4613 C   0  0  0  0  0  0  0  0  0  0  0  0
   39.9038  -25.0135   30.4033 C   0  0  0  0  0  0  0  0  0  0  0  0
   39.4107  -24.8711   29.0920 C   0  0  0  0  0  0  0  0  0  0  0  0
   40.0899  -25.4283   27.9942 O   0  0  0  0  0  0  0  0  0  0  0  0
   40.9913  -25.6240   30.9043 N   0  0  0  0  0  0  0  0  0  0  0  0
   40.9761  -25.4512   32.2146 C   0  0  0  0  0  0  0  0  0  0  0  0
   39.9138  -24.7524   32.5685 N   0  0  0  0  0  0  0  0  0  0  0  0
  1  5  1  1  0  0  0
  1 14  1  0  0  0  0
  1 19  2  0  0  0  0
  1 23  1  0  0  0  0
  2 15  1  1  0  0  0
  2 20  2  0  0  0  0
  2 23  1  0  0  0  0
  2 24  1  0  0  0  0
  3 16  1  1  0  0  0
  3 21  1  0  0  0  0
  3 24  1  0  0  0  0
  3 25  2  0  0  0  0
  4  5  1  0  0  0  0
  6  4  1  6  0  0  0
  6  7  1  0  0  0  0
  6  8  1  0  0  0  0
  7 12  1  0  0  0  0
  8  9  1  1  0  0  0
  8 10  1  0  0  0  0
 10 11  1  1  0  0  0
 10 12  1  0  0  0  0
 12 32  1  6  0  0  0
 13 17  2  0  0  0  0
 13 28  1  0  0  0  0
 17 18  1  0  0  0  0
 17 22  1  0  0  0  0
 22 26  2  0  0  0  0
 26 27  1  0  0  0  0
 26 32  1  0  0  0  0
 27 28  2  0  0  0  0
 27 30  1  0  0  0  0
 28 29  1  0  0  0  0
 30 31  2  0  0  0  0
 31 32  1  0  0  0  0
M  CHG  3  14  -1  15  -1  21  -1
M  END
>  <CHROM.1>
-74.92257348,-79.45227747,-67.70944797,47.68027717,178.70942142,112.63850169
33.70675038,-58.68295884,38.70640153,-27.05772810,33.78621886,-1.36617450
1.30026457,-0.96215306

>  <Name>
ligand

>  <RI>
0

>  <Rbt.Current_Directory>
/home/itssahil/PROJECTS/Mol_Feturizer/New_Systems/rnas/4Y1I

>  <Rbt.Executable>
rbdock ($Id: //depot/dev/client3/rdock/2013.1/src/exe/rbdock.cxx#4 $)

>  <Rbt.Library>
libRbt.so (2013.1, Build901 2013/11/27)

>  <Rbt.Parameter_File>
/export/apps/rDock/src/rDock_2013.1_src/data/scripts/dock_solv.prm

>  <Rbt.Receptor>
prm/blind_docking_80.prm

>  <SCORE>
-10.1623

>  <SCORE.INTER>
-3.83351

>  <SCORE.INTER.CONST>
1

>  <SCORE.INTER.POLAR>
0

>  <SCORE.INTER.ROT>
8

>  <SCORE.INTER.SOLV>
24.7122

>  <SCORE.INTER.VDW>
-19.7264

>  <SCORE.INTER.norm>
-0.119797

>  <SCORE.INTRA>
-6.32875

>  <SCORE.INTRA.DIHEDRAL>
-7.2576

>  <SCORE.INTRA.DIHEDRAL.0>
10.9594

>  <SCORE.INTRA.POLAR>
0

>  <SCORE.INTRA.POLAR.0>
0

>  <SCORE.INTRA.REPUL>
0

>  <SCORE.INTRA.REPUL.0>
0

>  <SCORE.INTRA.SOLV>
-5.38762

>  <SCORE.INTRA.SOLV.lig_0>
-124.914

>  <SCORE.INTRA.VDW>
-0.00613728

>  <SCORE.INTRA.VDW.0>
-4.69801

>  <SCORE.INTRA.norm>
-0.197773

>  <SCORE.RESTR>
0

>  <SCORE.RESTR.CAVITY>
0

>  <SCORE.RESTR.norm>
0

>  <SCORE.SYSTEM>
0

>  <SCORE.SYSTEM.CONST>
0

>  <SCORE.SYSTEM.DIHEDRAL>
0

>  <SCORE.SYSTEM.SOLV>
0

>  <SCORE.SYSTEM.norm>
0

>  <SCORE.heavy>
32

>  <SCORE.norm>
-0.31757

>  <RMSD>
56.177

$$$$
ligand
 OpenBabel11021811513D
libRbt.so/2013.1/901 2013/11/27
 32 34  0  0  0  0  0  0  0  0999 V2000
   39.9352  -25.3662   31.5337 P   0  0  1  0  0  0  0  0  0  0  0  0
   38.9903  -25.1066   28.8373 P   0  0  2  0  0  0  0  0  0  0  0  0
   37.9704  -22.4691   28.0505 P   0  0  1  0  0  0  0  0  0  0  0  0
   39.3407  -27.5055   32.8981 C   0  0  0  0  0  0  0  0  0  0  0  0
   39.1134  -26.7800   31.7234 O   0  0  0  0  0  0  0  0  0  0  0  0
   38.7396  -28.7551   32.7962 C   0  0  1  0  0  0  0  0  0  0  0  0
   39.1437  -29.6201   33.9744 O   0  0  0  0  0  0  0  0  0  0  0  0
   37.1474  -28.6420   32.8627 C   0  0  1  0  0  0  0  0  0  0  0  0
   36.5567  -29.0804   31.5417 O   0  0  0  0  0  0  0  0  0  0  0  0
   36.7830  -29.4557   33.7149 C   0  0  1  0  0  0  0  0  0  0  0  0
   36.3728  -30.7149   33.0486 O   0  0  0  0  0  0  0  0  0  0  0  0
   38.1001  -29.7329   34.6960 C   0  0  2  0  0  0  0  0  0  0  0  0
   36.9230  -28.7946   39.6072 N   0  0  0  0  0  0  0  0  0  0  0  0
   39.8901  -24.5724   32.8159 O   0  5  0  0  0  0  0  0  0  0  0  0
   38.4036  -26.4936   28.9156 O   0  5  0  0  0  0  0  0  0  0  0  0
   39.3991  -21.9894   27.9444 O   0  0  0  0  0  0  0  0  0  0  0  0
   36.6757  -29.8868   38.9010 C   0  0  0  0  0  0  0  0  0  0  0  0
   35.9896  -30.9986   39.5276 N   0  0  0  0  0  0  0  0  0  0  0  0
   41.3613  -25.6821   31.1430 O   0  0  0  0  0  0  0  0  0  0  0  0
   40.3284  -25.1630   28.1481 O   0  0  0  0  0  0  0  0  0  0  0  0
   37.1764  -21.9228   26.8841 O   0  5  0  0  0  0  0  0  0  0  0  0
   37.0344  -29.9990   37.6383 N   0  0  0  0  0  0  0  0  0  0  0  0
   39.2092  -24.4953   30.3450 O   0  0  0  0  0  0  0  0  0  0  0  0
   37.9802  -24.1202   27.9931 O   0  0  0  0  0  0  0  0  0  0  0  0
   37.3839  -21.9855   29.3587 O   0  0  0  0  0  0  0  0  0  0  0  0
   37.6699  -28.9950   37.0221 C   0  0  0  0  0  0  0  0  0  0  0  0
   37.9397  -27.8446   37.7355 C   0  0  0  0  0  0  0  0  0  0  0  0
   37.5475  -27.7474   39.0844 C   0  0  0  0  0  0  0  0  0  0  0  0
   37.8090  -26.5888   39.8369 O   0  0  0  0  0  0  0  0  0  0  0  0
   38.5755  -26.9957   36.9101 N   0  0  0  0  0  0  0  0  0  0  0  0
   38.6933  -27.5942   35.7376 C   0  0  0  0  0  0  0  0  0  0  0  0
   38.1519  -28.7970   35.7850 N   0  0  0  0  0  0  0  0  0  0  0  0
  1  5  1  1  0  0  0
  1 14  1  0  0  0  0
  1 19  2  0  0  0  0
  1 23  1  0  0  0  0
  2 15  1  1  0  0  0
  2 20  2  0  0  0  0
  2 23  1  0  0  0  0
  2 24  1  0  0  0  0
  3 16  1  6  0  0  0
  3 21  1  0  0  0  0
  3 24  1  0  0  0  0
  3 25  2  0  0  0  0
  4  5  1  0  0  0  0
  6  4  1  1  0  0  0
  6  7  1  0  0  0  0
  6  8  1  0  0  0  0
  7 12  1  0  0  0  0
  8  9  1  6  0  0  0
  8 10  1  0  0  0  0
 10 11  1  6  0  0  0
 10 12  1  0  0  0  0
 12 32  1  1  0  0  0
 13 17  2  0  0  0  0
 13 28  1  0  0  0  0
 17 18  1  0  0  0  0
 17 22  1  0  0  0  0
 22 26  2  0  0  0  0
 26 27  1  0  0  0  0
 26 32  1  0  0  0  0
 27 28  2  0  0  0  0
 27 30  1  0  0  0  0
 28 29  1  0  0  0  0
 30 31  2  0  0  0  0
 31 32  1  0  0  0  0
M  CHG  3  14  -1  15  -1  21  -1
M  END
>  <CHROM.1>
-44.83128038,47.81212977,46.05488424,171.96776584,-170.59048771,-145.78033877
-56.24900402,159.93749549,38.30841081,-26.61366924,32.74543447,-0.92871410
1.36360341,1.48088859

>  <Name>
ligand

>  <RI>
0

>  <Rbt.Current_Directory>
/home/itssahil/PROJECTS/Mol_Feturizer/New_Systems/rnas/4Y1I

>  <Rbt.Executable>
rbdock ($Id: //depot/dev/client3/rdock/2013.1/src/exe/rbdock.cxx#4 $)

>  <Rbt.Library>
libRbt.so (2013.1, Build901 2013/11/27)

>  <Rbt.Parameter_File>
/export/apps/rDock/src/rDock_2013.1_src/data/scripts/dock_solv.prm

>  <Rbt.Receptor>
prm/blind_docking_100.prm

>  <SCORE>
-8.93753

>  <SCORE.INTER>
-3.25651

>  <SCORE.INTER.CONST>
1

>  <SCORE.INTER.POLAR>
0

>  <SCORE.INTER.ROT>
8

>  <SCORE.INTER.SOLV>
22.3914

>  <SCORE.INTER.VDW>
-18.5681

>  <SCORE.INTER.norm>
-0.101766

>  <SCORE.INTRA>
-5.68811

>  <SCORE.INTRA.DIHEDRAL>
-7.49631

>  <SCORE.INTRA.DIHEDRAL.0>
10.9594

>  <SCORE.INTRA.POLAR>
0

>  <SCORE.INTRA.POLAR.0>
0

>  <SCORE.INTRA.REPUL>
0

>  <SCORE.INTRA.REPUL.0>
0

>  <SCORE.INTRA.SOLV>
-5.32756

>  <SCORE.INTRA.SOLV.lig_0>
-124.914

>  <SCORE.INTRA.VDW>
0.723828

>  <SCORE.INTRA.VDW.0>
-4.69801

>  <SCORE.INTRA.norm>
-0.177753

>  <SCORE.RESTR>
0.00708421

>  <SCORE.RESTR.CAVITY>
0.00708421

>  <SCORE.RESTR.norm>
0.000221382

>  <SCORE.SYSTEM>
0

>  <SCORE.SYSTEM.CONST>
0

>  <SCORE.SYSTEM.DIHEDRAL>
0

>  <SCORE.SYSTEM.SOLV>
0

>  <SCORE.SYSTEM.norm>
0

>  <SCORE.heavy>
32

>  <SCORE.norm>
-0.279298

>  <RMSD>
56.205

$$$$
ligand
 OpenBabel11021811513D
libRbt.so/2013.1/901 2013/11/27
 32 34  0  0  0  0  0  0  0  0999 V2000
   37.8181  -24.1641   37.1599 P   0  0  1  0  0  0  0  0  0  0  0  0
   37.3512  -26.8885   37.9284 P   0  0  2  0  0  0  0  0  0  0  0  0
   37.4749  -29.8157   38.1066 P   0  0  1  0  0  0  0  0  0  0  0  0
   36.5899  -23.9852   34.8684 C   0  0  0  0  0  0  0  0  0  0  0  0
   36.4450  -24.1353   36.2520 O   0  0  0  0  0  0  0  0  0  0  0  0
   36.7287  -25.2361   34.2773 C   0  0  1  0  0  0  0  0  0  0  0  0
   36.1482  -25.2125   32.8764 O   0  0  0  0  0  0  0  0  0  0  0  0
   38.2671  -25.6314   34.1063 C   0  0  1  0  0  0  0  0  0  0  0  0
   38.5759  -26.8342   34.9689 O   0  0  0  0  0  0  0  0  0  0  0  0
   38.4011  -25.9796   32.9307 C   0  0  1  0  0  0  0  0  0  0  0  0
   38.3149  -27.4570   32.8427 O   0  0  0  0  0  0  0  0  0  0  0  0
   37.1450  -25.2841   32.0867 C   0  0  2  0  0  0  0  0  0  0  0  0
   35.9849  -21.4308   28.8941 N   0  0  0  0  0  0  0  0  0  0  0  0
   38.8993  -23.3633   36.4775 O   0  5  0  0  0  0  0  0  0  0  0  0
   36.0873  -27.0136   37.1152 O   0  5  0  0  0  0  0  0  0  0  0  0
   36.7521  -29.8446   39.4328 O   0  0  0  0  0  0  0  0  0  0  0  0
   35.3585  -22.5878   29.0415 C   0  0  0  0  0  0  0  0  0  0  0  0
   34.1898  -22.8718   28.2333 N   0  0  0  0  0  0  0  0  0  0  0  0
   37.5078  -23.5989   38.5275 O   0  0  0  0  0  0  0  0  0  0  0  0
   37.0048  -26.5065   39.3436 O   0  0  0  0  0  0  0  0  0  0  0  0
   36.4783  -30.0560   36.9937 O   0  5  0  0  0  0  0  0  0  0  0  0
   35.7636  -23.4972   29.9043 N   0  0  0  0  0  0  0  0  0  0  0  0
   38.3199  -25.7222   37.2991 O   0  0  0  0  0  0  0  0  0  0  0  0
   38.1582  -28.3220   37.9295 O   0  0  0  0  0  0  0  0  0  0  0  0
   38.5388  -30.8916   38.1013 O   0  0  0  0  0  0  0  0  0  0  0  0
   36.8388  -23.2744   30.6697 C   0  0  0  0  0  0  0  0  0  0  0  0
   37.5107  -22.0763   30.5357 C   0  0  0  0  0  0  0  0  0  0  0  0
   37.0590  -21.1185   29.6074 C   0  0  0  0  0  0  0  0  0  0  0  0
   37.7222  -19.8889   29.4488 O   0  0  0  0  0  0  0  0  0  0  0  0
   38.5399  -22.0899   31.3999 N   0  0  0  0  0  0  0  0  0  0  0  0
   38.5066  -23.2457   32.0399 C   0  0  0  0  0  0  0  0  0  0  0  0
   37.4914  -23.9729   31.6122 N   0  0  0  0  0  0  0  0  0  0  0  0
  1  5  1  6  0  0  0
  1 14  1  0  0  0  0
  1 19  2  0  0  0  0
  1 23  1  0  0  0  0
  2 15  1  6  0  0  0
  2 20  2  0  0  0  0
  2 23  1  0  0  0  0
  2 24  1  0  0  0  0
  3 16  1  1  0  0  0
  3 21  1  0  0  0  0
  3 24  1  0  0  0  0
  3 25  2  0  0  0  0
  4  5  1  0  0  0  0
  6  4  1  6  0  0  0
  6  7  1  0  0  0  0
  6  8  1  0  0  0  0
  7 12  1  0  0  0  0
  8  9  1  1  0  0  0
  8 10  1  0  0  0  0
 10 11  1  1  0  0  0
 10 12  1  0  0  0  0
 12 32  1  1  0  0  0
 13 17  2  0  0  0  0
 13 28  1  0  0  0  0
 17 18  1  0  0  0  0
 17 22  1  0  0  0  0
 22 26  2  0  0  0  0
 26 27  1  0  0  0  0
 26 32  1  0  0  0  0
 27 28  2  0  0  0  0
 27 30  1  0  0  0  0
 28 29  1  0  0  0  0
 30 31  2  0  0  0  0
 31 32  1  0  0  0  0
M  CHG  3  14  -1  15  -1  21  -1
M  END
>  <CHROM.1>
28.37512269,59.44729228,-58.89451237,149.25663517,88.72922998,-76.58665118
-57.29464385,-42.52503593,37.29301298,-25.36699919,34.65061835,-1.16674287
-1.37186613,-0.53779431

>  <Name>
ligand

>  <RI>
0

>  <Rbt.Current_Directory>
/home/itssahil/PROJECTS/Mol_Feturizer/New_Systems/rnas/4Y1I

>  <Rbt.Executable>
rbdock ($Id: //depot/dev/client3/rdock/2013.1/src/exe/rbdock.cxx#4 $)

>  <Rbt.Library>
libRbt.so (2013.1, Build901 2013/11/27)

>  <Rbt.Parameter_File>
/export/apps/rDock/src/rDock_2013.1_src/data/scripts/dock_solv.prm

>  <Rbt.Receptor>
prm/blind_docking_100.prm

>  <SCORE>
-4.79904

>  <SCORE.INTER>
-3.19681

>  <SCORE.INTER.CONST>
1

>  <SCORE.INTER.POLAR>
0

>  <SCORE.INTER.ROT>
8

>  <SCORE.INTER.SOLV>
11.7764

>  <SCORE.INTER.VDW>
-14.99

>  <SCORE.INTER.norm>
-0.0999003

>  <SCORE.INTRA>
-1.60696

>  <SCORE.INTRA.DIHEDRAL>
-1.97204

>  <SCORE.INTRA.DIHEDRAL.0>
10.9594

>  <SCORE.INTRA.POLAR>
0

>  <SCORE.INTRA.POLAR.0>
0

>  <SCORE.INTRA.REPUL>
0

>  <SCORE.INTRA.REPUL.0>
0

>  <SCORE.INTRA.SOLV>
0.906943

>  <SCORE.INTRA.SOLV.lig_0>
-124.914

>  <SCORE.INTRA.VDW>
-1.07442

>  <SCORE.INTRA.VDW.0>
-4.69801

>  <SCORE.INTRA.norm>
-0.0502176

>  <SCORE.RESTR>
0.00473424

>  <SCORE.RESTR.CAVITY>
0.00473424

>  <SCORE.RESTR.norm>
0.000147945

>  <SCORE.SYSTEM>
0

>  <SCORE.SYSTEM.CONST>
0

>  <SCORE.SYSTEM.DIHEDRAL>
0

>  <SCORE.SYSTEM.SOLV>
0

>  <SCORE.SYSTEM.norm>
0

>  <SCORE.heavy>
32

>  <SCORE.norm>
-0.14997

>  <RMSD>
56.210

$$$$
ligand
 OpenBabel11021811513D
libRbt.so/2013.1/901 2013/11/27
 32 34  0  0  0  0  0  0  0  0999 V2000
   38.3730  -24.8824   33.0099 P   0  0  1  0  0  0  0  0  0  0  0  0
   38.5018  -24.5145   30.1676 P   0  0  2  0  0  0  0  0  0  0  0  0
   39.5545  -24.4386   27.4287 P   0  0  1  0  0  0  0  0  0  0  0  0
   36.7732  -26.7439   33.8857 C   0  0  0  0  0  0  0  0  0  0  0  0
   37.4926  -26.2559   32.7893 O   0  0  0  0  0  0  0  0  0  0  0  0
   36.0357  -27.8574   33.4992 C   0  0  1  0  0  0  0  0  0  0  0  0
   36.9673  -28.9485   33.0076 O   0  0  0  0  0  0  0  0  0  0  0  0
   35.2401  -28.4856   34.7339 C   0  0  1  0  0  0  0  0  0  0  0  0
   33.7532  -28.3498   34.4954 O   0  0  0  0  0  0  0  0  0  0  0  0
   35.5029  -29.6907   34.7315 C   0  0  1  0  0  0  0  0  0  0  0  0
   34.4208  -30.4284   34.0367 O   0  0  0  0  0  0  0  0  0  0  0  0
   36.9346  -29.8595   33.8973 C   0  0  2  0  0  0  0  0  0  0  0  0
   38.5963  -29.0615   38.6918 N   0  0  0  0  0  0  0  0  0  0  0  0
   37.4488  -23.7191   33.2720 O   0  5  0  0  0  0  0  0  0  0  0  0
   37.3642  -23.5248   30.1908 O   0  5  0  0  0  0  0  0  0  0  0  0
   40.0281  -25.8636   27.2632 O   0  0  0  0  0  0  0  0  0  0  0  0
   37.3472  -29.1009   38.2549 C   0  0  0  0  0  0  0  0  0  0  0  0
   36.2596  -28.9022   39.1915 N   0  0  0  0  0  0  0  0  0  0  0  0
   39.3194  -25.0934   34.1701 O   0  0  0  0  0  0  0  0  0  0  0  0
   37.9718  -25.8845   29.8343 O   0  0  0  0  0  0  0  0  0  0  0  0
   38.1310  -24.3282   26.9275 O   0  5  0  0  0  0  0  0  0  0  0  0
   37.0561  -29.3161   36.9882 N   0  0  0  0  0  0  0  0  0  0  0  0
   39.2268  -24.5831   31.6388 O   0  0  0  0  0  0  0  0  0  0  0  0
   39.6093  -24.0654   29.0372 O   0  0  0  0  0  0  0  0  0  0  0  0
   40.4630  -23.5222   26.6385 O   0  0  0  0  0  0  0  0  0  0  0  0
   38.0312  -29.5042   36.0907 C   0  0  0  0  0  0  0  0  0  0  0  0
   39.3425  -29.4677   36.5198 C   0  0  0  0  0  0  0  0  0  0  0  0
   39.6299  -29.2368   37.8789 C   0  0  0  0  0  0  0  0  0  0  0  0
   40.9555  -29.1946   38.3457 O   0  0  0  0  0  0  0  0  0  0  0  0
   40.1255  -29.6810   35.4485 N   0  0  0  0  0  0  0  0  0  0  0  0
   39.3336  -29.8418   34.4027 C   0  0  0  0  0  0  0  0  0  0  0  0
   38.0699  -29.7362   34.7691 N   0  0  0  0  0  0  0  0  0  0  0  0
  1  5  1  6  0  0  0
  1 14  1  0  0  0  0
  1 19  2  0  0  0  0
  1 23  1  0  0  0  0
  2 15  1  1  0  0  0
  2 20  2  0  0  0  0
  2 23  1  0  0  0  0
  2 24  1  0  0  0  0
  3 16  1  6  0  0  0
  3 21  1  0  0  0  0
  3 24  1  0  0  0  0
  3 25  2  0  0  0  0
  4  5  1  0  0  0  0
  6  4  1  1  0  0  0
  6  7  1  0  0  0  0
  6  8  1  0  0  0  0
  7 12  1  0  0  0  0
  8  9  1  6  0  0  0
  8 10  1  0  0  0  0
 10 11  1  6  0  0  0
 10 12  1  0  0  0  0
 12 32  1  1  0  0  0
 13 17  2  0  0  0  0
 13 28  1  0  0  0  0
 17 18  1  0  0  0  0
 17 22  1  0  0  0  0
 22 26  2  0  0  0  0
 26 27  1  0  0  0  0
 26 32  1  0  0  0  0
 27 28  2  0  0  0  0
 27 30  1  0  0  0  0
 28 29  1  0  0  0  0
 30 31  2  0  0  0  0
 31 32  1  0  0  0  0
M  CHG  3  14  -1  15  -1  21  -1
M  END
>  <CHROM.1>
-66.08996317,54.09697806,-78.62085773,60.77164366,176.69917786,118.58156895
52.67887395,-85.47330175,38.02794926,-26.92053480,32.97941168,-1.40462630
0.37214574,2.05412437

>  <Name>
ligand

>  <RI>
0

>  <Rbt.Current_Directory>
/home/itssahil/PROJECTS/Mol_Feturizer/New_Systems/rnas/4Y1I

>  <Rbt.Executable>
rbdock ($Id: //depot/dev/client3/rdock/2013.1/src/exe/rbdock.cxx#4 $)

>  <Rbt.Library>
libRbt.so (2013.1, Build901 2013/11/27)

>  <Rbt.Parameter_File>
/export/apps/rDock/src/rDock_2013.1_src/data/scripts/dock_solv.prm

>  <Rbt.Receptor>
prm/blind_docking_100.prm

>  <SCORE>
-12.1577

>  <SCORE.INTER>
-6.69832

>  <SCORE.INTER.CONST>
1

>  <SCORE.INTER.POLAR>
0

>  <SCORE.INTER.ROT>
8

>  <SCORE.INTER.SOLV>
18.9146

>  <SCORE.INTER.VDW>
-19.7037

>  <SCORE.INTER.norm>
-0.209322

>  <SCORE.INTRA>
-5.45939

>  <SCORE.INTRA.DIHEDRAL>
-8.02179

>  <SCORE.INTRA.DIHEDRAL.0>
10.9594

>  <SCORE.INTRA.POLAR>
0

>  <SCORE.INTRA.POLAR.0>
0

>  <SCORE.INTRA.REPUL>
0

>  <SCORE.INTRA.REPUL.0>
0

>  <SCORE.INTRA.SOLV>
-3.58452

>  <SCORE.INTRA.SOLV.lig_0>
-124.914

>  <SCORE.INTRA.VDW>
0.343764

>  <SCORE.INTRA.VDW.0>
-4.69801

>  <SCORE.INTRA.norm>
-0.170606

>  <SCORE.RESTR>
0

>  <SCORE.RESTR.CAVITY>
0

>  <SCORE.RESTR.norm>
0

>  <SCORE.SYSTEM>
0

>  <SCORE.SYSTEM.CONST>
0

>  <SCORE.SYSTEM.DIHEDRAL>
0

>  <SCORE.SYSTEM.SOLV>
0

>  <SCORE.SYSTEM.norm>
0

>  <SCORE.heavy>
32

>  <SCORE.norm>
-0.379928

>  <RMSD>
56.248

$$$$
ligand
 OpenBabel11021811513D
libRbt.so/2013.1/901 2013/11/27
 32 34  0  0  0  0  0  0  0  0999 V2000
   40.1702  -26.3619   35.2690 P   0  0  1  0  0  0  0  0  0  0  0  0
   37.6711  -26.5144   36.6698 P   0  0  2  0  0  0  0  0  0  0  0  0
   37.6859  -28.4179   38.9041 P   0  0  1  0  0  0  0  0  0  0  0  0
   39.1416  -26.2407   32.8776 C   0  0  0  0  0  0  0  0  0  0  0  0
   40.1646  -26.7678   33.6736 O   0  0  0  0  0  0  0  0  0  0  0  0
   39.3132  -26.6595   31.5629 C   0  0  1  0  0  0  0  0  0  0  0  0
   38.6357  -28.0004   31.3555 O   0  0  0  0  0  0  0  0  0  0  0  0
   38.6156  -25.6539   30.5362 C   0  0  1  0  0  0  0  0  0  0  0  0
   39.6732  -24.9993   29.6765 O   0  0  0  0  0  0  0  0  0  0  0  0
   37.9207  -26.3520   29.7939 C   0  0  1  0  0  0  0  0  0  0  0  0
   38.6698  -26.6410   28.5476 O   0  0  0  0  0  0  0  0  0  0  0  0
   37.6220  -27.7668   30.6204 C   0  0  2  0  0  0  0  0  0  0  0  0
   34.8436  -29.7980   34.4336 N   0  0  0  0  0  0  0  0  0  0  0  0
   41.5081  -26.7008   35.8784 O   0  5  0  0  0  0  0  0  0  0  0  0
   36.7122  -26.1254   35.5728 O   0  5  0  0  0  0  0  0  0  0  0  0
   38.3752  -27.4367   39.8231 O   0  0  0  0  0  0  0  0  0  0  0  0
   35.9858  -30.2383   33.9294 C   0  0  0  0  0  0  0  0  0  0  0  0
   36.5868  -31.4396   34.4726 N   0  0  0  0  0  0  0  0  0  0  0  0
   39.8772  -24.8839   35.3950 O   0  0  0  0  0  0  0  0  0  0  0  0
   38.1056  -25.2828   37.4202 O   0  0  0  0  0  0  0  0  0  0  0  0
   36.6563  -29.1968   39.6933 O   0  5  0  0  0  0  0  0  0  0  0  0
   36.6000  -29.6174   32.9430 N   0  0  0  0  0  0  0  0  0  0  0  0
   39.0040  -27.2306   36.0332 O   0  0  0  0  0  0  0  0  0  0  0  0
   36.9375  -27.5585   37.7079 O   0  0  0  0  0  0  0  0  0  0  0  0
   38.7196  -29.3552   38.3190 O   0  0  0  0  0  0  0  0  0  0  0  0
   36.0783  -28.5047   32.4128 C   0  0  0  0  0  0  0  0  0  0  0  0
   34.8878  -28.0243   32.9198 C   0  0  0  0  0  0  0  0  0  0  0  0
   34.2494  -28.7041   33.9749 C   0  0  0  0  0  0  0  0  0  0  0  0
   33.0364  -28.2388   34.5125 O   0  0  0  0  0  0  0  0  0  0  0  0
   34.5737  -26.9129   32.2326 N   0  0  0  0  0  0  0  0  0  0  0  0
   35.5274  -26.7147   31.3394 C   0  0  0  0  0  0  0  0  0  0  0  0
   36.4401  -27.6638   31.4310 N   0  0  0  0  0  0  0  0  0  0  0  0
  1  5  1  6  0  0  0
  1 14  1  0  0  0  0
  1 19  2  0  0  0  0
  1 23  1  0  0  0  0
  2 15  1  6  0  0  0
  2 20  2  0  0  0  0
  2 23  1  0  0  0  0
  2 24  1  0  0  0  0
  3 16  1  1  0  0  0
  3 21  1  0  0  0  0
  3 24  1  0  0  0  0
  3 25  2  0  0  0  0
  4  5  1  0  0  0  0
  6  4  1  1  0  0  0
  6  7  1  0  0  0  0
  6  8  1  0  0  0  0
  7 12  1  0  0  0  0
  8  9  1  6  0  0  0
  8 10  1  0  0  0  0
 10 11  1  6  0  0  0
 10 12  1  0  0  0  0
 12 32  1  1  0  0  0
 13 17  2  0  0  0  0
 13 28  1  0  0  0  0
 17 18  1  0  0  0  0
 17 22  1  0  0  0  0
 22 26  2  0  0  0  0
 26 27  1  0  0  0  0
 26 32  1  0  0  0  0
 27 28  2  0  0  0  0
 27 30  1  0  0  0  0
 28 29  1  0  0  0  0
 30 31  2  0  0  0  0
 31 32  1  0  0  0  0
M  CHG  3  14  -1  15  -1  21  -1
M  END
>  <CHROM.1>
-165.00473053,75.04467305,57.64485058,87.25799948,178.54971947,-46.32980200
-112.86822420,169.62630356,37.67808416,-27.42323038,34.46056047,-1.56714507
-0.54223896,-1.43281877

>  <Name>
ligand

>  <RI>
0

>  <Rbt.Current_Directory>
/home/itssahil/PROJECTS/Mol_Feturizer/New_Systems/rnas/4Y1I

>  <Rbt.Executable>
rbdock ($Id: //depot/dev/client3/rdock/2013.1/src/exe/rbdock.cxx#4 $)

>  <Rbt.Library>
libRbt.so (2013.1, Build901 2013/11/27)

>  <Rbt.Parameter_File>
/export/apps/rDock/src/rDock_2013.1_src/data/scripts/dock_solv.prm

>  <Rbt.Receptor>
prm/blind_docking_100.prm

>  <SCORE>
-13.7924

>  <SCORE.INTER>
-9.40385

>  <SCORE.INTER.CONST>
1

>  <SCORE.INTER.POLAR>
0

>  <SCORE.INTER.ROT>
8

>  <SCORE.INTER.SOLV>
26.3537

>  <SCORE.INTER.VDW>
-23.9871

>  <SCORE.INTER.norm>
-0.29387

>  <SCORE.INTRA>
-4.38854

>  <SCORE.INTRA.DIHEDRAL>
-4.18137

>  <SCORE.INTRA.DIHEDRAL.0>
10.9594

>  <SCORE.INTRA.POLAR>
0

>  <SCORE.INTRA.POLAR.0>
0

>  <SCORE.INTRA.REPUL>
0

>  <SCORE.INTRA.REPUL.0>
0

>  <SCORE.INTRA.SOLV>
-3.83911

>  <SCORE.INTRA.SOLV.lig_0>
-124.914

>  <SCORE.INTRA.VDW>
-0.378301

>  <SCORE.INTRA.VDW.0>
-4.69801

>  <SCORE.INTRA.norm>
-0.137142

>  <SCORE.RESTR>
0

>  <SCORE.RESTR.CAVITY>
0

>  <SCORE.RESTR.norm>
0

>  <SCORE.SYSTEM>
0

>  <SCORE.SYSTEM.CONST>
0

>  <SCORE.SYSTEM.DIHEDRAL>
0

>  <SCORE.SYSTEM.SOLV>
0

>  <SCORE.SYSTEM.norm>
0

>  <SCORE.heavy>
32

>  <SCORE.norm>
-0.431012

>  <RMSD>
56.373

$$$$
ligand
 OpenBabel11021811513D
libRbt.so/2013.1/901 2013/11/27
 32 34  0  0  0  0  0  0  0  0999 V2000
   38.5418  -27.2057   31.9952 P   0  0  1  0  0  0  0  0  0  0  0  0
   38.7228  -25.8646   29.4654 P   0  0  2  0  0  0  0  0  0  0  0  0
   35.9318  -25.3857   28.6934 P   0  0  1  0  0  0  0  0  0  0  0  0
   38.0114  -28.8804   33.9202 C   0  0  0  0  0  0  0  0  0  0  0  0
   38.2340  -28.7258   32.5474 O   0  0  0  0  0  0  0  0  0  0  0  0
   39.1081  -29.5076   34.5010 C   0  0  1  0  0  0  0  0  0  0  0  0
   40.3170  -28.5940   34.4408 O   0  0  0  0  0  0  0  0  0  0  0  0
   38.8576  -29.7996   36.0515 C   0  0  1  0  0  0  0  0  0  0  0  0
   38.8267  -31.2934   36.2832 O   0  0  0  0  0  0  0  0  0  0  0  0
   39.8438  -29.3570   36.6455 C   0  0  1  0  0  0  0  0  0  0  0  0
   40.8036  -30.4593   36.8938 O   0  0  0  0  0  0  0  0  0  0  0  0
   40.5293  -28.2201   35.6398 C   0  0  2  0  0  0  0  0  0  0  0  0
   36.6616  -25.4985   37.6445 N   0  0  0  0  0  0  0  0  0  0  0  0
   37.5009  -26.2494   32.5227 O   0  5  0  0  0  0  0  0  0  0  0  0
   39.1246  -26.2301   28.0586 O   0  5  0  0  0  0  0  0  0  0  0  0
   36.2688  -25.9508   27.3334 O   0  0  0  0  0  0  0  0  0  0  0  0
   36.8288  -26.8118   37.6541 C   0  0  0  0  0  0  0  0  0  0  0  0
   35.8351  -27.6506   38.2932 N   0  0  0  0  0  0  0  0  0  0  0  0
   39.9273  -26.7978   32.4426 O   0  0  0  0  0  0  0  0  0  0  0  0
   39.8265  -25.0723   30.1156 O   0  0  0  0  0  0  0  0  0  0  0  0
   35.2226  -26.4452   29.5083 O   0  5  0  0  0  0  0  0  0  0  0  0
   37.8756  -27.3872   37.0985 N   0  0  0  0  0  0  0  0  0  0  0  0
   38.4654  -27.2205   30.3543 O   0  0  0  0  0  0  0  0  0  0  0  0
   37.3459  -24.9650   29.4367 O   0  0  0  0  0  0  0  0  0  0  0  0
   35.0421  -24.1745   28.5173 O   0  0  0  0  0  0  0  0  0  0  0  0
   38.8163  -26.6486   36.4977 C   0  0  0  0  0  0  0  0  0  0  0  0
   38.6661  -25.2768   36.4730 C   0  0  0  0  0  0  0  0  0  0  0  0
   37.5392  -24.6834   37.0741 C   0  0  0  0  0  0  0  0  0  0  0  0
   37.3590  -23.2890   37.0656 O   0  0  0  0  0  0  0  0  0  0  0  0
   39.7249  -24.7647   35.8228 N   0  0  0  0  0  0  0  0  0  0  0  0
   40.4960  -25.7752   35.4607 C   0  0  0  0  0  0  0  0  0  0  0  0
   39.9643  -26.9168   35.8557 N   0  0  0  0  0  0  0  0  0  0  0  0
  1  5  1  1  0  0  0
  1 14  1  0  0  0  0
  1 19  2  0  0  0  0
  1 23  1  0  0  0  0
  2 15  1  6  0  0  0
  2 20  2  0  0  0  0
  2 23  1  0  0  0  0
  2 24  1  0  0  0  0
  3 16  1  6  0  0  0
  3 21  1  0  0  0  0
  3 24  1  0  0  0  0
  3 25  2  0  0  0  0
  4  5  1  0  0  0  0
  6  4  1  1  0  0  0
  6  7  1  0  0  0  0
  6  8  1  0  0  0  0
  7 12  1  0  0  0  0
  8  9  1  6  0  0  0
  8 10  1  0  0  0  0
 10 11  1  6  0  0  0
 10 12  1  0  0  0  0
 12 32  1  6  0  0  0
 13 17  2  0  0  0  0
 13 28  1  0  0  0  0
 17 18  1  0  0  0  0
 17 22  1  0  0  0  0
 22 26  2  0  0  0  0
 26 27  1  0  0  0  0
 26 32  1  0  0  0  0
 27 28  2  0  0  0  0
 27 30  1  0  0  0  0
 28 29  1  0  0  0  0
 30 31  2  0  0  0  0
 31 32  1  0  0  0  0
M  CHG  3  14  -1  15  -1  21  -1
M  END
>  <CHROM.1>
-49.79564022,157.93136608,-43.81234503,67.00997661,-107.75801891,102.52780512
-179.97783547,53.68021905,38.23984922,-26.83245875,33.21552607,-1.94197401
-0.99897225,1.51833437

>  <Name>
ligand

>  <RI>
0

>  <Rbt.Current_Directory>
/home/itssahil/PROJECTS/Mol_Feturizer/New_Systems/rnas/4Y1I

>  <Rbt.Executable>
rbdock ($Id: //depot/dev/client3/rdock/2013.1/src/exe/rbdock.cxx#4 $)

>  <Rbt.Library>
libRbt.so (2013.1, Build901 2013/11/27)

>  <Rbt.Parameter_File>
/export/apps/rDock/src/rDock_2013.1_src/data/scripts/dock_solv.prm

>  <Rbt.Receptor>
prm/blind_docking_100.prm

>  <SCORE>
-8.66048

>  <SCORE.INTER>
-6.45627

>  <SCORE.INTER.CONST>
1

>  <SCORE.INTER.POLAR>
0

>  <SCORE.INTER.ROT>
8

>  <SCORE.INTER.SOLV>
18.2101

>  <SCORE.INTER.VDW>
-19.3075

>  <SCORE.INTER.norm>
-0.201758

>  <SCORE.INTRA>
-2.20422

>  <SCORE.INTRA.DIHEDRAL>
-1.68909

>  <SCORE.INTRA.DIHEDRAL.0>
10.9594

>  <SCORE.INTRA.POLAR>
0

>  <SCORE.INTRA.POLAR.0>
0

>  <SCORE.INTRA.REPUL>
0

>  <SCORE.INTRA.REPUL.0>
0

>  <SCORE.INTRA.SOLV>
-0.327959

>  <SCORE.INTRA.SOLV.lig_0>
-124.914

>  <SCORE.INTRA.VDW>
-1.19569

>  <SCORE.INTRA.VDW.0>
-4.69801

>  <SCORE.INTRA.norm>
-0.0688818

>  <SCORE.RESTR>
0

>  <SCORE.RESTR.CAVITY>
0

>  <SCORE.RESTR.norm>
0

>  <SCORE.SYSTEM>
0

>  <SCORE.SYSTEM.CONST>
0

>  <SCORE.SYSTEM.DIHEDRAL>
0

>  <SCORE.SYSTEM.SOLV>
0

>  <SCORE.SYSTEM.norm>
0

>  <SCORE.heavy>
32

>  <SCORE.norm>
-0.27064

>  <RMSD>
56.398

$$$$
ligand
 OpenBabel11021811513D
libRbt.so/2013.1/901 2013/11/27
 32 34  0  0  0  0  0  0  0  0999 V2000
   39.6992  -25.8295   32.8814 P   0  0  1  0  0  0  0  0  0  0  0  0
   37.0564  -25.1821   31.9718 P   0  0  2  0  0  0  0  0  0  0  0  0
   34.1418  -24.8739   31.8129 P   0  0  1  0  0  0  0  0  0  0  0  0
   40.1316  -27.7088   34.6343 C   0  0  0  0  0  0  0  0  0  0  0  0
   40.3391  -26.3660   34.3002 O   0  0  0  0  0  0  0  0  0  0  0  0
   40.0274  -27.8334   36.0152 C   0  0  1  0  0  0  0  0  0  0  0  0
   38.9152  -26.9410   36.5316 O   0  0  0  0  0  0  0  0  0  0  0  0
   39.6255  -29.3210   36.4365 C   0  0  1  0  0  0  0  0  0  0  0  0
   40.7595  -29.9462   37.2171 O   0  0  0  0  0  0  0  0  0  0  0  0
   38.6681  -29.2105   37.2063 C   0  0  1  0  0  0  0  0  0  0  0  0
   39.1546  -29.2591   38.6059 O   0  0  0  0  0  0  0  0  0  0  0  0
   37.9799  -27.7265   36.8932 C   0  0  2  0  0  0  0  0  0  0  0  0
   34.9109  -30.7919   34.1419 N   0  0  0  0  0  0  0  0  0  0  0  0
   40.5303  -24.6910   32.3436 O   0  5  0  0  0  0  0  0  0  0  0  0
   37.0480  -26.4484   31.1529 O   0  5  0  0  0  0  0  0  0  0  0  0
   33.0324  -24.6668   32.8173 O   0  0  0  0  0  0  0  0  0  0  0  0
   35.7690  -31.1321   35.0909 C   0  0  0  0  0  0  0  0  0  0  0  0
   35.9137  -32.5280   35.4519 N   0  0  0  0  0  0  0  0  0  0  0  0
   39.6591  -26.9800   31.9011 O   0  0  0  0  0  0  0  0  0  0  0  0
   37.4093  -24.0133   31.0896 O   0  0  0  0  0  0  0  0  0  0  0  0
   34.1608  -23.7083   30.8483 O   0  5  0  0  0  0  0  0  0  0  0  0
   36.5019  -30.2388   35.7237 N   0  0  0  0  0  0  0  0  0  0  0  0
   38.1760  -25.2851   33.1679 O   0  0  0  0  0  0  0  0  0  0  0  0
   35.5720  -24.9380   32.6374 O   0  0  0  0  0  0  0  0  0  0  0  0
   33.8979  -26.1686   31.0688 O   0  0  0  0  0  0  0  0  0  0  0  0
   36.3989  -28.9392   35.4203 C   0  0  0  0  0  0  0  0  0  0  0  0
   35.5118  -28.5574   34.4342 C   0  0  0  0  0  0  0  0  0  0  0  0
   34.7380  -29.5298   33.7717 C   0  0  0  0  0  0  0  0  0  0  0  0
   33.8258  -29.1714   32.7636 O   0  0  0  0  0  0  0  0  0  0  0  0
   35.5893  -27.2210   34.3145 N   0  0  0  0  0  0  0  0  0  0  0  0
   36.4852  -26.7949   35.1878 C   0  0  0  0  0  0  0  0  0  0  0  0
   36.9850  -27.8147   35.8604 N   0  0  0  0  0  0  0  0  0  0  0  0
  1  5  1  1  0  0  0
  1 14  1  0  0  0  0
  1 19  2  0  0  0  0
  1 23  1  0  0  0  0
  2 15  1  6  0  0  0
  2 20  2  0  0  0  0
  2 23  1  0  0  0  0
  2 24  1  0  0  0  0
  3 16  1  1  0  0  0
  3 21  1  0  0  0  0
  3 24  1  0  0  0  0
  3 25  2  0  0  0  0
  4  5  1  0  0  0  0
  6  4  1  6  0  0  0
  6  7  1  0  0  0  0
  6  8  1  0  0  0  0
  7 12  1  0  0  0  0
  8  9  1  1  0  0  0
  8 10  1  0  0  0  0
 10 11  1  1  0  0  0
 10 12  1  0  0  0  0
 12 32  1  6  0  0  0
 13 17  2  0  0  0  0
 13 28  1  0  0  0  0
 17 18  1  0  0  0  0
 17 22  1  0  0  0  0
 22 26  2  0  0  0  0
 26 27  1  0  0  0  0
 26 32  1  0  0  0  0
 27 28  2  0  0  0  0
 27 30  1  0  0  0  0
 28 29  1  0  0  0  0
 30 31  2  0  0  0  0
 31 32  1  0  0  0  0
M  CHG  3  14  -1  15  -1  21  -1
M  END
>  <CHROM.1>
-151.64866538,46.38767751,178.64055684,56.55369450,-147.05913384,135.61370860
-157.73966265,-54.62262891,37.14780561,-27.17564138,33.90647119,-2.05764621
0.29771812,2.46663947

>  <Name>
ligand

>  <RI>
0

>  <Rbt.Current_Directory>
/home/itssahil/PROJECTS/Mol_Feturizer/New_Systems/rnas/4Y1I

>  <Rbt.Executable>
rbdock ($Id: //depot/dev/client3/rdock/2013.1/src/exe/rbdock.cxx#4 $)

>  <Rbt.Library>
libRbt.so (2013.1, Build901 2013/11/27)

>  <Rbt.Parameter_File>
/export/apps/rDock/src/rDock_2013.1_src/data/scripts/dock_solv.prm

>  <Rbt.Receptor>
prm/blind_docking_100.prm

>  <SCORE>
-13.1326

>  <SCORE.INTER>
-9.90826

>  <SCORE.INTER.CONST>
1

>  <SCORE.INTER.POLAR>
0

>  <SCORE.INTER.ROT>
8

>  <SCORE.INTER.SOLV>
17.6278

>  <SCORE.INTER.VDW>
-21.4148

>  <SCORE.INTER.norm>
-0.309633

>  <SCORE.INTRA>
-3.22435

>  <SCORE.INTRA.DIHEDRAL>
-3.36098

>  <SCORE.INTRA.DIHEDRAL.0>
10.9594

>  <SCORE.INTRA.POLAR>
0

>  <SCORE.INTRA.POLAR.0>
0

>  <SCORE.INTRA.REPUL>
0.00253949

>  <SCORE.INTRA.REPUL.0>
0

>  <SCORE.INTRA.SOLV>
-0.00184827

>  <SCORE.INTRA.SOLV.lig_0>
-124.914

>  <SCORE.INTRA.VDW>
-1.55563

>  <SCORE.INTRA.VDW.0>
-4.69801

>  <SCORE.INTRA.norm>
-0.100761

>  <SCORE.RESTR>
0

>  <SCORE.RESTR.CAVITY>
0

>  <SCORE.RESTR.norm>
0

>  <SCORE.SYSTEM>
0

>  <SCORE.SYSTEM.CONST>
0

>  <SCORE.SYSTEM.DIHEDRAL>
0

>  <SCORE.SYSTEM.SOLV>
0

>  <SCORE.SYSTEM.norm>
0

>  <SCORE.heavy>
32

>  <SCORE.norm>
-0.410394

>  <RMSD>
56.407

$$$$
ligand
 OpenBabel11021811513D
libRbt.so/2013.1/901 2013/11/27
 32 34  0  0  0  0  0  0  0  0999 V2000
   36.5245  -26.5623   30.4776 P   0  0  1  0  0  0  0  0  0  0  0  0
   39.2812  -25.7674   30.4815 P   0  0  2  0  0  0  0  0  0  0  0  0
   39.3241  -22.9471   31.2933 P   0  0  1  0  0  0  0  0  0  0  0  0
   36.7970  -26.7882   33.0595 C   0  0  0  0  0  0  0  0  0  0  0  0
   36.2473  -26.0387   32.0136 O   0  0  0  0  0  0  0  0  0  0  0  0
   36.1772  -28.0315   33.1160 C   0  0  1  0  0  0  0  0  0  0  0  0
   36.9438  -28.9488   34.0491 O   0  0  0  0  0  0  0  0  0  0  0  0
   34.7044  -27.9203   33.7249 C   0  0  1  0  0  0  0  0  0  0  0  0
   33.6929  -28.2986   32.6667 O   0  0  0  0  0  0  0  0  0  0  0  0
   34.6385  -28.7711   34.6155 C   0  0  1  0  0  0  0  0  0  0  0  0
   34.0061  -29.9989   34.0764 O   0  0  0  0  0  0  0  0  0  0  0  0
   36.2060  -29.0929   35.0774 C   0  0  2  0  0  0  0  0  0  0  0  0
   36.2585  -28.1020   40.1173 N   0  0  0  0  0  0  0  0  0  0  0  0
   35.7197  -27.8099   30.2094 O   0  5  0  0  0  0  0  0  0  0  0  0
   39.8121  -25.3750   29.1256 O   0  5  0  0  0  0  0  0  0  0  0  0
   40.6819  -23.0749   31.9432 O   0  0  0  0  0  0  0  0  0  0  0  0
   35.6907  -29.1200   39.4897 C   0  0  0  0  0  0  0  0  0  0  0  0
   34.9768  -30.1201   40.2576 N   0  0  0  0  0  0  0  0  0  0  0  0
   36.1499  -25.4593   29.5136 O   0  0  0  0  0  0  0  0  0  0  0  0
   40.4005  -26.3295   31.3182 O   0  0  0  0  0  0  0  0  0  0  0  0
   39.4953  -22.4081   29.8898 O   0  5  0  0  0  0  0  0  0  0  0  0
   35.7527  -29.2568   38.1808 N   0  0  0  0  0  0  0  0  0  0  0  0
   38.1211  -26.9186   30.3272 O   0  0  0  0  0  0  0  0  0  0  0  0
   38.6427  -24.4509   31.2333 O   0  0  0  0  0  0  0  0  0  0  0  0
   38.4698  -22.0082   32.1168 O   0  0  0  0  0  0  0  0  0  0  0  0
   36.4022  -28.3551   37.4347 C   0  0  0  0  0  0  0  0  0  0  0  0
   37.0028  -27.2835   38.0640 C   0  0  0  0  0  0  0  0  0  0  0  0
   36.9242  -27.1582   39.4645 C   0  0  0  0  0  0  0  0  0  0  0  0
   37.5263  -26.0782   40.1337 O   0  0  0  0  0  0  0  0  0  0  0  0
   37.5829  -26.5293   37.1150 N   0  0  0  0  0  0  0  0  0  0  0  0
   37.3510  -27.1084   35.9498 C   0  0  0  0  0  0  0  0  0  0  0  0
   36.6398  -28.2069   36.1219 N   0  0  0  0  0  0  0  0  0  0  0  0
  1  5  1  1  0  0  0
  1 14  1  0  0  0  0
  1 19  2  0  0  0  0
  1 23  1  0  0  0  0
  2 15  1  6  0  0  0
  2 20  2  0  0  0  0
  2 23  1  0  0  0  0
  2 24  1  0  0  0  0
  3 16  1  1  0  0  0
  3 21  1  0  0  0  0
  3 24  1  0  0  0  0
  3 25  2  0  0  0  0
  4  5  1  0  0  0  0
  6  4  1  1  0  0  0
  6  7  1  0  0  0  0
  6  8  1  0  0  0  0
  7 12  1  0  0  0  0
  8  9  1  6  0  0  0
  8 10  1  0  0  0  0
 10 11  1  6  0  0  0
 10 12  1  0  0  0  0
 12 32  1  1  0  0  0
 13 17  2  0  0  0  0
 13 28  1  0  0  0  0
 17 18  1  0  0  0  0
 17 22  1  0  0  0  0
 22 26  2  0  0  0  0
 26 27  1  0  0  0  0
 26 32  1  0  0  0  0
 27 28  2  0  0  0  0
 27 30  1  0  0  0  0
 28 29  1  0  0  0  0
 30 31  2  0  0  0  0
 31 32  1  0  0  0  0
M  CHG  3  14  -1  15  -1  21  -1
M  END
>  <CHROM.1>
72.09219948,-103.45597448,-58.67701909,168.61095805,-67.10275930,-157.80795137
-63.55111261,-44.10294662,37.18962185,-26.62590010,33.61804045,1.09483508
-0.84217702,-1.47151656

>  <Name>
ligand

>  <RI>
0

>  <Rbt.Current_Directory>
/home/itssahil/PROJECTS/Mol_Feturizer/New_Systems/rnas/4Y1I

>  <Rbt.Executable>
rbdock ($Id: //depot/dev/client3/rdock/2013.1/src/exe/rbdock.cxx#4 $)

>  <Rbt.Library>
libRbt.so (2013.1, Build901 2013/11/27)

>  <Rbt.Parameter_File>
/export/apps/rDock/src/rDock_2013.1_src/data/scripts/dock_solv.prm

>  <Rbt.Receptor>
prm/blind_docking_80.prm

>  <SCORE>
-7.24727

>  <SCORE.INTER>
-3.06432

>  <SCORE.INTER.CONST>
1

>  <SCORE.INTER.POLAR>
0

>  <SCORE.INTER.ROT>
8

>  <SCORE.INTER.SOLV>
17.0129

>  <SCORE.INTER.VDW>
-16.6472

>  <SCORE.INTER.norm>
-0.09576

>  <SCORE.INTRA>
-4.21666

>  <SCORE.INTRA.DIHEDRAL>
-6.39649

>  <SCORE.INTRA.DIHEDRAL.0>
10.9594

>  <SCORE.INTRA.POLAR>
0

>  <SCORE.INTRA.POLAR.0>
0

>  <SCORE.INTRA.REPUL>
0

>  <SCORE.INTRA.REPUL.0>
0

>  <SCORE.INTRA.SOLV>
-2.50238

>  <SCORE.INTRA.SOLV.lig_0>
-124.914

>  <SCORE.INTRA.VDW>
0.232768

>  <SCORE.INTRA.VDW.0>
-4.69801

>  <SCORE.INTRA.norm>
-0.131771

>  <SCORE.RESTR>
0.0337121

>  <SCORE.RESTR.CAVITY>
0.0337121

>  <SCORE.RESTR.norm>
0.0010535

>  <SCORE.SYSTEM>
0

>  <SCORE.SYSTEM.CONST>
0

>  <SCORE.SYSTEM.DIHEDRAL>
0

>  <SCORE.SYSTEM.SOLV>
0

>  <SCORE.SYSTEM.norm>
0

>  <SCORE.heavy>
32

>  <SCORE.norm>
-0.226477

>  <RMSD>
56.479

$$$$
ligand
 OpenBabel11021811513D
libRbt.so/2013.1/901 2013/11/27
 32 34  0  0  0  0  0  0  0  0999 V2000
   37.7198  -26.2785   32.4534 P   0  0  1  0  0  0  0  0  0  0  0  0
   39.8728  -25.1871   30.9027 P   0  0  2  0  0  0  0  0  0  0  0  0
   39.0828  -25.3113   28.0786 P   0  0  1  0  0  0  0  0  0  0  0  0
   37.7462  -28.8378   32.9439 C   0  0  0  0  0  0  0  0  0  0  0  0
   36.9580  -27.7286   32.6179 O   0  0  0  0  0  0  0  0  0  0  0  0
   36.9348  -29.9572   33.0914 C   0  0  1  0  0  0  0  0  0  0  0  0
   37.7914  -31.1973   33.2596 O   0  0  0  0  0  0  0  0  0  0  0  0
   36.0430  -29.8594   34.4132 C   0  0  1  0  0  0  0  0  0  0  0  0
   34.5827  -29.7783   34.0296 O   0  0  0  0  0  0  0  0  0  0  0  0
   36.2053  -30.9244   35.0137 C   0  0  1  0  0  0  0  0  0  0  0  0
   35.0936  -31.8485   34.6850 O   0  0  0  0  0  0  0  0  0  0  0  0
   37.6493  -31.5549   34.4739 C   0  0  2  0  0  0  0  0  0  0  0  0
   39.1651  -28.7857   38.5259 N   0  0  0  0  0  0  0  0  0  0  0  0
   36.7161  -25.2113   32.0934 O   0  5  0  0  0  0  0  0  0  0  0  0
   41.2817  -25.7203   30.8316 O   0  5  0  0  0  0  0  0  0  0  0  0
   38.4258  -26.6153   28.4661 O   0  0  0  0  0  0  0  0  0  0  0  0
   37.9316  -28.9928   38.0919 C   0  0  0  0  0  0  0  0  0  0  0  0
   36.8185  -28.3938   38.8003 N   0  0  0  0  0  0  0  0  0  0  0  0
   38.4191  -25.9473   33.7525 O   0  0  0  0  0  0  0  0  0  0  0  0
   39.7778  -24.1572   31.9977 O   0  0  0  0  0  0  0  0  0  0  0  0
   38.1112  -24.4917   27.2576 O   0  5  0  0  0  0  0  0  0  0  0  0
   37.6788  -29.7305   37.0301 N   0  0  0  0  0  0  0  0  0  0  0  0
   38.8212  -26.4014   31.2407 O   0  0  0  0  0  0  0  0  0  0  0  0
   39.4635  -24.4989   29.4658 O   0  0  0  0  0  0  0  0  0  0  0  0
   40.3307  -25.6073   27.2757 O   0  0  0  0  0  0  0  0  0  0  0  0
   38.6784  -30.3015   36.3473 C   0  0  0  0  0  0  0  0  0  0  0  0
   39.9743  -30.1012   36.7783 C   0  0  0  0  0  0  0  0  0  0  0  0
   40.2207  -29.3094   37.9164 C   0  0  0  0  0  0  0  0  0  0  0  0
   41.5296  -29.0878   38.3797 O   0  0  0  0  0  0  0  0  0  0  0  0
   40.7874  -30.7674   35.9409 N   0  0  0  0  0  0  0  0  0  0  0  0
   40.0282  -31.3536   35.0317 C   0  0  0  0  0  0  0  0  0  0  0  0
   38.7564  -31.0825   35.2584 N   0  0  0  0  0  0  0  0  0  0  0  0
  1  5  1  1  0  0  0
  1 14  1  0  0  0  0
  1 19  2  0  0  0  0
  1 23  1  0  0  0  0
  2 15  1  6  0  0  0
  2 20  2  0  0  0  0
  2 23  1  0  0  0  0
  2 24  1  0  0  0  0
  3 16  1  1  0  0  0
  3 21  1  0  0  0  0
  3 24  1  0  0  0  0
  3 25  2  0  0  0  0
  4  5  1  0  0  0  0
  6  4  1  1  0  0  0
  6  7  1  0  0  0  0
  6  8  1  0  0  0  0
  7 12  1  0  0  0  0
  8  9  1  6  0  0  0
  8 10  1  0  0  0  0
 10 11  1  6  0  0  0
 10 12  1  0  0  0  0
 12 32  1  1  0  0  0
 13 17  2  0  0  0  0
 13 28  1  0  0  0  0
 17 18  1  0  0  0  0
 17 22  1  0  0  0  0
 22 26  2  0  0  0  0
 26 27  1  0  0  0  0
 26 32  1  0  0  0  0
 27 28  2  0  0  0  0
 27 30  1  0  0  0  0
 28 29  1  0  0  0  0
 30 31  2  0  0  0  0
 31 32  1  0  0  0  0
M  CHG  3  14  -1  15  -1  21  -1
M  END
>  <CHROM.1>
179.59278268,129.29256684,31.44565059,172.41972864,177.74129817,123.12345218
-173.62720937,75.06524276,38.43626897,-27.89522307,33.15911229,1.44247217
-0.65352767,-1.05976256

>  <Name>
ligand

>  <RI>
0

>  <Rbt.Current_Directory>
/home/itssahil/PROJECTS/Mol_Feturizer/New_Systems/rnas/4Y1I

>  <Rbt.Executable>
rbdock ($Id: //depot/dev/client3/rdock/2013.1/src/exe/rbdock.cxx#4 $)

>  <Rbt.Library>
libRbt.so (2013.1, Build901 2013/11/27)

>  <Rbt.Parameter_File>
/export/apps/rDock/src/rDock_2013.1_src/data/scripts/dock_solv.prm

>  <Rbt.Receptor>
prm/blind_docking_100.prm

>  <SCORE>
-12.7099

>  <SCORE.INTER>
-7.94162

>  <SCORE.INTER.CONST>
1

>  <SCORE.INTER.POLAR>
0

>  <SCORE.INTER.ROT>
8

>  <SCORE.INTER.SOLV>
24.508

>  <SCORE.INTER.VDW>
-22.3971

>  <SCORE.INTER.norm>
-0.248176

>  <SCORE.INTRA>
-4.76827

>  <SCORE.INTRA.DIHEDRAL>
-5.74163

>  <SCORE.INTRA.DIHEDRAL.0>
10.9594

>  <SCORE.INTRA.POLAR>
0

>  <SCORE.INTRA.POLAR.0>
0

>  <SCORE.INTRA.REPUL>
0

>  <SCORE.INTRA.REPUL.0>
0

>  <SCORE.INTRA.SOLV>
-4.90826

>  <SCORE.INTRA.SOLV.lig_0>
-124.914

>  <SCORE.INTRA.VDW>
0.556676

>  <SCORE.INTRA.VDW.0>
-4.69801

>  <SCORE.INTRA.norm>
-0.149008

>  <SCORE.RESTR>
0

>  <SCORE.RESTR.CAVITY>
0

>  <SCORE.RESTR.norm>
0

>  <SCORE.SYSTEM>
0

>  <SCORE.SYSTEM.CONST>
0

>  <SCORE.SYSTEM.DIHEDRAL>
0

>  <SCORE.SYSTEM.SOLV>
0

>  <SCORE.SYSTEM.norm>
0

>  <SCORE.heavy>
32

>  <SCORE.norm>
-0.397184

>  <RMSD>
56.562

$$$$
ligand
 OpenBabel11021811513D
libRbt.so/2013.1/901 2013/11/27
 32 34  0  0  0  0  0  0  0  0999 V2000
   35.0219  -27.8876   33.1868 P   0  0  1  0  0  0  0  0  0  0  0  0
   34.4521  -26.2209   30.9222 P   0  0  2  0  0  0  0  0  0  0  0  0
   36.8083  -25.5186   29.3190 P   0  0  1  0  0  0  0  0  0  0  0  0
   36.8127  -26.3449   34.2843 C   0  0  0  0  0  0  0  0  0  0  0  0
   36.5768  -27.3801   33.3728 O   0  0  0  0  0  0  0  0  0  0  0  0
   38.1549  -25.9847   34.2412 C   0  0  1  0  0  0  0  0  0  0  0  0
   38.4360  -24.9149   35.2788 O   0  0  0  0  0  0  0  0  0  0  0  0
   39.1003  -27.2166   34.6164 C   0  0  1  0  0  0  0  0  0  0  0  0
   39.9359  -27.5935   33.4140 O   0  0  0  0  0  0  0  0  0  0  0  0
   39.8729  -26.8018   35.4838 C   0  0  1  0  0  0  0  0  0  0  0  0
   41.1496  -26.3936   34.8504 O   0  0  0  0  0  0  0  0  0  0  0  0
   39.1346  -25.4815   36.1807 C   0  0  2  0  0  0  0  0  0  0  0  0
   37.2433  -29.3468   38.9857 N   0  0  0  0  0  0  0  0  0  0  0  0
   34.9847  -29.1083   32.3010 O   0  5  0  0  0  0  0  0  0  0  0  0
   33.7129  -24.9434   30.6126 O   0  5  0  0  0  0  0  0  0  0  0  0
   36.4836  -26.5351   28.2496 O   0  0  0  0  0  0  0  0  0  0  0  0
   38.0633  -29.4137   37.9485 C   0  0  0  0  0  0  0  0  0  0  0  0
   38.5273  -30.7079   37.4909 N   0  0  0  0  0  0  0  0  0  0  0  0
   34.4438  -28.1913   34.5506 O   0  0  0  0  0  0  0  0  0  0  0  0
   33.9780  -27.3141   30.0008 O   0  0  0  0  0  0  0  0  0  0  0  0
   36.2772  -24.1666   28.8951 O   0  5  0  0  0  0  0  0  0  0  0  0
   38.4757  -28.3360   37.3127 N   0  0  0  0  0  0  0  0  0  0  0  0
   34.1620  -26.6855   32.4697 O   0  0  0  0  0  0  0  0  0  0  0  0
   36.0684  -25.9941   30.7175 O   0  0  0  0  0  0  0  0  0  0  0  0
   38.3089  -25.4599   29.5041 O   0  0  0  0  0  0  0  0  0  0  0  0
   38.0705  -27.1215   37.7032 C   0  0  0  0  0  0  0  0  0  0  0  0
   37.2149  -27.0237   38.7818 C   0  0  0  0  0  0  0  0  0  0  0  0
   36.7878  -28.1893   39.4467 C   0  0  0  0  0  0  0  0  0  0  0  0
   35.9171  -28.1213   40.5485 O   0  0  0  0  0  0  0  0  0  0  0  0
   36.9563  -25.7193   38.9769 N   0  0  0  0  0  0  0  0  0  0  0  0
   37.6221  -25.0402   38.0592 C   0  0  0  0  0  0  0  0  0  0  0  0
   38.2963  -25.8672   37.2820 N   0  0  0  0  0  0  0  0  0  0  0  0
  1  5  1  1  0  0  0
  1 14  1  0  0  0  0
  1 19  2  0  0  0  0
  1 23  1  0  0  0  0
  2 15  1  6  0  0  0
  2 20  2  0  0  0  0
  2 23  1  0  0  0  0
  2 24  1  0  0  0  0
  3 16  1  6  0  0  0
  3 21  1  0  0  0  0
  3 24  1  0  0  0  0
  3 25  2  0  0  0  0
  4  5  1  0  0  0  0
  6  4  1  1  0  0  0
  6  7  1  0  0  0  0
  6  8  1  0  0  0  0
  7 12  1  0  0  0  0
  8  9  1  6  0  0  0
  8 10  1  0  0  0  0
 10 11  1  6  0  0  0
 10 12  1  0  0  0  0
 12 32  1  1  0  0  0
 13 17  2  0  0  0  0
 13 28  1  0  0  0  0
 17 18  1  0  0  0  0
 17 22  1  0  0  0  0
 22 26  2  0  0  0  0
 26 27  1  0  0  0  0
 26 32  1  0  0  0  0
 27 28  2  0  0  0  0
 27 30  1  0  0  0  0
 28 29  1  0  0  0  0
 30 31  2  0  0  0  0
 31 32  1  0  0  0  0
M  CHG  3  14  -1  15  -1  21  -1
M  END
>  <CHROM.1>
-173.13793732,-169.25080529,-59.03127714,-176.96305908,-175.79772009,116.94379514
67.00143485,-58.67432058,36.87122416,-26.85104015,34.00376744,1.83722118
-0.33475027,-1.28367904

>  <Name>
ligand

>  <RI>
0

>  <Rbt.Current_Directory>
/home/itssahil/PROJECTS/Mol_Feturizer/New_Systems/rnas/4Y1I

>  <Rbt.Executable>
rbdock ($Id: //depot/dev/client3/rdock/2013.1/src/exe/rbdock.cxx#4 $)

>  <Rbt.Library>
libRbt.so (2013.1, Build901 2013/11/27)

>  <Rbt.Parameter_File>
/export/apps/rDock/src/rDock_2013.1_src/data/scripts/dock_solv.prm

>  <Rbt.Receptor>
prm/blind_docking_100.prm

>  <SCORE>
-11.0881

>  <SCORE.INTER>
-3.8888

>  <SCORE.INTER.CONST>
1

>  <SCORE.INTER.POLAR>
0

>  <SCORE.INTER.ROT>
8

>  <SCORE.INTER.SOLV>
17.0096

>  <SCORE.INTER.VDW>
-17.1957

>  <SCORE.INTER.norm>
-0.121525

>  <SCORE.INTRA>
-7.19932

>  <SCORE.INTRA.DIHEDRAL>
-9.23815

>  <SCORE.INTRA.DIHEDRAL.0>
10.9594

>  <SCORE.INTRA.POLAR>
0

>  <SCORE.INTRA.POLAR.0>
0

>  <SCORE.INTRA.REPUL>
0

>  <SCORE.INTRA.REPUL.0>
0

>  <SCORE.INTRA.SOLV>
-5.36014

>  <SCORE.INTRA.SOLV.lig_0>
-124.914

>  <SCORE.INTRA.VDW>
0.0998247

>  <SCORE.INTRA.VDW.0>
-4.69801

>  <SCORE.INTRA.norm>
-0.224979

>  <SCORE.RESTR>
0

>  <SCORE.RESTR.CAVITY>
0

>  <SCORE.RESTR.norm>
0

>  <SCORE.SYSTEM>
0

>  <SCORE.SYSTEM.CONST>
0

>  <SCORE.SYSTEM.DIHEDRAL>
0

>  <SCORE.SYSTEM.SOLV>
0

>  <SCORE.SYSTEM.norm>
0

>  <SCORE.heavy>
32

>  <SCORE.norm>
-0.346504

>  <RMSD>
56.692

$$$$
ligand
 OpenBabel11021811513D
libRbt.so/2013.1/901 2013/11/27
 32 34  0  0  0  0  0  0  0  0999 V2000
   36.8618  -29.0740   33.6567 P   0  0  1  0  0  0  0  0  0  0  0  0
   35.3561  -27.1313   32.1769 P   0  0  2  0  0  0  0  0  0  0  0  0
   34.9339  -25.1607   30.0429 P   0  0  1  0  0  0  0  0  0  0  0  0
   38.8846  -30.3855   34.6464 C   0  0  0  0  0  0  0  0  0  0  0  0
   38.2796  -29.1334   34.4913 O   0  0  0  0  0  0  0  0  0  0  0  0
   39.9561  -30.2781   35.5259 C   0  0  1  0  0  0  0  0  0  0  0  0
   40.8674  -29.1456   35.0937 O   0  0  0  0  0  0  0  0  0  0  0  0
   39.4643  -29.9053   36.9994 C   0  0  1  0  0  0  0  0  0  0  0  0
   39.7767  -31.0487   37.9381 O   0  0  0  0  0  0  0  0  0  0  0  0
   40.1489  -28.9426   37.3541 C   0  0  1  0  0  0  0  0  0  0  0  0
   41.2874  -29.4241   38.1726 O   0  0  0  0  0  0  0  0  0  0  0  0
   40.7120  -28.2252   35.9604 C   0  0  2  0  0  0  0  0  0  0  0  0
   36.6533  -25.2501   36.9906 N   0  0  0  0  0  0  0  0  0  0  0  0
   36.9346  -29.9886   32.4590 O   0  5  0  0  0  0  0  0  0  0  0  0
   34.1039  -26.9840   33.0043 O   0  5  0  0  0  0  0  0  0  0  0  0
   35.2770  -26.0951   28.9065 O   0  0  0  0  0  0  0  0  0  0  0  0
   37.2585  -26.1139   37.7908 C   0  0  0  0  0  0  0  0  0  0  0  0
   36.7686  -26.2951   39.1424 N   0  0  0  0  0  0  0  0  0  0  0  0
   35.7367  -29.4816   34.5809 O   0  0  0  0  0  0  0  0  0  0  0  0
   35.1624  -28.2244   31.1589 O   0  0  0  0  0  0  0  0  0  0  0  0
   33.4350  -25.1618   30.2501 O   0  5  0  0  0  0  0  0  0  0  0  0
   38.2991  -26.8200   37.3982 N   0  0  0  0  0  0  0  0  0  0  0  0
   36.6270  -27.5342   33.1346 O   0  0  0  0  0  0  0  0  0  0  0  0
   35.6849  -25.7160   31.4056 O   0  0  0  0  0  0  0  0  0  0  0  0
   35.4163  -23.7684   29.6992 O   0  0  0  0  0  0  0  0  0  0  0  0
   38.7827  -26.6828   36.1577 C   0  0  0  0  0  0  0  0  0  0  0  0
   38.1699  -25.7892   35.3028 C   0  0  0  0  0  0  0  0  0  0  0  0
   37.0594  -25.0444   35.7446 C   0  0  0  0  0  0  0  0  0  0  0  0
   36.4147  -24.1263   34.8970 O   0  0  0  0  0  0  0  0  0  0  0  0
   38.8291  -25.8308   34.1323 N   0  0  0  0  0  0  0  0  0  0  0  0
   39.8064  -26.7117   34.2574 C   0  0  0  0  0  0  0  0  0  0  0  0
   39.7927  -27.2367   35.4684 N   0  0  0  0  0  0  0  0  0  0  0  0
  1  5  1  1  0  0  0
  1 14  1  0  0  0  0
  1 19  2  0  0  0  0
  1 23  1  0  0  0  0
  2 15  1  1  0  0  0
  2 20  2  0  0  0  0
  2 23  1  0  0  0  0
  2 24  1  0  0  0  0
  3 16  1  6  0  0  0
  3 21  1  0  0  0  0
  3 24  1  0  0  0  0
  3 25  2  0  0  0  0
  4  5  1  0  0  0  0
  6  4  1  6  0  0  0
  6  7  1  0  0  0  0
  6  8  1  0  0  0  0
  7 12  1  0  0  0  0
  8  9  1  1  0  0  0
  8 10  1  0  0  0  0
 10 11  1  1  0  0  0
 10 12  1  0  0  0  0
 12 32  1  6  0  0  0
 13 17  2  0  0  0  0
 13 28  1  0  0  0  0
 17 18  1  0  0  0  0
 17 22  1  0  0  0  0
 22 26  2  0  0  0  0
 26 27  1  0  0  0  0
 26 32  1  0  0  0  0
 27 28  2  0  0  0  0
 27 30  1  0  0  0  0
 28 29  1  0  0  0  0
 30 31  2  0  0  0  0
 31 32  1  0  0  0  0
M  CHG  3  14  -1  15  -1  21  -1
M  END
>  <CHROM.1>
-40.84217917,79.41179300,-65.89141097,-51.32347074,-171.65005615,135.09962328
175.76908725,-78.18411994,37.32549135,-27.38971186,34.13574937,-2.93215963
-0.96285179,0.70968182

>  <Name>
ligand

>  <RI>
0

>  <Rbt.Current_Directory>
/home/itssahil/PROJECTS/Mol_Feturizer/New_Systems/rnas/4Y1I

>  <Rbt.Executable>
rbdock ($Id: //depot/dev/client3/rdock/2013.1/src/exe/rbdock.cxx#4 $)

>  <Rbt.Library>
libRbt.so (2013.1, Build901 2013/11/27)

>  <Rbt.Parameter_File>
/export/apps/rDock/src/rDock_2013.1_src/data/scripts/dock_solv.prm

>  <Rbt.Receptor>
prm/blind_docking_100.prm

>  <SCORE>
-10.0038

>  <SCORE.INTER>
-4.09427

>  <SCORE.INTER.CONST>
1

>  <SCORE.INTER.POLAR>
0

>  <SCORE.INTER.ROT>
8

>  <SCORE.INTER.SOLV>
18.7245

>  <SCORE.INTER.VDW>
-17.9044

>  <SCORE.INTER.norm>
-0.127946

>  <SCORE.INTRA>
-5.90956

>  <SCORE.INTRA.DIHEDRAL>
-7.33692

>  <SCORE.INTRA.DIHEDRAL.0>
10.9594

>  <SCORE.INTRA.POLAR>
0

>  <SCORE.INTRA.POLAR.0>
0

>  <SCORE.INTRA.REPUL>
0

>  <SCORE.INTRA.REPUL.0>
0

>  <SCORE.INTRA.SOLV>
-1.60527

>  <SCORE.INTRA.SOLV.lig_0>
-124.914

>  <SCORE.INTRA.VDW>
-1.43846

>  <SCORE.INTRA.VDW.0>
-4.69801

>  <SCORE.INTRA.norm>
-0.184674

>  <SCORE.RESTR>
0

>  <SCORE.RESTR.CAVITY>
0

>  <SCORE.RESTR.norm>
0

>  <SCORE.SYSTEM>
0

>  <SCORE.SYSTEM.CONST>
0

>  <SCORE.SYSTEM.DIHEDRAL>
0

>  <SCORE.SYSTEM.SOLV>
0

>  <SCORE.SYSTEM.norm>
0

>  <SCORE.heavy>
32

>  <SCORE.norm>
-0.31262

>  <RMSD>
56.725

$$$$
ligand
 OpenBabel11021811513D
libRbt.so/2013.1/901 2013/11/27
 32 34  0  0  0  0  0  0  0  0999 V2000
   35.2566  -28.4779   34.5369 P   0  0  1  0  0  0  0  0  0  0  0  0
   34.8464  -28.0663   31.7274 P   0  0  2  0  0  0  0  0  0  0  0  0
   34.0960  -25.4061   30.7396 P   0  0  1  0  0  0  0  0  0  0  0  0
   37.0497  -26.5964   34.7268 C   0  0  0  0  0  0  0  0  0  0  0  0
   36.8173  -27.9756   34.6860 O   0  0  0  0  0  0  0  0  0  0  0  0
   38.3614  -26.3577   35.1212 C   0  0  1  0  0  0  0  0  0  0  0  0
   38.5631  -26.8211   36.5510 O   0  0  0  0  0  0  0  0  0  0  0  0
   39.3960  -27.1971   34.2396 C   0  0  1  0  0  0  0  0  0  0  0  0
   40.2563  -26.2488   33.4353 O   0  0  0  0  0  0  0  0  0  0  0  0
   40.1363  -27.7740   35.0398 C   0  0  1  0  0  0  0  0  0  0  0  0
   41.3787  -26.9848   35.2171 O   0  0  0  0  0  0  0  0  0  0  0  0
   39.3026  -27.8558   36.4793 C   0  0  2  0  0  0  0  0  0  0  0  0
   35.3596  -30.2272   38.7627 N   0  0  0  0  0  0  0  0  0  0  0  0
   35.2217  -29.9547   34.2302 O   0  5  0  0  0  0  0  0  0  0  0  0
   34.4315  -29.4937   31.4729 O   0  5  0  0  0  0  0  0  0  0  0  0
   33.1919  -24.8881   29.6458 O   0  0  0  0  0  0  0  0  0  0  0  0
   35.8389  -29.0175   39.0066 C   0  0  0  0  0  0  0  0  0  0  0  0
   35.2229  -28.2023   40.0341 N   0  0  0  0  0  0  0  0  0  0  0  0
   34.5240  -28.1754   35.8245 O   0  0  0  0  0  0  0  0  0  0  0  0
   36.3203  -27.9136   31.4573 O   0  0  0  0  0  0  0  0  0  0  0  0
   33.6228  -24.8655   32.0713 O   0  5  0  0  0  0  0  0  0  0  0  0
   36.8645  -28.5249   38.3425 N   0  0  0  0  0  0  0  0  0  0  0  0
   34.5615  -27.6612   33.2924 O   0  0  0  0  0  0  0  0  0  0  0  0
   34.0011  -27.0555   30.7426 O   0  0  0  0  0  0  0  0  0  0  0  0
   35.5135  -24.9551   30.4625 O   0  0  0  0  0  0  0  0  0  0  0  0
   37.4621  -29.2454   37.3857 C   0  0  0  0  0  0  0  0  0  0  0  0
   36.9824  -30.5102   37.1117 C   0  0  0  0  0  0  0  0  0  0  0  0
   35.8843  -31.0158   37.8339 C   0  0  0  0  0  0  0  0  0  0  0  0
   35.3731  -32.3002   37.5770 O   0  0  0  0  0  0  0  0  0  0  0  0
   37.7373  -31.0253   36.1263 N   0  0  0  0  0  0  0  0  0  0  0  0
   38.6444  -30.1193   35.8052 C   0  0  0  0  0  0  0  0  0  0  0  0
   38.4962  -29.0426   36.5542 N   0  0  0  0  0  0  0  0  0  0  0  0
  1  5  1  1  0  0  0
  1 14  1  0  0  0  0
  1 19  2  0  0  0  0
  1 23  1  0  0  0  0
  2 15  1  6  0  0  0
  2 20  2  0  0  0  0
  2 23  1  0  0  0  0
  2 24  1  0  0  0  0
  3 16  1  6  0  0  0
  3 21  1  0  0  0  0
  3 24  1  0  0  0  0
  3 25  2  0  0  0  0
  4  5  1  0  0  0  0
  6  4  1  6  0  0  0
  6  7  1  0  0  0  0
  6  8  1  0  0  0  0
  7 12  1  0  0  0  0
  8  9  1  6  0  0  0
  8 10  1  0  0  0  0
 10 11  1  1  0  0  0
 10 12  1  0  0  0  0
 12 32  1  6  0  0  0
 13 17  2  0  0  0  0
 13 28  1  0  0  0  0
 17 18  1  0  0  0  0
 17 22  1  0  0  0  0
 22 26  2  0  0  0  0
 26 27  1  0  0  0  0
 26 32  1  0  0  0  0
 27 28  2  0  0  0  0
 27 30  1  0  0  0  0
 28 29  1  0  0  0  0
 30 31  2  0  0  0  0
 31 32  1  0  0  0  0
M  CHG  3  14  -1  15  -1  21  -1
M  END
>  <CHROM.1>
168.56682463,59.17388523,177.92841196,-65.64437326,168.08748717,-42.33366872
77.81750415,177.13628959,36.34021846,-27.98096802,34.49335842,1.96480979
-0.31566775,-0.98291339

>  <Name>
ligand

>  <RI>
0

>  <Rbt.Current_Directory>
/home/itssahil/PROJECTS/Mol_Feturizer/New_Systems/rnas/4Y1I

>  <Rbt.Executable>
rbdock ($Id: //depot/dev/client3/rdock/2013.1/src/exe/rbdock.cxx#4 $)

>  <Rbt.Library>
libRbt.so (2013.1, Build901 2013/11/27)

>  <Rbt.Parameter_File>
/export/apps/rDock/src/rDock_2013.1_src/data/scripts/dock_solv.prm

>  <Rbt.Receptor>
prm/blind_docking_100.prm

>  <SCORE>
-11.7042

>  <SCORE.INTER>
-5.01518

>  <SCORE.INTER.CONST>
1

>  <SCORE.INTER.POLAR>
0

>  <SCORE.INTER.ROT>
8

>  <SCORE.INTER.SOLV>
22.2352

>  <SCORE.INTER.VDW>
-19.6885

>  <SCORE.INTER.norm>
-0.156724

>  <SCORE.INTRA>
-6.69967

>  <SCORE.INTRA.DIHEDRAL>
-8.26025

>  <SCORE.INTRA.DIHEDRAL.0>
10.9594

>  <SCORE.INTRA.POLAR>
0

>  <SCORE.INTRA.POLAR.0>
0

>  <SCORE.INTRA.REPUL>
0

>  <SCORE.INTRA.REPUL.0>
0

>  <SCORE.INTRA.SOLV>
-0.0691757

>  <SCORE.INTRA.SOLV.lig_0>
-124.914

>  <SCORE.INTRA.VDW>
-2.53496

>  <SCORE.INTRA.VDW.0>
-4.69801

>  <SCORE.INTRA.norm>
-0.209365

>  <SCORE.RESTR>
0.01069

>  <SCORE.RESTR.CAVITY>
0.01069

>  <SCORE.RESTR.norm>
0.000334064

>  <SCORE.SYSTEM>
0

>  <SCORE.SYSTEM.CONST>
0

>  <SCORE.SYSTEM.DIHEDRAL>
0

>  <SCORE.SYSTEM.SOLV>
0

>  <SCORE.SYSTEM.norm>
0

>  <SCORE.heavy>
32

>  <SCORE.norm>
-0.365755

>  <RMSD>
56.834

$$$$
ligand
 OpenBabel11021811513D
libRbt.so/2013.1/901 2013/11/27
 32 34  0  0  0  0  0  0  0  0999 V2000
   39.5076  -25.2373   34.9691 P   0  0  1  0  0  0  0  0  0  0  0  0
   37.1295  -23.7496   34.3671 P   0  0  2  0  0  0  0  0  0  0  0  0
   35.3065  -24.9806   32.4237 P   0  0  1  0  0  0  0  0  0  0  0  0
   39.7109  -27.7843   35.4816 C   0  0  0  0  0  0  0  0  0  0  0  0
   39.8103  -26.4871   35.9969 O   0  0  0  0  0  0  0  0  0  0  0  0
   39.6885  -28.6995   36.5281 C   0  0  1  0  0  0  0  0  0  0  0  0
   38.5020  -28.4223   37.4311 O   0  0  0  0  0  0  0  0  0  0  0  0
   39.4907  -30.1914   35.9922 C   0  0  1  0  0  0  0  0  0  0  0  0
   40.7281  -31.0041   36.2995 O   0  0  0  0  0  0  0  0  0  0  0  0
   38.5648  -30.6706   36.6513 C   0  0  1  0  0  0  0  0  0  0  0  0
   39.1196  -31.4609   37.7762 O   0  0  0  0  0  0  0  0  0  0  0  0
   37.6873  -29.3822   37.2380 C   0  0  2  0  0  0  0  0  0  0  0  0
   34.1171  -30.8862   33.8650 N   0  0  0  0  0  0  0  0  0  0  0  0
   39.9511  -23.9394   35.5975 O   0  5  0  0  0  0  0  0  0  0  0  0
   37.9283  -22.9449   33.3728 O   0  5  0  0  0  0  0  0  0  0  0  0
   35.9542  -26.3319   32.6153 O   0  0  0  0  0  0  0  0  0  0  0  0
   34.9400  -31.6409   34.5762 C   0  0  0  0  0  0  0  0  0  0  0  0
   34.8827  -33.0821   34.4370 N   0  0  0  0  0  0  0  0  0  0  0  0
   40.2408  -25.4879   33.6707 O   0  0  0  0  0  0  0  0  0  0  0  0
   36.9959  -22.9749   35.6519 O   0  0  0  0  0  0  0  0  0  0  0  0
   33.8109  -25.1632   32.2846 O   0  5  0  0  0  0  0  0  0  0  0  0
   35.8162  -31.1234   35.4129 N   0  0  0  0  0  0  0  0  0  0  0  0
   37.8896  -25.1675   34.6936 O   0  0  0  0  0  0  0  0  0  0  0  0
   35.6339  -24.0632   33.7582 O   0  0  0  0  0  0  0  0  0  0  0  0
   35.8753  -24.3330   31.1801 O   0  0  0  0  0  0  0  0  0  0  0  0
   35.9017  -29.7970   35.5708 C   0  0  0  0  0  0  0  0  0  0  0  0
   35.0555  -28.9870   34.8408 C   0  0  0  0  0  0  0  0  0  0  0  0
   34.1262  -29.5625   33.9530 C   0  0  0  0  0  0  0  0  0  0  0  0
   33.2509  -28.7634   33.1965 O   0  0  0  0  0  0  0  0  0  0  0  0
   35.3300  -27.7132   35.1697 N   0  0  0  0  0  0  0  0  0  0  0  0
   36.3036  -27.7341   36.0633 C   0  0  0  0  0  0  0  0  0  0  0  0
   36.6624  -28.9791   36.3152 N   0  0  0  0  0  0  0  0  0  0  0  0
  1  5  1  1  0  0  0
  1 14  1  0  0  0  0
  1 19  2  0  0  0  0
  1 23  1  0  0  0  0
  2 15  1  6  0  0  0
  2 20  2  0  0  0  0
  2 23  1  0  0  0  0
  2 24  1  0  0  0  0
  3 16  1  1  0  0  0
  3 21  1  0  0  0  0
  3 24  1  0  0  0  0
  3 25  2  0  0  0  0
  4  5  1  0  0  0  0
  6  4  1  6  0  0  0
  6  7  1  0  0  0  0
  6  8  1  0  0  0  0
  7 12  1  0  0  0  0
  8  9  1  1  0  0  0
  8 10  1  0  0  0  0
 10 11  1  1  0  0  0
 10 12  1  0  0  0  0
 12 32  1  6  0  0  0
 13 17  2  0  0  0  0
 13 28  1  0  0  0  0
 17 18  1  0  0  0  0
 17 22  1  0  0  0  0
 22 26  2  0  0  0  0
 26 27  1  0  0  0  0
 26 32  1  0  0  0  0
 27 28  2  0  0  0  0
 27 30  1  0  0  0  0
 28 29  1  0  0  0  0
 30 31  2  0  0  0  0
 31 32  1  0  0  0  0
M  CHG  3  14  -1  15  -1  21  -1
M  END
>  <CHROM.1>
-167.62146461,44.30019080,54.56567995,59.71428344,-166.29952373,158.05917280
149.92725102,64.38893091,37.13281286,-27.27331518,34.78384418,-1.58613953
0.48904618,2.82375044

>  <Name>
ligand

>  <RI>
0

>  <Rbt.Current_Directory>
/home/itssahil/PROJECTS/Mol_Feturizer/New_Systems/rnas/4Y1I

>  <Rbt.Executable>
rbdock ($Id: //depot/dev/client3/rdock/2013.1/src/exe/rbdock.cxx#4 $)

>  <Rbt.Library>
libRbt.so (2013.1, Build901 2013/11/27)

>  <Rbt.Parameter_File>
/export/apps/rDock/src/rDock_2013.1_src/data/scripts/dock_solv.prm

>  <Rbt.Receptor>
prm/blind_docking_80.prm

>  <SCORE>
-14.9502

>  <SCORE.INTER>
-8.22047

>  <SCORE.INTER.CONST>
1

>  <SCORE.INTER.POLAR>
0

>  <SCORE.INTER.ROT>
8

>  <SCORE.INTER.SOLV>
25.3223

>  <SCORE.INTER.VDW>
-22.8544

>  <SCORE.INTER.norm>
-0.25689

>  <SCORE.INTRA>
-6.72978

>  <SCORE.INTRA.DIHEDRAL>
-6.91545

>  <SCORE.INTRA.DIHEDRAL.0>
10.9594

>  <SCORE.INTRA.POLAR>
0

>  <SCORE.INTRA.POLAR.0>
0

>  <SCORE.INTRA.REPUL>
0

>  <SCORE.INTRA.REPUL.0>
0

>  <SCORE.INTRA.SOLV>
-3.99777

>  <SCORE.INTRA.SOLV.lig_0>
-124.914

>  <SCORE.INTRA.VDW>
-1.27317

>  <SCORE.INTRA.VDW.0>
-4.69801

>  <SCORE.INTRA.norm>
-0.210306

>  <SCORE.RESTR>
0

>  <SCORE.RESTR.CAVITY>
0

>  <SCORE.RESTR.norm>
0

>  <SCORE.SYSTEM>
0

>  <SCORE.SYSTEM.CONST>
0

>  <SCORE.SYSTEM.DIHEDRAL>
0

>  <SCORE.SYSTEM.SOLV>
0

>  <SCORE.SYSTEM.norm>
0

>  <SCORE.heavy>
32

>  <SCORE.norm>
-0.467195

>  <RMSD>
57.109

$$$$
