@<TRIPOS>MOLECULE
4Y1I_rdock.pdb
 2142 2399 0 0 0
SMALL
GASTEIGER

@<TRIPOS>ATOM
      1  P         20.6430  -25.9070  -14.2420 P.3     3  A3          0.1280
      2  C5'       22.1900  -24.1160  -15.3550 C.3     3  A3          0.1795
      3  O5'       20.9700  -24.4150  -14.6940 O.3     3  A3         -0.3259
      4  C4'       22.3070  -22.6510  -15.6950 C.3     3  A3          0.1772
      5  O4'       21.2530  -22.2690  -16.6160 O.3     3  A3         -0.3307
      6  C3'       22.1560  -21.6810  -14.5350 C.3     3  A3          0.1860
      7  O3'       23.3440  -21.5430  -13.7780 O.3     3  A3         -0.3112
      8  C2'       21.7300  -20.3990  -15.2360 C.3     3  A3          0.2309
      9  O2'       22.8480  -19.7670  -15.8420 O.3     3  A3         -0.2156
     10  C1'       20.8260  -20.9510  -16.3390 C.3     3  A3          0.2408
     11  N1        16.6940  -18.2240  -14.9350 N.ar    3  A3         -0.2040
     12  C2        17.9250  -17.8600  -15.3130 C.ar    3  A3          0.2016
     13  N3        18.9540  -18.6250  -15.6670 N.ar    3  A3         -0.2048
     14  C4        18.6200  -19.9260  -15.6090 C.ar    3  A3          0.1692
     15  C5        17.3970  -20.4560  -15.2390 C.ar    3  A3          0.1518
     16  C6        16.3910  -19.5400  -14.8840 C.ar    3  A3          0.1919
     17  N6        15.1580  -19.8900  -14.5090 N.pl3   3  A3         -0.1054
     18  N7        17.4240  -21.8430  -15.3000 N.ar    3  A3         -0.2193
     19  C8        18.6440  -22.1170  -15.6970 C.ar    3  A3          0.1816
     20  N9        19.4190  -21.0040  -15.9050 N.ar    3  A3         -0.2693
     21  OP1       21.7570  -26.7630  -14.7200 O.3     3  A3         -0.1955
     22  OP2       19.2500  -26.2340  -14.6400 O.co2   3  A3         -0.7863
     23  P         23.2940  -21.5260  -12.1720 P.3     4  A4          0.2141
     24  C5'       23.8760  -18.9750  -12.2320 C.3     4  A4          0.1812
     25  O5'       22.9910  -20.0040  -11.8150 O.3     4  A4         -0.3114
     26  C4'       23.2720  -17.6080  -12.0350 C.3     4  A4          0.1773
     27  O4'       22.1630  -17.4170  -12.9510 O.3     4  A4         -0.3307
     28  C3'       22.6670  -17.3330  -10.6670 C.3     4  A4          0.1860
     29  O3'       23.6340  -17.0030   -9.6860 O.3     4  A4         -0.3112
     30  C2'       21.6880  -16.2060  -10.9640 C.3     4  A4          0.2309
     31  O2'       22.3770  -14.9700  -11.0900 O.3     4  A4         -0.2156
     32  C1'       21.1700  -16.6160  -12.3440 C.3     4  A4          0.2408
     33  N1        16.0760  -16.4350  -11.5980 N.ar    4  A4         -0.2040
     34  C2        17.0180  -15.4850  -11.6280 C.ar    4  A4          0.2016
     35  N3        18.3290  -15.6050  -11.8260 N.ar    4  A4         -0.2048
     36  C4        18.6630  -16.8930  -12.0170 C.ar    4  A4          0.1692
     37  C5        17.8100  -17.9830  -12.0140 C.ar    4  A4          0.1518
     38  C6        16.4450  -17.7200  -11.7920 C.ar    4  A4          0.1919
     39  N6        15.4990  -18.6620  -11.7620 N.pl3   4  A4         -0.1054
     40  N7        18.5160  -19.1570  -12.2450 N.ar    4  A4         -0.2193
     41  C8        19.7590  -18.7560  -12.3800 C.ar    4  A4          0.1816
     42  N9        19.9200  -17.3970  -12.2540 N.ar    4  A4         -0.2693
     43  OP1       24.6580  -21.8400  -11.6720 O.3     4  A4         -0.4373
     44  OP2       22.1420  -22.3570  -11.7340 O.co2   4  A4         -0.5172
     45  P         23.4730  -17.5550   -8.1850 P.3     5  A5          0.2141
     46  C5'       22.7920  -15.1610   -7.3580 C.3     5  A5          0.1812
     47  O5'       22.4560  -16.5330   -7.5060 O.3     5  A5         -0.3114
     48  C4'       21.5840  -14.3200   -7.0240 C.3     5  A5          0.1773
     49  O4'       20.6270  -14.3660   -8.1130 O.3     5  A5         -0.3307
     50  C3'       20.7730  -14.7480   -5.8110 C.3     5  A5          0.1860
     51  O3'       21.3570  -14.3590   -4.5810 O.3     5  A5         -0.3112
     52  C2'       19.4240  -14.0960   -6.0840 C.3     5  A5          0.2309
     53  O2'       19.4750  -12.7060   -5.7970 O.3     5  A5         -0.2156
     54  C1'       19.3120  -14.2700   -7.5980 C.3     5  A5          0.2408
     55  N1        14.6670  -16.4450   -8.1340 N.ar    5  A5         -0.2040
     56  C2        15.0510  -15.2110   -7.7820 C.ar    5  A5          0.2016
     57  N3        16.2790  -14.7110   -7.6630 N.ar    5  A5         -0.2048
     58  C4        17.2040  -15.6430   -7.9580 C.ar    5  A5          0.1692
     59  C5        16.9670  -16.9520   -8.3350 C.ar    5  A5          0.1518
     60  C6        15.6220  -17.3570   -8.4230 C.ar    5  A5          0.1919
     61  N6        15.2410  -18.5870   -8.7740 N.pl3   5  A5         -0.1054
     62  N7        18.1630  -17.6210   -8.5570 N.ar    5  A5         -0.2193
     63  C8        19.0830  -16.7180   -8.3140 C.ar    5  A5          0.1816
     64  N9        18.5720  -15.4970   -7.9490 N.ar    5  A5         -0.2693
     65  OP1       24.7840  -17.4400   -7.4930 O.3     5  A5         -0.4373
     66  OP2       22.8010  -18.8760   -8.2720 O.co2   5  A5         -0.5172
     67  P         21.2580  -15.3250   -3.2980 P.3     6  G6          0.2141
     68  C5'       19.2310  -13.9830   -2.3410 C.3     6  G6          0.1812
     69  O5'       19.7360  -15.2080   -2.8470 O.3     6  G6         -0.3114
     70  C4'       17.7250  -13.9740   -2.2860 C.3     6  G6          0.1773
     71  O4'       17.1750  -14.1640   -3.6150 O.3     6  G6         -0.3307
     72  C3'       17.0730  -15.0780   -1.4700 C.3     6  G6          0.1860
     73  O3'       17.1200  -14.8630   -0.0740 O.3     6  G6         -0.3112
     74  C2'       15.6650  -15.0960   -2.0470 C.3     6  G6          0.2309
     75  O2'       14.9270  -13.9760   -1.5830 O.3     6  G6         -0.2156
     76  C1'       15.9640  -14.8880   -3.5290 C.3     6  G6          0.2408
     77  N1        13.5190  -18.9030   -5.3830 N.ar    6  G6         -0.1709
     78  C2        13.0360  -17.7780   -4.7620 C.ar    6  G6          0.2606
     79  N2        11.7090  -17.7040   -4.6070 N.pl3   6  G6         -0.0859
     80  N3        13.7950  -16.7910   -4.3250 N.ar    6  G6         -0.1918
     81  C4        15.1010  -17.0240   -4.5600 C.ar    6  G6          0.1723
     82  C5        15.6930  -18.1110   -5.1670 C.ar    6  G6          0.1748
     83  C6        14.8610  -19.1630   -5.6370 C.ar    6  G6          0.3023
     84  O6        15.1790  -20.2140   -6.2070 O.2     6  G6         -0.2633
     85  N7        17.0730  -17.9510   -5.2060 N.ar    6  G6         -0.2173
     86  C8        17.2860  -16.7950   -4.6320 C.ar    6  G6          0.1817
     87  N9        16.1270  -16.1800   -4.2220 N.ar    6  G6         -0.2693
     88  OP1       22.0730  -14.7310   -2.2060 O.3     6  G6         -0.4373
     89  OP2       21.5140  -16.7200   -3.7400 O.co2   6  G6         -0.5172
     90  P         17.2650  -16.1180    0.9210 P.3     7  G7          0.2141
     91  C5'       14.6880  -16.2160    1.3870 C.3     7  G7          0.1812
     92  O5'       15.8450  -16.8380    0.8490 O.3     7  G7         -0.3114
     93  C4'       13.4190  -16.9190    0.9680 C.3     7  G7          0.1773
     94  O4'       13.3650  -17.0460   -0.4780 O.3     7  G7         -0.3307
     95  C3'       13.2300  -18.3450    1.4580 C.3     7  G7          0.1860
     96  O3'       12.8180  -18.4300    2.8120 O.3     7  G7         -0.3112
     97  C2'       12.2010  -18.8860    0.4760 C.3     7  G7          0.2309
     98  O2'       10.9030  -18.4120    0.8010 O.3     7  G7         -0.2156
     99  C1'       12.6500  -18.2170   -0.8240 C.3     7  G7          0.2408
    100  N1        12.8010  -22.4310   -3.6230 N.ar    7  G7         -0.1709
    101  C2        11.7390  -21.8250   -2.9980 C.ar    7  G7          0.2606
    102  N2        10.5460  -22.4240   -3.1330 N.pl3   7  G7         -0.0859
    103  N3        11.8390  -20.7120   -2.2910 N.ar    7  G7         -0.1918
    104  C4        13.1050  -20.2450   -2.2590 C.ar    7  G7          0.1723
    105  C5        14.2340  -20.7720   -2.8450 C.ar    7  G7          0.1748
    106  C6        14.1130  -21.9670   -3.6030 C.ar    7  G7          0.3023
    107  O6        14.9930  -22.5950   -4.2060 O.2     7  G7         -0.2633
    108  N7        15.3430  -19.9810   -2.5700 N.ar    7  G7         -0.2173
    109  C8        14.8740  -19.0090   -1.8320 C.ar    7  G7          0.1817
    110  N9        13.5220  -19.1080   -1.6110 N.ar    7  G7         -0.2693
    111  OP1       17.4500  -15.5860    2.2970 O.3     7  G7         -0.4373
    112  OP2       18.2680  -17.0500    0.3450 O.co2   7  G7         -0.5172
    113  P         13.3360  -19.6380    3.7390 P.3     8  G8          0.2141
    114  C5'       11.5580  -21.3990    2.9290 C.3     8  G8          0.1812
    115  O5'       12.9070  -20.9530    2.9510 O.3     8  G8         -0.3114
    116  C4'       11.4450  -22.7180    2.2110 C.3     8  G8          0.1773
    117  O4'       11.8440  -22.5380    0.8260 O.3     8  G8         -0.3307
    118  C3'       12.3510  -23.8330    2.7150 C.3     8  G8          0.1860
    119  O3'       11.8310  -24.5210    3.8460 O.3     8  G8         -0.3112
    120  C2'       12.4970  -24.7230    1.4880 C.3     8  G8          0.2309
    121  O2'       11.3480  -25.5440    1.3220 O.3     8  G8         -0.2156
    122  C1'       12.5150  -23.6900    0.3620 C.3     8  G8          0.2408
    123  N1        16.5130  -24.8190   -2.5790 N.ar    8  G8         -0.1709
    124  C2        15.2920  -25.4390   -2.4870 C.ar    8  G8          0.2606
    125  N2        15.1030  -26.5050   -3.2800 N.pl3   8  G8         -0.0859
    126  N3        14.3260  -25.0440   -1.6750 N.ar    8  G8         -0.1918
    127  C4        14.6800  -23.9630   -0.9490 C.ar    8  G8          0.1723
    128  C5        15.8710  -23.2700   -0.9680 C.ar    8  G8          0.1748
    129  C6        16.9020  -23.7040   -1.8420 C.ar    8  G8          0.3023
    130  O6        18.0300  -23.2220   -2.0040 O.2     8  G8         -0.2633
    131  N7        15.8360  -22.2120   -0.0710 N.ar    8  G8         -0.2173
    132  C8        14.6470  -22.2800    0.4660 C.ar    8  G8          0.1817
    133  N9        13.8910  -23.3180   -0.0240 N.ar    8  G8         -0.2693
    134  OP1       12.5810  -19.5980    5.0180 O.3     8  G8         -0.4373
    135  OP2       14.8210  -19.6030    3.7590 O.co2   8  G8         -0.5172
    136  P         12.1860  -24.0620    5.3500 P.3     9  G9          0.2141
    137  C5'       14.4540  -25.3610    5.0010 C.3     9  G9          0.1812
    138  O5'       13.3350  -25.0580    5.8280 O.3     9  G9         -0.3114
    139  C4'       15.7250  -24.7070    5.4860 C.3     9  G9          0.1773
    140  O4'       16.8420  -25.2540    4.7300 O.3     9  G9         -0.3307
    141  C3'       15.7900  -23.1960    5.2880 C.3     9  G9          0.1860
    142  O3'       16.6200  -22.6190    6.2970 O.3     9  G9         -0.3112
    143  C2'       16.4710  -23.0740    3.9310 C.3     9  G9          0.2309
    144  O2'       17.1050  -21.8360    3.6950 O.3     9  G9         -0.2156
    145  C1'       17.4730  -24.2230    3.9910 C.3     9  G9          0.2408
    146  N1        16.1230  -27.2200    0.0930 N.ar    9  G9         -0.1709
    147  C2        15.4500  -26.9610    1.2580 C.ar    9  G9          0.2606
    148  N2        14.2690  -27.5770    1.4070 N.pl3   9  G9         -0.0859
    149  N3        15.9040  -26.1590    2.2070 N.ar    9  G9         -0.1918
    150  C4        17.1030  -25.6210    1.8970 C.ar    9  G9          0.1723
    151  C5        17.8570  -25.8180    0.7610 C.ar    9  G9          0.1748
    152  C6        17.3570  -26.6800   -0.2490 C.ar    9  G9          0.3023
    153  O6        17.8750  -26.9800   -1.3290 O.2     9  G9         -0.2633
    154  N7        19.0360  -25.0890    0.8160 N.ar    9  G9         -0.2173
    155  C8        18.9800  -24.4750    1.9660 C.ar    9  G9          0.1817
    156  N9        17.8390  -24.7590    2.6770 N.ar    9  G9         -0.2693
    157  OP1       10.9900  -24.3520    6.1800 O.3     9  G9         -0.4373
    158  OP2       12.7440  -22.6900    5.3510 O.co2   9  G9         -0.5172
    159  P         16.1270  -21.3270    7.1180 P.3    10  A10         0.2141
    160  C5'       16.6190  -22.4260    9.4580 C.3    10  A10         0.1812
    161  O5'       16.9200  -21.4240    8.4970 O.3    10  A10        -0.3114
    162  C4'       16.6740  -21.8700   10.8610 C.3    10  A10         0.1773
    163  O4'       15.7340  -22.5730   11.7080 O.3    10  A10        -0.3307
    164  C3'       18.0000  -21.9860   11.5970 C.3    10  A10         0.1860
    165  O3'       18.9140  -20.9650   11.2280 O.3    10  A10        -0.3112
    166  C2'       17.5800  -21.9130   13.0610 C.3    10  A10         0.2309
    167  O2'       17.3970  -20.5640   13.4630 O.3    10  A10        -0.2156
    168  C1'       16.2130  -22.6030   13.0340 C.3    10  A10         0.2408
    169  N1        14.4920  -25.9690   16.5060 N.ar   10  A10        -0.2040
    170  C2        14.2730  -24.6610   16.3290 C.ar   10  A10         0.2016
    171  N3        14.7610  -23.8450   15.4000 N.ar   10  A10        -0.2048
    172  C4        15.5720  -24.5140   14.5620 C.ar   10  A10         0.1692
    173  C5        15.8970  -25.8540   14.6150 C.ar   10  A10         0.1518
    174  C6        15.3160  -26.6090   15.6480 C.ar   10  A10         0.1919
    175  N6        15.5360  -27.9140   15.8230 N.pl3  10  A10        -0.1054
    176  N7        16.7650  -26.1880   13.5850 N.ar   10  A10        -0.2193
    177  C8        16.9480  -25.0590   12.9440 C.ar   10  A10         0.1816
    178  N9        16.2610  -24.0040   13.4890 N.ar   10  A10        -0.2693
    179  OP1       14.6610  -21.4560    7.3500 O.3    10  A10        -0.4373
    180  OP2       16.6370  -20.1160    6.4260 O.co2  10  A10        -0.5172
    181  P         20.4530  -21.0190   11.6950 P.3    11  G11         0.2141
    182  C5'       22.1280  -22.4090   10.2440 C.3    11  G11         0.1812
    183  O5'       21.2450  -21.3000   10.3450 O.3    11  G11        -0.3114
    184  C4'       21.6020  -23.4570    9.2960 C.3    11  G11         0.1773
    185  O4'       21.9350  -23.0750    7.9330 O.3    11  G11        -0.3307
    186  C3'       22.1860  -24.8520    9.4980 C.3    11  G11         0.1860
    187  O3'       21.2080  -25.8280    9.1430 O.3    11  G11        -0.3112
    188  C2'       23.3210  -24.8860    8.4820 C.3    11  G11         0.2309
    189  O2'       23.7080  -26.1820    8.0760 O.3    11  G11        -0.2156
    190  C1'       22.7160  -24.0890    7.3310 C.3    11  G11         0.2408
    191  N1        24.3700  -23.5330    2.5680 N.ar   11  G11        -0.1709
    192  C2        23.3220  -24.2800    3.0470 C.ar   11  G11         0.2606
    193  N2        22.6210  -24.9730    2.1380 N.pl3  11  G11        -0.0859
    194  N3        22.9860  -24.3460    4.3240 N.ar   11  G11        -0.1918
    195  C4        23.7950  -23.5900    5.0960 C.ar   11  G11         0.1723
    196  C5        24.8660  -22.8090    4.7190 C.ar   11  G11         0.1748
    197  C6        25.2160  -22.7480    3.3450 C.ar   11  G11         0.3023
    198  O6        26.1330  -22.1120    2.8110 O.2    11  G11        -0.2633
    199  N7        25.4360  -22.1890    5.8220 N.ar   11  G11        -0.2173
    200  C8        24.7160  -22.5980    6.8310 C.ar   11  G11         0.1817
    201  N9        23.7050  -23.4510    6.4600 N.ar   11  G11        -0.2693
    202  OP1       20.6610  -22.1890   12.5870 O.3    11  G11        -0.4373
    203  OP2       20.8390  -19.6640   12.1620 O.co2  11  G11        -0.5172
    204  P         20.1240  -26.3340   10.2170 P.3    12  U12         0.2141
    205  C5'       17.7650  -27.4270    9.8820 C.3    12  U12         0.1812
    206  O5'       18.9470  -26.8970    9.3070 O.3    12  U12        -0.3114
    207  C4'       16.9920  -28.2380    8.8740 C.3    12  U12         0.1773
    208  O4'       16.7760  -27.4500    7.6730 O.3    12  U12        -0.3307
    209  C3'       17.6830  -29.4910    8.3660 C.3    12  U12         0.1860
    210  O3'       17.5820  -30.5840    9.2610 O.3    12  U12        -0.3112
    211  C2'       16.9960  -29.7240    7.0290 C.3    12  U12         0.2309
    212  O2'       15.7120  -30.2990    7.2200 O.3    12  U12        -0.2156
    213  C1'       16.8120  -28.2880    6.5370 C.3    12  U12         0.2420
    214  N1        17.9270  -27.8550    5.6640 N.ar   12  U12        -0.2534
    215  C2        17.9130  -28.2780    4.3490 C.ar   12  U12         0.3546
    216  O2        17.0310  -28.9830    3.8900 O.2    12  U12        -0.2443
    217  N3        18.9720  -27.8480    3.5880 N.ar   12  U12        -0.1530
    218  C4        20.0230  -27.0540    3.9980 C.ar   12  U12         0.2846
    219  O4        20.9050  -26.7490    3.1930 O.2    12  U12        -0.2650
    220  C5        19.9650  -26.6560    5.3710 C.ar   12  U12         0.0814
    221  C6        18.9460  -27.0600    6.1360 C.ar   12  U12         0.0870
    222  OP1       19.5870  -25.1650   10.9590 O.2    12  U12        -0.5172
    223  OP2       20.7130  -27.4760   10.9630 O.co2  12  U12        -0.4373
    224  P         18.7570  -31.6780    9.3310 P.3    13  A13         0.2141
    225  C5'       17.4130  -33.2920    7.7690 C.3    13  A13         0.1812
    226  O5'       18.5800  -32.5140    7.9860 O.3    13  A13        -0.3114
    227  C4'       17.3250  -33.7920    6.3490 C.3    13  A13         0.1773
    228  O4'       17.2630  -32.6710    5.4290 O.3    13  A13        -0.3307
    229  C3'       18.5030  -34.6100    5.8470 C.3    13  A13         0.1860
    230  O3'       18.4670  -35.9580    6.2820 O.3    13  A13        -0.3112
    231  C2'       18.3840  -34.4560    4.3380 C.3    13  A13         0.2309
    232  O2'       17.3580  -35.2960    3.8290 O.3    13  A13        -0.2156
    233  C1'       17.9170  -33.0060    4.2220 C.3    13  A13         0.2408
    234  N1        21.7450  -31.5650    1.0950 N.ar   13  A13        -0.2040
    235  C2        20.8090  -32.5160    0.9960 C.ar   13  A13         0.2016
    236  N3        19.8400  -32.8370    1.8480 N.ar   13  A13        -0.2048
    237  C4        19.8820  -32.0450    2.9340 C.ar   13  A13         0.1692
    238  C5        20.7830  -31.0270    3.1820 C.ar   13  A13         0.1518
    239  C6        21.7590  -30.7870    2.1990 C.ar   13  A13         0.1919
    240  N6        22.6940  -29.8400    2.2970 N.pl3  13  A13        -0.1054
    241  N7        20.5210  -30.4270    4.4060 N.ar   13  A13        -0.2193
    242  C8        19.4840  -31.0870    4.8650 C.ar   13  A13         0.1816
    243  N9        19.0470  -32.0790    4.0240 N.ar   13  A13        -0.2693
    244  OP1       18.4690  -32.5890   10.4680 O.3    13  A13        -0.4373
    245  OP2       20.0580  -30.9670    9.2710 O.co2  13  A13        -0.5172
    246  P         19.8090  -36.6900    6.7780 P.3    14  G14         0.2141
    247  C5'       20.4480  -37.3950    4.3310 C.3    14  G14         0.1812
    248  O5'       20.7660  -36.6590    5.5040 O.3    14  G14        -0.3114
    249  C4'       21.3950  -37.0730    3.2010 C.3    14  G14         0.1773
    250  O4'       21.2990  -35.6630    2.8650 O.3    14  G14        -0.3307
    251  C3'       22.8720  -37.2810    3.4930 C.3    14  G14         0.1860
    252  O3'       23.2800  -38.6320    3.3730 O.3    14  G14        -0.3112
    253  C2'       23.5400  -36.3470    2.4960 C.3    14  G14         0.2309
    254  O2'       23.5370  -36.9150    1.1940 O.3    14  G14        -0.2156
    255  C1'       22.5720  -35.1660    2.5070 C.3    14  G14         0.2408
    256  N1        25.7750  -31.3680    3.6360 N.ar   14  G14        -0.1709
    257  C2        25.7090  -32.1450    2.5050 C.ar   14  G14         0.2606
    258  N2        26.6140  -31.8790    1.5510 N.pl3  14  G14        -0.0859
    259  N3        24.8250  -33.1120    2.3240 N.ar   14  G14        -0.1918
    260  C4        23.9950  -33.2420    3.3810 C.ar   14  G14         0.1723
    261  C5        23.9760  -32.5190    4.5530 C.ar   14  G14         0.1748
    262  C6        24.9300  -31.4850    4.7350 C.ar   14  G14         0.3023
    263  O6        25.0720  -30.7350    5.7060 O.2    14  G14        -0.2633
    264  N7        22.9640  -32.9630    5.3920 N.ar   14  G14        -0.2173
    265  C8        22.3950  -33.9310    4.7280 C.ar   14  G14         0.1817
    266  N9        22.9690  -34.1500    3.4990 N.ar   14  G14        -0.2693
    267  OP1       19.4620  -38.1050    7.0640 O.2    14  G14        -0.5172
    268  OP2       20.4350  -35.8590    7.8380 O.co2  14  G14        -0.4373
    269  P         24.4510  -39.2000    4.3130 P.3    15  C15         0.2141
    270  C5'       26.2130  -38.7940    2.4180 C.3    15  C15         0.1812
    271  O5'       25.7700  -38.5160    3.7380 O.3    15  C15        -0.3114
    272  C4'       27.3100  -37.8560    1.9800 C.3    15  C15         0.1773
    273  O4'       26.8540  -36.4790    2.0620 O.3    15  C15        -0.3307
    274  C3'       28.5810  -37.8630    2.8140 C.3    15  C15         0.1860
    275  O3'       29.4350  -38.9570    2.5340 O.3    15  C15        -0.3112
    276  C2'       29.1910  -36.5090    2.4820 C.3    15  C15         0.2309
    277  O2'       29.8170  -36.5400    1.2080 O.3    15  C15        -0.2156
    278  C1'       27.9410  -35.6350    2.3860 C.3    15  C15         0.2420
    279  N1        27.6530  -34.9460    3.6660 N.ar   15  C15        -0.2535
    280  C2        28.4050  -33.8130    4.0040 C.ar   15  C15         0.3532
    281  O2        29.2840  -33.4150    3.2240 O.2    15  C15        -0.2443
    282  N3        28.1580  -33.1760    5.1710 N.ar   15  C15        -0.1739
    283  C4        27.2050  -33.6290    5.9880 C.ar   15  C15         0.1759
    284  N4        26.9950  -32.9680    7.1280 N.pl3  15  C15        -0.1070
    285  C5        26.4260  -34.7790    5.6720 C.ar   15  C15         0.0566
    286  C6        26.6810  -35.4010    4.5140 C.ar   15  C15         0.0850
    287  OP1       24.5520  -40.6640    4.0850 O.2    15  C15        -0.5172
    288  OP2       24.2200  -38.6880    5.6880 O.co2  15  C15        -0.4373
    289  P         30.1430  -39.7500    3.7400 P.3    16  G16         0.2141
    290  C5'       32.2040  -38.1270    3.7210 C.3    16  G16         0.1812
    291  O5'       31.0890  -38.6620    4.4200 O.3    16  G16        -0.3114
    292  C4'       32.6540  -36.8110    4.3070 C.3    16  G16         0.1773
    293  O4'       31.5120  -35.9310    4.4750 O.3    16  G16        -0.3307
    294  C3'       33.2780  -36.8700    5.6930 C.3    16  G16         0.1860
    295  O3'       34.6390  -37.2610    5.6750 O.3    16  G16        -0.3112
    296  C2'       33.0560  -35.4560    6.2100 C.3    16  G16         0.2309
    297  O2'       33.9910  -34.5610    5.6260 O.3    16  G16        -0.2156
    298  C1'       31.6750  -35.1450    5.6370 C.3    16  G16         0.2408
    299  N1        29.4460  -34.0690   10.1010 N.ar   16  G16        -0.1709
    300  C2        30.5330  -33.4780    9.5060 C.ar   16  G16         0.2606
    301  N2        31.1070  -32.4700   10.1810 N.pl3  16  G16        -0.0859
    302  N3        31.0230  -33.8480    8.3340 N.ar   16  G16        -0.1918
    303  C4        30.3330  -34.8730    7.7920 C.ar   16  G16         0.1723
    304  C5        29.2360  -35.5330    8.3060 C.ar   16  G16         0.1748
    305  C6        28.7180  -35.1260    9.5640 C.ar   16  G16         0.3023
    306  O6        27.7520  -35.5870   10.1850 O.2    16  G16        -0.2633
    307  N7        28.8160  -36.5340    7.4410 N.ar   16  G16        -0.2173
    308  C8        29.6480  -36.4670    6.4380 C.ar   16  G16         0.1817
    309  N9        30.5960  -35.4820    6.5860 N.ar   16  G16        -0.2693
    310  OP1       31.0030  -40.8100    3.1550 O.2    16  G16        -0.5172
    311  OP2       29.0880  -40.1200    4.7190 O.co2  16  G16        -0.4373
    312  P         35.2770  -38.0250    6.9370 P.3    17  U17         0.2141
    313  C5'       36.2050  -35.7820    7.9330 C.3    17  U17         0.1812
    314  O5'       35.3500  -36.9080    8.0690 O.3    17  U17        -0.3114
    315  C4'       36.2400  -34.9650    9.1990 C.3    17  U17         0.1773
    316  O4'       34.9370  -34.3710    9.4350 O.3    17  U17        -0.3307
    317  C3'       36.5280  -35.7410   10.4760 C.3    17  U17         0.1860
    318  O3'       37.9070  -35.9940   10.6750 O.3    17  U17        -0.3112
    319  C2'       35.9050  -34.8590   11.5490 C.3    17  U17         0.2309
    320  O2'       36.7530  -33.7610   11.8500 O.3    17  U17        -0.2156
    321  C1'       34.6680  -34.3310   10.8220 C.3    17  U17         0.2420
    322  N1        33.4700  -35.1590   11.0900 N.ar   17  U17        -0.2534
    323  C2        32.8330  -35.0060   12.3070 C.ar   17  U17         0.3546
    324  O2        33.2120  -34.2270   13.1640 O.2    17  U17        -0.2443
    325  N3        31.7310  -35.8050   12.4860 N.ar   17  U17        -0.1530
    326  C4        31.2100  -36.7190   11.5930 C.ar   17  U17         0.2846
    327  O4        30.2080  -37.3650   11.9010 O.2    17  U17        -0.2650
    328  C5        31.9240  -36.8180   10.3590 C.ar   17  U17         0.0814
    329  C6        33.0010  -36.0530   10.1560 C.ar   17  U17         0.0870
    330  OP1       36.6680  -38.4080    6.5840 O.2    17  U17        -0.5172
    331  OP2       34.3190  -39.0690    7.3840 O.co2  17  U17        -0.4373
    332  P         38.3810  -37.3900   11.3130 P.3    18  C18         0.2141
    333  C5'       38.6480  -36.2530   13.6580 C.3    18  C18         0.1812
    334  O5'       38.0250  -37.2450   12.8580 O.3    18  C18        -0.3114
    335  C4'       38.0600  -36.2120   15.0450 C.3    18  C18         0.1773
    336  O4'       36.6990  -35.7100   14.9900 O.3    18  C18        -0.3307
    337  C3'       37.9230  -37.5500   15.7530 C.3    18  C18         0.1860
    338  O3'       39.1350  -38.0160   16.3170 O.3    18  C18        -0.3112
    339  C2'       36.8350  -37.2670   16.7790 C.3    18  C18         0.2309
    340  O2'       37.3630  -36.5500   17.8850 O.3    18  C18        -0.2156
    341  C1'       35.9170  -36.3330   15.9890 C.3    18  C18         0.2420
    342  N1        34.8070  -37.0700   15.3430 N.ar   18  C18        -0.2535
    343  C2        33.6880  -37.3840   16.1180 C.ar   18  C18         0.3532
    344  O2        33.6650  -37.0290   17.3060 O.2    18  C18        -0.2443
    345  N3        32.6600  -38.0610   15.5590 N.ar   18  C18        -0.1739
    346  C4        32.7200  -38.4240   14.2780 C.ar   18  C18         0.1759
    347  N4        31.6800  -39.0900   13.7710 N.pl3  18  C18        -0.1070
    348  C5        33.8490  -38.1200   13.4630 C.ar   18  C18         0.0566
    349  C6        34.8610  -37.4490   14.0300 C.ar   18  C18         0.0850
    350  OP1       39.8580  -37.4730   11.1820 O.3    18  C18        -0.4373
    351  OP2       37.5300  -38.4700   10.7520 O.co2  18  C18        -0.5172
    352  P         39.4590  -39.5900   16.3220 P.3    19  G19         0.2141
    353  C5'       38.5550  -39.8580   18.7660 C.3    19  G19         0.1812
    354  O5'       38.4400  -40.1900   17.3910 O.3    19  G19        -0.3114
    355  C4'       37.5170  -40.5620   19.6050 C.3    19  G19         0.1773
    356  O4'       36.2160  -39.9480   19.4180 O.3    19  G19        -0.3307
    357  C3'       37.2750  -42.0290   19.2940 C.3    19  G19         0.1860
    358  O3'       38.2630  -42.8850   19.8410 O.3    19  G19        -0.3112
    359  C2'       35.8820  -42.2580   19.8670 C.3    19  G19         0.2309
    360  O2'       35.9370  -42.4080   21.2780 O.3    19  G19        -0.2156
    361  C1'       35.2030  -40.9260   19.5450 C.3    19  G19         0.2408
    362  N1        30.9960  -42.6290   17.2450 N.ar   19  G19        -0.1709
    363  C2        31.3940  -42.7510   18.5550 C.ar   19  G19         0.2606
    364  N2        30.5700  -43.4160   19.3750 N.pl3  19  G19        -0.0859
    365  N3        32.5220  -42.2580   19.0380 N.ar   19  G19        -0.1918
    366  C4        33.2370  -41.6190   18.0910 C.ar   19  G19         0.1723
    367  C5        32.9330  -41.4390   16.7590 C.ar   19  G19         0.1748
    368  C6        31.7190  -41.9720   16.2530 C.ar   19  G19         0.3023
    369  O6        31.2800  -41.9140   15.0980 O.2    19  G19        -0.2633
    370  N7        33.9370  -40.7240   16.1220 N.ar   19  G19        -0.2173
    371  C8        34.8140  -40.4860   17.0600 C.ar   19  G19         0.1817
    372  N9        34.4490  -40.9980   18.2800 N.ar   19  G19        -0.2693
    373  OP1       40.8390  -39.7700   16.8390 O.3    19  G19        -0.4373
    374  OP2       39.0960  -40.1350   14.9880 O.co2  19  G19        -0.5172
    375  P         38.6070  -44.2820   19.1240 P.3    20  G20         0.2141
    376  C5'       37.1160  -45.5620   20.8550 C.3    20  G20         0.1812
    377  O5'       37.3770  -45.2210   19.5020 O.3    20  G20        -0.3114
    378  C4'       35.8090  -46.3000   21.0050 C.3    20  G20         0.1773
    379  O4'       34.7070  -45.4430   20.6080 O.3    20  G20        -0.3307
    380  C3'       35.6350  -47.5390   20.1420 C.3    20  G20         0.1860
    381  O3'       36.2970  -48.6780   20.6620 O.3    20  G20        -0.3112
    382  C2'       34.1210  -47.6840   20.0800 C.3    20  G20         0.2309
    383  O2'       33.6210  -48.2500   21.2820 O.3    20  G20        -0.2156
    384  C1'       33.6840  -46.2200   20.0170 C.3    20  G20         0.2408
    385  N1        30.6400  -46.3700   15.9530 N.ar   20  G20        -0.1709
    386  C2        30.4900  -46.9590   17.1840 C.ar   20  G20         0.2606
    387  N2        29.3790  -47.6890   17.3630 N.pl3  20  G20        -0.0859
    388  N3        31.3630  -46.8420   18.1700 N.ar   20  G20        -0.1918
    389  C4        32.4170  -46.0760   17.8210 C.ar   20  G20         0.1723
    390  C5        32.6640  -45.4430   16.6220 C.ar   20  G20         0.1748
    391  C6        31.7170  -45.5770   15.5720 C.ar   20  G20         0.3023
    392  O6        31.7530  -45.0940   14.4340 O.2    20  G20        -0.2633
    393  N7        33.8660  -44.7510   16.6710 N.ar   20  G20        -0.2173
    394  C8        34.3190  -44.9720   17.8760 C.ar   20  G20         0.1817
    395  N9        33.4870  -45.7670   18.6260 N.ar   20  G20        -0.2693
    396  OP1       39.8210  -44.8420   19.7690 O.3    20  G20        -0.4373
    397  OP2       38.5950  -44.0630   17.6550 O.co2  20  G20        -0.5172
    398  P         37.1290  -49.6390   19.6800 P.3    21  G21         0.2141
    399  C5'       35.0400  -51.1810   19.3080 C.3    21  G21         0.1812
    400  O5'       36.0150  -50.3080   18.7590 O.3    21  G21        -0.3114
    401  C4'       34.0790  -51.6620   18.2520 C.3    21  G21         0.1773
    402  O4'       33.2270  -50.5670   17.8260 O.3    21  G21        -0.3307
    403  C3'       34.7090  -52.1640   16.9620 C.3    21  G21         0.1860
    404  O3'       35.1750  -53.4980   17.0580 O.3    21  G21        -0.3112
    405  C2'       33.5860  -51.9800   15.9510 C.3    21  G21         0.2309
    406  O2'       32.6330  -53.0260   16.0680 O.3    21  G21        -0.2156
    407  C1'       32.9460  -50.6820   16.4460 C.3    21  G21         0.2408
    408  N1        32.7420  -47.7010   12.3210 N.ar   21  G21        -0.1709
    409  C2        31.9990  -48.8130   12.6280 C.ar   21  G21         0.2606
    410  N2        31.0830  -49.1810   11.7210 N.pl3  21  G21        -0.0859
    411  N3        32.1430  -49.5120   13.7420 N.ar   21  G21        -0.1918
    412  C4        33.1080  -49.0030   14.5360 C.ar   21  G21         0.1723
    413  C5        33.9050  -47.8980   14.3210 C.ar   21  G21         0.1748
    414  C6        33.7400  -47.1560   13.1220 C.ar   21  G21         0.3023
    415  O6        34.3520  -46.1460   12.7480 O.2    21  G21        -0.2633
    416  N7        34.7770  -47.7040   15.3830 N.ar   21  G21        -0.2173
    417  C8        34.4990  -48.6750   16.2090 C.ar   21  G21         0.1817
    418  N9        33.4960  -49.4990   15.7590 N.ar   21  G21        -0.2693
    419  OP1       37.7500  -50.7110   20.4990 O.3    21  G21        -0.4373
    420  OP2       37.9820  -48.7860   18.8130 O.co2  21  G21        -0.5172
    421  P         36.5470  -53.9340   16.3410 P.3    22  A22         0.2141
    422  C5'       37.5920  -53.2890   14.0230 C.3    22  A22         0.1812
    423  O5'       36.5030  -53.1940   14.9310 O.3    22  A22        -0.3114
    424  C4'       37.1570  -53.8710   12.7020 C.3    22  A22         0.1773
    425  O4'       36.8230  -55.2740   12.8710 O.3    22  A22        -0.3307
    426  C3'       35.9030  -53.2640   12.0910 C.3    22  A22         0.1860
    427  O3'       36.1520  -52.0520   11.4020 O.3    22  A22        -0.3112
    428  C2'       35.3900  -54.3850   11.1980 C.3    22  A22         0.2309
    429  O2'       36.1290  -54.4430    9.9870 O.3    22  A22        -0.2156
    430  C1'       35.7370  -55.6160   12.0350 C.3    22  A22         0.2408
    431  N1        31.1230  -57.9230   12.2160 N.ar   22  A22        -0.2040
    432  C2        31.9610  -57.6670   11.2030 C.ar   22  A22         0.2016
    433  N3        33.1480  -57.0620   11.2230 N.ar   22  A22        -0.2048
    434  C4        33.4700  -56.6900   12.4740 C.ar   22  A22         0.1692
    435  C5        32.7140  -56.8830   13.6160 C.ar   22  A22         0.1518
    436  C6        31.4780  -57.5360   13.4610 C.ar   22  A22         0.1919
    437  N6        30.6440  -57.7900   14.4720 N.pl3  22  A22        -0.1054
    438  N7        33.3640  -56.3690   14.7290 N.ar   22  A22        -0.2193
    439  C8        34.4810  -55.8840   14.2430 C.ar   22  A22         0.1816
    440  N9        34.6100  -56.0430   12.8860 N.ar   22  A22        -0.2693
    441  OP1       36.4720  -55.3940   16.0830 O.2    22  A22        -0.5172
    442  OP2       37.6790  -53.3740   17.1220 O.co2  22  A22        -0.4373
    443  P         34.9510  -51.0170   11.1470 P.3    23  A23         0.2141
    444  C5'       33.0090  -51.0650    9.3900 C.3    23  A23         0.1812
    445  O5'       34.2900  -51.5250    9.7900 O.3    23  A23        -0.3114
    446  C4'       32.1030  -52.2130    9.0220 C.3    23  A23         0.1773
    447  O4'       32.3480  -53.3320    9.9110 O.3    23  A23        -0.3307
    448  C3'       30.6110  -51.9470    9.1570 C.3    23  A23         0.1860
    449  O3'       30.0720  -51.2660    8.0380 O.3    23  A23        -0.3112
    450  C2'       30.0370  -53.3440    9.3560 C.3    23  A23         0.2309
    451  O2'       29.9260  -54.0220    8.1130 O.3    23  A23        -0.2156
    452  C1'       31.1410  -54.0140   10.1750 C.3    23  A23         0.2408
    453  N1        28.2420  -55.7110   14.0920 N.ar   23  A23        -0.2040
    454  C2        28.2210  -55.9740   12.7790 C.ar   23  A23         0.2016
    455  N3        29.0040  -55.4980   11.8120 N.ar   23  A23        -0.2048
    456  C4        29.9120  -54.6420   12.3150 C.ar   23  A23         0.1692
    457  C5        30.0570  -54.2720   13.6400 C.ar   23  A23         0.1518
    458  C6        29.1670  -54.8470   14.5640 C.ar   23  A23         0.1919
    459  N6        29.1880  -54.5860   15.8740 N.pl3  23  A23        -0.1054
    460  N7        31.1010  -53.3680   13.7850 N.ar   23  A23        -0.2193
    461  C8        31.5560  -53.2140   12.5660 C.ar   23  A23         0.1816
    462  N9        30.8800  -53.9530   11.6260 N.ar   23  A23        -0.2693
    463  OP1       35.5330  -49.6720   10.9070 O.2    23  A23        -0.5172
    464  OP2       33.9580  -51.2080   12.2340 O.co2  23  A23        -0.4373
    465  P         29.3330  -49.8520    8.2280 P.3    24  A24         0.2141
    466  C5'       26.9980  -50.9910    7.8740 C.3    24  A24         0.1812
    467  O5'       27.8670  -50.2440    8.7130 O.3    24  A24        -0.3114
    468  C4'       26.0320  -51.8230    8.6790 C.3    24  A24         0.1773
    469  O4'       26.7690  -52.7030    9.5680 O.3    24  A24        -0.3307
    470  C3'       25.1020  -51.0570    9.6090 C.3    24  A24         0.1860
    471  O3'       23.9740  -50.5110    8.9470 O.3    24  A24        -0.3112
    472  C2'       24.7460  -52.1050   10.6540 C.3    24  A24         0.2309
    473  O2'       23.7710  -53.0050   10.1480 O.3    24  A24        -0.2156
    474  C1'       26.0710  -52.8530   10.7860 C.3    24  A24         0.2408
    475  N1        26.8170  -52.5720   15.8750 N.ar   24  A24        -0.2040
    476  C2        25.9030  -53.2120   15.1330 C.ar   24  A24         0.2016
    477  N3        25.7670  -53.2430   13.8090 N.ar   24  A24        -0.2048
    478  C4        26.7210  -52.5020   13.2170 C.ar   24  A24         0.1692
    479  C5        27.7270  -51.7880   13.8430 C.ar   24  A24         0.1518
    480  C6        27.7610  -51.8360   15.2480 C.ar   24  A24         0.1919
    481  N6        28.6720  -51.1990   15.9890 N.pl3  24  A24        -0.1054
    482  N7        28.5260  -51.1440   12.9090 N.ar   24  A24        -0.2193
    483  C8        27.9950  -51.4760   11.7570 C.ar   24  A24         0.1816
    484  N9        26.9020  -52.2990   11.8710 N.ar   24  A24        -0.2693
    485  OP1       29.2230  -49.2140    6.8910 O.2    24  A24        -0.5172
    486  OP2       30.0040  -49.1240    9.3360 O.co2  24  A24        -0.4373
    487  P         23.6920  -48.9290    8.9910 P.3    25  C25         0.2141
    488  C5'       22.7950  -49.0080   11.4580 C.3    25  C25         0.1812
    489  O5'       23.7780  -48.5540   10.5390 O.3    25  C25        -0.3114
    490  C4'       23.3440  -49.0960   12.8610 C.3    25  C25         0.1773
    491  O4'       24.6920  -49.6360   12.8280 O.3    25  C25        -0.3307
    492  C3'       23.4980  -47.7810   13.6090 C.3    25  C25         0.1860
    493  O3'       22.2840  -47.3110   14.1700 O.3    25  C25        -0.3112
    494  C2'       24.5580  -48.1180   14.6480 C.3    25  C25         0.2309
    495  O2'       23.9910  -48.8560   15.7210 O.3    25  C25        -0.2156
    496  C1'       25.4690  -49.0520   13.8530 C.3    25  C25         0.2420
    497  N1        26.6080  -48.3290   13.2400 N.ar   25  C25        -0.2535
    498  C2        27.7010  -47.9850   14.0430 C.ar   25  C25         0.3532
    499  O2        27.6900  -48.2940   15.2440 O.2    25  C25        -0.2443
    500  N3        28.7450  -47.3240   13.4910 N.ar   25  C25        -0.1739
    501  C4        28.7280  -47.0070   12.1960 C.ar   25  C25         0.1759
    502  N4        29.7810  -46.3550   11.6970 N.pl3  25  C25        -0.1070
    503  C5        27.6290  -47.3440   11.3550 C.ar   25  C25         0.0566
    504  C6        26.6020  -47.9980   11.9130 C.ar   25  C25         0.0850
    505  OP1       22.2940  -48.7070    8.5430 O.3    25  C25        -0.4373
    506  OP2       24.8070  -48.2430    8.2890 O.co2  25  C25        -0.5172
    507  P         22.0960  -45.7470   14.4980 P.3    26  C26         0.2141
    508  C5'       22.5250  -46.2420   17.0370 C.3    26  C26         0.1812
    509  O5'       22.8930  -45.5370   15.8610 O.3    26  C26        -0.3114
    510  C4'       23.5760  -46.1170   18.1110 C.3    26  C26         0.1773
    511  O4'       24.8450  -46.6280   17.6250 O.3    26  C26        -0.3307
    512  C3'       23.9040  -44.7040   18.5660 C.3    26  C26         0.1860
    513  O3'       22.9600  -44.1780   19.4830 O.3    26  C26        -0.3112
    514  C2'       25.3020  -44.8640   19.1490 C.3    26  C26         0.2309
    515  O2'       25.2410  -45.4360   20.4480 O.3    26  C26        -0.2156
    516  C1'       25.9090  -45.8940   18.1960 C.3    26  C26         0.2420
    517  N1        26.6910  -45.2550   17.1120 N.ar   26  C26        -0.2535
    518  C2        27.9850  -44.8040   17.3910 C.ar   26  C26         0.3532
    519  O2        28.4420  -44.9540   18.5350 O.2    26  C26        -0.2443
    520  N3        28.7110  -44.2190   16.4100 N.ar   26  C26        -0.1739
    521  C4        28.1890  -44.0750   15.1900 C.ar   26  C26         0.1759
    522  N4        28.9370  -43.4920   14.2510 N.pl3  26  C26        -0.1070
    523  C5        26.8740  -44.5230   14.8780 C.ar   26  C26         0.0566
    524  C6        26.1680  -45.1010   15.8580 C.ar   26  C26         0.0850
    525  OP1       20.6560  -45.5050   14.7660 O.3    26  C26        -0.4373
    526  OP2       22.7920  -44.9680   13.4410 O.co2  26  C26        -0.5172
    527  P         22.6520  -42.6000   19.5090 P.3    27  G27         0.2141
    528  C5'       24.3970  -42.3390   21.4480 C.3    27  G27         0.1812
    529  O5'       23.9630  -41.9620   20.1500 O.3    27  G27        -0.3114
    530  C4'       25.7420  -41.7430   21.7740 C.3    27  G27         0.1773
    531  O4'       26.7570  -42.2860   20.8890 O.3    27  G27        -0.3307
    532  C3'       25.8640  -40.2420   21.5890 C.3    27  G27         0.1860
    533  O3'       25.3110  -39.5060   22.6660 O.3    27  G27        -0.3112
    534  C2'       27.3650  -40.0500   21.4170 C.3    27  G27         0.2309
    535  O2'       28.0240  -40.1010   22.6740 O.3    27  G27        -0.2156
    536  C1'       27.7380  -41.3030   20.6240 C.3    27  G27         0.2408
    537  N1        30.2620  -39.1060   16.7850 N.ar   27  G27        -0.1709
    538  C2        30.5590  -39.1330   18.1240 C.ar   27  G27         0.2606
    539  N2        31.6760  -38.4910   18.4920 N.pl3  27  G27        -0.0859
    540  N3        29.8190  -39.7430   19.0350 N.ar   27  G27        -0.1918
    541  C4        28.7350  -40.3360   18.4910 C.ar   27  G27         0.1723
    542  C5        28.3480  -40.3680   17.1680 C.ar   27  G27         0.1748
    543  C6        29.1530  -39.7090   16.2010 C.ar   27  G27         0.3023
    544  O6        28.9800  -39.6230   14.9790 O.2    27  G27        -0.2633
    545  N7        27.1690  -41.0850   17.0190 N.ar   27  G27        -0.2173
    546  C8        26.8660  -41.4680   18.2300 C.ar   27  G27         0.1817
    547  N9        27.7740  -41.0480   19.1710 N.ar   27  G27        -0.2693
    548  OP1       21.5220  -42.3670   20.4450 O.3    27  G27        -0.4373
    549  OP2       22.5570  -42.1210   18.1060 O.co2  27  G27        -0.5172
    550  P         24.8370  -37.9900   22.4390 P.3    28  A28         0.2141
    551  C5'       26.2100  -35.8370   21.8800 C.3    28  A28         0.1812
    552  O5'       26.2050  -37.1860   22.3100 O.3    28  A28        -0.3114
    553  C4'       27.6070  -35.3340   21.6210 C.3    28  A28         0.1773
    554  O4'       28.3380  -36.3210   20.8480 O.3    28  A28        -0.3307
    555  C3'       27.6980  -34.0610   20.7930 C.3    28  A28         0.1860
    556  O3'       27.5300  -32.8840   21.5660 O.3    28  A28        -0.3112
    557  C2'       29.0680  -34.1760   20.1410 C.3    28  A28         0.2309
    558  O2'       30.0930  -33.8020   21.0490 O.3    28  A28        -0.2156
    559  C1'       29.1610  -35.6810   19.8970 C.3    28  A28         0.2408
    560  N1        30.2200  -35.8230   14.8620 N.ar   28  A28        -0.2040
    561  C2        30.9220  -35.3900   15.9170 C.ar   28  A28         0.2016
    562  N3        30.5870  -35.3790   17.2040 N.ar   28  A28        -0.2048
    563  C4        29.3590  -35.8980   17.3730 C.ar   28  A28         0.1692
    564  C5        28.5180  -36.3850   16.3910 C.ar   28  A28         0.1518
    565  C6        28.9890  -36.3380   15.0690 C.ar   28  A28         0.1919
    566  N6        28.2880  -36.7720   14.0200 N.pl3  28  A28        -0.1054
    567  N7        27.3290  -36.8410   16.9410 N.ar   28  A28        -0.2193
    568  C8        27.4750  -36.6220   18.2250 C.ar   28  A28         0.1816
    569  N9        28.6800  -36.0530   18.5550 N.ar   28  A28        -0.2693
    570  OP1       24.1450  -37.5320   23.6710 O.3    28  A28        -0.4373
    571  OP2       24.1360  -37.9110   21.1320 O.co2  28  A28        -0.5172
    572  P         26.1150  -32.1220   21.5900 P.3    29  A29         0.2141
    573  C5'       24.1090  -32.6160   23.2050 C.3    29  A29         0.1812
    574  O5'       25.1650  -33.1090   22.3990 O.3    29  A29        -0.3114
    575  C4'       24.0530  -33.3350   24.5270 C.3    29  A29         0.1773
    576  O4'       25.3700  -33.8580   24.8550 O.3    29  A29        -0.3307
    577  C3'       23.6850  -32.4680   25.7200 C.3    29  A29         0.1860
    578  O3'       22.2880  -32.2860   25.8580 O.3    29  A29        -0.3112
    579  C2'       24.3380  -33.1980   26.8830 C.3    29  A29         0.2309
    580  O2'       23.5680  -34.3290   27.2660 O.3    29  A29        -0.2156
    581  C1'       25.6300  -33.6880   26.2330 C.3    29  A29         0.2408
    582  N1        28.5090  -30.6880   29.3460 N.ar   29  A29        -0.2040
    583  C2        27.5110  -31.5420   29.6090 C.ar   29  A29         0.2016
    584  N3        26.8000  -32.2930   28.7700 N.ar   29  A29        -0.2048
    585  C4        27.2080  -32.1090   27.5010 C.ar   29  A29         0.1692
    586  C5        28.2210  -31.2650   27.0770 C.ar   29  A29         0.1518
    587  C6        28.8950  -30.5250   28.0620 C.ar   29  A29         0.1919
    588  N6        29.8900  -29.6770   27.7940 N.pl3  29  A29        -0.1054
    589  N7        28.3730  -31.3230   25.7000 N.ar   29  A29        -0.2193
    590  C8        27.4630  -32.1860   25.3260 C.ar   29  A29         0.1816
    591  N9        26.7200  -32.7020   26.3590 N.ar   29  A29        -0.2693
    592  OP1       25.6080  -32.0450   20.1960 O.2    29  A29        -0.5172
    593  OP2       26.2690  -30.8770   22.3860 O.co2  29  A29        -0.4373
    594  P         21.6880  -30.8030   25.9790 P.3    30  A30         0.2141
    595  C5'       21.4400  -31.3620   28.5240 C.3    30  A30         0.1812
    596  O5'       21.8650  -30.4550   27.5190 O.3    30  A30        -0.3114
    597  C4'       21.8220  -30.8580   29.8890 C.3    30  A30         0.1773
    598  O4'       23.2400  -31.0810   30.1120 O.3    30  A30        -0.3307
    599  C3'       21.6540  -29.3630   30.0930 C.3    30  A30         0.1860
    600  O3'       20.3210  -28.9730   30.3670 O.3    30  A30        -0.3112
    601  C2'       22.6350  -29.0720   31.2160 C.3    30  A30         0.2309
    602  O2'       22.1080  -29.5020   32.4620 O.3    30  A30        -0.2156
    603  C1'       23.7890  -29.9970   30.8370 C.3    30  A30         0.2408
    604  N1        27.3760  -26.3050   30.5510 N.ar   30  A30        -0.2040
    605  C2        26.5880  -26.7160   31.5520 C.ar   30  A30         0.2016
    606  N3        25.6750  -27.6840   31.5550 N.ar   30  A30        -0.2048
    607  C4        25.6020  -28.2770   30.3500 C.ar   30  A30         0.1692
    608  C5        26.3480  -27.9640   29.2270 C.ar   30  A30         0.1518
    609  C6        27.2810  -26.9190   29.3520 C.ar   30  A30         0.1919
    610  N6        28.0750  -26.5010   28.3620 N.pl3  30  A30        -0.1054
    611  N7        26.0010  -28.7880   28.1660 N.ar   30  A30        -0.2193
    612  C8        25.0670  -29.5650   28.6610 C.ar   30  A30         0.1816
    613  N9        24.7770  -29.3130   29.9790 N.ar   30  A30        -0.2693
    614  OP1       20.2330  -30.8510   25.6820 O.3    30  A30        -0.4373
    615  OP2       22.5750  -29.8910   25.2120 O.co2  30  A30        -0.5172
    616  P         19.7960  -27.5470   29.8490 P.3    31  C31         0.2141
    617  C5'       20.2130  -26.6880   32.2890 C.3    31  C31         0.1812
    618  O5'       20.4090  -26.5160   30.8950 O.3    31  C31        -0.3114
    619  C4'       20.8920  -25.5920   33.0660 C.3    31  C31         0.1773
    620  O4'       22.3300  -25.7810   33.0320 O.3    31  C31        -0.3307
    621  C3'       20.6980  -24.1890   32.5200 C.3    31  C31         0.1860
    622  O3'       19.4520  -23.6190   32.8700 O.3    31  C31        -0.3112
    623  C2'       21.8980  -23.4450   33.0870 C.3    31  C31         0.2309
    624  O2'       21.6870  -23.1150   34.4510 O.3    31  C31        -0.2156
    625  C1'       22.9780  -24.5240   33.0110 C.3    31  C31         0.2420
    626  N1        23.7820  -24.4170   31.7720 N.ar   31  C31        -0.2535
    627  C2        24.7590  -23.4200   31.7030 C.ar   31  C31         0.3532
    628  O2        24.9170  -22.6670   32.6750 O.2    31  C31        -0.2443
    629  N3        25.5080  -23.3010   30.5830 N.ar   31  C31        -0.1739
    630  C4        25.3130  -24.1310   29.5590 C.ar   31  C31         0.1759
    631  N4        26.0780  -23.9760   28.4770 N.pl3  31  C31        -0.1070
    632  C5        24.3230  -25.1560   29.5990 C.ar   31  C31         0.0566
    633  C6        23.5880  -25.2630   30.7150 C.ar   31  C31         0.0850
    634  OP1       18.3150  -27.5090   29.9570 O.3    31  C31        -0.4373
    635  OP2       20.4550  -27.2740   28.5460 O.co2  31  C31        -0.5172
    636  P         18.7570  -22.5650   31.8790 P.3    32  A32         0.2141
    637  C5'       19.7070  -20.6820   33.4280 C.3    32  A32         0.1812
    638  O5'       19.5740  -21.2210   32.1230 O.3    32  A32        -0.3114
    639  C4'       20.7460  -19.5920   33.4690 C.3    32  A32         0.1773
    640  O4'       22.0660  -20.1460   33.2350 O.3    32  A32        -0.3307
    641  C3'       20.6140  -18.5120   32.4130 C.3    32  A32         0.1860
    642  O3'       19.6190  -17.5560   32.7270 O.3    32  A32        -0.3112
    643  C2'       22.0220  -17.9390   32.3540 C.3    32  A32         0.2309
    644  O2'       22.2520  -17.0700   33.4520 O.3    32  A32        -0.2156
    645  C1'       22.8670  -19.1980   32.5560 C.3    32  A32         0.2408
    646  N1        26.1390  -18.7810   28.5980 N.ar   32  A32        -0.2040
    647  C2        25.9530  -18.0410   29.6980 C.ar   32  A32         0.2016
    648  N3        25.0790  -18.2060   30.6900 N.ar   32  A32        -0.2048
    649  C4        24.3180  -19.2920   30.4750 C.ar   32  A32         0.1692
    650  C5        24.3880  -20.1520   29.3950 C.ar   32  A32         0.1518
    651  C6        25.3540  -19.8660   28.4150 C.ar   32  A32         0.1919
    652  N6        25.5360  -20.6080   27.3200 N.pl3  32  A32        -0.1054
    653  N7        23.4460  -21.1650   29.5120 N.ar   32  A32        -0.2193
    654  C8        22.8370  -20.8990   30.6420 C.ar   32  A32         0.1816
    655  N9        23.3140  -19.7790   31.2770 N.ar   32  A32        -0.2693
    656  OP1       17.3600  -22.3480   32.3320 O.3    32  A32        -0.4373
    657  OP2       19.0290  -23.0050   30.4870 O.co2  32  A32        -0.5172
    658  P         18.7680  -16.8640   31.5540 P.3    33  A33         0.2141
    659  C5'       20.3670  -14.8090   31.7760 C.3    33  A33         0.1812
    660  O5'       19.7770  -15.7960   30.9440 O.3    33  A33        -0.3114
    661  C4'       21.4920  -14.0980   31.0720 C.3    33  A33         0.1773
    662  O4'       22.5790  -15.0220   30.8170 O.3    33  A33        -0.3307
    663  C3'       21.1590  -13.5390   29.7010 C.3    33  A33         0.1860
    664  O3'       20.4670  -12.3070   29.7700 O.3    33  A33        -0.3112
    665  C2'       22.5270  -13.4470   29.0410 C.3    33  A33         0.2309
    666  O2'       23.2350  -12.3100   29.5110 O.3    33  A33        -0.2156
    667  C1'       23.2090  -14.6980   29.5950 C.3    33  A33         0.2408
    668  N1        25.2770  -17.2270   25.6200 N.ar   33  A33        -0.2040
    669  C2        25.6460  -16.1180   26.2730 C.ar   33  A33         0.2016
    670  N3        25.0570  -15.5130   27.3010 N.ar   33  A33        -0.2048
    671  C4        23.9470  -16.1760   27.6670 C.ar   33  A33         0.1692
    672  C5        23.4400  -17.3290   27.0960 C.ar   33  A33         0.1518
    673  C6        24.1560  -17.8700   26.0140 C.ar   33  A33         0.1919
    674  N6        23.7900  -18.9760   25.3600 N.pl3  33  A33        -0.1054
    675  N7        22.2780  -17.7270   27.7410 N.ar   33  A33        -0.2193
    676  C8        22.1100  -16.8200   28.6740 C.ar   33  A33         0.1816
    677  N9        23.0850  -15.8520   28.6850 N.ar   33  A33        -0.2693
    678  OP1       17.6500  -16.1170   32.1850 O.3    33  A33        -0.4373
    679  OP2       18.4810  -17.8880   30.5150 O.co2  33  A33        -0.5172
    680  P         19.3330  -11.9630   28.6890 P.3    34  A34         0.2141
    681  C5'       21.0400  -10.2720   27.6760 C.3    34  A34         0.1812
    682  O5'       20.1600  -11.3640   27.4710 O.3    34  A34        -0.3114
    683  C4'       22.0420  -10.1550   26.5600 C.3    34  A34         0.1773
    684  O4'       22.9370  -11.2970   26.5720 O.3    34  A34        -0.3307
    685  C3'       21.4720  -10.1570   25.1540 C.3    34  A34         0.1860
    686  O3'       20.9300   -8.9030   24.7790 O.3    34  A34        -0.3112
    687  C2'       22.6680  -10.5950   24.3190 C.3    34  A34         0.2309
    688  O2'       23.5690   -9.5150   24.1280 O.3    34  A34        -0.2156
    689  C1'       23.3270  -11.6130   25.2520 C.3    34  A34         0.2408
    690  N1        24.3090  -15.8910   22.5420 N.ar   34  A34        -0.2040
    691  C2        24.9280  -14.7050   22.6150 C.ar   34  A34         0.2016
    692  N3        24.6180  -13.6330   23.3430 N.ar   34  A34        -0.2048
    693  C4        23.5170  -13.8610   24.0770 C.ar   34  A34         0.1692
    694  C5        22.7730  -15.0260   24.1140 C.ar   34  A34         0.1518
    695  C6        23.2040  -16.0860   23.2960 C.ar   34  A34         0.1919
    696  N6        22.5850  -17.2660   23.2260 N.pl3  34  A34        -0.1054
    697  N7        21.7060  -14.8980   24.9910 N.ar   34  A34        -0.2193
    698  C8        21.8250  -13.6770   25.4570 C.ar   34  A34         0.1816
    699  N9        22.9030  -12.9940   24.9490 N.ar   34  A34        -0.2693
    700  OP1       18.4870  -10.8700   29.2350 O.3    34  A34        -0.4373
    701  OP2       18.7010  -13.2350   28.2520 O.co2  34  A34        -0.5172
    702  P         19.9750   -8.7880   23.4920 P.3    35  G35         0.2141
    703  C5'       20.6750   -9.0520   20.9840 C.3    35  G35         0.1812
    704  O5'       21.0000   -8.6090   22.2890 O.3    35  G35        -0.3114
    705  C4'       21.8370   -9.7650   20.3450 C.3    35  G35         0.1773
    706  O4'       22.3060  -10.8230   21.2170 O.3    35  G35        -0.3307
    707  C3'       21.5320  -10.4680   19.0350 C.3    35  G35         0.1860
    708  O3'       21.5730   -9.5810   17.9350 O.3    35  G35        -0.3112
    709  C2'       22.5950  -11.5560   18.9770 C.3    35  G35         0.2309
    710  O2'       23.8330  -11.0240   18.5310 O.3    35  G35        -0.2156
    711  C1'       22.7330  -11.9280   20.4530 C.3    35  G35         0.2408
    712  N1        21.6740  -16.8660   19.6870 N.ar   35  G35        -0.1709
    713  C2        22.6100  -16.0800   19.0620 C.ar   35  G35         0.2606
    714  N2        23.3520  -16.6820   18.1200 N.pl3  35  G35        -0.0859
    715  N3        22.8010  -14.8000   19.3420 N.ar   35  G35        -0.1918
    716  C4        21.9670  -14.3650   20.3120 C.ar   35  G35         0.1723
    717  C5        21.0010  -15.0740   20.9960 C.ar   35  G35         0.1748
    718  C6        20.8080  -16.4440   20.6890 C.ar   35  G35         0.3023
    719  O6        19.9980  -17.2390   21.1850 O.2    35  G35        -0.2633
    720  N7        20.3510  -14.2690   21.9200 N.ar   35  G35        -0.2173
    721  C8        20.9230  -13.1050   21.7850 C.ar   35  G35         0.1817
    722  N9        21.9050  -13.0910   20.8250 N.ar   35  G35        -0.2693
    723  OP1       19.1840   -7.5360   23.6060 O.3    35  G35        -0.4373
    724  OP2       19.2700  -10.0820   23.3120 O.co2  35  G35        -0.5172
    725  P         20.2120   -9.0420   17.2780 P.3    36  U36         0.2141
    726  C5'       19.4270  -10.5560   15.3090 C.3    36  U36         0.1812
    727  O5'       20.3080   -9.5530   15.7780 O.3    36  U36        -0.3114
    728  C4'       20.1560  -11.8280   14.9620 C.3    36  U36         0.1773
    729  O4'       20.7240  -12.4230   16.1600 O.3    36  U36        -0.3307
    730  C3'       19.2800  -12.9230   14.3830 C.3    36  U36         0.1860
    731  O3'       19.0340  -12.7420   13.0010 O.3    36  U36        -0.3112
    732  C2'       20.0540  -14.1900   14.7200 C.3    36  U36         0.2309
    733  O2'       21.1320  -14.3770   13.8160 O.3    36  U36        -0.2156
    734  C1'       20.6310  -13.8320   16.0910 C.3    36  U36         0.2420
    735  N1        19.7760  -14.2970   17.2120 N.ar   36  U36        -0.2534
    736  C2        19.5510  -15.6530   17.4100 C.ar   36  U36         0.3546
    737  O2        20.0060  -16.5370   16.7030 O.2    36  U36        -0.2443
    738  N3        18.7450  -15.9520   18.4820 N.ar   36  U36        -0.1530
    739  C4        18.1630  -15.0660   19.3650 C.ar   36  U36         0.2846
    740  O4        17.4660  -15.4900   20.2870 O.2    36  U36        -0.2650
    741  C5        18.4480  -13.6920   19.1030 C.ar   36  U36         0.0814
    742  C6        19.2250  -13.3690   18.0660 C.ar   36  U36         0.0870
    743  OP1       20.2530   -7.5580   17.2640 O.2    36  U36        -0.5172
    744  OP2       19.0660   -9.7380   17.9200 O.co2  36  U36        -0.4373
    745  P         17.5990  -12.2200   12.5040 P.3    37  C37         0.2141
    746  C5'       17.2360  -14.4490   11.2090 C.3    37  C37         0.1812
    747  O5'       16.7970  -13.5650   12.2260 O.3    37  C37        -0.3114
    748  C4'       17.1880  -15.8910   11.6420 C.3    37  C37         0.1773
    749  O4'       17.7770  -16.0600   12.9580 O.3    37  C37        -0.3307
    750  C3'       15.8110  -16.5100   11.7910 C.3    37  C37         0.1860
    751  O3'       15.2120  -16.8310   10.5480 O.3    37  C37        -0.3112
    752  C2'       16.1030  -17.7260   12.6640 C.3    37  C37         0.2309
    753  O2'       16.6670  -18.7720   11.8890 O.3    37  C37        -0.2156
    754  C1'       17.1940  -17.1810   13.5930 C.3    37  C37         0.2420
    755  N1        16.6560  -16.7950   14.9210 N.ar   37  C37        -0.2535
    756  C2        16.3490  -17.8250   15.8200 C.ar   37  C37         0.3532
    757  O2        16.5420  -19.0020   15.4780 O.2    37  C37        -0.2443
    758  N3        15.8490  -17.5250   17.0410 N.ar   37  C37        -0.1739
    759  C4        15.6530  -16.2530   17.3810 C.ar   37  C37         0.1759
    760  N4        15.1570  -16.0070   18.5970 N.pl3  37  C37        -0.1070
    761  C5        15.9550  -15.1820   16.4870 C.ar   37  C37         0.0566
    762  C6        16.4480  -15.4930   15.2790 C.ar   37  C37         0.0850
    763  OP1       17.8040  -11.5310   11.2050 O.2    37  C37        -0.5172
    764  OP2       16.9240  -11.5010   13.6140 O.co2  37  C37        -0.4373
    765  P         13.6110  -16.8470   10.4020 P.3    38  G38         0.2141
    766  C5'       13.8610  -19.4480   10.5270 C.3    38  G38         0.1812
    767  O5'       13.1970  -18.2720   10.9720 O.3    38  G38        -0.3114
    768  C4'       13.2490  -20.6890   11.1190 C.3    38  G38         0.1773
    769  O4'       13.4560  -20.6940   12.5570 O.3    38  G38        -0.3307
    770  C3'       11.7480  -20.8380   10.8930 C.3    38  G38         0.1860
    771  O3'       11.4370  -22.2070   10.6580 O.3    38  G38        -0.3112
    772  C2'       11.1500  -20.3710   12.2190 C.3    38  G38         0.2309
    773  O2'        9.8900  -20.9320   12.5210 O.3    38  G38        -0.2156
    774  C1'       12.2150  -20.8030   13.2250 C.3    38  G38         0.2408
    775  N1        11.3170  -20.3360   18.2350 N.ar   38  G38        -0.1709
    776  C2        11.1050  -21.4170   17.4160 C.ar   38  G38         0.2606
    777  N2        10.5890  -22.5060   18.0050 N.pl3  38  G38        -0.0859
    778  N3        11.3780  -21.4310   16.1190 N.ar   38  G38        -0.1918
    779  C4        11.8920  -20.2560   15.6980 C.ar   38  G38         0.1723
    780  C5        12.1380  -19.1160   16.4360 C.ar   38  G38         0.1748
    781  C6        11.8410  -19.1150   17.8220 C.ar   38  G38         0.3023
    782  O6        11.9940  -18.2000   18.6410 O.2    38  G38        -0.2633
    783  N7        12.6680  -18.1140   15.6360 N.ar   38  G38        -0.2173
    784  C8        12.7290  -18.6510   14.4500 C.ar   38  G38         0.1817
    785  N9        12.2730  -19.9460   14.4130 N.ar   38  G38        -0.2693
    786  OP1       13.2630  -16.8200    8.9590 O.2    38  G38        -0.5172
    787  OP2       13.0530  -15.8150   11.3120 O.co2  38  G38        -0.4373
    788  P         11.7440  -22.8490    9.2160 P.3    39  U39         0.2141
    789  C5'       12.0530  -25.2700   10.0260 C.3    39  U39         0.1812
    790  O5'       12.6680  -24.0920    9.5550 O.3    39  U39        -0.3114
    791  C4'       13.0300  -26.3530   10.3780 C.3    39  U39         0.1773
    792  O4'       13.6320  -26.0470   11.6640 O.3    39  U39        -0.3307
    793  C3'       12.3610  -27.7050   10.5700 C.3    39  U39         0.1860
    794  O3'       12.2510  -28.4290    9.3550 O.3    39  U39        -0.3112
    795  C2'       13.2210  -28.3770   11.6290 C.3    39  U39         0.2309
    796  O2'       14.4000  -28.9160   11.0500 O.3    39  U39        -0.2156
    797  C1'       13.6120  -27.1830   12.4960 C.3    39  U39         0.2420
    798  N1        12.6440  -26.9060   13.5870 N.ar   39  U39        -0.2534
    799  C2        12.2910  -27.8670   14.5240 C.ar   39  U39         0.3546
    800  O2        12.7070  -29.0140   14.5350 O.2    39  U39        -0.2443
    801  N3        11.3910  -27.4360   15.4700 N.ar   39  U39        -0.1530
    802  C4        10.8270  -26.1810   15.5960 C.ar   39  U39         0.2846
    803  O4        10.0330  -25.9540   16.5100 O.2    39  U39        -0.2650
    804  C5        11.2480  -25.2430   14.6080 C.ar   39  U39         0.0814
    805  C6        12.1190  -25.6340   13.6730 C.ar   39  U39         0.0870
    806  OP1       12.5190  -21.8920    8.3910 O.2    39  U39        -0.5172
    807  OP2       10.4770  -23.4210    8.6890 O.co2  39  U39        -0.4373
    808  P         10.8680  -28.4440    8.5320 P.3    40  C40         0.2141
    809  C5'       10.1200  -30.3990   10.1080 C.3    40  C40         0.1812
    810  O5'        9.8400  -29.1280    9.5370 O.3    40  C40        -0.3114
    811  C4'        9.3840  -30.5920   11.4070 C.3    40  C40         0.1773
    812  O4'        9.8380  -29.6140   12.3780 O.3    40  C40        -0.3307
    813  C3'        7.8790  -30.3840   11.3470 C.3    40  C40         0.1860
    814  O3'        7.1890  -31.5270   10.8710 O.3    40  C40        -0.3112
    815  C2'        7.5300  -30.0220   12.7860 C.3    40  C40         0.2309
    816  O2'        7.4390  -31.1880   13.5890 O.3    40  C40        -0.2156
    817  C1'        8.7680  -29.2330   13.2160 C.3    40  C40         0.2420
    818  N1         8.5740  -27.7690   13.1050 N.ar   40  C40        -0.2535
    819  C2         7.8520  -27.1120   14.1030 C.ar   40  C40         0.3532
    820  O2         7.3900  -27.7710   15.0460 O.2    40  C40        -0.2443
    821  N3         7.6720  -25.7750   14.0160 N.ar   40  C40        -0.1739
    822  C4         8.1810  -25.0990   12.9880 C.ar   40  C40         0.1759
    823  N4         7.9770  -23.7800   12.9470 N.pl3  40  C40        -0.1070
    824  C5         8.9240  -25.7440   11.9570 C.ar   40  C40         0.0566
    825  C6         9.0960  -27.0670   12.0560 C.ar   40  C40         0.0850
    826  OP1       11.0610  -29.3720    7.3900 O.2    40  C40        -0.5172
    827  OP2       10.3950  -27.0590    8.2570 O.co2  40  C40        -0.4373
    828  P          6.5030  -31.5280    9.4170 P.3    41  A41         0.2141
    829  C5'        4.5150  -30.0920   10.3510 C.3    41  A41         0.1812
    830  O5'        5.5810  -30.2280    9.4180 O.3    41  A41        -0.3114
    831  C4'        3.6580  -28.8870   10.0580 C.3    41  A41         0.1773
    832  O4'        4.3750  -27.6700   10.4160 O.3    41  A41        -0.3307
    833  C3'        3.2380  -28.7200    8.5950 C.3    41  A41         0.1860
    834  O3'        1.9100  -28.2090    8.5410 O.3    41  A41        -0.3112
    835  C2'        4.2000  -27.6530    8.0880 C.3    41  A41         0.2309
    836  O2'        3.7330  -26.9150    6.9790 O.3    41  A41        -0.2156
    837  C1'        4.3460  -26.7770    9.3240 C.3    41  A41         0.2408
    838  N1         6.3130  -22.2050   10.5510 N.ar   41  A41        -0.2040
    839  C2         5.0880  -22.7260   10.6910 C.ar   41  A41         0.2016
    840  N3         4.6440  -23.9340   10.3480 N.ar   41  A41        -0.2048
    841  C4         5.6300  -24.6610    9.7940 C.ar   41  A41         0.1692
    842  C5         6.9370  -24.2660    9.5780 C.ar   41  A41         0.1518
    843  C6         7.2770  -22.9650    9.9850 C.ar   41  A41         0.1919
    844  N6         8.4990  -22.4460    9.8430 N.pl3  41  A41        -0.1054
    845  N7         7.6690  -25.2830    8.9760 N.ar   41  A41        -0.2193
    846  C8         6.8000  -26.2560    8.8460 C.ar   41  A41         0.1816
    847  N9         5.5520  -25.9480    9.3290 N.ar   41  A41        -0.2693
    848  OP1        5.6190  -32.7190    9.3550 O.3    41  A41        -0.4373
    849  OP2        7.5550  -31.3410    8.3850 O.co2  41  A41        -0.5172
    850  P          0.7940  -28.9670    7.6740 P.3    42  A42         0.2141
    851  C5'        0.7400  -27.4250    5.5510 C.3    42  A42         0.1812
    852  O5'        1.1780  -28.6280    6.1640 O.3    42  A42        -0.3114
    853  C4'        0.0170  -27.7000    4.2560 C.3    42  A42         0.1773
    854  O4'       -0.8730  -26.5970    3.9470 O.3    42  A42        -0.3307
    855  C3'        0.8830  -27.8380    3.0110 C.3    42  A42         0.1860
    856  O3'        1.4740  -29.1220    2.8900 O.3    42  A42        -0.3112
    857  C2'       -0.0940  -27.5040    1.8890 C.3    42  A42         0.2309
    858  O2'       -0.9190  -28.6210    1.5930 O.3    42  A42        -0.2156
    859  C1'       -0.9570  -26.4230    2.5480 C.3    42  A42         0.2408
    860  N1         2.5720  -23.0050    0.6060 N.ar   42  A42        -0.2040
    861  C2         2.6160  -24.3390    0.6990 C.ar   42  A42         0.2016
    862  N3         1.7100  -25.1770    1.1970 N.ar   42  A42        -0.2048
    863  C4         0.6160  -24.5290    1.6490 C.ar   42  A42         0.1692
    864  C5         0.4320  -23.1520    1.6060 C.ar   42  A42         0.1518
    865  C6         1.4670  -22.3720    1.0600 C.ar   42  A42         0.1919
    866  N6         1.4080  -21.0420    0.9680 N.pl3  42  A42        -0.1054
    867  N7        -0.7930  -22.7930    2.1440 N.ar   42  A42        -0.2193
    868  C8        -1.3210  -23.9380    2.4910 C.ar   42  A42         0.1816
    869  N9        -0.5420  -25.0380    2.2210 N.ar   42  A42        -0.2693
    870  OP1       -0.5130  -28.3360    7.9890 O.3    42  A42        -0.4373
    871  OP2        0.9760  -30.4290    7.8650 O.co2  42  A42        -0.5172
    872  P          2.5950  -29.4040    1.7700 P.3    43  U43         0.2141
    873  C5'        4.2700  -29.2060    3.7800 C.3    43  U43         0.1812
    874  O5'        3.8600  -29.8930    2.6030 O.3    43  U43        -0.3114
    875  C4'        5.7710  -29.0650    3.8500 C.3    43  U43         0.1773
    876  O4'        6.3860  -30.2250    3.2290 O.3    43  U43        -0.3307
    877  C3'        6.3450  -27.8420    3.1380 C.3    43  U43         0.1860
    878  O3'        7.4810  -27.3590    3.8560 O.3    43  U43        -0.3112
    879  C2'        6.7930  -28.4110    1.7930 C.3    43  U43         0.2309
    880  O2'        7.8280  -27.6840    1.1660 O.3    43  U43        -0.2156
    881  C1'        7.2470  -29.8150    2.1850 C.3    43  U43         0.2420
    882  N1         7.1450  -30.7980    1.0970 N.ar   43  U43        -0.2534
    883  C2         8.3120  -31.3530    0.6110 C.ar   43  U43         0.3546
    884  O2         9.4130  -31.0590    1.0430 O.2    43  U43        -0.2443
    885  N3         8.1440  -32.2660   -0.4020 N.ar   43  U43        -0.1530
    886  C4         6.9510  -32.6720   -0.9660 C.ar   43  U43         0.2846
    887  O4         6.9600  -33.5050   -1.8750 O.2    43  U43        -0.2650
    888  C5         5.7880  -32.0520   -0.4070 C.ar   43  U43         0.0814
    889  C6         5.9220  -31.1600    0.5800 C.ar   43  U43         0.0870
    890  OP1        2.9580  -28.1240    1.1110 O.3    43  U43        -0.4373
    891  OP2        2.1360  -30.5530    0.9500 O.co2  43  U43        -0.5172
    892  P          7.3030  -26.2320    4.9900 P.3    44  U44         0.2141
    893  C5'        7.9950  -24.2820    3.3790 C.3    44  U44         0.1812
    894  O5'        6.9960  -24.9010    4.1720 O.3    44  U44        -0.3114
    895  C4'        7.6350  -22.8510    3.0740 C.3    44  U44         0.1773
    896  O4'        6.3670  -22.8070    2.3700 O.3    44  U44        -0.3307
    897  C3'        7.4210  -21.9590    4.2840 C.3    44  U44         0.1860
    898  O3'        8.6360  -21.4630    4.8220 O.3    44  U44        -0.3112
    899  C2'        6.5010  -20.8720    3.7450 C.3    44  U44         0.2309
    900  O2'        7.2400  -19.9050    3.0140 O.3    44  U44        -0.2156
    901  C1'        5.6350  -21.6640    2.7620 C.3    44  U44         0.2420
    902  N1         4.3500  -22.1040    3.3580 N.ar   44  U44        -0.2534
    903  C2         3.4010  -21.1510    3.6910 C.ar   44  U44         0.3546
    904  O2         3.5620  -19.9520    3.5340 O.2    44  U44        -0.2443
    905  N3         2.2420  -21.6510    4.2300 N.ar   44  U44        -0.1530
    906  C4         1.9310  -22.9740    4.4610 C.ar   44  U44         0.2846
    907  O4         0.8380  -23.2630    4.9530 O.2    44  U44        -0.2650
    908  C5         2.9530  -23.8980    4.0830 C.ar   44  U44         0.0814
    909  C6         4.0950  -23.4420    3.5590 C.ar   44  U44         0.0870
    910  OP1        8.6060  -26.0670    5.6840 O.2    44  U44        -0.5172
    911  OP2        6.0850  -26.5450    5.7780 O.co2  44  U44        -0.4373
    912  P          8.9940  -21.7080    6.3680 P.3    45  C45         0.2141
    913  C5'        7.8570  -19.3760    6.7570 C.3    45  C45         0.1812
    914  O5'        7.9920  -20.7380    7.1410 O.3    45  C45        -0.3114
    915  C4'        6.5540  -18.7860    7.2390 C.3    45  C45         0.1773
    916  O4'        5.4450  -19.4140    6.5540 O.3    45  C45        -0.3307
    917  C3'        6.2440  -18.9740    8.7180 C.3    45  C45         0.1860
    918  O3'        6.8580  -17.9820    9.5210 O.3    45  C45        -0.3112
    919  C2'        4.7210  -18.9050    8.7650 C.3    45  C45         0.2309
    920  O2'        4.2810  -17.5560    8.8200 O.3    45  C45        -0.2156
    921  C1'        4.3240  -19.4900    7.4080 C.3    45  C45         0.2420
    922  N1         3.8780  -20.8980    7.4890 N.ar   45  C45        -0.2535
    923  C2         2.6060  -21.1760    7.9960 C.ar   45  C45         0.3532
    924  O2         1.8900  -20.2410    8.3850 O.2    45  C45        -0.2443
    925  N3         2.1870  -22.4590    8.0580 N.ar   45  C45        -0.1739
    926  C4         2.9810  -23.4410    7.6320 C.ar   45  C45         0.1759
    927  N4         2.5200  -24.6890    7.7140 N.pl3  45  C45        -0.1070
    928  C5         4.2790  -23.1870    7.1050 C.ar   45  C45         0.0566
    929  C6         4.6810  -21.9120    7.0470 C.ar   45  C45         0.0850
    930  OP1       10.3890  -21.2430    6.6130 O.2    45  C45        -0.5172
    931  OP2        8.6290  -23.1160    6.6940 O.co2  45  C45        -0.4373
    932  P          8.1730  -18.3040   10.3860 P.3    46  G46         0.2141
    933  C5'        6.7070  -19.2020   12.3620 C.3    46  G46         0.1812
    934  O5'        7.7080  -19.4510   11.3880 O.3    46  G46        -0.3114
    935  C4'        6.7050  -20.2580   13.4370 C.3    46  G46         0.1773
    936  O4'        7.9420  -20.1960   14.1930 O.3    46  G46        -0.3307
    937  C3'        5.6180  -20.1170   14.4890 C.3    46  G46         0.1860
    938  O3'        4.3750  -20.6440   14.0590 O.3    46  G46        -0.3112
    939  C2'        6.2150  -20.8450   15.6860 C.3    46  G46         0.2309
    940  O2'        6.0920  -22.2510   15.5280 O.3    46  G46        -0.2156
    941  C1'        7.6940  -20.4820   15.5530 C.3    46  G46         0.2408
    942  N1         7.9080  -18.1550   20.1450 N.ar   46  G46        -0.1709
    943  C2         7.4120  -19.3980   19.8410 C.ar   46  G46         0.2606
    944  N2         6.9200  -20.0960   20.8760 N.pl3  46  G46        -0.0859
    945  N3         7.4000  -19.9140   18.6180 N.ar   46  G46        -0.1918
    946  C4         7.9340  -19.0740   17.7030 C.ar   46  G46         0.1723
    947  C5         8.4530  -17.8110   17.9150 C.ar   46  G46         0.1748
    948  C6         8.4610  -17.2720   19.2280 C.ar   46  G46         0.3023
    949  O6         8.8810  -16.1720   19.6090 O.2    46  G46        -0.2633
    950  N7         8.9070  -17.2550   16.7290 N.ar   46  G46        -0.2173
    951  C8         8.6630  -18.1680   15.8320 C.ar   46  G46         0.1817
    952  N9         8.0660  -19.2930   16.3460 N.ar   46  G46        -0.2693
    953  OP1        8.4570  -17.0850   11.1850 O.3    46  G46        -0.4373
    954  OP2        9.2290  -18.8540    9.4980 O.co2  46  G46        -0.5172
    955  P          3.0500  -19.7340   14.0930 P.3    47  U47         0.2141
    956  C5'        2.3620  -21.0560   16.2410 C.3    47  U47         0.1812
    957  O5'        2.5860  -19.8040   15.6130 O.3    47  U47        -0.3114
    958  C4'        2.0750  -20.8890   17.7090 C.3    47  U47         0.1773
    959  O4'        3.3060  -20.6200   18.4280 O.3    47  U47        -0.3307
    960  C3'        1.1750  -19.7210   18.0740 C.3    47  U47         0.1860
    961  O3'       -0.1990  -19.9990   17.8740 O.3    47  U47        -0.3112
    962  C2'        1.5500  -19.4580   19.5260 C.3    47  U47         0.2309
    963  O2'        0.9320  -20.4080   20.3800 O.3    47  U47        -0.2156
    964  C1'        3.0530  -19.7400   19.5020 C.3    47  U47         0.2420
    965  N1         3.8530  -18.5080   19.3040 N.ar   47  U47        -0.2534
    966  C2         4.1850  -17.7720   20.4250 C.ar   47  U47         0.3546
    967  O2         3.8470  -18.0910   21.5520 O.2    47  U47        -0.2443
    968  N3         4.9290  -16.6450   20.1810 N.ar   47  U47        -0.1530
    969  C4         5.3650  -16.1860   18.9560 C.ar   47  U47         0.2846
    970  O4         6.0290  -15.1490   18.9010 O.2    47  U47        -0.2650
    971  C5         4.9820  -17.0020   17.8450 C.ar   47  U47         0.0814
    972  C6         4.2590  -18.1060   18.0530 C.ar   47  U47         0.0870
    973  OP1        2.0130  -20.4160   13.2780 O.2    47  U47        -0.5172
    974  OP2        3.4240  -18.3280   13.7900 O.co2  47  U47        -0.4373
    975  P         -1.2570  -18.7940   17.7840 P.3    48  G48         0.2141
    976  C5'       -1.7670  -17.0350   19.6440 C.3    48  G48         0.1812
    977  O5'       -1.4820  -18.3790   19.3020 O.3    48  G48        -0.3114
    978  C4'       -1.4300  -16.7410   21.0820 C.3    48  G48         0.1773
    979  O4'       -0.0200  -16.9950   21.3240 O.3    48  G48        -0.3307
    980  C3'       -1.6210  -15.2950   21.5010 C.3    48  G48         0.1860
    981  O3'       -2.9680  -14.9860   21.8010 O.3    48  G48        -0.3112
    982  C2'       -0.6680  -15.1600   22.6770 C.3    48  G48         0.2309
    983  O2'       -1.2180  -15.7630   23.8390 O.3    48  G48        -0.2156
    984  C1'        0.5030  -16.0160   22.2000 C.3    48  G48         0.2408
    985  N1         3.9280  -12.2020   22.2470 N.ar   48  G48        -0.1709
    986  C2         3.1350  -12.6610   23.2700 C.ar   48  G48         0.2606
    987  N2         3.2700  -12.0310   24.4470 N.pl3  48  G48        -0.0859
    988  N3         2.2760  -13.6620   23.1510 N.ar   48  G48        -0.1918
    989  C4         2.2710  -14.1790   21.9030 C.ar   48  G48         0.1723
    990  C5         3.0240  -13.7880   20.8140 C.ar   48  G48         0.1748
    991  C6         3.9410  -12.7170   20.9550 C.ar   48  G48         0.3023
    992  O6         4.6940  -12.2330   20.1010 O.2    48  G48        -0.2633
    993  N7         2.7330  -14.5660   19.7040 N.ar   48  G48        -0.2173
    994  C8         1.8240  -15.3990   20.1270 C.ar   48  G48         0.1817
    995  N9         1.4950  -15.2230   21.4490 N.ar   48  G48        -0.2693
    996  OP1       -2.5310  -19.3420   17.2550 O.3    48  G48        -0.4373
    997  OP2       -0.6120  -17.6390   17.1080 O.co2  48  G48        -0.5172
    998  P         -3.7450  -13.9040   20.9080 P.3    49  A49         0.2141
    999  C5'       -3.5540  -12.4180   23.0480 C.3    49  A49         0.1812
   1000  O5'       -3.4250  -12.5260   21.6400 O.3    49  A49        -0.3114
   1001  C4'       -2.6700  -11.3350   23.6130 C.3    49  A49         0.1773
   1002  O4'       -1.2740  -11.7160   23.5100 O.3    49  A49        -0.3307
   1003  C3'       -2.7240   -9.9880   22.9160 C.3    49  A49         0.1860
   1004  O3'       -3.8710   -9.2270   23.2470 O.3    49  A49        -0.3112
   1005  C2'       -1.4120   -9.3490   23.3490 C.3    49  A49         0.2309
   1006  O2'       -1.5060   -8.8680   24.6820 O.3    49  A49        -0.2156
   1007  C1'       -0.4770  -10.5600   23.3390 C.3    49  A49         0.2408
   1008  N1         3.3980   -8.6810   20.5310 N.ar   49  A49        -0.2040
   1009  C2         2.9260   -8.3670   21.7440 C.ar   49  A49         0.2016
   1010  N3         1.9080   -8.9040   22.4130 N.ar   49  A49        -0.2048
   1011  C4         1.3340   -9.8870   21.6990 C.ar   49  A49         0.1692
   1012  C5         1.7050  -10.3240   20.4410 C.ar   49  A49         0.1518
   1013  C6         2.7980   -9.6750   19.8390 C.ar   49  A49         0.1919
   1014  N6         3.2740   -9.9840   18.6310 N.pl3  49  A49        -0.1054
   1015  N7         0.8820  -11.3610   20.0200 N.ar   49  A49        -0.2193
   1016  C8         0.0450  -11.5230   21.0170 C.ar   49  A49         0.1816
   1017  N9         0.2630  -10.6660   22.0670 N.ar   49  A49        -0.2693
   1018  OP1       -5.2030  -14.1720   21.0130 O.3    49  A49        -0.4373
   1019  OP2       -3.1000  -13.8780   19.5700 O.co2  49  A49        -0.5172
   1020  P         -4.5270   -8.2610   22.1440 P.3    50  G50         0.2141
   1021  C5'       -3.3300   -6.2640   23.3480 C.3    50  G50         0.1812
   1022  O5'       -3.5790   -6.9800   22.1470 O.3    50  G50        -0.3114
   1023  C4'       -2.1850   -5.2940   23.1940 C.3    50  G50         0.1773
   1024  O4'       -0.9370   -6.0120   23.0120 O.3    50  G50        -0.3307
   1025  C3'       -2.2450   -4.3700   21.9900 C.3    50  G50         0.1860
   1026  O3'       -3.1300   -3.2780   22.1620 O.3    50  G50        -0.3112
   1027  C2'       -0.7870   -3.9630   21.8210 C.3    50  G50         0.2309
   1028  O2'       -0.4240   -2.9830   22.7820 O.3    50  G50        -0.2156
   1029  C1'       -0.0750   -5.2690   22.1720 C.3    50  G50         0.2408
   1030  N1         3.0350   -5.8680   18.1940 N.ar   50  G50        -0.1709
   1031  C2         3.0760   -4.9410   19.2070 C.ar   50  G50         0.2606
   1032  N2         4.0790   -4.0530   19.1570 N.pl3  50  G50        -0.0859
   1033  N3         2.2000   -4.8880   20.1970 N.ar   50  G50        -0.1918
   1034  C4         1.2610   -5.8520   20.0920 C.ar   50  G50         0.1723
   1035  C5         1.1310   -6.8240   19.1240 C.ar   50  G50         0.1748
   1036  C6         2.0780   -6.8710   18.0670 C.ar   50  G50         0.3023
   1037  O6         2.1310   -7.6570   17.1130 O.2    50  G50        -0.2633
   1038  N7         0.0280   -7.6280   19.3790 N.ar   50  G50        -0.2173
   1039  C8        -0.4830   -7.1390   20.4770 C.ar   50  G50         0.1817
   1040  N9         0.2200   -6.0640   20.9650 N.ar   50  G50        -0.2693
   1041  OP1       -5.8720   -7.8530   22.6230 O.3    50  G50        -0.4373
   1042  OP2       -4.3870   -8.9260   20.8230 O.co2  50  G50        -0.5172
   1043  P         -3.9870   -2.7480   20.9110 P.3    51  G51         0.2141
   1044  C5'       -2.1320   -0.9460   20.4940 C.3    51  G51         0.1812
   1045  O5'       -2.9090   -2.0230   19.9900 O.3    51  G51        -0.3114
   1046  C4'       -1.0620   -0.5290   19.5180 C.3    51  G51         0.1773
   1047  O4'       -0.0500   -1.5630   19.4100 O.3    51  G51        -0.3307
   1048  C3'       -1.5170   -0.3160   18.0850 C.3    51  G51         0.1860
   1049  O3'       -2.1580    0.9300   17.8870 O.3    51  G51        -0.3112
   1050  C2'       -0.2230   -0.4820   17.3020 C.3    51  G51         0.2309
   1051  O2'        0.5760    0.6890   17.3950 O.3    51  G51        -0.2156
   1052  C1'        0.4610   -1.5980   18.0930 C.3    51  G51         0.2408
   1053  N1         1.7290   -4.9700   14.5070 N.ar   51  G51        -0.1709
   1054  C2         2.2590   -3.7300   14.7670 C.ar   51  G51         0.2606
   1055  N2         3.2600   -3.3310   13.9670 N.pl3  51  G51        -0.0859
   1056  N3         1.8390   -2.9390   15.7400 N.ar   51  G51        -0.1918
   1057  C4         0.8310   -3.4950   16.4430 C.ar   51  G51         0.1723
   1058  C5         0.2320   -4.7230   16.2650 C.ar   51  G51         0.1748
   1059  C6         0.6920   -5.5630   15.2180 C.ar   51  G51         0.3023
   1060  O6         0.2890   -6.6880   14.8990 O.2    51  G51        -0.2633
   1061  N7        -0.7720   -4.9220   17.2030 N.ar   51  G51        -0.2173
   1062  C8        -0.7650   -3.8310   17.9210 C.ar   51  G51         0.1817
   1063  N9         0.1850   -2.9260   17.5140 N.ar   51  G51        -0.2693
   1064  OP1       -4.9440   -1.7230   21.4000 O.3    51  G51        -0.4373
   1065  OP2       -4.4930   -3.9350   20.1750 O.co2  51  G51        -0.5172
   1066  P         -3.5900    0.9830   17.1610 P.3    52  A52         0.2141
   1067  C5'       -4.0320    0.4400   14.6300 C.3    52  A52         0.1812
   1068  O5'       -3.2220    1.0650   15.6140 O.3    52  A52        -0.3114
   1069  C4'       -3.5480    0.7790   13.2440 C.3    52  A52         0.1773
   1070  O4'       -3.2990    2.2070   13.1670 O.3    52  A52        -0.3307
   1071  C3'       -2.2260    0.1460   12.8300 C.3    52  A52         0.1860
   1072  O3'       -2.3760   -1.1750   12.3330 O.3    52  A52        -0.3112
   1073  C2'       -1.6930    1.1270   11.7950 C.3    52  A52         0.2309
   1074  O2'       -2.3350    0.9340   10.5440 O.3    52  A52        -0.2156
   1075  C1'       -2.1610    2.4610   12.3740 C.3    52  A52         0.2408
   1076  N1         2.3950    4.8900   12.5220 N.ar   52  A52        -0.2040
   1077  C2         1.6740    4.3920   11.5090 C.ar   52  A52         0.2016
   1078  N3         0.4970    3.7710   11.5390 N.ar   52  A52        -0.2048
   1079  C4         0.0410    3.6740   12.8000 C.ar   52  A52         0.1692
   1080  C5         0.6690    4.1370   13.9440 C.ar   52  A52         0.1518
   1081  C6         1.9100    4.7770   13.7780 C.ar   52  A52         0.1919
   1082  N6         2.6290    5.2740   14.7880 N.pl3  52  A52        -0.1054
   1083  N7        -0.0960    3.8610   15.0690 N.ar   52  A52        -0.2193
   1084  C8        -1.1500    3.2460   14.5880 C.ar   52  A52         0.1816
   1085  N9        -1.1330    3.0960   13.2230 N.ar   52  A52        -0.2693
   1086  OP1       -4.2560    2.2500   17.5610 O.3    52  A52        -0.4373
   1087  OP2       -4.2760   -0.3140   17.3980 O.co2  52  A52        -0.5172
   1088  P         -1.3400   -2.3300   12.7590 P.3    53  A53         0.2141
   1089  C5'        0.1300   -1.9400   10.6170 C.3    53  A53         0.1812
   1090  O5'        0.0200   -1.9250   12.0340 O.3    53  A53        -0.3114
   1091  C4'        1.2900   -1.0960   10.1520 C.3    53  A53         0.1773
   1092  O4'        1.1550    0.2430   10.6960 O.3    53  A53        -0.3307
   1093  C3'        2.6670   -1.5530   10.6120 C.3    53  A53         0.1860
   1094  O3'        3.2150   -2.5630    9.7820 O.3    53  A53        -0.3112
   1095  C2'        3.4720   -0.2590   10.6090 C.3    53  A53         0.2309
   1096  O2'        3.8850    0.0740    9.2920 O.3    53  A53        -0.2156
   1097  C1'        2.4200    0.7530   11.0550 C.3    53  A53         0.2408
   1098  N1         4.6950    3.1240   15.0330 N.ar   53  A53        -0.2040
   1099  C2         4.9460    3.1340   13.7170 C.ar   53  A53         0.2016
   1100  N3         4.3170    2.4940   12.7340 N.ar   53  A53        -0.2048
   1101  C4         3.3030    1.7590   13.2210 C.ar   53  A53         0.1692
   1102  C5         2.9200    1.6470   14.5460 C.ar   53  A53         0.1518
   1103  C6         3.6660    2.3750   15.4890 C.ar   53  A53         0.1919
   1104  N6         3.4150    2.3640   16.8010 N.pl3  53  A53        -0.1054
   1105  N7         1.8280    0.8000   14.6730 N.ar   53  A53        -0.2193
   1106  C8         1.5780    0.4250   13.4430 C.ar   53  A53         0.1816
   1107  N9         2.4330    0.9660   12.5140 N.ar   53  A53        -0.2693
   1108  OP1       -1.8050   -3.6110   12.1680 O.2    53  A53        -0.5172
   1109  OP2       -1.1270   -2.2340   14.2260 O.co2  53  A53        -0.4373
   1110  P          4.1990   -3.6770   10.3940 P.3    54  A54         0.2141
   1111  C5'        6.2950   -2.3500    9.5330 C.3    54  A54         0.1812
   1112  O5'        5.5710   -2.8980   10.6250 O.3    54  A54        -0.3114
   1113  C4'        7.3380   -1.3680   10.0010 C.3    54  A54         0.1773
   1114  O4'        6.6930   -0.2680   10.6960 O.3    54  A54        -0.3307
   1115  C3'        8.3470   -1.9010   11.0070 C.3    54  A54         0.1860
   1116  O3'        9.4080   -2.6220   10.4060 O.3    54  A54        -0.3112
   1117  C2'        8.7940   -0.6400   11.7330 C.3    54  A54         0.2309
   1118  O2'        9.7240    0.0900   10.9460 O.3    54  A54        -0.2156
   1119  C1'        7.4860    0.1470   11.7880 C.3    54  A54         0.2408
   1120  N1         6.9140    1.2710   16.7900 N.ar   54  A54        -0.2040
   1121  C2         7.7570    1.7320   15.8550 C.ar   54  A54         0.2016
   1122  N3         7.8540    1.3970   14.5700 N.ar   54  A54        -0.2048
   1123  C4         6.9430    0.4610   14.2550 C.ar   54  A54         0.1692
   1124  C5         6.0080   -0.1080   15.1030 C.ar   54  A54         0.1518
   1125  C6         6.0100    0.3300   16.4390 C.ar   54  A54         0.1919
   1126  N6         5.1680   -0.1300   17.3680 N.pl3  54  A54        -0.1054
   1127  N7         5.2320   -1.0390   14.4270 N.ar   54  A54        -0.2193
   1128  C8         5.7040   -1.0110   13.2050 C.ar   54  A54         0.1816
   1129  N9         6.7380   -0.1240   13.0290 N.ar   54  A54        -0.2693
   1130  OP1        4.4260   -4.7070    9.3480 O.2    54  A54        -0.5172
   1131  OP2        3.6670   -4.0840   11.7190 O.co2  54  A54        -0.4373
   1132  P         10.1090   -3.8290   11.2020 P.3    55  C55         0.2141
   1133  C5'       10.8740   -3.8150   13.7130 C.3    55  C55         0.1812
   1134  O5'       10.7430   -3.1210   12.4810 O.3    55  C55        -0.3114
   1135  C4'       10.2540   -3.0390   14.8470 C.3    55  C55         0.1773
   1136  O4'        8.8600   -2.7670   14.5480 O.3    55  C55        -0.3307
   1137  C3'       10.2140   -3.7440   16.1940 C.3    55  C55         0.1860
   1138  O3'       11.4380   -3.6510   16.9010 O.3    55  C55        -0.3112
   1139  C2'        9.0530   -3.0550   16.8990 C.3    55  C55         0.2309
   1140  O2'        9.4590   -1.8010   17.4260 O.3    55  C55        -0.2156
   1141  C1'        8.0960   -2.8020   15.7330 C.3    55  C55         0.2420
   1142  N1         7.0670   -3.8610   15.6020 N.ar   55  C55        -0.2535
   1143  C2         6.0090   -3.9140   16.5160 C.ar   55  C55         0.3532
   1144  O2         5.9530   -3.0780   17.4300 O.2    55  C55        -0.2443
   1145  N3         5.0700   -4.8800   16.3850 N.ar   55  C55        -0.1739
   1146  C4         5.1550   -5.7650   15.3900 C.ar   55  C55         0.1759
   1147  N4         4.2070   -6.7000   15.3000 N.pl3  55  C55        -0.1070
   1148  C5         6.2170   -5.7310   14.4420 C.ar   55  C55         0.0566
   1149  C6         7.1390   -4.7710   14.5840 C.ar   55  C55         0.0850
   1150  OP1       11.2210   -4.3540   10.3680 O.2    55  C55        -0.5172
   1151  OP2        9.0400   -4.7520   11.6630 O.co2  55  C55        -0.4373
   1152  P         11.8810   -4.8250   17.9040 P.3    56  U56         0.2141
   1153  C5'       10.9160   -3.5170   19.9670 C.3    56  U56         0.1812
   1154  O5'       10.8880   -4.6730   19.1420 O.3    56  U56        -0.3114
   1155  C4'        9.8610   -3.5810   21.0420 C.3    56  U56         0.1773
   1156  O4'        8.5410   -3.5570   20.4380 O.3    56  U56        -0.3307
   1157  C3'        9.8550   -4.8440   21.8890 C.3    56  U56         0.1860
   1158  O3'       10.8210   -4.8230   22.9250 O.3    56  U56        -0.3112
   1159  C2'        8.4190   -4.9050   22.3920 C.3    56  U56         0.2309
   1160  O2'        8.2290   -4.0130   23.4810 O.3    56  U56        -0.2156
   1161  C1'        7.6520   -4.3620   21.1850 C.3    56  U56         0.2420
   1162  N1         7.1390   -5.4410   20.3080 N.ar   56  U56        -0.2534
   1163  C2         6.0500   -6.1790   20.7350 C.ar   56  U56         0.3546
   1164  O2         5.4920   -5.9970   21.8040 O.2    56  U56        -0.2443
   1165  N3         5.6340   -7.1530   19.8620 N.ar   56  U56        -0.1530
   1166  C4         6.1750   -7.4580   18.6300 C.ar   56  U56         0.2846
   1167  O4         5.6840   -8.3680   17.9590 O.2    56  U56        -0.2650
   1168  C5         7.2930   -6.6480   18.2570 C.ar   56  U56         0.0814
   1169  C6         7.7220   -5.6920   19.0870 C.ar   56  U56         0.0870
   1170  OP1       13.2580   -4.5350   18.3780 O.3    56  U56        -0.4373
   1171  OP2       11.5900   -6.1210   17.2370 O.co2  56  U56        -0.5172
   1172  P         11.5250   -6.1890   23.3900 P.3    57  C57         0.2141
   1173  C5'        9.9230   -6.2780   25.4630 C.3    57  C57         0.1812
   1174  O5'       10.4200   -6.9030   24.2890 O.3    57  C57        -0.3114
   1175  C4'        8.6800   -6.9620   25.9720 C.3    57  C57         0.1773
   1176  O4'        7.6280   -6.8780   24.9750 O.3    57  C57        -0.3307
   1177  C3'        8.8050   -8.4530   26.2490 C.3    57  C57         0.1860
   1178  O3'        9.4100   -8.7380   27.4990 O.3    57  C57        -0.3112
   1179  C2'        7.3620   -8.9290   26.1420 C.3    57  C57         0.2309
   1180  O2'        6.6380   -8.6060   27.3200 O.3    57  C57        -0.2156
   1181  C1'        6.8420   -8.0520   25.0020 C.3    57  C57         0.2420
   1182  N1         6.9490   -8.7230   23.6850 N.ar   57  C57        -0.2535
   1183  C2         5.9940   -9.6780   23.3200 C.ar   57  C57         0.3532
   1184  O2         5.0760   -9.9470   24.1100 O.2    57  C57        -0.2443
   1185  N3         6.0950  -10.2880   22.1160 N.ar   57  C57        -0.1739
   1186  C4         7.0940   -9.9770   21.2880 C.ar   57  C57         0.1759
   1187  N4         7.1560  -10.6030   20.1100 N.pl3  57  C57        -0.1070
   1188  C5         8.0790   -9.0080   21.6310 C.ar   57  C57         0.0566
   1189  C6         7.9670   -8.4130   22.8250 C.ar   57  C57         0.0850
   1190  OP1       12.6820   -5.8530   24.2610 O.3    57  C57        -0.4373
   1191  OP2       11.7350   -7.0160   22.1730 O.co2  57  C57        -0.5172
   1192  P         10.4060   -9.9910   27.6460 P.3    58  A58         0.2141
   1193  C5'        8.5910  -11.2680   29.0380 C.3    58  A58         0.1812
   1194  O5'        9.4340  -11.2270   27.8970 O.3    58  A58        -0.3114
   1195  C4'        7.5080  -12.3040   28.8850 C.3    58  A58         0.1773
   1196  O4'        6.6290  -11.9370   27.7880 O.3    58  A58        -0.3307
   1197  C3'        7.9750  -13.7040   28.5230 C.3    58  A58         0.1860
   1198  O3'        8.4640  -14.4400   29.6300 O.3    58  A58        -0.3112
   1199  C2'        6.7360  -14.3060   27.8780 C.3    58  A58         0.2309
   1200  O2'        5.7840  -14.6770   28.8650 O.3    58  A58        -0.2156
   1201  C1'        6.1900  -13.1010   27.1150 C.3    58  A58         0.2408
   1202  N1         5.8100  -15.0800   22.3750 N.ar   58  A58        -0.2040
   1203  C2         5.1580  -15.3410   23.5140 C.ar   58  A58         0.2016
   1204  N3         5.3070  -14.7860   24.7150 N.ar   58  A58        -0.2048
   1205  C4         6.2660  -13.8450   24.6870 C.ar   58  A58         0.1692
   1206  C5         7.0240  -13.4640   23.5950 C.ar   58  A58         0.1518
   1207  C6         6.7680  -14.1270   22.3810 C.ar   58  A58         0.1919
   1208  N6         7.4200  -13.8680   21.2440 N.pl3  58  A58        -0.1054
   1209  N7         7.9190  -12.4610   23.9420 N.ar   58  A58        -0.2193
   1210  C8         7.6850  -12.2610   25.2160 C.ar   58  A58         0.1816
   1211  N9         6.6960  -13.0610   25.7310 N.ar   58  A58        -0.2693
   1212  OP1       11.2180   -9.7960   28.8730 O.3    58  A58        -0.4373
   1213  OP2       11.0800  -10.2020   26.3400 O.co2  58  A58        -0.5172
   1214  P          9.7550  -15.3800   29.4520 P.3    59  C59         0.2141
   1215  C5'        8.0480  -17.3630   29.3080 C.3    59  C59         0.1812
   1216  O5'        9.1790  -16.6970   28.7660 O.3    59  C59        -0.3114
   1217  C4'        7.4070  -18.2840   28.3000 C.3    59  C59         0.1773
   1218  O4'        6.8340  -17.5130   27.2110 O.3    59  C59        -0.3307
   1219  C3'        8.3360  -19.2610   27.6020 C.3    59  C59         0.1860
   1220  O3'        8.6570  -20.3880   28.3970 O.3    59  C59        -0.3112
   1221  C2'        7.5640  -19.5970   26.3320 C.3    59  C59         0.2309
   1222  O2'        6.5220  -20.5240   26.6050 O.3    59  C59        -0.2156
   1223  C1'        6.9300  -18.2440   26.0040 C.3    59  C59         0.2420
   1224  N1         7.7450  -17.4690   25.0400 N.ar   59  C59        -0.2535
   1225  C2         7.6130  -17.7360   23.6730 C.ar   59  C59         0.3532
   1226  O2         6.8150  -18.6120   23.3020 O.2    59  C59        -0.2443
   1227  N3         8.3590  -17.0340   22.7870 N.ar   59  C59        -0.1739
   1228  C4         9.2100  -16.1000   23.2180 C.ar   59  C59         0.1759
   1229  N4         9.9220  -15.4320   22.3070 N.pl3  59  C59        -0.1070
   1230  C5         9.3630  -15.8060   24.6030 C.ar   59  C59         0.0566
   1231  C6         8.6190  -16.5070   25.4680 C.ar   59  C59         0.0850
   1232  OP1       10.2640  -15.7410   30.8000 O.3    59  C59        -0.4373
   1233  OP2       10.6550  -14.7230   28.4700 O.co2  59  C59        -0.5172
   1234  P         10.1190  -21.0450   28.3040 P.3    60  C60         0.2141
   1235  C5'        9.1230  -22.9750   26.8470 C.3    60  C60         0.1812
   1236  O5'       10.0600  -21.9190   26.9760 O.3    60  C60        -0.3114
   1237  C4'        9.1630  -23.5840   25.4700 C.3    60  C60         0.1773
   1238  O4'        8.5420  -22.6920   24.5080 O.3    60  C60        -0.3307
   1239  C3'       10.5410  -23.8330   24.8840 C.3    60  C60         0.1860
   1240  O3'       11.1820  -24.9830   25.4060 O.3    60  C60        -0.3112
   1241  C2'       10.2430  -23.9170   23.3940 C.3    60  C60         0.2309
   1242  O2'        9.6670  -25.1740   23.0720 O.3    60  C60        -0.2156
   1243  C1'        9.1650  -22.8430   23.2480 C.3    60  C60         0.2420
   1244  N1         9.7420  -21.5450   22.8280 N.ar   60  C60        -0.2535
   1245  C2        10.0390  -21.3610   21.4740 C.ar   60  C60         0.3532
   1246  O2         9.8010  -22.2800   20.6760 O.2    60  C60        -0.2443
   1247  N3        10.5720  -20.1890   21.0610 N.ar   60  C60        -0.1739
   1248  C4        10.8140  -19.2220   21.9460 C.ar   60  C60         0.1759
   1249  N4        11.3430  -18.0820   21.4970 N.pl3  60  C60        -0.1070
   1250  C5        10.5270  -19.3820   23.3320 C.ar   60  C60         0.0566
   1251  C6         9.9980  -20.5470   23.7280 C.ar   60  C60         0.0850
   1252  OP1       10.2770  -21.9690   29.4550 O.3    60  C60        -0.4373
   1253  OP2       11.1080  -19.9600   28.0800 O.co2  60  C60        -0.5172
   1254  P         12.7870  -25.0390   25.4760 P.3    61  G61         0.2141
   1255  C5'       12.8840  -26.2970   23.1840 C.3    61  G61         0.1812
   1256  O5'       13.2360  -25.1580   23.9540 O.3    61  G61        -0.3114
   1257  C4'       13.1580  -26.0890   21.7170 C.3    61  G61         0.1773
   1258  O4'       12.4160  -24.9440   21.2210 O.3    61  G61        -0.3307
   1259  C3'       14.5920  -25.7700   21.3320 C.3    61  G61         0.1860
   1260  O3'       15.4520  -26.8940   21.3370 O.3    61  G61        -0.3112
   1261  C2'       14.4150  -25.1390   19.9590 C.3    61  G61         0.2309
   1262  O2'       14.1340  -26.1390   18.9910 O.3    61  G61        -0.2156
   1263  C1'       13.1430  -24.3220   20.1800 C.3    61  G61         0.2408
   1264  N1        14.8250  -19.8040   18.5480 N.ar   61  G61        -0.1709
   1265  C2        14.6510  -20.9810   17.8620 C.ar   61  G61         0.2606
   1266  N2        14.9670  -20.9600   16.5610 N.pl3  61  G61        -0.0859
   1267  N3        14.2000  -22.0970   18.4090 N.ar   61  G61        -0.1918
   1268  C4        13.9300  -21.9490   19.7230 C.ar   61  G61         0.1723
   1269  C5        14.0690  -20.8200   20.5030 C.ar   61  G61         0.1748
   1270  C6        14.5540  -19.6240   19.9010 C.ar   61  G61         0.3023
   1271  O6        14.7470  -18.5150   20.4140 O.2    61  G61        -0.2633
   1272  N7        13.6820  -21.0860   21.8100 N.ar   61  G61        -0.2173
   1273  C8        13.3240  -22.3440   21.7990 C.ar   61  G61         0.1817
   1274  N9        13.4490  -22.9280   20.5630 N.ar   61  G61        -0.2693
   1275  OP1       13.1720  -26.2960   26.1680 O.3    61  G61        -0.4373
   1276  OP2       13.2770  -23.7310   25.9840 O.co2  61  G61        -0.5172
   1277  P         17.0220  -26.6830   21.5990 P.3    62  G62         0.2141
   1278  C5'       17.5420  -26.9550   19.0470 C.3    62  G62         0.1812
   1279  O5'       17.5740  -26.1410   20.2070 O.3    62  G62        -0.3114
   1280  C4'       18.0910  -26.2310   17.8430 C.3    62  G62         0.1773
   1281  O4'       17.2690  -25.0750   17.5450 O.3    62  G62        -0.3307
   1282  C3'       19.4890  -25.6530   17.9850 C.3    62  G62         0.1860
   1283  O3'       20.5120  -26.6180   17.8220 O.3    62  G62        -0.3112
   1284  C2'       19.5020  -24.5650   16.9190 C.3    62  G62         0.2309
   1285  O2'       19.6950  -25.1280   15.6300 O.3    62  G62        -0.2156
   1286  C1'       18.0690  -24.0450   17.0030 C.3    62  G62         0.2408
   1287  N1        19.0260  -19.0670   17.4000 N.ar   62  G62        -0.1709
   1288  C2        19.3030  -19.9370   16.3730 C.ar   62  G62         0.2606
   1289  N2        19.9170  -19.4140   15.3010 N.pl3  62  G62        -0.0859
   1290  N3        19.0010  -21.2250   16.3910 N.ar   62  G62        -0.1918
   1291  C4        18.3900  -21.5830   17.5370 C.ar   62  G62         0.1723
   1292  C5        18.0670  -20.7970   18.6220 C.ar   62  G62         0.1748
   1293  C6        18.3950  -19.4160   18.5900 C.ar   62  G62         0.3023
   1294  O6        18.1910  -18.5540   19.4550 O.2    62  G62        -0.2633
   1295  N7        17.4420  -21.5530   19.6040 N.ar   62  G62        -0.2173
   1296  C8        17.3970  -22.7610   19.1090 C.ar   62  G62         0.1817
   1297  N9        17.9570  -22.8480   17.8580 N.ar   62  G62        -0.2693
   1298  OP1       17.6430  -28.0070   21.8580 O.2    62  G62        -0.5172
   1299  OP2       17.1650  -25.5870   22.5920 O.co2  62  G62        -0.4373
   1300  P         21.9100  -26.4400   18.5930 P.3    63  C63         0.2141
   1301  C5'       22.9800  -25.3160   16.4740 C.3    63  C63         0.1812
   1302  O5'       22.6160  -25.2250   17.8440 O.3    63  C63        -0.3114
   1303  C4'       23.3590  -23.9660   15.9230 C.3    63  C63         0.1773
   1304  O4'       22.2440  -23.0510   16.0740 O.3    63  C63        -0.3307
   1305  C3'       24.5080  -23.2690   16.6340 C.3    63  C63         0.1860
   1306  O3'       25.7770  -23.7130   16.1950 O.3    63  C63        -0.3112
   1307  C2'       24.2400  -21.7960   16.3470 C.3    63  C63         0.2309
   1308  O2'       24.6780  -21.4500   15.0420 O.3    63  C63        -0.2156
   1309  C1'       22.7140  -21.7550   16.3740 C.3    63  C63         0.2420
   1310  N1        22.1830  -21.3540   17.6970 N.ar   63  C63        -0.2535
   1311  C2        22.1130  -19.9940   18.0090 C.ar   63  C63         0.3532
   1312  O2        22.5030  -19.1640   17.1750 O.2    63  C63        -0.2443
   1313  N3        21.6210  -19.6170   19.2110 N.ar   63  C63        -0.1739
   1314  C4        21.2080  -20.5330   20.0860 C.ar   63  C63         0.1759
   1315  N4        20.7330  -20.1070   21.2590 N.pl3  63  C63        -0.1070
   1316  C5        21.2650  -21.9270   19.7950 C.ar   63  C63         0.0566
   1317  C6        21.7540  -22.2870   18.6010 C.ar   63  C63         0.0850
   1318  OP1       22.7240  -27.6600   18.3680 O.2    63  C63        -0.5172
   1319  OP2       21.6110  -25.9960   19.9790 O.co2  63  C63        -0.4373
   1320  P         27.0130  -23.7300   17.2180 P.3    64  U64         0.2141
   1321  C5'       27.8270  -21.4680   16.1730 C.3    64  U64         0.1812
   1322  O5'       27.4390  -22.2000   17.3270 O.3    64  U64        -0.3114
   1323  C4'       27.9910  -20.0020   16.4820 C.3    64  U64         0.1773
   1324  O4'       26.7020  -19.4170   16.7960 O.3    64  U64        -0.3307
   1325  C3'       28.8490  -19.6770   17.6930 C.3    64  U64         0.1860
   1326  O3'       30.2360  -19.7150   17.4110 O.3    64  U64        -0.3112
   1327  C2'       28.3430  -18.2990   18.1030 C.3    64  U64         0.2309
   1328  O2'       28.9080  -17.2920   17.2770 O.3    64  U64        -0.2156
   1329  C1'       26.8530  -18.4130   17.7770 C.3    64  U64         0.2420
   1330  N1        26.0310  -18.7730   18.9570 N.ar   64  U64        -0.2534
   1331  C2        25.7010  -17.7770   19.8570 C.ar   64  U64         0.3546
   1332  O2        26.0680  -16.6210   19.7280 O.2    64  U64        -0.2443
   1333  N3        24.9260  -18.1820   20.9180 N.ar   64  U64        -0.1530
   1334  C4        24.4540  -19.4570   21.1600 C.ar   64  U64         0.2846
   1335  O4        23.7670  -19.6750   22.1590 O.2    64  U64        -0.2650
   1336  C5        24.8360  -20.4290   20.1850 C.ar   64  U64         0.0814
   1337  C6        25.5890  -20.0610   19.1430 C.ar   64  U64         0.0870
   1338  OP1       28.1270  -24.4820   16.5850 O.2    64  U64        -0.5172
   1339  OP2       26.4910  -24.1580   18.5420 O.co2  64  U64        -0.4373
   1340  P         31.2600  -20.2710   18.5140 P.3    65  U65         0.2141
   1341  C5'       31.8480  -17.7960   19.1310 C.3    65  U65         0.1812
   1342  O5'       31.3810  -19.0690   19.5520 O.3    65  U65        -0.3114
   1343  C4'       31.5480  -16.7220   20.1450 C.3    65  U65         0.1773
   1344  O4'       30.1170  -16.5080   20.2370 O.3    65  U65        -0.3307
   1345  C3'       31.9640  -17.0090   21.5790 C.3    65  U65         0.1860
   1346  O3'       33.3460  -16.8090   21.8140 O.3    65  U65        -0.3112
   1347  C2'       31.0650  -16.0700   22.3720 C.3    65  U65         0.2309
   1348  O2'       31.5620  -14.7400   22.3260 O.3    65  U65        -0.2156
   1349  C1'       29.7720  -16.1340   21.5560 C.3    65  U65         0.2420
   1350  N1        28.8270  -17.1300   22.1090 N.ar   65  U65        -0.2534
   1351  C2        27.9940  -16.6990   23.1200 C.ar   65  U65         0.3546
   1352  O2        28.0080  -15.5540   23.5400 O.2    65  U65        -0.2443
   1353  N3        27.1410  -17.6520   23.6130 N.ar   65  U65        -0.1530
   1354  C4        27.0450  -18.9680   23.2150 C.ar   65  U65         0.2846
   1355  O4        26.2250  -19.7050   23.7620 O.2    65  U65        -0.2650
   1356  C5        27.9460  -19.3400   22.1690 C.ar   65  U65         0.0814
   1357  C6        28.7870  -18.4310   21.6650 C.ar   65  U65         0.0870
   1358  OP1       32.5830  -20.4650   17.8650 O.2    65  U65        -0.5172
   1359  OP2       30.6090  -21.4180   19.1970 O.co2  65  U65        -0.4373
   1360  P         34.1310  -17.7530   22.8510 P.3    66  U66         0.2141
   1361  C5'       33.9630  -15.8570   24.6510 C.3    66  U66         0.1812
   1362  O5'       33.6970  -17.2010   24.2810 O.3    66  U66        -0.3114
   1363  C4'       33.2780  -15.4870   25.9430 C.3    66  U66         0.1773
   1364  O4'       31.8420  -15.4000   25.7410 O.3    66  U66        -0.3307
   1365  C3'       33.4220  -16.4760   27.0870 C.3    66  U66         0.1860
   1366  O3'       34.6700  -16.3970   27.7520 O.3    66  U66        -0.3112
   1367  C2'       32.2310  -16.1280   27.9680 C.3    66  U66         0.2309
   1368  O2'       32.4870  -14.9470   28.7140 O.3    66  U66        -0.2156
   1369  C1'       31.1680  -15.8140   26.9140 C.3    66  U66         0.2420
   1370  N1        30.3490  -17.0080   26.6000 N.ar   66  U66        -0.2534
   1371  C2        29.3110  -17.3080   27.4600 C.ar   66  U66         0.3546
   1372  O2        29.0480  -16.6280   28.4360 O.2    66  U66        -0.2443
   1373  N3        28.5890  -18.4300   27.1320 N.ar   66  U66        -0.1530
   1374  C4        28.8020  -19.2640   26.0550 C.ar   66  U66         0.2846
   1375  O4        28.0680  -20.2380   25.8890 O.2    66  U66        -0.2650
   1376  C5        29.8970  -18.8910   25.2140 C.ar   66  U66         0.0814
   1377  C6        30.6140  -17.8030   25.5090 C.ar   66  U66         0.0870
   1378  OP1       35.5840  -17.5070   22.6750 O.2    66  U66        -0.5172
   1379  OP2       33.6030  -19.1350   22.7200 O.co2  66  U66        -0.4373
   1380  P         35.3930  -17.7420   28.2530 P.3    67  G67         0.2141
   1381  C5'       34.6660  -17.2870   30.7270 C.3    67  G67         0.1812
   1382  O5'       34.6060  -18.1270   29.5840 O.3    67  G67        -0.3114
   1383  C4'       33.5440  -17.5680   31.6950 C.3    67  G67         0.1773
   1384  O4'       32.2600  -17.3060   31.0670 O.3    67  G67        -0.3307
   1385  C3'       33.4090  -18.9990   32.1890 C.3    67  G67         0.1860
   1386  O3'       34.3480  -19.3500   33.1890 O.3    67  G67        -0.3112
   1387  C2'       31.9650  -19.0340   32.6650 C.3    67  G67         0.2309
   1388  O2'       31.8330  -18.3630   33.9080 O.3    67  G67        -0.2156
   1389  C1'       31.2870  -18.1900   31.5870 C.3    67  G67         0.2408
   1390  N1        27.6490  -21.4260   30.2560 N.ar   67  G67        -0.1709
   1391  C2        27.8350  -20.7390   31.4310 C.ar   67  G67         0.2606
   1392  N2        26.9260  -20.9380   32.3950 N.pl3  67  G67        -0.0859
   1393  N3        28.8410  -19.9130   31.6470 N.ar   67  G67        -0.1918
   1394  C4        29.6580  -19.8280   30.5790 C.ar   67  G67         0.1723
   1395  C5        29.5680  -20.4680   29.3630 C.ar   67  G67         0.1748
   1396  C6        28.4820  -21.3530   29.1430 C.ar   67  G67         0.3023
   1397  O6        28.2220  -22.0190   28.1320 O.2    67  G67        -0.2633
   1398  N7        30.6210  -20.0990   28.5350 N.ar   67  G67        -0.2173
   1399  C8        31.3170  -19.2580   29.2540 C.ar   67  G67         0.1817
   1400  N9        30.7790  -19.0440   30.4990 N.ar   67  G67        -0.2693
   1401  OP1       36.7920  -17.3980   28.6150 O.3    67  G67        -0.4373
   1402  OP2       35.1410  -18.8110   27.2530 O.co2  67  G67        -0.5172
   1403  P         34.8700  -20.8680   33.2960 P.3    68  U68         0.2141
   1404  C5'       33.1270  -21.2710   35.2100 C.3    68  U68         0.1812
   1405  O5'       33.6470  -21.6560   33.9460 O.3    68  U68        -0.3114
   1406  C4'       31.8000  -21.9300   35.4990 C.3    68  U68         0.1773
   1407  O4'       30.8160  -21.5400   34.5010 O.3    68  U68        -0.3307
   1408  C3'       31.7740  -23.4470   35.4500 C.3    68  U68         0.1860
   1409  O3'       32.3190  -24.0660   36.6000 O.3    68  U68        -0.3112
   1410  C2'       30.2980  -23.7360   35.2360 C.3    68  U68         0.2309
   1411  O2'       29.5690  -23.5590   36.4420 O.3    68  U68        -0.2156
   1412  C1'       29.9190  -22.6120   34.2730 C.3    68  U68         0.2420
   1413  N1        30.0450  -23.0570   32.8680 N.ar   68  U68        -0.2534
   1414  C2        29.0580  -23.8930   32.3790 C.ar   68  U68         0.3546
   1415  O2        28.0980  -24.2530   33.0400 O.2    68  U68        -0.2443
   1416  N3        29.2290  -24.2910   31.0790 N.ar   68  U68        -0.1530
   1417  C4        30.2630  -23.9540   30.2330 C.ar   68  U68         0.2846
   1418  O4        30.2680  -24.3970   29.0830 O.2    68  U68        -0.2650
   1419  C5        31.2460  -23.0930   30.8130 C.ar   68  U68         0.0814
   1420  C6        31.1080  -22.6870   32.0790 C.ar   68  U68         0.0870
   1421  OP1       36.0030  -20.8910   34.2550 O.3    68  U68        -0.4373
   1422  OP2       35.0610  -21.3880   31.9180 O.co2  68  U68        -0.5172
   1423  P         33.0890  -25.4670   36.4510 P.3    69  U69         0.2141
   1424  C5'       30.8800  -26.7060   37.1300 C.3    69  U69         0.1812
   1425  O5'       31.9250  -26.5220   36.1850 O.3    69  U69        -0.3114
   1426  C4'       29.8660  -27.7150   36.6530 C.3    69  U69         0.1773
   1427  O4'       29.1840  -27.2210   35.4700 O.3    69  U69        -0.3307
   1428  C3'       30.4140  -29.0640   36.2160 C.3    69  U69         0.1860
   1429  O3'       30.7240  -29.9230   37.2990 O.3    69  U69        -0.3112
   1430  C2'       29.3040  -29.5900   35.3170 C.3    69  U69         0.2309
   1431  O2'       28.2280  -30.0980   36.0910 O.3    69  U69        -0.2156
   1432  C1'       28.8400  -28.3050   34.6290 C.3    69  U69         0.2420
   1433  N1        29.4900  -28.1230   33.3110 N.ar   69  U69        -0.2534
   1434  C2        29.0250  -28.8960   32.2610 C.ar   69  U69         0.3546
   1435  O2        28.1120  -29.6980   32.3770 O.2    69  U69        -0.2443
   1436  N3        29.6640  -28.6950   31.0620 N.ar   69  U69        -0.1530
   1437  C4        30.6990  -27.8190   30.8120 C.ar   69  U69         0.2846
   1438  O4        31.1730  -27.7480   29.6770 O.2    69  U69        -0.2650
   1439  C5        31.1240  -27.0580   31.9480 C.ar   69  U69         0.0814
   1440  C6        30.5210  -27.2320   33.1300 C.ar   69  U69         0.0870
   1441  OP1       33.7270  -25.7880   37.7540 O.3    69  U69        -0.4373
   1442  OP2       33.9190  -25.3940   35.2210 O.co2  69  U69        -0.5172
   1443  P         31.9150  -30.9930   37.1550 P.3    70  G70         0.2141
   1444  C5'       30.1780  -32.8520   36.5130 C.3    70  G70         0.1812
   1445  O5'       31.3280  -32.0960   36.1660 O.3    70  G70        -0.3114
   1446  C4'       29.6290  -33.6030   35.3260 C.3    70  G70         0.1773
   1447  O4'       29.2360  -32.6710   34.2860 O.3    70  G70        -0.3307
   1448  C3'       30.5970  -34.5460   34.6280 C.3    70  G70         0.1860
   1449  O3'       30.7240  -35.7890   35.2950 O.3    70  G70        -0.3112
   1450  C2'       29.9980  -34.6590   33.2310 C.3    70  G70         0.2309
   1451  O2'       28.8980  -35.5580   33.2270 O.3    70  G70        -0.2156
   1452  C1'       29.4640  -33.2420   33.0150 C.3    70  G70         0.2408
   1453  N1        31.7170  -32.2570   28.5450 N.ar   70  G70        -0.1709
   1454  C2        30.7910  -33.2210   28.8600 C.ar   70  G70         0.2606
   1455  N2        30.4150  -34.0280   27.8580 N.pl3  70  G70        -0.0859
   1456  N3        30.2720  -33.3820   30.0670 N.ar   70  G70        -0.1918
   1457  C4        30.7590  -32.4870   30.9530 C.ar   70  G70         0.1723
   1458  C5        31.6830  -31.4870   30.7390 C.ar   70  G70         0.1748
   1459  C6        32.2310  -31.3240   29.4410 C.ar   70  G70         0.3023
   1460  O6        33.0640  -30.4940   29.0570 O.2    70  G70        -0.2633
   1461  N7        31.9230  -30.7780   31.9080 N.ar   70  G70        -0.2173
   1462  C8        31.1550  -31.3500   32.7950 C.ar   70  G70         0.1817
   1463  N9        30.4230  -32.3930   32.2830 N.ar   70  G70        -0.2693
   1464  OP1       32.1370  -31.6300   38.4780 O.3    70  G70        -0.4373
   1465  OP2       33.0430  -30.3180   36.4610 O.co2  70  G70        -0.5172
   1466  P         32.1720  -36.4500   35.5130 P.3    71  A71         0.2141
   1467  C5'       31.7040  -38.0000   33.4560 C.3    71  A71         0.1812
   1468  O5'       32.5410  -37.0380   34.0800 O.3    71  A71        -0.3114
   1469  C4'       31.9760  -38.0900   31.9770 C.3    71  A71         0.1773
   1470  O4'       31.6280  -36.8360   31.3340 O.3    71  A71        -0.3307
   1471  C3'       33.4250  -38.3160   31.5820 C.3    71  A71         0.1860
   1472  O3'       33.8170  -39.6730   31.6840 O.3    71  A71        -0.3112
   1473  C2'       33.4710  -37.7680   30.1610 C.3    71  A71         0.2309
   1474  O2'       32.9190  -38.7020   29.2460 O.3    71  A71        -0.2156
   1475  C1'       32.5170  -36.5780   30.2680 C.3    71  A71         0.2408
   1476  N1        35.5360  -32.8380   28.3760 N.ar   71  A71        -0.2040
   1477  C2        35.0190  -33.9440   27.8250 C.ar   71  A71         0.2016
   1478  N3        34.2410  -34.8760   28.3730 N.ar   71  A71        -0.2048
   1479  C4        33.9890  -34.5900   29.6610 C.ar   71  A71         0.1692
   1480  C5        34.4490  -33.4940   30.3680 C.ar   71  A71         0.1518
   1481  C6        35.2630  -32.5810   29.6740 C.ar   71  A71         0.1919
   1482  N6        35.7770  -31.4820   30.2290 N.pl3  71  A71        -0.1054
   1483  N7        33.9870  -33.5260   31.6760 N.ar   71  A71        -0.2193
   1484  C8        33.2700  -34.6220   31.7310 C.ar   71  A71         0.1816
   1485  N9        33.2290  -35.3160   30.5470 N.ar   71  A71        -0.2693
   1486  OP1       32.0070  -37.5950   36.4430 O.3    71  A71        -0.4373
   1487  OP2       33.1420  -35.3730   35.8390 O.co2  71  A71        -0.5172
   1488  P         35.2980  -40.0540   32.1760 P.3    72  C72         0.2141
   1489  C5'       36.0740  -40.3390   29.6940 C.3    72  C72         0.1812
   1490  O5'       36.2220  -39.6710   30.9370 O.3    72  C72        -0.3114
   1491  C4'       36.8120  -39.6280   28.5910 C.3    72  C72         0.1773
   1492  O4'       36.2920  -38.2840   28.4350 O.3    72  C72        -0.3307
   1493  C3'       38.3020  -39.4190   28.8100 C.3    72  C72         0.1860
   1494  O3'       39.0690  -40.5740   28.5230 O.3    72  C72        -0.3112
   1495  C2'       38.6060  -38.2380   27.8970 C.3    72  C72         0.2309
   1496  O2'       38.7120  -38.6620   26.5460 O.3    72  C72        -0.2156
   1497  C1'       37.3290  -37.4090   28.0430 C.3    72  C72         0.2420
   1498  N1        37.4670  -36.3420   29.0620 N.ar   72  C72        -0.2535
   1499  C2        38.0850  -35.1460   28.6880 C.ar   72  C72         0.3532
   1500  O2        38.4910  -35.0230   27.5220 O.2    72  C72        -0.2443
   1501  N3        38.2220  -34.1570   29.6000 N.ar   72  C72        -0.1739
   1502  C4        37.7710  -34.3290   30.8430 C.ar   72  C72         0.1759
   1503  N4        37.9300  -33.3220   31.7050 N.pl3  72  C72        -0.1070
   1504  C5        37.1360  -35.5370   31.2540 C.ar   72  C72         0.0566
   1505  C6        37.0070  -36.5080   30.3400 C.ar   72  C72         0.0850
   1506  OP1       35.3540  -41.5290   32.3380 O.2    72  C72        -0.5172
   1507  OP2       35.6550  -39.1740   33.3180 O.co2  72  C72        -0.4373
   1508  P         40.4540  -40.8330   29.2950 P.3    73  A73         0.2141
   1509  C5'       41.8300  -39.9540   27.2480 C.3    73  A73         0.1812
   1510  O5'       41.4660  -39.8120   28.6130 O.3    73  A73        -0.3114
   1511  C4'       42.7700  -38.8580   26.8140 C.3    73  A73         0.1773
   1512  O4'       42.0630  -37.5910   26.7810 O.3    73  A73        -0.3307
   1513  C3'       43.9520  -38.5950   27.7340 C.3    73  A73         0.1860
   1514  O3'       45.0180  -39.5080   27.5470 O.3    73  A73        -0.3112
   1515  C2'       44.3110  -37.1530   27.4050 C.3    73  A73         0.2309
   1516  O2'       45.0320  -37.0830   26.1840 O.3    73  A73        -0.2156
   1517  C1'       42.9270  -36.5480   27.1790 C.3    73  A73         0.2408
   1518  N1        42.9450  -32.4130   30.2550 N.ar   73  A73        -0.2040
   1519  C2        43.6020  -32.6980   29.1240 C.ar   73  A73         0.2016
   1520  N3        43.5510  -33.7960   28.3730 N.ar   73  A73        -0.2048
   1521  C4        42.6960  -34.6900   28.8990 C.ar   73  A73         0.1692
   1522  C5        41.9490  -34.5430   30.0530 C.ar   73  A73         0.1518
   1523  C6        42.0920  -33.3330   30.7550 C.ar   73  A73         0.1919
   1524  N6        41.4380  -33.0470   31.8830 N.pl3  73  A73        -0.1054
   1525  N7        41.1780  -35.6740   30.2840 N.ar   73  A73        -0.2193
   1526  C8        41.4710  -36.4670   29.2810 C.ar   73  A73         0.1816
   1527  N9        42.3840  -35.9330   28.4060 N.ar   73  A73        -0.2693
   1528  OP1       40.9080  -42.2090   28.9730 O.2    73  A73        -0.5172
   1529  OP2       40.2780  -40.4310   30.7150 O.co2  73  A73        -0.4373
   1530  P         45.9080  -39.9680   28.8020 P.3    74  U74         0.2141
   1531  C5'       47.8280  -38.3650   28.0260 C.3    74  U74         0.1812
   1532  O5'       46.9030  -38.7450   29.0330 O.3    74  U74        -0.3114
   1533  C4'       48.3890  -36.9860   28.2720 C.3    74  U74         0.1773
   1534  O4'       47.3130  -36.0140   28.3130 O.3    74  U74        -0.3307
   1535  C3'       49.1180  -36.7810   29.5900 C.3    74  U74         0.1860
   1536  O3'       50.4480  -37.2680   29.5670 O.3    74  U74        -0.3112
   1537  C2'       49.0240  -35.2740   29.7860 C.3    74  U74         0.2309
   1538  O2'       49.9810  -34.6030   28.9780 O.3    74  U74        -0.2156
   1539  C1'       47.6320  -34.9820   29.2240 C.3    74  U74         0.2420
   1540  N1        46.5960  -34.9430   30.2800 N.ar   74  U74        -0.2534
   1541  C2        46.4750  -33.7850   31.0260 C.ar   74  U74         0.3546
   1542  O2        47.1860  -32.8090   30.8510 O.2    74  U74        -0.2443
   1543  N3        45.4920  -33.8120   31.9850 N.ar   74  U74        -0.1530
   1544  C4        44.6370  -34.8580   32.2640 C.ar   74  U74         0.2846
   1545  O4        43.7990  -34.7380   33.1580 O.2    74  U74        -0.2650
   1546  C5        44.8250  -36.0170   31.4490 C.ar   74  U74         0.0814
   1547  C6        45.7730  -36.0190   30.5090 C.ar   74  U74         0.0870
   1548  OP1       46.7120  -41.1460   28.3890 O.2    74  U74        -0.5172
   1549  OP2       45.0140  -40.0680   29.9830 O.co2  74  U74        -0.4373
   1550  P         51.1370  -37.7990   30.9180 P.3    75  A75         0.2141
   1551  C5'       52.3240  -35.4890   31.2490 C.3    75  A75         0.1812
   1552  O5'       51.4290  -36.4720   31.7460 O.3    75  A75        -0.3114
   1553  C4'       52.2930  -34.2430   32.0950 C.3    75  A75         0.1773
   1554  O4'       50.9990  -33.5980   31.9740 O.3    75  A75        -0.3307
   1555  C3'       52.4590  -34.4560   33.5910 C.3    75  A75         0.1860
   1556  O3'       53.8110  -34.6250   33.9790 O.3    75  A75        -0.3112
   1557  C2'       51.8030  -33.2120   34.1740 C.3    75  A75         0.2309
   1558  O2'       52.6710  -32.0930   34.0720 O.3    75  A75        -0.2156
   1559  C1'       50.6380  -33.0090   33.2060 C.3    75  A75         0.2408
   1560  N1        46.5880  -32.6380   36.3640 N.ar   75  A75        -0.2040
   1561  C2        47.6300  -31.8280   36.1370 C.ar   75  A75         0.2016
   1562  N3        48.6510  -31.9860   35.2990 N.ar   75  A75        -0.2048
   1563  C4        48.5400  -33.1480   34.6310 C.ar   75  A75         0.1692
   1564  C5        47.5290  -34.0840   34.7560 C.ar   75  A75         0.1518
   1565  C6        46.5060  -33.7970   35.6740 C.ar   75  A75         0.1919
   1566  N6        45.4710  -34.6090   35.8990 N.pl3  75  A75        -0.1054
   1567  N7        47.7450  -35.1590   33.9070 N.ar   75  A75        -0.2193
   1568  C8        48.8660  -34.8540   33.2970 C.ar   75  A75         0.1816
   1569  N9        49.4010  -33.6500   33.6870 N.ar   75  A75        -0.2693
   1570  OP1       52.4450  -38.4020   30.5600 O.2    75  A75        -0.5172
   1571  OP2       50.1360  -38.5990   31.6690 O.co2  75  A75        -0.4373
   1572  P         54.1870  -35.6540   35.1550 P.3    76  C76         0.2141
   1573  C5'       54.3680  -33.6460   36.8270 C.3    76  C76         0.1812
   1574  O5'       53.7640  -34.8850   36.4860 O.3    76  C76        -0.3114
   1575  C4'       53.5640  -32.8920   37.8560 C.3    76  C76         0.1773
   1576  O4'       52.2490  -32.5730   37.3270 O.3    76  C76        -0.3307
   1577  C3'       53.2610  -33.6280   39.1500 C.3    76  C76         0.1860
   1578  O3'       54.3490  -33.6570   40.0540 O.3    76  C76        -0.3112
   1579  C2'       52.0470  -32.8760   39.6730 C.3    76  C76         0.2309
   1580  O2'       52.4340  -31.6380   40.2520 O.3    76  C76        -0.2156
   1581  C1'       51.2970  -32.5850   38.3730 C.3    76  C76         0.2420
   1582  N1        50.2820  -33.6240   38.0890 N.ar   76  C76        -0.2535
   1583  C2        49.0560  -33.5450   38.7520 C.ar   76  C76         0.3532
   1584  O2        48.8640  -32.6050   39.5370 O.2    76  C76        -0.2443
   1585  N3        48.1140  -34.4870   38.5180 N.ar   76  C76        -0.1739
   1586  C4        48.3640  -35.4810   37.6650 C.ar   76  C76         0.1759
   1587  N4        47.4030  -36.3860   37.4650 N.pl3  76  C76        -0.1070
   1588  C5        49.6060  -35.5890   36.9780 C.ar   76  C76         0.0566
   1589  C6        50.5290  -34.6490   37.2180 C.ar   76  C76         0.0850
   1590  OP1       55.6640  -35.8080   35.1610 O.3    76  C76        -0.4373
   1591  OP2       53.3240  -36.8540   35.0170 O.co2  76  C76        -0.5172
   1592  P         54.6390  -34.9890   40.9040 P.3    77  G77         0.2141
   1593  C5'       53.1520  -34.1580   42.8990 C.3    77  G77         0.1812
   1594  O5'       53.3780  -35.1140   41.8730 O.3    77  G77        -0.3114
   1595  C4'       51.9100  -34.4640   43.7000 C.3    77  G77         0.1773
   1596  O4'       50.7230  -34.2440   42.8940 O.3    77  G77        -0.3307
   1597  C3'       51.7570  -35.8950   44.1860 C.3    77  G77         0.1860
   1598  O3'       52.5380  -36.1810   45.3310 O.3    77  G77        -0.3112
   1599  C2'       50.2540  -36.0020   44.4230 C.3    77  G77         0.2309
   1600  O2'       49.8920  -35.3840   45.6480 O.3    77  G77        -0.2156
   1601  C1'       49.7120  -35.1540   43.2710 C.3    77  G77         0.2408
   1602  N1        46.1930  -38.1470   41.1380 N.ar   77  G77        -0.1709
   1603  C2        46.1580  -37.4710   42.3310 C.ar   77  G77         0.2606
   1604  N2        45.0390  -37.6100   43.0580 N.pl3  77  G77        -0.0859
   1605  N3        47.1460  -36.7160   42.7800 N.ar   77  G77        -0.1918
   1606  C4        48.1910  -36.6870   41.9270 C.ar   77  G77         0.1723
   1607  C5        48.3250  -37.3240   40.7130 C.ar   77  G77         0.1748
   1608  C6        47.2580  -38.1320   40.2420 C.ar   77  G77         0.3023
   1609  O6        47.1860  -38.7770   39.1890 O.2    77  G77        -0.2633
   1610  N7        49.5560  -37.0360   40.1410 N.ar   77  G77        -0.2173
   1611  C8        50.1380  -36.2450   41.0010 C.ar   77  G77         0.1817
   1612  N9        49.3630  -35.9900   42.1060 N.ar   77  G77        -0.2693
   1613  OP1       55.8450  -34.7510   41.7380 O.3    77  G77        -0.4373
   1614  OP2       54.6140  -36.1320   39.9570 O.co2  77  G77        -0.5172
   1615  P         53.3450  -37.5680   45.4140 P.3    78  A78         0.2141
   1616  C5'       52.4750  -40.0430   45.3340 C.3    78  A78         0.1812
   1617  O5'       52.1950  -38.6640   45.5190 O.3    78  A78        -0.3114
   1618  C4'       51.5180  -40.8960   46.1250 C.3    78  A78         0.1773
   1619  O4'       51.7390  -40.6720   47.5390 O.3    78  A78        -0.3307
   1620  C3'       50.0420  -40.5850   45.9150 C.3    78  A78         0.1860
   1621  O3'       49.5020  -41.2290   44.7730 O.3    78  A78        -0.3112
   1622  C2'       49.4160  -41.0390   47.2290 C.3    78  A78         0.2309
   1623  O2'       49.2520  -42.4480   47.2440 O.3    78  A78        -0.2156
   1624  C1'       50.5090  -40.6670   48.2300 C.3    78  A78         0.2408
   1625  N1        47.5150  -37.5860   51.1120 N.ar   78  A78        -0.2040
   1626  C2        47.3940  -38.8700   50.7500 C.ar   78  A78         0.2016
   1627  N3        48.2030  -39.6150   50.0010 N.ar   78  A78        -0.2048
   1628  C4        49.2650  -38.8990   49.5930 C.ar   78  A78         0.1692
   1629  C5        49.5280  -37.5720   49.8830 C.ar   78  A78         0.1518
   1630  C6        48.5940  -36.8930   50.6850 C.ar   78  A78         0.1919
   1631  N6        48.7180  -35.6130   51.0420 N.pl3  78  A78        -0.1054
   1632  N7        50.7150  -37.1640   49.2920 N.ar   78  A78        -0.2193
   1633  C8        51.1380  -38.2360   48.6680 C.ar   78  A78         0.1816
   1634  N9        50.3100  -39.3230   48.8040 N.ar   78  A78        -0.2693
   1635  OP1       54.1270  -37.5980   46.6770 O.3    78  A78        -0.4373
   1636  OP2       54.0340  -37.7560   44.1120 O.co2  78  A78        -0.5172
   1637  P         48.5880  -40.4200   43.7240 P.3    79  A79         0.2141
   1638  C5'       46.3450  -41.1870   44.8280 C.3    79  A79         0.1812
   1639  O5'       47.2460  -40.1290   44.5300 O.3    79  A79        -0.3114
   1640  C4'       45.5080  -40.8760   46.0430 C.3    79  A79         0.1773
   1641  O4'       46.3420  -40.2560   47.0500 O.3    79  A79        -0.3307
   1642  C3'       44.3680  -39.8900   45.8290 C.3    79  A79         0.1860
   1643  O3'       43.2010  -40.5230   45.3370 O.3    79  A79        -0.3112
   1644  C2'       44.1790  -39.2780   47.2140 C.3    79  A79         0.2309
   1645  O2'       43.3690  -40.1190   48.0230 O.3    79  A79        -0.2156
   1646  C1'       45.6020  -39.2950   47.7680 C.3    79  A79         0.2408
   1647  N1        45.9670  -34.5170   49.6580 N.ar   79  A79        -0.2040
   1648  C2        45.1790  -35.5540   49.9680 C.ar   79  A79         0.2016
   1649  N3        45.1380  -36.7700   49.4290 N.ar   79  A79        -0.2048
   1650  C4        46.0460  -36.8860   48.4440 C.ar   79  A79         0.1692
   1651  C5        46.9280  -35.9120   48.0100 C.ar   79  A79         0.1518
   1652  C6        46.8700  -34.6670   48.6640 C.ar   79  A79         0.1919
   1653  N6        47.6530  -33.6310   48.3580 N.pl3  79  A79        -0.1054
   1654  N7        47.7180  -36.3940   46.9750 N.ar   79  A79        -0.2193
   1655  C8        47.3030  -37.6280   46.8100 C.ar   79  A79         0.1816
   1656  N9        46.2880  -37.9900   47.6620 N.ar   79  A79        -0.2693
   1657  OP1       48.2150  -41.3500   42.6270 O.2    79  A79        -0.5172
   1658  OP2       49.2670  -39.1410   43.3910 O.co2  79  A79        -0.4373
   1659  P         42.1850  -39.7330   44.3750 P.3    80  A80         0.2141
   1660  C5'       40.6380  -38.7030   46.2340 C.3    80  A80         0.1812
   1661  O5'       41.6630  -38.5190   45.2660 O.3    80  A80        -0.3114
   1662  C4'       40.4440  -37.4640   47.0710 C.3    80  A80         0.1773
   1663  O4'       41.7060  -37.1090   47.6940 O.3    80  A80        -0.3307
   1664  C3'       40.0320  -36.2080   46.3120 C.3    80  A80         0.1860
   1665  O3'       38.6340  -36.1290   46.0900 O.3    80  A80        -0.3112
   1666  C2'       40.5710  -35.0890   47.1930 C.3    80  A80         0.2309
   1667  O2'       39.7100  -34.8590   48.3000 O.3    80  A80        -0.2156
   1668  C1'       41.8670  -35.7080   47.7100 C.3    80  A80         0.2408
   1669  N1        45.6560  -32.3420   46.6540 N.ar   80  A80        -0.2040
   1670  C2        44.6930  -32.3420   47.5850 C.ar   80  A80         0.2016
   1671  N3        43.7390  -33.2430   47.8120 N.ar   80  A80        -0.2048
   1672  C4        43.8270  -34.2590   46.9360 C.ar   80  A80         0.1692
   1673  C5        44.7620  -34.3990   45.9240 C.ar   80  A80         0.1518
   1674  C6        45.7200  -33.3770   45.7890 C.ar   80  A80         0.1919
   1675  N6        46.6830  -33.3760   44.8610 N.pl3  80  A80        -0.1054
   1676  N7        44.5510  -35.5750   45.2180 N.ar   80  A80        -0.2193
   1677  C8        43.5120  -36.1110   45.8080 C.ar   80  A80         0.1816
   1678  N9        43.0210  -35.3710   46.8540 N.ar   80  A80        -0.2693
   1679  OP1       41.0210  -40.6160   44.1010 O.3    80  A80        -0.4373
   1680  OP2       42.9760  -39.1910   43.2410 O.co2  80  A80        -0.5172
   1681  P         38.0260  -36.2420   44.6040 P.3    81  G81         0.2141
   1682  C5'       38.5920  -33.7370   44.0800 C.3    81  G81         0.1812
   1683  O5'       38.7840  -35.1100   43.7780 O.3    81  G81        -0.3114
   1684  C4'       39.9090  -33.0130   44.2150 C.3    81  G81         0.1773
   1685  O4'       41.0020  -33.9650   44.2060 O.3    81  G81        -0.3307
   1686  C3'       40.2550  -32.0410   43.0970 C.3    81  G81         0.1860
   1687  O3'       39.6070  -30.7910   43.2450 O.3    81  G81        -0.3112
   1688  C2'       41.7750  -31.9590   43.1930 C.3    81  G81         0.2309
   1689  O2'       42.1640  -31.0870   44.2440 O.3    81  G81        -0.2156
   1690  C1'       42.1370  -33.3910   43.5920 C.3    81  G81         0.2408
   1691  N1        45.7170  -34.3580   40.1140 N.ar   81  G81        -0.1709
   1692  C2        45.7040  -33.4300   41.1270 C.ar   81  G81         0.2606
   1693  N2        46.7900  -32.6510   41.2300 N.pl3  81  G81        -0.0859
   1694  N3        44.7030  -33.2730   41.9760 N.ar   81  G81        -0.1918
   1695  C4        43.6960  -34.1360   41.7290 C.ar   81  G81         0.1723
   1696  C5        43.6060  -35.0990   40.7460 C.ar   81  G81         0.1748
   1697  C6        44.6890  -35.2550   39.8410 C.ar   81  G81         0.3023
   1698  O6        44.8000  -36.0540   38.9020 O.2    81  G81        -0.2633
   1699  N7        42.3960  -35.7780   40.8300 N.ar   81  G81        -0.2173
   1700  C8        41.7880  -35.2250   41.8460 C.ar   81  G81         0.1817
   1701  N9        42.5190  -34.2190   42.4330 N.ar   81  G81        -0.2693
   1702  OP1       36.5920  -35.8590   44.6800 O.3    81  G81        -0.4373
   1703  OP2       38.4170  -37.5570   44.0340 O.co2  81  G81        -0.5172
   1704  P         39.2060  -29.9240   41.9520 P.3    82  U82         0.2141
   1705  C5'       41.2270  -28.2990   42.3450 C.3    82  U82         0.1812
   1706  O5'       40.5750  -29.2430   41.5080 O.3    82  U82        -0.3114
   1707  C4'       42.6000  -27.9600   41.8230 C.3    82  U82         0.1773
   1708  O4'       43.4170  -29.1570   41.7970 O.3    82  U82        -0.3307
   1709  C3'       42.6560  -27.4410   40.3930 C.3    82  U82         0.1860
   1710  O3'       42.3690  -26.0570   40.2960 O.3    82  U82        -0.3112
   1711  C2'       44.0730  -27.7990   39.9610 C.3    82  U82         0.2309
   1712  O2'       45.0060  -26.8560   40.4660 O.3    82  U82        -0.2156
   1713  C1'       44.2860  -29.1270   40.6860 C.3    82  U82         0.2420
   1714  N1        43.9920  -30.2940   39.8240 N.ar   82  U82        -0.2534
   1715  C2        44.9560  -30.6800   38.9150 C.ar   82  U82         0.3546
   1716  O2        46.0200  -30.1010   38.7910 O.2    82  U82        -0.2443
   1717  N3        44.6260  -31.7700   38.1510 N.ar   82  U82        -0.1530
   1718  C4        43.4570  -32.5010   38.2040 C.ar   82  U82         0.2846
   1719  O4        43.3040  -33.4620   37.4490 O.2    82  U82        -0.2650
   1720  C5        42.5120  -32.0400   39.1730 C.ar   82  U82         0.0814
   1721  C6        42.8060  -30.9800   39.9310 C.ar   82  U82         0.0870
   1722  OP1       38.2840  -28.8400   42.3780 O.3    82  U82        -0.4373
   1723  OP2       38.7890  -30.8730   40.8880 O.co2  82  U82        -0.5172
   1724  P         41.7020  -25.4670   38.9590 P.3    83  A83         0.2141
   1725  C5'       44.0480  -24.6810   38.0850 C.3    83  A83         0.1812
   1726  O5'       42.8910  -25.4820   37.8960 O.3    83  A83        -0.3114
   1727  C4'       45.1330  -25.0270   37.0960 C.3    83  A83         0.1773
   1728  O4'       45.5910  -26.3850   37.3170 O.3    83  A83        -0.3307
   1729  C3'       44.7310  -25.0070   35.6310 C.3    83  A83         0.1860
   1730  O3'       44.7290  -23.7020   35.0820 O.3    83  A83        -0.3112
   1731  C2'       45.7580  -25.9320   34.9920 C.3    83  A83         0.2309
   1732  O2'       46.9930  -25.2560   34.8170 O.3    83  A83        -0.2156
   1733  C1'       45.9370  -26.9840   36.0860 C.3    83  A83         0.2408
   1734  N1        45.1770  -31.3880   33.4890 N.ar   83  A83        -0.2040
   1735  C2        46.1390  -30.4580   33.4160 C.ar   83  A83         0.2016
   1736  N3        46.2810  -29.3350   34.1170 N.ar   83  A83        -0.2048
   1737  C4        45.2720  -29.1910   34.9950 C.ar   83  A83         0.1692
   1738  C5        44.2120  -30.0590   35.1850 C.ar   83  A83         0.1518
   1739  C6        44.1790  -31.2120   34.3840 C.ar   83  A83         0.1919
   1740  N6        43.2130  -32.1300   34.4620 N.pl3  83  A83        -0.1054
   1741  N7        43.3600  -29.5940   36.1750 N.ar   83  A83        -0.2193
   1742  C8        43.9170  -28.4700   36.5560 C.ar   83  A83         0.1816
   1743  N9        45.0730  -28.1630   35.8840 N.ar   83  A83        -0.2693
   1744  OP1       41.3270  -24.0510   39.2080 O.3    83  A83        -0.4373
   1745  OP2       40.6620  -26.4300   38.5140 O.co2  83  A83        -0.5172
   1746  P         43.6440  -23.2910   33.9710 P.3    84  U84         0.2141
   1747  C5'       45.3920  -23.6980   32.0660 C.3    84  U84         0.1812
   1748  O5'       44.1440  -24.0300   32.6540 O.3    84  U84        -0.3114
   1749  C4'       45.7740  -24.6810   30.9900 C.3    84  U84         0.1773
   1750  O4'       46.0200  -25.9860   31.5760 O.3    84  U84        -0.3307
   1751  C3'       44.7200  -24.9560   29.9310 C.3    84  U84         0.1860
   1752  O3'       44.6290  -23.9430   28.9460 O.3    84  U84        -0.3112
   1753  C2'       45.1570  -26.3090   29.3880 C.3    84  U84         0.2309
   1754  O2'       46.2660  -26.1650   28.5130 O.3    84  U84        -0.2156
   1755  C1'       45.6380  -26.9980   30.6650 C.3    84  U84         0.2420
   1756  N1        44.5670  -27.8190   31.2720 N.ar   84  U84        -0.2534
   1757  C2        44.3730  -29.0810   30.7420 C.ar   84  U84         0.3546
   1758  O2        45.0500  -29.5240   29.8300 O.2    84  U84        -0.2443
   1759  N3        43.3650  -29.8100   31.3220 N.ar   84  U84        -0.1530
   1760  C4        42.5410  -29.4080   32.3520 C.ar   84  U84         0.2846
   1761  O4        41.6740  -30.1770   32.7700 O.2    84  U84        -0.2650
   1762  C5        42.8010  -28.0890   32.8430 C.ar   84  U84         0.0814
   1763  C6        43.7780  -27.3550   32.2990 C.ar   84  U84         0.0870
   1764  OP1       43.7670  -21.8280   33.7560 O.2    84  U84        -0.5172
   1765  OP2       42.3290  -23.8740   34.3440 O.co2  84  U84        -0.4373
   1766  P         43.1950  -23.5470   28.3360 P.3    85  G85         0.2141
   1767  C5'       43.7210  -25.0670   26.2720 C.3    85  G85         0.1812
   1768  O5'       42.8510  -24.7490   27.3480 O.3    85  G85        -0.3114
   1769  C4'       43.5180  -26.4780   25.7750 C.3    85  G85         0.1773
   1770  O4'       43.6760  -27.4260   26.8600 O.3    85  G85        -0.3307
   1771  C3'       42.1510  -26.8070   25.2030 C.3    85  G85         0.1860
   1772  O3'       41.9800  -26.3300   23.8810 O.3    85  G85        -0.3112
   1773  C2'       42.1090  -28.3270   25.3140 C.3    85  G85         0.2309
   1774  O2'       42.8470  -28.9300   24.2620 O.3    85  G85        -0.2156
   1775  C1'       42.8650  -28.5580   26.6250 C.3    85  G85         0.2408
   1776  N1        39.7360  -31.8170   28.8850 N.ar   85  G85        -0.1709
   1777  C2        40.5060  -31.9680   27.7580 C.ar   85  G85         0.2606
   1778  N2        40.4340  -33.1560   27.1400 N.pl3  85  G85        -0.0859
   1779  N3        41.2910  -31.0220   27.2710 N.ar   85  G85        -0.1918
   1780  C4        41.2410  -29.8960   28.0140 C.ar   85  G85         0.1723
   1781  C5        40.5100  -29.6410   29.1520 C.ar   85  G85         0.1748
   1782  C6        39.6710  -30.6660   29.6650 C.ar   85  G85         0.3023
   1783  O6        38.9400  -30.6440   30.6640 O.2    85  G85        -0.2633
   1784  N7        40.7490  -28.3500   29.6070 N.ar   85  G85        -0.2173
   1785  C8        41.6040  -27.8560   28.7500 C.ar   85  G85         0.1817
   1786  N9        41.9450  -28.7470   27.7620 N.ar   85  G85        -0.2693
   1787  OP1       43.3710  -22.3130   27.5280 O.2    85  G85        -0.5172
   1788  OP2       42.2010  -23.5690   29.4390 O.co2  85  G85        -0.4373
   1789  P         40.5140  -25.9800   23.3230 P.3    86  U86         0.2141
   1790  C5'       40.5040  -28.2640   22.0460 C.3    86  U86         0.1812
   1791  O5'       39.8820  -27.4020   22.9860 O.3    86  U86        -0.3114
   1792  C4'       39.9330  -29.6560   22.1080 C.3    86  U86         0.1773
   1793  O4'       40.1570  -30.2270   23.4240 O.3    86  U86        -0.3307
   1794  C3'       38.4310  -29.7710   21.9120 C.3    86  U86         0.1860
   1795  O3'       38.0460  -29.7120   20.5510 O.3    86  U86        -0.3112
   1796  C2'       38.1160  -31.1030   22.5800 C.3    86  U86         0.2309
   1797  O2'       38.4770  -32.1840   21.7330 O.3    86  U86        -0.2156
   1798  C1'       39.0820  -31.0780   23.7660 C.3    86  U86         0.2420
   1799  N1        38.4390  -30.5650   24.9990 N.ar   86  U86        -0.2534
   1800  C2        37.6350  -31.4350   25.7100 C.ar   86  U86         0.3546
   1801  O2        37.4400  -32.5880   25.3660 O.2    86  U86        -0.2443
   1802  N3        37.0620  -30.9090   26.8420 N.ar   86  U86        -0.1530
   1803  C4        37.2120  -29.6250   27.3260 C.ar   86  U86         0.2846
   1804  O4        36.6310  -29.2970   28.3620 O.2    86  U86        -0.2650
   1805  C5        38.0580  -28.7850   26.5370 C.ar   86  U86         0.0814
   1806  C6        38.6280  -29.2720   25.4290 C.ar   86  U86         0.0870
   1807  OP1       40.6960  -25.2510   22.0430 O.2    86  U86        -0.5172
   1808  OP2       39.7170  -25.3640   24.4150 O.co2  86  U86        -0.4373
   1809  P         36.7320  -28.8970   20.1160 P.3    87  U87         0.2141
   1810  C5'       35.3700  -31.1320   20.2260 C.3    87  U87         0.1812
   1811  O5'       35.5300  -29.7900   20.6590 O.3    87  U87        -0.3114
   1812  C4'       34.3610  -31.8720   21.0670 C.3    87  U87         0.1773
   1813  O4'       34.8530  -32.0120   22.4260 O.3    87  U87        -0.3307
   1814  C3'       33.0090  -31.2000   21.2370 C.3    87  U87         0.1860
   1815  O3'       32.1580  -31.3790   20.1180 O.3    87  U87        -0.3112
   1816  C2'       32.4830  -31.8380   22.5170 C.3    87  U87         0.2309
   1817  O2'       31.9720  -33.1370   22.2560 O.3    87  U87        -0.2156
   1818  C1'       33.7700  -31.9860   23.3330 C.3    87  U87         0.2420
   1819  N1        33.9610  -30.8650   24.2840 N.ar   87  U87        -0.2534
   1820  C2        33.4060  -30.9950   25.5450 C.ar   87  U87         0.3546
   1821  O2        32.7800  -31.9790   25.9030 O.2    87  U87        -0.2443
   1822  N3        33.6140  -29.9260   26.3800 N.ar   87  U87        -0.1530
   1823  C4        34.3010  -28.7650   26.0950 C.ar   87  U87         0.2846
   1824  O4        34.4010  -27.8920   26.9590 O.2    87  U87        -0.2650
   1825  C5        34.8440  -28.7060   24.7730 C.ar   87  U87         0.0814
   1826  C6        34.6590  -29.7320   23.9360 C.ar   87  U87         0.0870
   1827  OP1       36.6800  -28.8960   18.6320 O.2    87  U87        -0.5172
   1828  OP2       36.7080  -27.6070   20.8530 O.co2  87  U87        -0.4373
   1829  P         31.3780  -30.1250   19.4840 P.3    88  U88         0.2141
   1830  C5'       32.5330  -30.7100   17.2070 C.3    88  U88         0.1812
   1831  O5'       31.3360  -30.4510   17.9250 O.3    88  U88        -0.3114
   1832  C4'       32.2560  -31.0490   15.7630 C.3    88  U88         0.1773
   1833  O4'       31.5180  -32.2920   15.6790 O.3    88  U88        -0.3307
   1834  C3'       31.4030  -30.0520   14.9960 C.3    88  U88         0.1860
   1835  O3'       32.1700  -28.9610   14.5170 O.3    88  U88        -0.3112
   1836  C2'       30.7990  -30.9010   13.8810 C.3    88  U88         0.2309
   1837  O2'       31.7080  -31.0310   12.7990 O.3    88  U88        -0.2156
   1838  C1'       30.6580  -32.2670   14.5610 C.3    88  U88         0.2420
   1839  N1        29.2770  -32.5540   15.0120 N.ar   88  U88        -0.2534
   1840  C2        28.3880  -33.0440   14.0750 C.ar   88  U88         0.3546
   1841  O2        28.6890  -33.2290   12.9080 O.2    88  U88        -0.2443
   1842  N3        27.1270  -33.3040   14.5520 N.ar   88  U88        -0.1530
   1843  C4        26.6790  -33.1320   15.8450 C.ar   88  U88         0.2846
   1844  O4        25.5110  -33.4110   16.1210 O.2    88  U88        -0.2650
   1845  C5        27.6610  -32.6280   16.7550 C.ar   88  U88         0.0814
   1846  C6        28.8980  -32.3670   16.3190 C.ar   88  U88         0.0870
   1847  OP1       32.2090  -28.9080   19.6680 O.2    88  U88        -0.5172
   1848  OP2       29.9890  -30.1470   20.0070 O.co2  88  U88        -0.4373
   1849  P         31.4840  -27.5440   14.2000 P.3    89  A89         0.2141
   1850  C5'       33.6840  -26.2260   13.6710 C.3    89  A89         0.1812
   1851  O5'       32.5050  -26.8530   13.1900 O.3    89  A89        -0.3114
   1852  C4'       34.8390  -26.3620   12.7090 C.3    89  A89         0.1773
   1853  O4'       35.3310  -27.7280   12.6940 O.3    89  A89        -0.3307
   1854  C3'       34.5560  -26.0690   11.2450 C.3    89  A89         0.1860
   1855  O3'       34.4830  -24.6850   10.9500 O.3    89  A89        -0.3112
   1856  C2'       35.7110  -26.7760   10.5480 C.3    89  A89         0.2309
   1857  O2'       36.9010  -26.0070   10.6400 O.3    89  A89        -0.2156
   1858  C1'       35.8720  -28.0230   11.4210 C.3    89  A89         0.2408
   1859  N1        35.6730  -31.2710    7.4480 N.ar   89  A89        -0.2040
   1860  C2        36.4730  -30.2370    7.7320 C.ar   89  A89         0.2016
   1861  N3        36.4610  -29.4360    8.7940 N.ar   89  A89        -0.2048
   1862  C4        35.4800  -29.7830    9.6480 C.ar   89  A89         0.1692
   1863  C5        34.5790  -30.8190    9.4950 C.ar   89  A89         0.1518
   1864  C6        34.6970  -31.5920    8.3250 C.ar   89  A89         0.1919
   1865  N6        33.9050  -32.6250    8.0340 N.pl3  89  A89        -0.1054
   1866  N7        33.7110  -30.8750   10.5780 N.ar   89  A89        -0.2193
   1867  C8        34.1020  -29.8870   11.3490 C.ar   89  A89         0.1816
   1868  N9        35.1690  -29.1850   10.8450 N.ar   89  A89        -0.2693
   1869  OP1       31.4880  -26.7520   15.4560 O.3    89  A89        -0.4373
   1870  OP2       30.2070  -27.7780   13.4790 O.co2  89  A89        -0.5172
   1871  P         33.3790  -24.1330    9.9180 P.3    90  G90         0.2141
   1872  C5'       34.7740  -24.7870    7.7940 C.3    90  G90         0.1812
   1873  O5'       33.6170  -24.9870    8.5930 O.3    90  G90        -0.3114
   1874  C4'       34.8530  -25.7820    6.6620 C.3    90  G90         0.1773
   1875  O4'       34.8150  -27.1380    7.1800 O.3    90  G90        -0.3307
   1876  C3'       33.7150  -25.7490    5.6570 C.3    90  G90         0.1860
   1877  O3'       33.8360  -24.6990    4.7150 O.3    90  G90        -0.3112
   1878  C2'       33.7860  -27.1380    5.0380 C.3    90  G90         0.2309
   1879  O2'       34.8430  -27.2120    4.0920 O.3    90  G90        -0.2156
   1880  C1'       34.1670  -27.9860    6.2510 C.3    90  G90         0.2408
   1881  N1        30.4200  -31.4110    5.8100 N.ar   90  G90        -0.1709
   1882  C2        31.4280  -31.0970    4.9320 C.ar   90  G90         0.2606
   1883  N2        31.4460  -31.7850    3.7810 N.pl3  90  G90        -0.0859
   1884  N3        32.3520  -30.1780    5.1640 N.ar   90  G90        -0.1918
   1885  C4        32.1890  -29.5840    6.3650 C.ar   90  G90         0.1723
   1886  C5        31.2160  -29.8230    7.3130 C.ar   90  G90         0.1748
   1887  C6        30.2310  -30.8130    7.0510 C.ar   90  G90         0.3023
   1888  O6        29.2870  -31.1710    7.7660 O.2    90  G90        -0.2633
   1889  N7        31.3960  -29.0000    8.4160 N.ar   90  G90        -0.2173
   1890  C8        32.4520  -28.2890    8.1240 C.ar   90  G90         0.1817
   1891  N9        32.9830  -28.5910    6.8940 N.ar   90  G90        -0.2693
   1892  OP1       33.7050  -22.7160    9.6140 O.2    90  G90        -0.5172
   1893  OP2       32.0350  -24.4760   10.4470 O.co2  90  G90        -0.4373
   1894  P         32.5170  -24.0040    4.1200 P.3    91  C91         0.2141
   1895  C5'       32.7980  -25.4870    1.9790 C.3    91  C91         0.1812
   1896  O5'       31.9760  -25.0580    3.0540 O.3    91  C91        -0.3114
   1897  C4'       32.1950  -26.6550    1.2380 C.3    91  C91         0.1773
   1898  O4'       32.0940  -27.8100    2.1100 O.3    91  C91        -0.3307
   1899  C3'       30.7810  -26.4670    0.7170 C.3    91  C91         0.1860
   1900  O3'       30.7300  -25.7140   -0.4810 O.3    91  C91        -0.3112
   1901  C2'       30.3000  -27.9030    0.5510 C.3    91  C91         0.2309
   1902  O2'       30.8170  -28.4700   -0.6440 O.3    91  C91        -0.2156
   1903  C1'       30.9720  -28.5880    1.7430 C.3    91  C91         0.2420
   1904  N1        30.0600  -28.7000    2.9040 N.ar   91  C91        -0.2535
   1905  C2        29.0890  -29.7070    2.9030 C.ar   91  C91         0.3532
   1906  O2        29.0200  -30.4800    1.9350 O.2    91  C91        -0.2443
   1907  N3        28.2480  -29.8190    3.9570 N.ar   91  C91        -0.1739
   1908  C4        28.3520  -28.9720    4.9820 C.ar   91  C91         0.1759
   1909  N4        27.5030  -29.1170    6.0010 N.pl3  91  C91        -0.1070
   1910  C5        29.3300  -27.9370    5.0100 C.ar   91  C91         0.0566
   1911  C6        30.1550  -27.8380    3.9610 C.ar   91  C91         0.0850
   1912  OP1       32.9280  -22.7740    3.3960 O.2    91  C91        -0.5172
   1913  OP2       31.5230  -23.9090    5.2200 O.co2  91  C91        -0.4373
   1914  P         29.6380  -24.5480   -0.6620 P.3    92  A92         0.2141
   1915  C5'       27.8460  -26.2710   -1.4930 C.3    92  A92         0.1812
   1916  O5'       28.2430  -25.3050   -0.5310 O.3    92  A92        -0.3114
   1917  C4'       26.6970  -27.1130   -0.9970 C.3    92  A92         0.1773
   1918  O4'       27.0950  -27.8530    0.1870 O.3    92  A92        -0.3307
   1919  C3'       25.4560  -26.3580   -0.5500 C.3    92  A92         0.1860
   1920  O3'       24.6400  -25.9260   -1.6220 O.3    92  A92        -0.3112
   1921  C2'       24.7840  -27.3650    0.3700 C.3    92  A92         0.2309
   1922  O2'       24.1590  -28.3920   -0.3850 O.3    92  A92        -0.2156
   1923  C1'       25.9990  -27.9630    1.0740 C.3    92  A92         0.2408
   1924  N1        24.6520  -27.0320    5.9490 N.ar   92  A92        -0.2040
   1925  C2        24.1350  -27.8330    5.0090 C.ar   92  A92         0.2016
   1926  N3        24.5390  -28.0290    3.7570 N.ar   92  A92        -0.2048
   1927  C4        25.6200  -27.2770    3.4860 C.ar   92  A92         0.1692
   1928  C5        26.2640  -26.4060    4.3450 C.ar   92  A92         0.1518
   1929  C6        25.7380  -26.2900    5.6430 C.ar   92  A92         0.1919
   1930  N6        26.2520  -25.4930    6.5810 N.pl3  92  A92        -0.1054
   1931  N7        27.3430  -25.8030    3.7160 N.ar   92  A92        -0.2193
   1932  C8        27.3300  -26.3140    2.5090 C.ar   92  A92         0.1816
   1933  N9        26.3170  -27.2170    2.3040 N.ar   92  A92        -0.2693
   1934  OP1       29.7580  -24.0400   -2.0530 O.2    92  A92        -0.5172
   1935  OP2       29.7590  -23.5980    0.4730 O.co2  92  A92        -0.4373
   1936  P         23.7990  -24.5640   -1.4900 P.3    93  A93         0.2141
   1937  C5'       21.6710  -26.0630   -1.2830 C.3    93  A93         0.1812
   1938  O5'       22.3300  -24.9870   -1.9290 O.3    93  A93        -0.3114
   1939  C4'       21.7010  -27.3130   -2.1240 C.3    93  A93         0.1773
   1940  O4'       21.7020  -28.4780   -1.2590 O.3    93  A93        -0.3307
   1941  C3'       20.5070  -27.5210   -3.0440 C.3    93  A93         0.1860
   1942  O3'       20.6380  -26.8200   -4.2710 O.3    93  A93        -0.3112
   1943  C2'       20.4600  -29.0350   -3.2040 C.3    93  A93         0.2309
   1944  O2'       21.4140  -29.4690   -4.1610 O.3    93  A93        -0.2156
   1945  C1'       20.9140  -29.5030   -1.8210 C.3    93  A93         0.2408
   1946  N1        16.7970  -32.4310   -0.7150 N.ar   93  A93        -0.2040
   1947  C2        17.6880  -32.4800   -1.7140 C.ar   93  A93         0.2016
   1948  N3        18.7350  -31.6930   -1.9500 N.ar   93  A93        -0.2048
   1949  C4        18.8360  -30.7450   -1.0030 C.ar   93  A93         0.1692
   1950  C5        17.9990  -30.5670    0.0850 C.ar   93  A93         0.1518
   1951  C6        16.9280  -31.4660    0.2200 C.ar   93  A93         0.1919
   1952  N6        16.0420  -31.4140    1.2180 N.pl3  93  A93        -0.1054
   1953  N7        18.4090  -29.4860    0.8520 N.ar   93  A93        -0.2193
   1954  C8        19.4690  -29.0440    0.2230 C.ar   93  A93         0.1816
   1955  N9        19.7820  -29.7530   -0.9100 N.ar   93  A93        -0.2693
   1956  OP1       24.3240  -23.5910   -2.4820 O.2    93  A93        -0.5172
   1957  OP2       23.7560  -24.1860   -0.0550 O.co2  93  A93        -0.4373
   1958  P         19.3560  -26.5560   -5.2060 P.3    94  G94         0.2141
   1959  C5'       17.8460  -28.2150   -6.5330 C.3    94  G94         0.1812
   1960  O5'       19.0760  -27.9690   -5.8760 O.3    94  G94        -0.3114
   1961  C4'       17.4790  -29.6750   -6.4990 C.3    94  G94         0.1773
   1962  O4'       17.6460  -30.2030   -5.1570 O.3    94  G94        -0.3307
   1963  C3'       16.0330  -29.9820   -6.8440 C.3    94  G94         0.1860
   1964  O3'       15.8080  -30.0090   -8.2410 O.3    94  G94        -0.3112
   1965  C2'       15.7990  -31.3170   -6.1510 C.3    94  G94         0.2309
   1966  O2'       16.3600  -32.3790   -6.9080 O.3    94  G94        -0.2156
   1967  C1'       16.6260  -31.1400   -4.8770 C.3    94  G94         0.2408
   1968  N1        12.5930  -31.7860   -1.7840 N.ar   94  G94        -0.1709
   1969  C2        13.0370  -32.5930   -2.8000 C.ar   94  G94         0.2606
   1970  N2        12.3240  -33.7060   -3.0230 N.pl3  94  G94        -0.0859
   1971  N3        14.1010  -32.3300   -3.5430 N.ar   94  G94        -0.1918
   1972  C4        14.6980  -31.1730   -3.1820 C.ar   94  G94         0.1723
   1973  C5        14.3300  -30.2970   -2.1810 C.ar   94  G94         0.1748
   1974  C6        13.1880  -30.5920   -1.3930 C.ar   94  G94         0.3023
   1975  O6        12.7060  -29.9380   -0.4590 O.2    94  G94        -0.2633
   1976  N7        15.1990  -29.2180   -2.1230 N.ar   94  G94        -0.2173
   1977  C8        16.0640  -29.4500   -3.0710 C.ar   94  G94         0.1817
   1978  N9        15.8200  -30.6150   -3.7570 N.ar   94  G94        -0.2693
   1979  OP1       19.7560  -25.6150   -6.2820 O.2    94  G94        -0.5172
   1980  OP2       18.1880  -26.2280   -4.3500 O.co2  94  G94        -0.4373
   1981  P         14.8530  -28.9140   -8.9240 P.3    95  A95         0.2141
   1982  C5'       13.0800  -30.8320   -8.9290 C.3    95  A95         0.1812
   1983  O5'       13.3920  -29.4770   -8.6450 O.3    95  A95        -0.3114
   1984  C4'       11.8960  -31.3010   -8.1270 C.3    95  A95         0.1773
   1985  O4'       12.2790  -31.4850   -6.7390 O.3    95  A95        -0.3307
   1986  C3'       10.7250  -30.3370   -8.0570 C.3    95  A95         0.1860
   1987  O3'        9.9100  -30.3650   -9.2160 O.3    95  A95        -0.3112
   1988  C2'       10.0120  -30.7800   -6.7880 C.3    95  A95         0.2309
   1989  O2'        9.2510  -31.9560   -7.0210 O.3    95  A95        -0.2156
   1990  C1'       11.1990  -31.1410   -5.8950 C.3    95  A95         0.2408
   1991  N1        10.0830  -28.3960   -1.7040 N.ar   95  A95        -0.2040
   1992  C2         9.4990  -29.4580   -2.2730 C.ar   95  A95         0.2016
   1993  N3         9.8520  -30.1220   -3.3700 N.ar   95  A95        -0.2048
   1994  C4        10.9550  -29.5830   -3.9160 C.ar   95  A95         0.1692
   1995  C5        11.6680  -28.4940   -3.4520 C.ar   95  A95         0.1518
   1996  C6        11.1910  -27.8800   -2.2800 C.ar   95  A95         0.1919
   1997  N6        11.7660  -26.8220   -1.7070 N.pl3  95  A95        -0.1054
   1998  N7        12.7520  -28.2290   -4.2790 N.ar   95  A95        -0.2193
   1999  C8        12.6680  -29.1500   -5.2100 C.ar   95  A95         0.1816
   2000  N9        11.6050  -30.0040   -5.0480 N.ar   95  A95        -0.2693
   2001  OP1       15.0870  -28.9630  -10.3890 O.2    95  A95        -0.5172
   2002  OP2       15.0010  -27.6240   -8.2010 O.co2  95  A95        -0.4373
   2003  P          9.6240  -29.0090  -10.0290 P.3    96  C96         0.2141
   2004  C5'        7.6520  -28.5040   -8.3790 C.3    96  C96         0.1812
   2005  O5'        8.8700  -28.0830   -8.9750 O.3    96  C96        -0.3114
   2006  C4'        7.3040  -27.6620   -7.1790 C.3    96  C96         0.1773
   2007  O4'        8.3010  -27.8420   -6.1390 O.3    96  C96        -0.3307
   2008  C3'        7.2830  -26.1600   -7.4040 C.3    96  C96         0.1860
   2009  O3'        6.0990  -25.7040   -8.0300 O.3    96  C96        -0.3112
   2010  C2'        7.4810  -25.6170   -5.9970 C.3    96  C96         0.2309
   2011  O2'        6.2710  -25.6950   -5.2570 O.3    96  C96        -0.2156
   2012  C1'        8.4660  -26.6350   -5.4210 C.3    96  C96         0.2420
   2013  N1         9.8690  -26.1800   -5.5560 N.ar   96  C96        -0.2535
   2014  C2        10.3570  -25.2630   -4.6220 C.ar   96  C96         0.3532
   2015  O2         9.6030  -24.8730   -3.7180 O.2    96  C96        -0.2443
   2016  N3        11.6320  -24.8240   -4.7210 N.ar   96  C96        -0.1739
   2017  C4        12.4130  -25.2670   -5.7060 C.ar   96  C96         0.1759
   2018  N4        13.6650  -24.8060   -5.7630 N.pl3  96  C96        -0.1070
   2019  C5        11.9440  -26.2000   -6.6760 C.ar   96  C96         0.0566
   2020  C6        10.6780  -26.6260   -6.5650 C.ar   96  C96         0.0850
   2021  OP1        8.6740  -29.3280  -11.1260 O.2    96  C96        -0.5172
   2022  OP2       10.9240  -28.3670  -10.3490 O.co2  96  C96        -0.4373
   2023  P          6.1510  -24.4350   -9.0130 P.3    97  C97         0.2141
   2024  C5'        5.2640  -22.9270   -7.0610 C.3    97  C97         0.1812
   2025  O5'        6.2720  -23.1900   -8.0260 O.3    97  C97        -0.3114
   2026  C4'        5.5980  -21.7190   -6.2260 C.3    97  C97         0.1773
   2027  O4'        6.7250  -22.0120   -5.3590 O.3    97  C97        -0.3307
   2028  C3'        6.0370  -20.4850   -6.9920 C.3    97  C97         0.1860
   2029  O3'        4.9510  -19.7570   -7.5390 O.3    97  C97        -0.3112
   2030  C2'        6.8360  -19.7110   -5.9520 C.3    97  C97         0.2309
   2031  O2'        5.9730  -19.0130   -5.0670 O.3    97  C97        -0.2156
   2032  C1'        7.5070  -20.8490   -5.1800 C.3    97  C97         0.2420
   2033  N1         8.8820  -21.1180   -5.6630 N.ar   97  C97        -0.2535
   2034  C2         9.8990  -20.2230   -5.3220 C.ar   97  C97         0.3532
   2035  O2         9.6190  -19.2310   -4.6320 O.2    97  C97        -0.2443
   2036  N3        11.1600  -20.4540   -5.7530 N.ar   97  C97        -0.1739
   2037  C4        11.4270  -21.5320   -6.4910 C.ar   97  C97         0.1759
   2038  N4        12.6880  -21.7170   -6.8900 N.pl3  97  C97        -0.1070
   2039  C5        10.4110  -22.4650   -6.8510 C.ar   97  C97         0.0566
   2040  C6         9.1660  -22.2220   -6.4180 C.ar   97  C97         0.0850
   2041  OP1        4.8480  -24.3500   -9.7210 O.3    97  C97        -0.4373
   2042  OP2        7.4110  -24.5130   -9.7960 O.co2  97  C97        -0.5172
   2043  P          5.1300  -18.9960   -8.9410 P.3    98  U98         0.2141
   2044  C5'        5.5420  -16.7930   -7.6000 C.3    98  U98         0.1812
   2045  O5'        6.0050  -17.7240   -8.5640 O.3    98  U98        -0.3114
   2046  C4'        6.6030  -15.7800   -7.2700 C.3    98  U98         0.1773
   2047  O4'        7.6730  -16.4040   -6.5160 O.3    98  U98        -0.3307
   2048  C3'        7.3180  -15.1670   -8.4610 C.3    98  U98         0.1860
   2049  O3'        6.5620  -14.1760   -9.1280 O.3    98  U98        -0.3112
   2050  C2'        8.6070  -14.6630   -7.8300 C.3    98  U98         0.2309
   2051  O2'        8.3670  -13.4750   -7.0890 O.3    98  U98        -0.2156
   2052  C1'        8.9070  -15.7890   -6.8400 C.3    98  U98         0.2420
   2053  N1         9.8230  -16.8050   -7.4130 N.ar   98  U98        -0.2534
   2054  C2        11.1710  -16.4920   -7.4550 C.ar   98  U98         0.3546
   2055  O2        11.6190  -15.4350   -7.0450 O.2    98  U98        -0.2443
   2056  N3        11.9850  -17.4580   -7.9950 N.ar   98  U98        -0.1530
   2057  C4        11.5990  -18.6860   -8.4880 C.ar   98  U98         0.2846
   2058  O4        12.4510  -19.4510   -8.9410 O.2    98  U98        -0.2650
   2059  C5        10.1920  -18.9400   -8.4120 C.ar   98  U98         0.0814
   2060  C6         9.3750  -18.0160   -7.8900 C.ar   98  U98         0.0870
   2061  OP1        3.8080  -18.4940   -9.3930 O.3    98  U98        -0.4373
   2062  OP2        5.9340  -19.8820   -9.8230 O.co2  98  U98        -0.5172
   2063  P          6.6260  -14.0750  -10.7320 P.3    99  U99         0.2141
   2064  C5'        8.2560  -12.0590  -10.4350 C.3    99  U99         0.1812
   2065  O5'        8.0120  -13.3390  -10.9980 O.3    99  U99        -0.3114
   2066  C4'        9.7210  -11.7030  -10.4390 C.3    99  U99         0.1773
   2067  O4'       10.4710  -12.6470   -9.6270 O.3    99  U99        -0.3307
   2068  C3'       10.4240  -11.7440  -11.7870 C.3    99  U99         0.1860
   2069  O3'       10.1790  -10.5990  -12.5830 O.3    99  U99        -0.3112
   2070  C2'       11.8820  -11.9020  -11.3850 C.3    99  U99         0.2309
   2071  O2'       12.4180  -10.6600  -10.9530 O.3    99  U99        -0.2156
   2072  C1'       11.7610  -12.8270  -10.1750 C.3    99  U99         0.2420
   2073  N1        11.9230  -14.2450  -10.5660 N.ar   99  U99        -0.2534
   2074  C2        13.2110  -14.6830  -10.8050 C.ar   99  U99         0.3546
   2075  O2        14.1880  -13.9620  -10.6900 O.2    99  U99        -0.2443
   2076  N3        13.3150  -15.9980  -11.1790 N.ar   99  U99        -0.1530
   2077  C4        12.2850  -16.9000  -11.3380 C.ar   99  U99         0.2846
   2078  O4        12.5470  -18.0540  -11.6800 O.2    99  U99        -0.2650
   2079  C5        10.9800  -16.3700  -11.0780 C.ar   99  U99         0.0814
   2080  C6        10.8470  -15.0900  -10.7110 C.ar   99  U99         0.0870
   2081  OP1        5.5480  -13.1610  -11.1860 O.3    99  U99        -0.4373
   2082  OP2        6.6940  -15.4590  -11.2740 O.co2  99  U99        -0.5172
   2083  P         10.1250  -10.7240  -14.1870 P.3   100  U100        0.2141
   2084  C5'       12.5390  -10.1610  -15.0160 C.3   100  U100        0.1812
   2085  O5'       11.6040  -11.1480  -14.6050 O.3   100  U100       -0.3114
   2086  C4'       13.9550  -10.6790  -15.0550 C.3   100  U100        0.1773
   2087  O4'       14.1350  -11.7250  -14.0680 O.3   100  U100       -0.3307
   2088  C3'       14.4080  -11.3230  -16.3600 C.3   100  U100        0.1860
   2089  O3'       14.7840  -10.3700  -17.3360 O.3   100  U100       -0.3112
   2090  C2'       15.5610  -12.2090  -15.9090 C.3   100  U100        0.2309
   2091  O2'       16.7530  -11.4490  -15.7560 O.3   100  U100       -0.2156
   2092  C1'       15.0880  -12.6610  -14.5280 C.3   100  U100        0.2420
   2093  N1        14.4600  -13.9990  -14.5770 N.ar  100  U100       -0.2534
   2094  C2        15.3050  -15.0920  -14.6210 C.ar  100  U100        0.3546
   2095  O2        16.5210  -15.0010  -14.6150 O.2   100  U100       -0.2443
   2096  N3        14.6700  -16.3060  -14.6720 N.ar  100  U100       -0.1530
   2097  C4        13.3110  -16.5330  -14.6820 C.ar  100  U100        0.2846
   2098  O4        12.9000  -17.6940  -14.7290 O.2   100  U100       -0.2650
   2099  C5        12.5060  -15.3500  -14.6350 C.ar  100  U100        0.0814
   2100  C6        13.0950  -14.1510  -14.5870 C.ar  100  U100        0.0870
   2101  OP1        9.9180   -9.3580  -14.7320 O.2   100  U100       -0.5172
   2102  OP2        9.1730  -11.8070  -14.5380 O.co2 100  U100       -0.4373
   2103  P         13.7740   -9.9730  -18.5210 P.3   101  C101        0.2141
   2104  C5'       14.3410  -11.8840  -20.2150 C.3   101  C101        0.1812
   2105  O5'       14.4850  -10.5260  -19.8310 O.3   101  C101       -0.3114
   2106  C4'       15.6450  -12.4490  -20.7060 C.3   101  C101        0.1773
   2107  O4'       16.3960  -12.9950  -19.5880 O.3   101  C101       -0.3307
   2108  C3'       15.5390  -13.6210  -21.6760 C.3   101  C101        0.1860
   2109  O3'       15.1900  -13.2690  -23.0120 O.3   101  C101       -0.3112
   2110  C2'       16.8780  -14.3250  -21.4880 C.3   101  C101        0.2309
   2111  O2'       17.9320  -13.6310  -22.1380 O.3   101  C101       -0.2156
   2112  C1'       17.0730  -14.1710  -19.9800 C.3   101  C101        0.2420
   2113  N1        16.4830  -15.3150  -19.2510 N.ar  101  C101       -0.2535
   2114  C2        17.2250  -16.4930  -19.1340 C.ar  101  C101        0.3532
   2115  O2        18.3610  -16.5420  -19.6310 O.2   101  C101       -0.2443
   2116  N3        16.6880  -17.5490  -18.4800 N.ar  101  C101       -0.1739
   2117  C4        15.4610  -17.4570  -17.9600 C.ar  101  C101        0.1759
   2118  N4        14.9620  -18.5150  -17.3240 N.pl3 101  C101       -0.1070
   2119  C5        14.6780  -16.2740  -18.0650 C.ar  101  C101        0.0566
   2120  C6        15.2250  -15.2400  -18.7120 C.ar  101  C101        0.0850
   2121  OP1       13.7300   -8.4910  -18.6120 O.2   101  C101       -0.5172
   2122  OP2       12.5160  -10.7420  -18.3410 O.co2 101  C101       -0.4373
   2123  P         16.0670  -12.2680  -23.9240 P.3   102  C102        0.2141
   2124  C5'       17.1940  -13.9760  -25.5680 C.3   102  C102        0.1813
   2125  O5'       17.2920  -13.1620  -24.4090 O.3   102  C102       -0.3114
   2126  C4'       18.5480  -14.2040  -26.1910 C.3   102  C102        0.1801
   2127  O4'       19.1380  -12.9270  -26.5530 O.3   102  C102       -0.3306
   2128  C3'       19.5900  -14.8500  -25.2900 C.3   102  C102        0.2161
   2129  O3'       19.4670  -16.2600  -25.2190 O.3   102  C102       -0.2175
   2130  C2'       20.9010  -14.3790  -25.9050 C.3   102  C102        0.2338
   2131  O2'       21.2130  -15.1390  -27.0630 O.3   102  C102       -0.2155
   2132  C1'       20.5340  -12.9600  -26.3410 C.3   102  C102        0.2421
   2133  N1        20.8740  -11.9560  -25.3060 N.ar  102  C102       -0.2535
   2134  C2        22.1880  -11.4880  -25.1920 C.ar  102  C102        0.3532
   2135  O2        23.0570  -11.9220  -25.9640 O.2   102  C102       -0.2443
   2136  N3        22.4800  -10.5720  -24.2380 N.ar  102  C102       -0.1739
   2137  C4        21.5230  -10.1240  -23.4220 C.ar  102  C102        0.1759
   2138  N4        21.8540   -9.2210  -22.4960 N.pl3 102  C102       -0.1070
   2139  C5        20.1790  -10.5810  -23.5160 C.ar  102  C102        0.0566
   2140  C6        19.9060  -11.4840  -24.4630 C.ar  102  C102        0.0850
   2141  OP1       16.6300  -11.1330  -23.1510 O.3   102  C102       -0.4373
   2142  OP2       15.2320  -11.9680  -25.1120 O.co2 102  C102       -0.5172
@<TRIPOS>BOND
     1  2131  2130    1
     2  2127  2132    1
     3  2127  2126    1
     4  2132  2130    1
     5  2132  2133    1
     6  2126  2124    1
     7  2126  2128    1
     8  2135  2134    2
     9  2130  2128    1
    10  2124  2125    1
    11  2133  2134   ar
    12  2133  2140   ar
    13  2128  2129    1
    14  2134  2136   ar
    15  2142  2123    2
    16  2140  2139   ar
    17  2125  2123    1
    18  2136  2137   ar
    19  2123  2141    1
    20  2123  2109    1
    21  2139  2137   ar
    22  2137  2138    1
    23  2109  2108    1
    24  2111  2110    1
    25  2108  2110    1
    26  2108  2106    1
    27  2110  2112    1
    28  2106  2104    1
    29  2106  2107    1
    30  2104  2105    1
    31  2112  2107    1
    32  2112  2113    1
    33  2105  2103    1
    34  2115  2114    2
    35  2113  2114   ar
    36  2113  2120   ar
    37  2114  2116   ar
    38  2120  2119   ar
    39  2121  2103    2
    40  2103  2122    1
    41  2103  2089    1
    42  2116  2117   ar
    43  2119  2117   ar
    44  2117  2118    1
    45  2089  2088    1
    46     5    10    1
    47     5     4    1
    48  2088  2090    1
    49  2088  2086    1
    50    10    20    1
    51    10     8    1
    52  2090  2091    1
    53  2090  2092    1
    54    20    19   ar
    55    20    14   ar
    56     9     8    1
    57    19    18   ar
    58     4     2    1
    59     4     6    1
    60    13    14   ar
    61    13    12   ar
    62    14    15   ar
    63     2     3    1
    64    12    11   ar
    65    18    15   ar
    66    15    16   ar
    67     8     6    1
    68  2086  2084    1
    69  2086  2087    1
    70  2084  2085    1
    71    11    16   ar
    72    16    17    1
    73  2101  2083    2
    74  2098  2097    2
    75    21     1    1
    76     3     1    1
    77  2097  2096   ar
    78  2097  2099   ar
    79  2096  2094   ar
    80    22     1    1
    81  2099  2100   ar
    82  2094  2095    2
    83  2094  2093   ar
    84  2085  2083    1
    85  2100  2093   ar
    86  2093  2092    1
    87  2102  2083    1
    88     6     7    1
    89  2092  2087    1
    90  2083  2069    1
    91     7    23    1
    92    27    32    1
    93    27    26    1
    94  2069  2068    1
    95    41    42   ar
    96    41    40   ar
    97    32    42    1
    98    32    30    1
    99    42    36   ar
   100    40    37   ar
   101    24    26    1
   102    24    25    1
   103    23    25    1
   104    23    44    2
   105    23    43    1
   106    26    28    1
   107    36    37   ar
   108    36    35   ar
   109    37    38   ar
   110    35    34   ar
   111    38    39    1
   112    38    33   ar
   113  2068  2070    1
   114  2068  2066    1
   115  2078  2077    2
   116    34    33   ar
   117  2070  2071    1
   118  2070  2072    1
   119  2077  2076   ar
   120  2077  2079   ar
   121  2082  2063    2
   122  2081  2063    1
   123  2076  2074   ar
   124  2021  2003    2
   125    31    30    1
   126  2079  2080   ar
   127  2065  2063    1
   128  2065  2064    1
   129    30    28    1
   130  2074  2075    2
   131  2074  2073   ar
   132  2063  2049    1
   133  2080  2073   ar
   134    28    29    1
   135  2073  2072    1
   136  2066  2064    1
   137  2066  2067    1
   138  2001  1981    2
   139  2022  2003    1
   140  2072  2067    1
   141  2003  1987    1
   142  2003  2005    1
   143  2062  2043    2
   144  2042  2023    2
   145  2041  2023    1
   146    29    45    1
   147  2061  2043    1
   148  1987  1986    1
   149  2049  2048    1
   150  2023  2009    1
   151  2023  2025    1
   152  2005  2004    1
   153  2058  2057    2
   154  2043  2045    1
   155  2043  2029    1
   156  1982  1983    1
   157  1982  1984    1
   158  1981  1983    1
   159  1981  1964    1
   160  1981  2002    1
   161    61    60    1
   162  2045  2044    1
   163    62    59   ar
   164    62    63   ar
   165  2057  2059   ar
   166  2057  2056   ar
   167  2048  2050    1
   168  2048  2046    1
   169    60    59   ar
   170    60    55   ar
   171  2059  2060   ar
   172  2004  2006    1
   173    59    58   ar
   174    63    64   ar
   175    66    45    2
   176  1964  1963    1
   177    45    47    1
   178    45    65    1
   179    55    56   ar
   180  1984  1986    1
   181  1984  1985    1
   182    49    54    1
   183    49    48    1
   184  1986  1988    1
   185  2009  2008    1
   186  2025  2024    1
   187  2056  2054   ar
   188    58    64   ar
   189    58    57   ar
   190    64    54    1
   191  2060  2053   ar
   192  2050  2051    1
   193  2050  2052    1
   194    56    57   ar
   195  2044  2046    1
   196    54    52    1
   197  2029  2028    1
   198    47    46    1
   199  2054  2053   ar
   200  2054  2055    2
   201  2053  2052    1
   202  2008  2006    1
   203  2008  2010    1
   204    46    48    1
   205  2046  2047    1
   206  2006  2007    1
   207  2024  2026    1
   208    48    50    1
   209  1989  1988    1
   210  2028  2026    1
   211  2028  2030    1
   212  1966  1965    1
   213  2038  2037    1
   214  2039  2037   ar
   215  2039  2040   ar
   216  1963  1961    1
   217  1963  1965    1
   218  2052  2047    1
   219  1988  1990    1
   220  1985  1990    1
   221  2019  2020   ar
   222  2019  2017   ar
   223  2020  2013   ar
   224  1959  1961    1
   225  1959  1960    1
   226  1961  1962    1
   227  2037  2036   ar
   228  2040  2033   ar
   229  1979  1958    2
   230  2026  2027    1
   231    84    83    2
   232  1965  1967    1
   233  2007  2012    1
   234    52    50    1
   235    52    53    1
   236  2010  2012    1
   237  2010  2011    1
   238  2030  2032    1
   239  2030  2031    1
   240  1990  2000    1
   241  1960  1958    1
   242    50    51    1
   243  2018  2017    1
   244  2036  2034   ar
   245  2017  2016   ar
   246  2033  2034   ar
   247  2033  2032    1
   248    83    77   ar
   249    83    82   ar
   250  2013  2012    1
   251  2013  2014   ar
   252    77    78   ar
   253  2027  2032    1
   254  2034  2035    2
   255  1999  2000   ar
   256  1999  1998   ar
   257  1958  1980    1
   258  1958  1942    1
   259    85    82   ar
   260    85    86   ar
   261    82    81   ar
   262  1962  1967    1
   263  2000  1994   ar
   264  1967  1978    1
   265    78    79    1
   266    78    80   ar
   267  2016  2014   ar
   268    86    87   ar
   269  2014  2015    2
   270    51    67    1
   271    81    80   ar
   272    81    87   ar
   273  1998  1995   ar
   274  1942  1941    1
   275    87    76    1
   276   107   106    2
   277  1944  1943    1
   278  1994  1995   ar
   279  1994  1993   ar
   280  1978  1972   ar
   281  1978  1977   ar
   282    89    67    2
   283   100   106   ar
   284   100   101   ar
   285    71    76    1
   286    71    70    1
   287   106   105   ar
   288  1971  1972   ar
   289  1971  1969   ar
   290    76    74    1
   291  1995  1996   ar
   292  1993  1992   ar
   293    67    69    1
   294    67    88    1
   295   125   124    1
   296  1943  1941    1
   297  1943  1945    1
   298  1972  1973   ar
   299   102   101    1
   300  1977  1976   ar
   301  1941  1939    1
   302  1970  1969    1
   303   101   103   ar
   304    69    68    1
   305   105   108   ar
   306   105   104   ar
   307  1969  1968   ar
   308   123   124   ar
   309   123   129   ar
   310   108   109   ar
   311   124   126   ar
   312  1956  1936    2
   313    68    70    1
   314   103   104   ar
   315    70    72    1
   316  1996  1997    1
   317  1996  1991   ar
   318  1992  1991   ar
   319   104   110   ar
   320  1973  1976   ar
   321  1973  1974   ar
   322  1939  1937    1
   323  1939  1940    1
   324  1934  1914    2
   325    74    75    1
   326    74    72    1
   327   130   129    2
   328  1948  1947   ar
   329  1948  1949   ar
   330  1938  1936    1
   331  1938  1937    1
   332   887   886    2
   333   129   128   ar
   334   109   110   ar
   335  1945  1940    1
   336  1945  1955    1
   337  1968  1974   ar
   338  1947  1946   ar
   339   126   127   ar
   340  1920  1936    1
   341  1920  1919    1
   342   110    99    1
   343  1915  1917    1
   344  1915  1916    1
   345  1936  1957    1
   346    72    73    1
   347  1974  1975    2
   348   153   152    2
   349  1949  1955   ar
   350  1949  1950   ar
   351  1917  1919    1
   352  1917  1918    1
   353   128   127   ar
   354   128   131   ar
   355   886   888   ar
   356   886   885   ar
   357   127   133   ar
   358  1955  1954   ar
   359    99    94    1
   360    99    97    1
   361  1946  1951   ar
   362  1914  1916    1
   363  1914  1900    1
   364  1914  1935    1
   365  1902  1901    1
   366  1919  1921    1
   367  1900  1899    1
   368    94    93    1
   369   888   889   ar
   370   885   883   ar
   371  1922  1921    1
   372   152   146   ar
   373   152   151   ar
   374    73    90    1
   375   131   132   ar
   376   133   122    1
   377   133   132   ar
   378  1950  1951   ar
   379  1950  1953   ar
   380   146   147   ar
   381  1918  1923    1
   382  1951  1952    1
   383  1954  1953   ar
   384   112    90    2
   385   122   117    1
   386   122   120    1
   387  1921  1923    1
   388    97    98    1
   389    97    95    1
   390  1901  1899    1
   391  1901  1903    1
   392   889   882   ar
   393   860   861   ar
   394   860   865   ar
   395   883   884    2
   396   883   882   ar
   397   861   862   ar
   398  1899  1897    1
   399   151   154   ar
   400   151   150   ar
   401   154   155   ar
   402   117   116    1
   403    92    90    1
   404    92    91    1
   405    90   111    1
   406   891   872    2
   407   866   865    1
   408    93    91    1
   409    93    95    1
   410   235   234   ar
   411   235   236   ar
   412   865   864   ar
   413  1923  1933    1
   414   234   239   ar
   415   882   881    1
   416   890   872    1
   417   880   879    1
   418   254   253    1
   419   862   863   ar
   420   277   276    1
   421  1897  1895    1
   422  1897  1898    1
   423   147   148    1
   424   147   149   ar
   425   121   120    1
   426    95    96    1
   427   120   118    1
   428   258   257    1
   429   858   857    1
   430   864   863   ar
   431   864   867   ar
   432   863   869   ar
   433  1903  1898    1
   434  1903  1904    1
   435   872   874    1
   436   872   856    1
   437   879   881    1
   438   879   877    1
   439   236   237   ar
   440   857   859    1
   441   857   855    1
   442   150   149   ar
   443   150   156   ar
   444  1906  1905    2
   445   155   156   ar
   446  1895  1896    1
   447   272   273    1
   448   272   270    1
   449   272   274    1
   450   273   278    1
   451   193   192    1
   452   867   868   ar
   453   881   876    1
   454   239   240    1
   455   239   238   ar
   456   116   118    1
   457   116   114    1
   458   869   868   ar
   459   869   859    1
   460  1933  1932   ar
   461  1933  1927   ar
   462   259   257   ar
   463   259   260   ar
   464   896   901    1
   465   896   895    1
   466   278   276    1
   467   278   279    1
   468   270   271    1
   469   276   274    1
   470   253   255    1
   471   253   251    1
   472   257   256   ar
   473   255   250    1
   474   255   266    1
   475  1932  1931   ar
   476   275   274    1
   477   275   289    1
   478   859   854    1
   479   191   192   ar
   480   191   197   ar
   481   874   873    1
   482   156   145    1
   483   118   119    1
   484   901   902    1
   485   901   899    1
   486   198   197    2
   487    96   113    1
   488   250   249    1
   489   856   855    1
   490  1905  1904   ar
   491  1905  1907   ar
   492  1904  1911   ar
   493   114   115    1
   494   237   238   ar
   495   237   243   ar
   496   115   113    1
   497   855   853    1
   498   900   899    1
   499   192   194   ar
   500  1896  1894    1
   501   895   893    1
   502   895   897    1
   503   877   875    1
   504   877   878    1
   505   310   289    2
   506   238   241   ar
   507   219   218    2
   508   249   251    1
   509   249   247    1
   510   281   280    2
   511   876   875    1
   512   197   196   ar
   513   902   909   ar
   514   902   903   ar
   515   252   251    1
   516   252   269    1
   517   893   894    1
   518   260   266   ar
   519   260   261   ar
   520  1912  1894    2
   521  1927  1926   ar
   522  1927  1928   ar
   523   266   265   ar
   524   904   903    2
   525   909   908   ar
   526   217   218   ar
   527   217   215   ar
   528   256   262   ar
   529   279   280   ar
   530   279   286   ar
   531   903   905   ar
   532   144   143    1
   533  1931  1928   ar
   534   290   292    1
   535   290   291    1
   536   271   269    1
   537   113   135    2
   538   113   134    1
   539   289   291    1
   540   289   311    1
   541   899   897    1
   542  1926  1925   ar
   543   873   875    1
   544  1883  1882    1
   545   232   231    1
   546   119   136    1
   547   878   892    1
   548   216   215    2
   549   143   145    1
   550   143   141    1
   551   854   853    1
   552  1907  1908   ar
   553  1911  1910   ar
   554   145   140    1
   555   218   220   ar
   556   280   282   ar
   557   243   233    1
   558   243   242   ar
   559   908   906   ar
   560   287   269    2
   561  1879  1878    1
   562  1894  1877    1
   563  1894  1913    1
   564   894   892    1
   565   233   231    1
   566   233   228    1
   567   905   906   ar
   568   853   851    1
   569   897   898    1
   570   292   293    1
   571   292   294    1
   572   269   288    1
   573   194   195   ar
   574   247   248    1
   575   231   229    1
   576  1928  1929   ar
   577   215   214   ar
   578   241   242   ar
   579   906   907    2
   580   293   298    1
   581   286   285   ar
   582   261   262   ar
   583   261   264   ar
   584  1877  1876    1
   585   196   195   ar
   586   196   199   ar
   587   265   264   ar
   588   140   139    1
   589   262   263    2
   590   898   912    1
   591  1882  1884   ar
   592  1882  1881   ar
   593  1908  1910   ar
   594  1908  1909    1
   595   892   910    2
   596   892   911    1
   597   137   139    1
   598   137   138    1
   599  1925  1924   ar
   600  1878  1876    1
   601  1878  1880    1
   602   195   201   ar
   603  1884  1885   ar
   604   282   283   ar
   605   141   139    1
   606   141   142    1
   607   136   158    2
   608   136   138    1
   609   136   157    1
   610   220   221   ar
   611   228   227    1
   612   248   246    1
   613   851   852    1
   614   297   296    1
   615   298   296    1
   616   298   309    1
   617  1929  1924   ar
   618  1929  1930    1
   619  1876  1874    1
   620   214   221   ar
   621   214   213    1
   622   285   283   ar
   623   295   294    1
   624   295   312    1
   625   294   296    1
   626  1881  1887   ar
   627   199   200   ar
   628   229   230    1
   629   229   227    1
   630   283   284    1
   631   852   850    1
   632  1880  1891    1
   633  1880  1875    1
   634   230   246    1
   635   142   159    1
   636   227   225    1
   637  1885  1891   ar
   638  1885  1886   ar
   639   912   930    2
   640   912   931    1
   641   912   914    1
   642   180   159    2
   643   308   309   ar
   644   308   307   ar
   645   201   200   ar
   646   201   190    1
   647   213   211    1
   648   213   208    1
   649   916   915    1
   650   916   921    1
   651   330   312    2
   652   309   303   ar
   653  1874  1875    1
   654  1874  1872    1
   655   913   914    1
   656   913   915    1
   657   246   267    2
   658   246   268    1
   659   485   465    2
   660  1891  1890   ar
   661   312   331    1
   662   312   314    1
   663   836   835    1
   664   211   212    1
   665   211   209    1
   666   929   928   ar
   667   929   922   ar
   668  1887  1886   ar
   669  1887  1888    2
   670   928   926   ar
   671   159   179    1
   672   159   161    1
   673   915   917    1
   674  1886  1889   ar
   675   190   185    1
   676   190   188    1
   677   826   808    2
   678   921   922    1
   679   921   919    1
   680   307   304   ar
   681  1859  1860   ar
   682  1859  1864   ar
   683   922   923   ar
   684   926   927    1
   685   926   925   ar
   686   208   207    1
   687   850   871    2
   688   850   870    1
   689   850   834    1
   690  1860  1861   ar
   691   225   226    1
   692   303   304   ar
   693   303   302   ar
   694  1872  1873    1
   695   466   468    1
   696   466   467    1
   697   185   184    1
   698   313   314    1
   699   313   315    1
   700   226   224    1
   701   923   925   ar
   702   923   924    2
   703  1865  1864    1
   704   449   465    1
   705   449   448    1
   706   189   188    1
   707   835   833    1
   708   835   837    1
   709   451   450    1
   710  1890  1889   ar
   711   465   467    1
   712   465   486    1
   713   827   808    1
   714   506   487    2
   715   304   305   ar
   716  1864  1863   ar
   717   302   300   ar
   718   209   207    1
   719   209   210    1
   720   849   828    2
   721   806   788    2
   722   188   186    1
   723   161   160    1
   724   808   794    1
   725   808   810    1
   726   834   833    1
   727   505   487    1
   728  1873  1871    1
   729   833   831    1
   730   468   469    1
   731   468   470    1
   732   807   788    1
   733   917   919    1
   734   917   918    1
   735   919   920    1
   736  1861  1862   ar
   737   846   845   ar
   738   846   847   ar
   739   207   205    1
   740   471   487    1
   741   471   470    1
   742   786   765    2
   743   845   842   ar
   744   487   489    1
   745   446   448    1
   746   446   444    1
   747   446   447    1
   748   187   186    1
   749   187   204    1
   750   448   450    1
   751   315   316    1
   752   315   317    1
   753   788   790    1
   754   788   771    1
   755   210   224    1
   756   245   224    2
   757  1096  1095    1
   758   184   186    1
   759   184   182    1
   760   206   205    1
   761   206   204    1
   762   837   847    1
   763   837   832    1
   764   847   841   ar
   765   224   244    1
   766  1130  1110    2
   767   794   793    1
   768   848   828    1
   769   450   452    1
   770   444   445    1
   771   828   830    1
   772   828   814    1
   773   830   829    1
   774   316   321    1
   775   160   162    1
   776  1863  1862   ar
   777  1863  1866   ar
   778   954   932    2
   779   300   299   ar
   780   300   301    1
   781   918   932    1
   782  1111  1113    1
   783  1111  1112    1
   784   810   809    1
   785   790   789    1
   786   305   299   ar
   787   305   306    2
   788   469   474    1
   789   842   841   ar
   790   842   843   ar
   791   470   472    1
   792  1892  1871    2
   793  1862  1868   ar
   794  1094  1110    1
   795  1094  1093    1
   796   445   443    1
   797   841   840   ar
   798   844   843    1
   799   447   452    1
   800  1871  1893    1
   801  1871  1855    1
   802   843   838   ar
   803   429   428    1
   804  1113  1114    1
   805  1113  1115    1
   806   789   791    1
   807   831   829    1
   808   831   832    1
   809   809   811    1
   810   473   472    1
   811  1091  1093    1
   812  1091  1089    1
   813  1091  1092    1
   814   329   328   ar
   815   329   322   ar
   816   452   462    1
   817   204   222    2
   818   204   223    1
   819   182   183    1
   820   183   181    1
   821   840   839   ar
   822   328   326   ar
   823  1150  1132    2
   824   791   793    1
   825   791   792    1
   826   932   953    1
   827   932   934    1
   828  1110  1112    1
   829  1110  1131    1
   830   765   751    1
   831   765   767    1
   832   765   787    1
   833  1116  1115    1
   834  1116  1132    1
   835   317   318    1
   836   317   319    1
   837   766   767    1
   838   766   768    1
   839   489   488    1
   840  1074  1073    1
   841   751   750    1
   842  1856  1857    1
   843  1856  1854    1
   844  1856  1858    1
   845   838   839   ar
   846   793   795    1
   847  1866  1867   ar
   848  1095  1093    1
   849  1095  1097    1
   850  1089  1090    1
   851   472   474    1
   852   771   770    1
   853   318   332    1
   854  1114  1119    1
   855  1092  1097    1
   856   351   332    2
   857   474   484    1
   858   321   322    1
   859   321   319    1
   860  1868  1867   ar
   861  1868  1858    1
   862   162   164    1
   863   162   163    1
   864   814   813    1
   865   770   768    1
   866   770   772    1
   867   463   443    2
   868  1118  1117    1
   869  1855  1854    1
   870  1115  1117    1
   871   796   795    1
   872  1097  1107    1
   873   322   323   ar
   874   768   769    1
   875   443   427    1
   876   443   464    1
   877   350   332    1
   878   428   430    1
   879   428   426    1
   880  1132  1151    1
   881  1132  1134    1
   882   432   433   ar
   883   432   431   ar
   884   763   745    2
   885   746   748    1
   886   746   747    1
   887   433   434   ar
   888   165   164    1
   889   165   181    1
   890  1854  1852    1
   891   332   334    1
   892   813   811    1
   893   813   815    1
   894   503   504   ar
   895   503   501   ar
   896   934   933    1
   897   427   426    1
   898   811   812    1
   899  1858  1853    1
   900   488   490    1
   901  1077  1078   ar
   902  1077  1076   ar
   903  1078  1079   ar
   904   319   320    1
   905   326   327    2
   906   326   325   ar
   907   164   166    1
   908   462   456   ar
   909   462   461   ar
   910   795   797    1
   911   748   750    1
   912   748   749    1
   913   792   797    1
   914   181   203    2
   915   181   202    1
   916   502   501    1
   917   163   168    1
   918   410   409    1
   919  1117  1119    1
   920   483   484   ar
   921   483   482   ar
   922  1119  1129    1
   923   750   752    1
   924  1073  1075    1
   925  1073  1071    1
   926   455   456   ar
   927   455   454   ar
   928   484   478   ar
   929   753   752    1
   930   504   497   ar
   931   824   825   ar
   932   824   822   ar
   933  1090  1088    1
   934   430   425    1
   935   430   440    1
   936   825   818   ar
   937   426   424    1
   938  1108  1088    2
   939   501   500   ar
   940   431   436   ar
   941   772   773    1
   942   772   774    1
   943   747   745    1
   944   323   325   ar
   945   323   324    2
   946   456   457   ar
   947   408   409   ar
   948   408   414   ar
   949  1072  1088    1
   950  1072  1071    1
   951   933   935    1
   952  1075  1070    1
   953  1075  1085    1
   954   812   817    1
   955   434   440   ar
   956   434   435   ar
   957  1134  1133    1
   958   797   798    1
   959   745   731    1
   960   745   764    1
   961  1107  1101   ar
   962  1107  1106   ar
   963  1076  1081   ar
   964   769   774    1
   965   461   460   ar
   966   409   411   ar
   967   752   754    1
   968  1853  1852    1
   969   424   425    1
   970   424   422    1
   971  1852  1850    1
   972  1100  1101   ar
   973  1100  1099   ar
   974   415   414    2
   975  1088  1109    1
   976   454   453   ar
   977   815   817    1
   978   815   816    1
   979  1837  1836    1
   980  1079  1085   ar
   981  1079  1080   ar
   982   491   490    1
   983   491   496    1
   984  1071  1069    1
   985   334   333    1
   986   490   492    1
   987   440   439   ar
   988  1841  1840    2
   989   482   479   ar
   990   177   178   ar
   991   177   176   ar
   992   823   822    1
   993   749   754    1
   994   822   821   ar
   995   731   730    1
   996  1129  1128   ar
   997  1129  1123   ar
   998   168   166    1
   999   168   178    1
  1000   166   167    1
  1001   818   817    1
  1002   818   819   ar
  1003   414   413   ar
  1004  1070  1069    1
  1005  1851  1850    1
  1006  1851  1849    1
  1007  1128  1127   ar
  1008   478   477   ar
  1009   478   479   ar
  1010  1101  1102   ar
  1011  1085  1084   ar
  1012   774   785    1
  1013   497   496    1
  1014   497   498   ar
  1015  1069  1067    1
  1016   973   955    2
  1017   935   936    1
  1018   935   937    1
  1019   526   507    2
  1020  1106  1105   ar
  1021   436   435   ar
  1022   436   437    1
  1023   348   349   ar
  1024   348   346   ar
  1025  1870  1849    2
  1026   178   172   ar
  1027   500   498   ar
  1028   176   173   ar
  1029   798   805   ar
  1030   798   799   ar
  1031   754   755    1
  1032   492   493    1
  1033   492   494    1
  1034   435   438   ar
  1035   457   460   ar
  1036   457   458   ar
  1037   333   335    1
  1038   805   804   ar
  1039  1133  1135    1
  1040  1099  1098   ar
  1041   411   412   ar
  1042   347   346    1
  1043  1081  1080   ar
  1044  1081  1082    1
  1045   974   955    1
  1046   477   476   ar
  1047   733   732    1
  1048   479   480   ar
  1049   496   494    1
  1050  1836  1838    1
  1051  1836  1834    1
  1052  1080  1083   ar
  1053  1055  1054    1
  1054   821   819   ar
  1055   566   565    1
  1056   422   423    1
  1057   349   342   ar
  1058   498   499    2
  1059   938   955    1
  1060   938   937    1
  1061  1840  1842   ar
  1062  1840  1839   ar
  1063   453   458   ar
  1064   955   957    1
  1065   819   820    2
  1066   493   507    1
  1067   936   941    1
  1068  1849  1835    1
  1069  1849  1869    1
  1070   439   438   ar
  1071   522   521    1
  1072  1123  1122   ar
  1073  1123  1124   ar
  1074   346   345   ar
  1075   413   412   ar
  1076   413   416   ar
  1077   730   732    1
  1078   730   728    1
  1079   785   784   ar
  1080   785   779   ar
  1081  1127  1124   ar
  1082   392   391    2
  1083  1148  1149   ar
  1084  1148  1146   ar
  1085   784   783   ar
  1086   937   939    1
  1087   507   525    1
  1088   507   509    1
  1089  1053  1054   ar
  1090  1053  1059   ar
  1091  1835  1834    1
  1092   799   800    2
  1093   799   801   ar
  1094   412   418   ar
  1095  1102  1105   ar
  1096  1102  1103   ar
  1097  1136  1135    1
  1098  1136  1141    1
  1099  1842  1843   ar
  1100  1838  1839    1
  1101  1838  1833    1
  1102   172   173   ar
  1103   172   171   ar
  1104   458   459    1
  1105  1122  1121   ar
  1106  1149  1142   ar
  1107  1084  1083   ar
  1108   804   802   ar
  1109   173   174   ar
  1110  1067  1068    1
  1111   494   495    1
  1112   732   734    1
  1113  1054  1056   ar
  1114  1135  1137    1
  1115   560   565   ar
  1116   560   561   ar
  1117   523   521   ar
  1118   523   524   ar
  1119  1060  1059    2
  1120   755   762   ar
  1121   755   756   ar
  1122   423   421    1
  1123   728   726    1
  1124   728   729    1
  1125   544   543    2
  1126   374   352    2
  1127   336   335    1
  1128   336   341    1
  1129  1834  1832    1
  1130  1839  1846   ar
  1131  1098  1103   ar
  1132  1308  1307    1
  1133   335   337    1
  1134   565   564   ar
  1135   369   368    2
  1136  1124  1125   ar
  1137   476   475   ar
  1138   521   520   ar
  1139  1059  1058   ar
  1140   480   475   ar
  1141   480   481    1
  1142   762   761   ar
  1143  1147  1146    1
  1144  1289  1288    1
  1145   726   727    1
  1146   342   341    1
  1147   342   343   ar
  1148   416   417   ar
  1149  1146  1145   ar
  1150   171   170   ar
  1151   801   802   ar
  1152   757   756    2
  1153  1103  1104    1
  1154   940   939    1
  1155   941   939    1
  1156   941   952    1
  1157   345   343   ar
  1158   391   385   ar
  1159   391   390   ar
  1160   802   803    2
  1161  1142  1141    1
  1162  1142  1143   ar
  1163   957   956    1
  1164  1068  1066    1
  1165  1285  1284    1
  1166   783   780   ar
  1167   174   175    1
  1168   174   169   ar
  1169  1833  1832    1
  1170   779   778   ar
  1171   779   780   ar
  1172  1141  1139    1
  1173  1056  1057   ar
  1174   337   338    1
  1175   337   339    1
  1176   418   417   ar
  1177   418   407    1
  1178  1832  1830    1
  1179   727   725    1
  1180   756   758   ar
  1181   951   952   ar
  1182   951   950   ar
  1183  1843  1844    2
  1184  1843  1845   ar
  1185  1121  1120   ar
  1186   524   517   ar
  1187   509   508    1
  1188   561   562   ar
  1189  1303  1304    1
  1190  1303  1301    1
  1191  1303  1305    1
  1192   405   406    1
  1193   405   407    1
  1194   405   403    1
  1195   385   386   ar
  1196   341   339    1
  1197  1304  1309    1
  1198   441   421    2
  1199   734   729    1
  1200   734   735    1
  1201   343   344    2
  1202   778   776   ar
  1203   370   367   ar
  1204   370   371   ar
  1205  1321  1323    1
  1206  1321  1322    1
  1207  1137  1139    1
  1208  1137  1138    1
  1209  1306  1305    1
  1210  1306  1320    1
  1211   543   537   ar
  1212   543   542   ar
  1213   956   958    1
  1214   368   367   ar
  1215   368   362   ar
  1216  1058  1057   ar
  1217  1058  1061   ar
  1218   338   352    1
  1219  1846  1845   ar
  1220   352   373    1
  1221   352   354    1
  1222   170   169   ar
  1223   421   404    1
  1224   421   442    1
  1225   952   946   ar
  1226  1307  1309    1
  1227  1307  1305    1
  1228  1288  1290   ar
  1229  1288  1287   ar
  1230  1309  1310    1
  1231  1145  1143   ar
  1232  1290  1291   ar
  1233   564   567   ar
  1234   564   563   ar
  1235   520   518   ar
  1236   780   781   ar
  1237  1125  1120   ar
  1238  1125  1126    1
  1239  1057  1063   ar
  1240   407   402    1
  1241  1301  1302    1
  1242  1323  1324    1
  1243  1323  1325    1
  1244   761   759   ar
  1245  1143  1144    2
  1246  1266  1265    1
  1247  1338  1320    2
  1248   390   393   ar
  1249   390   389   ar
  1250   393   394   ar
  1251   737   736    2
  1252   950   947   ar
  1253   367   366   ar
  1254   339   340    1
  1255   537   538   ar
  1256  1324  1329    1
  1257  1139  1140    1
  1258  1138  1152    1
  1259  1284  1286    1
  1260  1284  1282    1
  1261   567   568   ar
  1262   403   404    1
  1263   403   401    1
  1264  1286  1281    1
  1265  1286  1297    1
  1266   545   542   ar
  1267   545   546   ar
  1268   508   510    1
  1269   758   759   ar
  1270   371   372   ar
  1271   997   975    2
  1272   517   518   ar
  1273   517   516    1
  1274  1037  1036    2
  1275  1066  1087    2
  1276  1066  1086    1
  1277  1066  1049    1
  1278   542   541   ar
  1279  1312  1311    2
  1280   386   387    1
  1281   386   388   ar
  1282  1061  1062   ar
  1283   562   563   ar
  1284  1830  1831    1
  1285   735   736   ar
  1286   735   742   ar
  1287  1320  1322    1
  1288  1320  1339    1
  1289  1171  1152    2
  1290   362   363   ar
  1291   996   975    1
  1292   743   725    2
  1293  1328  1327    1
  1294   725   744    1
  1295   725   708    1
  1296  1050  1051    1
  1297  1050  1048    1
  1298  1050  1052    1
  1299   563   569   ar
  1300   759   760    1
  1301   518   519    2
  1302   354   353    1
  1303  1287  1293   ar
  1304   736   738   ar
  1305  1326  1325    1
  1306  1326  1340    1
  1307   776   777    1
  1308   776   775   ar
  1309  1063  1062   ar
  1310  1063  1052    1
  1311  1291  1297   ar
  1312  1291  1292   ar
  1313  1281  1280    1
  1314   511   510    1
  1315   511   516    1
  1316   397   375    2
  1317  1325  1327    1
  1318  1310  1311   ar
  1319  1310  1317   ar
  1320   946   947   ar
  1321   946   945   ar
  1322   958   960    1
  1323   958   959    1
  1324  1329  1327    1
  1325  1329  1330    1
  1326   975   961    1
  1327   975   977    1
  1328   389   388   ar
  1329   389   395   ar
  1330  1283  1282    1
  1331  1283  1300    1
  1332   781   775   ar
  1333   781   782    2
  1334   402   401    1
  1335  1280  1282    1
  1336  1280  1278    1
  1337  1302  1300    1
  1338   971   972   ar
  1339   971   969   ar
  1340  1297  1296   ar
  1341  1265  1267   ar
  1342  1265  1264   ar
  1343  1358  1340    2
  1344   961   960    1
  1345   394   395   ar
  1346  1049  1048    1
  1347  1152  1170    1
  1348  1152  1154    1
  1349   947   948   ar
  1350  1831  1829    1
  1351   708   707    1
  1352  1167  1166    2
  1353  1311  1313   ar
  1354   972   965   ar
  1355   742   741   ar
  1356  1036  1030   ar
  1357  1036  1035   ar
  1358   960   962    1
  1359  1048  1046    1
  1360   366   372   ar
  1361   366   365   ar
  1362  1052  1047    1
  1363   549   527    2
  1364   510   512    1
  1365   714   713    1
  1366   538   539    1
  1367   538   540   ar
  1368  1030  1031   ar
  1369   516   514    1
  1370   568   569   ar
  1371   546   547   ar
  1372   401   399    1
  1373  1168  1166   ar
  1374  1168  1169   ar
  1375   372   361    1
  1376  1318  1300    2
  1377  1267  1268   ar
  1378   959   964    1
  1379   738   739   ar
  1380   541   540   ar
  1381   541   547   ar
  1382  1340  1359    1
  1383  1340  1342    1
  1384   710   709    1
  1385  1264  1270   ar
  1386   363   365   ar
  1387   363   364    1
  1388   569   559    1
  1389   512   514    1
  1390   512   513    1
  1391  1293  1292   ar
  1392  1293  1294    2
  1393  1300  1319    1
  1394  1317  1316   ar
  1395   945   943   ar
  1396  1292  1295   ar
  1397   395   384    1
  1398  1166  1165   ar
  1399  1014  1013    1
  1400  1827  1809    2
  1401   400   399    1
  1402   400   398    1
  1403   353   355    1
  1404   420   398    2
  1405   970   969    2
  1406   969   968   ar
  1407  1330  1337   ar
  1408  1330  1331   ar
  1409   709   707    1
  1410   709   711    1
  1411  1262  1261    1
  1412   707   705    1
  1413  1278  1279    1
  1414   713   715   ar
  1415   713   712   ar
  1416  1169  1162   ar
  1417   741   739   ar
  1418  1296  1295   ar
  1419  1035  1038   ar
  1420  1035  1034   ar
  1421   375   377    1
  1422   375   396    1
  1423   375   358    1
  1424  1341  1342    1
  1425  1341  1343    1
  1426  1154  1153    1
  1427  1337  1336   ar
  1428   514   515    1
  1429  1032  1031    1
  1430   547   536    1
  1431  1031  1033   ar
  1432  1313  1314   ar
  1433   948   949    2
  1434   948   942   ar
  1435   357   355    1
  1436   357   358    1
  1437   357   359    1
  1438   977   976    1
  1439   965   964    1
  1440   965   966   ar
  1441   715   716   ar
  1442   739   740    2
  1443  1038  1039   ar
  1444  1047  1046    1
  1445   356   361    1
  1446   356   355    1
  1447   513   527    1
  1448  1829  1847    2
  1449  1829  1848    1
  1450  1829  1815    1
  1451   377   376    1
  1452   964   962    1
  1453   527   529    1
  1454   527   548    1
  1455  1046  1044    1
  1456   962   963    1
  1457   361   359    1
  1458  1019   998    2
  1459   976   978    1
  1460   398   419    1
  1461   398   381    1
  1462   712   718   ar
  1463   993   994   ar
  1464   993   990   ar
  1465  1268  1269   ar
  1466  1268  1274   ar
  1467  1332  1331    2
  1468  1316  1314   ar
  1469  1013  1012   ar
  1470  1013  1008   ar
  1471   943   942   ar
  1472   943   944    1
  1473  1331  1333   ar
  1474  1165  1163   ar
  1475   359   360    1
  1476   559   557    1
  1477   559   554    1
  1478  1270  1271    2
  1479  1270  1269   ar
  1480  1261  1263    1
  1481  1261  1259    1
  1482  1153  1155    1
  1483  1045  1044    1
  1484  1045  1043    1
  1485   384   382    1
  1486   384   379    1
  1487  1015  1012   ar
  1488  1015  1016   ar
  1489   382   380    1
  1490   382   383    1
  1491  1314  1315    1
  1492  1034  1033   ar
  1493  1034  1040   ar
  1494   992   991    2
  1495  1187  1186    1
  1496  1809  1795    1
  1497  1809  1811    1
  1498  1809  1828    1
  1499  1815  1814    1
  1500   994   995   ar
  1501   557   555    1
  1502   557   558    1
  1503   380   381    1
  1504   380   378    1
  1505  1343  1344    1
  1506  1343  1345    1
  1507   529   528    1
  1508  1065  1043    2
  1509  1263  1274    1
  1510  1263  1258    1
  1511   968   966   ar
  1512  1336  1334   ar
  1513   592   572    2
  1514  1279  1277    1
  1515  1810  1811    1
  1516  1810  1812    1
  1517  1344  1349    1
  1518  1162  1163   ar
  1519  1162  1161    1
  1520   716   722   ar
  1521   716   717   ar
  1522   705   703    1
  1523   705   706    1
  1524   966   967    2
  1525  1156  1155    1
  1526  1156  1161    1
  1527  1012  1011   ar
  1528   711   722    1
  1529   711   706    1
  1530  1039  1040   ar
  1531  1269  1272   ar
  1532  1008  1009   ar
  1533  1795  1794    1
  1534  1274  1273   ar
  1535   379   378    1
  1536   536   531    1
  1537   536   534    1
  1538  1246  1245    2
  1539   718   717   ar
  1540   718   719    2
  1541  1163  1164    2
  1542   555   556    1
  1543   555   553    1
  1544   990   991   ar
  1545   990   989   ar
  1546  1042  1020    2
  1547   722   721   ar
  1548   554   553    1
  1549   376   378    1
  1550   531   530    1
  1551   998  1018    1
  1552   998  1000    1
  1553   998   981    1
  1554  1043  1064    1
  1555  1043  1026    1
  1556  1333  1334   ar
  1557   991   985   ar
  1558  1040  1029    1
  1559   703   704    1
  1560   717   720   ar
  1561  1016  1017   ar
  1562  1155  1157    1
  1563  1247  1245   ar
  1564  1247  1248   ar
  1565  1812  1814    1
  1566  1812  1813    1
  1567   978   979    1
  1568   978   980    1
  1569   571   550    2
  1570  1334  1335    2
  1571  1161  1159    1
  1572  1258  1257    1
  1573  1814  1816    1
  1574  1208  1207    1
  1575  1186  1188   ar
  1576  1186  1185   ar
  1577   979   984    1
  1578  1259  1260    1
  1579  1259  1257    1
  1580  1260  1277    1
  1581   534   532    1
  1582   534   535    1
  1583   528   530    1
  1584   995   989   ar
  1585   995   984    1
  1586  1245  1244   ar
  1587  1249  1248    1
  1588   980   981    1
  1589   980   982    1
  1590  1349  1350    1
  1591  1349  1347    1
  1592   556   572    1
  1593  1345  1346    1
  1594  1345  1347    1
  1595   532   530    1
  1596   532   533    1
  1597   572   593    1
  1598   572   574    1
  1599  1277  1298    2
  1600  1277  1299    1
  1601   553   551    1
  1602  1188  1189   ar
  1603  1000   999    1
  1604  1357  1350   ar
  1605  1357  1356   ar
  1606  1011  1017   ar
  1607  1011  1010   ar
  1608  1257  1255    1
  1609  1797  1796    1
  1610  1009  1010   ar
  1611   721   720   ar
  1612  1273  1272   ar
  1613  1346  1360    1
  1614  1027  1025    1
  1615  1027  1029    1
  1616  1027  1028    1
  1617   551   552    1
  1618  1157  1159    1
  1619  1157  1158    1
  1620   989   988   ar
  1621  1794  1792    1
  1622  1794  1796    1
  1623  1248  1250   ar
  1624  1025  1026    1
  1625  1025  1023    1
  1626  1807  1789    2
  1627  1790  1792    1
  1628  1790  1791    1
  1629  1017  1007    1
  1630  1792  1793    1
  1631  1350  1351   ar
  1632  1185  1183   ar
  1633  1020  1022    1
  1634  1020  1041    1
  1635  1020  1004    1
  1636  1022  1021    1
  1637  1356  1354   ar
  1638  1029  1024    1
  1639  1191  1172    2
  1640   984   982    1
  1641   985   986   ar
  1642  1817  1816    1
  1643   704   702    1
  1644  1229  1228    1
  1645   552   550    1
  1646  1348  1347    1
  1647  1202  1207   ar
  1648  1202  1203   ar
  1649  1207  1206   ar
  1650  1159  1160    1
  1651   574   573    1
  1652  1813  1818    1
  1653   550   533    1
  1654   550   570    1
  1655  1816  1818    1
  1656   690   691   ar
  1657   690   695   ar
  1658  1796  1798    1
  1659   691   692   ar
  1660  1378  1360    2
  1661   982   983    1
  1662  1379  1360    1
  1663  1227  1228   ar
  1664  1227  1225   ar
  1665  1189  1182   ar
  1666  1244  1243    1
  1667  1244  1251   ar
  1668  1360  1362    1
  1669  1003  1004    1
  1670  1003  1005    1
  1671  1003  1001    1
  1672  1158  1172    1
  1673  1791  1789    1
  1674  1024  1023    1
  1675   999  1001    1
  1676  1242  1241    1
  1677  1351  1352    2
  1678  1351  1353   ar
  1679   988   986   ar
  1680  1255  1256    1
  1681  1023  1021    1
  1682   573   575    1
  1683  1354  1353   ar
  1684  1354  1355    2
  1685  1228  1230   ar
  1686   696   695    1
  1687  1243  1241    1
  1688  1243  1238    1
  1689   986   987    1
  1690   695   694   ar
  1691  1226  1225    2
  1692   724   702    2
  1693  1183  1182   ar
  1694  1183  1184    2
  1695  1789  1772    1
  1696  1789  1808    1
  1697  1250  1251   ar
  1698  1818  1819    1
  1699  1007  1005    1
  1700  1007  1002    1
  1701   692   693   ar
  1702  1005  1006    1
  1703  1172  1190    1
  1704  1172  1174    1
  1705  1241  1239    1
  1706  1793  1798    1
  1707   702   723    1
  1708   702   686    1
  1709  1002  1001    1
  1710  1203  1204   ar
  1711  1206  1209   ar
  1712  1206  1205   ar
  1713  1225  1224   ar
  1714  1182  1181    1
  1715  1798  1799    1
  1716  1772  1771    1
  1717  1826  1819   ar
  1718  1826  1825   ar
  1719  1209  1210   ar
  1720  1256  1254    1
  1721   693   694   ar
  1722   693   699   ar
  1723   694   697   ar
  1724   688   687    1
  1725  1774  1773    1
  1726  1362  1361    1
  1727  1819  1820   ar
  1728  1174  1173    1
  1729   687   685    1
  1730   687   689    1
  1731  1238  1237    1
  1732   575   576    1
  1733   575   577    1
  1734  1230  1231   ar
  1735  1361  1363    1
  1736  1205  1204   ar
  1737  1205  1211   ar
  1738  1825  1823   ar
  1739   686   685    1
  1740   576   581    1
  1741  1239  1240    1
  1742  1239  1237    1
  1743   699   689    1
  1744   699   698   ar
  1745  1176  1181    1
  1746  1176  1175    1
  1747   697   698   ar
  1748  1799  1806   ar
  1749  1799  1800   ar
  1750  1181  1179    1
  1751  1224  1231   ar
  1752  1224  1223    1
  1753   685   683    1
  1754  1771  1773    1
  1755  1771  1769    1
  1756   615   594    2
  1757  1376  1377   ar
  1758  1376  1374   ar
  1759  1210  1211   ar
  1760   689   684    1
  1761  1773  1775    1
  1762   590   589   ar
  1763   590   591   ar
  1764   674   673    1
  1765  1801  1800    2
  1766  1240  1254    1
  1767  1806  1805   ar
  1768  1173  1175    1
  1769  1237  1235    1
  1770  1254  1276    2
  1771  1254  1275    1
  1772  1377  1370   ar
  1773  1820  1821    2
  1774  1820  1822   ar
  1775   668   673   ar
  1776   668   669   ar
  1777   614   594    1
  1778   589   586   ar
  1779  1800  1802   ar
  1780   577   578    1
  1781   577   579    1
  1782  1211  1201    1
  1783  1364  1363    1
  1784  1364  1369    1
  1785  1769  1767    1
  1786  1769  1770    1
  1787   578   594    1
  1788  1375  1374    2
  1789  1363  1365    1
  1790  1175  1177    1
  1791   594   596    1
  1792  1223  1221    1
  1793  1223  1218    1
  1794   673   672   ar
  1795  1374  1373   ar
  1796  1823  1822   ar
  1797  1823  1824    2
  1798  1179  1177    1
  1799  1179  1180    1
  1800  1516  1515    1
  1801   581   591    1
  1802   581   579    1
  1803  1177  1178    1
  1804  1767  1768    1
  1805   669   670   ar
  1806  1221  1222    1
  1807  1221  1219    1
  1808  1213  1192    2
  1809   591   585   ar
  1810  1805  1803   ar
  1811  1496  1495    1
  1812   683   684    1
  1813   683   681    1
  1814  1370  1369    1
  1815  1370  1371   ar
  1816  1775  1770    1
  1817  1775  1786    1
  1818  1512  1511    1
  1819  1512  1517    1
  1820  1511  1509    1
  1821  1511  1513    1
  1822  1802  1803   ar
  1823  1235  1236    1
  1824   579   580    1
  1825  1369  1367    1
  1826  1236  1234    1
  1827   586   585   ar
  1828   586   587   ar
  1829  1365  1366    1
  1830  1365  1367    1
  1831   672   671   ar
  1832   672   675   ar
  1833  1201  1196    1
  1834  1201  1199    1
  1835  1373  1371   ar
  1836  1778  1777    1
  1837  1517  1515    1
  1838  1517  1527    1
  1839  1218  1217    1
  1840  1509  1510    1
  1841  1402  1380    2
  1842  1779  1777   ar
  1843  1779  1780   ar
  1844   670   671   ar
  1845   652   651    1
  1846  1803  1804    2
  1847  1768  1766    1
  1848  1515  1513    1
  1849  1371  1372    2
  1850   682   681    1
  1851   682   680    1
  1852  1178  1192    1
  1853   585   584   ar
  1854   596   595    1
  1855  1500  1499    2
  1856  1787  1766    2
  1857  1514  1513    1
  1858  1514  1530    1
  1859  1219  1217    1
  1860  1219  1220    1
  1861  1192  1194    1
  1862  1192  1212    1
  1863   671   677   ar
  1864   675   676   ar
  1865  1366  1380    1
  1866  1777  1776   ar
  1867  1786  1780   ar
  1868  1786  1785   ar
  1869  1196  1195    1
  1870   588   587    1
  1871  1477  1478   ar
  1872  1477  1476   ar
  1873  1455  1454    1
  1874  1199  1197    1
  1875  1199  1200    1
  1876  1495  1497    1
  1877  1495  1493    1
  1878  1194  1193    1
  1879  1367  1368    1
  1880  1780  1781   ar
  1881  1531  1533    1
  1882  1531  1532    1
  1883  1497  1492    1
  1884  1497  1498    1
  1885   587   582   ar
  1886  1253  1234    2
  1887  1397  1396    2
  1888   611   612   ar
  1889   611   608   ar
  1890   701   680    2
  1891  1380  1401    1
  1892  1380  1382    1
  1893  1533  1534    1
  1894  1533  1535    1
  1895  1217  1215    1
  1896  1234  1220    1
  1897  1234  1252    1
  1898  1534  1539    1
  1899  1766  1752    1
  1900  1766  1788    1
  1901   610   609    1
  1902  1520  1521   ar
  1903  1520  1519   ar
  1904  1478  1479   ar
  1905  1476  1481   ar
  1906  1548  1530    2
  1907  1527  1521   ar
  1908  1527  1526   ar
  1909   651   646   ar
  1910   651   650   ar
  1911  1492  1491    1
  1912  1233  1214    2
  1913   631   630    1
  1914  1754  1753    1
  1915  1197  1195    1
  1916  1197  1198    1
  1917  1494  1493    1
  1918  1494  1508    1
  1919   595   597    1
  1920  1398  1399   ar
  1921  1398  1395   ar
  1922  1453  1454   ar
  1923  1453  1459   ar
  1924   635   616    2
  1925  1491  1493    1
  1926  1491  1489    1
  1927   646   647   ar
  1928  1510  1508    1
  1929   612   613   ar
  1930   676   677   ar
  1931   677   667    1
  1932  1499  1498   ar
  1933  1499  1501   ar
  1934   680   700    1
  1935   680   664    1
  1936  1785  1784   ar
  1937  1216  1215    1
  1938  1216  1214    1
  1939   584   583   ar
  1940  1530  1532    1
  1941  1530  1549    1
  1942  1454  1456   ar
  1943  1195  1193    1
  1944  1776  1782   ar
  1945  1521  1522   ar
  1946  1752  1751    1
  1947  1528  1508    2
  1948  1538  1537    1
  1949   665   666    1
  1950   665   667    1
  1951   665   663    1
  1952  1460  1459    2
  1953  1498  1505   ar
  1954  1418  1417    2
  1955  1519  1518   ar
  1956  1396  1395   ar
  1957  1396  1390   ar
  1958  1781  1784   ar
  1959  1781  1782   ar
  1960  1539  1537    1
  1961  1539  1540    1
  1962   608   609   ar
  1963   608   607   ar
  1964  1474  1473    1
  1965  1399  1400   ar
  1966  1526  1525   ar
  1967  1508  1529    1
  1968   582   583   ar
  1969   609   604   ar
  1970  1395  1394   ar
  1971  1753  1751    1
  1972  1753  1755    1
  1973   650   653   ar
  1974   650   649   ar
  1975  1459  1458   ar
  1976  1214  1198    1
  1977  1214  1232    1
  1978   653   654   ar
  1979   630   632   ar
  1980   630   629   ar
  1981  1536  1535    1
  1982  1536  1550    1
  1983  1382  1381    1
  1984  1535  1537    1
  1985   667   662    1
  1986   632   633   ar
  1987  1501  1502   ar
  1988  1479  1480   ar
  1989  1479  1485   ar
  1990  1782  1783    2
  1991  1481  1482    1
  1992  1481  1480   ar
  1993  1438  1437    2
  1994  1489  1490    1
  1995   647   648   ar
  1996   663   664    1
  1997   663   661    1
  1998  1758  1757    2
  1999   616   634    1
  2000   616   600    1
  2001   616   618    1
  2002   597   599    1
  2003   597   598    1
  2004  1751  1749    1
  2005   613   607   ar
  2006   613   603    1
  2007  1522  1525   ar
  2008  1522  1523   ar
  2009  1456  1457   ar
  2010   599   600    1
  2011   599   601    1
  2012   598   603    1
  2013  1473  1475    1
  2014  1473  1471    1
  2015  1417  1419   ar
  2016  1417  1416   ar
  2017  1518  1523   ar
  2018  1390  1391   ar
  2019  1475  1485    1
  2020  1475  1470    1
  2021  1540  1547   ar
  2022  1540  1541   ar
  2023  1505  1504   ar
  2024   607   606   ar
  2025  1480  1483   ar
  2026   649   648   ar
  2027   649   655   ar
  2028   657   636    2
  2029  1400  1394   ar
  2030  1400  1389    1
  2031  1547  1546   ar
  2032   679   658    2
  2033  1485  1484   ar
  2034   604   605   ar
  2035  1570  1550    2
  2036  1394  1393   ar
  2037   629   627   ar
  2038   654   655   ar
  2039  1755  1756    1
  2040  1755  1750    1
  2041   633   626   ar
  2042  1381  1383    1
  2043  1458  1457   ar
  2044  1458  1461   ar
  2045  1757  1756   ar
  2046  1757  1759   ar
  2047  1523  1524    1
  2048  1437  1436   ar
  2049  1437  1439   ar
  2050  1419  1420   ar
  2051   662   661    1
  2052   603   601    1
  2053  1502  1504   ar
  2054  1502  1503    1
  2055  1542  1541    2
  2056   618   617    1
  2057  1550  1571    1
  2058  1550  1552    1
  2059  1490  1488    1
  2060   660   658    1
  2061   660   659    1
  2062  1457  1463   ar
  2063  1749  1750    1
  2064  1749  1747    1
  2065  1541  1543   ar
  2066  1436  1434   ar
  2067  1384  1389    1
  2068  1384  1383    1
  2069   661   659    1
  2070  1416  1414   ar
  2071   601   602    1
  2072  1551  1552    1
  2073  1551  1553    1
  2074  1756  1763   ar
  2075   655   645    1
  2076  1759  1760   ar
  2077  1470  1469    1
  2078  1391  1393   ar
  2079  1391  1392    1
  2080  1546  1544   ar
  2081   605   606   ar
  2082   658   678    1
  2083   658   642    1
  2084  1471  1472    1
  2085  1471  1469    1
  2086  1389  1387    1
  2087  1483  1484   ar
  2088  1472  1488    1
  2089  1383  1385    1
  2090   627   626   ar
  2091   627   628    2
  2092   626   625    1
  2093   636   638    1
  2094   636   656    1
  2095   636   622    1
  2096  1461  1462   ar
  2097  1422  1403    2
  2098  1439  1440   ar
  2099  1554  1553    1
  2100  1554  1559    1
  2101  1469  1467    1
  2102  1543  1544   ar
  2103  1747  1748    1
  2104  1420  1413   ar
  2105  1553  1555    1
  2106   638   637    1
  2107  1488  1506    2
  2108  1488  1507    1
  2109  1385  1387    1
  2110  1385  1386    1
  2111  1434  1435    2
  2112  1434  1433   ar
  2113  1544  1545    2
  2114  1463  1462   ar
  2115  1463  1452    1
  2116   617   619    1
  2117  1763  1762   ar
  2118  1760  1761    2
  2119  1760  1762   ar
  2120   643   641    1
  2121   643   645    1
  2122   643   644    1
  2123  1414  1413   ar
  2124  1414  1415    2
  2125   641   642    1
  2126   641   639    1
  2127   621   622    1
  2128   621   619    1
  2129   621   623    1
  2130   645   640    1
  2131  1748  1746    1
  2132  1387  1388    1
  2133  1413  1412    1
  2134   625   620    1
  2135   625   623    1
  2136  1452  1450    1
  2137  1452  1447    1
  2138   620   619    1
  2139   623   624    1
  2140  1440  1433   ar
  2141  1386  1403    1
  2142  1559  1569    1
  2143  1559  1557    1
  2144  1451  1450    1
  2145  1450  1448    1
  2146   640   639    1
  2147  1403  1405    1
  2148  1403  1421    1
  2149  1568  1569   ar
  2150  1568  1567   ar
  2151  1433  1432    1
  2152  1735  1734   ar
  2153  1735  1736   ar
  2154   637   639    1
  2155  1467  1468    1
  2156  1734  1739   ar
  2157  1555  1556    1
  2158  1555  1557    1
  2159  1569  1563   ar
  2160  1764  1746    2
  2161  1567  1564   ar
  2162  1405  1404    1
  2163  1746  1765    1
  2164  1746  1730    1
  2165  1556  1572    1
  2166  1558  1557    1
  2167  1468  1466    1
  2168  1736  1737   ar
  2169  1412  1407    1
  2170  1412  1410    1
  2171  1447  1446    1
  2172  1739  1740    1
  2173  1739  1738   ar
  2174  1407  1406    1
  2175  1448  1449    1
  2176  1448  1446    1
  2177  1432  1430    1
  2178  1432  1427    1
  2179  1563  1564   ar
  2180  1563  1562   ar
  2181  1564  1565   ar
  2182  1732  1731    1
  2183  1731  1729    1
  2184  1731  1733    1
  2185  1737  1738   ar
  2186  1737  1743   ar
  2187  1591  1572    2
  2188  1730  1729    1
  2189  1572  1590    1
  2190  1572  1574    1
  2191  1738  1741   ar
  2192  1404  1406    1
  2193  1442  1423    2
  2194  1410  1408    1
  2195  1410  1411    1
  2196  1449  1466    1
  2197  1562  1561   ar
  2198  1430  1431    1
  2199  1430  1428    1
  2200  1446  1444    1
  2201  1408  1406    1
  2202  1408  1409    1
  2203  1427  1426    1
  2204  1466  1487    2
  2205  1466  1486    1
  2206  1729  1727    1
  2207  1565  1566    1
  2208  1565  1560   ar
  2209  1743  1733    1
  2210  1743  1742   ar
  2211  1733  1728    1
  2212  1561  1560   ar
  2213  1445  1444    1
  2214  1445  1443    1
  2215  1741  1742   ar
  2216  1425  1423    1
  2217  1425  1424    1
  2218  1428  1426    1
  2219  1428  1429    1
  2220  1423  1409    1
  2221  1423  1441    1
  2222  1465  1443    2
  2223  1574  1573    1
  2224  1426  1424    1
  2225  1573  1575    1
  2226  1588  1589   ar
  2227  1588  1586   ar
  2228  1727  1728    1
  2229  1727  1725    1
  2230  1443  1429    1
  2231  1443  1464    1
  2232  1589  1582   ar
  2233  1576  1575    1
  2234  1576  1581    1
  2235  1719  1718    2
  2236  1587  1586    1
  2237  1586  1585   ar
  2238  1575  1577    1
  2239  1726  1725    1
  2240  1726  1724    1
  2241  1582  1581    1
  2242  1582  1583   ar
  2243  1717  1718   ar
  2244  1717  1715   ar
  2245  1718  1720   ar
  2246  1581  1579    1
  2247  1745  1724    2
  2248  1585  1583   ar
  2249  1583  1584    2
  2250  1716  1715    2
  2251  1698  1697    2
  2252  1715  1714   ar
  2253  1724  1744    1
  2254  1724  1710    1
  2255  1577  1579    1
  2256  1577  1578    1
  2257  1720  1721   ar
  2258  1609  1608    2
  2259  1579  1580    1
  2260  1714  1721   ar
  2261  1714  1713    1
  2262  1697  1691   ar
  2263  1697  1696   ar
  2264  1614  1592    2
  2265  1711  1709    1
  2266  1711  1712    1
  2267  1711  1713    1
  2268  1578  1592    1
  2269  1691  1692   ar
  2270  1610  1607   ar
  2271  1610  1611   ar
  2272  1608  1607   ar
  2273  1608  1602   ar
  2274  1710  1709    1
  2275  1709  1707    1
  2276  1713  1708    1
  2277  1607  1606   ar
  2278  1696  1699   ar
  2279  1696  1695   ar
  2280  1699  1700   ar
  2281  1723  1704    2
  2282  1592  1613    1
  2283  1592  1594    1
  2284  1611  1612   ar
  2285  1692  1693    1
  2286  1692  1694   ar
  2287  1602  1603   ar
  2288  1706  1704    1
  2289  1706  1705    1
  2290  1695  1694   ar
  2291  1695  1701   ar
  2292  1708  1707    1
  2293  1707  1705    1
  2294  1700  1701   ar
  2295  1594  1593    1
  2296  1606  1612   ar
  2297  1606  1605   ar
  2298  1704  1722    1
  2299  1704  1687    1
  2300  1612  1601    1
  2301  1603  1605   ar
  2302  1603  1604    1
  2303  1701  1690    1
  2304  1657  1637    2
  2305  1596  1601    1
  2306  1596  1595    1
  2307  1593  1595    1
  2308  1686  1688    1
  2309  1686  1687    1
  2310  1686  1684    1
  2311  1688  1690    1
  2312  1688  1689    1
  2313  1680  1659    2
  2314  1601  1599    1
  2315  1658  1637    1
  2316  1690  1685    1
  2317  1595  1597    1
  2318  1637  1639    1
  2319  1637  1621    1
  2320  1683  1682    1
  2321  1683  1681    1
  2322  1703  1681    2
  2323  1682  1684    1
  2324  1679  1659    1
  2325  1636  1615    2
  2326  1597  1599    1
  2327  1597  1598    1
  2328  1685  1684    1
  2329  1659  1661    1
  2330  1659  1643    1
  2331  1599  1600    1
  2332  1639  1638    1
  2333  1681  1702    1
  2334  1681  1665    1
  2335  1621  1620    1
  2336  1638  1640    1
  2337  1675  1674    1
  2338  1676  1677   ar
  2339  1676  1673   ar
  2340  1661  1660    1
  2341  1598  1615    1
  2342  1616  1617    1
  2343  1616  1618    1
  2344  1643  1642    1
  2345  1615  1617    1
  2346  1615  1635    1
  2347  1674  1673   ar
  2348  1674  1669   ar
  2349  1677  1678   ar
  2350  1642  1640    1
  2351  1642  1644    1
  2352  1620  1618    1
  2353  1620  1622    1
  2354  1673  1672   ar
  2355  1640  1641    1
  2356  1665  1664    1
  2357  1618  1619    1
  2358  1660  1662    1
  2359  1664  1662    1
  2360  1664  1666    1
  2361  1669  1670   ar
  2362  1655  1654   ar
  2363  1655  1656   ar
  2364  1678  1672   ar
  2365  1678  1668    1
  2366  1672  1671   ar
  2367  1654  1651   ar
  2368  1641  1646    1
  2369  1662  1663    1
  2370  1666  1668    1
  2371  1666  1667    1
  2372  1644  1646    1
  2373  1644  1645    1
  2374  1622  1623    1
  2375  1622  1624    1
  2376  1619  1624    1
  2377  1670  1671   ar
  2378  1656  1646    1
  2379  1656  1650   ar
  2380  1663  1668    1
  2381  1651  1650   ar
  2382  1651  1652   ar
  2383  1624  1634    1
  2384  1653  1652    1
  2385  1650  1649   ar
  2386  1652  1647   ar
  2387  1633  1634   ar
  2388  1633  1632   ar
  2389  1634  1628   ar
  2390  1632  1629   ar
  2391  1649  1648   ar
  2392  1628  1629   ar
  2393  1628  1627   ar
  2394  1647  1648   ar
  2395  1629  1630   ar
  2396  1627  1626   ar
  2397  1630  1631    1
  2398  1630  1625   ar
  2399  1626  1625   ar
